REMARK WARNING: 32 MAX_TORS EXCEEDED!!!
REMARK  64 active torsions:
REMARK  status: ('A' for Active; 'I' for Inactive)
REMARK    1  A    between atoms: N_1  and  CA_2 
REMARK    2  A    between atoms: CA_2  and  C_3 
REMARK    3  A    between atoms: CA_2  and  CB_5 
REMARK       I    between atoms: C_3  and  N_11 
REMARK    4  A    between atoms: CB_5  and  CG_6 
REMARK    5  A    between atoms: CG_6  and  CD_7 
REMARK    6  A    between atoms: N_11  and  CA_12 
REMARK    7  A    between atoms: CA_12  and  C_13 
REMARK    8  A    between atoms: CA_12  and  CB_15 
REMARK       I    between atoms: C_13  and  N_22 
REMARK    9  A    between atoms: CB_15  and  CG_16 
REMARK       I    between atoms: CG_16  and  ND2_17 
REMARK   10  A    between atoms: CA_23  and  C_24 
REMARK       I    between atoms: C_24  and  N_29 
REMARK   11  A    between atoms: N_29  and  CA_30 
REMARK   12  A    between atoms: CA_30  and  C_31 
REMARK   13  A    between atoms: CA_30  and  CB_33 
REMARK       I    between atoms: C_31  and  N_39 
REMARK   14  A    between atoms: CB_33  and  CG_34 
REMARK   15  A    between atoms: CG_34  and  CD_35 
REMARK   16  A    between atoms: N_39  and  CA_40 
REMARK   17  A    between atoms: CA_40  and  C_41 
REMARK   18  A    between atoms: CA_40  and  CB_43 
REMARK       I    between atoms: C_41  and  N_47 
REMARK   19  A    between atoms: CB_43  and  OG_44 
REMARK   20  A    between atoms: N_47  and  CA_48 
REMARK   21  A    between atoms: CA_48  and  C_49 
REMARK   22  A    between atoms: CA_48  and  CB_51 
REMARK       I    between atoms: C_49  and  N_56 
REMARK   23  A    between atoms: CB_51  and  CG1_52 
REMARK   24  A    between atoms: N_56  and  CA_57 
REMARK   25  A    between atoms: CA_57  and  C_58 
REMARK   26  A    between atoms: CA_57  and  CB_60 
REMARK       I    between atoms: C_58  and  N_65 
REMARK   27  A    between atoms: CB_60  and  CG_61 
REMARK   28  A    between atoms: N_65  and  CA_66 
REMARK   29  A    between atoms: CA_66  and  C_67 
REMARK   30  A    between atoms: CA_66  and  CB_69 
REMARK       I    between atoms: C_67  and  N_74 
REMARK   31  A    between atoms: CB_69  and  CG_70 
REMARK   32  A    between atoms: N_74  and  CA_75 
REMARK   33  A    between atoms: CA_75  and  C_76 
REMARK   34  A    between atoms: CA_75  and  CB_78 
REMARK       I    between atoms: C_76  and  N_84 
REMARK   35  A    between atoms: CB_78  and  CG_79 
REMARK   36  A    between atoms: CG_79  and  CD_80 
REMARK   37  A    between atoms: N_84  and  CA_85 
REMARK   38  A    between atoms: CA_85  and  C_86 
REMARK   39  A    between atoms: CA_85  and  CB_88 
REMARK       I    between atoms: C_86  and  N_96 
REMARK   40  A    between atoms: CB_88  and  CG_89 
REMARK   41  A    between atoms: N_96  and  CA_97 
REMARK   42  A    between atoms: CA_97  and  C_98 
REMARK   43  A    between atoms: CA_97  and  CB_100 
REMARK       I    between atoms: C_98  and  N_104 
REMARK   44  A    between atoms: N_104  and  CA_105 
REMARK   45  A    between atoms: CA_105  and  C_106 
REMARK   46  A    between atoms: CA_105  and  CB_108 
REMARK       I    between atoms: C_106  and  N_116 
REMARK   47  A    between atoms: CB_108  and  CG_109 
REMARK   48  A    between atoms: CG_109  and  CD_110 
REMARK       I    between atoms: CD_110  and  NE2_111 
REMARK   49  A    between atoms: N_116  and  CA_117 
REMARK   50  A    between atoms: CA_117  and  C_118 
REMARK   51  A    between atoms: CA_117  and  CB_120 
REMARK       I    between atoms: C_118  and  N_133 
REMARK   52  A    between atoms: CB_120  and  CG_121 
REMARK   53  A    between atoms: CG_121  and  CD_122 
REMARK   54  A    between atoms: CD_122  and  NE_123 
REMARK       I    between atoms: NE_123  and  CZ_124 
REMARK       I    between atoms: CZ_124  and  NH1_125 
REMARK   55  A    between atoms: N_133  and  CA_134 
REMARK   56  A    between atoms: CA_134  and  C_135 
REMARK   57  A    between atoms: CA_134  and  CB_137 
REMARK       I    between atoms: C_135  and  N_141 
REMARK   58  A    between atoms: N_141  and  CA_142 
REMARK   59  A    between atoms: CA_142  and  C_143 
REMARK   60  A    between atoms: CA_142  and  CB_145 
REMARK       I    between atoms: C_143  and  N_150 
REMARK   61  A    between atoms: CB_145  and  CG_146 
REMARK   62  A    between atoms: CG_146  and  SD_147 
REMARK   63  A    between atoms: N_150  and  CA_151 
REMARK   64  A    between atoms: CA_151  and  C_152 
ROOT
ATOM      1  CA  GLU d   9    2507.735 774.136-2611.789  0.00  0.00     0.177 C 
ENDROOT
BRANCH   1   2
ATOM      2  N   GLU d   9    2506.431 773.479-2611.844  0.00  0.00    -0.346 N 
ATOM      3  C   ASP d   8    2505.751 773.528-2612.939  0.00  0.00     0.241 C 
ATOM      4  O   ASP d   8    2506.224 774.133-2613.914  0.00  0.00    -0.271 OA
ATOM      5  H   GLU d   9    2506.068 772.993-2611.037  0.00  0.00     0.163 HD
BRANCH   3   6
ATOM      6  CA  ASP d   8    2504.404 772.849-2612.996  0.00  0.00     0.186 C 
BRANCH   6   7
ATOM      7  N   ASP d   8    2504.474 771.500-2612.442  0.00  0.00    -0.346 N 
ATOM      8  C   LEU d   7    2505.311 770.659-2612.948  0.00  0.00     0.241 C 
ATOM      9  O   LEU d   7    2506.032 771.021-2613.890  0.00  0.00    -0.271 OA
ATOM     10  H   ASP d   8    2503.876 771.230-2611.674  0.00  0.00     0.163 HD
BRANCH   8  11
ATOM     11  CA  LEU d   7    2505.383 769.264-2612.375  0.00  0.00     0.177 C 
BRANCH  11  12
ATOM     12  N   LEU d   7    2505.438 769.300-2610.916  0.00  0.00    -0.346 N 
ATOM     13  C   ILE d   6    2506.384 769.963-2610.343  0.00  0.00     0.241 C 
ATOM     14  O   ILE d   6    2507.219 770.550-2611.047  0.00  0.00    -0.271 OA
ATOM     15  H   LEU d   7    2504.746 768.813-2610.365  0.00  0.00     0.163 HD
BRANCH  13  16
ATOM     16  CA  ILE d   6    2506.441 770.001-2608.835  0.00  0.00     0.180 C 
BRANCH  16  17
ATOM     17  N   ILE d   6    2505.128 770.296-2608.269  0.00  0.00    -0.346 N 
ATOM     18  C   SER d   5    2504.524 771.379-2608.623  0.00  0.00     0.243 C 
ATOM     19  O   SER d   5    2505.072 772.133-2609.428  0.00  0.00    -0.271 OA
ATOM     20  H   ILE d   6    2504.699 769.662-2607.610  0.00  0.00     0.163 HD
BRANCH  18  21
ATOM     21  CA  SER d   5    2503.165 771.685-2608.038  0.00  0.00     0.200 C 
BRANCH  21  22
ATOM     22  N   SER d   5    2502.295 770.514-2608.097  0.00  0.00    -0.344 N 
ATOM     23  C   GLU d   4    2502.068 769.962-2609.240  0.00  0.00     0.241 C 
ATOM     24  O   GLU d   4    2502.595 770.441-2610.254  0.00  0.00    -0.271 OA
ATOM     25  H   SER d   5    2501.877 770.143-2607.256  0.00  0.00     0.163 HD
BRANCH  23  26
ATOM     26  CA  GLU d   4    2501.169 768.751-2609.302  0.00  0.00     0.177 C 
BRANCH  26  27
ATOM     27  N   GLU d   4    2501.528 767.780-2608.272  0.00  0.00    -0.346 N 
ATOM     28  C   PRO d   3    2502.733 767.320-2608.239  0.00  0.00     0.241 C 
ATOM     29  O   PRO d   3    2503.556 767.703-2609.071  0.00  0.00    -0.271 OA
ATOM     30  H   GLU d   4    2500.843 767.473-2607.595  0.00  0.00     0.163 HD
BRANCH  28  31
ATOM     31  CA  PRO d   3    2503.130 766.296-2607.162  0.00  0.00     0.179 C 
ATOM     32  N   PRO d   3    2502.678 766.705-2605.841  0.00  0.00    -0.337 N 
ATOM     33  C   ASN d   2    2503.200 767.700-2605.207  0.00  0.00     0.243 C 
ATOM     34  CD  PRO d   3    2501.600 765.913-2605.292  0.00  0.00     0.127 C 
ATOM     35  O   ASN d   2    2504.115 768.331-2605.735  0.00  0.00    -0.271 OA
ATOM     36  CG  PRO d   3    2501.142 765.094-2606.502  0.00  0.00     0.022 C 
ATOM     37  CB  PRO d   3    2502.426 764.942-2607.332  0.00  0.00     0.037 C 
BRANCH  33  38
ATOM     38  CA  ASN d   2    2502.668 768.056-2603.838  0.00  0.00     0.185 C 
BRANCH  38  39
ATOM     39  N   ASN d   2    2501.209 768.095-2603.838  0.00  0.00    -0.346 N 
ATOM     40  C   GLU d   1    2500.604 768.881-2604.663  0.00  0.00     0.242 C 
ATOM     41  O   GLU d   1    2501.280 769.580-2605.432  0.00  0.00    -0.271 OA
ATOM     42  H   ASN d   2    2500.681 767.515-2603.202  0.00  0.00     0.163 HD
BRANCH  40  43
ATOM     43  CA  GLU d   1    2499.095 768.921-2604.663  0.00  0.00     0.191 C 
BRANCH  43  44
ATOM     44  N   GLU d   1    2498.536 767.572-2604.663  0.00  0.00    -0.326 NA
ATOM     45  H   GLU d   1    2499.163 766.693-2604.663  0.00  0.00     0.180 HD
ENDBRANCH  43  44
BRANCH  43  46
ATOM     46  CB  GLU d   1    2498.572 769.706-2603.427  0.00  0.00     0.047 C 
BRANCH  46  47
ATOM     47  CG  GLU d   1    2499.047 771.191-2603.315  0.00  0.00     0.116 C 
BRANCH  47  48
ATOM     48  CD  GLU d   1    2498.623 771.995-2602.100  0.00  0.00     0.172 C 
ATOM     49  OE1 GLU d   1    2497.895 771.493-2601.222  0.00  0.00    -0.648 OA
ATOM     50  OE2 GLU d   1    2499.053 773.165-2602.028  0.00  0.00    -0.648 OA
ENDBRANCH  47  48
ENDBRANCH  46  47
ENDBRANCH  43  46
ENDBRANCH  40  43
ENDBRANCH  38  39
BRANCH  38  51
ATOM     51  CB  ASN d   2    2503.160 767.033-2602.773  0.00  0.00     0.137 C 
BRANCH  51  52
ATOM     52  CG  ASN d   2    2502.697 767.257-2601.330  0.00  0.00     0.217 C 
ATOM     53  ND2 ASN d   2    2503.291 768.172-2600.612  0.00  0.00    -0.370 N 
ATOM     54 21HD ASN d   2    2502.810 768.345-2599.725  0.00  0.00     0.159 HD
ATOM     55 22HD ASN d   2    2503.992 768.743-2601.081  0.00  0.00     0.159 HD
ATOM     56  OD1 ASN d   2    2501.775 766.623-2600.836  0.00  0.00    -0.274 OA
ENDBRANCH  51  52
ENDBRANCH  38  51
ENDBRANCH  33  38
ENDBRANCH  28  31
ENDBRANCH  26  27
BRANCH  26  57
ATOM     57  CB  GLU d   4    2499.680 769.170-2609.132  0.00  0.00     0.045 C 
BRANCH  57  58
ATOM     58  CG  GLU d   4    2499.133 770.174-2610.198  0.00  0.00     0.116 C 
BRANCH  58  59
ATOM     59  CD  GLU d   4    2497.706 770.671-2610.055  0.00  0.00     0.172 C 
ATOM     60  OE1 GLU d   4    2496.979 770.273-2609.124  0.00  0.00    -0.648 OA
ATOM     61  OE2 GLU d   4    2497.317 771.500-2610.903  0.00  0.00    -0.648 OA
ENDBRANCH  58  59
ENDBRANCH  57  58
ENDBRANCH  26  57
ENDBRANCH  23  26
ENDBRANCH  21  22
BRANCH  21  62
ATOM     62  CB  SER d   5    2503.276 772.217-2606.588  0.00  0.00     0.199 C 
BRANCH  62  63
ATOM     63  OG  SER d   5    2504.007 771.338-2605.727  0.00  0.00    -0.398 OA
ATOM     64  HG  SER d   5    2503.518 770.513-2605.676  0.00  0.00     0.209 HD
ENDBRANCH  62  63
ENDBRANCH  21  62
ENDBRANCH  18  21
ENDBRANCH  16  17
BRANCH  16  65
ATOM     65  CB  ILE d   6    2507.040 768.664-2608.235  0.00  0.00     0.013 C 
ATOM     66  CG2 ILE d   6    2508.481 768.362-2608.750  0.00  0.00     0.012 C 
BRANCH  65  67
ATOM     67  CG1 ILE d   6    2507.059 768.602-2606.674  0.00  0.00     0.002 C 
ATOM     68  CD1 ILE d   6    2507.329 767.213-2606.059  0.00  0.00     0.005 C 
ENDBRANCH  65  67
ENDBRANCH  16  65
ENDBRANCH  13  16
ENDBRANCH  11  12
BRANCH  11  69
ATOM     69  CB  LEU d   7    2504.180 768.404-2612.855  0.00  0.00     0.038 C 
BRANCH  69  70
ATOM     70  CG  LEU d   7    2504.106 766.924-2612.389  0.00  0.00    -0.020 C 
ATOM     71  CD1 LEU d   7    2502.917 766.219-2613.054  0.00  0.00     0.009 C 
ATOM     72  CD2 LEU d   7    2505.400 766.145-2612.680  0.00  0.00     0.009 C 
ENDBRANCH  69  70
ENDBRANCH  11  69
ENDBRANCH   8  11
ENDBRANCH   6   7
BRANCH   6  73
ATOM     73  CB  ASP d   8    2503.327 773.689-2612.255  0.00  0.00     0.147 C 
BRANCH  73  74
ATOM     74  CG  ASP d   8    2503.109 775.110-2612.796  0.00  0.00     0.175 C 
ATOM     75  OD1 ASP d   8    2503.173 775.308-2614.027  0.00  0.00    -0.648 OA
ATOM     76  OD2 ASP d   8    2502.917 776.036-2611.981  0.00  0.00    -0.648 OA
ENDBRANCH  73  74
ENDBRANCH   6  73
ENDBRANCH   3   6
ENDBRANCH   1   2
BRANCH   1  77
ATOM     77  C   GLU d   9    2508.652 773.607-2612.865  0.00  0.00     0.241 C 
ATOM     78  O   GLU d   9    2509.316 774.361-2613.591  0.00  0.00    -0.271 OA
ATOM     79  N   HIS d  10    2508.748 772.332-2613.034  0.00  0.00    -0.346 N 
ATOM     80  H   HIS d  10    2508.217 771.697-2612.455  0.00  0.00     0.163 HD
BRANCH  79  81
ATOM     81  CA  HIS d  10    2509.635 771.820-2614.074  0.00  0.00     0.182 C 
BRANCH  81  82
ATOM     82  C   HIS d  10    2509.268 772.384-2615.426  0.00  0.00     0.241 C 
ATOM     83  O   HIS d  10    2510.121 772.848-2616.198  0.00  0.00    -0.271 OA
ATOM     84  N   VAL d  11    2508.031 772.383-2615.789  0.00  0.00    -0.346 N 
ATOM     85  H   VAL d  11    2507.317 772.011-2615.178  0.00  0.00     0.163 HD
BRANCH  84  86
ATOM     86  CA  VAL d  11    2507.675 772.929-2617.096  0.00  0.00     0.180 C 
BRANCH  86  87
ATOM     87  C   VAL d  11    2508.141 774.359-2617.229  0.00  0.00     0.241 C 
ATOM     88  O   VAL d  11    2508.742 774.763-2618.232  0.00  0.00    -0.271 OA
ATOM     89  N   GLN d  12    2507.904 775.185-2616.267  0.00  0.00    -0.346 N 
ATOM     90  H   GLN d  12    2507.416 774.880-2615.438  0.00  0.00     0.163 HD
BRANCH  89  91
ATOM     91  CA  GLN d  12    2508.354 776.568-2616.395  0.00  0.00     0.177 C 
BRANCH  91  92
ATOM     92  C   GLN d  12    2509.843 776.634-2616.633  0.00  0.00     0.241 C 
ATOM     93  O   GLN d  12    2510.331 777.342-2617.512  0.00  0.00    -0.271 OA
ATOM     94  N   ARG d  13    2510.628 775.928-2615.892  0.00  0.00    -0.346 N 
ATOM     95  H   ARG d  13    2510.251 775.339-2615.163  0.00  0.00     0.163 HD
BRANCH  94  96
ATOM     96  CA  ARG d  13    2512.068 775.993-2616.123  0.00  0.00     0.176 C 
BRANCH  96  97
ATOM     97  C   ARG d  13    2512.404 775.620-2617.548  0.00  0.00     0.241 C 
ATOM     98  O   ARG d  13    2513.173 776.292-2618.233  0.00  0.00    -0.271 OA
ATOM     99  N   VAL d  14    2511.867 774.566-2618.062  0.00  0.00    -0.346 N 
ATOM    100  H   VAL d  14    2511.232 773.998-2617.519  0.00  0.00     0.163 HD
BRANCH  99 101
ATOM    101  CA  VAL d  14    2512.192 774.206-2619.439  0.00  0.00     0.180 C 
BRANCH 101 102
ATOM    102  C   VAL d  14    2511.862 775.335-2620.385  0.00  0.00     0.241 C 
ATOM    103  O   VAL d  14    2512.655 775.716-2621.255  0.00  0.00    -0.271 OA
ATOM    104  N   MET d  15    2510.717 775.921-2620.283  0.00  0.00    -0.346 N 
ATOM    105  H   MET d  15    2510.052 775.629-2619.582  0.00  0.00     0.163 HD
BRANCH 104 106
ATOM    106  CA  MET d  15    2510.397 777.014-2621.197  0.00  0.00     0.177 C 
BRANCH 106 107
ATOM    107  C   MET d  15    2511.427 778.114-2621.110  0.00  0.00     0.241 C 
ATOM    108  O   MET d  15    2511.930 778.624-2622.123  0.00  0.00    -0.271 OA
ATOM    109  N   ALA d  16    2511.796 778.535-2619.948  0.00  0.00    -0.348 N 
ATOM    110  H   ALA d  16    2511.402 778.135-2619.108  0.00  0.00     0.163 HD
BRANCH 109 111
ATOM    111  CA  ALA d  16    2512.793 779.599-2619.865  0.00  0.00     0.158 C 
ATOM    112  CB  ALA d  16    2513.020 779.911-2618.376  0.00  0.00     0.041 C 
BRANCH 111 113
ATOM    113  C   ALA d  16    2514.063 779.206-2620.581  0.00  0.00     0.219 C 
ATOM    114  O   ALA d  16    2514.182 778.117-2621.156  0.00  0.00    -0.287 OA
ENDBRANCH 111 113
ENDBRANCH 109 111
ENDBRANCH 106 107
BRANCH 106 115
ATOM    115  CB  MET d  15    2508.976 777.560-2620.888  0.00  0.00     0.045 C 
BRANCH 115 116
ATOM    116  CG  MET d  15    2507.813 776.562-2621.079  0.00  0.00     0.076 C 
BRANCH 116 117
ATOM    117  SD  MET d  15    2506.240 777.428-2620.965  0.00  0.00    -0.173 SA
ATOM    118  CE  MET d  15    2505.158 775.998-2620.827  0.00  0.00     0.089 C 
ENDBRANCH 116 117
ENDBRANCH 115 116
ENDBRANCH 106 115
ENDBRANCH 104 106
ENDBRANCH 101 102
BRANCH 101 119
ATOM    119  CB  VAL d  14    2511.419 772.888-2619.845  0.00  0.00     0.009 C 
ATOM    120  CG1 VAL d  14    2511.507 772.469-2621.338  0.00  0.00     0.012 C 
ATOM    121  CG2 VAL d  14    2511.850 771.636-2619.044  0.00  0.00     0.012 C 
ENDBRANCH 101 119
ENDBRANCH  99 101
ENDBRANCH  96  97
BRANCH  96 122
ATOM    122  CB  ARG d  13    2512.781 775.054-2615.109  0.00  0.00     0.036 C 
BRANCH 122 123
ATOM    123  CG  ARG d  13    2514.326 775.207-2615.028  0.00  0.00     0.023 C 
BRANCH 123 124
ATOM    124  CD  ARG d  13    2514.953 774.220-2614.030  0.00  0.00     0.138 C 
BRANCH 124 125
ATOM    125  NE  ARG d  13    2516.430 774.427-2613.980  0.00  0.00    -0.227 N 
ATOM    126  CZ  ARG d  13    2517.279 773.736-2613.225  0.00  0.00     0.665 C 
ATOM    127  NH1 ARG d  13    2516.914 772.772-2612.426  0.00  0.00    -0.235 N 
ATOM    128  NH2 ARG d  13    2518.538 774.034-2613.282  0.00  0.00    -0.235 N 
ATOM    129 11HH ARG d  13    2515.908 772.586-2612.429  0.00  0.00     0.174 HD
ATOM    130 12HH ARG d  13    2517.627 772.289-2611.877  0.00  0.00     0.174 HD
ATOM    131 21HH ARG d  13    2518.806 774.792-2613.914  0.00  0.00     0.174 HD
ATOM    132 22HH ARG d  13    2519.174 773.493-2612.693  0.00  0.00     0.174 HD
ATOM    133  HE  ARG d  13    2516.882 775.149-2614.552  0.00  0.00     0.177 HD
ENDBRANCH 124 125
ENDBRANCH 123 124
ENDBRANCH 122 123
ENDBRANCH  96 122
ENDBRANCH  94  96
ENDBRANCH  91  92
BRANCH  91 134
ATOM    134  CB  GLN d  12    2507.963 777.336-2615.113  0.00  0.00     0.044 C 
BRANCH 134 135
ATOM    135  CG  GLN d  12    2508.324 778.858-2615.082  0.00  0.00     0.105 C 
BRANCH 135 136
ATOM    136  CD  GLN d  12    2508.023 779.672-2613.818  0.00  0.00     0.215 C 
ATOM    137  NE2 GLN d  12    2507.456 779.097-2612.789  0.00  0.00    -0.370 N 
ATOM    138 21HE GLN d  12    2507.349 779.692-2611.965  0.00  0.00     0.159 HD
ATOM    139 22HE GLN d  12    2507.292 778.093-2612.891  0.00  0.00     0.159 HD
ATOM    140  OE1 GLN d  12    2508.325 780.853-2613.741  0.00  0.00    -0.274 OA
ENDBRANCH 135 136
ENDBRANCH 134 135
ENDBRANCH  91 134
ENDBRANCH  89  91
ENDBRANCH  86  87
BRANCH  86 141
ATOM    141  CB  VAL d  11    2506.114 772.823-2617.315  0.00  0.00     0.009 C 
ATOM    142  CG1 VAL d  11    2505.546 773.526-2618.578  0.00  0.00     0.012 C 
ATOM    143  CG2 VAL d  11    2505.589 771.369-2617.387  0.00  0.00     0.012 C 
ENDBRANCH  86 141
ENDBRANCH  84  86
ENDBRANCH  81  82
BRANCH  81 144
ATOM    144  CB  HIS d  10    2509.471 770.291-2614.069  0.00  0.00     0.095 C 
BRANCH 144 145
ATOM    145  CG  HIS d  10    2510.756 769.580-2613.761  0.00  0.00     0.053 A 
ATOM    146  CD2 HIS d  10    2511.137 769.245-2612.468  0.00  0.00     0.116 A 
ATOM    147  NE2 HIS d  10    2512.352 768.613-2612.535  0.00  0.00    -0.359 N 
ATOM    148  CE1 HIS d  10    2512.614 768.615-2613.870  0.00  0.00     0.207 A 
ATOM    149  2HE HIS d  10    2512.919 768.236-2611.762  0.00  0.00     0.166 HD
ATOM    150  ND1 HIS d  10    2511.708 769.173-2614.693  0.00  0.00    -0.247 NA
ENDBRANCH 144 145
ENDBRANCH  81 144
ENDBRANCH  79  81
ENDBRANCH   1  77
BRANCH   1 151
ATOM    151  CB  GLU d   9    2508.368 773.928-2610.384  0.00  0.00     0.045 C 
BRANCH 151 152
ATOM    152  CG  GLU d   9    2509.751 774.620-2610.155  0.00  0.00     0.116 C 
BRANCH 152 153
ATOM    153  CD  GLU d   9    2510.453 774.407-2608.827  0.00  0.00     0.172 C 
ATOM    154  OE1 GLU d   9    2509.931 773.717-2607.930  0.00  0.00    -0.648 OA
ATOM    155  OE2 GLU d   9    2511.573 774.945-2608.696  0.00  0.00    -0.648 OA
ENDBRANCH 152 153
ENDBRANCH 151 152
ENDBRANCH   1 151
TORSDOF 64
