@<TRIPOS>MOLECULE
11-15
263 264 16              
SMALL
USER_CHARGES
@<TRIPOS>ATOM
1	   N	1796.395	538.884	-1840.066	N.3	1	GLU1	-0.516	
2	  CA	1796.954	540.233	-1840.066	C.3	1	GLU1	0.040	
3	   C	1798.463	540.193	-1840.066	C.2	1	GLU1	0.537	
4	   O	1799.139	540.892	-1840.834	O.2	1	GLU1	-0.582	
5	  CB	1796.431	541.018	-1838.828	C.3	1	GLU1	0.056	
6	  CG	1796.906	542.503	-1838.718	C.3	1	GLU1	0.014	
7	  CD	1796.482	543.307	-1837.502	C.2	1	GLU1	0.805	
8	 OE1	1795.754	542.805	-1836.625	O.co2	1	GLU1	-0.819	
9	 OE2	1796.912	544.477	-1837.431	O.co2	1	GLU1	-0.819	
10	   H	1797.022	538.005	-1840.066	 H	1	GLU1	0.294	
11	  HA	1796.628	540.751	-1840.985	 H	1	GLU1	0.111	
12	 2HB	1796.720	540.487	-1837.899	 H	1	GLU1	-0.017	
13	 3HB	1795.324	541.008	-1838.816	 H	1	GLU1	-0.017	
14	 2HG	1796.596	543.088	-1839.599	 H	1	GLU1	-0.043	
15	 3HG	1798.006	542.570	-1838.688	 H	1	GLU1	-0.043	
16	   N	1799.067	539.407	-1839.240	N.am	2	ASN2	-0.416	
17	  CA	1800.527	539.368	-1839.240	C.3	2	ASN2	0.014	
18	   C	1801.058	539.013	-1840.609	C.2	2	ASN2	0.597	
19	   O	1801.973	539.643	-1841.138	O.2	2	ASN2	-0.568	
20	  CB	1801.019	538.345	-1838.176	C.3	2	ASN2	-0.204	
21	  CG	1800.555	538.569	-1836.733	C.2	2	ASN2	0.713	
22	 ND2	1801.150	539.484	-1836.015	N.pl3	2	ASN2	-0.919	
23	 OD1	1799.635	537.935	-1836.239	O.2	2	ASN2	-0.593	
24	   H	1798.539	538.827	-1838.604	 H	2	ASN2	0.272	
25	  HA	1800.904	540.378	-1838.995	 H	2	ASN2	0.105	
26	 2HB	1802.123	538.286	-1838.180	 H	2	ASN2	0.080	
27	 3HB	1800.689	537.327	-1838.462	 H	2	ASN2	0.080	
28	1HD2	1800.669	539.657	-1835.128	 H	2	ASN2	0.420	
29	2HD2	1801.851	540.056	-1836.484	 H	2	ASN2	0.420	
30	   N	1800.536	538.018	-1841.243	N.am	3	PRO3	-0.255	
31	  CA	1800.988	537.608	-1842.565	C.3	3	PRO3	-0.027	
32	   C	1800.590	538.632	-1843.641	C.2	3	PRO3	0.590	
33	   O	1801.413	539.015	-1844.473	O.2	3	PRO3	-0.575	
34	  CB	1800.284	536.254	-1842.734	C.3	3	PRO3	-0.007	
35	  CG	1799.001	536.406	-1841.904	C.3	3	PRO3	0.019	
36	  CD	1799.458	537.225	-1840.694	C.3	3	PRO3	0.019	
37	  HA	1802.074	537.489	-1842.578	 H	3	PRO3	0.064	
38	 2HB	1800.907	535.472	-1842.293	 H	3	PRO3	0.025	
39	 3HB	1800.086	536.005	-1843.779	 H	3	PRO3	0.025	
40	 2HG	1798.573	535.444	-1841.613	 H	3	PRO3	0.021	
41	 3HG	1798.263	536.977	-1842.471	 H	3	PRO3	0.021	
42	 2HD	1799.847	536.575	-1839.906	 H	3	PRO3	0.039	
43	 3HD	1798.662	537.861	-1840.301	 H	3	PRO3	0.039	
44	   N	1799.385	539.092	-1843.674	N.am	4	GLU4	-0.516	
45	  CA	1799.026	540.063	-1844.703	C.3	4	GLU4	0.040	
46	   C	1799.924	541.274	-1844.642	C.2	4	GLU4	0.537	
47	   O	1800.451	541.754	-1845.657	O.2	4	GLU4	-0.582	
48	  CB	1797.537	540.482	-1844.533	C.3	4	GLU4	0.056	
49	  CG	1796.989	541.485	-1845.599	C.3	4	GLU4	0.014	
50	  CD	1795.562	541.982	-1845.455	C.2	4	GLU4	0.805	
51	 OE1	1794.836	541.584	-1844.524	O.co2	4	GLU4	-0.819	
52	 OE2	1795.173	542.811	-1846.303	O.co2	4	GLU4	-0.819	
53	   H	1798.701	538.785	-1842.997	 H	4	GLU4	0.294	
54	  HA	1799.156	539.593	-1845.695	 H	4	GLU4	0.111	
55	 2HB	1797.385	540.922	-1843.526	 H	4	GLU4	-0.017	
56	 3HB	1796.889	539.584	-1844.539	 H	4	GLU4	-0.017	
57	 2HG	1797.071	541.071	-1846.616	 H	4	GLU4	-0.043	
58	 3HG	1797.577	542.418	-1845.610	 H	4	GLU4	-0.043	
59	   N	1800.152	541.827	-1843.499	N.am	5	SER5	-0.416	
60	  CA	1801.021	542.998	-1843.441	C.3	5	SER5	-0.025	
61	   C	1802.380	542.693	-1844.026	C.2	5	SER5	0.597	
62	   O	1802.927	543.446	-1844.831	O.2	5	SER5	-0.568	
63	  CB	1801.133	543.530	-1841.990	C.3	5	SER5	0.212	
64	  OG	1801.865	542.651	-1841.129	O.3	5	SER5	-0.655	
65	   H	1799.735	541.455	-1842.658	 H	5	SER5	0.272	
66	  HA	1800.572	543.788	-1844.070	 H	5	SER5	0.084	
67	 2HB	1800.133	543.724	-1841.557	 H	5	SER5	0.035	
68	 3HB	1801.638	544.516	-1841.993	 H	5	SER5	0.035	
69	  HG	1801.376	541.826	-1841.078	 H	5	SER5	0.428	
70	   N	1802.985	541.609	-1843.672	N.am	6	ILE6	-0.416	
71	  CA	1804.298	541.315	-1844.238	C.3	6	ILE6	-0.060	
72	   C	1804.241	541.277	-1845.746	C.2	6	ILE6	0.597	
73	   O	1805.076	541.865	-1846.450	O.2	6	ILE6	-0.568	
74	  CB	1804.898	539.978	-1843.638	C.3	6	ILE6	0.130	
75	 CG1	1804.918	539.917	-1842.077	C.3	6	ILE6	-0.043	
76	 CG2	1806.339	539.677	-1844.154	C.3	6	ILE6	-0.320	
77	 CD1	1805.188	538.527	-1841.462	C.3	6	ILE6	-0.066	
78	   H	1802.557	540.975	-1843.013	 H	6	ILE6	0.272	
79	  HA	1804.972	542.149	-1843.970	 H	6	ILE6	0.087	
80	  HB	1804.240	539.153	-1843.982	 H	6	ILE6	0.019	
81	2HG1	1803.935	540.236	-1841.681	 H	6	ILE6	0.024	
82	3HG1	1805.634	540.659	-1841.673	 H	6	ILE6	0.024	
83	1HG2	1806.398	539.583	-1845.252	 H	6	ILE6	0.088	
84	2HG2	1807.062	540.459	-1843.851	 H	6	ILE6	0.088	
85	3HG2	1806.730	538.715	-1843.775	 H	6	ILE6	0.088	
86	1HD1	1804.460	537.773	-1841.817	 H	6	ILE6	0.019	
87	2HD1	1806.198	538.149	-1841.698	 H	6	ILE6	0.019	
88	3HD1	1805.112	538.557	-1840.360	 H	6	ILE6	0.019	
89	   N	1803.295	540.614	-1846.320	N.am	7	LEU7	-0.416	
90	  CA	1803.240	540.578	-1847.778	C.3	7	LEU7	-0.052	
91	   C	1803.168	541.973	-1848.351	C.2	7	LEU7	0.597	
92	   O	1803.888	542.336	-1849.293	O.2	7	LEU7	-0.568	
93	  CB	1802.037	539.717	-1848.259	C.3	7	LEU7	-0.110	
94	  CG	1801.965	538.238	-1847.792	C.3	7	LEU7	0.353	
95	 CD1	1800.775	537.532	-1848.458	C.3	7	LEU7	-0.412	
96	 CD2	1803.259	537.459	-1848.084	C.3	7	LEU7	-0.412	
97	   H	1802.603	540.126	-1845.768	 H	7	LEU7	0.272	
98	  HA	1804.182	540.138	-1848.152	 H	7	LEU7	0.092	
99	 2HB	1802.014	539.733	-1849.366	 H	7	LEU7	0.046	
100	 3HB	1801.098	540.220	-1847.954	 H	7	LEU7	0.046	
101	  HG	1801.795	538.230	-1846.695	 H	7	LEU7	-0.036	
102	1HD1	1799.818	538.041	-1848.235	 H	7	LEU7	0.100	
103	2HD1	1800.874	537.491	-1849.559	 H	7	LEU7	0.100	
104	3HD1	1800.668	536.491	-1848.102	 H	7	LEU7	0.100	
105	1HD2	1803.534	537.489	-1849.154	 H	7	LEU7	0.100	
106	2HD2	1804.112	537.871	-1847.513	 H	7	LEU7	0.100	
107	3HD2	1803.177	536.396	-1847.788	 H	7	LEU7	0.100	
108	   N	1802.330	542.813	-1847.844	N.am	8	ASP8	-0.516	
109	  CA	1802.260	544.163	-1848.398	C.3	8	ASP8	0.038	
110	   C	1803.606	544.843	-1848.340	C.2	8	ASP8	0.537	
111	   O	1804.079	545.448	-1849.315	O.2	8	ASP8	-0.582	
112	  CB	1801.181	545.001	-1847.656	C.3	8	ASP8	-0.030	
113	  CG	1800.962	546.422	-1848.196	C.2	8	ASP8	0.799	
114	 OD1	1801.026	546.622	-1849.427	O.co2	8	ASP8	-0.801	
115	 OD2	1800.770	547.348	-1847.380	O.co2	8	ASP8	-0.801	
116	   H	1801.732	542.542	-1847.077	 H	8	ASP8	0.294	
117	  HA	1801.977	544.085	-1849.465	 H	8	ASP8	0.088	
118	 2HB	1801.439	545.085	-1846.584	 H	8	ASP8	-0.012	
119	 3HB	1800.202	544.496	-1847.689	 H	8	ASP8	-0.012	
120	   N	1804.286	544.793	-1847.245	N.am	9	GLU9	-0.516	
121	  CA	1805.588	545.451	-1847.190	C.3	9	GLU9	0.040	
122	   C	1806.507	544.924	-1848.266	C.2	9	GLU9	0.537	
123	   O	1807.170	545.679	-1848.991	O.2	9	GLU9	-0.582	
124	  CB	1806.222	545.244	-1845.784	C.3	9	GLU9	0.056	
125	  CG	1807.605	545.936	-1845.555	C.3	9	GLU9	0.014	
126	  CD	1808.307	545.723	-1844.227	C.2	9	GLU9	0.805	
127	 OE1	1807.786	545.032	-1843.331	O.co2	9	GLU9	-0.819	
128	 OE2	1809.426	546.261	-1844.095	O.co2	9	GLU9	-0.819	
129	   H	1803.923	544.306	-1846.438	 H	9	GLU9	0.294	
130	  HA	1805.446	546.533	-1847.365	 H	9	GLU9	0.111	
131	 2HB	1806.336	544.159	-1845.581	 H	9	GLU9	-0.017	
132	 3HB	1805.525	545.596	-1845.000	 H	9	GLU9	-0.017	
133	 2HG	1807.532	547.027	-1845.695	 H	9	GLU9	-0.043	
134	 3HG	1808.351	545.592	-1846.289	 H	9	GLU9	-0.043	
135	   N	1806.604	543.649	-1848.436	N.am	10	HIS10	-0.416	
136	  CA	1807.492	543.138	-1849.476	C.3	10	HIS10	-0.058	
137	   C	1807.124	543.703	-1850.827	C.2	10	HIS10	0.597	
138	   O	1807.976	544.168	-1851.599	O.2	10	HIS10	-0.568	
139	  CB	1807.329	541.609	-1849.472	C.3	10	HIS10	-0.007	
140	  CG	1808.615	540.900	-1849.164	C.2	10	HIS10	0.187	
141	 CD2	1808.996	540.564	-1847.872	C.2	10	HIS10	-0.221	
142	 ND1	1809.567	540.495	-1850.097	N.2	10	HIS10	-0.543	
143	 CE1	1810.474	539.936	-1849.274	C.2	10	HIS10	0.163	
144	 NE2	1810.211	539.933	-1847.939	N.pl3	10	HIS10	-0.280	
145	   H	1806.073	543.013	-1847.857	 H	10	HIS10	0.272	
146	  HA	1808.511	543.496	-1849.251	 H	10	HIS10	0.136	
147	 2HB	1806.963	541.242	-1850.452	 H	10	HIS10	0.037	
148	 3HB	1806.573	541.271	-1848.732	 H	10	HIS10	0.037	
149	 2HD	1808.410	540.779	-1846.982	 H	10	HIS10	0.186	
150	 1HE	1811.365	539.516	-1849.721	 H	10	HIS10	0.144	
151	 2HE	1810.778	539.556	-1847.166	 H	10	HIS10	0.334	
152	   N	1805.886	543.701	-1851.190	N.am	11	ASN11	-0.416	
153	  CA	1805.531	544.247	-1852.496	C.3	11	ASN11	0.014	
154	   C	1805.995	545.679	-1852.628	C.2	11	ASN11	0.597	
155	   O	1806.593	546.082	-1853.625	O.2	11	ASN11	-0.568	
156	  CB	1803.992	544.147	-1852.700	C.3	11	ASN11	-0.204	
157	  CG	1803.367	542.752	-1852.589	C.2	11	ASN11	0.713	
158	 ND2	1803.476	541.931	-1853.599	N.pl3	11	ASN11	-0.919	
159	 OD1	1802.790	542.375	-1851.580	O.2	11	ASN11	-0.593	
160	   H	1805.174	543.328	-1850.579	 H	11	ASN11	0.272	
161	  HA	1806.053	543.661	-1853.275	 H	11	ASN11	0.105	
162	 2HB	1803.703	544.578	-1853.676	 H	11	ASN11	0.080	
163	 3HB	1803.478	544.786	-1851.955	 H	11	ASN11	0.080	
164	1HD2	1803.163	540.984	-1853.367	 H	11	ASN11	0.420	
165	2HD2	1804.040	542.242	-1854.389	 H	11	ASN11	0.420	
166	   N	1805.758	546.504	-1851.666	N.am	12	GLN12	-0.416	
167	  CA	1806.206	547.887	-1851.792	C.3	12	GLN12	-0.003	
168	   C	1807.696	547.955	-1852.030	C.2	12	GLN12	0.597	
169	   O	1808.183	548.664	-1852.908	O.2	12	GLN12	-0.568	
170	  CB	1805.815	548.654	-1850.509	C.3	12	GLN12	-0.004	
171	  CG	1806.175	550.176	-1850.477	C.3	12	GLN12	-0.064	
172	  CD	1805.872	550.989	-1849.212	C.2	12	GLN12	0.695	
173	 NE2	1805.305	550.412	-1848.184	N.pl3	12	GLN12	-0.941	
174	 OE1	1806.173	552.170	-1849.134	O.2	12	GLN12	-0.609	
175	   H	1805.269	546.198	-1850.837	 H	12	GLN12	0.272	
176	  HA	1805.706	548.344	-1852.667	 H	12	GLN12	0.085	
177	 2HB	1806.291	548.154	-1849.640	 H	12	GLN12	0.017	
178	 3HB	1804.725	548.546	-1850.346	 H	12	GLN12	0.017	
179	 2HG	1805.697	550.697	-1851.328	 H	12	GLN12	0.035	
180	 3HG	1807.258	550.319	-1850.643	 H	12	GLN12	0.035	
181	1HE2	1805.198	551.006	-1847.360	 H	12	GLN12	0.425	
182	2HE2	1805.142	549.408	-1848.287	 H	12	GLN12	0.425	
183	   N	1808.481	547.248	-1851.289	N.am	13	ARG13	-0.348	
184	  CA	1809.921	547.315	-1851.520	C.3	13	ARG13	-0.264	
185	   C	1810.257	546.944	-1852.945	C.2	13	ARG13	0.734	
186	   O	1811.026	547.617	-1853.629	O.2	13	ARG13	-0.589	
187	  CB	1810.635	546.376	-1850.507	C.3	13	ARG13	-0.001	
188	  CG	1812.180	546.529	-1850.425	C.3	13	ARG13	0.039	
189	  CD	1812.807	545.541	-1849.428	C.3	13	ARG13	0.049	
190	  NE	1814.284	545.749	-1849.378	N.pl3	13	ARG13	-0.530	
191	  CZ	1815.132	545.057	-1848.623	C.cat	13	ARG13	0.808	
192	 NH1	1814.768	544.092	-1847.826	N.pl3	13	ARG13	-0.863	
193	 NH2	1816.392	545.357	-1848.680	N.pl3	13	ARG13	-0.863	
194	   H	1808.105	546.658	-1850.561	 H	13	ARG13	0.275	
195	  HA	1810.245	548.361	-1851.361	 H	13	ARG13	0.156	
196	 2HB	1810.369	545.325	-1850.746	 H	13	ARG13	0.033	
197	 3HB	1810.209	546.542	-1849.496	 H	13	ARG13	0.033	
198	 2HG	1812.427	547.574	-1850.146	 H	13	ARG13	0.029	
199	 3HG	1812.630	546.374	-1851.427	 H	13	ARG13	0.029	
200	 2HD	1812.563	544.501	-1849.738	 H	13	ARG13	0.069	
201	 3HD	1812.350	545.686	-1848.426	 H	13	ARG13	0.069	
202	  HE	1814.735	546.472	-1849.948	 H	13	ARG13	0.346	
203	1HH1	1813.762	543.906	-1847.829	 H	13	ARG13	0.448	
204	2HH1	1815.481	543.609	-1847.277	 H	13	ARG13	0.448	
205	1HH2	1816.659	546.115	-1849.310	 H	13	ARG13	0.448	
206	2HH2	1817.027	544.815	-1848.091	 H	13	ARG13	0.448	
207	   N	1809.722	545.890	-1853.460	N.am	14	VAL14	-0.416	
208	  CA	1810.047	545.531	-1854.838	C.3	14	VAL14	-0.087	
209	   C	1809.716	546.662	-1855.783	C.2	14	VAL14	0.597	
210	   O	1810.509	547.044	-1856.652	O.2	14	VAL14	-0.568	
211	  CB	1809.275	544.214	-1855.246	C.3	14	VAL14	0.299	
212	 CG1	1809.364	543.797	-1856.739	C.3	14	VAL14	-0.319	
213	 CG2	1809.707	542.962	-1854.446	C.3	14	VAL14	-0.319	
214	   H	1809.087	545.321	-1852.919	 H	14	VAL14	0.272	
215	  HA	1811.135	545.355	-1854.913	 H	14	VAL14	0.097	
216	  HB	1808.198	544.385	-1855.029	 H	14	VAL14	-0.030	
217	1HG1	1810.405	543.620	-1857.068	 H	14	VAL14	0.079	
218	2HG1	1808.791	542.874	-1856.952	 H	14	VAL14	0.079	
219	3HG1	1808.934	544.559	-1857.417	 H	14	VAL14	0.079	
220	1HG2	1809.620	543.120	-1853.355	 H	14	VAL14	0.079	
221	2HG2	1809.071	542.085	-1854.678	 H	14	VAL14	0.079	
222	3HG2	1810.755	542.672	-1854.652	 H	14	VAL14	0.079	
223	   N	1808.571	547.247	-1855.681	N.am	15	MET15	-0.416	
224	  CA	1808.250	548.340	-1856.594	C.3	15	MET15	-0.024	
225	   C	1809.280	549.440	-1856.506	C.2	15	MET15	0.597	
226	   O	1809.783	549.952	-1857.518	O.2	15	MET15	-0.568	
227	  CB	1806.829	548.885	-1856.284	C.3	15	MET15	0.034	
228	  CG	1805.667	547.887	-1856.476	C.3	15	MET15	0.002	
229	  SD	1804.093	548.752	-1856.361	S.3	15	MET15	-0.274	
230	  CE	1803.012	547.322	-1856.225	C.3	15	MET15	-0.054	
231	   H	1807.906	546.954	-1854.979	 H	15	MET15	0.272	
232	  HA	1808.276	547.953	-1857.630	 H	15	MET15	0.088	
233	 2HB	1806.626	549.764	-1856.926	 H	15	MET15	0.024	
234	 3HB	1806.793	549.277	-1855.248	 H	15	MET15	0.024	
235	 2HG	1805.710	547.101	-1855.699	 H	15	MET15	0.044	
236	 3HG	1805.730	547.372	-1857.453	 H	15	MET15	0.044	
237	 1HE	1803.156	546.634	-1857.078	 H	15	MET15	0.068	
238	 2HE	1803.222	546.769	-1855.293	 H	15	MET15	0.068	
239	 3HE	1801.954	547.637	-1856.208	 H	15	MET15	0.068	
240	   N	1809.649	549.861	-1855.343	N.am	16	ARG16	-0.348	
241	  CA	1810.645	550.925	-1855.259	C.3	16	ARG16	-0.264	
242	   C	1811.916	550.533	-1855.976	C.2	16	ARG16	0.734	
243	   O	1812.030	549.457	-1856.558	O.2	16	ARG16	-0.589	
244	  CB	1810.914	551.243	-1853.761	C.3	16	ARG16	-0.001	
245	  CG	1811.739	552.532	-1853.488	C.3	16	ARG16	0.039	
246	  CD	1811.989	552.751	-1851.987	C.3	16	ARG16	0.049	
247	  NE	1812.765	554.010	-1851.785	N.pl3	16	ARG16	-0.530	
248	  CZ	1813.156	554.492	-1850.609	C.cat	16	ARG16	0.808	
249	 NH1	1812.909	553.907	-1849.471	N.pl3	16	ARG16	-0.863	
250	 NH2	1813.820	555.605	-1850.591	N.pl3	16	ARG16	-0.863	
251	   H	1809.254	549.461	-1854.504	 H	16	ARG16	0.275	
252	  HA	1810.236	551.818	-1855.769	 H	16	ARG16	0.156	
253	 2HB	1811.411	550.367	-1853.295	 H	16	ARG16	0.033	
254	 3HB	1809.946	551.323	-1853.227	 H	16	ARG16	0.033	
255	 2HG	1811.209	553.403	-1853.925	 H	16	ARG16	0.029	
256	 3HG	1812.713	552.479	-1854.017	 H	16	ARG16	0.029	
257	 2HD	1812.538	551.876	-1851.573	 H	16	ARG16	0.069	
258	 3HD	1811.016	552.793	-1851.451	 H	16	ARG16	0.069	
259	  HE	1813.043	554.591	-1852.582	 H	16	ARG16	0.346	
260	1HH1	1812.384	553.034	-1849.556	 H	16	ARG16	0.448	
261	2HH1	1813.244	554.343	-1848.610	 H	16	ARG16	0.448	
262	1HH2	1814.005	556.048	-1851.492	 H	16	ARG16	0.448	
263	2HH2	1814.110	555.959	-1849.678	 H	16	ARG16	0.448	
@<TRIPOS>BOND
1 1 2 1
2 1 10 1
3 2 3 1
4 2 5 1
5 2 11 1
6 3 4 2
7 3 16 1
8 5 6 1
9 6 7 1
10 7 8 2
11 7 9 1
12 5 12 1
13 5 13 1
14 6 14 1
15 6 15 1
16 16 17 1
17 16 24 1
18 17 18 1
19 17 20 1
20 17 25 1
21 18 19 2
22 18 30 1
23 20 21 1
24 21 22 1
25 21 23 2
26 20 26 1
27 20 27 1
28 22 28 1
29 22 29 1
30 30 31 1
31 30 36 1
32 31 32 1
33 31 34 1
34 31 37 1
35 32 33 2
36 32 44 1
37 34 35 1
38 35 36 1
39 34 38 1
40 34 39 1
41 35 40 1
42 35 41 1
43 36 42 1
44 36 43 1
45 44 45 1
46 44 53 1
47 45 46 1
48 45 48 1
49 45 54 1
50 46 47 2
51 46 59 1
52 48 49 1
53 49 50 1
54 50 51 2
55 50 52 1
56 48 55 1
57 48 56 1
58 49 57 1
59 49 58 1
60 59 60 1
61 59 65 1
62 60 61 1
63 60 63 1
64 60 66 1
65 61 62 2
66 61 70 1
67 63 64 1
68 63 67 1
69 63 68 1
70 64 69 1
71 70 71 1
72 70 78 1
73 71 72 1
74 71 74 1
75 71 79 1
76 72 73 2
77 72 89 1
78 74 75 1
79 74 76 1
80 75 77 1
81 74 80 1
82 75 81 1
83 75 82 1
84 76 83 1
85 76 84 1
86 76 85 1
87 77 86 1
88 77 87 1
89 77 88 1
90 89 90 1
91 89 97 1
92 90 91 1
93 90 93 1
94 90 98 1
95 91 92 2
96 91 108 1
97 93 94 1
98 94 95 1
99 94 96 1
100 93 99 1
101 93 100 1
102 94 101 1
103 95 102 1
104 95 103 1
105 95 104 1
106 96 105 1
107 96 106 1
108 96 107 1
109 108 109 1
110 108 116 1
111 109 110 1
112 109 112 1
113 109 117 1
114 110 111 2
115 110 120 1
116 112 113 1
117 113 114 2
118 113 115 1
119 112 118 1
120 112 119 1
121 120 121 1
122 120 129 1
123 121 122 1
124 121 124 1
125 121 130 1
126 122 123 2
127 122 135 1
128 124 125 1
129 125 126 1
130 126 127 2
131 126 128 1
132 124 131 1
133 124 132 1
134 125 133 1
135 125 134 1
136 135 136 1
137 135 145 1
138 136 137 1
139 136 139 1
140 136 146 1
141 137 138 2
142 137 152 1
143 139 140 1
144 140 141 2
145 141 144 1
146 140 142 1
147 142 143 2
148 143 144 1
149 139 147 1
150 139 148 1
151 141 149 1
152 143 150 1
153 144 151 1
154 152 153 1
155 152 160 1
156 153 154 1
157 153 156 1
158 153 161 1
159 154 155 2
160 154 166 1
161 156 157 1
162 157 158 1
163 157 159 2
164 156 162 1
165 156 163 1
166 158 164 1
167 158 165 1
168 166 167 1
169 166 175 1
170 167 168 1
171 167 170 1
172 167 176 1
173 168 169 2
174 168 183 1
175 170 171 1
176 171 172 1
177 172 173 1
178 172 174 2
179 170 177 1
180 170 178 1
181 171 179 1
182 171 180 1
183 173 181 1
184 173 182 1
185 183 184 1
186 183 194 1
187 184 185 1
188 184 187 1
189 184 195 1
190 185 186 2
191 185 207 1
192 187 188 1
193 188 189 1
194 189 190 1
195 190 191 1
196 191 192 2
197 191 193 1
198 187 196 1
199 187 197 1
200 188 198 1
201 188 199 1
202 189 200 1
203 189 201 1
204 190 202 1
205 192 203 1
206 192 204 1
207 193 205 1
208 193 206 1
209 207 208 1
210 207 214 1
211 208 209 1
212 208 211 1
213 208 215 1
214 209 210 2
215 209 223 1
216 211 212 1
217 211 213 1
218 211 216 1
219 212 217 1
220 212 218 1
221 212 219 1
222 213 220 1
223 213 221 1
224 213 222 1
225 223 224 1
226 223 231 1
227 224 225 1
228 224 227 1
229 224 232 1
230 225 226 2
231 225 240 1
232 227 228 1
233 228 229 1
234 229 230 1
235 227 233 1
236 227 234 1
237 228 235 1
238 228 236 1
239 230 237 1
240 230 238 1
241 230 239 1
242 240 241 1
243 240 251 1
244 241 242 1
245 241 244 1
246 241 252 1
247 242 243 2
248 244 245 1
249 245 246 1
250 246 247 1
251 247 248 1
252 248 249 2
253 248 250 1
254 244 253 1
255 244 254 1
256 245 255 1
257 245 256 1
258 246 257 1
259 246 258 1
260 247 259 1
261 249 260 1
262 249 261 1
263 250 262 1
264 250 263 1
@<TRIPOS>SUBSTRUCTURE
1	GLU1	1	RESIDUE	1 ****	GLU
2	ASN2	16	RESIDUE	1 ****	ASN
3	PRO3	30	RESIDUE	1 ****	PRO
4	GLU4	44	RESIDUE	1 ****	GLU
5	SER5	59	RESIDUE	1 ****	SER
6	ILE6	70	RESIDUE	1 ****	ILE
7	LEU7	89	RESIDUE	1 ****	LEU
8	ASP8	108	RESIDUE	1 ****	ASP
9	GLU9	120	RESIDUE	1 ****	GLU
10	HIS10	135	RESIDUE	1 ****	HIS
11	ASN11	152	RESIDUE	1 ****	ASN
12	GLN12	166	RESIDUE	1 ****	GLN
13	ARG13	183	RESIDUE	1 ****	ARG
14	VAL14	207	RESIDUE	1 ****	VAL
15	MET15	223	RESIDUE	1 ****	MET
16	ARG16	240	RESIDUE	1 ****	ARG
