REMARK WARNING: 32 MAX_TORS EXCEEDED!!!
REMARK  71 active torsions:
REMARK  status: ('A' for Active; 'I' for Inactive)
REMARK    1  A    between atoms: N_1  and  CA_2 
REMARK    2  A    between atoms: CA_2  and  C_3 
REMARK    3  A    between atoms: CA_2  and  CB_5 
REMARK       I    between atoms: C_3  and  N_11 
REMARK    4  A    between atoms: CB_5  and  CG_6 
REMARK    5  A    between atoms: CG_6  and  CD_7 
REMARK    6  A    between atoms: N_11  and  CA_12 
REMARK    7  A    between atoms: CA_12  and  C_13 
REMARK    8  A    between atoms: CA_12  and  CB_15 
REMARK       I    between atoms: C_13  and  N_22 
REMARK    9  A    between atoms: CB_15  and  CG_16 
REMARK       I    between atoms: CG_16  and  ND2_17 
REMARK   10  A    between atoms: N_22  and  CA_23 
REMARK   11  A    between atoms: CA_23  and  C_24 
REMARK   12  A    between atoms: CA_23  and  CB_26 
REMARK       I    between atoms: C_24  and  N_30 
REMARK   13  A    between atoms: CB_26  and  OG_27 
REMARK   14  A    between atoms: N_30  and  CA_31 
REMARK   15  A    between atoms: CA_31  and  C_32 
REMARK   16  A    between atoms: CA_31  and  CB_34 
REMARK       I    between atoms: C_32  and  N_40 
REMARK   17  A    between atoms: CB_34  and  CG_35 
REMARK   18  A    between atoms: CG_35  and  CD_36 
REMARK   19  A    between atoms: N_40  and  CA_41 
REMARK   20  A    between atoms: CA_41  and  C_42 
REMARK   21  A    between atoms: CA_41  and  CB_44 
REMARK       I    between atoms: C_42  and  N_48 
REMARK   22  A    between atoms: CB_44  and  OG_45 
REMARK   23  A    between atoms: N_48  and  CA_49 
REMARK   24  A    between atoms: CA_49  and  C_50 
REMARK   25  A    between atoms: CA_49  and  CB_52 
REMARK       I    between atoms: C_50  and  N_57 
REMARK   26  A    between atoms: CB_52  and  CG1_53 
REMARK   27  A    between atoms: N_57  and  CA_58 
REMARK   28  A    between atoms: CA_58  and  C_59 
REMARK   29  A    between atoms: CA_58  and  CB_61 
REMARK       I    between atoms: C_59  and  N_66 
REMARK   30  A    between atoms: CB_61  and  CG_62 
REMARK   31  A    between atoms: N_66  and  CA_67 
REMARK   32  A    between atoms: CA_67  and  C_68 
REMARK   33  A    between atoms: CA_67  and  CB_70 
REMARK       I    between atoms: C_68  and  N_75 
REMARK   34  A    between atoms: CB_70  and  CG_71 
REMARK   35  A    between atoms: N_75  and  CA_76 
REMARK   36  A    between atoms: CA_76  and  C_77 
REMARK   37  A    between atoms: CA_76  and  CB_79 
REMARK       I    between atoms: C_77  and  N_85 
REMARK   38  A    between atoms: CB_79  and  CG_80 
REMARK   39  A    between atoms: CG_80  and  CD_81 
REMARK   40  A    between atoms: N_85  and  CA_86 
REMARK   41  A    between atoms: CA_86  and  C_87 
REMARK   42  A    between atoms: CA_86  and  CB_89 
REMARK       I    between atoms: C_87  and  N_97 
REMARK   43  A    between atoms: CB_89  and  CG_90 
REMARK   44  A    between atoms: N_97  and  CA_98 
REMARK   45  A    between atoms: CA_98  and  C_99 
REMARK   46  A    between atoms: CA_98  and  CB_101 
REMARK       I    between atoms: C_99  and  N_105 
REMARK   47  A    between atoms: N_105  and  CA_106 
REMARK   48  A    between atoms: CA_106  and  C_107 
REMARK   49  A    between atoms: CA_106  and  CB_109 
REMARK       I    between atoms: C_107  and  N_117 
REMARK   50  A    between atoms: CB_109  and  CG_110 
REMARK   51  A    between atoms: CG_110  and  CD_111 
REMARK       I    between atoms: CD_111  and  NE2_112 
REMARK   52  A    between atoms: N_117  and  CA_118 
REMARK   53  A    between atoms: CA_118  and  C_119 
REMARK   54  A    between atoms: CA_118  and  CB_121 
REMARK       I    between atoms: C_119  and  N_134 
REMARK   55  A    between atoms: CB_121  and  CG_122 
REMARK   56  A    between atoms: CG_122  and  CD_123 
REMARK   57  A    between atoms: CD_123  and  NE_124 
REMARK       I    between atoms: NE_124  and  CZ_125 
REMARK       I    between atoms: CZ_125  and  NH1_126 
REMARK       I    between atoms: CZ_125  and  NH2_127 
REMARK   58  A    between atoms: N_134  and  CA_135 
REMARK   59  A    between atoms: CA_135  and  C_136 
REMARK   60  A    between atoms: CA_135  and  CB_138 
REMARK       I    between atoms: C_136  and  N_142 
REMARK   61  A    between atoms: N_142  and  CA_143 
REMARK   62  A    between atoms: CA_143  and  C_144 
REMARK   63  A    between atoms: CA_143  and  CB_146 
REMARK       I    between atoms: C_144  and  N_151 
REMARK   64  A    between atoms: CB_146  and  CG_147 
REMARK   65  A    between atoms: CG_147  and  SD_148 
REMARK   66  A    between atoms: N_151  and  CA_152 
REMARK   67  A    between atoms: CA_152  and  C_153 
REMARK   68  A    between atoms: CA_152  and  CB_155 
REMARK   69  A    between atoms: CB_155  and  CG_156 
REMARK   70  A    between atoms: CG_156  and  CD_157 
REMARK   71  A    between atoms: CD_157  and  NE_158 
REMARK       I    between atoms: NE_158  and  CZ_159 
REMARK       I    between atoms: CZ_159  and  NH1_160 
ROOT
ATOM      1  C   GLU d   9     466.723 110.215-419.016  0.00  0.00     0.241 C 
ATOM      2  O   GLU d   9     467.571 110.922-419.579  0.00  0.00    -0.271 OA
ATOM      3  N   HIS d  10     466.620 108.974-419.354  0.00  0.00    -0.346 N 
ATOM      4  H   HIS d  10     465.937 108.377-418.910  0.00  0.00     0.163 HD
ENDROOT
BRANCH   1   5
ATOM      5  CA  GLU d   9     465.807 110.760-417.947  0.00  0.00     0.177 C 
BRANCH   5   6
ATOM      6  N   GLU d   9     464.424 110.359-418.188  0.00  0.00    -0.346 N 
ATOM      7  C   ASP d   8     463.871 110.665-419.312  0.00  0.00     0.241 C 
ATOM      8  O   ASP d   8     464.530 111.293-420.156  0.00  0.00    -0.271 OA
ATOM      9  H   GLU d   9     463.909 109.848-417.485  0.00  0.00     0.163 HD
BRANCH   7  10
ATOM     10  CA  ASP d   8     462.441 110.250-419.561  0.00  0.00     0.186 C 
BRANCH  10  11
ATOM     11  N   ASP d   8     462.230 108.852-419.198  0.00  0.00    -0.346 N 
ATOM     12  C   LEU d   7     462.959 107.945-419.754  0.00  0.00     0.241 C 
ATOM     13  O   LEU d   7     463.818 108.287-420.581  0.00  0.00    -0.271 OA
ATOM     14  H   ASP d   8     461.525 108.599-418.521  0.00  0.00     0.163 HD
BRANCH  12  15
ATOM     15  CA  LEU d   7     462.741 106.499-419.378  0.00  0.00     0.177 C 
BRANCH  15  16
ATOM     16  N   LEU d   7     462.661 106.342-417.929  0.00  0.00    -0.346 N 
ATOM     17  C   ILE d   6     463.646 106.749-417.201  0.00  0.00     0.241 C 
ATOM     18  O   ILE d   6     464.631 107.261-417.753  0.00  0.00    -0.271 OA
ATOM     19  H   LEU d   7     461.848 105.922-417.502  0.00  0.00     0.163 HD
BRANCH  17  20
ATOM     20  CA  ILE d   6     463.563 106.588-415.702  0.00  0.00     0.180 C 
BRANCH  20  21
ATOM     21  N   ILE d   6     462.270 107.041-415.197  0.00  0.00    -0.346 N 
ATOM     22  C   SER d   5     461.893 108.250-415.440  0.00  0.00     0.243 C 
ATOM     23  O   SER d   5     462.634 108.987-416.090  0.00  0.00    -0.271 OA
ATOM     24  H   ILE d   6     461.680 106.416-414.666  0.00  0.00     0.163 HD
BRANCH  22  25
ATOM     25  CA  SER d   5     460.555 108.719-414.918  0.00  0.00     0.200 C 
BRANCH  25  26
ATOM     26  N   SER d   5     459.511 107.739-415.202  0.00  0.00    -0.344 N 
ATOM     27  C   GLU d   4     459.304 107.383-416.425  0.00  0.00     0.241 C 
ATOM     28  O   GLU d   4     459.999 107.883-417.322  0.00  0.00    -0.271 OA
ATOM     29  H   SER d   5     458.958 107.347-414.453  0.00  0.00     0.163 HD
BRANCH  27  30
ATOM     30  CA  GLU d   4     458.225 106.370-416.719  0.00  0.00     0.177 C 
BRANCH  30  31
ATOM     31  N   GLU d   4     458.315 105.230-415.812  0.00  0.00    -0.346 N 
ATOM     32  C   SER d   3     459.417 104.561-415.756  0.00  0.00     0.243 C 
ATOM     33  O   SER d   3     460.359 104.902-416.470  0.00  0.00    -0.271 OA
ATOM     34  H   GLU d   4     457.528 104.969-415.236  0.00  0.00     0.163 HD
BRANCH  32  35
ATOM     35  CA  SER d   3     459.511 103.381-414.817  0.00  0.00     0.200 C 
BRANCH  35  36
ATOM     36  N   SER d   3     458.997 103.724-413.494  0.00  0.00    -0.344 N 
ATOM     37  C   ASN d   2     459.519 104.719-412.860  0.00  0.00     0.241 C 
ATOM     38  O   ASN d   2     460.433 105.349-413.389  0.00  0.00    -0.271 OA
ATOM     39  H   SER d   3     458.245 103.190-413.082  0.00  0.00     0.163 HD
BRANCH  37  40
ATOM     40  CA  ASN d   2     458.988 105.074-411.491  0.00  0.00     0.185 C 
BRANCH  40  41
ATOM     41  N   ASN d   2     457.528 105.113-411.491  0.00  0.00    -0.346 N 
ATOM     42  C   GLU d   1     456.924 105.899-412.316  0.00  0.00     0.242 C 
ATOM     43  O   GLU d   1     457.599 106.598-413.085  0.00  0.00    -0.271 OA
ATOM     44  H   ASN d   2     457.000 104.533-410.855  0.00  0.00     0.163 HD
BRANCH  42  45
ATOM     45  CA  GLU d   1     455.415 105.939-412.316  0.00  0.00     0.191 C 
BRANCH  45  46
ATOM     46  N   GLU d   1     454.856 104.590-412.316  0.00  0.00    -0.326 NA
ATOM     47  H   GLU d   1     455.483 103.711-412.316  0.00  0.00     0.180 HD
ENDBRANCH  45  46
BRANCH  45  48
ATOM     48  CB  GLU d   1     454.892 106.724-411.079  0.00  0.00     0.047 C 
BRANCH  48  49
ATOM     49  CG  GLU d   1     455.367 108.209-410.968  0.00  0.00     0.116 C 
BRANCH  49  50
ATOM     50  CD  GLU d   1     454.943 109.013-409.753  0.00  0.00     0.172 C 
ATOM     51  OE1 GLU d   1     454.215 108.511-408.875  0.00  0.00    -0.648 OA
ATOM     52  OE2 GLU d   1     455.373 110.183-409.681  0.00  0.00    -0.648 OA
ENDBRANCH  49  50
ENDBRANCH  48  49
ENDBRANCH  45  48
ENDBRANCH  42  45
ENDBRANCH  40  41
BRANCH  40  53
ATOM     53  CB  ASN d   2     459.480 104.051-410.427  0.00  0.00     0.137 C 
BRANCH  53  54
ATOM     54  CG  ASN d   2     459.017 104.275-408.984  0.00  0.00     0.217 C 
ATOM     55  ND2 ASN d   2     459.611 105.190-408.266  0.00  0.00    -0.370 N 
ATOM     56 21HD ASN d   2     459.130 105.363-407.379  0.00  0.00     0.159 HD
ATOM     57 22HD ASN d   2     460.313 105.762-408.735  0.00  0.00     0.159 HD
ATOM     58  OD1 ASN d   2     458.096 103.641-408.489  0.00  0.00    -0.274 OA
ENDBRANCH  53  54
ENDBRANCH  40  53
ENDBRANCH  37  40
ENDBRANCH  35  36
BRANCH  35  59
ATOM     59  CB  SER d   3     458.781 102.139-415.387  0.00  0.00     0.199 C 
BRANCH  59  60
ATOM     60  OG  SER d   3     457.415 102.403-415.726  0.00  0.00    -0.398 OA
ATOM     61  HG  SER d   3     456.958 102.638-414.915  0.00  0.00     0.209 HD
ENDBRANCH  59  60
ENDBRANCH  35  59
ENDBRANCH  32  35
ENDBRANCH  30  31
BRANCH  30  62
ATOM     62  CB  GLU d   4     456.818 107.024-416.601  0.00  0.00     0.045 C 
BRANCH  62  63
ATOM     63  CG  GLU d   4     456.551 108.235-417.554  0.00  0.00     0.116 C 
BRANCH  63  64
ATOM     64  CD  GLU d   4     455.222 108.957-417.446  0.00  0.00     0.172 C 
ATOM     65  OE1 GLU d   4     454.353 108.583-416.635  0.00  0.00    -0.648 OA
ATOM     66  OE2 GLU d   4     455.060 109.942-418.197  0.00  0.00    -0.648 OA
ENDBRANCH  63  64
ENDBRANCH  62  63
ENDBRANCH  30  62
ENDBRANCH  27  30
ENDBRANCH  25  26
BRANCH  25  67
ATOM     67  CB  SER d   5     460.615 109.038-413.403  0.00  0.00     0.199 C 
BRANCH  67  68
ATOM     68  OG  SER d   5     461.102 107.942-412.622  0.00  0.00    -0.398 OA
ATOM     69  HG  SER d   5     460.479 107.218-412.723  0.00  0.00     0.209 HD
ENDBRANCH  67  68
ENDBRANCH  25  67
ENDBRANCH  22  25
ENDBRANCH  20  21
BRANCH  20  70
ATOM     70  CB  ILE d   6     463.870 105.102-415.252  0.00  0.00     0.013 C 
ATOM     71  CG2 ILE d   6     465.283 104.613-415.698  0.00  0.00     0.012 C 
BRANCH  70  72
ATOM     72  CG1 ILE d   6     463.729 104.843-413.718  0.00  0.00     0.002 C 
ATOM     73  CD1 ILE d   6     463.701 103.363-413.284  0.00  0.00     0.005 C 
ENDBRANCH  70  72
ENDBRANCH  20  70
ENDBRANCH  17  20
ENDBRANCH  15  16
BRANCH  15  74
ATOM     74  CB  LEU d   7     461.462 105.934-420.060  0.00  0.00     0.038 C 
BRANCH  74  75
ATOM     75  CG  LEU d   7     461.098 104.446-419.810  0.00  0.00    -0.020 C 
ATOM     76  CD1 LEU d   7     459.876 104.053-420.652  0.00  0.00     0.009 C 
ATOM     77  CD2 LEU d   7     462.264 103.490-420.113  0.00  0.00     0.009 C 
ENDBRANCH  74  75
ENDBRANCH  15  74
ENDBRANCH  12  15
ENDBRANCH  10  11
BRANCH  10  78
ATOM     78  CB  ASP d   8     461.453 111.170-418.790  0.00  0.00     0.147 C 
BRANCH  78  79
ATOM     79  CG  ASP d   8     461.529 112.663-419.142  0.00  0.00     0.175 C 
ATOM     80  OD1 ASP d   8     461.743 112.999-420.325  0.00  0.00    -0.648 OA
ATOM     81  OD2 ASP d   8     461.417 113.499-418.222  0.00  0.00    -0.648 OA
ENDBRANCH  78  79
ENDBRANCH  10  78
ENDBRANCH   7  10
ENDBRANCH   5   6
BRANCH   5  82
ATOM     82  CB  GLU d   9     466.259 110.269-416.542  0.00  0.00     0.045 C 
BRANCH  82  83
ATOM     83  CG  GLU d   9     467.710 110.668-416.118  0.00  0.00     0.116 C 
BRANCH  83  84
ATOM     84  CD  GLU d   9     468.236 110.169-414.785  0.00  0.00     0.172 C 
ATOM     85  OE1 GLU d   9     467.522 109.476-414.034  0.00  0.00    -0.648 OA
ATOM     86  OE2 GLU d   9     469.411 110.477-414.499  0.00  0.00    -0.648 OA
ENDBRANCH  83  84
ENDBRANCH  82  83
ENDBRANCH   5  82
ENDBRANCH   1   5
BRANCH   3  87
ATOM     87  CA  HIS d  10     467.505 108.445-420.389  0.00  0.00     0.182 C 
BRANCH  87  88
ATOM     88  C   HIS d  10     467.369 109.230-421.671  0.00  0.00     0.241 C 
ATOM     89  O   HIS d  10     468.358 109.627-422.306  0.00  0.00    -0.271 OA
ATOM     90  N   VAL d  11     466.190 109.496-422.119  0.00  0.00    -0.346 N 
ATOM     91  H   VAL d  11     465.369 109.184-421.620  0.00  0.00     0.163 HD
BRANCH  90  92
ATOM     92  CA  VAL d  11     466.058 110.256-423.360  0.00  0.00     0.180 C 
BRANCH  92  93
ATOM     93  C   VAL d  11     466.767 111.585-423.257  0.00  0.00     0.241 C 
ATOM     94  O   VAL d  11     467.521 111.998-424.148  0.00  0.00    -0.271 OA
ATOM     95  N   GLN d  12     466.580 112.314-422.209  0.00  0.00    -0.346 N 
ATOM     96  H   GLN d  12     465.970 111.999-421.468  0.00  0.00     0.163 HD
BRANCH  95  97
ATOM     97  CA  GLN d  12     467.265 113.599-422.109  0.00  0.00     0.177 C 
BRANCH  97  98
ATOM     98  C   GLN d  12     468.761 113.427-422.226  0.00  0.00     0.241 C 
ATOM     99  O   GLN d  12     469.442 114.141-422.960  0.00  0.00    -0.271 OA
ATOM    100  N   ARG d  13     469.341 112.505-421.536  0.00  0.00    -0.346 N 
ATOM    101  H   ARG d  13     468.803 111.906-420.926  0.00  0.00     0.163 HD
BRANCH 100 102
ATOM    102  CA  ARG d  13     470.787 112.339-421.650  0.00  0.00     0.176 C 
BRANCH 102 103
ATOM    103  C   ARG d  13     471.191 112.094-423.085  0.00  0.00     0.241 C 
ATOM    104  O   ARG d  13     472.124 112.697-423.611  0.00  0.00    -0.271 OA
ATOM    105  N   VAL d  14     470.538 111.225-423.779  0.00  0.00    -0.346 N 
ATOM    106  H   VAL d  14     469.767 110.717-423.369  0.00  0.00     0.163 HD
BRANCH 105 107
ATOM    107  CA  VAL d  14     470.928 110.988-425.165  0.00  0.00     0.180 C 
BRANCH 107 108
ATOM    108  C   VAL d  14     470.885 112.268-425.966  0.00  0.00     0.241 C 
ATOM    109  O   VAL d  14     471.811 112.606-426.714  0.00  0.00    -0.271 OA
ATOM    110  N   MET d  15     469.850 113.032-425.867  0.00  0.00    -0.346 N 
ATOM    111  H   MET d  15     469.081 112.778-425.263  0.00  0.00     0.163 HD
BRANCH 110 112
ATOM    112  CA  MET d  15     469.807 114.270-426.640  0.00  0.00     0.177 C 
BRANCH 112 113
ATOM    113  C   MET d  15     470.994 115.147-426.325  0.00  0.00     0.241 C 
ATOM    114  O   MET d  15     471.670 115.682-427.218  0.00  0.00    -0.271 OA
ATOM    115  N   ARG d  16     471.315 115.347-425.092  0.00  0.00    -0.347 N 
ATOM    116  H   ARG d  16     470.780 114.923-424.348  0.00  0.00     0.163 HD
BRANCH 115 117
ATOM    117  CA  ARG d  16     472.464 116.197-424.789  0.00  0.00     0.162 C 
BRANCH 117 118
ATOM    118  C   ARG d  16     473.713 115.675-425.458  0.00  0.00     0.219 C 
ATOM    119  O   ARG d  16     473.700 114.676-426.174  0.00  0.00    -0.287 OA
ENDBRANCH 117 118
BRANCH 117 120
ATOM    120  CB  ARG d  16     472.637 116.272-423.245  0.00  0.00     0.035 C 
BRANCH 120 121
ATOM    121  CG  ARG d  16     473.637 117.348-422.736  0.00  0.00     0.023 C 
BRANCH 121 122
ATOM    122  CD  ARG d  16     473.775 117.331-421.205  0.00  0.00     0.138 C 
BRANCH 122 123
ATOM    123  NE  ARG d  16     474.728 118.395-420.774  0.00  0.00    -0.227 N 
ATOM    124  CZ  ARG d  16     475.081 118.649-419.518  0.00  0.00     0.665 C 
ATOM    125  NH1 ARG d  16     474.630 117.982-418.493  0.00  0.00    -0.235 N 
ATOM    126  NH2 ARG d  16     475.917 119.614-419.296  0.00  0.00    -0.235 N 
ATOM    127 11HH ARG d  16     473.976 117.235-418.736  0.00  0.00     0.174 HD
ATOM    128 12HH ARG d  16     474.949 118.240-417.557  0.00  0.00     0.174 HD
ATOM    129 21HH ARG d  16     476.260 120.125-420.111  0.00  0.00     0.174 HD
ATOM    130 22HH ARG d  16     476.174 119.795-418.324  0.00  0.00     0.174 HD
ATOM    131  HE  ARG d  16     475.176 119.011-421.460  0.00  0.00     0.177 HD
ENDBRANCH 122 123
ENDBRANCH 121 122
ENDBRANCH 120 121
ENDBRANCH 117 120
ENDBRANCH 115 117
ENDBRANCH 112 113
BRANCH 112 132
ATOM    132  CB  MET d  15     468.475 115.018-426.362  0.00  0.00     0.045 C 
BRANCH 132 133
ATOM    133  CG  MET d  15     467.185 114.276-426.776  0.00  0.00     0.076 C 
BRANCH 133 134
ATOM    134  SD  MET d  15     465.776 115.389-426.656  0.00  0.00    -0.173 SA
ATOM    135  CE  MET d  15     464.462 114.171-426.800  0.00  0.00     0.089 C 
ENDBRANCH 133 134
ENDBRANCH 132 133
ENDBRANCH 112 132
ENDBRANCH 110 112
ENDBRANCH 107 108
BRANCH 107 136
ATOM    136  CB  VAL d  14     469.988 109.892-425.807  0.00  0.00     0.009 C 
ATOM    137  CG1 VAL d  14     470.149 109.654-427.334  0.00  0.00     0.012 C 
ATOM    138  CG2 VAL d  14     470.125 108.493-425.160  0.00  0.00     0.012 C 
ENDBRANCH 107 136
ENDBRANCH 105 107
ENDBRANCH 102 103
BRANCH 102 139
ATOM    139  CB  ARG d  13     471.232 111.169-420.728  0.00  0.00     0.036 C 
BRANCH 139 140
ATOM    140  CG  ARG d  13     472.766 111.031-420.514  0.00  0.00     0.023 C 
BRANCH 140 141
ATOM    141  CD  ARG d  13     473.119 109.831-419.621  0.00  0.00     0.138 C 
BRANCH 141 142
ATOM    142  NE  ARG d  13     474.598 109.762-419.434  0.00  0.00    -0.227 N 
ATOM    143  CZ  ARG d  13     475.242 108.841-418.723  0.00  0.00     0.665 C 
ATOM    144  NH1 ARG d  13     474.645 107.866-418.097  0.00  0.00    -0.235 N 
ATOM    145  NH2 ARG d  13     476.533 108.914-418.646  0.00  0.00    -0.235 N 
ATOM    146 11HH ARG d  13     473.628 107.865-418.199  0.00  0.00     0.174 HD
ATOM    147 12HH ARG d  13     475.211 107.199-417.570  0.00  0.00     0.174 HD
ATOM    148 21HH ARG d  13     476.983 109.685-419.144  0.00  0.00     0.174 HD
ATOM    149 22HH ARG d  13     477.009 108.199-418.094  0.00  0.00     0.174 HD
ATOM    150  HE  ARG d  13     475.217 110.457-419.864  0.00  0.00     0.177 HD
ENDBRANCH 141 142
ENDBRANCH 140 141
ENDBRANCH 139 140
ENDBRANCH 102 139
ENDBRANCH 100 102
ENDBRANCH  97  98
BRANCH  97 151
ATOM    151  CB  GLN d  12     466.887 114.258-420.764  0.00  0.00     0.044 C 
BRANCH 151 152
ATOM    152  CG  GLN d  12     467.493 115.675-420.495  0.00  0.00     0.105 C 
BRANCH 152 153
ATOM    153  CD  GLN d  12     467.211 116.365-419.154  0.00  0.00     0.215 C 
ATOM    154  NE2 GLN d  12     466.459 115.776-418.260  0.00  0.00    -0.370 N 
ATOM    155 21HE GLN d  12     466.375 116.273-417.372  0.00  0.00     0.159 HD
ATOM    156 22HE GLN d  12     466.141 114.839-418.514  0.00  0.00     0.159 HD
ATOM    157  OE1 GLN d  12     467.698 117.454-418.891  0.00  0.00    -0.274 OA
ENDBRANCH 152 153
ENDBRANCH 151 152
ENDBRANCH  97 151
ENDBRANCH  95  97
ENDBRANCH  92  93
BRANCH  92 158
ATOM    158  CB  VAL d  11     464.530 110.459-423.705  0.00  0.00     0.009 C 
ATOM    159  CG1 VAL d  11     464.211 111.405-424.895  0.00  0.00     0.012 C 
ATOM    160  CG2 VAL d  11     463.778 109.143-424.018  0.00  0.00     0.012 C 
ENDBRANCH  92 158
ENDBRANCH  90  92
ENDBRANCH  87  88
BRANCH  87 161
ATOM    161  CB  HIS d  10     467.087 106.982-420.609  0.00  0.00     0.095 C 
BRANCH 161 162
ATOM    162  CG  HIS d  10     468.200 106.020-420.310  0.00  0.00     0.053 A 
ATOM    163  CD2 HIS d  10     468.393 105.464-419.052  0.00  0.00     0.116 A 
ATOM    164  NE2 HIS d  10     469.485 104.638-419.118  0.00  0.00    -0.359 N 
ATOM    165  CE1 HIS d  10     469.872 104.760-420.417  0.00  0.00     0.207 A 
ATOM    166  2HE HIS d  10     469.904 104.072-418.366  0.00  0.00     0.166 HD
ATOM    167  ND1 HIS d  10     469.155 105.570-421.218  0.00  0.00    -0.247 NA
ENDBRANCH 161 162
ENDBRANCH  87 161
ENDBRANCH   3  87
TORSDOF 71
