REMARK WARNING: 32 MAX_TORS EXCEEDED!!!
REMARK  71 active torsions:
REMARK  status: ('A' for Active; 'I' for Inactive)
REMARK    1  A    between atoms: N_1  and  CA_2 
REMARK    2  A    between atoms: CA_2  and  C_3 
REMARK    3  A    between atoms: CA_2  and  CB_5 
REMARK       I    between atoms: C_3  and  N_11 
REMARK    4  A    between atoms: CB_5  and  CG_6 
REMARK    5  A    between atoms: CG_6  and  CD_7 
REMARK    6  A    between atoms: N_11  and  CA_12 
REMARK    7  A    between atoms: CA_12  and  C_13 
REMARK    8  A    between atoms: CA_12  and  CB_15 
REMARK       I    between atoms: C_13  and  N_22 
REMARK    9  A    between atoms: CB_15  and  CG_16 
REMARK       I    between atoms: CG_16  and  ND2_17 
REMARK   10  A    between atoms: N_22  and  CA_23 
REMARK   11  A    between atoms: CA_23  and  C_24 
REMARK   12  A    between atoms: CA_23  and  CB_26 
REMARK       I    between atoms: C_24  and  N_34 
REMARK   13  A    between atoms: CB_26  and  CG_27 
REMARK   14  A    between atoms: N_34  and  CA_35 
REMARK   15  A    between atoms: CA_35  and  C_36 
REMARK   16  A    between atoms: CA_35  and  CB_38 
REMARK       I    between atoms: C_36  and  N_44 
REMARK   17  A    between atoms: CB_38  and  CG_39 
REMARK   18  A    between atoms: CG_39  and  CD_40 
REMARK   19  A    between atoms: N_44  and  CA_45 
REMARK   20  A    between atoms: CA_45  and  C_46 
REMARK   21  A    between atoms: CA_45  and  CB_48 
REMARK       I    between atoms: C_46  and  N_52 
REMARK   22  A    between atoms: CB_48  and  OG_49 
REMARK   23  A    between atoms: N_52  and  CA_53 
REMARK   24  A    between atoms: CA_53  and  C_54 
REMARK   25  A    between atoms: CA_53  and  CB_56 
REMARK       I    between atoms: C_54  and  N_61 
REMARK   26  A    between atoms: CB_56  and  CG1_57 
REMARK   27  A    between atoms: N_61  and  CA_62 
REMARK   28  A    between atoms: CA_62  and  C_63 
REMARK   29  A    between atoms: CA_62  and  CB_65 
REMARK       I    between atoms: C_63  and  N_70 
REMARK   30  A    between atoms: CB_65  and  CG_66 
REMARK   31  A    between atoms: N_70  and  CA_71 
REMARK   32  A    between atoms: CA_71  and  C_72 
REMARK   33  A    between atoms: CA_71  and  CB_74 
REMARK       I    between atoms: C_72  and  N_79 
REMARK   34  A    between atoms: CB_74  and  CG_75 
REMARK   35  A    between atoms: N_79  and  CA_80 
REMARK   36  A    between atoms: CA_80  and  C_81 
REMARK   37  A    between atoms: CA_80  and  CB_83 
REMARK       I    between atoms: C_81  and  N_89 
REMARK   38  A    between atoms: CB_83  and  CG_84 
REMARK   39  A    between atoms: CG_84  and  CD_85 
REMARK   40  A    between atoms: N_89  and  CA_90 
REMARK   41  A    between atoms: CA_90  and  C_91 
REMARK   42  A    between atoms: CA_90  and  CB_93 
REMARK       I    between atoms: C_91  and  N_101 
REMARK   43  A    between atoms: CB_93  and  CG_94 
REMARK   44  A    between atoms: N_101  and  CA_102 
REMARK   45  A    between atoms: CA_102  and  C_103 
REMARK   46  A    between atoms: CA_102  and  CB_105 
REMARK       I    between atoms: C_103  and  N_109 
REMARK   47  A    between atoms: N_109  and  CA_110 
REMARK   48  A    between atoms: CA_110  and  C_111 
REMARK   49  A    between atoms: CA_110  and  CB_113 
REMARK       I    between atoms: C_111  and  N_121 
REMARK   50  A    between atoms: CB_113  and  CG_114 
REMARK   51  A    between atoms: CG_114  and  CD_115 
REMARK       I    between atoms: CD_115  and  NE2_116 
REMARK   52  A    between atoms: N_121  and  CA_122 
REMARK   53  A    between atoms: CA_122  and  C_123 
REMARK   54  A    between atoms: CA_122  and  CB_125 
REMARK       I    between atoms: C_123  and  N_138 
REMARK   55  A    between atoms: CB_125  and  CG_126 
REMARK   56  A    between atoms: CG_126  and  CD_127 
REMARK   57  A    between atoms: CD_127  and  NE_128 
REMARK       I    between atoms: NE_128  and  CZ_129 
REMARK       I    between atoms: CZ_129  and  NH1_130 
REMARK       I    between atoms: CZ_129  and  NH2_131 
REMARK   58  A    between atoms: N_138  and  CA_139 
REMARK   59  A    between atoms: CA_139  and  C_140 
REMARK   60  A    between atoms: CA_139  and  CB_142 
REMARK       I    between atoms: C_140  and  N_146 
REMARK   61  A    between atoms: N_146  and  CA_147 
REMARK   62  A    between atoms: CA_147  and  C_148 
REMARK   63  A    between atoms: CA_147  and  CB_150 
REMARK       I    between atoms: C_148  and  N_155 
REMARK   64  A    between atoms: CB_150  and  CG_151 
REMARK   65  A    between atoms: CG_151  and  SD_152 
REMARK   66  A    between atoms: N_155  and  CA_156 
REMARK   67  A    between atoms: CA_156  and  C_157 
REMARK   68  A    between atoms: CA_156  and  CB_159 
REMARK   69  A    between atoms: CB_159  and  CG_160 
REMARK   70  A    between atoms: CG_160  and  CD_161 
REMARK   71  A    between atoms: CD_161  and  NE_162 
REMARK       I    between atoms: NE_162  and  CZ_163 
REMARK       I    between atoms: CZ_163  and  NH1_164 
ROOT
ATOM      1  CA  GLU d   9     417.058  99.421-379.944  0.00  0.00     0.177 C 
ENDROOT
BRANCH   1   2
ATOM      2  N   GLU d   9     415.675  99.020-380.184  0.00  0.00    -0.346 N 
ATOM      3  C   ASP d   8     415.121  99.325-381.309  0.00  0.00     0.241 C 
ATOM      4  O   ASP d   8     415.781  99.951-382.154  0.00  0.00    -0.271 OA
ATOM      5  H   GLU d   9     415.159  98.512-379.480  0.00  0.00     0.163 HD
BRANCH   3   6
ATOM      6  CA  ASP d   8     413.691  98.911-381.557  0.00  0.00     0.186 C 
BRANCH   6   7
ATOM      7  N   ASP d   8     413.479  97.514-381.191  0.00  0.00    -0.346 N 
ATOM      8  C   LEU d   7     414.207  96.605-381.746  0.00  0.00     0.241 C 
ATOM      9  O   LEU d   7     415.066  96.944-382.574  0.00  0.00    -0.271 OA
ATOM     10  H   ASP d   8     412.773  97.263-380.514  0.00  0.00     0.163 HD
BRANCH   8  11
ATOM     11  CA  LEU d   7     413.988  95.160-381.367  0.00  0.00     0.177 C 
BRANCH  11  12
ATOM     12  N   LEU d   7     413.907  95.006-379.917  0.00  0.00    -0.346 N 
ATOM     13  C   ILE d   6     414.892  95.413-379.190  0.00  0.00     0.241 C 
ATOM     14  O   ILE d   6     415.878  95.923-379.744  0.00  0.00    -0.271 OA
ATOM     15  H   LEU d   7     413.093  94.588-379.490  0.00  0.00     0.163 HD
BRANCH  13  16
ATOM     16  CA  ILE d   6     414.810  95.255-377.692  0.00  0.00     0.180 C 
BRANCH  16  17
ATOM     17  N   ILE d   6     413.517  95.710-377.188  0.00  0.00    -0.346 N 
ATOM     18  C   SER d   5     413.141  96.919-377.433  0.00  0.00     0.243 C 
ATOM     19  O   SER d   5     413.882  97.654-378.084  0.00  0.00    -0.271 OA
ATOM     20  H   ILE d   6     412.926  95.087-376.655  0.00  0.00     0.163 HD
BRANCH  18  21
ATOM     21  CA  SER d   5     411.803  97.390-376.911  0.00  0.00     0.200 C 
BRANCH  21  22
ATOM     22  N   SER d   5     410.758  96.411-377.194  0.00  0.00    -0.344 N 
ATOM     23  C   GLU d   4     410.551  96.052-378.416  0.00  0.00     0.241 C 
ATOM     24  O   GLU d   4     411.246  96.550-379.313  0.00  0.00    -0.271 OA
ATOM     25  H   SER d   5     410.205  96.020-376.444  0.00  0.00     0.163 HD
BRANCH  23  26
ATOM     26  CA  GLU d   4     409.471  95.040-378.709  0.00  0.00     0.177 C 
BRANCH  26  27
ATOM     27  N   GLU d   4     409.561  93.901-377.799  0.00  0.00    -0.346 N 
ATOM     28  C   PHE d   3     410.661  93.231-377.742  0.00  0.00     0.241 C 
ATOM     29  O   PHE d   3     411.629  93.579-378.475  0.00  0.00    -0.271 OA
ATOM     30  H   GLU d   4     408.773  93.642-377.223  0.00  0.00     0.163 HD
BRANCH  28  31
ATOM     31  CA  PHE d   3     410.755  92.053-376.802  0.00  0.00     0.180 C 
BRANCH  31  32
ATOM     32  N   PHE d   3     410.242  92.397-375.479  0.00  0.00    -0.346 N 
ATOM     33  C   ASN d   2     410.763  93.392-374.845  0.00  0.00     0.241 C 
ATOM     34  O   ASN d   2     411.678  94.023-375.374  0.00  0.00    -0.271 OA
ATOM     35  H   PHE d   3     409.490  91.864-375.066  0.00  0.00     0.163 HD
BRANCH  33  36
ATOM     36  CA  ASN d   2     410.232  93.748-373.476  0.00  0.00     0.185 C 
BRANCH  36  37
ATOM     37  N   ASN d   2     408.773  93.786-373.476  0.00  0.00    -0.346 N 
ATOM     38  C   GLU d   1     408.168  94.572-374.301  0.00  0.00     0.242 C 
ATOM     39  O   GLU d   1     408.844  95.271-375.070  0.00  0.00    -0.271 OA
ATOM     40  H   ASN d   2     408.245  93.207-372.840  0.00  0.00     0.163 HD
BRANCH  38  41
ATOM     41  CA  GLU d   1     406.659  94.612-374.301  0.00  0.00     0.191 C 
BRANCH  41  42
ATOM     42  N   GLU d   1     406.100  93.263-374.301  0.00  0.00    -0.326 NA
ATOM     43  H   GLU d   1     406.727  92.384-374.301  0.00  0.00     0.180 HD
ENDBRANCH  41  42
BRANCH  41  44
ATOM     44  CB  GLU d   1     406.136  95.397-373.064  0.00  0.00     0.047 C 
BRANCH  44  45
ATOM     45  CG  GLU d   1     406.611  96.882-372.953  0.00  0.00     0.116 C 
BRANCH  45  46
ATOM     46  CD  GLU d   1     406.187  97.686-371.738  0.00  0.00     0.172 C 
ATOM     47  OE1 GLU d   1     405.459  97.184-370.860  0.00  0.00    -0.648 OA
ATOM     48  OE2 GLU d   1     406.617  98.856-371.666  0.00  0.00    -0.648 OA
ENDBRANCH  45  46
ENDBRANCH  44  45
ENDBRANCH  41  44
ENDBRANCH  38  41
ENDBRANCH  36  37
BRANCH  36  49
ATOM     49  CB  ASN d   2     410.725  92.725-372.412  0.00  0.00     0.137 C 
BRANCH  49  50
ATOM     50  CG  ASN d   2     410.262  92.949-370.968  0.00  0.00     0.217 C 
ATOM     51  ND2 ASN d   2     410.856  93.864-370.250  0.00  0.00    -0.370 N 
ATOM     52 21HD ASN d   2     410.375  94.037-369.364  0.00  0.00     0.159 HD
ATOM     53 22HD ASN d   2     411.557  94.435-370.720  0.00  0.00     0.159 HD
ATOM     54  OD1 ASN d   2     409.341  92.315-370.474  0.00  0.00    -0.274 OA
ENDBRANCH  49  50
ENDBRANCH  36  49
ENDBRANCH  33  36
ENDBRANCH  31  32
BRANCH  31  55
ATOM     55  CB  PHE d   3     409.940  90.867-377.399  0.00  0.00     0.073 C 
BRANCH  55  56
ATOM     56  CG  PHE d   3     409.916  89.569-376.576  0.00  0.00    -0.056 A 
ATOM     57  CD1 PHE d   3     408.932  89.389-375.597  0.00  0.00     0.007 A 
ATOM     58  CE1 PHE d   3     408.945  88.258-374.789  0.00  0.00     0.001 A 
ATOM     59  CZ  PHE d   3     409.931  87.290-374.965  0.00  0.00     0.000 A 
ATOM     60  CE2 PHE d   3     410.908  87.456-375.946  0.00  0.00     0.001 A 
ATOM     61  CD2 PHE d   3     410.902  88.594-376.748  0.00  0.00     0.007 A 
ENDBRANCH  55  56
ENDBRANCH  31  55
ENDBRANCH  28  31
ENDBRANCH  26  27
BRANCH  26  62
ATOM     62  CB  GLU d   4     408.065  95.696-378.592  0.00  0.00     0.045 C 
BRANCH  62  63
ATOM     63  CG  GLU d   4     407.799  96.905-379.546  0.00  0.00     0.116 C 
BRANCH  63  64
ATOM     64  CD  GLU d   4     406.470  97.629-379.440  0.00  0.00     0.172 C 
ATOM     65  OE1 GLU d   4     405.601  97.257-378.629  0.00  0.00    -0.648 OA
ATOM     66  OE2 GLU d   4     406.310  98.612-380.193  0.00  0.00    -0.648 OA
ENDBRANCH  63  64
ENDBRANCH  62  63
ENDBRANCH  26  62
ENDBRANCH  23  26
ENDBRANCH  21  22
BRANCH  21  67
ATOM     67  CB  SER d   5     411.863  97.712-375.397  0.00  0.00     0.199 C 
BRANCH  67  68
ATOM     68  OG  SER d   5     412.350  96.616-374.614  0.00  0.00    -0.398 OA
ATOM     69  HG  SER d   5     411.726  95.893-374.713  0.00  0.00     0.209 HD
ENDBRANCH  67  68
ENDBRANCH  21  67
ENDBRANCH  18  21
ENDBRANCH  16  17
BRANCH  16  70
ATOM     70  CB  ILE d   6     415.115  93.769-377.239  0.00  0.00     0.013 C 
ATOM     71  CG2 ILE d   6     416.527  93.278-377.684  0.00  0.00     0.012 C 
BRANCH  70  72
ATOM     72  CG1 ILE d   6     414.973  93.514-375.704  0.00  0.00     0.002 C 
ATOM     73  CD1 ILE d   6     414.944  92.034-375.268  0.00  0.00     0.005 C 
ENDBRANCH  70  72
ENDBRANCH  16  70
ENDBRANCH  13  16
ENDBRANCH  11  12
BRANCH  11  74
ATOM     74  CB  LEU d   7     412.708  94.595-382.048  0.00  0.00     0.038 C 
BRANCH  74  75
ATOM     75  CG  LEU d   7     412.342  93.108-381.796  0.00  0.00    -0.020 C 
ATOM     76  CD1 LEU d   7     411.120  92.714-382.637  0.00  0.00     0.009 C 
ATOM     77  CD2 LEU d   7     413.508  92.150-382.096  0.00  0.00     0.009 C 
ENDBRANCH  74  75
ENDBRANCH  11  74
ENDBRANCH   8  11
ENDBRANCH   6   7
BRANCH   6  78
ATOM     78  CB  ASP d   8     412.704  99.833-380.788  0.00  0.00     0.147 C 
BRANCH  78  79
ATOM     79  CG  ASP d   8     412.781 101.326-381.142  0.00  0.00     0.175 C 
ATOM     80  OD1 ASP d   8     412.996 101.659-382.326  0.00  0.00    -0.648 OA
ATOM     81  OD2 ASP d   8     412.671 102.164-380.224  0.00  0.00    -0.648 OA
ENDBRANCH  78  79
ENDBRANCH   6  78
ENDBRANCH   3   6
ENDBRANCH   1   2
BRANCH   1  82
ATOM     82  C   GLU d   9     417.973  98.872-381.012  0.00  0.00     0.241 C 
ATOM     83  O   GLU d   9     418.822  99.578-381.576  0.00  0.00    -0.271 OA
ATOM     84  N   HIS d  10     417.869  97.631-381.348  0.00  0.00    -0.346 N 
ATOM     85  H   HIS d  10     417.185  97.036-380.903  0.00  0.00     0.163 HD
BRANCH  84  86
ATOM     86  CA  HIS d  10     418.754  97.100-382.381  0.00  0.00     0.182 C 
BRANCH  86  87
ATOM     87  C   HIS d  10     418.619  97.883-383.665  0.00  0.00     0.241 C 
ATOM     88  O   HIS d  10     419.608  98.278-384.301  0.00  0.00    -0.271 OA
ATOM     89  N   VAL d  11     417.439  98.149-384.114  0.00  0.00    -0.346 N 
ATOM     90  H   VAL d  11     416.618  97.839-383.614  0.00  0.00     0.163 HD
BRANCH  89  91
ATOM     91  CA  VAL d  11     417.309  98.906-385.355  0.00  0.00     0.180 C 
BRANCH  91  92
ATOM     92  C   VAL d  11     418.018 100.235-385.256  0.00  0.00     0.241 C 
ATOM     93  O   VAL d  11     418.773 100.645-386.147  0.00  0.00    -0.271 OA
ATOM     94  N   GLN d  12     417.833 100.966-384.209  0.00  0.00    -0.346 N 
ATOM     95  H   GLN d  12     417.222 100.653-383.468  0.00  0.00     0.163 HD
BRANCH  94  96
ATOM     96  CA  GLN d  12     418.518 102.250-384.111  0.00  0.00     0.177 C 
BRANCH  96  97
ATOM     97  C   GLN d  12     420.014 102.077-384.228  0.00  0.00     0.241 C 
ATOM     98  O   GLN d  12     420.696 102.789-384.963  0.00  0.00    -0.271 OA
ATOM     99  N   ARG d  13     420.593 101.156-383.536  0.00  0.00    -0.346 N 
ATOM    100  H   ARG d  13     420.055 100.558-382.925  0.00  0.00     0.163 HD
BRANCH  99 101
ATOM    101  CA  ARG d  13     422.039 100.989-383.649  0.00  0.00     0.176 C 
BRANCH 101 102
ATOM    102  C   ARG d  13     422.443 100.741-385.083  0.00  0.00     0.241 C 
ATOM    103  O   ARG d  13     423.376 101.342-385.611  0.00  0.00    -0.271 OA
ATOM    104  N   VAL d  14     421.789  99.871-385.776  0.00  0.00    -0.346 N 
ATOM    105  H   VAL d  14     421.018  99.364-385.365  0.00  0.00     0.163 HD
BRANCH 104 106
ATOM    106  CA  VAL d  14     422.179  99.631-387.162  0.00  0.00     0.180 C 
BRANCH 106 107
ATOM    107  C   VAL d  14     422.137 100.909-387.965  0.00  0.00     0.241 C 
ATOM    108  O   VAL d  14     423.064 101.245-388.714  0.00  0.00    -0.271 OA
ATOM    109  N   MET d  15     421.103 101.674-387.868  0.00  0.00    -0.346 N 
ATOM    110  H   MET d  15     420.334 101.422-387.264  0.00  0.00     0.163 HD
BRANCH 109 111
ATOM    111  CA  MET d  15     421.061 102.910-388.643  0.00  0.00     0.177 C 
BRANCH 111 112
ATOM    112  C   MET d  15     422.249 103.787-388.330  0.00  0.00     0.241 C 
ATOM    113  O   MET d  15     422.926 104.320-389.223  0.00  0.00    -0.271 OA
ATOM    114  N   ARG d  16     422.570 103.990-387.097  0.00  0.00    -0.347 N 
ATOM    115  H   ARG d  16     422.035 103.568-386.352  0.00  0.00     0.163 HD
BRANCH 114 116
ATOM    116  CA  ARG d  16     423.719 104.839-386.795  0.00  0.00     0.162 C 
BRANCH 116 117
ATOM    117  C   ARG d  16     424.968 104.314-387.464  0.00  0.00     0.219 C 
ATOM    118  O   ARG d  16     424.954 103.314-388.178  0.00  0.00    -0.287 OA
ENDBRANCH 116 117
BRANCH 116 119
ATOM    119  CB  ARG d  16     423.893 104.917-385.252  0.00  0.00     0.035 C 
BRANCH 119 120
ATOM    120  CG  ARG d  16     424.894 105.993-384.745  0.00  0.00     0.023 C 
BRANCH 120 121
ATOM    121  CD  ARG d  16     425.031 105.978-383.214  0.00  0.00     0.138 C 
BRANCH 121 122
ATOM    122  NE  ARG d  16     425.986 107.043-382.785  0.00  0.00    -0.227 N 
ATOM    123  CZ  ARG d  16     426.338 107.299-381.529  0.00  0.00     0.665 C 
ATOM    124  NH1 ARG d  16     425.887 106.634-380.503  0.00  0.00    -0.235 N 
ATOM    125  NH2 ARG d  16     427.175 108.263-381.309  0.00  0.00    -0.235 N 
ATOM    126 11HH ARG d  16     425.232 105.887-380.745  0.00  0.00     0.174 HD
ATOM    127 12HH ARG d  16     426.206 106.894-379.568  0.00  0.00     0.174 HD
ATOM    128 21HH ARG d  16     427.519 108.773-382.126  0.00  0.00     0.174 HD
ATOM    129 22HH ARG d  16     427.432 108.446-380.338  0.00  0.00     0.174 HD
ATOM    130  HE  ARG d  16     426.434 107.657-383.472  0.00  0.00     0.177 HD
ENDBRANCH 121 122
ENDBRANCH 120 121
ENDBRANCH 119 120
ENDBRANCH 116 119
ENDBRANCH 114 116
ENDBRANCH 111 112
BRANCH 111 131
ATOM    131  CB  MET d  15     419.729 103.661-388.367  0.00  0.00     0.045 C 
BRANCH 131 132
ATOM    132  CG  MET d  15     418.439 102.919-388.779  0.00  0.00     0.076 C 
BRANCH 132 133
ATOM    133  SD  MET d  15     417.031 104.034-388.662  0.00  0.00    -0.173 SA
ATOM    134  CE  MET d  15     415.716 102.816-388.803  0.00  0.00     0.089 C 
ENDBRANCH 132 133
ENDBRANCH 131 132
ENDBRANCH 111 131
ENDBRANCH 109 111
ENDBRANCH 106 107
BRANCH 106 135
ATOM    135  CB  VAL d  14     421.239  98.534-387.802  0.00  0.00     0.009 C 
ATOM    136  CG1 VAL d  14     421.399  98.293-389.328  0.00  0.00     0.012 C 
ATOM    137  CG2 VAL d  14     421.374  97.136-387.152  0.00  0.00     0.012 C 
ENDBRANCH 106 135
ENDBRANCH 104 106
ENDBRANCH 101 102
BRANCH 101 138
ATOM    138  CB  ARG d  13     422.483  99.820-382.725  0.00  0.00     0.036 C 
BRANCH 138 139
ATOM    139  CG  ARG d  13     424.017  99.681-382.511  0.00  0.00     0.023 C 
BRANCH 139 140
ATOM    140  CD  ARG d  13     424.369  98.482-381.615  0.00  0.00     0.138 C 
BRANCH 140 141
ATOM    141  NE  ARG d  13     425.848  98.413-381.429  0.00  0.00    -0.227 N 
ATOM    142  CZ  ARG d  13     426.491  97.492-380.716  0.00  0.00     0.665 C 
ATOM    143  NH1 ARG d  13     425.893  96.519-380.088  0.00  0.00    -0.235 N 
ATOM    144  NH2 ARG d  13     427.782  97.565-380.639  0.00  0.00    -0.235 N 
ATOM    145 11HH ARG d  13     424.876  96.519-380.190  0.00  0.00     0.174 HD
ATOM    146 12HH ARG d  13     426.459  95.852-379.560  0.00  0.00     0.174 HD
ATOM    147 21HH ARG d  13     428.233  98.333-381.138  0.00  0.00     0.174 HD
ATOM    148 22HH ARG d  13     428.258  96.850-380.085  0.00  0.00     0.174 HD
ATOM    149  HE  ARG d  13     426.468  99.106-381.860  0.00  0.00     0.177 HD
ENDBRANCH 140 141
ENDBRANCH 139 140
ENDBRANCH 138 139
ENDBRANCH 101 138
ENDBRANCH  99 101
ENDBRANCH  96  97
BRANCH  96 150
ATOM    150  CB  GLN d  12     418.141 102.913-382.767  0.00  0.00     0.044 C 
BRANCH 150 151
ATOM    151  CG  GLN d  12     418.748 104.329-382.501  0.00  0.00     0.105 C 
BRANCH 151 152
ATOM    152  CD  GLN d  12     418.467 105.022-381.161  0.00  0.00     0.215 C 
ATOM    153  NE2 GLN d  12     417.715 104.436-380.266  0.00  0.00    -0.370 N 
ATOM    154 21HE GLN d  12     417.631 104.934-379.378  0.00  0.00     0.159 HD
ATOM    155 22HE GLN d  12     417.395 103.498-380.518  0.00  0.00     0.159 HD
ATOM    156  OE1 GLN d  12     418.955 106.111-380.900  0.00  0.00    -0.274 OA
ENDBRANCH 151 152
ENDBRANCH 150 151
ENDBRANCH  96 150
ENDBRANCH  94  96
ENDBRANCH  91  92
BRANCH  91 157
ATOM    157  CB  VAL d  11     415.780  99.110-385.701  0.00  0.00     0.009 C 
ATOM    158  CG1 VAL d  11     415.463 100.054-386.893  0.00  0.00     0.012 C 
ATOM    159  CG2 VAL d  11     415.027  97.794-386.012  0.00  0.00     0.012 C 
ENDBRANCH  91 157
ENDBRANCH  89  91
ENDBRANCH  86  87
BRANCH  86 160
ATOM    160  CB  HIS d  10     418.334  95.637-382.599  0.00  0.00     0.095 C 
BRANCH 160 161
ATOM    161  CG  HIS d  10     419.446  94.675-382.298  0.00  0.00     0.053 A 
ATOM    162  CD2 HIS d  10     419.639  94.120-381.039  0.00  0.00     0.116 A 
ATOM    163  NE2 HIS d  10     420.730  93.293-381.103  0.00  0.00    -0.359 N 
ATOM    164  CE1 HIS d  10     421.117  93.413-382.403  0.00  0.00     0.207 A 
ATOM    165  2HE HIS d  10     421.148  92.728-380.350  0.00  0.00     0.166 HD
ATOM    166  ND1 HIS d  10     420.401  94.221-383.205  0.00  0.00    -0.247 NA
ENDBRANCH 160 161
ENDBRANCH  86 160
ENDBRANCH  84  86
ENDBRANCH   1  82
BRANCH   1 167
ATOM    167  CB  GLU d   9     417.510  98.932-378.538  0.00  0.00     0.045 C 
BRANCH 167 168
ATOM    168  CG  GLU d   9     418.961  99.330-378.115  0.00  0.00     0.116 C 
BRANCH 168 169
ATOM    169  CD  GLU d   9     419.485  98.833-376.781  0.00  0.00     0.172 C 
ATOM    170  OE1 GLU d   9     418.771  98.142-376.029  0.00  0.00    -0.648 OA
ATOM    171  OE2 GLU d   9     420.661  99.140-376.495  0.00  0.00    -0.648 OA
ENDBRANCH 168 169
ENDBRANCH 167 168
ENDBRANCH   1 167
TORSDOF 71
