@<TRIPOS>MOLECULE
10-10
272 274 16              
SMALL
USER_CHARGES
@<TRIPOS>ATOM
1	   N	1591.010	472.181	-1617.579	N.3	1	GLU1	-0.516	
2	  CA	1591.569	473.530	-1617.579	C.3	1	GLU1	0.040	
3	   C	1593.078	473.490	-1617.579	C.2	1	GLU1	0.537	
4	   O	1593.754	474.189	-1618.348	O.2	1	GLU1	-0.582	
5	  CB	1591.046	474.315	-1616.342	C.3	1	GLU1	0.056	
6	  CG	1591.521	475.800	-1616.231	C.3	1	GLU1	0.014	
7	  CD	1591.097	476.604	-1615.016	C.2	1	GLU1	0.805	
8	 OE1	1590.369	476.102	-1614.138	O.co2	1	GLU1	-0.819	
9	 OE2	1591.527	477.774	-1614.944	O.co2	1	GLU1	-0.819	
10	   H	1591.637	471.302	-1617.579	 H	1	GLU1	0.294	
11	  HA	1591.243	474.048	-1618.499	 H	1	GLU1	0.111	
12	 2HB	1591.335	473.784	-1615.412	 H	1	GLU1	-0.017	
13	 3HB	1589.939	474.305	-1616.329	 H	1	GLU1	-0.017	
14	 2HG	1591.211	476.385	-1617.112	 H	1	GLU1	-0.043	
15	 3HG	1592.621	475.867	-1616.202	 H	1	GLU1	-0.043	
16	   N	1593.682	472.704	-1616.754	N.am	2	ASN2	-0.416	
17	  CA	1595.142	472.665	-1616.754	C.3	2	ASN2	0.014	
18	   C	1595.673	472.310	-1618.123	C.2	2	ASN2	0.597	
19	   O	1596.588	472.940	-1618.652	O.2	2	ASN2	-0.568	
20	  CB	1595.634	471.642	-1615.690	C.3	2	ASN2	-0.204	
21	  CG	1595.171	471.866	-1614.246	C.2	2	ASN2	0.713	
22	 ND2	1595.765	472.781	-1613.528	N.pl3	2	ASN2	-0.919	
23	 OD1	1594.250	471.232	-1613.752	O.2	2	ASN2	-0.593	
24	   H	1593.154	472.124	-1616.118	 H	2	ASN2	0.272	
25	  HA	1595.519	473.675	-1616.509	 H	2	ASN2	0.105	
26	 2HB	1596.738	471.583	-1615.693	 H	2	ASN2	0.080	
27	 3HB	1595.305	470.624	-1615.976	 H	2	ASN2	0.080	
28	1HD2	1595.284	472.954	-1612.642	 H	2	ASN2	0.420	
29	2HD2	1596.467	473.353	-1613.998	 H	2	ASN2	0.420	
30	   N	1595.151	471.315	-1618.757	N.am	3	PRO3	-0.255	
31	  CA	1595.603	470.905	-1620.078	C.3	3	PRO3	-0.027	
32	   C	1595.205	471.929	-1621.155	C.2	3	PRO3	0.590	
33	   O	1596.028	472.312	-1621.987	O.2	3	PRO3	-0.575	
34	  CB	1594.899	469.551	-1620.248	C.3	3	PRO3	-0.007	
35	  CG	1593.616	469.703	-1619.418	C.3	3	PRO3	0.019	
36	  CD	1594.073	470.521	-1618.208	C.3	3	PRO3	0.019	
37	  HA	1596.689	470.785	-1620.092	 H	3	PRO3	0.064	
38	 2HB	1595.522	468.769	-1619.807	 H	3	PRO3	0.025	
39	 3HB	1594.701	469.302	-1621.293	 H	3	PRO3	0.025	
40	 2HG	1593.188	468.740	-1619.126	 H	3	PRO3	0.021	
41	 3HG	1592.878	470.274	-1619.985	 H	3	PRO3	0.021	
42	 2HD	1594.463	469.872	-1617.420	 H	3	PRO3	0.039	
43	 3HD	1593.277	471.157	-1617.815	 H	3	PRO3	0.039	
44	   N	1594.000	472.389	-1621.188	N.am	4	GLU4	-0.516	
45	  CA	1593.640	473.360	-1622.217	C.3	4	GLU4	0.040	
46	   C	1594.539	474.571	-1622.156	C.2	4	GLU4	0.537	
47	   O	1595.065	475.051	-1623.171	O.2	4	GLU4	-0.582	
48	  CB	1592.152	473.778	-1622.047	C.3	4	GLU4	0.056	
49	  CG	1591.604	474.782	-1623.112	C.3	4	GLU4	0.014	
50	  CD	1590.177	475.279	-1622.968	C.2	4	GLU4	0.805	
51	 OE1	1589.451	474.880	-1622.037	O.co2	4	GLU4	-0.819	
52	 OE2	1589.787	476.108	-1623.817	O.co2	4	GLU4	-0.819	
53	   H	1593.316	472.082	-1620.511	 H	4	GLU4	0.294	
54	  HA	1593.771	472.889	-1623.208	 H	4	GLU4	0.111	
55	 2HB	1592.000	474.218	-1621.040	 H	4	GLU4	-0.017	
56	 3HB	1591.504	472.881	-1622.053	 H	4	GLU4	-0.017	
57	 2HG	1591.685	474.367	-1624.130	 H	4	GLU4	-0.043	
58	 3HG	1592.192	475.714	-1623.123	 H	4	GLU4	-0.043	
59	   N	1594.767	475.124	-1621.013	N.am	5	SER5	-0.416	
60	  CA	1595.636	476.295	-1620.954	C.3	5	SER5	-0.025	
61	   C	1596.995	475.990	-1621.540	C.2	5	SER5	0.597	
62	   O	1597.542	476.743	-1622.345	O.2	5	SER5	-0.568	
63	  CB	1595.748	476.827	-1619.504	C.3	5	SER5	0.212	
64	  OG	1596.480	475.948	-1618.643	O.3	5	SER5	-0.655	
65	   H	1594.350	474.752	-1620.171	 H	5	SER5	0.272	
66	  HA	1595.187	477.085	-1621.583	 H	5	SER5	0.084	
67	 2HB	1594.748	477.021	-1619.070	 H	5	SER5	0.035	
68	 3HB	1596.253	477.813	-1619.506	 H	5	SER5	0.035	
69	  HG	1595.991	475.123	-1618.592	 H	5	SER5	0.428	
70	   N	1597.600	474.907	-1621.186	N.am	6	ILE6	-0.416	
71	  CA	1598.913	474.612	-1621.753	C.3	6	ILE6	-0.060	
72	   C	1598.856	474.575	-1623.260	C.2	6	ILE6	0.597	
73	   O	1599.690	475.163	-1623.964	O.2	6	ILE6	-0.568	
74	  CB	1599.513	473.276	-1621.153	C.3	6	ILE6	0.130	
75	 CG1	1599.532	473.213	-1619.592	C.3	6	ILE6	-0.043	
76	 CG2	1600.954	472.974	-1621.668	C.3	6	ILE6	-0.320	
77	 CD1	1599.802	471.824	-1618.977	C.3	6	ILE6	-0.066	
78	   H	1597.172	474.272	-1620.527	 H	6	ILE6	0.272	
79	  HA	1599.587	475.446	-1621.485	 H	6	ILE6	0.087	
80	  HB	1598.855	472.450	-1621.497	 H	6	ILE6	0.019	
81	2HG1	1598.550	473.533	-1619.196	 H	6	ILE6	0.024	
82	3HG1	1600.248	473.955	-1619.187	 H	6	ILE6	0.024	
83	1HG2	1601.013	472.881	-1622.767	 H	6	ILE6	0.088	
84	2HG2	1601.676	473.757	-1621.366	 H	6	ILE6	0.088	
85	3HG2	1601.344	472.012	-1621.290	 H	6	ILE6	0.088	
86	1HD1	1599.074	471.070	-1619.332	 H	6	ILE6	0.019	
87	2HD1	1600.813	471.446	-1619.213	 H	6	ILE6	0.019	
88	3HD1	1599.726	471.854	-1617.875	 H	6	ILE6	0.019	
89	   N	1597.910	473.911	-1623.834	N.am	7	LEU7	-0.416	
90	  CA	1597.855	473.875	-1625.293	C.3	7	LEU7	-0.052	
91	   C	1597.782	475.271	-1625.865	C.2	7	LEU7	0.597	
92	   O	1598.503	475.634	-1626.807	O.2	7	LEU7	-0.568	
93	  CB	1596.652	473.015	-1625.773	C.3	7	LEU7	-0.110	
94	  CG	1596.579	471.536	-1625.307	C.3	7	LEU7	0.353	
95	 CD1	1595.389	470.830	-1625.972	C.3	7	LEU7	-0.412	
96	 CD2	1597.872	470.757	-1625.599	C.3	7	LEU7	-0.412	
97	   H	1597.218	473.424	-1623.283	 H	7	LEU7	0.272	
98	  HA	1598.796	473.435	-1625.667	 H	7	LEU7	0.092	
99	 2HB	1596.628	473.031	-1626.880	 H	7	LEU7	0.046	
100	 3HB	1595.712	473.518	-1625.469	 H	7	LEU7	0.046	
101	  HG	1596.409	471.527	-1624.210	 H	7	LEU7	-0.036	
102	1HD1	1594.432	471.339	-1625.750	 H	7	LEU7	0.100	
103	2HD1	1595.488	470.790	-1627.073	 H	7	LEU7	0.100	
104	3HD1	1595.282	469.789	-1625.616	 H	7	LEU7	0.100	
105	1HD2	1598.148	470.787	-1626.668	 H	7	LEU7	0.100	
106	2HD2	1598.726	471.168	-1625.027	 H	7	LEU7	0.100	
107	3HD2	1597.791	469.694	-1625.303	 H	7	LEU7	0.100	
108	   N	1596.945	476.111	-1625.358	N.am	8	ASP8	-0.516	
109	  CA	1596.874	477.461	-1625.911	C.3	8	ASP8	0.038	
110	   C	1598.221	478.141	-1625.854	C.2	8	ASP8	0.537	
111	   O	1598.694	478.746	-1626.828	O.2	8	ASP8	-0.582	
112	  CB	1595.796	478.300	-1625.169	C.3	8	ASP8	-0.030	
113	  CG	1595.577	479.721	-1625.709	C.2	8	ASP8	0.799	
114	 OD1	1595.641	479.920	-1626.940	O.co2	8	ASP8	-0.801	
115	 OD2	1595.385	480.646	-1624.894	O.co2	8	ASP8	-0.801	
116	   H	1596.347	475.840	-1624.591	 H	8	ASP8	0.294	
117	  HA	1596.591	477.383	-1626.978	 H	8	ASP8	0.088	
118	 2HB	1596.054	478.383	-1624.097	 H	8	ASP8	-0.012	
119	 3HB	1594.817	477.794	-1625.202	 H	8	ASP8	-0.012	
120	   N	1598.901	478.091	-1624.759	N.am	9	GLU9	-0.516	
121	  CA	1600.203	478.748	-1624.703	C.3	9	GLU9	0.040	
122	   C	1601.121	478.221	-1625.780	C.2	9	GLU9	0.537	
123	   O	1601.785	478.976	-1626.505	O.2	9	GLU9	-0.582	
124	  CB	1600.837	478.540	-1623.298	C.3	9	GLU9	0.056	
125	  CG	1602.220	479.233	-1623.068	C.3	9	GLU9	0.014	
126	  CD	1602.922	479.019	-1621.740	C.2	9	GLU9	0.805	
127	 OE1	1602.400	478.327	-1620.844	O.co2	9	GLU9	-0.819	
128	 OE2	1604.041	479.557	-1621.609	O.co2	9	GLU9	-0.819	
129	   H	1598.538	477.604	-1623.952	 H	9	GLU9	0.294	
130	  HA	1600.061	479.830	-1624.878	 H	9	GLU9	0.111	
131	 2HB	1600.950	477.456	-1623.095	 H	9	GLU9	-0.017	
132	 3HB	1600.140	478.893	-1622.514	 H	9	GLU9	-0.017	
133	 2HG	1602.148	480.323	-1623.208	 H	9	GLU9	-0.043	
134	 3HG	1602.966	478.888	-1623.803	 H	9	GLU9	-0.043	
135	   N	1601.218	476.946	-1625.950	N.am	10	TRP10	-0.416	
136	  CA	1602.105	476.436	-1626.990	C.3	10	TRP10	-0.027	
137	   C	1601.738	477.002	-1628.342	C.2	10	TRP10	0.597	
138	   O	1602.583	477.464	-1629.106	O.2	10	TRP10	-0.568	
139	  CB	1602.008	474.885	-1627.026	C.3	10	TRP10	-0.005	
140	  CG	1602.540	474.181	-1625.774	C.2	10	TRP10	-0.141	
141	 CD1	1601.760	473.737	-1624.687	C.2	10	TRP10	-0.164	
142	 CD2	1603.851	473.930	-1625.427	C.2	10	TRP10	0.124	
143	 CE2	1603.853	473.335	-1624.140	C.2	10	TRP10	0.138	
144	 CE3	1605.070	474.189	-1626.104	C.2	10	TRP10	-0.239	
145	 NE1	1602.559	473.203	-1623.658	N.pl3	10	TRP10	-0.342	
146	 CZ2	1605.075	472.985	-1623.526	C.2	10	TRP10	-0.260	
147	 CZ3	1606.264	473.827	-1625.480	C.2	10	TRP10	-0.197	
148	 CH2	1606.268	473.231	-1624.211	C.2	10	TRP10	-0.113	
149	   H	1600.687	476.310	-1625.372	 H	10	TRP10	0.272	
150	  HA	1603.143	476.750	-1626.768	 H	10	TRP10	0.112	
151	 2HB	1602.566	474.487	-1627.895	 H	10	TRP10	0.034	
152	 3HB	1600.961	474.573	-1627.207	 H	10	TRP10	0.034	
153	 1HD	1600.684	473.841	-1624.634	 H	10	TRP10	0.206	
154	 1HE	1602.263	472.846	-1622.743	 H	10	TRP10	0.341	
155	 3HE	1605.077	474.654	-1627.079	 H	10	TRP10	0.170	
156	 2HZ	1605.082	472.533	-1622.546	 H	10	TRP10	0.157	
157	 3HZ	1607.202	474.010	-1625.986	 H	10	TRP10	0.145	
158	 2HH	1607.208	472.958	-1623.755	 H	10	TRP10	0.142	
159	   N	1600.500	477.002	-1628.704	N.am	11	VAL11	-0.416	
160	  CA	1600.145	477.549	-1630.011	C.3	11	VAL11	-0.087	
161	   C	1600.609	478.980	-1630.141	C.2	11	VAL11	0.597	
162	   O	1601.210	479.386	-1631.144	O.2	11	VAL11	-0.568	
163	  CB	1598.584	477.443	-1630.230	C.3	11	VAL11	0.299	
164	 CG1	1598.015	478.148	-1631.492	C.3	11	VAL11	-0.319	
165	 CG2	1598.059	475.989	-1630.305	C.3	11	VAL11	-0.319	
166	   H	1599.787	476.628	-1628.094	 H	11	VAL11	0.272	
167	  HA	1600.664	476.968	-1630.794	 H	11	VAL11	0.097	
168	  HB	1598.096	477.922	-1629.354	 H	11	VAL11	-0.030	
169	1HG1	1598.453	477.757	-1632.430	 H	11	VAL11	0.079	
170	2HG1	1596.916	478.041	-1631.574	 H	11	VAL11	0.079	
171	3HG1	1598.193	479.240	-1631.481	 H	11	VAL11	0.079	
172	1HG2	1598.349	475.401	-1629.415	 H	11	VAL11	0.079	
173	2HG2	1596.953	475.952	-1630.348	 H	11	VAL11	0.079	
174	3HG2	1598.441	475.449	-1631.192	 H	11	VAL11	0.079	
175	   N	1600.372	479.804	-1629.178	N.am	12	GLN12	-0.416	
176	  CA	1600.821	481.188	-1629.304	C.3	12	GLN12	-0.003	
177	   C	1602.311	481.255	-1629.542	C.2	12	GLN12	0.597	
178	   O	1602.798	481.965	-1630.419	O.2	12	GLN12	-0.568	
179	  CB	1600.430	481.953	-1628.020	C.3	12	GLN12	-0.004	
180	  CG	1600.790	483.475	-1627.987	C.3	12	GLN12	-0.064	
181	  CD	1600.487	484.287	-1626.721	C.2	12	GLN12	0.695	
182	 NE2	1599.920	483.709	-1625.693	N.pl3	12	GLN12	-0.941	
183	 OE1	1600.789	485.468	-1626.642	O.2	12	GLN12	-0.609	
184	   H	1599.883	479.497	-1628.349	 H	12	GLN12	0.272	
185	  HA	1600.321	481.645	-1630.178	 H	12	GLN12	0.085	
186	 2HB	1600.906	481.452	-1627.151	 H	12	GLN12	0.017	
187	 3HB	1599.339	481.846	-1627.857	 H	12	GLN12	0.017	
188	 2HG	1600.312	483.997	-1628.837	 H	12	GLN12	0.035	
189	 3HG	1601.873	483.618	-1628.153	 H	12	GLN12	0.035	
190	1HE2	1599.813	484.303	-1624.869	 H	12	GLN12	0.425	
191	2HE2	1599.757	482.706	-1625.798	 H	12	GLN12	0.425	
192	   N	1603.095	480.548	-1628.801	N.am	13	ARG13	-0.348	
193	  CA	1604.535	480.614	-1629.032	C.3	13	ARG13	-0.264	
194	   C	1604.872	480.244	-1630.457	C.2	13	ARG13	0.734	
195	   O	1605.641	480.916	-1631.140	O.2	13	ARG13	-0.589	
196	  CB	1605.249	479.674	-1628.019	C.3	13	ARG13	-0.001	
197	  CG	1606.794	479.827	-1627.937	C.3	13	ARG13	0.039	
198	  CD	1607.421	478.838	-1626.941	C.3	13	ARG13	0.049	
199	  NE	1608.898	479.045	-1626.890	N.pl3	13	ARG13	-0.530	
200	  CZ	1609.746	478.353	-1626.135	C.cat	13	ARG13	0.808	
201	 NH1	1609.380	477.388	-1625.339	N.pl3	13	ARG13	-0.863	
202	 NH2	1611.005	478.652	-1626.192	N.pl3	13	ARG13	-0.863	
203	   H	1602.719	479.957	-1628.074	 H	13	ARG13	0.275	
204	  HA	1604.860	481.660	-1628.872	 H	13	ARG13	0.156	
205	 2HB	1604.982	478.624	-1628.259	 H	13	ARG13	0.033	
206	 3HB	1604.823	479.839	-1627.008	 H	13	ARG13	0.033	
207	 2HG	1607.042	480.871	-1627.657	 H	13	ARG13	0.029	
208	 3HG	1607.244	479.672	-1628.939	 H	13	ARG13	0.029	
209	 2HD	1607.176	477.799	-1627.251	 H	13	ARG13	0.069	
210	 3HD	1606.964	478.983	-1625.938	 H	13	ARG13	0.069	
211	  HE	1609.349	479.768	-1627.460	 H	13	ARG13	0.346	
212	1HH1	1608.375	477.202	-1625.342	 H	13	ARG13	0.448	
213	2HH1	1610.094	476.904	-1624.791	 H	13	ARG13	0.448	
214	1HH2	1611.273	479.411	-1626.822	 H	13	ARG13	0.448	
215	2HH2	1611.640	478.110	-1625.603	 H	13	ARG13	0.448	
216	   N	1604.336	479.190	-1630.973	N.am	14	VAL14	-0.416	
217	  CA	1604.661	478.832	-1632.351	C.3	14	VAL14	-0.087	
218	   C	1604.331	479.963	-1633.295	C.2	14	VAL14	0.597	
219	   O	1605.125	480.346	-1634.164	O.2	14	VAL14	-0.568	
220	  CB	1603.889	477.516	-1632.759	C.3	14	VAL14	0.299	
221	 CG1	1603.979	477.099	-1634.253	C.3	14	VAL14	-0.319	
222	 CG2	1604.321	476.262	-1631.960	C.3	14	VAL14	-0.319	
223	   H	1603.701	478.621	-1630.432	 H	14	VAL14	0.272	
224	  HA	1605.750	478.656	-1632.425	 H	14	VAL14	0.097	
225	  HB	1602.813	477.686	-1632.543	 H	14	VAL14	-0.030	
226	1HG1	1605.020	476.922	-1634.582	 H	14	VAL14	0.079	
227	2HG1	1603.406	476.176	-1634.467	 H	14	VAL14	0.079	
228	3HG1	1603.550	477.862	-1634.931	 H	14	VAL14	0.079	
229	1HG2	1604.234	476.420	-1630.869	 H	14	VAL14	0.079	
230	2HG2	1603.685	475.386	-1632.193	 H	14	VAL14	0.079	
231	3HG2	1605.369	475.973	-1632.166	 H	14	VAL14	0.079	
232	   N	1603.187	480.549	-1633.193	N.am	15	MET15	-0.416	
233	  CA	1602.866	481.643	-1634.105	C.3	15	MET15	-0.024	
234	   C	1603.896	482.743	-1634.016	C.2	15	MET15	0.597	
235	   O	1604.399	483.254	-1635.028	O.2	15	MET15	-0.568	
236	  CB	1601.445	482.188	-1633.796	C.3	15	MET15	0.034	
237	  CG	1600.283	481.190	-1633.989	C.3	15	MET15	0.002	
238	  SD	1598.709	482.056	-1633.874	S.3	15	MET15	-0.274	
239	  CE	1597.628	480.626	-1633.740	C.3	15	MET15	-0.054	
240	   H	1602.522	480.255	-1632.492	 H	15	MET15	0.272	
241	  HA	1602.892	481.257	-1635.142	 H	15	MET15	0.088	
242	 2HB	1601.243	483.067	-1634.437	 H	15	MET15	0.024	
243	 3HB	1601.409	482.579	-1632.760	 H	15	MET15	0.024	
244	 2HG	1600.326	480.403	-1633.213	 H	15	MET15	0.044	
245	 3HG	1600.346	480.676	-1634.966	 H	15	MET15	0.044	
246	 1HE	1597.772	479.938	-1634.593	 H	15	MET15	0.068	
247	 2HE	1597.837	480.072	-1632.808	 H	15	MET15	0.068	
248	 3HE	1596.570	480.941	-1633.723	 H	15	MET15	0.068	
249	   N	1604.265	483.163	-1632.854	N.am	16	ARG16	-0.348	
250	  CA	1605.261	484.226	-1632.768	C.3	16	ARG16	-0.264	
251	   C	1606.532	483.835	-1633.485	C.2	16	ARG16	0.734	
252	   O	1606.646	482.759	-1634.067	O.2	16	ARG16	-0.589	
253	  CB	1605.530	484.543	-1631.270	C.3	16	ARG16	-0.001	
254	  CG	1606.355	485.832	-1630.996	C.3	16	ARG16	0.039	
255	  CD	1606.604	486.050	-1629.494	C.3	16	ARG16	0.049	
256	  NE	1607.380	487.308	-1629.291	N.pl3	16	ARG16	-0.530	
257	  CZ	1607.771	487.790	-1628.115	C.cat	16	ARG16	0.808	
258	 NH1	1607.523	487.204	-1626.977	N.pl3	16	ARG16	-0.863	
259	 NH2	1608.435	488.902	-1628.096	N.pl3	16	ARG16	-0.863	
260	   H	1603.870	482.762	-1632.015	 H	16	ARG16	0.275	
261	  HA	1604.852	485.120	-1633.277	 H	16	ARG16	0.156	
262	 2HB	1606.027	483.667	-1630.804	 H	16	ARG16	0.033	
263	 3HB	1604.561	484.623	-1630.736	 H	16	ARG16	0.033	
264	 2HG	1605.824	486.703	-1631.432	 H	16	ARG16	0.029	
265	 3HG	1607.328	485.780	-1631.524	 H	16	ARG16	0.029	
266	 2HD	1607.153	485.175	-1629.082	 H	16	ARG16	0.069	
267	 3HD	1605.631	486.092	-1628.959	 H	16	ARG16	0.069	
268	  HE	1607.659	487.890	-1630.088	 H	16	ARG16	0.346	
269	1HH1	1606.998	486.331	-1627.063	 H	16	ARG16	0.448	
270	2HH1	1607.857	487.639	-1626.116	 H	16	ARG16	0.448	
271	1HH2	1608.620	489.346	-1628.997	 H	16	ARG16	0.448	
272	2HH2	1608.725	489.257	-1627.183	 H	16	ARG16	0.448	
@<TRIPOS>BOND
1 1 2 1
2 1 10 1
3 2 3 1
4 2 5 1
5 2 11 1
6 3 4 2
7 3 16 1
8 5 6 1
9 6 7 1
10 7 8 2
11 7 9 1
12 5 12 1
13 5 13 1
14 6 14 1
15 6 15 1
16 16 17 1
17 16 24 1
18 17 18 1
19 17 20 1
20 17 25 1
21 18 19 2
22 18 30 1
23 20 21 1
24 21 22 1
25 21 23 2
26 20 26 1
27 20 27 1
28 22 28 1
29 22 29 1
30 30 31 1
31 30 36 1
32 31 32 1
33 31 34 1
34 31 37 1
35 32 33 2
36 32 44 1
37 34 35 1
38 35 36 1
39 34 38 1
40 34 39 1
41 35 40 1
42 35 41 1
43 36 42 1
44 36 43 1
45 44 45 1
46 44 53 1
47 45 46 1
48 45 48 1
49 45 54 1
50 46 47 2
51 46 59 1
52 48 49 1
53 49 50 1
54 50 51 2
55 50 52 1
56 48 55 1
57 48 56 1
58 49 57 1
59 49 58 1
60 59 60 1
61 59 65 1
62 60 61 1
63 60 63 1
64 60 66 1
65 61 62 2
66 61 70 1
67 63 64 1
68 63 67 1
69 63 68 1
70 64 69 1
71 70 71 1
72 70 78 1
73 71 72 1
74 71 74 1
75 71 79 1
76 72 73 2
77 72 89 1
78 74 75 1
79 74 76 1
80 75 77 1
81 74 80 1
82 75 81 1
83 75 82 1
84 76 83 1
85 76 84 1
86 76 85 1
87 77 86 1
88 77 87 1
89 77 88 1
90 89 90 1
91 89 97 1
92 90 91 1
93 90 93 1
94 90 98 1
95 91 92 2
96 91 108 1
97 93 94 1
98 94 95 1
99 94 96 1
100 93 99 1
101 93 100 1
102 94 101 1
103 95 102 1
104 95 103 1
105 95 104 1
106 96 105 1
107 96 106 1
108 96 107 1
109 108 109 1
110 108 116 1
111 109 110 1
112 109 112 1
113 109 117 1
114 110 111 2
115 110 120 1
116 112 113 1
117 113 114 2
118 113 115 1
119 112 118 1
120 112 119 1
121 120 121 1
122 120 129 1
123 121 122 1
124 121 124 1
125 121 130 1
126 122 123 2
127 122 135 1
128 124 125 1
129 125 126 1
130 126 127 2
131 126 128 1
132 124 131 1
133 124 132 1
134 125 133 1
135 125 134 1
136 135 136 1
137 135 149 1
138 136 137 1
139 136 139 1
140 136 150 1
141 137 138 2
142 137 159 1
143 139 140 1
144 140 142 1
145 140 141 2
146 142 144 1
147 142 143 2
148 143 145 1
149 144 147 2
150 141 145 1
151 143 146 1
152 147 148 1
153 146 148 2
154 139 151 1
155 139 152 1
156 141 153 1
157 145 154 1
158 144 155 1
159 146 156 1
160 147 157 1
161 148 158 1
162 159 160 1
163 159 166 1
164 160 161 1
165 160 163 1
166 160 167 1
167 161 162 2
168 161 175 1
169 163 164 1
170 163 165 1
171 163 168 1
172 164 169 1
173 164 170 1
174 164 171 1
175 165 172 1
176 165 173 1
177 165 174 1
178 175 176 1
179 175 184 1
180 176 177 1
181 176 179 1
182 176 185 1
183 177 178 2
184 177 192 1
185 179 180 1
186 180 181 1
187 181 182 1
188 181 183 2
189 179 186 1
190 179 187 1
191 180 188 1
192 180 189 1
193 182 190 1
194 182 191 1
195 192 193 1
196 192 203 1
197 193 194 1
198 193 196 1
199 193 204 1
200 194 195 2
201 194 216 1
202 196 197 1
203 197 198 1
204 198 199 1
205 199 200 1
206 200 201 2
207 200 202 1
208 196 205 1
209 196 206 1
210 197 207 1
211 197 208 1
212 198 209 1
213 198 210 1
214 199 211 1
215 201 212 1
216 201 213 1
217 202 214 1
218 202 215 1
219 216 217 1
220 216 223 1
221 217 218 1
222 217 220 1
223 217 224 1
224 218 219 2
225 218 232 1
226 220 221 1
227 220 222 1
228 220 225 1
229 221 226 1
230 221 227 1
231 221 228 1
232 222 229 1
233 222 230 1
234 222 231 1
235 232 233 1
236 232 240 1
237 233 234 1
238 233 236 1
239 233 241 1
240 234 235 2
241 234 249 1
242 236 237 1
243 237 238 1
244 238 239 1
245 236 242 1
246 236 243 1
247 237 244 1
248 237 245 1
249 239 246 1
250 239 247 1
251 239 248 1
252 249 250 1
253 249 260 1
254 250 251 1
255 250 253 1
256 250 261 1
257 251 252 2
258 253 254 1
259 254 255 1
260 255 256 1
261 256 257 1
262 257 258 2
263 257 259 1
264 253 262 1
265 253 263 1
266 254 264 1
267 254 265 1
268 255 266 1
269 255 267 1
270 256 268 1
271 258 269 1
272 258 270 1
273 259 271 1
274 259 272 1
@<TRIPOS>SUBSTRUCTURE
1	GLU1	1	RESIDUE	1 ****	GLU
2	ASN2	16	RESIDUE	1 ****	ASN
3	PRO3	30	RESIDUE	1 ****	PRO
4	GLU4	44	RESIDUE	1 ****	GLU
5	SER5	59	RESIDUE	1 ****	SER
6	ILE6	70	RESIDUE	1 ****	ILE
7	LEU7	89	RESIDUE	1 ****	LEU
8	ASP8	108	RESIDUE	1 ****	ASP
9	GLU9	120	RESIDUE	1 ****	GLU
10	TRP10	135	RESIDUE	1 ****	TRP
11	VAL11	159	RESIDUE	1 ****	VAL
12	GLN12	175	RESIDUE	1 ****	GLN
13	ARG13	192	RESIDUE	1 ****	ARG
14	VAL14	216	RESIDUE	1 ****	VAL
15	MET15	232	RESIDUE	1 ****	MET
16	ARG16	249	RESIDUE	1 ****	ARG
