REMARK WARNING: 32 MAX_TORS EXCEEDED!!!
REMARK  67 active torsions:
REMARK  status: ('A' for Active; 'I' for Inactive)
REMARK    1  A    between atoms: N_1  and  CA_2 
REMARK    2  A    between atoms: CA_2  and  C_3 
REMARK    3  A    between atoms: CA_2  and  CB_5 
REMARK       I    between atoms: C_3  and  N_11 
REMARK    4  A    between atoms: CB_5  and  CG_6 
REMARK    5  A    between atoms: CG_6  and  CD_7 
REMARK    6  A    between atoms: N_11  and  CA_12 
REMARK    7  A    between atoms: CA_12  and  C_13 
REMARK    8  A    between atoms: CA_12  and  CB_15 
REMARK       I    between atoms: C_13  and  N_22 
REMARK    9  A    between atoms: CB_15  and  CG_16 
REMARK       I    between atoms: CG_16  and  ND2_17 
REMARK   10  A    between atoms: CA_23  and  C_24 
REMARK       I    between atoms: C_24  and  N_29 
REMARK   11  A    between atoms: N_29  and  CA_30 
REMARK   12  A    between atoms: CA_30  and  C_31 
REMARK   13  A    between atoms: CA_30  and  CB_33 
REMARK       I    between atoms: C_31  and  N_39 
REMARK   14  A    between atoms: CB_33  and  CG_34 
REMARK   15  A    between atoms: CG_34  and  CD_35 
REMARK   16  A    between atoms: N_39  and  CA_40 
REMARK   17  A    between atoms: CA_40  and  C_41 
REMARK   18  A    between atoms: CA_40  and  CB_43 
REMARK       I    between atoms: C_41  and  N_47 
REMARK   19  A    between atoms: CB_43  and  OG_44 
REMARK   20  A    between atoms: N_47  and  CA_48 
REMARK   21  A    between atoms: CA_48  and  C_49 
REMARK   22  A    between atoms: CA_48  and  CB_51 
REMARK       I    between atoms: C_49  and  N_56 
REMARK   23  A    between atoms: CB_51  and  CG1_52 
REMARK   24  A    between atoms: N_56  and  CA_57 
REMARK   25  A    between atoms: CA_57  and  C_58 
REMARK   26  A    between atoms: CA_57  and  CB_60 
REMARK       I    between atoms: C_58  and  N_65 
REMARK   27  A    between atoms: CB_60  and  CG_61 
REMARK   28  A    between atoms: N_65  and  CA_66 
REMARK   29  A    between atoms: CA_66  and  C_67 
REMARK   30  A    between atoms: CA_66  and  CB_69 
REMARK       I    between atoms: C_67  and  N_74 
REMARK   31  A    between atoms: CB_69  and  CG_70 
REMARK   32  A    between atoms: N_74  and  CA_75 
REMARK   33  A    between atoms: CA_75  and  C_76 
REMARK   34  A    between atoms: CA_75  and  CB_78 
REMARK       I    between atoms: C_76  and  N_82 
REMARK   35  A    between atoms: CB_78  and  OG_79 
REMARK   36  A    between atoms: N_82  and  CA_83 
REMARK   37  A    between atoms: CA_83  and  C_84 
REMARK   38  A    between atoms: CA_83  and  CB_86 
REMARK       I    between atoms: C_84  and  N_94 
REMARK   39  A    between atoms: CB_86  and  CG_87 
REMARK   40  A    between atoms: N_94  and  CA_95 
REMARK   41  A    between atoms: CA_95  and  C_96 
REMARK   42  A    between atoms: CA_95  and  CB_98 
REMARK       I    between atoms: C_96  and  N_102 
REMARK   43  A    between atoms: N_102  and  CA_103 
REMARK   44  A    between atoms: CA_103  and  C_104 
REMARK   45  A    between atoms: CA_103  and  CB_106 
REMARK       I    between atoms: C_104  and  N_114 
REMARK   46  A    between atoms: CB_106  and  CG_107 
REMARK   47  A    between atoms: CG_107  and  CD_108 
REMARK       I    between atoms: CD_108  and  NE2_109 
REMARK   48  A    between atoms: N_114  and  CA_115 
REMARK   49  A    between atoms: CA_115  and  C_116 
REMARK   50  A    between atoms: CA_115  and  CB_118 
REMARK       I    between atoms: C_116  and  N_131 
REMARK   51  A    between atoms: CB_118  and  CG_119 
REMARK   52  A    between atoms: CG_119  and  CD_120 
REMARK   53  A    between atoms: CD_120  and  NE_121 
REMARK       I    between atoms: NE_121  and  CZ_122 
REMARK       I    between atoms: CZ_122  and  NH1_123 
REMARK       I    between atoms: CZ_122  and  NH2_124 
REMARK   54  A    between atoms: N_131  and  CA_132 
REMARK   55  A    between atoms: CA_132  and  C_133 
REMARK   56  A    between atoms: CA_132  and  CB_135 
REMARK       I    between atoms: C_133  and  N_139 
REMARK   57  A    between atoms: N_139  and  CA_140 
REMARK   58  A    between atoms: CA_140  and  C_141 
REMARK   59  A    between atoms: CA_140  and  CB_143 
REMARK       I    between atoms: C_141  and  N_148 
REMARK   60  A    between atoms: CB_143  and  CG_144 
REMARK   61  A    between atoms: CG_144  and  SD_145 
REMARK   62  A    between atoms: N_148  and  CA_149 
REMARK   63  A    between atoms: CA_149  and  C_150 
REMARK   64  A    between atoms: CA_149  and  CB_152 
REMARK   65  A    between atoms: CB_152  and  CG_153 
REMARK   66  A    between atoms: CG_153  and  CD_154 
REMARK   67  A    between atoms: CD_154  and  NE_155 
REMARK       I    between atoms: NE_155  and  CZ_156 
REMARK       I    between atoms: CZ_156  and  NH1_157 
ROOT
ATOM      1  C   SER d   9    1461.698 432.736-1474.533  0.00  0.00     0.243 C 
ATOM      2  O   SER d   9    1462.357 433.486-1475.253  0.00  0.00    -0.271 OA
ATOM      3  N   HIS d  10    1461.796 431.460-1474.703  0.00  0.00    -0.346 N 
ATOM      4  H   HIS d  10    1461.266 430.825-1474.124  0.00  0.00     0.163 HD
ENDROOT
BRANCH   3   5
ATOM      5  CA  HIS d  10    1462.683 430.950-1475.744  0.00  0.00     0.182 C 
BRANCH   5   6
ATOM      6  C   HIS d  10    1462.315 431.514-1477.095  0.00  0.00     0.241 C 
ATOM      7  O   HIS d  10    1463.166 431.980-1477.867  0.00  0.00    -0.271 OA
ATOM      8  N   VAL d  11    1461.076 431.513-1477.457  0.00  0.00    -0.346 N 
ATOM      9  H   VAL d  11    1460.364 431.139-1476.845  0.00  0.00     0.163 HD
BRANCH   8  10
ATOM     10  CA  VAL d  11    1460.720 432.059-1478.763  0.00  0.00     0.180 C 
BRANCH  10  11
ATOM     11  C   VAL d  11    1461.183 433.490-1478.896  0.00  0.00     0.241 C 
ATOM     12  O   VAL d  11    1461.783 433.895-1479.899  0.00  0.00    -0.271 OA
ATOM     13  N   GLN d  12    1460.946 434.315-1477.933  0.00  0.00    -0.346 N 
ATOM     14  H   GLN d  12    1460.458 434.009-1477.104  0.00  0.00     0.163 HD
BRANCH  13  15
ATOM     15  CA  GLN d  12    1461.393 435.699-1478.060  0.00  0.00     0.177 C 
BRANCH  15  16
ATOM     16  C   GLN d  12    1462.883 435.767-1478.299  0.00  0.00     0.241 C 
ATOM     17  O   GLN d  12    1463.369 436.476-1479.178  0.00  0.00    -0.271 OA
ATOM     18  N   ARG d  13    1463.669 435.061-1477.559  0.00  0.00    -0.346 N 
ATOM     19  H   ARG d  13    1463.294 434.471-1476.830  0.00  0.00     0.163 HD
BRANCH  18  20
ATOM     20  CA  ARG d  13    1465.109 435.128-1477.791  0.00  0.00     0.176 C 
BRANCH  20  21
ATOM     21  C   ARG d  13    1465.444 434.757-1479.216  0.00  0.00     0.241 C 
ATOM     22  O   ARG d  13    1466.212 435.429-1479.901  0.00  0.00    -0.271 OA
ATOM     23  N   VAL d  14    1464.909 433.702-1479.730  0.00  0.00    -0.346 N 
ATOM     24  H   VAL d  14    1464.275 433.133-1479.188  0.00  0.00     0.163 HD
BRANCH  23  25
ATOM     25  CA  VAL d  14    1465.233 433.343-1481.108  0.00  0.00     0.180 C 
BRANCH  25  26
ATOM     26  C   VAL d  14    1464.902 434.473-1482.053  0.00  0.00     0.241 C 
ATOM     27  O   VAL d  14    1465.694 434.855-1482.923  0.00  0.00    -0.271 OA
ATOM     28  N   MET d  15    1463.757 435.058-1481.951  0.00  0.00    -0.346 N 
ATOM     29  H   MET d  15    1463.092 434.764-1481.249  0.00  0.00     0.163 HD
BRANCH  28  30
ATOM     30  CA  MET d  15    1463.435 436.151-1482.864  0.00  0.00     0.177 C 
BRANCH  30  31
ATOM     31  C   MET d  15    1464.464 437.251-1482.776  0.00  0.00     0.241 C 
ATOM     32  O   MET d  15    1464.966 437.763-1483.789  0.00  0.00    -0.271 OA
ATOM     33  N   ARG d  16    1464.833 437.672-1481.614  0.00  0.00    -0.347 N 
ATOM     34  H   ARG d  16    1464.439 437.272-1480.775  0.00  0.00     0.163 HD
BRANCH  33  35
ATOM     35  CA  ARG d  16    1465.829 438.737-1481.531  0.00  0.00     0.162 C 
BRANCH  35  36
ATOM     36  C   ARG d  16    1467.099 438.346-1482.248  0.00  0.00     0.219 C 
ATOM     37  O   ARG d  16    1467.214 437.270-1482.830  0.00  0.00    -0.287 OA
ENDBRANCH  35  36
BRANCH  35  38
ATOM     38  CB  ARG d  16    1466.098 439.055-1480.032  0.00  0.00     0.035 C 
BRANCH  38  39
ATOM     39  CG  ARG d  16    1466.922 440.345-1479.760  0.00  0.00     0.023 C 
BRANCH  39  40
ATOM     40  CD  ARG d  16    1467.173 440.564-1478.259  0.00  0.00     0.138 C 
BRANCH  40  41
ATOM     41  NE  ARG d  16    1467.948 441.823-1478.058  0.00  0.00    -0.227 N 
ATOM     42  CZ  ARG d  16    1468.339 442.306-1476.882  0.00  0.00     0.665 C 
ATOM     43  NH1 ARG d  16    1468.093 441.721-1475.744  0.00  0.00    -0.235 N 
ATOM     44  NH2 ARG d  16    1469.002 443.419-1476.864  0.00  0.00    -0.235 N 
ATOM     45 11HH ARG d  16    1467.568 440.847-1475.828  0.00  0.00     0.174 HD
ATOM     46 12HH ARG d  16    1468.427 442.156-1474.883  0.00  0.00     0.174 HD
ATOM     47 21HH ARG d  16    1469.187 443.862-1477.765  0.00  0.00     0.174 HD
ATOM     48 22HH ARG d  16    1469.292 443.774-1475.951  0.00  0.00     0.174 HD
ATOM     49  HE  ARG d  16    1468.225 442.405-1478.855  0.00  0.00     0.177 HD
ENDBRANCH  40  41
ENDBRANCH  39  40
ENDBRANCH  38  39
ENDBRANCH  35  38
ENDBRANCH  33  35
ENDBRANCH  30  31
BRANCH  30  50
ATOM     50  CB  MET d  15    1462.013 436.695-1482.554  0.00  0.00     0.045 C 
BRANCH  50  51
ATOM     51  CG  MET d  15    1460.852 435.696-1482.745  0.00  0.00     0.076 C 
BRANCH  51  52
ATOM     52  SD  MET d  15    1459.277 436.560-1482.630  0.00  0.00    -0.173 SA
ATOM     53  CE  MET d  15    1458.198 435.129-1482.493  0.00  0.00     0.089 C 
ENDBRANCH  51  52
ENDBRANCH  50  51
ENDBRANCH  30  50
ENDBRANCH  28  30
ENDBRANCH  25  26
BRANCH  25  54
ATOM     54  CB  VAL d  14    1464.462 432.025-1481.515  0.00  0.00     0.009 C 
ATOM     55  CG1 VAL d  14    1464.551 431.608-1483.008  0.00  0.00     0.012 C 
ATOM     56  CG2 VAL d  14    1464.895 430.774-1480.715  0.00  0.00     0.012 C 
ENDBRANCH  25  54
ENDBRANCH  23  25
ENDBRANCH  20  21
BRANCH  20  57
ATOM     57  CB  ARG d  13    1465.824 434.189-1476.777  0.00  0.00     0.036 C 
BRANCH  57  58
ATOM     58  CG  ARG d  13    1467.369 434.344-1476.698  0.00  0.00     0.023 C 
BRANCH  58  59
ATOM     59  CD  ARG d  13    1467.997 433.356-1475.700  0.00  0.00     0.138 C 
BRANCH  59  60
ATOM     60  NE  ARG d  13    1469.474 433.565-1475.651  0.00  0.00    -0.227 N 
ATOM     61  CZ  ARG d  13    1470.323 432.874-1474.896  0.00  0.00     0.665 C 
ATOM     62  NH1 ARG d  13    1469.959 431.909-1474.099  0.00  0.00    -0.235 N 
ATOM     63  NH2 ARG d  13    1471.582 433.174-1474.954  0.00  0.00    -0.235 N 
ATOM     64 11HH ARG d  13    1468.954 431.722-1474.101  0.00  0.00     0.174 HD
ATOM     65 12HH ARG d  13    1470.673 431.426-1473.551  0.00  0.00     0.174 HD
ATOM     66 21HH ARG d  13    1471.849 433.932-1475.585  0.00  0.00     0.174 HD
ATOM     67 22HH ARG d  13    1472.218 432.633-1474.366  0.00  0.00     0.174 HD
ATOM     68  HE  ARG d  13    1469.924 434.287-1476.222  0.00  0.00     0.177 HD
ENDBRANCH  59  60
ENDBRANCH  58  59
ENDBRANCH  57  58
ENDBRANCH  20  57
ENDBRANCH  18  20
ENDBRANCH  15  16
BRANCH  15  69
ATOM     69  CB  GLN d  12    1461.003 436.466-1476.777  0.00  0.00     0.044 C 
BRANCH  69  70
ATOM     70  CG  GLN d  12    1461.362 437.988-1476.746  0.00  0.00     0.105 C 
BRANCH  70  71
ATOM     71  CD  GLN d  12    1461.060 438.801-1475.481  0.00  0.00     0.215 C 
ATOM     72  NE2 GLN d  12    1460.494 438.224-1474.452  0.00  0.00    -0.370 N 
ATOM     73 21HE GLN d  12    1460.387 438.818-1473.628  0.00  0.00     0.159 HD
ATOM     74 22HE GLN d  12    1460.331 437.220-1474.555  0.00  0.00     0.159 HD
ATOM     75  OE1 GLN d  12    1461.361 439.982-1475.403  0.00  0.00    -0.274 OA
ENDBRANCH  70  71
ENDBRANCH  69  70
ENDBRANCH  15  69
ENDBRANCH  13  15
ENDBRANCH  10  11
BRANCH  10  76
ATOM     76  CB  VAL d  11    1459.159 431.951-1478.981  0.00  0.00     0.009 C 
ATOM     77  CG1 VAL d  11    1458.588 432.655-1480.244  0.00  0.00     0.012 C 
ATOM     78  CG2 VAL d  11    1458.635 430.497-1479.054  0.00  0.00     0.012 C 
ENDBRANCH  10  76
ENDBRANCH   8  10
ENDBRANCH   5   6
BRANCH   5  79
ATOM     79  CB  HIS d  10    1462.520 429.421-1475.739  0.00  0.00     0.095 C 
BRANCH  79  80
ATOM     80  CG  HIS d  10    1463.806 428.711-1475.432  0.00  0.00     0.053 A 
ATOM     81  CD2 HIS d  10    1464.189 428.376-1474.140  0.00  0.00     0.116 A 
ATOM     82  NE2 HIS d  10    1465.404 427.746-1474.208  0.00  0.00    -0.359 N 
ATOM     83  CE1 HIS d  10    1465.666 427.749-1475.543  0.00  0.00     0.207 A 
ATOM     84  2HE HIS d  10    1465.972 427.369-1473.435  0.00  0.00     0.166 HD
ATOM     85  ND1 HIS d  10    1464.758 428.306-1476.365  0.00  0.00    -0.247 NA
ENDBRANCH  79  80
ENDBRANCH   5  79
ENDBRANCH   3   5
BRANCH   1  86
ATOM     86  CA  SER d   9    1460.780 433.264-1473.455  0.00  0.00     0.200 C 
BRANCH  86  87
ATOM     87  N   SER d   9    1459.478 432.606-1473.510  0.00  0.00    -0.344 N 
ATOM     88  C   ASP d   8    1458.798 432.656-1474.605  0.00  0.00     0.241 C 
ATOM     89  O   ASP d   8    1459.271 433.261-1475.579  0.00  0.00    -0.271 OA
ATOM     90  H   SER d   9    1459.115 432.119-1472.703  0.00  0.00     0.163 HD
BRANCH  88  91
ATOM     91  CA  ASP d   8    1457.452 431.976-1474.662  0.00  0.00     0.186 C 
BRANCH  91  92
ATOM     92  N   ASP d   8    1457.522 430.626-1474.109  0.00  0.00    -0.346 N 
ATOM     93  C   LEU d   7    1458.359 429.786-1474.616  0.00  0.00     0.241 C 
ATOM     94  O   LEU d   7    1459.080 430.149-1475.558  0.00  0.00    -0.271 OA
ATOM     95  H   ASP d   8    1456.924 430.355-1473.342  0.00  0.00     0.163 HD
BRANCH  93  96
ATOM     96  CA  LEU d   7    1458.432 428.390-1474.044  0.00  0.00     0.177 C 
BRANCH  96  97
ATOM     97  N   LEU d   7    1458.487 428.426-1472.585  0.00  0.00    -0.346 N 
ATOM     98  C   ILE d   6    1459.433 429.090-1472.012  0.00  0.00     0.241 C 
ATOM     99  O   ILE d   6    1460.268 429.678-1472.716  0.00  0.00    -0.271 OA
ATOM    100  H   LEU d   7    1457.795 427.939-1472.034  0.00  0.00     0.163 HD
BRANCH  98 101
ATOM    101  CA  ILE d   6    1459.490 429.127-1470.504  0.00  0.00     0.180 C 
BRANCH 101 102
ATOM    102  N   ILE d   6    1458.177 429.422-1469.938  0.00  0.00    -0.346 N 
ATOM    103  C   SER d   5    1457.572 430.505-1470.292  0.00  0.00     0.243 C 
ATOM    104  O   SER d   5    1458.119 431.258-1471.096  0.00  0.00    -0.271 OA
ATOM    105  H   ILE d   6    1457.749 428.787-1469.279  0.00  0.00     0.163 HD
BRANCH 103 106
ATOM    106  CA  SER d   5    1456.214 430.810-1469.706  0.00  0.00     0.200 C 
BRANCH 106 107
ATOM    107  N   SER d   5    1455.344 429.639-1469.764  0.00  0.00    -0.344 N 
ATOM    108  C   GLU d   4    1455.117 429.086-1470.907  0.00  0.00     0.241 C 
ATOM    109  O   GLU d   4    1455.643 429.566-1471.922  0.00  0.00    -0.271 OA
ATOM    110  H   SER d   5    1454.927 429.267-1468.923  0.00  0.00     0.163 HD
BRANCH 108 111
ATOM    111  CA  GLU d   4    1454.218 427.875-1470.968  0.00  0.00     0.177 C 
BRANCH 111 112
ATOM    112  N   GLU d   4    1454.578 426.904-1469.939  0.00  0.00    -0.346 N 
ATOM    113  C   PRO d   3    1455.782 426.444-1469.907  0.00  0.00     0.241 C 
ATOM    114  O   PRO d   3    1456.605 426.827-1470.738  0.00  0.00    -0.271 OA
ATOM    115  H   GLU d   4    1453.893 426.597-1469.262  0.00  0.00     0.163 HD
BRANCH 113 116
ATOM    116  CA  PRO d   3    1456.180 425.420-1468.830  0.00  0.00     0.179 C 
ATOM    117  N   PRO d   3    1455.729 425.830-1467.508  0.00  0.00    -0.337 N 
ATOM    118  C   ASN d   2    1456.250 426.825-1466.874  0.00  0.00     0.243 C 
ATOM    119  CD  PRO d   3    1454.651 425.036-1466.959  0.00  0.00     0.127 C 
ATOM    120  O   ASN d   2    1457.165 427.455-1467.403  0.00  0.00    -0.271 OA
ATOM    121  CG  PRO d   3    1454.193 424.218-1468.169  0.00  0.00     0.022 C 
ATOM    122  CB  PRO d   3    1455.476 424.066-1468.999  0.00  0.00     0.037 C 
BRANCH 118 123
ATOM    123  CA  ASN d   2    1455.719 427.180-1465.505  0.00  0.00     0.185 C 
BRANCH 123 124
ATOM    124  N   ASN d   2    1454.260 427.219-1465.505  0.00  0.00    -0.346 N 
ATOM    125  C   GLU d   1    1453.655 428.005-1466.331  0.00  0.00     0.242 C 
ATOM    126  O   GLU d   1    1454.331 428.704-1467.099  0.00  0.00    -0.271 OA
ATOM    127  H   ASN d   2    1453.732 426.639-1464.869  0.00  0.00     0.163 HD
BRANCH 125 128
ATOM    128  CA  GLU d   1    1452.146 428.045-1466.331  0.00  0.00     0.191 C 
BRANCH 128 129
ATOM    129  N   GLU d   1    1451.587 426.696-1466.331  0.00  0.00    -0.326 NA
ATOM    130  H   GLU d   1    1452.214 425.817-1466.331  0.00  0.00     0.180 HD
ENDBRANCH 128 129
BRANCH 128 131
ATOM    131  CB  GLU d   1    1451.623 428.830-1465.094  0.00  0.00     0.047 C 
BRANCH 131 132
ATOM    132  CG  GLU d   1    1452.098 430.315-1464.983  0.00  0.00     0.116 C 
BRANCH 132 133
ATOM    133  CD  GLU d   1    1451.674 431.119-1463.767  0.00  0.00     0.172 C 
ATOM    134  OE1 GLU d   1    1450.946 430.617-1462.890  0.00  0.00    -0.648 OA
ATOM    135  OE2 GLU d   1    1452.104 432.289-1463.696  0.00  0.00    -0.648 OA
ENDBRANCH 132 133
ENDBRANCH 131 132
ENDBRANCH 128 131
ENDBRANCH 125 128
ENDBRANCH 123 124
BRANCH 123 136
ATOM    136  CB  ASN d   2    1456.211 426.157-1464.441  0.00  0.00     0.137 C 
BRANCH 136 137
ATOM    137  CG  ASN d   2    1455.748 426.381-1462.998  0.00  0.00     0.217 C 
ATOM    138  ND2 ASN d   2    1456.342 427.296-1462.280  0.00  0.00    -0.370 N 
ATOM    139 21HD ASN d   2    1455.862 427.469-1461.393  0.00  0.00     0.159 HD
ATOM    140 22HD ASN d   2    1457.044 427.868-1462.749  0.00  0.00     0.159 HD
ATOM    141  OD1 ASN d   2    1454.827 425.747-1462.504  0.00  0.00    -0.274 OA
ENDBRANCH 136 137
ENDBRANCH 123 136
ENDBRANCH 118 123
ENDBRANCH 113 116
ENDBRANCH 111 112
BRANCH 111 142
ATOM    142  CB  GLU d   4    1452.729 428.294-1470.798  0.00  0.00     0.045 C 
BRANCH 142 143
ATOM    143  CG  GLU d   4    1452.181 429.297-1471.863  0.00  0.00     0.116 C 
BRANCH 143 144
ATOM    144  CD  GLU d   4    1450.754 429.794-1471.719  0.00  0.00     0.172 C 
ATOM    145  OE1 GLU d   4    1450.028 429.395-1470.789  0.00  0.00    -0.648 OA
ATOM    146  OE2 GLU d   4    1450.365 430.623-1472.568  0.00  0.00    -0.648 OA
ENDBRANCH 143 144
ENDBRANCH 142 143
ENDBRANCH 111 142
ENDBRANCH 108 111
ENDBRANCH 106 107
BRANCH 106 147
ATOM    147  CB  SER d   5    1456.325 431.342-1468.255  0.00  0.00     0.199 C 
BRANCH 147 148
ATOM    148  OG  SER d   5    1457.057 430.463-1467.394  0.00  0.00    -0.398 OA
ATOM    149  HG  SER d   5    1456.568 429.638-1467.344  0.00  0.00     0.209 HD
ENDBRANCH 147 148
ENDBRANCH 106 147
ENDBRANCH 103 106
ENDBRANCH 101 102
BRANCH 101 150
ATOM    150  CB  ILE d   6    1460.090 427.791-1469.904  0.00  0.00     0.013 C 
ATOM    151  CG2 ILE d   6    1461.531 427.489-1470.420  0.00  0.00     0.012 C 
BRANCH 150 152
ATOM    152  CG1 ILE d   6    1460.110 427.729-1468.343  0.00  0.00     0.002 C 
ATOM    153  CD1 ILE d   6    1460.380 426.339-1467.728  0.00  0.00     0.005 C 
ENDBRANCH 150 152
ENDBRANCH 101 150
ENDBRANCH  98 101
ENDBRANCH  96  97
BRANCH  96 154
ATOM    154  CB  LEU d   7    1457.229 427.530-1474.524  0.00  0.00     0.038 C 
BRANCH 154 155
ATOM    155  CG  LEU d   7    1457.156 426.051-1474.058  0.00  0.00    -0.020 C 
ATOM    156  CD1 LEU d   7    1455.966 425.345-1474.724  0.00  0.00     0.009 C 
ATOM    157  CD2 LEU d   7    1458.450 425.272-1474.350  0.00  0.00     0.009 C 
ENDBRANCH 154 155
ENDBRANCH  96 154
ENDBRANCH  93  96
ENDBRANCH  91  92
BRANCH  91 158
ATOM    158  CB  ASP d   8    1456.374 432.815-1473.920  0.00  0.00     0.147 C 
BRANCH 158 159
ATOM    159  CG  ASP d   8    1456.155 434.236-1474.461  0.00  0.00     0.175 C 
ATOM    160  OD1 ASP d   8    1456.219 434.435-1475.691  0.00  0.00    -0.648 OA
ATOM    161  OD2 ASP d   8    1455.962 435.161-1473.645  0.00  0.00    -0.648 OA
ENDBRANCH 158 159
ENDBRANCH  91 158
ENDBRANCH  88  91
ENDBRANCH  86  87
BRANCH  86 162
ATOM    162  CB  SER d   9    1461.412 433.121-1472.048  0.00  0.00     0.199 C 
BRANCH 162 163
ATOM    163  OG  SER d   9    1461.814 431.779-1471.752  0.00  0.00    -0.398 OA
ATOM    164  HG  SER d   9    1461.022 431.236-1471.750  0.00  0.00     0.209 HD
ENDBRANCH 162 163
ENDBRANCH  86 162
ENDBRANCH   1  86
TORSDOF 67
