@<TRIPOS>MOLECULE
7-4
262 263 16              
SMALL
USER_CHARGES
@<TRIPOS>ATOM
1	   N	1049.593	294.075	-1031.415	N.3	1	GLU1	-0.516	
2	  CA	1050.151	295.424	-1031.415	C.3	1	GLU1	0.040	
3	   C	1051.661	295.384	-1031.415	C.2	1	GLU1	0.537	
4	   O	1052.336	296.083	-1032.183	O.2	1	GLU1	-0.582	
5	  CB	1049.629	296.209	-1030.178	C.3	1	GLU1	0.056	
6	  CG	1050.104	297.694	-1030.067	C.3	1	GLU1	0.014	
7	  CD	1049.680	298.498	-1028.852	C.2	1	GLU1	0.805	
8	 OE1	1048.952	297.996	-1027.974	O.co2	1	GLU1	-0.819	
9	 OE2	1050.109	299.668	-1028.780	O.co2	1	GLU1	-0.819	
10	   H	1050.219	293.196	-1031.415	 H	1	GLU1	0.294	
11	  HA	1049.826	295.942	-1032.335	 H	1	GLU1	0.111	
12	 2HB	1049.917	295.678	-1029.248	 H	1	GLU1	-0.017	
13	 3HB	1048.521	296.199	-1030.165	 H	1	GLU1	-0.017	
14	 2HG	1049.794	298.279	-1030.948	 H	1	GLU1	-0.043	
15	 3HG	1051.203	297.761	-1030.038	 H	1	GLU1	-0.043	
16	   N	1052.265	294.598	-1030.590	N.am	2	ASN2	-0.416	
17	  CA	1053.724	294.559	-1030.590	C.3	2	ASN2	0.014	
18	   C	1054.256	294.204	-1031.958	C.2	2	ASN2	0.597	
19	   O	1055.170	294.834	-1032.487	O.2	2	ASN2	-0.568	
20	  CB	1054.216	293.536	-1029.525	C.3	2	ASN2	-0.204	
21	  CG	1053.754	293.760	-1028.082	C.2	2	ASN2	0.713	
22	 ND2	1054.348	294.675	-1027.364	N.pl3	2	ASN2	-0.919	
23	 OD1	1052.833	293.126	-1027.588	O.2	2	ASN2	-0.593	
24	   H	1051.737	294.018	-1029.953	 H	2	ASN2	0.272	
25	  HA	1054.102	295.569	-1030.344	 H	2	ASN2	0.105	
26	 2HB	1055.321	293.477	-1029.529	 H	2	ASN2	0.080	
27	 3HB	1053.888	292.518	-1029.811	 H	2	ASN2	0.080	
28	1HD2	1053.867	294.848	-1026.477	 H	2	ASN2	0.420	
29	2HD2	1055.049	295.247	-1027.833	 H	2	ASN2	0.420	
30	   N	1053.734	293.209	-1032.593	N.am	3	PRO3	-0.255	
31	  CA	1054.186	292.799	-1033.914	C.3	3	PRO3	-0.027	
32	   C	1053.788	293.823	-1034.991	C.2	3	PRO3	0.590	
33	   O	1054.611	294.206	-1035.823	O.2	3	PRO3	-0.575	
34	  CB	1053.482	291.445	-1034.083	C.3	3	PRO3	-0.007	
35	  CG	1052.198	291.597	-1033.253	C.3	3	PRO3	0.019	
36	  CD	1052.656	292.415	-1032.043	C.3	3	PRO3	0.019	
37	  HA	1055.272	292.680	-1033.928	 H	3	PRO3	0.064	
38	 2HB	1054.105	290.663	-1033.643	 H	3	PRO3	0.025	
39	 3HB	1053.284	291.196	-1035.129	 H	3	PRO3	0.025	
40	 2HG	1051.771	290.635	-1032.962	 H	3	PRO3	0.021	
41	 3HG	1051.461	292.168	-1033.820	 H	3	PRO3	0.021	
42	 2HD	1053.046	291.766	-1031.256	 H	3	PRO3	0.039	
43	 3HD	1051.860	293.051	-1031.650	 H	3	PRO3	0.039	
44	   N	1052.583	294.283	-1035.023	N.am	4	GLU4	-0.516	
45	  CA	1052.223	295.254	-1036.053	C.3	4	GLU4	0.040	
46	   C	1053.122	296.465	-1035.992	C.2	4	GLU4	0.537	
47	   O	1053.648	296.945	-1037.006	O.2	4	GLU4	-0.582	
48	  CB	1050.734	295.673	-1035.882	C.3	4	GLU4	0.056	
49	  CG	1050.186	296.676	-1036.948	C.3	4	GLU4	0.014	
50	  CD	1048.760	297.173	-1036.804	C.2	4	GLU4	0.805	
51	 OE1	1048.034	296.774	-1035.873	O.co2	4	GLU4	-0.819	
52	 OE2	1048.370	298.002	-1037.652	O.co2	4	GLU4	-0.819	
53	   H	1051.899	293.976	-1034.346	 H	4	GLU4	0.294	
54	  HA	1052.354	294.783	-1037.044	 H	4	GLU4	0.111	
55	 2HB	1050.582	296.112	-1034.875	 H	4	GLU4	-0.017	
56	 3HB	1050.087	294.775	-1035.888	 H	4	GLU4	-0.017	
57	 2HG	1050.268	296.261	-1037.965	 H	4	GLU4	-0.043	
58	 3HG	1050.774	297.609	-1036.959	 H	4	GLU4	-0.043	
59	   N	1053.349	297.018	-1034.849	N.am	5	SER5	-0.416	
60	  CA	1054.219	298.189	-1034.790	C.3	5	SER5	-0.025	
61	   C	1055.578	297.884	-1035.376	C.2	5	SER5	0.597	
62	   O	1056.125	298.637	-1036.181	O.2	5	SER5	-0.568	
63	  CB	1054.331	298.721	-1033.339	C.3	5	SER5	0.212	
64	  OG	1055.062	297.842	-1032.479	O.3	5	SER5	-0.655	
65	   H	1052.933	296.646	-1034.007	 H	5	SER5	0.272	
66	  HA	1053.769	298.979	-1035.419	 H	5	SER5	0.084	
67	 2HB	1053.331	298.915	-1032.906	 H	5	SER5	0.035	
68	 3HB	1054.836	299.707	-1033.342	 H	5	SER5	0.035	
69	  HG	1054.574	297.017	-1032.428	 H	5	SER5	0.428	
70	   N	1056.182	296.801	-1035.022	N.am	6	ILE6	-0.416	
71	  CA	1057.496	296.506	-1035.588	C.3	6	ILE6	-0.060	
72	   C	1057.438	296.469	-1037.096	C.2	6	ILE6	0.597	
73	   O	1058.273	297.057	-1037.800	O.2	6	ILE6	-0.568	
74	  CB	1058.095	295.170	-1034.989	C.3	6	ILE6	0.130	
75	 CG1	1058.115	295.108	-1033.427	C.3	6	ILE6	-0.043	
76	 CG2	1059.537	294.868	-1035.504	C.3	6	ILE6	-0.320	
77	 CD1	1058.385	293.718	-1032.813	C.3	6	ILE6	-0.066	
78	   H	1055.754	296.166	-1034.363	 H	6	ILE6	0.272	
79	  HA	1058.170	297.340	-1035.320	 H	6	ILE6	0.087	
80	  HB	1057.438	294.344	-1035.333	 H	6	ILE6	0.019	
81	2HG1	1057.133	295.427	-1033.032	 H	6	ILE6	0.024	
82	3HG1	1058.831	295.849	-1033.023	 H	6	ILE6	0.024	
83	1HG2	1059.595	294.775	-1036.602	 H	6	ILE6	0.088	
84	2HG2	1060.259	295.651	-1035.202	 H	6	ILE6	0.088	
85	3HG2	1059.927	293.906	-1035.125	 H	6	ILE6	0.088	
86	1HD1	1057.657	292.964	-1033.167	 H	6	ILE6	0.019	
87	2HD1	1059.396	293.340	-1033.049	 H	6	ILE6	0.019	
88	3HD1	1058.309	293.748	-1031.710	 H	6	ILE6	0.019	
89	   N	1056.492	295.805	-1037.670	N.am	7	VAL7	-0.416	
90	  CA	1056.437	295.769	-1039.128	C.3	7	VAL7	-0.087	
91	   C	1056.364	297.164	-1039.701	C.2	7	VAL7	0.597	
92	   O	1057.082	297.526	-1040.642	O.2	7	VAL7	-0.568	
93	  CB	1055.200	294.904	-1039.597	C.3	7	VAL7	0.299	
94	 CG1	1054.887	294.915	-1041.118	C.3	7	VAL7	-0.319	
95	 CG2	1055.300	293.408	-1039.212	C.3	7	VAL7	-0.319	
96	   H	1055.801	295.318	-1037.118	 H	7	VAL7	0.272	
97	  HA	1057.368	295.311	-1039.509	 H	7	VAL7	0.097	
98	  HB	1054.302	295.314	-1039.087	 H	7	VAL7	-0.030	
99	1HG1	1055.732	294.542	-1041.727	 H	7	VAL7	0.079	
100	2HG1	1054.003	294.298	-1041.370	 H	7	VAL7	0.079	
101	3HG1	1054.641	295.928	-1041.491	 H	7	VAL7	0.079	
102	1HG2	1055.458	293.272	-1038.126	 H	7	VAL7	0.079	
103	2HG2	1054.371	292.857	-1039.456	 H	7	VAL7	0.079	
104	3HG2	1056.133	292.896	-1039.730	 H	7	VAL7	0.079	
105	   N	1055.527	298.005	-1039.195	N.am	8	ASP8	-0.516	
106	  CA	1055.456	299.354	-1039.749	C.3	8	ASP8	0.038	
107	   C	1056.802	300.034	-1039.693	C.2	8	ASP8	0.537	
108	   O	1057.275	300.639	-1040.668	O.2	8	ASP8	-0.582	
109	  CB	1054.378	300.193	-1039.007	C.3	8	ASP8	-0.030	
110	  CG	1054.159	301.614	-1039.548	C.2	8	ASP8	0.799	
111	 OD1	1054.222	301.812	-1040.779	O.co2	8	ASP8	-0.801	
112	 OD2	1053.967	302.540	-1038.733	O.co2	8	ASP8	-0.801	
113	   H	1054.929	297.734	-1038.427	 H	8	ASP8	0.294	
114	  HA	1055.172	299.276	-1040.816	 H	8	ASP8	0.088	
115	 2HB	1054.636	300.277	-1037.935	 H	8	ASP8	-0.012	
116	 3HB	1053.399	299.688	-1039.039	 H	8	ASP8	-0.012	
117	   N	1057.483	299.985	-1038.598	N.am	9	GLU9	-0.516	
118	  CA	1058.785	300.643	-1038.543	C.3	9	GLU9	0.040	
119	   C	1059.703	300.115	-1039.619	C.2	9	GLU9	0.537	
120	   O	1060.367	300.870	-1040.345	O.2	9	GLU9	-0.582	
121	  CB	1059.420	300.436	-1037.138	C.3	9	GLU9	0.056	
122	  CG	1060.802	301.129	-1036.910	C.3	9	GLU9	0.014	
123	  CD	1061.505	300.917	-1035.581	C.2	9	GLU9	0.805	
124	 OE1	1060.984	300.226	-1034.685	O.co2	9	GLU9	-0.819	
125	 OE2	1062.624	301.455	-1035.450	O.co2	9	GLU9	-0.819	
126	   H	1057.120	299.499	-1037.790	 H	9	GLU9	0.294	
127	  HA	1058.643	301.725	-1038.719	 H	9	GLU9	0.111	
128	 2HB	1059.533	299.352	-1036.934	 H	9	GLU9	-0.017	
129	 3HB	1058.723	300.790	-1036.354	 H	9	GLU9	-0.017	
130	 2HG	1060.730	302.220	-1037.050	 H	9	GLU9	-0.043	
131	 3HG	1061.549	300.784	-1037.644	 H	9	GLU9	-0.043	
132	   N	1059.800	298.840	-1039.788	N.am	10	HIS10	-0.416	
133	  CA	1060.688	298.329	-1040.829	C.3	10	HIS10	-0.058	
134	   C	1060.320	298.893	-1042.180	C.2	10	HIS10	0.597	
135	   O	1061.172	299.358	-1042.952	O.2	10	HIS10	-0.568	
136	  CB	1060.525	296.800	-1040.823	C.3	10	HIS10	-0.007	
137	  CG	1061.811	296.090	-1040.515	C.2	10	HIS10	0.187	
138	 CD2	1062.192	295.756	-1039.223	C.2	10	HIS10	-0.221	
139	 ND1	1062.762	295.685	-1041.448	N.2	10	HIS10	-0.543	
140	 CE1	1063.670	295.127	-1040.625	C.2	10	HIS10	0.163	
141	 NE2	1063.407	295.125	-1039.290	N.pl3	10	HIS10	-0.280	
142	   H	1059.270	298.205	-1039.209	 H	10	HIS10	0.272	
143	  HA	1061.707	298.687	-1040.604	 H	10	HIS10	0.136	
144	 2HB	1060.159	296.432	-1041.803	 H	10	HIS10	0.037	
145	 3HB	1059.769	296.463	-1040.083	 H	10	HIS10	0.037	
146	 2HD	1061.607	295.971	-1038.334	 H	10	HIS10	0.186	
147	 1HE	1064.561	294.707	-1041.072	 H	10	HIS10	0.144	
148	 2HE	1063.975	294.748	-1038.517	 H	10	HIS10	0.334	
149	   N	1059.082	298.891	-1042.542	N.am	11	VAL11	-0.416	
150	  CA	1058.726	299.437	-1043.849	C.3	11	VAL11	-0.087	
151	   C	1059.190	300.868	-1043.982	C.2	11	VAL11	0.597	
152	   O	1059.790	301.273	-1044.986	O.2	11	VAL11	-0.568	
153	  CB	1057.165	299.329	-1044.068	C.3	11	VAL11	0.299	
154	 CG1	1056.596	300.032	-1045.331	C.3	11	VAL11	-0.319	
155	 CG2	1056.641	297.875	-1044.140	C.3	11	VAL11	-0.319	
156	   H	1058.370	298.518	-1041.931	 H	11	VAL11	0.272	
157	  HA	1059.246	298.854	-1044.632	 H	11	VAL11	0.097	
158	  HB	1056.678	299.809	-1043.193	 H	11	VAL11	-0.030	
159	1HG1	1057.034	299.641	-1046.268	 H	11	VAL11	0.079	
160	2HG1	1055.497	299.925	-1045.412	 H	11	VAL11	0.079	
161	3HG1	1056.773	301.125	-1045.322	 H	11	VAL11	0.079	
162	1HG2	1056.932	297.288	-1043.250	 H	11	VAL11	0.079	
163	2HG2	1055.535	297.837	-1044.182	 H	11	VAL11	0.079	
164	3HG2	1057.023	297.334	-1045.027	 H	11	VAL11	0.079	
165	   N	1058.953	301.693	-1043.020	N.am	12	GLN12	-0.416	
166	  CA	1059.400	303.077	-1043.148	C.3	12	GLN12	-0.003	
167	   C	1060.890	303.145	-1043.386	C.2	12	GLN12	0.597	
168	   O	1061.377	303.853	-1044.265	O.2	12	GLN12	-0.568	
169	  CB	1059.010	303.844	-1041.865	C.3	12	GLN12	-0.004	
170	  CG	1059.369	305.366	-1041.834	C.3	12	GLN12	-0.064	
171	  CD	1059.067	306.180	-1040.570	C.2	12	GLN12	0.695	
172	 NE2	1058.500	305.603	-1039.540	N.pl3	12	GLN12	-0.941	
173	 OE1	1059.368	307.361	-1040.493	O.2	12	GLN12	-0.609	
174	   H	1058.465	301.387	-1042.191	 H	12	GLN12	0.272	
175	  HA	1058.900	303.532	-1044.023	 H	12	GLN12	0.085	
176	 2HB	1059.486	303.345	-1040.996	 H	12	GLN12	0.017	
177	 3HB	1057.920	303.736	-1041.701	 H	12	GLN12	0.017	
178	 2HG	1058.891	305.887	-1042.685	 H	12	GLN12	0.035	
179	 3HG	1060.452	305.509	-1042.001	 H	12	GLN12	0.035	
180	1HE2	1058.393	306.198	-1038.717	 H	12	GLN12	0.425	
181	2HE2	1058.338	304.600	-1039.644	 H	12	GLN12	0.425	
182	   N	1061.676	302.439	-1042.646	N.am	13	ARG13	-0.348	
183	  CA	1063.116	302.505	-1042.877	C.3	13	ARG13	-0.264	
184	   C	1063.452	302.134	-1044.302	C.2	13	ARG13	0.734	
185	   O	1064.219	302.806	-1044.986	O.2	13	ARG13	-0.589	
186	  CB	1063.830	301.567	-1041.863	C.3	13	ARG13	-0.001	
187	  CG	1065.375	301.722	-1041.782	C.3	13	ARG13	0.039	
188	  CD	1066.003	300.735	-1040.784	C.3	13	ARG13	0.049	
189	  NE	1067.480	300.943	-1040.735	N.pl3	13	ARG13	-0.530	
190	  CZ	1068.329	300.252	-1039.979	C.cat	13	ARG13	0.808	
191	 NH1	1067.965	299.288	-1039.182	N.pl3	13	ARG13	-0.863	
192	 NH2	1069.588	300.552	-1040.037	N.pl3	13	ARG13	-0.863	
193	   H	1061.300	301.849	-1041.917	 H	13	ARG13	0.275	
194	  HA	1063.439	303.552	-1042.719	 H	13	ARG13	0.156	
195	 2HB	1063.564	300.517	-1042.101	 H	13	ARG13	0.033	
196	 3HB	1063.405	301.734	-1040.852	 H	13	ARG13	0.033	
197	 2HG	1065.622	302.767	-1041.504	 H	13	ARG13	0.029	
198	 3HG	1065.825	301.565	-1042.784	 H	13	ARG13	0.029	
199	 2HD	1065.759	299.694	-1041.093	 H	13	ARG13	0.069	
200	 3HD	1065.547	300.881	-1039.782	 H	13	ARG13	0.069	
201	  HE	1067.931	301.665	-1041.306	 H	13	ARG13	0.346	
202	1HH1	1066.959	299.101	-1039.184	 H	13	ARG13	0.448	
203	2HH1	1068.678	298.806	-1038.633	 H	13	ARG13	0.448	
204	1HH2	1069.855	301.310	-1040.668	 H	13	ARG13	0.448	
205	2HH2	1070.224	300.011	-1039.448	 H	13	ARG13	0.448	
206	   N	1062.916	301.079	-1044.816	N.am	14	VAL14	-0.416	
207	  CA	1063.241	300.719	-1046.193	C.3	14	VAL14	-0.087	
208	   C	1062.910	301.849	-1047.139	C.2	14	VAL14	0.597	
209	   O	1063.703	302.230	-1048.009	O.2	14	VAL14	-0.568	
210	  CB	1062.469	299.401	-1046.599	C.3	14	VAL14	0.299	
211	 CG1	1062.558	298.983	-1048.093	C.3	14	VAL14	-0.319	
212	 CG2	1062.902	298.150	-1045.799	C.3	14	VAL14	-0.319	
213	   H	1062.282	300.510	-1044.273	 H	14	VAL14	0.272	
214	  HA	1064.329	300.543	-1046.268	 H	14	VAL14	0.097	
215	  HB	1061.393	299.572	-1046.383	 H	14	VAL14	-0.030	
216	1HG1	1063.599	298.806	-1048.422	 H	14	VAL14	0.079	
217	2HG1	1061.985	298.059	-1048.305	 H	14	VAL14	0.079	
218	3HG1	1062.128	299.744	-1048.771	 H	14	VAL14	0.079	
219	1HG2	1062.815	298.309	-1044.708	 H	14	VAL14	0.079	
220	2HG2	1062.267	297.273	-1046.030	 H	14	VAL14	0.079	
221	3HG2	1063.950	297.861	-1046.004	 H	14	VAL14	0.079	
222	   N	1061.765	302.434	-1047.037	N.am	15	MET15	-0.416	
223	  CA	1061.443	303.526	-1047.952	C.3	15	MET15	-0.024	
224	   C	1062.473	304.626	-1047.865	C.2	15	MET15	0.597	
225	   O	1062.975	305.137	-1048.878	O.2	15	MET15	-0.568	
226	  CB	1060.022	304.071	-1047.643	C.3	15	MET15	0.034	
227	  CG	1058.860	303.072	-1047.834	C.3	15	MET15	0.002	
228	  SD	1057.286	303.938	-1047.719	S.3	15	MET15	-0.274	
229	  CE	1056.205	302.507	-1047.582	C.3	15	MET15	-0.054	
230	   H	1061.100	302.141	-1046.336	 H	15	MET15	0.272	
231	  HA	1061.469	303.138	-1048.987	 H	15	MET15	0.088	
232	 2HB	1059.819	304.949	-1048.285	 H	15	MET15	0.024	
233	 3HB	1059.986	304.464	-1046.607	 H	15	MET15	0.024	
234	 2HG	1058.904	302.287	-1047.056	 H	15	MET15	0.044	
235	 3HG	1058.923	302.557	-1048.810	 H	15	MET15	0.044	
236	 1HE	1056.349	301.819	-1048.434	 H	15	MET15	0.068	
237	 2HE	1056.415	301.955	-1046.649	 H	15	MET15	0.068	
238	 3HE	1055.148	302.822	-1047.565	 H	15	MET15	0.068	
239	   N	1062.842	305.048	-1046.703	N.am	16	ARG16	-0.348	
240	  CA	1063.838	306.113	-1046.620	C.3	16	ARG16	-0.264	
241	   C	1065.109	305.720	-1047.337	C.2	16	ARG16	0.734	
242	   O	1065.223	304.644	-1047.917	O.2	16	ARG16	-0.589	
243	  CB	1064.107	306.432	-1045.122	C.3	16	ARG16	-0.001	
244	  CG	1064.932	307.721	-1044.850	C.3	16	ARG16	0.039	
245	  CD	1065.182	307.942	-1043.349	C.3	16	ARG16	0.049	
246	  NE	1065.957	309.201	-1043.149	N.pl3	16	ARG16	-0.530	
247	  CZ	1066.349	309.685	-1041.974	C.cat	16	ARG16	0.808	
248	 NH1	1066.102	309.101	-1040.835	N.pl3	16	ARG16	-0.863	
249	 NH2	1067.012	310.798	-1041.957	N.pl3	16	ARG16	-0.863	
250	   H	1062.448	304.649	-1045.863	 H	16	ARG16	0.275	
251	  HA	1063.428	307.005	-1047.130	 H	16	ARG16	0.156	
252	 2HB	1064.605	305.557	-1044.655	 H	16	ARG16	0.033	
253	 3HB	1063.139	306.513	-1044.588	 H	16	ARG16	0.033	
254	 2HG	1064.401	308.592	-1045.288	 H	16	ARG16	0.029	
255	 3HG	1065.905	307.669	-1045.380	 H	16	ARG16	0.029	
256	 2HD	1065.731	307.068	-1042.936	 H	16	ARG16	0.069	
257	 3HD	1064.209	307.984	-1042.814	 H	16	ARG16	0.069	
258	  HE	1066.235	309.782	-1043.947	 H	16	ARG16	0.346	
259	1HH1	1065.576	308.228	-1040.919	 H	16	ARG16	0.448	
260	2HH1	1066.436	309.537	-1039.974	 H	16	ARG16	0.448	
261	1HH2	1067.197	311.240	-1042.859	 H	16	ARG16	0.448	
262	2HH2	1067.302	311.154	-1041.044	 H	16	ARG16	0.448	
@<TRIPOS>BOND
1 1 2 1
2 1 10 1
3 2 3 1
4 2 5 1
5 2 11 1
6 3 4 2
7 3 16 1
8 5 6 1
9 6 7 1
10 7 8 2
11 7 9 1
12 5 12 1
13 5 13 1
14 6 14 1
15 6 15 1
16 16 17 1
17 16 24 1
18 17 18 1
19 17 20 1
20 17 25 1
21 18 19 2
22 18 30 1
23 20 21 1
24 21 22 1
25 21 23 2
26 20 26 1
27 20 27 1
28 22 28 1
29 22 29 1
30 30 31 1
31 30 36 1
32 31 32 1
33 31 34 1
34 31 37 1
35 32 33 2
36 32 44 1
37 34 35 1
38 35 36 1
39 34 38 1
40 34 39 1
41 35 40 1
42 35 41 1
43 36 42 1
44 36 43 1
45 44 45 1
46 44 53 1
47 45 46 1
48 45 48 1
49 45 54 1
50 46 47 2
51 46 59 1
52 48 49 1
53 49 50 1
54 50 51 2
55 50 52 1
56 48 55 1
57 48 56 1
58 49 57 1
59 49 58 1
60 59 60 1
61 59 65 1
62 60 61 1
63 60 63 1
64 60 66 1
65 61 62 2
66 61 70 1
67 63 64 1
68 63 67 1
69 63 68 1
70 64 69 1
71 70 71 1
72 70 78 1
73 71 72 1
74 71 74 1
75 71 79 1
76 72 73 2
77 72 89 1
78 74 75 1
79 74 76 1
80 75 77 1
81 74 80 1
82 75 81 1
83 75 82 1
84 76 83 1
85 76 84 1
86 76 85 1
87 77 86 1
88 77 87 1
89 77 88 1
90 89 90 1
91 89 96 1
92 90 91 1
93 90 93 1
94 90 97 1
95 91 92 2
96 91 105 1
97 93 94 1
98 93 95 1
99 93 98 1
100 94 99 1
101 94 100 1
102 94 101 1
103 95 102 1
104 95 103 1
105 95 104 1
106 105 106 1
107 105 113 1
108 106 107 1
109 106 109 1
110 106 114 1
111 107 108 2
112 107 117 1
113 109 110 1
114 110 111 2
115 110 112 1
116 109 115 1
117 109 116 1
118 117 118 1
119 117 126 1
120 118 119 1
121 118 121 1
122 118 127 1
123 119 120 2
124 119 132 1
125 121 122 1
126 122 123 1
127 123 124 2
128 123 125 1
129 121 128 1
130 121 129 1
131 122 130 1
132 122 131 1
133 132 133 1
134 132 142 1
135 133 134 1
136 133 136 1
137 133 143 1
138 134 135 2
139 134 149 1
140 136 137 1
141 137 138 2
142 138 141 1
143 137 139 1
144 139 140 2
145 140 141 1
146 136 144 1
147 136 145 1
148 138 146 1
149 140 147 1
150 141 148 1
151 149 150 1
152 149 156 1
153 150 151 1
154 150 153 1
155 150 157 1
156 151 152 2
157 151 165 1
158 153 154 1
159 153 155 1
160 153 158 1
161 154 159 1
162 154 160 1
163 154 161 1
164 155 162 1
165 155 163 1
166 155 164 1
167 165 166 1
168 165 174 1
169 166 167 1
170 166 169 1
171 166 175 1
172 167 168 2
173 167 182 1
174 169 170 1
175 170 171 1
176 171 172 1
177 171 173 2
178 169 176 1
179 169 177 1
180 170 178 1
181 170 179 1
182 172 180 1
183 172 181 1
184 182 183 1
185 182 193 1
186 183 184 1
187 183 186 1
188 183 194 1
189 184 185 2
190 184 206 1
191 186 187 1
192 187 188 1
193 188 189 1
194 189 190 1
195 190 191 2
196 190 192 1
197 186 195 1
198 186 196 1
199 187 197 1
200 187 198 1
201 188 199 1
202 188 200 1
203 189 201 1
204 191 202 1
205 191 203 1
206 192 204 1
207 192 205 1
208 206 207 1
209 206 213 1
210 207 208 1
211 207 210 1
212 207 214 1
213 208 209 2
214 208 222 1
215 210 211 1
216 210 212 1
217 210 215 1
218 211 216 1
219 211 217 1
220 211 218 1
221 212 219 1
222 212 220 1
223 212 221 1
224 222 223 1
225 222 230 1
226 223 224 1
227 223 226 1
228 223 231 1
229 224 225 2
230 224 239 1
231 226 227 1
232 227 228 1
233 228 229 1
234 226 232 1
235 226 233 1
236 227 234 1
237 227 235 1
238 229 236 1
239 229 237 1
240 229 238 1
241 239 240 1
242 239 250 1
243 240 241 1
244 240 243 1
245 240 251 1
246 241 242 2
247 243 244 1
248 244 245 1
249 245 246 1
250 246 247 1
251 247 248 2
252 247 249 1
253 243 252 1
254 243 253 1
255 244 254 1
256 244 255 1
257 245 256 1
258 245 257 1
259 246 258 1
260 248 259 1
261 248 260 1
262 249 261 1
263 249 262 1
@<TRIPOS>SUBSTRUCTURE
1	GLU1	1	RESIDUE	1 ****	GLU
2	ASN2	16	RESIDUE	1 ****	ASN
3	PRO3	30	RESIDUE	1 ****	PRO
4	GLU4	44	RESIDUE	1 ****	GLU
5	SER5	59	RESIDUE	1 ****	SER
6	ILE6	70	RESIDUE	1 ****	ILE
7	VAL7	89	RESIDUE	1 ****	VAL
8	ASP8	105	RESIDUE	1 ****	ASP
9	GLU9	117	RESIDUE	1 ****	GLU
10	HIS10	132	RESIDUE	1 ****	HIS
11	VAL11	149	RESIDUE	1 ****	VAL
12	GLN12	165	RESIDUE	1 ****	GLN
13	ARG13	182	RESIDUE	1 ****	ARG
14	VAL14	206	RESIDUE	1 ****	VAL
15	MET15	222	RESIDUE	1 ****	MET
16	ARG16	239	RESIDUE	1 ****	ARG
