@<TRIPOS>MOLECULE
11-3
256 257 16              
SMALL
USER_CHARGES
@<TRIPOS>ATOM
1	   N	1697.541	507.265	-1733.257	N.3	1	GLU1	-0.516	
2	  CA	1698.099	508.614	-1733.257	C.3	1	GLU1	0.040	
3	   C	1699.609	508.574	-1733.257	C.2	1	GLU1	0.537	
4	   O	1700.284	509.273	-1734.026	O.2	1	GLU1	-0.582	
5	  CB	1697.577	509.399	-1732.020	C.3	1	GLU1	0.056	
6	  CG	1698.052	510.884	-1731.909	C.3	1	GLU1	0.014	
7	  CD	1697.628	511.688	-1730.694	C.2	1	GLU1	0.805	
8	 OE1	1696.900	511.186	-1729.816	O.co2	1	GLU1	-0.819	
9	 OE2	1698.057	512.858	-1730.622	O.co2	1	GLU1	-0.819	
10	   H	1698.167	506.386	-1733.257	 H	1	GLU1	0.294	
11	  HA	1697.774	509.132	-1734.177	 H	1	GLU1	0.111	
12	 2HB	1697.865	508.868	-1731.090	 H	1	GLU1	-0.017	
13	 3HB	1696.469	509.389	-1732.007	 H	1	GLU1	-0.017	
14	 2HG	1697.742	511.469	-1732.790	 H	1	GLU1	-0.043	
15	 3HG	1699.151	510.951	-1731.880	 H	1	GLU1	-0.043	
16	   N	1700.213	507.788	-1732.432	N.am	2	ASN2	-0.416	
17	  CA	1701.672	507.750	-1732.432	C.3	2	ASN2	0.014	
18	   C	1702.204	507.394	-1733.801	C.2	2	ASN2	0.597	
19	   O	1703.118	508.025	-1734.329	O.2	2	ASN2	-0.568	
20	  CB	1702.164	506.727	-1731.368	C.3	2	ASN2	-0.204	
21	  CG	1701.702	506.951	-1729.924	C.2	2	ASN2	0.713	
22	 ND2	1702.296	507.866	-1729.206	N.pl3	2	ASN2	-0.919	
23	 OD1	1700.781	506.317	-1729.430	O.2	2	ASN2	-0.593	
24	   H	1699.685	507.209	-1731.795	 H	2	ASN2	0.272	
25	  HA	1702.050	508.760	-1732.187	 H	2	ASN2	0.105	
26	 2HB	1703.269	506.668	-1731.371	 H	2	ASN2	0.080	
27	 3HB	1701.836	505.709	-1731.653	 H	2	ASN2	0.080	
28	1HD2	1701.815	508.039	-1728.320	 H	2	ASN2	0.420	
29	2HD2	1702.997	508.437	-1729.675	 H	2	ASN2	0.420	
30	   N	1701.682	506.399	-1734.435	N.am	3	PRO3	-0.255	
31	  CA	1702.134	505.990	-1735.756	C.3	3	PRO3	-0.027	
32	   C	1701.736	507.013	-1736.833	C.2	3	PRO3	0.590	
33	   O	1702.559	507.397	-1737.665	O.2	3	PRO3	-0.575	
34	  CB	1701.430	504.635	-1735.926	C.3	3	PRO3	-0.007	
35	  CG	1700.146	504.787	-1735.095	C.3	3	PRO3	0.019	
36	  CD	1700.604	505.606	-1733.886	C.3	3	PRO3	0.019	
37	  HA	1703.220	505.870	-1735.770	 H	3	PRO3	0.064	
38	 2HB	1702.053	503.854	-1735.485	 H	3	PRO3	0.025	
39	 3HB	1701.232	504.387	-1736.971	 H	3	PRO3	0.025	
40	 2HG	1699.719	503.825	-1734.804	 H	3	PRO3	0.021	
41	 3HG	1699.409	505.358	-1735.663	 H	3	PRO3	0.021	
42	 2HD	1700.994	504.957	-1733.098	 H	3	PRO3	0.039	
43	 3HD	1699.808	506.242	-1733.492	 H	3	PRO3	0.039	
44	   N	1700.531	507.473	-1736.865	N.am	4	GLU4	-0.516	
45	  CA	1700.171	508.444	-1737.895	C.3	4	GLU4	0.040	
46	   C	1701.070	509.656	-1737.834	C.2	4	GLU4	0.537	
47	   O	1701.596	510.135	-1738.848	O.2	4	GLU4	-0.582	
48	  CB	1698.682	508.863	-1737.724	C.3	4	GLU4	0.056	
49	  CG	1698.134	509.867	-1738.790	C.3	4	GLU4	0.014	
50	  CD	1696.708	510.363	-1738.646	C.2	4	GLU4	0.805	
51	 OE1	1695.982	509.965	-1737.715	O.co2	4	GLU4	-0.819	
52	 OE2	1696.318	511.192	-1739.494	O.co2	4	GLU4	-0.819	
53	   H	1699.847	507.167	-1736.189	 H	4	GLU4	0.294	
54	  HA	1700.302	507.974	-1738.886	 H	4	GLU4	0.111	
55	 2HB	1698.530	509.303	-1736.718	 H	4	GLU4	-0.017	
56	 3HB	1698.035	507.965	-1737.730	 H	4	GLU4	-0.017	
57	 2HG	1698.216	509.452	-1739.808	 H	4	GLU4	-0.043	
58	 3HG	1698.722	510.799	-1738.801	 H	4	GLU4	-0.043	
59	   N	1701.297	510.208	-1736.691	N.am	5	SER5	-0.416	
60	  CA	1702.167	511.380	-1736.632	C.3	5	SER5	-0.025	
61	   C	1703.526	511.074	-1737.218	C.2	5	SER5	0.597	
62	   O	1704.073	511.828	-1738.023	O.2	5	SER5	-0.568	
63	  CB	1702.279	511.912	-1735.182	C.3	5	SER5	0.212	
64	  OG	1703.010	511.032	-1734.321	O.3	5	SER5	-0.655	
65	   H	1700.881	509.837	-1735.849	 H	5	SER5	0.272	
66	  HA	1701.717	512.170	-1737.261	 H	5	SER5	0.084	
67	 2HB	1701.279	512.105	-1734.748	 H	5	SER5	0.035	
68	 3HB	1702.784	512.897	-1735.184	 H	5	SER5	0.035	
69	  HG	1702.522	510.207	-1734.270	 H	5	SER5	0.428	
70	   N	1704.130	509.991	-1736.864	N.am	6	ILE6	-0.416	
71	  CA	1705.444	509.697	-1737.431	C.3	6	ILE6	-0.060	
72	   C	1705.386	509.659	-1738.938	C.2	6	ILE6	0.597	
73	   O	1706.221	510.247	-1739.642	O.2	6	ILE6	-0.568	
74	  CB	1706.043	508.360	-1736.831	C.3	6	ILE6	0.130	
75	 CG1	1706.063	508.298	-1735.270	C.3	6	ILE6	-0.043	
76	 CG2	1707.485	508.059	-1737.346	C.3	6	ILE6	-0.320	
77	 CD1	1706.333	506.909	-1734.655	C.3	6	ILE6	-0.066	
78	   H	1703.702	509.357	-1736.205	 H	6	ILE6	0.272	
79	  HA	1706.118	510.531	-1737.163	 H	6	ILE6	0.087	
80	  HB	1705.386	507.534	-1737.175	 H	6	ILE6	0.019	
81	2HG1	1705.081	508.618	-1734.874	 H	6	ILE6	0.024	
82	3HG1	1706.779	509.040	-1734.865	 H	6	ILE6	0.024	
83	1HG2	1707.543	507.965	-1738.444	 H	6	ILE6	0.088	
84	2HG2	1708.207	508.841	-1737.044	 H	6	ILE6	0.088	
85	3HG2	1707.875	507.096	-1736.968	 H	6	ILE6	0.088	
86	1HD1	1705.605	506.155	-1735.009	 H	6	ILE6	0.019	
87	2HD1	1707.344	506.530	-1734.891	 H	6	ILE6	0.019	
88	3HD1	1706.257	506.939	-1733.552	 H	6	ILE6	0.019	
89	   N	1704.440	508.996	-1739.512	N.am	7	LEU7	-0.416	
90	  CA	1704.385	508.960	-1740.970	C.3	7	LEU7	-0.052	
91	   C	1704.313	510.355	-1741.543	C.2	7	LEU7	0.597	
92	   O	1705.033	510.718	-1742.485	O.2	7	LEU7	-0.568	
93	  CB	1703.182	508.099	-1741.451	C.3	7	LEU7	-0.110	
94	  CG	1703.109	506.620	-1740.984	C.3	7	LEU7	0.353	
95	 CD1	1701.920	505.914	-1741.650	C.3	7	LEU7	-0.412	
96	 CD2	1704.403	505.841	-1741.276	C.3	7	LEU7	-0.412	
97	   H	1703.748	508.508	-1738.960	 H	7	LEU7	0.272	
98	  HA	1705.327	508.520	-1741.345	 H	7	LEU7	0.092	
99	 2HB	1703.159	508.115	-1742.558	 H	7	LEU7	0.046	
100	 3HB	1702.242	508.602	-1741.146	 H	7	LEU7	0.046	
101	  HG	1702.940	506.612	-1739.887	 H	7	LEU7	-0.036	
102	1HD1	1700.962	506.423	-1741.427	 H	7	LEU7	0.100	
103	2HD1	1702.019	505.874	-1742.751	 H	7	LEU7	0.100	
104	3HD1	1701.813	504.873	-1741.294	 H	7	LEU7	0.100	
105	1HD2	1704.678	505.871	-1742.346	 H	7	LEU7	0.100	
106	2HD2	1705.256	506.252	-1740.705	 H	7	LEU7	0.100	
107	3HD2	1704.322	504.778	-1740.980	 H	7	LEU7	0.100	
108	   N	1703.476	511.196	-1741.036	N.am	8	ASP8	-0.516	
109	  CA	1703.405	512.545	-1741.590	C.3	8	ASP8	0.038	
110	   C	1704.752	513.225	-1741.532	C.2	8	ASP8	0.537	
111	   O	1705.225	513.830	-1742.507	O.2	8	ASP8	-0.582	
112	  CB	1702.328	513.384	-1740.848	C.3	8	ASP8	-0.030	
113	  CG	1702.109	514.805	-1741.388	C.2	8	ASP8	0.799	
114	 OD1	1702.173	515.004	-1742.619	O.co2	8	ASP8	-0.801	
115	 OD2	1701.917	515.731	-1740.573	O.co2	8	ASP8	-0.801	
116	   H	1702.878	510.925	-1740.269	 H	8	ASP8	0.294	
117	  HA	1703.122	512.467	-1742.656	 H	8	ASP8	0.088	
118	 2HB	1702.585	513.468	-1739.776	 H	8	ASP8	-0.012	
119	 3HB	1701.348	512.880	-1740.881	 H	8	ASP8	-0.012	
120	   N	1705.432	513.175	-1740.437	N.am	9	GLU9	-0.516	
121	  CA	1706.734	513.832	-1740.382	C.3	9	GLU9	0.040	
122	   C	1707.652	513.305	-1741.457	C.2	9	GLU9	0.537	
123	   O	1708.317	514.059	-1742.183	O.2	9	GLU9	-0.582	
124	  CB	1707.368	513.625	-1738.976	C.3	9	GLU9	0.056	
125	  CG	1708.750	514.317	-1738.747	C.3	9	GLU9	0.014	
126	  CD	1709.452	514.104	-1737.418	C.2	9	GLU9	0.805	
127	 OE1	1708.931	513.413	-1736.522	O.co2	9	GLU9	-0.819	
128	 OE2	1710.571	514.641	-1737.287	O.co2	9	GLU9	-0.819	
129	   H	1705.068	512.688	-1739.630	 H	9	GLU9	0.294	
130	  HA	1706.592	514.914	-1740.557	 H	9	GLU9	0.111	
131	 2HB	1707.481	512.540	-1738.773	 H	9	GLU9	-0.017	
132	 3HB	1706.671	513.978	-1738.192	 H	9	GLU9	-0.017	
133	 2HG	1708.678	515.408	-1738.886	 H	9	GLU9	-0.043	
134	 3HG	1709.497	513.972	-1739.481	 H	9	GLU9	-0.043	
135	   N	1707.749	512.030	-1741.627	N.am	10	HIS10	-0.416	
136	  CA	1708.637	511.518	-1742.668	C.3	10	HIS10	-0.058	
137	   C	1708.270	512.083	-1744.019	C.2	10	HIS10	0.597	
138	   O	1709.122	512.548	-1744.790	O.2	10	HIS10	-0.568	
139	  CB	1708.473	509.989	-1742.663	C.3	10	HIS10	-0.007	
140	  CG	1709.758	509.279	-1742.355	C.2	10	HIS10	0.187	
141	 CD2	1710.139	508.943	-1741.062	C.2	10	HIS10	-0.221	
142	 ND1	1710.710	508.873	-1743.287	N.2	10	HIS10	-0.543	
143	 CE1	1711.617	508.315	-1742.464	C.2	10	HIS10	0.163	
144	 NE2	1711.354	508.312	-1741.129	N.pl3	10	HIS10	-0.280	
145	   H	1707.218	511.394	-1741.049	 H	10	HIS10	0.272	
146	  HA	1709.656	511.876	-1742.442	 H	10	HIS10	0.136	
147	 2HB	1708.108	509.623	-1743.643	 H	10	HIS10	0.037	
148	 3HB	1707.717	509.652	-1741.923	 H	10	HIS10	0.037	
149	 2HD	1709.553	509.159	-1740.173	 H	10	HIS10	0.186	
150	 1HE	1712.508	507.894	-1742.911	 H	10	HIS10	0.144	
151	 2HE	1711.921	507.934	-1740.356	 H	10	HIS10	0.334	
152	   N	1707.032	512.082	-1744.382	N.am	11	GLY11	-0.416	
153	  CA	1706.677	512.629	-1745.688	C.3	11	GLY11	-0.025	
154	   C	1707.142	514.059	-1745.821	C.2	11	GLY11	0.597	
155	   O	1707.741	514.462	-1746.821	O.2	11	GLY11	-0.568	
156	   H	1706.319	511.709	-1743.771	 H	11	GLY11	0.272	
157	 3HA	1705.633	512.592	-1745.789	 H	11	GLY11	0.070	
158	  HA	1707.179	512.034	-1746.474	 H	11	GLY11	0.070	
159	   N	1706.905	514.885	-1744.859	N.am	12	GLN12	-0.416	
160	  CA	1707.354	516.268	-1744.986	C.3	12	GLN12	-0.003	
161	   C	1708.844	516.334	-1745.224	C.2	12	GLN12	0.597	
162	   O	1709.331	517.042	-1746.103	O.2	12	GLN12	-0.568	
163	  CB	1706.963	517.035	-1743.703	C.3	12	GLN12	-0.004	
164	  CG	1707.324	518.557	-1743.673	C.3	12	GLN12	-0.064	
165	  CD	1707.022	519.371	-1742.408	C.2	12	GLN12	0.695	
166	 NE2	1706.455	518.795	-1741.379	N.pl3	12	GLN12	-0.941	
167	 OE1	1707.324	520.552	-1742.331	O.2	12	GLN12	-0.609	
168	   H	1706.416	514.579	-1744.029	 H	12	GLN12	0.272	
169	  HA	1706.854	516.724	-1745.861	 H	12	GLN12	0.085	
170	 2HB	1707.439	516.535	-1742.834	 H	12	GLN12	0.017	
171	 3HB	1705.873	516.928	-1743.540	 H	12	GLN12	0.017	
172	 2HG	1706.846	519.078	-1744.524	 H	12	GLN12	0.035	
173	 3HG	1708.407	518.699	-1743.839	 H	12	GLN12	0.035	
174	1HE2	1706.348	519.389	-1740.556	 H	12	GLN12	0.425	
175	2HE2	1706.291	517.791	-1741.482	 H	12	GLN12	0.425	
176	   N	1709.628	515.628	-1744.483	N.am	13	ARG13	-0.348	
177	  CA	1711.068	515.693	-1744.714	C.3	13	ARG13	-0.264	
178	   C	1711.404	515.321	-1746.139	C.2	13	ARG13	0.734	
179	   O	1712.173	515.992	-1746.823	O.2	13	ARG13	-0.589	
180	  CB	1711.782	514.754	-1743.700	C.3	13	ARG13	-0.001	
181	  CG	1713.327	514.907	-1743.619	C.3	13	ARG13	0.039	
182	  CD	1713.953	513.919	-1742.621	C.3	13	ARG13	0.049	
183	  NE	1715.431	514.126	-1742.571	N.pl3	13	ARG13	-0.530	
184	  CZ	1716.279	513.434	-1741.816	C.cat	13	ARG13	0.808	
185	 NH1	1715.913	512.470	-1741.019	N.pl3	13	ARG13	-0.863	
186	 NH2	1717.538	513.733	-1741.873	N.pl3	13	ARG13	-0.863	
187	   H	1709.252	515.038	-1743.755	 H	13	ARG13	0.275	
188	  HA	1711.393	516.739	-1744.556	 H	13	ARG13	0.156	
189	 2HB	1711.515	513.703	-1743.939	 H	13	ARG13	0.033	
190	 3HB	1711.357	514.921	-1742.689	 H	13	ARG13	0.033	
191	 2HG	1713.575	515.951	-1743.340	 H	13	ARG13	0.029	
192	 3HG	1713.777	514.750	-1744.621	 H	13	ARG13	0.029	
193	 2HD	1713.709	512.879	-1742.930	 H	13	ARG13	0.069	
194	 3HD	1713.497	514.065	-1741.619	 H	13	ARG13	0.069	
195	  HE	1715.882	514.848	-1743.142	 H	13	ARG13	0.346	
196	1HH1	1714.908	512.284	-1741.021	 H	13	ARG13	0.448	
197	2HH1	1716.626	511.987	-1740.470	 H	13	ARG13	0.448	
198	1HH2	1717.806	514.490	-1742.504	 H	13	ARG13	0.448	
199	2HH2	1718.173	513.191	-1741.284	 H	13	ARG13	0.448	
200	   N	1710.868	514.267	-1746.653	N.am	14	VAL14	-0.416	
201	  CA	1711.193	513.907	-1748.030	C.3	14	VAL14	-0.087	
202	   C	1710.863	515.037	-1748.976	C.2	14	VAL14	0.597	
203	   O	1711.656	515.418	-1749.846	O.2	14	VAL14	-0.568	
204	  CB	1710.420	512.590	-1748.437	C.3	14	VAL14	0.299	
205	 CG1	1710.509	512.171	-1749.930	C.3	14	VAL14	-0.319	
206	 CG2	1710.851	511.338	-1747.636	C.3	14	VAL14	-0.319	
207	   H	1710.233	513.698	-1746.111	 H	14	VAL14	0.272	
208	  HA	1712.281	513.730	-1748.105	 H	14	VAL14	0.097	
209	  HB	1709.344	512.761	-1748.221	 H	14	VAL14	-0.030	
210	1HG1	1711.550	511.994	-1750.259	 H	14	VAL14	0.079	
211	2HG1	1709.936	511.248	-1750.143	 H	14	VAL14	0.079	
212	3HG1	1710.080	512.933	-1750.609	 H	14	VAL14	0.079	
213	1HG2	1710.764	511.497	-1746.546	 H	14	VAL14	0.079	
214	2HG2	1710.215	510.462	-1747.868	 H	14	VAL14	0.079	
215	3HG2	1711.899	511.047	-1747.842	 H	14	VAL14	0.079	
216	   N	1709.718	515.623	-1748.875	N.am	15	MET15	-0.416	
217	  CA	1709.398	516.715	-1749.788	C.3	15	MET15	-0.024	
218	   C	1710.428	517.815	-1749.701	C.2	15	MET15	0.597	
219	   O	1710.931	518.325	-1750.714	O.2	15	MET15	-0.568	
220	  CB	1707.977	517.261	-1749.479	C.3	15	MET15	0.034	
221	  CG	1706.814	516.263	-1749.671	C.3	15	MET15	0.002	
222	  SD	1705.241	517.130	-1749.556	S.3	15	MET15	-0.274	
223	  CE	1704.159	515.700	-1749.419	C.3	15	MET15	-0.054	
224	   H	1709.053	515.330	-1748.173	 H	15	MET15	0.272	
225	  HA	1709.423	516.327	-1750.824	 H	15	MET15	0.088	
226	 2HB	1707.774	518.140	-1750.122	 H	15	MET15	0.024	
227	 3HB	1707.941	517.654	-1748.443	 H	15	MET15	0.024	
228	 2HG	1706.857	515.478	-1748.893	 H	15	MET15	0.044	
229	 3HG	1706.877	515.748	-1750.647	 H	15	MET15	0.044	
230	 1HE	1704.303	515.012	-1750.271	 H	15	MET15	0.068	
231	 2HE	1704.369	515.148	-1748.486	 H	15	MET15	0.068	
232	 3HE	1703.102	516.016	-1749.402	 H	15	MET15	0.068	
233	   N	1710.797	518.236	-1748.539	N.am	16	ARG16	-0.348	
234	  CA	1711.794	519.300	-1748.456	C.3	16	ARG16	-0.264	
235	   C	1713.065	518.907	-1749.173	C.2	16	ARG16	0.734	
236	   O	1713.178	517.830	-1749.754	O.2	16	ARG16	-0.589	
237	  CB	1712.064	519.618	-1746.958	C.3	16	ARG16	-0.001	
238	  CG	1712.889	520.907	-1746.686	C.3	16	ARG16	0.039	
239	  CD	1713.140	521.127	-1745.185	C.3	16	ARG16	0.049	
240	  NE	1713.916	522.385	-1744.984	N.pl3	16	ARG16	-0.530	
241	  CZ	1714.308	522.868	-1743.809	C.cat	16	ARG16	0.808	
242	 NH1	1714.060	522.284	-1742.670	N.pl3	16	ARG16	-0.863	
243	 NH2	1714.972	523.981	-1743.791	N.pl3	16	ARG16	-0.863	
244	   H	1710.403	517.837	-1747.700	 H	16	ARG16	0.275	
245	  HA	1711.385	520.193	-1748.966	 H	16	ARG16	0.156	
246	 2HB	1712.561	518.742	-1746.492	 H	16	ARG16	0.033	
247	 3HB	1711.095	519.700	-1746.424	 H	16	ARG16	0.033	
248	 2HG	1712.359	521.778	-1747.123	 H	16	ARG16	0.029	
249	 3HG	1713.863	520.854	-1747.215	 H	16	ARG16	0.029	
250	 2HD	1713.688	520.252	-1744.771	 H	16	ARG16	0.069	
251	 3HD	1712.167	521.170	-1744.649	 H	16	ARG16	0.069	
252	  HE	1714.195	522.966	-1745.781	 H	16	ARG16	0.346	
253	1HH1	1713.534	521.411	-1742.754	 H	16	ARG16	0.448	
254	2HH1	1714.395	522.720	-1741.809	 H	16	ARG16	0.448	
255	1HH2	1715.157	524.423	-1744.693	 H	16	ARG16	0.448	
256	2HH2	1715.263	524.336	-1742.879	 H	16	ARG16	0.448	
@<TRIPOS>BOND
1 1 2 1
2 1 10 1
3 2 3 1
4 2 5 1
5 2 11 1
6 3 4 2
7 3 16 1
8 5 6 1
9 6 7 1
10 7 8 2
11 7 9 1
12 5 12 1
13 5 13 1
14 6 14 1
15 6 15 1
16 16 17 1
17 16 24 1
18 17 18 1
19 17 20 1
20 17 25 1
21 18 19 2
22 18 30 1
23 20 21 1
24 21 22 1
25 21 23 2
26 20 26 1
27 20 27 1
28 22 28 1
29 22 29 1
30 30 31 1
31 30 36 1
32 31 32 1
33 31 34 1
34 31 37 1
35 32 33 2
36 32 44 1
37 34 35 1
38 35 36 1
39 34 38 1
40 34 39 1
41 35 40 1
42 35 41 1
43 36 42 1
44 36 43 1
45 44 45 1
46 44 53 1
47 45 46 1
48 45 48 1
49 45 54 1
50 46 47 2
51 46 59 1
52 48 49 1
53 49 50 1
54 50 51 2
55 50 52 1
56 48 55 1
57 48 56 1
58 49 57 1
59 49 58 1
60 59 60 1
61 59 65 1
62 60 61 1
63 60 63 1
64 60 66 1
65 61 62 2
66 61 70 1
67 63 64 1
68 63 67 1
69 63 68 1
70 64 69 1
71 70 71 1
72 70 78 1
73 71 72 1
74 71 74 1
75 71 79 1
76 72 73 2
77 72 89 1
78 74 75 1
79 74 76 1
80 75 77 1
81 74 80 1
82 75 81 1
83 75 82 1
84 76 83 1
85 76 84 1
86 76 85 1
87 77 86 1
88 77 87 1
89 77 88 1
90 89 90 1
91 89 97 1
92 90 91 1
93 90 93 1
94 90 98 1
95 91 92 2
96 91 108 1
97 93 94 1
98 94 95 1
99 94 96 1
100 93 99 1
101 93 100 1
102 94 101 1
103 95 102 1
104 95 103 1
105 95 104 1
106 96 105 1
107 96 106 1
108 96 107 1
109 108 109 1
110 108 116 1
111 109 110 1
112 109 112 1
113 109 117 1
114 110 111 2
115 110 120 1
116 112 113 1
117 113 114 2
118 113 115 1
119 112 118 1
120 112 119 1
121 120 121 1
122 120 129 1
123 121 122 1
124 121 124 1
125 121 130 1
126 122 123 2
127 122 135 1
128 124 125 1
129 125 126 1
130 126 127 2
131 126 128 1
132 124 131 1
133 124 132 1
134 125 133 1
135 125 134 1
136 135 136 1
137 135 145 1
138 136 137 1
139 136 139 1
140 136 146 1
141 137 138 2
142 137 152 1
143 139 140 1
144 140 141 2
145 141 144 1
146 140 142 1
147 142 143 2
148 143 144 1
149 139 147 1
150 139 148 1
151 141 149 1
152 143 150 1
153 144 151 1
154 152 153 1
155 152 156 1
156 153 154 1
157 153 157 1
158 153 158 1
159 154 155 2
160 154 159 1
161 159 160 1
162 159 168 1
163 160 161 1
164 160 163 1
165 160 169 1
166 161 162 2
167 161 176 1
168 163 164 1
169 164 165 1
170 165 166 1
171 165 167 2
172 163 170 1
173 163 171 1
174 164 172 1
175 164 173 1
176 166 174 1
177 166 175 1
178 176 177 1
179 176 187 1
180 177 178 1
181 177 180 1
182 177 188 1
183 178 179 2
184 178 200 1
185 180 181 1
186 181 182 1
187 182 183 1
188 183 184 1
189 184 185 2
190 184 186 1
191 180 189 1
192 180 190 1
193 181 191 1
194 181 192 1
195 182 193 1
196 182 194 1
197 183 195 1
198 185 196 1
199 185 197 1
200 186 198 1
201 186 199 1
202 200 201 1
203 200 207 1
204 201 202 1
205 201 204 1
206 201 208 1
207 202 203 2
208 202 216 1
209 204 205 1
210 204 206 1
211 204 209 1
212 205 210 1
213 205 211 1
214 205 212 1
215 206 213 1
216 206 214 1
217 206 215 1
218 216 217 1
219 216 224 1
220 217 218 1
221 217 220 1
222 217 225 1
223 218 219 2
224 218 233 1
225 220 221 1
226 221 222 1
227 222 223 1
228 220 226 1
229 220 227 1
230 221 228 1
231 221 229 1
232 223 230 1
233 223 231 1
234 223 232 1
235 233 234 1
236 233 244 1
237 234 235 1
238 234 237 1
239 234 245 1
240 235 236 2
241 237 238 1
242 238 239 1
243 239 240 1
244 240 241 1
245 241 242 2
246 241 243 1
247 237 246 1
248 237 247 1
249 238 248 1
250 238 249 1
251 239 250 1
252 239 251 1
253 240 252 1
254 242 253 1
255 242 254 1
256 243 255 1
257 243 256 1
@<TRIPOS>SUBSTRUCTURE
1	GLU1	1	RESIDUE	1 ****	GLU
2	ASN2	16	RESIDUE	1 ****	ASN
3	PRO3	30	RESIDUE	1 ****	PRO
4	GLU4	44	RESIDUE	1 ****	GLU
5	SER5	59	RESIDUE	1 ****	SER
6	ILE6	70	RESIDUE	1 ****	ILE
7	LEU7	89	RESIDUE	1 ****	LEU
8	ASP8	108	RESIDUE	1 ****	ASP
9	GLU9	120	RESIDUE	1 ****	GLU
10	HIS10	135	RESIDUE	1 ****	HIS
11	GLY11	152	RESIDUE	1 ****	GLY
12	GLN12	159	RESIDUE	1 ****	GLN
13	ARG13	176	RESIDUE	1 ****	ARG
14	VAL14	200	RESIDUE	1 ****	VAL
15	MET15	216	RESIDUE	1 ****	MET
16	ARG16	233	RESIDUE	1 ****	ARG
