REMARK WARNING: 32 MAX_TORS EXCEEDED!!!
REMARK  68 active torsions:
REMARK  status: ('A' for Active; 'I' for Inactive)
REMARK    1  A    between atoms: N_1  and  CA_2 
REMARK    2  A    between atoms: CA_2  and  C_3 
REMARK    3  A    between atoms: CA_2  and  CB_5 
REMARK       I    between atoms: C_3  and  N_11 
REMARK    4  A    between atoms: CB_5  and  CG_6 
REMARK    5  A    between atoms: CG_6  and  CD_7 
REMARK    6  A    between atoms: N_11  and  CA_12 
REMARK    7  A    between atoms: CA_12  and  C_13 
REMARK    8  A    between atoms: CA_12  and  CB_15 
REMARK       I    between atoms: C_13  and  N_22 
REMARK    9  A    between atoms: CB_15  and  CG_16 
REMARK       I    between atoms: CG_16  and  ND2_17 
REMARK   10  A    between atoms: CA_23  and  C_24 
REMARK       I    between atoms: C_24  and  N_29 
REMARK   11  A    between atoms: N_29  and  CA_30 
REMARK   12  A    between atoms: CA_30  and  C_31 
REMARK   13  A    between atoms: CA_30  and  CB_33 
REMARK       I    between atoms: C_31  and  N_39 
REMARK   14  A    between atoms: CB_33  and  CG_34 
REMARK   15  A    between atoms: CG_34  and  CD_35 
REMARK   16  A    between atoms: N_39  and  CA_40 
REMARK   17  A    between atoms: CA_40  and  C_41 
REMARK   18  A    between atoms: CA_40  and  CB_43 
REMARK       I    between atoms: C_41  and  N_50 
REMARK   19  A    between atoms: CB_43  and  CG_44 
REMARK       I    between atoms: CG_44  and  ND2_45 
REMARK   20  A    between atoms: N_50  and  CA_51 
REMARK   21  A    between atoms: CA_51  and  C_52 
REMARK   22  A    between atoms: CA_51  and  CB_54 
REMARK       I    between atoms: C_52  and  N_59 
REMARK   23  A    between atoms: CB_54  and  CG1_55 
REMARK   24  A    between atoms: N_59  and  CA_60 
REMARK   25  A    between atoms: CA_60  and  C_61 
REMARK   26  A    between atoms: CA_60  and  CB_63 
REMARK       I    between atoms: C_61  and  N_68 
REMARK   27  A    between atoms: CB_63  and  CG_64 
REMARK   28  A    between atoms: N_68  and  CA_69 
REMARK   29  A    between atoms: CA_69  and  C_70 
REMARK   30  A    between atoms: CA_69  and  CB_72 
REMARK       I    between atoms: C_70  and  N_77 
REMARK   31  A    between atoms: CB_72  and  CG_73 
REMARK   32  A    between atoms: N_77  and  CA_78 
REMARK   33  A    between atoms: CA_78  and  C_79 
REMARK   34  A    between atoms: CA_78  and  CB_81 
REMARK       I    between atoms: C_79  and  N_87 
REMARK   35  A    between atoms: CB_81  and  CG_82 
REMARK   36  A    between atoms: CG_82  and  CD_83 
REMARK   37  A    between atoms: N_87  and  CA_88 
REMARK   38  A    between atoms: CA_88  and  C_89 
REMARK   39  A    between atoms: CA_88  and  CB_91 
REMARK       I    between atoms: C_89  and  N_99 
REMARK   40  A    between atoms: CB_91  and  CG_92 
REMARK   41  A    between atoms: N_99  and  CA_100 
REMARK   42  A    between atoms: CA_100  and  C_101 
REMARK   43  A    between atoms: CA_100  and  CB_103 
REMARK       I    between atoms: C_101  and  N_107 
REMARK   44  A    between atoms: N_107  and  CA_108 
REMARK   45  A    between atoms: CA_108  and  C_109 
REMARK   46  A    between atoms: CA_108  and  CB_111 
REMARK       I    between atoms: C_109  and  N_119 
REMARK   47  A    between atoms: CB_111  and  CG_112 
REMARK   48  A    between atoms: CG_112  and  CD_113 
REMARK       I    between atoms: CD_113  and  NE2_114 
REMARK   49  A    between atoms: N_119  and  CA_120 
REMARK   50  A    between atoms: CA_120  and  C_121 
REMARK   51  A    between atoms: CA_120  and  CB_123 
REMARK       I    between atoms: C_121  and  N_136 
REMARK   52  A    between atoms: CB_123  and  CG_124 
REMARK   53  A    between atoms: CG_124  and  CD_125 
REMARK   54  A    between atoms: CD_125  and  NE_126 
REMARK       I    between atoms: NE_126  and  CZ_127 
REMARK       I    between atoms: CZ_127  and  NH1_128 
REMARK       I    between atoms: CZ_127  and  NH2_129 
REMARK   55  A    between atoms: N_136  and  CA_137 
REMARK   56  A    between atoms: CA_137  and  C_138 
REMARK   57  A    between atoms: CA_137  and  CB_140 
REMARK       I    between atoms: C_138  and  N_144 
REMARK   58  A    between atoms: N_144  and  CA_145 
REMARK   59  A    between atoms: CA_145  and  C_146 
REMARK   60  A    between atoms: CA_145  and  CB_148 
REMARK       I    between atoms: C_146  and  N_153 
REMARK   61  A    between atoms: CB_148  and  CG_149 
REMARK   62  A    between atoms: CG_149  and  SD_150 
REMARK   63  A    between atoms: N_153  and  CA_154 
REMARK   64  A    between atoms: CA_154  and  C_155 
REMARK   65  A    between atoms: CA_154  and  CB_157 
REMARK   66  A    between atoms: CB_157  and  CG_158 
REMARK   67  A    between atoms: CG_158  and  CD_159 
REMARK   68  A    between atoms: CD_159  and  NE_160 
REMARK       I    between atoms: NE_160  and  CZ_161 
REMARK       I    between atoms: CZ_161  and  NH1_162 
ROOT
ATOM      1  C   GLU d   9     821.561 221.115-780.750  0.00  0.00     0.241 C 
ATOM      2  O   GLU d   9     822.226 221.870-781.475  0.00  0.00    -0.271 OA
ATOM      3  N   HIS d  10     821.657 219.840-780.919  0.00  0.00    -0.346 N 
ATOM      4  H   HIS d  10     821.126 219.205-780.341  0.00  0.00     0.163 HD
ENDROOT
BRANCH   1   5
ATOM      5  CA  GLU d   9     820.643 221.643-779.674  0.00  0.00     0.177 C 
BRANCH   5   6
ATOM      6  N   GLU d   9     819.340 220.986-779.730  0.00  0.00    -0.346 N 
ATOM      7  C   ASP d   8     818.661 221.036-780.826  0.00  0.00     0.241 C 
ATOM      8  O   ASP d   8     819.134 221.641-781.800  0.00  0.00    -0.271 OA
ATOM      9  H   GLU d   9     818.976 220.499-778.924  0.00  0.00     0.163 HD
BRANCH   7  10
ATOM     10  CA  ASP d   8     817.314 220.356-780.884  0.00  0.00     0.186 C 
BRANCH  10  11
ATOM     11  N   ASP d   8     817.384 219.007-780.331  0.00  0.00    -0.346 N 
ATOM     12  C   LEU d   7     818.221 218.166-780.837  0.00  0.00     0.241 C 
ATOM     13  O   LEU d   7     818.942 218.529-781.778  0.00  0.00    -0.271 OA
ATOM     14  H   ASP d   8     816.785 218.736-779.564  0.00  0.00     0.163 HD
BRANCH  12  15
ATOM     15  CA  LEU d   7     818.293 216.771-780.264  0.00  0.00     0.177 C 
BRANCH  15  16
ATOM     16  N   LEU d   7     818.347 216.807-778.806  0.00  0.00    -0.346 N 
ATOM     17  C   ILE d   6     819.293 217.470-778.232  0.00  0.00     0.241 C 
ATOM     18  O   ILE d   6     820.128 218.058-778.935  0.00  0.00    -0.271 OA
ATOM     19  H   LEU d   7     817.655 216.320-778.255  0.00  0.00     0.163 HD
BRANCH  17  20
ATOM     20  CA  ILE d   6     819.349 217.508-776.724  0.00  0.00     0.180 C 
BRANCH  20  21
ATOM     21  N   ILE d   6     818.036 217.803-776.158  0.00  0.00    -0.346 N 
ATOM     22  C   ASN d   5     817.431 218.886-776.513  0.00  0.00     0.241 C 
ATOM     23  O   ASN d   5     817.979 219.639-777.317  0.00  0.00    -0.271 OA
ATOM     24  H   ILE d   6     817.607 217.169-775.499  0.00  0.00     0.163 HD
BRANCH  22  25
ATOM     25  CA  ASN d   5     816.073 219.191-775.927  0.00  0.00     0.185 C 
BRANCH  25  26
ATOM     26  N   ASN d   5     815.203 218.020-775.986  0.00  0.00    -0.346 N 
ATOM     27  C   GLU d   4     814.976 217.467-777.129  0.00  0.00     0.241 C 
ATOM     28  O   GLU d   4     815.503 217.947-778.144  0.00  0.00    -0.271 OA
ATOM     29  H   ASN d   5     814.786 217.648-775.145  0.00  0.00     0.163 HD
BRANCH  27  30
ATOM     30  CA  GLU d   4     814.077 216.256-777.191  0.00  0.00     0.177 C 
BRANCH  30  31
ATOM     31  N   GLU d   4     814.437 215.285-776.161  0.00  0.00    -0.346 N 
ATOM     32  C   PRO d   3     815.642 214.825-776.129  0.00  0.00     0.241 C 
ATOM     33  O   PRO d   3     816.465 215.208-776.960  0.00  0.00    -0.271 OA
ATOM     34  H   GLU d   4     813.753 214.978-775.484  0.00  0.00     0.163 HD
BRANCH  32  35
ATOM     35  CA  PRO d   3     816.040 213.802-775.052  0.00  0.00     0.179 C 
ATOM     36  N   PRO d   3     815.588 214.211-773.730  0.00  0.00    -0.337 N 
ATOM     37  C   ASN d   2     816.110 215.206-773.096  0.00  0.00     0.243 C 
ATOM     38  CD  PRO d   3     814.510 213.418-773.181  0.00  0.00     0.127 C 
ATOM     39  O   ASN d   2     817.025 215.837-773.625  0.00  0.00    -0.271 OA
ATOM     40  CG  PRO d   3     814.053 212.599-774.391  0.00  0.00     0.022 C 
ATOM     41  CB  PRO d   3     815.336 212.447-775.221  0.00  0.00     0.037 C 
BRANCH  37  42
ATOM     42  CA  ASN d   2     815.578 215.561-771.727  0.00  0.00     0.185 C 
BRANCH  42  43
ATOM     43  N   ASN d   2     814.119 215.600-771.727  0.00  0.00    -0.346 N 
ATOM     44  C   GLU d   1     813.515 216.386-772.552  0.00  0.00     0.242 C 
ATOM     45  O   GLU d   1     814.190 217.085-773.321  0.00  0.00    -0.271 OA
ATOM     46  H   ASN d   2     813.591 215.020-771.091  0.00  0.00     0.163 HD
BRANCH  44  47
ATOM     47  CA  GLU d   1     812.006 216.426-772.552  0.00  0.00     0.191 C 
BRANCH  47  48
ATOM     48  N   GLU d   1     811.447 215.077-772.552  0.00  0.00    -0.326 NA
ATOM     49  H   GLU d   1     812.074 214.198-772.552  0.00  0.00     0.180 HD
ENDBRANCH  47  48
BRANCH  47  50
ATOM     50  CB  GLU d   1     811.483 217.211-771.315  0.00  0.00     0.047 C 
BRANCH  50  51
ATOM     51  CG  GLU d   1     811.958 218.696-771.204  0.00  0.00     0.116 C 
BRANCH  51  52
ATOM     52  CD  GLU d   1     811.534 219.500-769.989  0.00  0.00     0.172 C 
ATOM     53  OE1 GLU d   1     810.806 218.998-769.111  0.00  0.00    -0.648 OA
ATOM     54  OE2 GLU d   1     811.964 220.670-769.917  0.00  0.00    -0.648 OA
ENDBRANCH  51  52
ENDBRANCH  50  51
ENDBRANCH  47  50
ENDBRANCH  44  47
ENDBRANCH  42  43
BRANCH  42  55
ATOM     55  CB  ASN d   2     816.071 214.538-770.663  0.00  0.00     0.137 C 
BRANCH  55  56
ATOM     56  CG  ASN d   2     815.608 214.762-769.220  0.00  0.00     0.217 C 
ATOM     57  ND2 ASN d   2     816.202 215.677-768.501  0.00  0.00    -0.370 N 
ATOM     58 21HD ASN d   2     815.721 215.850-767.615  0.00  0.00     0.159 HD
ATOM     59 22HD ASN d   2     816.904 216.249-768.971  0.00  0.00     0.159 HD
ATOM     60  OD1 ASN d   2     814.687 214.128-768.725  0.00  0.00    -0.274 OA
ENDBRANCH  55  56
ENDBRANCH  42  55
ENDBRANCH  37  42
ENDBRANCH  32  35
ENDBRANCH  30  31
BRANCH  30  61
ATOM     61  CB  GLU d   4     812.589 216.674-777.020  0.00  0.00     0.045 C 
BRANCH  61  62
ATOM     62  CG  GLU d   4     812.041 217.678-778.086  0.00  0.00     0.116 C 
BRANCH  62  63
ATOM     63  CD  GLU d   4     810.614 218.174-777.943  0.00  0.00     0.172 C 
ATOM     64  OE1 GLU d   4     809.888 217.776-777.012  0.00  0.00    -0.648 OA
ATOM     65  OE2 GLU d   4     810.224 219.003-778.791  0.00  0.00    -0.648 OA
ENDBRANCH  62  63
ENDBRANCH  61  62
ENDBRANCH  30  61
ENDBRANCH  27  30
ENDBRANCH  25  26
BRANCH  25  66
ATOM     66  CB  ASN d   5     816.203 219.667-774.452  0.00  0.00     0.137 C 
BRANCH  66  67
ATOM     67  CG  ASN d   5     814.904 220.010-773.716  0.00  0.00     0.217 C 
ATOM     68  ND2 ASN d   5     814.329 221.159-773.954  0.00  0.00    -0.370 N 
ATOM     69 21HD ASN d   5     813.398 221.224-773.533  0.00  0.00     0.159 HD
ATOM     70 22HD ASN d   5     814.745 221.742-774.679  0.00  0.00     0.159 HD
ATOM     71  OD1 ASN d   5     814.376 219.236-772.931  0.00  0.00    -0.274 OA
ENDBRANCH  66  67
ENDBRANCH  25  66
ENDBRANCH  22  25
ENDBRANCH  20  21
BRANCH  20  72
ATOM     72  CB  ILE d   6     819.948 216.171-776.123  0.00  0.00     0.013 C 
ATOM     73  CG2 ILE d   6     821.390 215.869-776.638  0.00  0.00     0.012 C 
BRANCH  72  74
ATOM     74  CG1 ILE d   6     819.967 216.109-774.562  0.00  0.00     0.002 C 
ATOM     75  CD1 ILE d   6     820.236 214.720-773.947  0.00  0.00     0.005 C 
ENDBRANCH  72  74
ENDBRANCH  20  72
ENDBRANCH  17  20
ENDBRANCH  15  16
BRANCH  15  76
ATOM     76  CB  LEU d   7     817.090 215.911-780.745  0.00  0.00     0.038 C 
BRANCH  76  77
ATOM     77  CG  LEU d   7     817.016 214.431-780.279  0.00  0.00    -0.020 C 
ATOM     78  CD1 LEU d   7     815.826 213.726-780.945  0.00  0.00     0.009 C 
ATOM     79  CD2 LEU d   7     818.310 213.652-780.569  0.00  0.00     0.009 C 
ENDBRANCH  76  77
ENDBRANCH  15  76
ENDBRANCH  12  15
ENDBRANCH  10  11
BRANCH  10  80
ATOM     80  CB  ASP d   8     816.236 221.195-780.143  0.00  0.00     0.147 C 
BRANCH  80  81
ATOM     81  CG  ASP d   8     816.017 222.616-780.683  0.00  0.00     0.175 C 
ATOM     82  OD1 ASP d   8     816.082 222.815-781.914  0.00  0.00    -0.648 OA
ATOM     83  OD2 ASP d   8     815.825 223.542-779.868  0.00  0.00    -0.648 OA
ENDBRANCH  80  81
ENDBRANCH  10  80
ENDBRANCH   7  10
ENDBRANCH   5   6
BRANCH   5  84
ATOM     84  CB  GLU d   9     821.275 221.435-778.269  0.00  0.00     0.045 C 
BRANCH  84  85
ATOM     85  CG  GLU d   9     822.658 222.127-778.038  0.00  0.00     0.116 C 
BRANCH  85  86
ATOM     86  CD  GLU d   9     823.359 221.913-776.710  0.00  0.00     0.172 C 
ATOM     87  OE1 GLU d   9     822.837 221.222-775.814  0.00  0.00    -0.648 OA
ATOM     88  OE2 GLU d   9     824.478 222.451-776.577  0.00  0.00    -0.648 OA
ENDBRANCH  85  86
ENDBRANCH  84  85
ENDBRANCH   5  84
ENDBRANCH   1   5
BRANCH   3  89
ATOM     89  CA  HIS d  10     822.546 219.329-781.959  0.00  0.00     0.182 C 
BRANCH  89  90
ATOM     90  C   HIS d  10     822.180 219.894-783.311  0.00  0.00     0.241 C 
ATOM     91  O   HIS d  10     823.033 220.358-784.082  0.00  0.00    -0.271 OA
ATOM     92  N   VAL d  11     820.942 219.893-783.674  0.00  0.00    -0.346 N 
ATOM     93  H   VAL d  11     820.229 219.520-783.064  0.00  0.00     0.163 HD
BRANCH  92  94
ATOM     94  CA  VAL d  11     820.588 220.439-784.981  0.00  0.00     0.180 C 
BRANCH  94  95
ATOM     95  C   VAL d  11     821.053 221.870-785.113  0.00  0.00     0.241 C 
ATOM     96  O   VAL d  11     821.655 222.275-786.116  0.00  0.00    -0.271 OA
ATOM     97  N   GLN d  12     820.815 222.695-784.151  0.00  0.00    -0.346 N 
ATOM     98  H   GLN d  12     820.326 222.389-783.322  0.00  0.00     0.163 HD
BRANCH  97  99
ATOM     99  CA  GLN d  12     821.264 224.078-784.277  0.00  0.00     0.177 C 
BRANCH  99 100
ATOM    100  C   GLN d  12     822.754 224.146-784.514  0.00  0.00     0.241 C 
ATOM    101  O   GLN d  12     823.242 224.854-785.392  0.00  0.00    -0.271 OA
ATOM    102  N   ARG d  13     823.538 223.438-783.773  0.00  0.00    -0.346 N 
ATOM    103  H   ARG d  13     823.161 222.848-783.045  0.00  0.00     0.163 HD
BRANCH 102 104
ATOM    104  CA  ARG d  13     824.979 223.504-784.003  0.00  0.00     0.176 C 
BRANCH 104 105
ATOM    105  C   ARG d  13     825.316 223.133-785.428  0.00  0.00     0.241 C 
ATOM    106  O   ARG d  13     826.085 223.805-786.111  0.00  0.00    -0.271 OA
ATOM    107  N   VAL d  14     824.780 222.079-785.943  0.00  0.00    -0.346 N 
ATOM    108  H   VAL d  14     824.144 221.510-785.402  0.00  0.00     0.163 HD
BRANCH 107 109
ATOM    109  CA  VAL d  14     825.105 221.720-787.320  0.00  0.00     0.180 C 
BRANCH 109 110
ATOM    110  C   VAL d  14     824.776 222.850-788.266  0.00  0.00     0.241 C 
ATOM    111  O   VAL d  14     825.570 223.232-789.134  0.00  0.00    -0.271 OA
ATOM    112  N   MET d  15     823.631 223.437-788.164  0.00  0.00    -0.346 N 
ATOM    113  H   MET d  15     822.966 223.143-787.463  0.00  0.00     0.163 HD
BRANCH 112 114
ATOM    114  CA  MET d  15     823.312 224.530-789.077  0.00  0.00     0.177 C 
BRANCH 114 115
ATOM    115  C   MET d  15     824.342 225.629-788.989  0.00  0.00     0.241 C 
ATOM    116  O   MET d  15     824.845 226.140-790.001  0.00  0.00    -0.271 OA
ATOM    117  N   ARG d  16     824.710 226.050-787.826  0.00  0.00    -0.347 N 
ATOM    118  H   ARG d  16     824.315 225.649-786.987  0.00  0.00     0.163 HD
BRANCH 117 119
ATOM    119  CA  ARG d  16     825.707 227.113-787.741  0.00  0.00     0.162 C 
BRANCH 119 120
ATOM    120  C   ARG d  16     826.978 226.721-788.457  0.00  0.00     0.219 C 
ATOM    121  O   ARG d  16     827.092 225.645-789.039  0.00  0.00    -0.287 OA
ENDBRANCH 119 120
BRANCH 119 122
ATOM    122  CB  ARG d  16     825.975 227.431-786.243  0.00  0.00     0.035 C 
BRANCH 122 123
ATOM    123  CG  ARG d  16     826.800 228.719-785.969  0.00  0.00     0.023 C 
BRANCH 123 124
ATOM    124  CD  ARG d  16     827.049 228.938-784.467  0.00  0.00     0.138 C 
BRANCH 124 125
ATOM    125  NE  ARG d  16     827.826 230.197-784.265  0.00  0.00    -0.227 N 
ATOM    126  CZ  ARG d  16     828.216 230.679-783.089  0.00  0.00     0.665 C 
ATOM    127  NH1 ARG d  16     827.968 230.094-781.951  0.00  0.00    -0.235 N 
ATOM    128  NH2 ARG d  16     828.880 231.791-783.070  0.00  0.00    -0.235 N 
ATOM    129 11HH ARG d  16     827.442 229.221-782.036  0.00  0.00     0.174 HD
ATOM    130 12HH ARG d  16     828.302 230.529-781.090  0.00  0.00     0.174 HD
ATOM    131 21HH ARG d  16     829.066 232.235-783.971  0.00  0.00     0.174 HD
ATOM    132 22HH ARG d  16     829.170 232.146-782.157  0.00  0.00     0.174 HD
ATOM    133  HE  ARG d  16     828.105 230.778-785.062  0.00  0.00     0.177 HD
ENDBRANCH 124 125
ENDBRANCH 123 124
ENDBRANCH 122 123
ENDBRANCH 119 122
ENDBRANCH 117 119
ENDBRANCH 114 115
BRANCH 114 134
ATOM    134  CB  MET d  15     821.890 225.075-788.769  0.00  0.00     0.045 C 
BRANCH 134 135
ATOM    135  CG  MET d  15     820.728 224.078-788.962  0.00  0.00     0.076 C 
BRANCH 135 136
ATOM    136  SD  MET d  15     819.154 224.944-788.848  0.00  0.00    -0.173 SA
ATOM    137  CE  MET d  15     818.073 223.514-788.713  0.00  0.00     0.089 C 
ENDBRANCH 135 136
ENDBRANCH 134 135
ENDBRANCH 114 134
ENDBRANCH 112 114
ENDBRANCH 109 110
BRANCH 109 138
ATOM    138  CB  VAL d  14     824.333 220.403-787.728  0.00  0.00     0.009 C 
ATOM    139  CG1 VAL d  14     824.423 219.986-789.222  0.00  0.00     0.012 C 
ATOM    140  CG2 VAL d  14     824.764 219.150-786.928  0.00  0.00     0.012 C 
ENDBRANCH 109 138
ENDBRANCH 107 109
ENDBRANCH 104 105
BRANCH 104 141
ATOM    141  CB  ARG d  13     825.691 222.564-782.989  0.00  0.00     0.036 C 
BRANCH 141 142
ATOM    142  CG  ARG d  13     827.236 222.717-782.906  0.00  0.00     0.023 C 
BRANCH 142 143
ATOM    143  CD  ARG d  13     827.862 221.729-781.909  0.00  0.00     0.138 C 
BRANCH 143 144
ATOM    144  NE  ARG d  13     829.340 221.936-781.857  0.00  0.00    -0.227 N 
ATOM    145  CZ  ARG d  13     830.187 221.244-781.102  0.00  0.00     0.665 C 
ATOM    146  NH1 ARG d  13     829.821 220.279-780.305  0.00  0.00    -0.235 N 
ATOM    147  NH2 ARG d  13     831.446 221.542-781.158  0.00  0.00    -0.235 N 
ATOM    148 11HH ARG d  13     828.816 220.093-780.309  0.00  0.00     0.174 HD
ATOM    149 12HH ARG d  13     830.534 219.796-779.756  0.00  0.00     0.174 HD
ATOM    150 21HH ARG d  13     831.715 222.301-781.788  0.00  0.00     0.174 HD
ATOM    151 22HH ARG d  13     832.081 221.001-780.569  0.00  0.00     0.174 HD
ATOM    152  HE  ARG d  13     829.791 222.658-782.427  0.00  0.00     0.177 HD
ENDBRANCH 143 144
ENDBRANCH 142 143
ENDBRANCH 141 142
ENDBRANCH 104 141
ENDBRANCH 102 104
ENDBRANCH  99 100
BRANCH  99 153
ATOM    153  CB  GLN d  12     820.873 224.846-782.994  0.00  0.00     0.044 C 
BRANCH 153 154
ATOM    154  CG  GLN d  12     821.233 226.367-782.963  0.00  0.00     0.105 C 
BRANCH 154 155
ATOM    155  CD  GLN d  12     820.930 227.180-781.698  0.00  0.00     0.215 C 
ATOM    156  NE2 GLN d  12     820.362 226.604-780.669  0.00  0.00    -0.370 N 
ATOM    157 21HE GLN d  12     820.255 227.198-779.846  0.00  0.00     0.159 HD
ATOM    158 22HE GLN d  12     820.199 225.600-780.773  0.00  0.00     0.159 HD
ATOM    159  OE1 GLN d  12     821.232 228.361-781.619  0.00  0.00    -0.274 OA
ENDBRANCH 154 155
ENDBRANCH 153 154
ENDBRANCH  99 153
ENDBRANCH  97  99
ENDBRANCH  94  95
BRANCH  94 160
ATOM    160  CB  VAL d  11     819.027 220.333-785.202  0.00  0.00     0.009 C 
ATOM    161  CG1 VAL d  11     818.459 221.038-786.464  0.00  0.00     0.012 C 
ATOM    162  CG2 VAL d  11     818.502 218.879-785.275  0.00  0.00     0.012 C 
ENDBRANCH  94 160
ENDBRANCH  92  94
ENDBRANCH  89  90
BRANCH  89 163
ATOM    163  CB  HIS d  10     822.381 217.800-781.955  0.00  0.00     0.095 C 
BRANCH 163 164
ATOM    164  CG  HIS d  10     823.667 217.089-781.646  0.00  0.00     0.053 A 
ATOM    165  CD2 HIS d  10     824.047 216.753-780.353  0.00  0.00     0.116 A 
ATOM    166  NE2 HIS d  10     825.261 216.121-780.420  0.00  0.00    -0.359 N 
ATOM    167  CE1 HIS d  10     825.525 216.124-781.755  0.00  0.00     0.207 A 
ATOM    168  2HE HIS d  10     825.827 215.744-779.646  0.00  0.00     0.166 HD
ATOM    169  ND1 HIS d  10     824.619 216.683-782.578  0.00  0.00    -0.247 NA
ENDBRANCH 163 164
ENDBRANCH  89 163
ENDBRANCH   3  89
TORSDOF 68
