REMARK WARNING: 32 MAX_TORS EXCEEDED!!!
REMARK  70 active torsions:
REMARK  status: ('A' for Active; 'I' for Inactive)
REMARK    1  A    between atoms: N_1  and  CA_2 
REMARK    2  A    between atoms: CA_2  and  C_3 
REMARK    3  A    between atoms: CA_2  and  CB_5 
REMARK       I    between atoms: C_3  and  N_11 
REMARK    4  A    between atoms: CB_5  and  CG_6 
REMARK    5  A    between atoms: CG_6  and  CD_7 
REMARK    6  A    between atoms: N_11  and  CA_12 
REMARK    7  A    between atoms: CA_12  and  C_13 
REMARK    8  A    between atoms: CA_12  and  CB_15 
REMARK       I    between atoms: C_13  and  N_22 
REMARK    9  A    between atoms: CB_15  and  CG_16 
REMARK       I    between atoms: CG_16  and  ND2_17 
REMARK   10  A    between atoms: CA_23  and  C_24 
REMARK       I    between atoms: C_24  and  N_29 
REMARK   11  A    between atoms: N_29  and  CA_30 
REMARK   12  A    between atoms: CA_30  and  C_31 
REMARK   13  A    between atoms: CA_30  and  CB_33 
REMARK       I    between atoms: C_31  and  N_42 
REMARK   14  A    between atoms: CB_33  and  CG_34 
REMARK   15  A    between atoms: CG_34  and  CD_35 
REMARK   16  A    between atoms: CD_35  and  CE_36 
REMARK   17  A    between atoms: CE_36  and  NZ_37 
REMARK   18  A    between atoms: N_42  and  CA_43 
REMARK   19  A    between atoms: CA_43  and  C_44 
REMARK   20  A    between atoms: CA_43  and  CB_46 
REMARK       I    between atoms: C_44  and  N_50 
REMARK   21  A    between atoms: CB_46  and  OG_47 
REMARK   22  A    between atoms: N_50  and  CA_51 
REMARK   23  A    between atoms: CA_51  and  C_52 
REMARK   24  A    between atoms: CA_51  and  CB_54 
REMARK       I    between atoms: C_52  and  N_59 
REMARK   25  A    between atoms: CB_54  and  CG1_55 
REMARK   26  A    between atoms: N_59  and  CA_60 
REMARK   27  A    between atoms: CA_60  and  C_61 
REMARK   28  A    between atoms: CA_60  and  CB_63 
REMARK       I    between atoms: C_61  and  N_68 
REMARK   29  A    between atoms: CB_63  and  CG_64 
REMARK   30  A    between atoms: N_68  and  CA_69 
REMARK   31  A    between atoms: CA_69  and  C_70 
REMARK   32  A    between atoms: CA_69  and  CB_72 
REMARK       I    between atoms: C_70  and  N_77 
REMARK   33  A    between atoms: CB_72  and  CG_73 
REMARK   34  A    between atoms: N_77  and  CA_78 
REMARK   35  A    between atoms: CA_78  and  C_79 
REMARK   36  A    between atoms: CA_78  and  CB_81 
REMARK       I    between atoms: C_79  and  N_87 
REMARK   37  A    between atoms: CB_81  and  CG_82 
REMARK   38  A    between atoms: CG_82  and  CD_83 
REMARK   39  A    between atoms: N_87  and  CA_88 
REMARK   40  A    between atoms: CA_88  and  C_89 
REMARK   41  A    between atoms: CA_88  and  CB_91 
REMARK       I    between atoms: C_89  and  N_99 
REMARK   42  A    between atoms: CB_91  and  CG_92 
REMARK   43  A    between atoms: N_99  and  CA_100 
REMARK   44  A    between atoms: CA_100  and  C_101 
REMARK   45  A    between atoms: CA_100  and  CB_103 
REMARK       I    between atoms: C_101  and  N_107 
REMARK   46  A    between atoms: N_107  and  CA_108 
REMARK   47  A    between atoms: CA_108  and  C_109 
REMARK   48  A    between atoms: CA_108  and  CB_111 
REMARK       I    between atoms: C_109  and  N_119 
REMARK   49  A    between atoms: CB_111  and  CG_112 
REMARK   50  A    between atoms: CG_112  and  CD_113 
REMARK       I    between atoms: CD_113  and  NE2_114 
REMARK   51  A    between atoms: N_119  and  CA_120 
REMARK   52  A    between atoms: CA_120  and  C_121 
REMARK   53  A    between atoms: CA_120  and  CB_123 
REMARK       I    between atoms: C_121  and  N_136 
REMARK   54  A    between atoms: CB_123  and  CG_124 
REMARK   55  A    between atoms: CG_124  and  CD_125 
REMARK   56  A    between atoms: CD_125  and  NE_126 
REMARK       I    between atoms: NE_126  and  CZ_127 
REMARK       I    between atoms: CZ_127  and  NH1_128 
REMARK       I    between atoms: CZ_127  and  NH2_129 
REMARK   57  A    between atoms: N_136  and  CA_137 
REMARK   58  A    between atoms: CA_137  and  C_138 
REMARK   59  A    between atoms: CA_137  and  CB_140 
REMARK       I    between atoms: C_138  and  N_144 
REMARK   60  A    between atoms: N_144  and  CA_145 
REMARK   61  A    between atoms: CA_145  and  C_146 
REMARK   62  A    between atoms: CA_145  and  CB_148 
REMARK       I    between atoms: C_146  and  N_153 
REMARK   63  A    between atoms: CB_148  and  CG_149 
REMARK   64  A    between atoms: CG_149  and  SD_150 
REMARK   65  A    between atoms: N_153  and  CA_154 
REMARK   66  A    between atoms: CA_154  and  C_155 
REMARK   67  A    between atoms: CA_154  and  CB_157 
REMARK   68  A    between atoms: CB_157  and  CG_158 
REMARK   69  A    between atoms: CG_158  and  CD_159 
REMARK   70  A    between atoms: CD_159  and  NE_160 
REMARK       I    between atoms: NE_160  and  CZ_161 
REMARK       I    between atoms: CZ_161  and  NH1_162 
ROOT
ATOM      1  C   GLU d   9     690.727 178.295-641.317  0.00  0.00     0.241 C 
ATOM      2  O   GLU d   9     691.391 179.050-642.042  0.00  0.00    -0.271 OA
ATOM      3  N   HIS d  10     690.824 177.020-641.486  0.00  0.00    -0.346 N 
ATOM      4  H   HIS d  10     690.294 176.384-640.908  0.00  0.00     0.163 HD
ENDROOT
BRANCH   1   5
ATOM      5  CA  GLU d   9     689.809 178.822-640.241  0.00  0.00     0.177 C 
BRANCH   5   6
ATOM      6  N   GLU d   9     688.507 178.164-640.296  0.00  0.00    -0.346 N 
ATOM      7  C   ASP d   8     687.827 178.214-641.391  0.00  0.00     0.241 C 
ATOM      8  O   ASP d   8     688.299 178.819-642.366  0.00  0.00    -0.271 OA
ATOM      9  H   GLU d   9     688.144 177.678-639.489  0.00  0.00     0.163 HD
BRANCH   7  10
ATOM     10  CA  ASP d   8     686.480 177.534-641.448  0.00  0.00     0.186 C 
BRANCH  10  11
ATOM     11  N   ASP d   8     686.551 176.184-640.895  0.00  0.00    -0.346 N 
ATOM     12  C   LEU d   7     687.389 175.344-641.401  0.00  0.00     0.241 C 
ATOM     13  O   LEU d   7     688.109 175.707-642.344  0.00  0.00    -0.271 OA
ATOM     14  H   ASP d   8     685.954 175.913-640.127  0.00  0.00     0.163 HD
BRANCH  12  15
ATOM     15  CA  LEU d   7     687.462 173.949-640.829  0.00  0.00     0.177 C 
BRANCH  15  16
ATOM     16  N   LEU d   7     687.517 173.984-639.371  0.00  0.00    -0.346 N 
ATOM     17  C   ILE d   6     688.462 174.648-638.797  0.00  0.00     0.241 C 
ATOM     18  O   ILE d   6     689.297 175.236-639.501  0.00  0.00    -0.271 OA
ATOM     19  H   LEU d   7     686.825 173.497-638.819  0.00  0.00     0.163 HD
BRANCH  17  20
ATOM     20  CA  ILE d   6     688.520 174.686-637.289  0.00  0.00     0.180 C 
BRANCH  20  21
ATOM     21  N   ILE d   6     687.207 174.980-636.723  0.00  0.00    -0.346 N 
ATOM     22  C   SER d   5     686.601 176.063-637.077  0.00  0.00     0.243 C 
ATOM     23  O   SER d   5     687.148 176.817-637.882  0.00  0.00    -0.271 OA
ATOM     24  H   ILE d   6     686.779 174.346-636.064  0.00  0.00     0.163 HD
BRANCH  22  25
ATOM     25  CA  SER d   5     685.243 176.368-636.491  0.00  0.00     0.200 C 
BRANCH  25  26
ATOM     26  N   SER d   5     684.374 175.196-636.549  0.00  0.00    -0.344 N 
ATOM     27  C   LYS d   4     684.146 174.644-637.692  0.00  0.00     0.241 C 
ATOM     28  O   LYS d   4     684.672 175.123-638.707  0.00  0.00    -0.271 OA
ATOM     29  H   SER d   5     683.957 174.825-635.708  0.00  0.00     0.163 HD
BRANCH  27  30
ATOM     30  CA  LYS d   4     683.247 173.431-637.753  0.00  0.00     0.176 C 
BRANCH  30  31
ATOM     31  N   LYS d   4     683.607 172.460-636.724  0.00  0.00    -0.346 N 
ATOM     32  C   PRO d   3     684.812 172.000-636.692  0.00  0.00     0.241 C 
ATOM     33  O   PRO d   3     685.635 172.384-637.523  0.00  0.00    -0.271 OA
ATOM     34  H   LYS d   4     682.923 172.153-636.047  0.00  0.00     0.163 HD
BRANCH  32  35
ATOM     35  CA  PRO d   3     685.210 170.977-635.615  0.00  0.00     0.179 C 
ATOM     36  N   PRO d   3     684.758 171.386-634.293  0.00  0.00    -0.337 N 
ATOM     37  C   ASN d   2     685.280 172.381-633.659  0.00  0.00     0.243 C 
ATOM     38  CD  PRO d   3     683.680 170.593-633.744  0.00  0.00     0.127 C 
ATOM     39  O   ASN d   2     686.195 173.012-634.188  0.00  0.00    -0.271 OA
ATOM     40  CG  PRO d   3     683.223 169.774-634.954  0.00  0.00     0.022 C 
ATOM     41  CB  PRO d   3     684.506 169.622-635.784  0.00  0.00     0.037 C 
BRANCH  37  42
ATOM     42  CA  ASN d   2     684.748 172.737-632.290  0.00  0.00     0.185 C 
BRANCH  42  43
ATOM     43  N   ASN d   2     683.289 172.775-632.290  0.00  0.00    -0.346 N 
ATOM     44  C   GLU d   1     682.685 173.561-633.115  0.00  0.00     0.242 C 
ATOM     45  O   GLU d   1     683.360 174.260-633.884  0.00  0.00    -0.271 OA
ATOM     46  H   ASN d   2     682.761 172.196-631.654  0.00  0.00     0.163 HD
BRANCH  44  47
ATOM     47  CA  GLU d   1     681.176 173.601-633.115  0.00  0.00     0.191 C 
BRANCH  47  48
ATOM     48  N   GLU d   1     680.617 172.252-633.115  0.00  0.00    -0.326 NA
ATOM     49  H   GLU d   1     681.244 171.373-633.115  0.00  0.00     0.180 HD
ENDBRANCH  47  48
BRANCH  47  50
ATOM     50  CB  GLU d   1     680.653 174.386-631.878  0.00  0.00     0.047 C 
BRANCH  50  51
ATOM     51  CG  GLU d   1     681.128 175.871-631.767  0.00  0.00     0.116 C 
BRANCH  51  52
ATOM     52  CD  GLU d   1     680.703 176.675-630.552  0.00  0.00     0.172 C 
ATOM     53  OE1 GLU d   1     679.976 176.173-629.674  0.00  0.00    -0.648 OA
ATOM     54  OE2 GLU d   1     681.134 177.845-630.480  0.00  0.00    -0.648 OA
ENDBRANCH  51  52
ENDBRANCH  50  51
ENDBRANCH  47  50
ENDBRANCH  44  47
ENDBRANCH  42  43
BRANCH  42  55
ATOM     55  CB  ASN d   2     685.241 171.714-631.226  0.00  0.00     0.137 C 
BRANCH  55  56
ATOM     56  CG  ASN d   2     684.778 171.938-629.783  0.00  0.00     0.217 C 
ATOM     57  ND2 ASN d   2     685.372 172.853-629.065  0.00  0.00    -0.370 N 
ATOM     58 21HD ASN d   2     684.891 173.026-628.178  0.00  0.00     0.159 HD
ATOM     59 22HD ASN d   2     686.073 173.424-629.534  0.00  0.00     0.159 HD
ATOM     60  OD1 ASN d   2     683.857 171.304-629.289  0.00  0.00    -0.274 OA
ENDBRANCH  55  56
ENDBRANCH  42  55
ENDBRANCH  37  42
ENDBRANCH  32  35
ENDBRANCH  30  31
BRANCH  30  61
ATOM     61  CB  LYS d   4     681.757 173.835-637.584  0.00  0.00     0.035 C 
BRANCH  61  62
ATOM     62  CG  LYS d   4     681.254 174.809-638.679  0.00  0.00     0.004 C 
BRANCH  62  63
ATOM     63  CD  LYS d   4     679.808 175.281-638.506  0.00  0.00     0.027 C 
BRANCH  63  64
ATOM     64  CE  LYS d   4     679.470 176.289-639.612  0.00  0.00     0.229 C 
BRANCH  64  65
ATOM     65  NZ  LYS d   4     678.034 176.615-639.556  0.00  0.00    -0.079 N 
ATOM     66  3HZ LYS d   4     677.557 175.892-640.076  0.00  0.00     0.274 HD
ATOM     67  1HZ LYS d   4     677.710 176.655-638.582  0.00  0.00     0.274 HD
ATOM     68  2HZ LYS d   4     677.844 177.539-639.958  0.00  0.00     0.274 HD
ENDBRANCH  64  65
ENDBRANCH  63  64
ENDBRANCH  62  63
ENDBRANCH  61  62
ENDBRANCH  30  61
ENDBRANCH  27  30
ENDBRANCH  25  26
BRANCH  25  69
ATOM     69  CB  SER d   5     685.354 176.900-635.040  0.00  0.00     0.199 C 
BRANCH  69  70
ATOM     70  OG  SER d   5     686.086 176.021-634.180  0.00  0.00    -0.398 OA
ATOM     71  HG  SER d   5     685.598 175.196-634.129  0.00  0.00     0.209 HD
ENDBRANCH  69  70
ENDBRANCH  25  69
ENDBRANCH  22  25
ENDBRANCH  20  21
BRANCH  20  72
ATOM     72  CB  ILE d   6     689.120 173.350-636.689  0.00  0.00     0.013 C 
ATOM     73  CG2 ILE d   6     690.562 173.048-637.205  0.00  0.00     0.012 C 
BRANCH  72  74
ATOM     74  CG1 ILE d   6     689.140 173.288-635.128  0.00  0.00     0.002 C 
ATOM     75  CD1 ILE d   6     689.410 171.898-634.514  0.00  0.00     0.005 C 
ENDBRANCH  72  74
ENDBRANCH  20  72
ENDBRANCH  17  20
ENDBRANCH  15  16
BRANCH  15  76
ATOM     76  CB  LEU d   7     686.259 173.088-641.309  0.00  0.00     0.038 C 
BRANCH  76  77
ATOM     77  CG  LEU d   7     686.186 171.609-640.843  0.00  0.00    -0.020 C 
ATOM     78  CD1 LEU d   7     684.997 170.902-641.509  0.00  0.00     0.009 C 
ATOM     79  CD2 LEU d   7     687.480 170.830-641.135  0.00  0.00     0.009 C 
ENDBRANCH  76  77
ENDBRANCH  15  76
ENDBRANCH  12  15
ENDBRANCH  10  11
BRANCH  10  80
ATOM     80  CB  ASP d   8     685.402 178.372-640.706  0.00  0.00     0.147 C 
BRANCH  80  81
ATOM     81  CG  ASP d   8     685.183 179.793-641.246  0.00  0.00     0.175 C 
ATOM     82  OD1 ASP d   8     685.247 179.992-642.477  0.00  0.00    -0.648 OA
ATOM     83  OD2 ASP d   8     684.990 180.719-640.431  0.00  0.00    -0.648 OA
ENDBRANCH  80  81
ENDBRANCH  10  80
ENDBRANCH   7  10
ENDBRANCH   5   6
BRANCH   5  84
ATOM     84  CB  GLU d   9     690.443 178.615-638.835  0.00  0.00     0.045 C 
BRANCH  84  85
ATOM     85  CG  GLU d   9     691.825 179.308-638.606  0.00  0.00     0.116 C 
BRANCH  85  86
ATOM     86  CD  GLU d   9     692.528 179.094-637.278  0.00  0.00     0.172 C 
ATOM     87  OE1 GLU d   9     692.006 178.403-636.382  0.00  0.00    -0.648 OA
ATOM     88  OE2 GLU d   9     693.646 179.633-637.146  0.00  0.00    -0.648 OA
ENDBRANCH  85  86
ENDBRANCH  84  85
ENDBRANCH   5  84
ENDBRANCH   1   5
BRANCH   3  89
ATOM     89  CA  HIS d  10     691.712 176.509-642.527  0.00  0.00     0.182 C 
BRANCH  89  90
ATOM     90  C   HIS d  10     691.345 177.074-643.878  0.00  0.00     0.241 C 
ATOM     91  O   HIS d  10     692.197 177.539-644.650  0.00  0.00    -0.271 OA
ATOM     92  N   VAL d  11     690.107 177.072-644.241  0.00  0.00    -0.346 N 
ATOM     93  H   VAL d  11     689.395 176.699-643.630  0.00  0.00     0.163 HD
BRANCH  92  94
ATOM     94  CA  VAL d  11     689.752 177.618-645.547  0.00  0.00     0.180 C 
BRANCH  94  95
ATOM     95  C   VAL d  11     690.216 179.049-645.680  0.00  0.00     0.241 C 
ATOM     96  O   VAL d  11     690.816 179.455-646.683  0.00  0.00    -0.271 OA
ATOM     97  N   GLN d  12     689.978 179.875-644.717  0.00  0.00    -0.346 N 
ATOM     98  H   GLN d  12     689.490 179.568-643.888  0.00  0.00     0.163 HD
BRANCH  97  99
ATOM     99  CA  GLN d  12     690.426 181.258-644.844  0.00  0.00     0.177 C 
BRANCH  99 100
ATOM    100  C   GLN d  12     691.916 181.326-645.082  0.00  0.00     0.241 C 
ATOM    101  O   GLN d  12     692.402 182.035-645.961  0.00  0.00    -0.271 OA
ATOM    102  N   ARG d  13     692.701 180.620-644.342  0.00  0.00    -0.346 N 
ATOM    103  H   ARG d  13     692.325 180.029-643.613  0.00  0.00     0.163 HD
BRANCH 102 104
ATOM    104  CA  ARG d  13     694.141 180.686-644.572  0.00  0.00     0.176 C 
BRANCH 104 105
ATOM    105  C   ARG d  13     694.477 180.315-645.997  0.00  0.00     0.241 C 
ATOM    106  O   ARG d  13     695.245 180.987-646.682  0.00  0.00    -0.271 OA
ATOM    107  N   VAL d  14     693.941 179.261-646.512  0.00  0.00    -0.346 N 
ATOM    108  H   VAL d  14     693.307 178.692-645.970  0.00  0.00     0.163 HD
BRANCH 107 109
ATOM    109  CA  VAL d  14     694.266 178.902-647.890  0.00  0.00     0.180 C 
BRANCH 109 110
ATOM    110  C   VAL d  14     693.935 180.032-648.835  0.00  0.00     0.241 C 
ATOM    111  O   VAL d  14     694.728 180.414-649.705  0.00  0.00    -0.271 OA
ATOM    112  N   MET d  15     692.790 180.617-648.733  0.00  0.00    -0.346 N 
ATOM    113  H   MET d  15     692.126 180.324-648.031  0.00  0.00     0.163 HD
BRANCH 112 114
ATOM    114  CA  MET d  15     692.469 181.710-649.646  0.00  0.00     0.177 C 
BRANCH 114 115
ATOM    115  C   MET d  15     693.499 182.810-649.558  0.00  0.00     0.241 C 
ATOM    116  O   MET d  15     694.001 183.322-650.571  0.00  0.00    -0.271 OA
ATOM    117  N   ARG d  16     693.868 183.231-648.396  0.00  0.00    -0.347 N 
ATOM    118  H   ARG d  16     693.473 182.831-647.557  0.00  0.00     0.163 HD
BRANCH 117 119
ATOM    119  CA  ARG d  16     694.864 184.296-648.312  0.00  0.00     0.162 C 
BRANCH 119 120
ATOM    120  C   ARG d  16     696.134 183.904-649.029  0.00  0.00     0.219 C 
ATOM    121  O   ARG d  16     696.249 182.827-649.610  0.00  0.00    -0.287 OA
ENDBRANCH 119 120
BRANCH 119 122
ATOM    122  CB  ARG d  16     695.133 184.613-646.814  0.00  0.00     0.035 C 
BRANCH 122 123
ATOM    123  CG  ARG d  16     695.957 185.902-646.541  0.00  0.00     0.023 C 
BRANCH 123 124
ATOM    124  CD  ARG d  16     696.207 186.122-645.040  0.00  0.00     0.138 C 
BRANCH 124 125
ATOM    125  NE  ARG d  16     696.983 187.381-644.838  0.00  0.00    -0.227 N 
ATOM    126  CZ  ARG d  16     697.374 187.863-643.663  0.00  0.00     0.665 C 
ATOM    127  NH1 ARG d  16     697.127 187.278-642.524  0.00  0.00    -0.235 N 
ATOM    128  NH2 ARG d  16     698.037 188.976-643.644  0.00  0.00    -0.235 N 
ATOM    129 11HH ARG d  16     696.602 186.405-642.609  0.00  0.00     0.174 HD
ATOM    130 12HH ARG d  16     697.461 187.714-641.663  0.00  0.00     0.174 HD
ATOM    131 21HH ARG d  16     698.223 189.419-644.546  0.00  0.00     0.174 HD
ATOM    132 22HH ARG d  16     698.328 189.331-642.731  0.00  0.00     0.174 HD
ATOM    133  HE  ARG d  16     697.261 187.962-645.635  0.00  0.00     0.177 HD
ENDBRANCH 124 125
ENDBRANCH 123 124
ENDBRANCH 122 123
ENDBRANCH 119 122
ENDBRANCH 117 119
ENDBRANCH 114 115
BRANCH 114 134
ATOM    134  CB  MET d  15     691.048 182.255-649.337  0.00  0.00     0.045 C 
BRANCH 134 135
ATOM    135  CG  MET d  15     689.886 181.256-649.528  0.00  0.00     0.076 C 
BRANCH 135 136
ATOM    136  SD  MET d  15     688.312 182.121-649.413  0.00  0.00    -0.173 SA
ATOM    137  CE  MET d  15     687.231 180.691-649.277  0.00  0.00     0.089 C 
ENDBRANCH 135 136
ENDBRANCH 134 135
ENDBRANCH 114 134
ENDBRANCH 112 114
ENDBRANCH 109 110
BRANCH 109 138
ATOM    138  CB  VAL d  14     693.495 177.584-648.297  0.00  0.00     0.009 C 
ATOM    139  CG1 VAL d  14     693.584 177.167-649.790  0.00  0.00     0.012 C 
ATOM    140  CG2 VAL d  14     693.927 176.332-647.497  0.00  0.00     0.012 C 
ENDBRANCH 109 138
ENDBRANCH 107 109
ENDBRANCH 104 105
BRANCH 104 141
ATOM    141  CB  ARG d  13     694.855 179.747-643.559  0.00  0.00     0.036 C 
BRANCH 141 142
ATOM    142  CG  ARG d  13     696.400 179.901-643.478  0.00  0.00     0.023 C 
BRANCH 142 143
ATOM    143  CD  ARG d  13     697.027 178.914-642.480  0.00  0.00     0.138 C 
BRANCH 143 144
ATOM    144  NE  ARG d  13     698.504 179.122-642.430  0.00  0.00    -0.227 N 
ATOM    145  CZ  ARG d  13     699.353 178.430-641.675  0.00  0.00     0.665 C 
ATOM    146  NH1 ARG d  13     698.988 177.466-640.878  0.00  0.00    -0.235 N 
ATOM    147  NH2 ARG d  13     700.612 178.730-641.732  0.00  0.00    -0.235 N 
ATOM    148 11HH ARG d  13     697.983 177.279-640.881  0.00  0.00     0.174 HD
ATOM    149 12HH ARG d  13     699.702 176.983-640.329  0.00  0.00     0.174 HD
ATOM    150 21HH ARG d  13     700.879 179.488-642.363  0.00  0.00     0.174 HD
ATOM    151 22HH ARG d  13     701.248 178.189-641.143  0.00  0.00     0.174 HD
ATOM    152  HE  ARG d  13     698.955 179.844-643.000  0.00  0.00     0.177 HD
ENDBRANCH 143 144
ENDBRANCH 142 143
ENDBRANCH 141 142
ENDBRANCH 104 141
ENDBRANCH 102 104
ENDBRANCH  99 100
BRANCH  99 153
ATOM    153  CB  GLN d  12     690.035 182.025-643.561  0.00  0.00     0.044 C 
BRANCH 153 154
ATOM    154  CG  GLN d  12     690.394 183.547-643.530  0.00  0.00     0.105 C 
BRANCH 154 155
ATOM    155  CD  GLN d  12     690.091 184.360-642.265  0.00  0.00     0.215 C 
ATOM    156  NE2 GLN d  12     689.525 183.783-641.236  0.00  0.00    -0.370 N 
ATOM    157 21HE GLN d  12     689.417 184.377-640.412  0.00  0.00     0.159 HD
ATOM    158 22HE GLN d  12     689.362 182.779-641.340  0.00  0.00     0.159 HD
ATOM    159  OE1 GLN d  12     690.392 185.541-642.187  0.00  0.00    -0.274 OA
ENDBRANCH 154 155
ENDBRANCH 153 154
ENDBRANCH  99 153
ENDBRANCH  97  99
ENDBRANCH  94  95
BRANCH  94 160
ATOM    160  CB  VAL d  11     688.191 177.511-645.767  0.00  0.00     0.009 C 
ATOM    161  CG1 VAL d  11     687.621 178.215-647.029  0.00  0.00     0.012 C 
ATOM    162  CG2 VAL d  11     687.667 176.056-645.840  0.00  0.00     0.012 C 
ENDBRANCH  94 160
ENDBRANCH  92  94
ENDBRANCH  89  90
BRANCH  89 163
ATOM    163  CB  HIS d  10     691.549 174.980-642.522  0.00  0.00     0.095 C 
BRANCH 163 164
ATOM    164  CG  HIS d  10     692.835 174.271-642.214  0.00  0.00     0.053 A 
ATOM    165  CD2 HIS d  10     693.216 173.935-640.922  0.00  0.00     0.116 A 
ATOM    166  NE2 HIS d  10     694.432 173.304-640.989  0.00  0.00    -0.359 N 
ATOM    167  CE1 HIS d  10     694.694 173.307-642.324  0.00  0.00     0.207 A 
ATOM    168  2HE HIS d  10     694.999 172.927-640.215  0.00  0.00     0.166 HD
ATOM    169  ND1 HIS d  10     693.787 173.865-643.147  0.00  0.00    -0.247 NA
ENDBRANCH 163 164
ENDBRANCH  89 163
ENDBRANCH   3  89
TORSDOF 70
