REMARK WARNING: 32 MAX_TORS EXCEEDED!!!
REMARK  65 active torsions:
REMARK  status: ('A' for Active; 'I' for Inactive)
REMARK    1  A    between atoms: N_1  and  CA_2 
REMARK    2  A    between atoms: CA_2  and  C_3 
REMARK    3  A    between atoms: CA_2  and  CB_5 
REMARK       I    between atoms: C_3  and  N_11 
REMARK    4  A    between atoms: CB_5  and  CG_6 
REMARK    5  A    between atoms: CG_6  and  CD_7 
REMARK    6  A    between atoms: N_11  and  CA_12 
REMARK    7  A    between atoms: CA_12  and  C_13 
REMARK    8  A    between atoms: CA_12  and  CB_15 
REMARK       I    between atoms: C_13  and  N_22 
REMARK    9  A    between atoms: CB_15  and  CG_16 
REMARK       I    between atoms: CG_16  and  ND2_17 
REMARK   10  A    between atoms: CA_23  and  C_24 
REMARK       I    between atoms: C_24  and  N_29 
REMARK   11  A    between atoms: N_29  and  CA_30 
REMARK   12  A    between atoms: CA_30  and  C_31 
REMARK   13  A    between atoms: CA_30  and  CB_33 
REMARK       I    between atoms: C_31  and  N_39 
REMARK   14  A    between atoms: CB_33  and  CG_34 
REMARK   15  A    between atoms: CG_34  and  CD_35 
REMARK   16  A    between atoms: N_39  and  CA_40 
REMARK   17  A    between atoms: CA_40  and  C_41 
REMARK   18  A    between atoms: CA_40  and  CB_43 
REMARK       I    between atoms: C_41  and  N_47 
REMARK   19  A    between atoms: CB_43  and  OG_44 
REMARK   20  A    between atoms: N_47  and  CA_48 
REMARK   21  A    between atoms: CA_48  and  C_49 
REMARK   22  A    between atoms: CA_48  and  CB_51 
REMARK       I    between atoms: C_49  and  N_56 
REMARK   23  A    between atoms: CB_51  and  CG1_52 
REMARK   24  A    between atoms: N_56  and  CA_57 
REMARK   25  A    between atoms: CA_57  and  C_58 
REMARK   26  A    between atoms: CA_57  and  CB_60 
REMARK       I    between atoms: C_58  and  N_65 
REMARK   27  A    between atoms: CB_60  and  CG_61 
REMARK   28  A    between atoms: N_65  and  CA_66 
REMARK   29  A    between atoms: CA_66  and  C_67 
REMARK   30  A    between atoms: CA_66  and  CB_69 
REMARK       I    between atoms: C_67  and  N_74 
REMARK   31  A    between atoms: CB_69  and  CG_70 
REMARK   32  A    between atoms: N_74  and  CA_75 
REMARK   33  A    between atoms: CA_75  and  C_76 
REMARK   34  A    between atoms: CA_75  and  CB_78 
REMARK       I    between atoms: C_76  and  N_84 
REMARK   35  A    between atoms: CB_78  and  CG_79 
REMARK   36  A    between atoms: CG_79  and  CD_80 
REMARK   37  A    between atoms: N_84  and  CA_85 
REMARK   38  A    between atoms: CA_85  and  C_86 
REMARK   39  A    between atoms: CA_85  and  CB_88 
REMARK       I    between atoms: C_86  and  N_96 
REMARK   40  A    between atoms: CB_88  and  CG_89 
REMARK   41  A    between atoms: N_96  and  CA_97 
REMARK   42  A    between atoms: CA_97  and  C_98 
REMARK   43  A    between atoms: CA_97  and  CB_100 
REMARK       I    between atoms: C_98  and  N_104 
REMARK   44  A    between atoms: N_104  and  CA_105 
REMARK   45  A    between atoms: CA_105  and  C_106 
REMARK   46  A    between atoms: CA_105  and  CB_108 
REMARK       I    between atoms: C_106  and  N_116 
REMARK   47  A    between atoms: CB_108  and  CG_109 
REMARK   48  A    between atoms: CG_109  and  CD_110 
REMARK       I    between atoms: CD_110  and  NE2_111 
REMARK   49  A    between atoms: N_116  and  CA_117 
REMARK   50  A    between atoms: CA_117  and  C_118 
REMARK   51  A    between atoms: CA_117  and  CB_120 
REMARK       I    between atoms: C_118  and  N_133 
REMARK   52  A    between atoms: CB_120  and  CG_121 
REMARK   53  A    between atoms: CG_121  and  CD_122 
REMARK   54  A    between atoms: CD_122  and  NE_123 
REMARK       I    between atoms: NE_123  and  CZ_124 
REMARK       I    between atoms: CZ_124  and  NH1_125 
REMARK       I    between atoms: CZ_124  and  NH2_126 
REMARK   55  A    between atoms: N_133  and  CA_134 
REMARK   56  A    between atoms: CA_134  and  C_135 
REMARK   57  A    between atoms: CA_134  and  CB_137 
REMARK       I    between atoms: C_135  and  N_141 
REMARK   58  A    between atoms: N_141  and  CA_142 
REMARK   59  A    between atoms: CA_142  and  C_143 
REMARK       I    between atoms: C_143  and  N_147 
REMARK   60  A    between atoms: N_147  and  CA_148 
REMARK   61  A    between atoms: CA_148  and  C_149 
REMARK   62  A    between atoms: CA_148  and  CB_151 
REMARK   63  A    between atoms: CB_151  and  CG_152 
REMARK   64  A    between atoms: CG_152  and  CD_153 
REMARK   65  A    between atoms: CD_153  and  NE_154 
REMARK       I    between atoms: NE_154  and  CZ_155 
REMARK       I    between atoms: CZ_155  and  NH1_156 
ROOT
ATOM      1  C   GLU d   9    2343.228 719.749-2435.145  0.00  0.00     0.241 C 
ATOM      2  O   GLU d   9    2343.892 720.502-2435.871  0.00  0.00    -0.271 OA
ATOM      3  N   HIS d  10    2343.324 718.473-2435.314  0.00  0.00    -0.346 N 
ATOM      4  H   HIS d  10    2342.793 717.839-2434.735  0.00  0.00     0.163 HD
ENDROOT
BRANCH   1   5
ATOM      5  CA  GLU d   9    2342.311 720.277-2434.069  0.00  0.00     0.177 C 
BRANCH   5   6
ATOM      6  N   GLU d   9    2341.007 719.620-2434.124  0.00  0.00    -0.346 N 
ATOM      7  C   ASP d   8    2340.327 719.670-2435.219  0.00  0.00     0.241 C 
ATOM      8  O   ASP d   8    2340.800 720.274-2436.194  0.00  0.00    -0.271 OA
ATOM      9  H   GLU d   9    2340.644 719.135-2433.317  0.00  0.00     0.163 HD
BRANCH   7  10
ATOM     10  CA  ASP d   8    2338.980 718.991-2435.276  0.00  0.00     0.186 C 
BRANCH  10  11
ATOM     11  N   ASP d   8    2339.050 717.642-2434.722  0.00  0.00    -0.346 N 
ATOM     12  C   LEU d   7    2339.887 716.800-2435.228  0.00  0.00     0.241 C 
ATOM     13  O   LEU d   7    2340.608 717.162-2436.170  0.00  0.00    -0.271 OA
ATOM     14  H   ASP d   8    2338.452 717.371-2433.954  0.00  0.00     0.163 HD
BRANCH  12  15
ATOM     15  CA  LEU d   7    2339.959 715.405-2434.655  0.00  0.00     0.177 C 
BRANCH  15  16
ATOM     16  N   LEU d   7    2340.014 715.441-2433.196  0.00  0.00    -0.346 N 
ATOM     17  C   ILE d   6    2340.960 716.104-2432.623  0.00  0.00     0.241 C 
ATOM     18  O   ILE d   6    2341.795 716.692-2433.327  0.00  0.00    -0.271 OA
ATOM     19  H   LEU d   7    2339.322 714.954-2432.645  0.00  0.00     0.163 HD
BRANCH  17  20
ATOM     20  CA  ILE d   6    2341.017 716.142-2431.115  0.00  0.00     0.180 C 
BRANCH  20  21
ATOM     21  N   ILE d   6    2339.704 716.438-2430.549  0.00  0.00    -0.346 N 
ATOM     22  C   SER d   5    2339.100 717.521-2430.903  0.00  0.00     0.243 C 
ATOM     23  O   SER d   5    2339.647 718.274-2431.708  0.00  0.00    -0.271 OA
ATOM     24  H   ILE d   6    2339.275 715.803-2429.890  0.00  0.00     0.163 HD
BRANCH  22  25
ATOM     25  CA  SER d   5    2337.741 717.827-2430.318  0.00  0.00     0.200 C 
BRANCH  25  26
ATOM     26  N   SER d   5    2336.871 716.656-2430.377  0.00  0.00    -0.344 N 
ATOM     27  C   GLU d   4    2336.644 716.103-2431.520  0.00  0.00     0.241 C 
ATOM     28  O   GLU d   4    2337.171 716.583-2432.534  0.00  0.00    -0.271 OA
ATOM     29  H   SER d   5    2336.453 716.284-2429.536  0.00  0.00     0.163 HD
BRANCH  27  30
ATOM     30  CA  GLU d   4    2335.745 714.892-2431.582  0.00  0.00     0.177 C 
BRANCH  30  31
ATOM     31  N   GLU d   4    2336.104 713.921-2430.552  0.00  0.00    -0.346 N 
ATOM     32  C   PRO d   3    2337.309 713.461-2430.519  0.00  0.00     0.241 C 
ATOM     33  O   PRO d   3    2338.132 713.844-2431.351  0.00  0.00    -0.271 OA
ATOM     34  H   GLU d   4    2335.419 713.615-2429.875  0.00  0.00     0.163 HD
BRANCH  32  35
ATOM     35  CA  PRO d   3    2337.706 712.438-2429.442  0.00  0.00     0.179 C 
ATOM     36  N   PRO d   3    2337.254 712.847-2428.121  0.00  0.00    -0.337 N 
ATOM     37  C   ASN d   2    2337.776 713.842-2427.487  0.00  0.00     0.243 C 
ATOM     38  CD  PRO d   3    2336.176 712.054-2427.572  0.00  0.00     0.127 C 
ATOM     39  O   ASN d   2    2338.691 714.472-2428.015  0.00  0.00    -0.271 OA
ATOM     40  CG  PRO d   3    2335.718 711.235-2428.782  0.00  0.00     0.022 C 
ATOM     41  CB  PRO d   3    2337.002 711.083-2429.612  0.00  0.00     0.037 C 
BRANCH  37  42
ATOM     42  CA  ASN d   2    2337.244 714.197-2426.118  0.00  0.00     0.185 C 
BRANCH  42  43
ATOM     43  N   ASN d   2    2335.785 714.236-2426.118  0.00  0.00    -0.346 N 
ATOM     44  C   GLU d   1    2335.180 715.022-2426.943  0.00  0.00     0.242 C 
ATOM     45  O   GLU d   1    2335.856 715.721-2427.712  0.00  0.00    -0.271 OA
ATOM     46  H   ASN d   2    2335.257 713.657-2425.482  0.00  0.00     0.163 HD
BRANCH  44  47
ATOM     47  CA  GLU d   1    2333.671 715.062-2426.943  0.00  0.00     0.191 C 
BRANCH  47  48
ATOM     48  N   GLU d   1    2333.112 713.713-2426.943  0.00  0.00    -0.326 NA
ATOM     49  H   GLU d   1    2333.739 712.834-2426.943  0.00  0.00     0.180 HD
ENDBRANCH  47  48
BRANCH  47  50
ATOM     50  CB  GLU d   1    2333.148 715.847-2425.707  0.00  0.00     0.047 C 
BRANCH  50  51
ATOM     51  CG  GLU d   1    2333.623 717.332-2425.595  0.00  0.00     0.116 C 
BRANCH  51  52
ATOM     52  CD  GLU d   1    2333.199 718.136-2424.380  0.00  0.00     0.172 C 
ATOM     53  OE1 GLU d   1    2332.471 717.634-2423.502  0.00  0.00    -0.648 OA
ATOM     54  OE2 GLU d   1    2333.629 719.306-2424.308  0.00  0.00    -0.648 OA
ENDBRANCH  51  52
ENDBRANCH  50  51
ENDBRANCH  47  50
ENDBRANCH  44  47
ENDBRANCH  42  43
BRANCH  42  55
ATOM     55  CB  ASN d   2    2337.736 713.174-2425.053  0.00  0.00     0.137 C 
BRANCH  55  56
ATOM     56  CG  ASN d   2    2337.272 713.398-2423.610  0.00  0.00     0.217 C 
ATOM     57  ND2 ASN d   2    2337.866 714.313-2422.892  0.00  0.00    -0.370 N 
ATOM     58 21HD ASN d   2    2337.385 714.486-2422.006  0.00  0.00     0.159 HD
ATOM     59 22HD ASN d   2    2338.568 714.885-2423.361  0.00  0.00     0.159 HD
ATOM     60  OD1 ASN d   2    2336.351 712.765-2423.116  0.00  0.00    -0.274 OA
ENDBRANCH  55  56
ENDBRANCH  42  55
ENDBRANCH  37  42
ENDBRANCH  32  35
ENDBRANCH  30  31
BRANCH  30  61
ATOM     61  CB  GLU d   4    2334.256 715.312-2431.412  0.00  0.00     0.045 C 
BRANCH  61  62
ATOM     62  CG  GLU d   4    2333.709 716.315-2432.478  0.00  0.00     0.116 C 
BRANCH  62  63
ATOM     63  CD  GLU d   4    2332.282 716.812-2432.335  0.00  0.00     0.172 C 
ATOM     64  OE1 GLU d   4    2331.555 716.414-2431.404  0.00  0.00    -0.648 OA
ATOM     65  OE2 GLU d   4    2331.893 717.642-2433.183  0.00  0.00    -0.648 OA
ENDBRANCH  62  63
ENDBRANCH  61  62
ENDBRANCH  30  61
ENDBRANCH  27  30
ENDBRANCH  25  26
BRANCH  25  66
ATOM     66  CB  SER d   5    2337.852 718.359-2428.868  0.00  0.00     0.199 C 
BRANCH  66  67
ATOM     67  OG  SER d   5    2338.583 717.479-2428.007  0.00  0.00    -0.398 OA
ATOM     68  HG  SER d   5    2338.094 716.655-2427.956  0.00  0.00     0.209 HD
ENDBRANCH  66  67
ENDBRANCH  25  66
ENDBRANCH  22  25
ENDBRANCH  20  21
BRANCH  20  69
ATOM     69  CB  ILE d   6    2341.616 714.806-2430.515  0.00  0.00     0.013 C 
ATOM     70  CG2 ILE d   6    2343.057 714.503-2431.030  0.00  0.00     0.012 C 
BRANCH  69  71
ATOM     71  CG1 ILE d   6    2341.635 714.743-2428.954  0.00  0.00     0.002 C 
ATOM     72  CD1 ILE d   6    2341.905 713.354-2428.339  0.00  0.00     0.005 C 
ENDBRANCH  69  71
ENDBRANCH  20  69
ENDBRANCH  17  20
ENDBRANCH  15  16
BRANCH  15  73
ATOM     73  CB  LEU d   7    2338.756 714.545-2435.135  0.00  0.00     0.038 C 
BRANCH  73  74
ATOM     74  CG  LEU d   7    2338.682 713.066-2434.669  0.00  0.00    -0.020 C 
ATOM     75  CD1 LEU d   7    2337.492 712.360-2435.334  0.00  0.00     0.009 C 
ATOM     76  CD2 LEU d   7    2339.976 712.286-2434.960  0.00  0.00     0.009 C 
ENDBRANCH  73  74
ENDBRANCH  15  73
ENDBRANCH  12  15
ENDBRANCH  10  11
BRANCH  10  77
ATOM     77  CB  ASP d   8    2337.903 719.831-2434.535  0.00  0.00     0.147 C 
BRANCH  77  78
ATOM     78  CG  ASP d   8    2337.685 721.251-2435.076  0.00  0.00     0.175 C 
ATOM     79  OD1 ASP d   8    2337.749 721.450-2436.307  0.00  0.00    -0.648 OA
ATOM     80  OD2 ASP d   8    2337.493 722.178-2434.261  0.00  0.00    -0.648 OA
ENDBRANCH  77  78
ENDBRANCH  10  77
ENDBRANCH   7  10
ENDBRANCH   5   6
BRANCH   5  81
ATOM     81  CB  GLU d   9    2342.944 720.070-2432.664  0.00  0.00     0.045 C 
BRANCH  81  82
ATOM     82  CG  GLU d   9    2344.327 720.762-2432.435  0.00  0.00     0.116 C 
BRANCH  82  83
ATOM     83  CD  GLU d   9    2345.029 720.549-2431.107  0.00  0.00     0.172 C 
ATOM     84  OE1 GLU d   9    2344.507 719.859-2430.210  0.00  0.00    -0.648 OA
ATOM     85  OE2 GLU d   9    2346.148 721.086-2430.976  0.00  0.00    -0.648 OA
ENDBRANCH  82  83
ENDBRANCH  81  82
ENDBRANCH   5  81
ENDBRANCH   1   5
BRANCH   3  86
ATOM     86  CA  HIS d  10    2344.211 717.961-2436.354  0.00  0.00     0.182 C 
BRANCH  86  87
ATOM     87  C   HIS d  10    2343.844 718.525-2437.706  0.00  0.00     0.241 C 
ATOM     88  O   HIS d  10    2344.697 718.989-2438.478  0.00  0.00    -0.271 OA
ATOM     89  N   VAL d  11    2342.606 718.525-2438.069  0.00  0.00    -0.346 N 
ATOM     90  H   VAL d  11    2341.893 718.153-2437.458  0.00  0.00     0.163 HD
BRANCH  89  91
ATOM     91  CA  VAL d  11    2342.251 719.070-2439.376  0.00  0.00     0.180 C 
BRANCH  91  92
ATOM     92  C   VAL d  11    2342.717 720.501-2439.509  0.00  0.00     0.241 C 
ATOM     93  O   VAL d  11    2343.318 720.905-2440.512  0.00  0.00    -0.271 OA
ATOM     94  N   GLN d  12    2342.480 721.327-2438.547  0.00  0.00    -0.346 N 
ATOM     95  H   GLN d  12    2341.991 721.021-2437.718  0.00  0.00     0.163 HD
BRANCH  94  96
ATOM     96  CA  GLN d  12    2342.929 722.710-2438.675  0.00  0.00     0.177 C 
BRANCH  96  97
ATOM     97  C   GLN d  12    2344.419 722.776-2438.913  0.00  0.00     0.241 C 
ATOM     98  O   GLN d  12    2344.906 723.484-2439.792  0.00  0.00    -0.271 OA
ATOM     99  N   ARG d  13    2345.204 722.069-2438.172  0.00  0.00    -0.346 N 
ATOM    100  H   ARG d  13    2344.827 721.480-2437.443  0.00  0.00     0.163 HD
BRANCH  99 101
ATOM    101  CA  ARG d  13    2346.644 722.134-2438.403  0.00  0.00     0.176 C 
BRANCH 101 102
ATOM    102  C   ARG d  13    2346.980 721.762-2439.828  0.00  0.00     0.241 C 
ATOM    103  O   ARG d  13    2347.749 722.433-2440.513  0.00  0.00    -0.271 OA
ATOM    104  N   VAL d  14    2346.443 720.707-2440.342  0.00  0.00    -0.346 N 
ATOM    105  H   VAL d  14    2345.808 720.139-2439.799  0.00  0.00     0.163 HD
BRANCH 104 106
ATOM    106  CA  VAL d  14    2346.768 720.347-2441.719  0.00  0.00     0.180 C 
BRANCH 106 107
ATOM    107  C   VAL d  14    2346.438 721.477-2442.665  0.00  0.00     0.241 C 
ATOM    108  O   VAL d  14    2347.230 721.858-2443.535  0.00  0.00    -0.271 OA
ATOM    109  N   ALA d  15    2345.293 722.063-2442.563  0.00  0.00    -0.346 N 
ATOM    110  H   ALA d  15    2344.628 721.771-2441.861  0.00  0.00     0.163 HD
BRANCH 109 111
ATOM    111  CA  ALA d  15    2344.974 723.155-2443.478  0.00  0.00     0.172 C 
ATOM    112  CB  ALA d  15    2343.554 723.644-2443.144  0.00  0.00     0.042 C 
BRANCH 111 113
ATOM    113  C   ALA d  15    2346.007 724.253-2443.389  0.00  0.00     0.240 C 
ATOM    114  O   ALA d  15    2346.511 724.763-2444.397  0.00  0.00    -0.271 OA
ATOM    115  N   ARG d  16    2346.375 724.673-2442.226  0.00  0.00    -0.347 N 
ATOM    116  H   ARG d  16    2345.978 724.273-2441.387  0.00  0.00     0.163 HD
BRANCH 115 117
ATOM    117  CA  ARG d  16    2347.373 725.734-2442.140  0.00  0.00     0.162 C 
BRANCH 117 118
ATOM    118  C   ARG d  16    2348.644 725.339-2442.855  0.00  0.00     0.219 C 
ATOM    119  O   ARG d  16    2348.756 724.263-2443.437  0.00  0.00    -0.287 OA
ENDBRANCH 117 118
BRANCH 117 120
ATOM    120  CB  ARG d  16    2347.641 726.050-2440.641  0.00  0.00     0.035 C 
BRANCH 120 121
ATOM    121  CG  ARG d  16    2348.469 727.337-2440.366  0.00  0.00     0.023 C 
BRANCH 121 122
ATOM    122  CD  ARG d  16    2348.717 727.555-2438.864  0.00  0.00     0.138 C 
BRANCH 122 123
ATOM    123  NE  ARG d  16    2349.495 728.812-2438.661  0.00  0.00    -0.227 N 
ATOM    124  CZ  ARG d  16    2349.886 729.292-2437.484  0.00  0.00     0.665 C 
ATOM    125  NH1 ARG d  16    2349.635 728.707-2436.347  0.00  0.00    -0.235 N 
ATOM    126  NH2 ARG d  16    2350.552 730.403-2437.464  0.00  0.00    -0.235 N 
ATOM    127 11HH ARG d  16    2349.108 727.836-2436.433  0.00  0.00     0.174 HD
ATOM    128 12HH ARG d  16    2349.969 729.142-2435.485  0.00  0.00     0.174 HD
ATOM    129 21HH ARG d  16    2350.740 730.846-2438.365  0.00  0.00     0.174 HD
ATOM    130 22HH ARG d  16    2350.842 730.757-2436.551  0.00  0.00     0.174 HD
ATOM    131  HE  ARG d  16    2349.777 729.393-2439.457  0.00  0.00     0.177 HD
ENDBRANCH 122 123
ENDBRANCH 121 122
ENDBRANCH 120 121
ENDBRANCH 117 120
ENDBRANCH 115 117
ENDBRANCH 111 113
ENDBRANCH 109 111
ENDBRANCH 106 107
BRANCH 106 132
ATOM    132  CB  VAL d  14    2345.995 719.030-2442.125  0.00  0.00     0.009 C 
ATOM    133  CG1 VAL d  14    2346.083 718.611-2443.618  0.00  0.00     0.012 C 
ATOM    134  CG2 VAL d  14    2346.426 717.778-2441.324  0.00  0.00     0.012 C 
ENDBRANCH 106 132
ENDBRANCH 104 106
ENDBRANCH 101 102
BRANCH 101 135
ATOM    135  CB  ARG d  13    2347.357 721.196-2437.389  0.00  0.00     0.036 C 
BRANCH 135 136
ATOM    136  CG  ARG d  13    2348.902 721.349-2437.308  0.00  0.00     0.023 C 
BRANCH 136 137
ATOM    137  CD  ARG d  13    2349.529 720.362-2436.310  0.00  0.00     0.138 C 
BRANCH 137 138
ATOM    138  NE  ARG d  13    2351.006 720.568-2436.260  0.00  0.00    -0.227 N 
ATOM    139  CZ  ARG d  13    2351.855 719.877-2435.505  0.00  0.00     0.665 C 
ATOM    140  NH1 ARG d  13    2351.490 718.914-2434.706  0.00  0.00    -0.235 N 
ATOM    141  NH2 ARG d  13    2353.114 720.176-2435.562  0.00  0.00    -0.235 N 
ATOM    142 11HH ARG d  13    2350.484 718.728-2434.709  0.00  0.00     0.174 HD
ATOM    143 12HH ARG d  13    2352.203 718.431-2434.157  0.00  0.00     0.174 HD
ATOM    144 21HH ARG d  13    2353.382 720.933-2436.194  0.00  0.00     0.174 HD
ATOM    145 22HH ARG d  13    2353.750 719.635-2434.973  0.00  0.00     0.174 HD
ATOM    146  HE  ARG d  13    2351.458 721.290-2436.832  0.00  0.00     0.177 HD
ENDBRANCH 137 138
ENDBRANCH 136 137
ENDBRANCH 135 136
ENDBRANCH 101 135
ENDBRANCH  99 101
ENDBRANCH  96  97
BRANCH  96 147
ATOM    147  CB  GLN d  12    2342.539 723.478-2437.393  0.00  0.00     0.044 C 
BRANCH 147 148
ATOM    148  CG  GLN d  12    2342.900 724.999-2437.362  0.00  0.00     0.105 C 
BRANCH 148 149
ATOM    149  CD  GLN d  12    2342.599 725.814-2436.098  0.00  0.00     0.215 C 
ATOM    150  NE2 GLN d  12    2342.032 725.238-2435.069  0.00  0.00    -0.370 N 
ATOM    151 21HE GLN d  12    2341.925 725.833-2434.245  0.00  0.00     0.159 HD
ATOM    152 22HE GLN d  12    2341.867 724.235-2435.171  0.00  0.00     0.159 HD
ATOM    153  OE1 GLN d  12    2342.901 726.995-2436.021  0.00  0.00    -0.274 OA
ENDBRANCH 148 149
ENDBRANCH 147 148
ENDBRANCH  96 147
ENDBRANCH  94  96
ENDBRANCH  91  92
BRANCH  91 154
ATOM    154  CB  VAL d  11    2340.690 718.964-2439.595  0.00  0.00     0.009 C 
ATOM    155  CG1 VAL d  11    2340.122 719.668-2440.858  0.00  0.00     0.012 C 
ATOM    156  CG2 VAL d  11    2340.165 717.510-2439.667  0.00  0.00     0.012 C 
ENDBRANCH  91 154
ENDBRANCH  89  91
ENDBRANCH  86  87
BRANCH  86 157
ATOM    157  CB  HIS d  10    2344.047 716.432-2436.349  0.00  0.00     0.095 C 
BRANCH 157 158
ATOM    158  CG  HIS d  10    2345.332 715.721-2436.041  0.00  0.00     0.053 A 
ATOM    159  CD2 HIS d  10    2345.713 715.387-2434.748  0.00  0.00     0.116 A 
ATOM    160  NE2 HIS d  10    2346.928 714.755-2434.815  0.00  0.00    -0.359 N 
ATOM    161  CE1 HIS d  10    2347.190 714.757-2436.150  0.00  0.00     0.207 A 
ATOM    162  2HE HIS d  10    2347.495 714.378-2434.042  0.00  0.00     0.166 HD
ATOM    163  ND1 HIS d  10    2346.283 715.315-2436.973  0.00  0.00    -0.247 NA
ENDBRANCH 157 158
ENDBRANCH  86 157
ENDBRANCH   3  86
TORSDOF 65
