@<TRIPOS>MOLECULE
1-2
264 266 16              
SMALL
USER_CHARGES
@<TRIPOS>ATOM
1	   N	9.312	2.440	-7.480	N.3	1	PRO1	-0.255	
2	  CA	9.822	3.443	-8.403	C.3	1	PRO1	-0.027	
3	   C	9.727	4.859	-7.810	C.2	1	PRO1	0.590	
4	   O	10.689	5.626	-7.868	O.2	1	PRO1	-0.575	
5	  CB	8.912	3.241	-9.624	C.3	1	PRO1	-0.007	
6	  CG	7.595	2.737	-9.015	C.3	1	PRO1	0.019	
7	  CD	8.059	1.832	-7.871	C.3	1	PRO1	0.019	
8	  HA	10.865	3.237	-8.655	 H	1	PRO1	0.064	
9	 2HB	9.337	2.460	-10.258	 H	1	PRO1	0.025	
10	 3HB	8.785	4.151	-10.215	 H	1	PRO1	0.025	
11	 2HG	6.976	2.202	-9.739	 H	1	PRO1	0.021	
12	 3HG	7.034	3.580	-8.607	 H	1	PRO1	0.021	
13	 2HD	8.242	0.815	-8.226	 H	1	PRO1	0.039	
14	 3HD	7.350	1.821	-7.040	 H	1	PRO1	0.039	
15	   N	8.633	5.245	-7.247	N.am	2	ASN2	-0.416	
16	  CA	8.562	6.593	-6.690	C.3	2	ASN2	0.014	
17	   C	9.650	6.812	-5.665	C.2	2	ASN2	0.597	
18	   O	10.352	7.822	-5.665	O.2	2	ASN2	-0.568	
19	  CB	7.157	6.820	-6.059	C.3	2	ASN2	-0.204	
20	  CG	5.946	6.627	-6.977	C.2	2	ASN2	0.713	
21	 ND2	5.635	7.576	-7.819	N.pl3	2	ASN2	-0.919	
22	 OD1	5.273	5.607	-6.962	O.2	2	ASN2	-0.593	
23	   H	7.838	4.625	-7.192	 H	2	ASN2	0.272	
24	  HA	8.730	7.319	-7.506	 H	2	ASN2	0.105	
25	 2HB	7.095	7.829	-5.611	 H	2	ASN2	0.080	
26	 3HB	7.021	6.131	-5.202	 H	2	ASN2	0.080	
27	1HD2	4.912	7.287	-8.483	 H	2	ASN2	0.420	
28	2HD2	6.268	8.374	-7.869	 H	2	ASN2	0.420	
29	   N	9.848	5.913	-4.761	N.am	3	PRO3	-0.255	
30	  CA	10.874	6.045	-3.738	C.3	3	PRO3	-0.027	
31	   C	12.287	5.904	-4.330	C.2	3	PRO3	0.590	
32	   O	13.170	6.710	-4.036	O.2	3	PRO3	-0.575	
33	  CB	10.510	4.904	-2.776	C.3	3	PRO3	-0.007	
34	  CG	9.861	3.853	-3.689	C.3	3	PRO3	0.019	
35	  CD	9.068	4.697	-4.689	C.3	3	PRO3	0.019	
36	  HA	10.797	7.015	-3.241	 H	3	PRO3	0.064	
37	 2HB	9.768	5.267	-2.061	 H	3	PRO3	0.025	
38	 3HB	11.373	4.517	-2.229	 H	3	PRO3	0.025	
39	 2HG	9.223	3.157	-3.139	 H	3	PRO3	0.021	
40	 3HG	10.638	3.298	-4.217	 H	3	PRO3	0.021	
41	 2HD	8.071	4.926	-4.305	 H	3	PRO3	0.039	
42	 3HD	8.995	4.217	-5.668	 H	3	PRO3	0.039	
43	   N	12.548	4.935	-5.141	N.am	4	GLU4	-0.516	
44	  CA	13.894	4.817	-5.693	C.3	4	GLU4	0.040	
45	   C	14.292	6.078	-6.422	C.2	4	GLU4	0.537	
46	   O	15.393	6.619	-6.245	O.2	4	GLU4	-0.582	
47	  CB	13.964	3.592	-6.649	C.3	4	GLU4	0.056	
48	  CG	15.364	3.306	-7.283	C.3	4	GLU4	0.014	
49	  CD	15.487	2.162	-8.273	C.2	4	GLU4	0.805	
50	 OE1	14.503	1.453	-8.558	O.co2	4	GLU4	-0.819	
51	 OE2	16.612	1.988	-8.786	O.co2	4	GLU4	-0.819	
52	   H	11.831	4.268	-5.389	 H	4	GLU4	0.294	
53	  HA	14.606	4.666	-4.861	 H	4	GLU4	0.111	
54	 2HB	13.226	3.714	-7.469	 H	4	GLU4	-0.017	
55	 3HB	13.633	2.679	-6.118	 H	4	GLU4	-0.017	
56	 2HG	16.124	3.125	-6.506	 H	4	GLU4	-0.043	
57	 3HG	15.727	4.173	-7.858	 H	4	GLU4	-0.043	
58	   N	13.461	6.608	-7.253	N.am	5	SER5	-0.416	
59	  CA	13.847	7.828	-7.958	C.3	5	SER5	-0.025	
60	   C	14.207	8.924	-6.982	C.2	5	SER5	0.597	
61	   O	15.226	9.603	-7.112	O.2	5	SER5	-0.568	
62	  CB	12.730	8.278	-8.933	C.3	5	SER5	0.212	
63	  OG	11.561	8.755	-8.259	O.3	5	SER5	-0.655	
64	   H	12.558	6.187	-7.415	 H	5	SER5	0.272	
65	  HA	14.757	7.609	-8.545	 H	5	SER5	0.084	
66	 2HB	12.451	7.460	-9.625	 H	5	SER5	0.035	
67	 3HB	13.111	9.087	-9.587	 H	5	SER5	0.035	
68	  HG	11.201	8.022	-7.755	 H	5	SER5	0.428	
69	   N	13.424	9.156	-5.984	N.am	6	ILE6	-0.416	
70	  CA	13.773	10.216	-5.042	C.3	6	ILE6	-0.060	
71	   C	15.138	9.980	-4.444	C.2	6	ILE6	0.597	
72	   O	15.987	10.881	-4.369	O.2	6	ILE6	-0.568	
73	  CB	12.663	10.384	-3.927	C.3	6	ILE6	0.130	
74	 CG1	11.209	10.556	-4.474	C.3	6	ILE6	-0.043	
75	 CG2	12.957	11.567	-2.952	C.3	6	ILE6	-0.320	
76	 CD1	10.077	10.400	-3.438	C.3	6	ILE6	-0.066	
77	   H	12.582	8.613	-5.856	 H	6	ILE6	0.272	
78	  HA	13.838	11.161	-5.612	 H	6	ILE6	0.087	
79	  HB	12.669	9.448	-3.328	 H	6	ILE6	0.019	
80	2HG1	11.014	9.795	-5.252	 H	6	ILE6	0.024	
81	3HG1	11.111	11.524	-5.004	 H	6	ILE6	0.024	
82	1HG2	13.922	11.466	-2.425	 H	6	ILE6	0.088	
83	2HG2	12.969	12.542	-3.474	 H	6	ILE6	0.088	
84	3HG2	12.208	11.643	-2.143	 H	6	ILE6	0.088	
85	1HD1	10.125	9.423	-2.921	 H	6	ILE6	0.019	
86	2HD1	10.101	11.187	-2.662	 H	6	ILE6	0.019	
87	3HD1	9.084	10.464	-3.919	 H	6	ILE6	0.019	
88	   N	15.431	8.806	-3.998	N.am	7	LEU7	-0.416	
89	  CA	16.753	8.578	-3.420	C.3	7	LEU7	-0.052	
90	   C	17.841	8.925	-4.407	C.2	7	LEU7	0.597	
91	   O	18.821	9.616	-4.090	O.2	7	LEU7	-0.568	
92	  CB	16.891	7.107	-2.935	C.3	7	LEU7	-0.110	
93	  CG	15.871	6.584	-1.888	C.3	7	LEU7	0.353	
94	 CD1	16.240	5.157	-1.457	C.3	7	LEU7	-0.412	
95	 CD2	15.774	7.490	-0.649	C.3	7	LEU7	-0.412	
96	   H	14.757	8.055	-4.048	 H	7	LEU7	0.272	
97	  HA	16.882	9.263	-2.563	 H	7	LEU7	0.092	
98	 2HB	17.911	6.966	-2.526	 H	7	LEU7	0.046	
99	 3HB	16.851	6.438	-3.818	 H	7	LEU7	0.046	
100	  HG	14.871	6.546	-2.369	 H	7	LEU7	-0.036	
101	1HD1	16.278	4.465	-2.320	 H	7	LEU7	0.100	
102	2HD1	17.227	5.112	-0.959	 H	7	LEU7	0.100	
103	3HD1	15.499	4.740	-0.751	 H	7	LEU7	0.100	
104	1HD2	16.754	7.637	-0.159	 H	7	LEU7	0.100	
105	2HD2	15.385	8.491	-0.914	 H	7	LEU7	0.100	
106	3HD2	15.078	7.083	0.108	 H	7	LEU7	0.100	
107	   N	17.749	8.490	-5.618	N.am	8	ASP8	-0.516	
108	  CA	18.801	8.825	-6.573	C.3	8	ASP8	0.038	
109	   C	18.972	10.320	-6.688	C.2	8	ASP8	0.537	
110	   O	20.089	10.860	-6.653	O.2	8	ASP8	-0.582	
111	  CB	18.502	8.191	-7.960	C.3	8	ASP8	-0.030	
112	  CG	19.577	8.414	-9.034	C.2	8	ASP8	0.799	
113	 OD1	20.781	8.403	-8.701	O.co2	8	ASP8	-0.801	
114	 OD2	19.212	8.644	-10.206	O.co2	8	ASP8	-0.801	
115	   H	16.961	7.926	-5.901	 H	8	ASP8	0.294	
116	  HA	19.757	8.415	-6.193	 H	8	ASP8	0.088	
117	 2HB	17.546	8.580	-8.355	 H	8	ASP8	-0.012	
118	 3HB	18.366	7.101	-7.870	 H	8	ASP8	-0.012	
119	   N	17.924	11.060	-6.828	N.am	9	GLU9	-0.516	
120	  CA	18.089	12.507	-6.940	C.3	9	GLU9	0.040	
121	   C	18.825	13.061	-5.744	C.2	9	GLU9	0.537	
122	   O	19.767	13.858	-5.864	O.2	9	GLU9	-0.582	
123	  CB	16.696	13.185	-7.082	C.3	9	GLU9	0.056	
124	  CG	16.713	14.737	-7.263	C.3	9	GLU9	0.014	
125	  CD	15.386	15.468	-7.346	C.2	9	GLU9	0.805	
126	 OE1	14.307	14.845	-7.296	O.co2	9	GLU9	-0.819	
127	 OE2	15.439	16.711	-7.452	O.co2	9	GLU9	-0.819	
128	   H	17.004	10.645	-6.859	 H	9	GLU9	0.294	
129	  HA	18.691	12.726	-7.840	 H	9	GLU9	0.111	
130	 2HB	16.069	12.941	-6.201	 H	9	GLU9	-0.017	
131	 3HB	16.148	12.744	-7.937	 H	9	GLU9	-0.017	
132	 2HG	17.283	15.029	-8.159	 H	9	GLU9	-0.043	
133	 3HG	17.217	15.233	-6.416	 H	9	GLU9	-0.043	
134	   N	18.463	12.695	-4.561	N.am	10	HIS10	-0.416	
135	  CA	19.174	13.230	-3.404	C.3	10	HIS10	-0.058	
136	   C	20.651	12.930	-3.490	C.2	10	HIS10	0.597	
137	   O	21.512	13.798	-3.278	O.2	10	HIS10	-0.568	
138	  CB	18.560	12.554	-2.168	C.3	10	HIS10	-0.007	
139	  CG	17.943	13.544	-1.223	C.2	10	HIS10	0.187	
140	 CD2	16.611	13.929	-1.305	C.2	10	HIS10	-0.221	
141	 ND1	18.596	14.187	-0.175	N.2	10	HIS10	-0.543	
142	 CE1	17.584	14.934	0.304	C.2	10	HIS10	0.163	
143	 NE2	16.372	14.838	-0.307	N.pl3	10	HIS10	-0.280	
144	   H	17.698	12.047	-4.438	 H	10	HIS10	0.272	
145	  HA	19.074	14.329	-3.429	 H	10	HIS10	0.136	
146	 2HB	19.322	11.977	-1.606	 H	10	HIS10	0.037	
147	 3HB	17.776	11.816	-2.441	 H	10	HIS10	0.037	
148	 2HD	15.907	13.556	-2.043	 H	10	HIS10	0.186	
149	 1HE	17.789	15.570	1.155	 H	10	HIS10	0.144	
150	 2HE	15.491	15.324	-0.084	 H	10	HIS10	0.334	
151	   N	21.030	11.735	-3.792	N.am	11	VAL11	-0.416	
152	  CA	22.458	11.444	-3.875	C.3	11	VAL11	-0.087	
153	   C	23.138	12.353	-4.870	C.2	11	VAL11	0.597	
154	   O	24.196	12.940	-4.608	O.2	11	VAL11	-0.568	
155	  CB	22.676	9.927	-4.259	C.3	11	VAL11	0.299	
156	 CG1	24.135	9.496	-4.570	C.3	11	VAL11	-0.319	
157	 CG2	22.176	8.931	-3.185	C.3	11	VAL11	-0.319	
158	   H	20.348	11.010	-3.969	 H	11	VAL11	0.272	
159	  HA	22.919	11.641	-2.890	 H	11	VAL11	0.097	
160	  HB	22.087	9.735	-5.182	 H	11	VAL11	-0.030	
161	1HG1	24.818	9.665	-3.715	 H	11	VAL11	0.079	
162	2HG1	24.209	8.425	-4.841	 H	11	VAL11	0.079	
163	3HG1	24.560	10.038	-5.436	 H	11	VAL11	0.079	
164	1HG2	21.114	9.099	-2.929	 H	11	VAL11	0.079	
165	2HG2	22.243	7.882	-3.534	 H	11	VAL11	0.079	
166	3HG2	22.755	9.001	-2.245	 H	11	VAL11	0.079	
167	   N	22.600	12.523	-6.030	N.am	12	GLN12	-0.416	
168	  CA	23.257	13.401	-6.993	C.3	12	GLN12	-0.003	
169	   C	23.445	14.787	-6.423	C.2	12	GLN12	0.597	
170	   O	24.515	15.386	-6.508	O.2	12	GLN12	-0.568	
171	  CB	22.408	13.444	-8.284	C.3	12	GLN12	-0.004	
172	  CG	22.979	14.306	-9.458	C.3	12	GLN12	-0.064	
173	  CD	22.161	14.445	-10.748	C.2	12	GLN12	0.695	
174	 NE2	21.010	13.834	-10.863	N.pl3	12	GLN12	-0.941	
175	 OE1	22.555	15.140	-11.672	O.2	12	GLN12	-0.609	
176	   H	21.737	12.055	-6.268	 H	12	GLN12	0.272	
177	  HA	24.260	12.994	-7.219	 H	12	GLN12	0.085	
178	 2HB	21.393	13.814	-8.026	 H	12	GLN12	0.017	
179	 3HB	22.257	12.409	-8.647	 H	12	GLN12	0.017	
180	 2HG	23.985	13.943	-9.740	 H	12	GLN12	0.035	
181	 3HG	23.146	15.346	-9.125	 H	12	GLN12	0.035	
182	1HE2	20.500	14.030	-11.726	 H	12	GLN12	0.425	
183	2HE2	20.706	13.325	-10.030	 H	12	GLN12	0.425	
184	   N	22.452	15.360	-5.830	N.am	13	ARG13	-0.348	
185	  CA	22.635	16.700	-5.279	C.3	13	ARG13	-0.264	
186	   C	23.776	16.726	-4.289	C.2	13	ARG13	0.734	
187	   O	24.643	17.596	-4.317	O.2	13	ARG13	-0.589	
188	  CB	21.302	17.157	-4.621	C.3	13	ARG13	-0.001	
189	  CG	21.231	18.659	-4.228	C.3	13	ARG13	0.039	
190	  CD	19.897	19.017	-3.552	C.3	13	ARG13	0.049	
191	  NE	19.878	20.472	-3.218	N.pl3	13	ARG13	-0.530	
192	  CZ	18.877	21.110	-2.620	C.cat	13	ARG13	0.808	
193	 NH1	17.773	20.528	-2.243	N.pl3	13	ARG13	-0.863	
194	 NH2	19.001	22.381	-2.400	N.pl3	13	ARG13	-0.863	
195	   H	21.563	14.889	-5.748	 H	13	ARG13	0.275	
196	  HA	22.899	17.379	-6.112	 H	13	ARG13	0.156	
197	 2HB	21.108	16.521	-3.732	 H	13	ARG13	0.033	
198	 3HB	20.462	16.931	-5.307	 H	13	ARG13	0.033	
199	 2HG	21.387	19.280	-5.134	 H	13	ARG13	0.029	
200	 3HG	22.067	18.913	-3.544	 H	13	ARG13	0.029	
201	 2HD	19.770	18.398	-2.637	 H	13	ARG13	0.069	
202	 3HD	19.056	18.754	-4.230	 H	13	ARG13	0.069	
203	  HE	20.674	21.076	-3.447	 H	13	ARG13	0.346	
204	1HH1	17.739	19.527	-2.444	 H	13	ARG13	0.448	
205	2HH1	17.049	21.089	-1.790	 H	13	ARG13	0.448	
206	1HH2	19.873	22.819	-2.701	 H	13	ARG13	0.448	
207	2HH2	18.221	22.854	-1.941	 H	13	ARG13	0.448	
208	   N	23.842	15.806	-3.387	N.am	14	VAL14	-0.416	
209	  CA	24.944	15.831	-2.430	C.3	14	VAL14	-0.087	
210	   C	26.277	15.805	-3.139	C.2	14	VAL14	0.597	
211	   O	27.195	16.578	-2.840	O.2	14	VAL14	-0.568	
212	  CB	24.815	14.613	-1.431	C.3	14	VAL14	0.299	
213	 CG1	26.009	14.385	-0.464	C.3	14	VAL14	-0.319	
214	 CG2	23.562	14.677	-0.525	C.3	14	VAL14	-0.319	
215	   H	23.141	15.080	-3.343	 H	14	VAL14	0.272	
216	  HA	24.900	16.777	-1.860	 H	14	VAL14	0.097	
217	  HB	24.727	13.693	-2.047	 H	14	VAL14	-0.030	
218	1HG1	26.198	15.259	0.188	 H	14	VAL14	0.079	
219	2HG1	25.853	13.511	0.197	 H	14	VAL14	0.079	
220	3HG1	26.952	14.170	-1.001	 H	14	VAL14	0.079	
221	1HG2	22.632	14.772	-1.115	 H	14	VAL14	0.079	
222	2HG2	23.445	13.757	0.081	 H	14	VAL14	0.079	
223	3HG2	23.593	15.531	0.177	 H	14	VAL14	0.079	
224	   N	26.463	14.950	-4.087	N.am	15	MET15	-0.416	
225	  CA	27.751	14.923	-4.774	C.3	15	MET15	-0.024	
226	   C	28.075	16.271	-5.371	C.2	15	MET15	0.597	
227	   O	29.188	16.801	-5.231	O.2	15	MET15	-0.568	
228	  CB	27.743	13.819	-5.867	C.3	15	MET15	0.034	
229	  CG	27.560	12.372	-5.363	C.3	15	MET15	0.002	
230	  SD	27.864	11.214	-6.707	S.3	15	MET15	-0.274	
231	  CE	27.205	9.730	-5.935	C.3	15	MET15	-0.054	
232	   H	25.729	14.308	-4.350	 H	15	MET15	0.272	
233	  HA	28.541	14.698	-4.033	 H	15	MET15	0.088	
234	 2HB	28.692	13.860	-6.436	 H	15	MET15	0.024	
235	 3HB	26.954	14.037	-6.616	 H	15	MET15	0.024	
236	 2HG	26.531	12.230	-4.983	 H	15	MET15	0.044	
237	 3HG	28.243	12.144	-4.523	 H	15	MET15	0.044	
238	 1HE	27.701	9.533	-4.968	 H	15	MET15	0.068	
239	 2HE	26.121	9.841	-5.754	 H	15	MET15	0.068	
240	 3HE	27.356	8.854	-6.589	 H	15	MET15	0.068	
241	   N	27.168	16.890	-6.048	N.am	16	ARG16	-0.348	
242	  CA	27.482	18.193	-6.626	C.3	16	ARG16	-0.264	
243	   C	27.930	19.163	-5.558	C.2	16	ARG16	0.734	
244	   O	28.024	18.835	-4.378	O.2	16	ARG16	-0.589	
245	  CB	26.230	18.722	-7.382	C.3	16	ARG16	-0.001	
246	  CG	26.468	19.964	-8.285	C.3	16	ARG16	0.039	
247	  CD	25.174	20.441	-8.966	C.3	16	ARG16	0.049	
248	  NE	25.468	21.619	-9.833	N.pl3	16	ARG16	-0.530	
249	  CZ	24.573	22.281	-10.559	C.cat	16	ARG16	0.808	
250	 NH1	23.306	21.978	-10.595	N.pl3	16	ARG16	-0.863	
251	 NH2	24.979	23.284	-11.272	N.pl3	16	ARG16	-0.863	
252	   H	26.254	16.479	-6.177	 H	16	ARG16	0.275	
253	  HA	28.323	18.061	-7.332	 H	16	ARG16	0.156	
254	 2HB	25.431	18.937	-6.641	 H	16	ARG16	0.033	
255	 3HB	25.811	17.906	-8.006	 H	16	ARG16	0.033	
256	 2HG	27.239	19.719	-9.045	 H	16	ARG16	0.029	
257	 3HG	26.894	20.794	-7.685	 H	16	ARG16	0.029	
258	 2HD	24.423	20.699	-8.187	 H	16	ARG16	0.069	
259	 3HD	24.739	19.608	-9.559	 H	16	ARG16	0.069	
260	  HE	26.421	21.988	-9.916	 H	16	ARG16	0.346	
261	1HH1	23.051	21.179	-10.010	 H	16	ARG16	0.448	
262	2HH1	22.681	22.536	-11.179	 H	16	ARG16	0.448	
263	1HH2	25.975	23.508	-11.231	 H	16	ARG16	0.448	
264	2HH2	24.276	23.779	-11.824	 H	16	ARG16	0.448	
@<TRIPOS>BOND
1 1 2 1
2 1 7 1
3 2 3 1
4 2 5 1
5 2 8 1
6 3 4 2
7 3 15 1
8 5 6 1
9 6 7 1
10 5 9 1
11 5 10 1
12 6 11 1
13 6 12 1
14 7 13 1
15 7 14 1
16 15 16 1
17 15 23 1
18 16 17 1
19 16 19 1
20 16 24 1
21 17 18 2
22 17 29 1
23 19 20 1
24 20 21 1
25 20 22 2
26 19 25 1
27 19 26 1
28 21 27 1
29 21 28 1
30 29 30 1
31 29 35 1
32 30 31 1
33 30 33 1
34 30 36 1
35 31 32 2
36 31 43 1
37 33 34 1
38 34 35 1
39 33 37 1
40 33 38 1
41 34 39 1
42 34 40 1
43 35 41 1
44 35 42 1
45 43 44 1
46 43 52 1
47 44 45 1
48 44 47 1
49 44 53 1
50 45 46 2
51 45 58 1
52 47 48 1
53 48 49 1
54 49 50 2
55 49 51 1
56 47 54 1
57 47 55 1
58 48 56 1
59 48 57 1
60 58 59 1
61 58 64 1
62 59 60 1
63 59 62 1
64 59 65 1
65 60 61 2
66 60 69 1
67 62 63 1
68 62 66 1
69 62 67 1
70 63 68 1
71 69 70 1
72 69 77 1
73 70 71 1
74 70 73 1
75 70 78 1
76 71 72 2
77 71 88 1
78 73 74 1
79 73 75 1
80 74 76 1
81 73 79 1
82 74 80 1
83 74 81 1
84 75 82 1
85 75 83 1
86 75 84 1
87 76 85 1
88 76 86 1
89 76 87 1
90 88 89 1
91 88 96 1
92 89 90 1
93 89 92 1
94 89 97 1
95 90 91 2
96 90 107 1
97 92 93 1
98 93 94 1
99 93 95 1
100 92 98 1
101 92 99 1
102 93 100 1
103 94 101 1
104 94 102 1
105 94 103 1
106 95 104 1
107 95 105 1
108 95 106 1
109 107 108 1
110 107 115 1
111 108 109 1
112 108 111 1
113 108 116 1
114 109 110 2
115 109 119 1
116 111 112 1
117 112 113 2
118 112 114 1
119 111 117 1
120 111 118 1
121 119 120 1
122 119 128 1
123 120 121 1
124 120 123 1
125 120 129 1
126 121 122 2
127 121 134 1
128 123 124 1
129 124 125 1
130 125 126 2
131 125 127 1
132 123 130 1
133 123 131 1
134 124 132 1
135 124 133 1
136 134 135 1
137 134 144 1
138 135 136 1
139 135 138 1
140 135 145 1
141 136 137 2
142 136 151 1
143 138 139 1
144 139 140 2
145 140 143 1
146 139 141 1
147 141 142 2
148 142 143 1
149 138 146 1
150 138 147 1
151 140 148 1
152 142 149 1
153 143 150 1
154 151 152 1
155 151 158 1
156 152 153 1
157 152 155 1
158 152 159 1
159 153 154 2
160 153 167 1
161 155 156 1
162 155 157 1
163 155 160 1
164 156 161 1
165 156 162 1
166 156 163 1
167 157 164 1
168 157 165 1
169 157 166 1
170 167 168 1
171 167 176 1
172 168 169 1
173 168 171 1
174 168 177 1
175 169 170 2
176 169 184 1
177 171 172 1
178 172 173 1
179 173 174 1
180 173 175 2
181 171 178 1
182 171 179 1
183 172 180 1
184 172 181 1
185 174 182 1
186 174 183 1
187 184 185 1
188 184 195 1
189 185 186 1
190 185 188 1
191 185 196 1
192 186 187 2
193 186 208 1
194 188 189 1
195 189 190 1
196 190 191 1
197 191 192 1
198 192 193 2
199 192 194 1
200 188 197 1
201 188 198 1
202 189 199 1
203 189 200 1
204 190 201 1
205 190 202 1
206 191 203 1
207 193 204 1
208 193 205 1
209 194 206 1
210 194 207 1
211 208 209 1
212 208 215 1
213 209 210 1
214 209 212 1
215 209 216 1
216 210 211 2
217 210 224 1
218 212 213 1
219 212 214 1
220 212 217 1
221 213 218 1
222 213 219 1
223 213 220 1
224 214 221 1
225 214 222 1
226 214 223 1
227 224 225 1
228 224 232 1
229 225 226 1
230 225 228 1
231 225 233 1
232 226 227 2
233 226 241 1
234 228 229 1
235 229 230 1
236 230 231 1
237 228 234 1
238 228 235 1
239 229 236 1
240 229 237 1
241 231 238 1
242 231 239 1
243 231 240 1
244 241 242 1
245 241 252 1
246 242 243 1
247 242 245 1
248 242 253 1
249 243 244 2
250 245 246 1
251 246 247 1
252 247 248 1
253 248 249 1
254 249 250 2
255 249 251 1
256 245 254 1
257 245 255 1
258 246 256 1
259 246 257 1
260 247 258 1
261 247 259 1
262 248 260 1
263 250 261 1
264 250 262 1
265 251 263 1
266 251 264 1
@<TRIPOS>SUBSTRUCTURE
1	PRO1	1	RESIDUE	1 ****	PRO
2	ASN2	15	RESIDUE	1 ****	ASN
3	PRO3	29	RESIDUE	1 ****	PRO
4	GLU4	43	RESIDUE	1 ****	GLU
5	SER5	58	RESIDUE	1 ****	SER
6	ILE6	69	RESIDUE	1 ****	ILE
7	LEU7	88	RESIDUE	1 ****	LEU
8	ASP8	107	RESIDUE	1 ****	ASP
9	GLU9	119	RESIDUE	1 ****	GLU
10	HIS10	134	RESIDUE	1 ****	HIS
11	VAL11	151	RESIDUE	1 ****	VAL
12	GLN12	167	RESIDUE	1 ****	GLN
13	ARG13	184	RESIDUE	1 ****	ARG
14	VAL14	208	RESIDUE	1 ****	VAL
15	MET15	224	RESIDUE	1 ****	MET
16	ARG16	241	RESIDUE	1 ****	ARG
