@<TRIPOS>MOLECULE
8-19
275 276 16              
SMALL
USER_CHARGES
@<TRIPOS>ATOM
1	   N	1336.840	389.045	-1342.499	N.3	1	GLU1	-0.516	
2	  CA	1337.399	390.394	-1342.499	C.3	1	GLU1	0.040	
3	   C	1338.908	390.354	-1342.499	C.2	1	GLU1	0.537	
4	   O	1339.584	391.053	-1343.268	O.2	1	GLU1	-0.582	
5	  CB	1336.876	391.179	-1341.262	C.3	1	GLU1	0.056	
6	  CG	1337.351	392.664	-1341.151	C.3	1	GLU1	0.014	
7	  CD	1336.927	393.468	-1339.936	C.2	1	GLU1	0.805	
8	 OE1	1336.199	392.966	-1339.058	O.co2	1	GLU1	-0.819	
9	 OE2	1337.357	394.638	-1339.864	O.co2	1	GLU1	-0.819	
10	   H	1337.467	388.166	-1342.499	 H	1	GLU1	0.294	
11	  HA	1337.073	390.912	-1343.419	 H	1	GLU1	0.111	
12	 2HB	1337.165	390.648	-1340.332	 H	1	GLU1	-0.017	
13	 3HB	1335.769	391.169	-1341.249	 H	1	GLU1	-0.017	
14	 2HG	1337.041	393.249	-1342.032	 H	1	GLU1	-0.043	
15	 3HG	1338.451	392.731	-1341.122	 H	1	GLU1	-0.043	
16	   N	1339.513	389.568	-1341.674	N.am	2	ASN2	-0.416	
17	  CA	1340.972	389.529	-1341.674	C.3	2	ASN2	0.014	
18	   C	1341.503	389.174	-1343.043	C.2	2	ASN2	0.597	
19	   O	1342.418	389.804	-1343.572	O.2	2	ASN2	-0.568	
20	  CB	1341.464	388.506	-1340.610	C.3	2	ASN2	-0.204	
21	  CG	1341.001	388.730	-1339.167	C.2	2	ASN2	0.713	
22	 ND2	1341.595	389.645	-1338.448	N.pl3	2	ASN2	-0.919	
23	 OD1	1340.080	388.096	-1338.672	O.2	2	ASN2	-0.593	
24	   H	1338.985	388.988	-1341.038	 H	2	ASN2	0.272	
25	  HA	1341.349	390.539	-1341.429	 H	2	ASN2	0.105	
26	 2HB	1342.569	388.447	-1340.614	 H	2	ASN2	0.080	
27	 3HB	1341.135	387.488	-1340.896	 H	2	ASN2	0.080	
28	1HD2	1341.115	389.818	-1337.562	 H	2	ASN2	0.420	
29	2HD2	1342.297	390.217	-1338.918	 H	2	ASN2	0.420	
30	   N	1340.982	388.179	-1343.677	N.am	3	PRO3	-0.255	
31	  CA	1341.433	387.769	-1344.999	C.3	3	PRO3	-0.027	
32	   C	1341.035	388.793	-1346.075	C.2	3	PRO3	0.590	
33	   O	1341.859	389.176	-1346.907	O.2	3	PRO3	-0.575	
34	  CB	1340.729	386.415	-1345.168	C.3	3	PRO3	-0.007	
35	  CG	1339.446	386.567	-1344.338	C.3	3	PRO3	0.019	
36	  CD	1339.904	387.385	-1343.128	C.3	3	PRO3	0.019	
37	  HA	1342.519	387.649	-1345.012	 H	3	PRO3	0.064	
38	 2HB	1341.352	385.633	-1344.727	 H	3	PRO3	0.025	
39	 3HB	1340.531	386.166	-1346.213	 H	3	PRO3	0.025	
40	 2HG	1339.019	385.604	-1344.047	 H	3	PRO3	0.021	
41	 3HG	1338.708	387.138	-1344.905	 H	3	PRO3	0.021	
42	 2HD	1340.293	386.736	-1342.340	 H	3	PRO3	0.039	
43	 3HD	1339.107	388.021	-1342.735	 H	3	PRO3	0.039	
44	   N	1339.831	389.253	-1346.108	N.am	4	GLU4	-0.516	
45	  CA	1339.471	390.224	-1347.137	C.3	4	GLU4	0.040	
46	   C	1340.370	391.435	-1347.076	C.2	4	GLU4	0.537	
47	   O	1340.896	391.915	-1348.091	O.2	4	GLU4	-0.582	
48	  CB	1337.982	390.642	-1346.967	C.3	4	GLU4	0.056	
49	  CG	1337.434	391.646	-1348.032	C.3	4	GLU4	0.014	
50	  CD	1336.007	392.143	-1347.888	C.2	4	GLU4	0.805	
51	 OE1	1335.281	391.744	-1346.957	O.co2	4	GLU4	-0.819	
52	 OE2	1335.618	392.972	-1348.737	O.co2	4	GLU4	-0.819	
53	   H	1339.146	388.946	-1345.431	 H	4	GLU4	0.294	
54	  HA	1339.602	389.753	-1348.128	 H	4	GLU4	0.111	
55	 2HB	1337.830	391.082	-1345.960	 H	4	GLU4	-0.017	
56	 3HB	1337.334	389.745	-1346.973	 H	4	GLU4	-0.017	
57	 2HG	1337.515	391.231	-1349.050	 H	4	GLU4	-0.043	
58	 3HG	1338.022	392.578	-1348.043	 H	4	GLU4	-0.043	
59	   N	1340.597	391.988	-1345.933	N.am	5	SER5	-0.416	
60	  CA	1341.467	393.159	-1345.875	C.3	5	SER5	-0.025	
61	   C	1342.825	392.854	-1346.460	C.2	5	SER5	0.597	
62	   O	1343.372	393.607	-1347.265	O.2	5	SER5	-0.568	
63	  CB	1341.578	393.691	-1344.424	C.3	5	SER5	0.212	
64	  OG	1342.310	392.812	-1343.563	O.3	5	SER5	-0.655	
65	   H	1340.180	391.616	-1345.091	 H	5	SER5	0.272	
66	  HA	1341.017	393.949	-1346.504	 H	5	SER5	0.084	
67	 2HB	1340.578	393.885	-1343.990	 H	5	SER5	0.035	
68	 3HB	1342.083	394.677	-1344.426	 H	5	SER5	0.035	
69	  HG	1341.821	391.987	-1343.512	 H	5	SER5	0.428	
70	   N	1343.430	391.771	-1346.106	N.am	6	ILE6	-0.416	
71	  CA	1344.743	391.476	-1346.673	C.3	6	ILE6	-0.060	
72	   C	1344.686	391.439	-1348.181	C.2	6	ILE6	0.597	
73	   O	1345.521	392.026	-1348.885	O.2	6	ILE6	-0.568	
74	  CB	1345.343	390.140	-1346.073	C.3	6	ILE6	0.130	
75	 CG1	1345.363	390.077	-1344.512	C.3	6	ILE6	-0.043	
76	 CG2	1346.784	389.838	-1346.588	C.3	6	ILE6	-0.320	
77	 CD1	1345.633	388.688	-1343.897	C.3	6	ILE6	-0.066	
78	   H	1343.002	391.136	-1345.447	 H	6	ILE6	0.272	
79	  HA	1345.417	392.310	-1346.405	 H	6	ILE6	0.087	
80	  HB	1344.685	389.314	-1346.417	 H	6	ILE6	0.019	
81	2HG1	1344.380	390.397	-1344.116	 H	6	ILE6	0.024	
82	3HG1	1346.078	390.819	-1344.107	 H	6	ILE6	0.024	
83	1HG2	1346.843	389.745	-1347.687	 H	6	ILE6	0.088	
84	2HG2	1347.506	390.621	-1346.286	 H	6	ILE6	0.088	
85	3HG2	1347.175	388.876	-1346.210	 H	6	ILE6	0.088	
86	1HD1	1344.905	387.934	-1344.252	 H	6	ILE6	0.019	
87	2HD1	1346.643	388.310	-1344.133	 H	6	ILE6	0.019	
88	3HD1	1345.557	388.718	-1342.795	 H	6	ILE6	0.019	
89	   N	1343.740	390.775	-1348.754	N.am	7	LEU7	-0.416	
90	  CA	1343.685	390.739	-1350.213	C.3	7	LEU7	-0.052	
91	   C	1343.612	392.135	-1350.785	C.2	7	LEU7	0.597	
92	   O	1344.333	392.498	-1351.727	O.2	7	LEU7	-0.568	
93	  CB	1342.482	389.879	-1350.693	C.3	7	LEU7	-0.110	
94	  CG	1342.409	388.400	-1350.227	C.3	7	LEU7	0.353	
95	 CD1	1341.219	387.694	-1350.892	C.3	7	LEU7	-0.412	
96	 CD2	1343.703	387.621	-1350.519	C.3	7	LEU7	-0.412	
97	   H	1343.048	390.288	-1348.203	 H	7	LEU7	0.272	
98	  HA	1344.627	390.299	-1350.587	 H	7	LEU7	0.092	
99	 2HB	1342.458	389.895	-1351.801	 H	7	LEU7	0.046	
100	 3HB	1341.542	390.382	-1350.389	 H	7	LEU7	0.046	
101	  HG	1342.240	388.391	-1349.130	 H	7	LEU7	-0.036	
102	1HD1	1340.262	388.203	-1350.670	 H	7	LEU7	0.100	
103	2HD1	1341.318	387.654	-1351.994	 H	7	LEU7	0.100	
104	3HD1	1341.113	386.653	-1350.536	 H	7	LEU7	0.100	
105	1HD2	1343.978	387.651	-1351.589	 H	7	LEU7	0.100	
106	2HD2	1344.556	388.032	-1349.947	 H	7	LEU7	0.100	
107	3HD2	1343.621	386.558	-1350.223	 H	7	LEU7	0.100	
108	   N	1342.775	392.975	-1350.278	N.am	8	LYS8	-0.348	
109	  CA	1342.704	394.325	-1350.831	C.3	8	LYS8	-0.240	
110	   C	1344.052	395.005	-1350.773	C.2	8	LYS8	0.734	
111	   O	1344.525	395.610	-1351.746	O.2	8	LYS8	-0.589	
112	  CB	1341.635	395.144	-1350.058	C.3	8	LYS8	-0.009	
113	  CG	1341.429	396.573	-1350.620	C.3	8	LYS8	0.019	
114	  CD	1340.429	397.433	-1349.842	C.3	8	LYS8	-0.048	
115	  CE	1340.379	398.836	-1350.461	C.3	8	LYS8	-0.014	
116	  NZ	1339.298	399.613	-1349.829	N.4	8	LYS8	-0.385	
117	   H	1342.177	392.704	-1349.511	 H	8	LYS8	0.275	
118	  HA	1342.414	394.252	-1351.896	 H	8	LYS8	0.143	
119	 2HB	1341.911	395.198	-1348.984	 H	8	LYS8	0.036	
120	 3HB	1340.667	394.605	-1350.076	 H	8	LYS8	0.036	
121	 2HG	1341.128	396.514	-1351.684	 H	8	LYS8	0.010	
122	 3HG	1342.386	397.127	-1350.614	 H	8	LYS8	0.010	
123	 2HD	1340.735	397.495	-1348.777	 H	8	LYS8	0.062	
124	 3HD	1339.433	396.951	-1349.851	 H	8	LYS8	0.062	
125	 2HE	1340.208	398.785	-1351.556	 H	8	LYS8	0.113	
126	 3HE	1341.354	399.353	-1350.331	 H	8	LYS8	0.113	
127	 1HZ	1339.231	399.392	-1348.828	 H	8	LYS8	0.340	
128	 2HZ	1339.479	400.620	-1349.887	 H	8	LYS8	0.340	
129	 3HZ	1338.449	399.371	-1350.320	 H	8	LYS8	0.340	
130	   N	1344.731	394.954	-1349.678	N.am	9	GLU9	-0.516	
131	  CA	1346.034	395.611	-1349.622	C.3	9	GLU9	0.040	
132	   C	1346.953	395.084	-1350.697	C.2	9	GLU9	0.537	
133	   O	1347.617	395.839	-1351.422	O.2	9	GLU9	-0.582	
134	  CB	1346.667	395.402	-1348.216	C.3	9	GLU9	0.056	
135	  CG	1348.050	396.094	-1347.986	C.3	9	GLU9	0.014	
136	  CD	1348.751	395.880	-1346.657	C.2	9	GLU9	0.805	
137	 OE1	1348.229	395.188	-1345.762	O.co2	9	GLU9	-0.819	
138	 OE2	1349.870	396.417	-1346.525	O.co2	9	GLU9	-0.819	
139	   H	1344.368	394.467	-1348.871	 H	9	GLU9	0.294	
140	  HA	1345.892	396.693	-1349.796	 H	9	GLU9	0.111	
141	 2HB	1346.780	394.317	-1348.014	 H	9	GLU9	-0.017	
142	 3HB	1345.970	395.755	-1347.432	 H	9	GLU9	-0.017	
143	 2HG	1347.978	397.185	-1348.125	 H	9	GLU9	-0.043	
144	 3HG	1348.797	395.749	-1348.720	 H	9	GLU9	-0.043	
145	   N	1347.049	393.809	-1350.868	N.am	10	HIS10	-0.416	
146	  CA	1347.937	393.298	-1351.908	C.3	10	HIS10	-0.058	
147	   C	1347.571	393.864	-1353.259	C.2	10	HIS10	0.597	
148	   O	1348.424	394.329	-1354.030	O.2	10	HIS10	-0.568	
149	  CB	1347.773	391.769	-1351.905	C.3	10	HIS10	-0.007	
150	  CG	1349.058	391.058	-1351.597	C.2	10	HIS10	0.187	
151	 CD2	1349.438	390.722	-1350.304	C.2	10	HIS10	-0.221	
152	 ND1	1350.010	390.653	-1352.529	N.2	10	HIS10	-0.543	
153	 CE1	1350.916	390.094	-1351.706	C.2	10	HIS10	0.163	
154	 NE2	1350.653	390.090	-1350.371	N.pl3	10	HIS10	-0.280	
155	   H	1346.518	393.173	-1350.290	 H	10	HIS10	0.272	
156	  HA	1348.956	393.655	-1351.682	 H	10	HIS10	0.136	
157	 2HB	1347.408	391.403	-1352.885	 H	10	HIS10	0.037	
158	 3HB	1347.016	391.432	-1351.165	 H	10	HIS10	0.037	
159	 2HD	1348.852	390.936	-1349.415	 H	10	HIS10	0.186	
160	 1HE	1351.807	389.673	-1352.153	 H	10	HIS10	0.144	
161	 2HE	1351.219	389.712	-1349.598	 H	10	HIS10	0.334	
162	   N	1346.333	393.863	-1353.623	N.am	11	VAL11	-0.416	
163	  CA	1345.979	394.411	-1354.929	C.3	11	VAL11	-0.087	
164	   C	1346.443	395.841	-1355.060	C.2	11	VAL11	0.597	
165	   O	1347.045	396.247	-1356.063	O.2	11	VAL11	-0.568	
166	  CB	1344.417	394.305	-1355.149	C.3	11	VAL11	0.299	
167	 CG1	1343.849	395.010	-1356.411	C.3	11	VAL11	-0.319	
168	 CG2	1343.892	392.851	-1355.224	C.3	11	VAL11	-0.319	
169	   H	1345.620	393.490	-1353.012	 H	11	VAL11	0.272	
170	  HA	1346.498	393.829	-1355.712	 H	11	VAL11	0.097	
171	  HB	1343.930	394.784	-1354.274	 H	11	VAL11	-0.030	
172	1HG1	1344.288	394.619	-1357.349	 H	11	VAL11	0.079	
173	2HG1	1342.750	394.903	-1356.494	 H	11	VAL11	0.079	
174	3HG1	1344.028	396.102	-1356.401	 H	11	VAL11	0.079	
175	1HG2	1344.182	392.263	-1354.333	 H	11	VAL11	0.079	
176	2HG2	1342.787	392.814	-1355.267	 H	11	VAL11	0.079	
177	3HG2	1344.274	392.310	-1356.110	 H	11	VAL11	0.079	
178	   N	1346.206	396.666	-1354.097	N.am	12	GLN12	-0.416	
179	  CA	1346.655	398.049	-1354.223	C.3	12	GLN12	-0.003	
180	   C	1348.145	398.117	-1354.460	C.2	12	GLN12	0.597	
181	   O	1348.632	398.826	-1355.338	O.2	12	GLN12	-0.568	
182	  CB	1346.264	398.816	-1352.940	C.3	12	GLN12	-0.004	
183	  CG	1346.624	400.338	-1352.907	C.3	12	GLN12	-0.064	
184	  CD	1346.321	401.150	-1351.642	C.2	12	GLN12	0.695	
185	 NE2	1345.754	400.573	-1350.614	N.pl3	12	GLN12	-0.941	
186	 OE1	1346.623	402.331	-1351.563	O.2	12	GLN12	-0.609	
187	   H	1345.717	396.360	-1353.269	 H	12	GLN12	0.272	
188	  HA	1346.156	398.506	-1355.098	 H	12	GLN12	0.085	
189	 2HB	1346.739	398.315	-1352.071	 H	12	GLN12	0.017	
190	 3HB	1345.173	398.708	-1352.777	 H	12	GLN12	0.017	
191	 2HG	1346.147	400.859	-1353.758	 H	12	GLN12	0.035	
192	 3HG	1347.708	400.480	-1353.073	 H	12	GLN12	0.035	
193	1HE2	1345.647	401.167	-1349.790	 H	12	GLN12	0.425	
194	2HE2	1345.590	399.569	-1350.718	 H	12	GLN12	0.425	
195	   N	1348.929	397.409	-1353.720	N.am	13	ARG13	-0.348	
196	  CA	1350.370	397.475	-1353.950	C.3	13	ARG13	-0.264	
197	   C	1350.706	397.105	-1355.375	C.2	13	ARG13	0.734	
198	   O	1351.475	397.777	-1356.058	O.2	13	ARG13	-0.589	
199	  CB	1351.082	396.535	-1352.937	C.3	13	ARG13	-0.001	
200	  CG	1352.627	396.688	-1352.855	C.3	13	ARG13	0.039	
201	  CD	1353.254	395.699	-1351.858	C.3	13	ARG13	0.049	
202	  NE	1354.731	395.906	-1351.806	N.pl3	13	ARG13	-0.530	
203	  CZ	1355.578	395.213	-1351.052	C.cat	13	ARG13	0.808	
204	 NH1	1355.213	394.248	-1350.255	N.pl3	13	ARG13	-0.863	
205	 NH2	1356.838	395.512	-1351.108	N.pl3	13	ARG13	-0.863	
206	   H	1348.553	396.819	-1352.992	 H	13	ARG13	0.275	
207	  HA	1350.694	398.521	-1353.790	 H	13	ARG13	0.156	
208	 2HB	1350.816	395.485	-1353.177	 H	13	ARG13	0.033	
209	 3HB	1350.657	396.700	-1351.926	 H	13	ARG13	0.033	
210	 2HG	1352.875	397.732	-1352.574	 H	13	ARG13	0.029	
211	 3HG	1353.078	396.532	-1353.856	 H	13	ARG13	0.029	
212	 2HD	1353.009	394.659	-1352.168	 H	13	ARG13	0.069	
213	 3HD	1352.797	395.843	-1350.855	 H	13	ARG13	0.069	
214	  HE	1355.182	396.628	-1352.376	 H	13	ARG13	0.346	
215	1HH1	1354.207	394.062	-1350.259	 H	13	ARG13	0.448	
216	2HH1	1355.926	393.764	-1349.707	 H	13	ARG13	0.448	
217	1HH2	1357.106	396.271	-1351.738	 H	13	ARG13	0.448	
218	2HH2	1357.473	394.970	-1350.519	 H	13	ARG13	0.448	
219	   N	1350.170	396.051	-1355.891	N.am	14	VAL14	-0.416	
220	  CA	1350.496	395.693	-1357.269	C.3	14	VAL14	-0.087	
221	   C	1350.166	396.824	-1358.213	C.2	14	VAL14	0.597	
222	   O	1350.960	397.206	-1359.082	O.2	14	VAL14	-0.568	
223	  CB	1349.723	394.376	-1357.677	C.3	14	VAL14	0.299	
224	 CG1	1349.813	393.959	-1359.171	C.3	14	VAL14	-0.319	
225	 CG2	1350.155	393.123	-1356.878	C.3	14	VAL14	-0.319	
226	   H	1349.535	395.482	-1355.350	 H	14	VAL14	0.272	
227	  HA	1351.584	395.516	-1357.343	 H	14	VAL14	0.097	
228	  HB	1348.647	394.548	-1357.462	 H	14	VAL14	-0.030	
229	1HG1	1350.855	393.783	-1359.500	 H	14	VAL14	0.079	
230	2HG1	1349.240	393.037	-1359.385	 H	14	VAL14	0.079	
231	3HG1	1349.385	394.722	-1359.849	 H	14	VAL14	0.079	
232	1HG2	1350.067	393.281	-1355.787	 H	14	VAL14	0.079	
233	2HG2	1349.519	392.247	-1357.111	 H	14	VAL14	0.079	
234	3HG2	1351.203	392.833	-1357.083	 H	14	VAL14	0.079	
235	   N	1349.022	397.410	-1358.111	N.am	15	MET15	-0.416	
236	  CA	1348.702	398.503	-1359.024	C.3	15	MET15	-0.024	
237	   C	1349.732	399.603	-1358.934	C.2	15	MET15	0.597	
238	   O	1350.235	400.115	-1359.946	O.2	15	MET15	-0.568	
239	  CB	1347.280	399.049	-1358.715	C.3	15	MET15	0.034	
240	  CG	1346.118	398.051	-1358.908	C.3	15	MET15	0.002	
241	  SD	1344.544	398.917	-1358.794	S.3	15	MET15	-0.274	
242	  CE	1343.463	397.487	-1358.659	C.3	15	MET15	-0.054	
243	   H	1348.356	397.116	-1357.411	 H	15	MET15	0.272	
244	  HA	1348.728	398.117	-1360.060	 H	15	MET15	0.088	
245	 2HB	1347.078	399.928	-1359.356	 H	15	MET15	0.024	
246	 3HB	1347.244	399.440	-1357.678	 H	15	MET15	0.024	
247	 2HG	1346.161	397.264	-1358.132	 H	15	MET15	0.044	
248	 3HG	1346.182	397.537	-1359.885	 H	15	MET15	0.044	
249	 1HE	1343.607	396.799	-1359.512	 H	15	MET15	0.068	
250	 2HE	1343.672	396.933	-1357.727	 H	15	MET15	0.068	
251	 3HE	1342.405	397.802	-1358.643	 H	15	MET15	0.068	
252	   N	1350.100	400.023	-1357.771	N.am	16	ARG16	-0.348	
253	  CA	1351.096	401.087	-1357.686	C.3	16	ARG16	-0.264	
254	   C	1352.367	400.695	-1358.402	C.2	16	ARG16	0.734	
255	   O	1352.482	399.619	-1358.984	O.2	16	ARG16	-0.589	
256	  CB	1351.364	401.403	-1356.187	C.3	16	ARG16	-0.001	
257	  CG	1352.189	402.692	-1355.912	C.3	16	ARG16	0.039	
258	  CD	1352.438	402.910	-1354.411	C.3	16	ARG16	0.049	
259	  NE	1353.214	404.168	-1354.208	N.pl3	16	ARG16	-0.530	
260	  CZ	1353.604	404.649	-1353.031	C.cat	16	ARG16	0.808	
261	 NH1	1353.356	404.064	-1351.894	N.pl3	16	ARG16	-0.863	
262	 NH2	1354.268	405.762	-1353.011	N.pl3	16	ARG16	-0.863	
263	   H	1349.704	399.622	-1356.933	 H	16	ARG16	0.275	
264	  HA	1350.687	401.980	-1358.195	 H	16	ARG16	0.156	
265	 2HB	1351.861	400.527	-1355.721	 H	16	ARG16	0.033	
266	 3HB	1350.395	401.483	-1355.654	 H	16	ARG16	0.033	
267	 2HG	1351.659	403.563	-1356.349	 H	16	ARG16	0.029	
268	 3HG	1353.163	402.640	-1356.441	 H	16	ARG16	0.029	
269	 2HD	1352.986	402.034	-1353.998	 H	16	ARG16	0.069	
270	 3HD	1351.465	402.952	-1353.876	 H	16	ARG16	0.069	
271	  HE	1353.493	404.750	-1355.004	 H	16	ARG16	0.346	
272	1HH1	1352.830	403.191	-1351.980	 H	16	ARG16	0.448	
273	2HH1	1353.690	404.498	-1351.032	 H	16	ARG16	0.448	
274	1HH2	1354.454	406.206	-1353.912	 H	16	ARG16	0.448	
275	2HH2	1354.557	406.116	-1352.098	 H	16	ARG16	0.448	
@<TRIPOS>BOND
1 1 2 1
2 1 10 1
3 2 3 1
4 2 5 1
5 2 11 1
6 3 4 2
7 3 16 1
8 5 6 1
9 6 7 1
10 7 8 2
11 7 9 1
12 5 12 1
13 5 13 1
14 6 14 1
15 6 15 1
16 16 17 1
17 16 24 1
18 17 18 1
19 17 20 1
20 17 25 1
21 18 19 2
22 18 30 1
23 20 21 1
24 21 22 1
25 21 23 2
26 20 26 1
27 20 27 1
28 22 28 1
29 22 29 1
30 30 31 1
31 30 36 1
32 31 32 1
33 31 34 1
34 31 37 1
35 32 33 2
36 32 44 1
37 34 35 1
38 35 36 1
39 34 38 1
40 34 39 1
41 35 40 1
42 35 41 1
43 36 42 1
44 36 43 1
45 44 45 1
46 44 53 1
47 45 46 1
48 45 48 1
49 45 54 1
50 46 47 2
51 46 59 1
52 48 49 1
53 49 50 1
54 50 51 2
55 50 52 1
56 48 55 1
57 48 56 1
58 49 57 1
59 49 58 1
60 59 60 1
61 59 65 1
62 60 61 1
63 60 63 1
64 60 66 1
65 61 62 2
66 61 70 1
67 63 64 1
68 63 67 1
69 63 68 1
70 64 69 1
71 70 71 1
72 70 78 1
73 71 72 1
74 71 74 1
75 71 79 1
76 72 73 2
77 72 89 1
78 74 75 1
79 74 76 1
80 75 77 1
81 74 80 1
82 75 81 1
83 75 82 1
84 76 83 1
85 76 84 1
86 76 85 1
87 77 86 1
88 77 87 1
89 77 88 1
90 89 90 1
91 89 97 1
92 90 91 1
93 90 93 1
94 90 98 1
95 91 92 2
96 91 108 1
97 93 94 1
98 94 95 1
99 94 96 1
100 93 99 1
101 93 100 1
102 94 101 1
103 95 102 1
104 95 103 1
105 95 104 1
106 96 105 1
107 96 106 1
108 96 107 1
109 108 109 1
110 108 117 1
111 109 110 1
112 109 112 1
113 109 118 1
114 110 111 2
115 110 130 1
116 112 113 1
117 113 114 1
118 114 115 1
119 115 116 1
120 116 129 1
121 112 119 1
122 112 120 1
123 113 121 1
124 113 122 1
125 114 123 1
126 114 124 1
127 115 125 1
128 115 126 1
129 116 127 1
130 116 128 1
131 130 131 1
132 130 139 1
133 131 132 1
134 131 134 1
135 131 140 1
136 132 133 2
137 132 145 1
138 134 135 1
139 135 136 1
140 136 137 2
141 136 138 1
142 134 141 1
143 134 142 1
144 135 143 1
145 135 144 1
146 145 146 1
147 145 155 1
148 146 147 1
149 146 149 1
150 146 156 1
151 147 148 2
152 147 162 1
153 149 150 1
154 150 151 2
155 151 154 1
156 150 152 1
157 152 153 2
158 153 154 1
159 149 157 1
160 149 158 1
161 151 159 1
162 153 160 1
163 154 161 1
164 162 163 1
165 162 169 1
166 163 164 1
167 163 166 1
168 163 170 1
169 164 165 2
170 164 178 1
171 166 167 1
172 166 168 1
173 166 171 1
174 167 172 1
175 167 173 1
176 167 174 1
177 168 175 1
178 168 176 1
179 168 177 1
180 178 179 1
181 178 187 1
182 179 180 1
183 179 182 1
184 179 188 1
185 180 181 2
186 180 195 1
187 182 183 1
188 183 184 1
189 184 185 1
190 184 186 2
191 182 189 1
192 182 190 1
193 183 191 1
194 183 192 1
195 185 193 1
196 185 194 1
197 195 196 1
198 195 206 1
199 196 197 1
200 196 199 1
201 196 207 1
202 197 198 2
203 197 219 1
204 199 200 1
205 200 201 1
206 201 202 1
207 202 203 1
208 203 204 2
209 203 205 1
210 199 208 1
211 199 209 1
212 200 210 1
213 200 211 1
214 201 212 1
215 201 213 1
216 202 214 1
217 204 215 1
218 204 216 1
219 205 217 1
220 205 218 1
221 219 220 1
222 219 226 1
223 220 221 1
224 220 223 1
225 220 227 1
226 221 222 2
227 221 235 1
228 223 224 1
229 223 225 1
230 223 228 1
231 224 229 1
232 224 230 1
233 224 231 1
234 225 232 1
235 225 233 1
236 225 234 1
237 235 236 1
238 235 243 1
239 236 237 1
240 236 239 1
241 236 244 1
242 237 238 2
243 237 252 1
244 239 240 1
245 240 241 1
246 241 242 1
247 239 245 1
248 239 246 1
249 240 247 1
250 240 248 1
251 242 249 1
252 242 250 1
253 242 251 1
254 252 253 1
255 252 263 1
256 253 254 1
257 253 256 1
258 253 264 1
259 254 255 2
260 256 257 1
261 257 258 1
262 258 259 1
263 259 260 1
264 260 261 2
265 260 262 1
266 256 265 1
267 256 266 1
268 257 267 1
269 257 268 1
270 258 269 1
271 258 270 1
272 259 271 1
273 261 272 1
274 261 273 1
275 262 274 1
276 262 275 1
@<TRIPOS>SUBSTRUCTURE
1	GLU1	1	RESIDUE	1 ****	GLU
2	ASN2	16	RESIDUE	1 ****	ASN
3	PRO3	30	RESIDUE	1 ****	PRO
4	GLU4	44	RESIDUE	1 ****	GLU
5	SER5	59	RESIDUE	1 ****	SER
6	ILE6	70	RESIDUE	1 ****	ILE
7	LEU7	89	RESIDUE	1 ****	LEU
8	LYS8	108	RESIDUE	1 ****	LYS
9	GLU9	130	RESIDUE	1 ****	GLU
10	HIS10	145	RESIDUE	1 ****	HIS
11	VAL11	162	RESIDUE	1 ****	VAL
12	GLN12	178	RESIDUE	1 ****	GLN
13	ARG13	195	RESIDUE	1 ****	ARG
14	VAL14	219	RESIDUE	1 ****	VAL
15	MET15	235	RESIDUE	1 ****	MET
16	ARG16	252	RESIDUE	1 ****	ARG
