@<TRIPOS>MOLECULE
8-20
277 278 16              
SMALL
USER_CHARGES
@<TRIPOS>ATOM
1	   N	1344.888	391.890	-1351.385	N.3	1	GLU1	-0.516	
2	  CA	1345.447	393.239	-1351.385	C.3	1	GLU1	0.040	
3	   C	1346.956	393.199	-1351.385	C.2	1	GLU1	0.537	
4	   O	1347.632	393.898	-1352.153	O.2	1	GLU1	-0.582	
5	  CB	1344.924	394.024	-1350.148	C.3	1	GLU1	0.056	
6	  CG	1345.399	395.509	-1350.037	C.3	1	GLU1	0.014	
7	  CD	1344.975	396.313	-1348.822	C.2	1	GLU1	0.805	
8	 OE1	1344.247	395.811	-1347.944	O.co2	1	GLU1	-0.819	
9	 OE2	1345.405	397.483	-1348.750	O.co2	1	GLU1	-0.819	
10	   H	1345.515	391.011	-1351.385	 H	1	GLU1	0.294	
11	  HA	1345.121	393.757	-1352.305	 H	1	GLU1	0.111	
12	 2HB	1345.213	393.493	-1349.218	 H	1	GLU1	-0.017	
13	 3HB	1343.817	394.014	-1350.135	 H	1	GLU1	-0.017	
14	 2HG	1345.089	396.094	-1350.918	 H	1	GLU1	-0.043	
15	 3HG	1346.499	395.576	-1350.008	 H	1	GLU1	-0.043	
16	   N	1347.560	392.413	-1350.560	N.am	2	ASN2	-0.416	
17	  CA	1349.020	392.374	-1350.560	C.3	2	ASN2	0.014	
18	   C	1349.551	392.019	-1351.928	C.2	2	ASN2	0.597	
19	   O	1350.465	392.649	-1352.457	O.2	2	ASN2	-0.568	
20	  CB	1349.512	391.351	-1349.495	C.3	2	ASN2	-0.204	
21	  CG	1349.049	391.575	-1348.052	C.2	2	ASN2	0.713	
22	 ND2	1349.643	392.490	-1347.334	N.pl3	2	ASN2	-0.919	
23	 OD1	1348.128	390.941	-1347.558	O.2	2	ASN2	-0.593	
24	   H	1347.032	391.833	-1349.923	 H	2	ASN2	0.272	
25	  HA	1349.397	393.384	-1350.314	 H	2	ASN2	0.105	
26	 2HB	1350.616	391.292	-1349.499	 H	2	ASN2	0.080	
27	 3HB	1349.183	390.333	-1349.781	 H	2	ASN2	0.080	
28	1HD2	1349.162	392.663	-1346.447	 H	2	ASN2	0.420	
29	2HD2	1350.344	393.062	-1347.803	 H	2	ASN2	0.420	
30	   N	1349.029	391.024	-1352.562	N.am	3	PRO3	-0.255	
31	  CA	1349.481	390.614	-1353.884	C.3	3	PRO3	-0.027	
32	   C	1349.083	391.638	-1354.961	C.2	3	PRO3	0.590	
33	   O	1349.906	392.021	-1355.792	O.2	3	PRO3	-0.575	
34	  CB	1348.777	389.260	-1354.053	C.3	3	PRO3	-0.007	
35	  CG	1347.494	389.412	-1353.223	C.3	3	PRO3	0.019	
36	  CD	1347.951	390.230	-1352.013	C.3	3	PRO3	0.019	
37	  HA	1350.567	390.494	-1353.898	 H	3	PRO3	0.064	
38	 2HB	1349.400	388.478	-1353.612	 H	3	PRO3	0.025	
39	 3HB	1348.579	389.011	-1355.099	 H	3	PRO3	0.025	
40	 2HG	1347.066	388.449	-1352.932	 H	3	PRO3	0.021	
41	 3HG	1346.756	389.983	-1353.790	 H	3	PRO3	0.021	
42	 2HD	1348.341	389.581	-1351.226	 H	3	PRO3	0.039	
43	 3HD	1347.155	390.866	-1351.620	 H	3	PRO3	0.039	
44	   N	1347.878	392.098	-1354.993	N.am	4	GLU4	-0.516	
45	  CA	1347.518	393.069	-1356.023	C.3	4	GLU4	0.040	
46	   C	1348.417	394.280	-1355.961	C.2	4	GLU4	0.537	
47	   O	1348.943	394.760	-1356.976	O.2	4	GLU4	-0.582	
48	  CB	1346.030	393.487	-1355.852	C.3	4	GLU4	0.056	
49	  CG	1345.481	394.491	-1356.918	C.3	4	GLU4	0.014	
50	  CD	1344.055	394.988	-1356.774	C.2	4	GLU4	0.805	
51	 OE1	1343.329	394.589	-1355.843	O.co2	4	GLU4	-0.819	
52	 OE2	1343.665	395.817	-1357.622	O.co2	4	GLU4	-0.819	
53	   H	1347.194	391.791	-1354.316	 H	4	GLU4	0.294	
54	  HA	1347.649	392.598	-1357.014	 H	4	GLU4	0.111	
55	 2HB	1345.877	393.927	-1354.845	 H	4	GLU4	-0.017	
56	 3HB	1345.382	392.590	-1355.858	 H	4	GLU4	-0.017	
57	 2HG	1345.563	394.076	-1357.935	 H	4	GLU4	-0.043	
58	 3HG	1346.069	395.423	-1356.929	 H	4	GLU4	-0.043	
59	   N	1348.645	394.833	-1354.818	N.am	5	SER5	-0.416	
60	  CA	1349.514	396.004	-1354.760	C.3	5	SER5	-0.025	
61	   C	1350.873	395.699	-1355.346	C.2	5	SER5	0.597	
62	   O	1351.420	396.452	-1356.151	O.2	5	SER5	-0.568	
63	  CB	1349.626	396.536	-1353.309	C.3	5	SER5	0.212	
64	  OG	1350.358	395.657	-1352.448	O.3	5	SER5	-0.655	
65	   H	1348.228	394.461	-1353.977	 H	5	SER5	0.272	
66	  HA	1349.065	396.794	-1355.389	 H	5	SER5	0.084	
67	 2HB	1348.626	396.730	-1352.876	 H	5	SER5	0.035	
68	 3HB	1350.131	397.522	-1353.312	 H	5	SER5	0.035	
69	  HG	1349.869	394.832	-1352.398	 H	5	SER5	0.428	
70	   N	1351.478	394.616	-1354.992	N.am	6	ILE6	-0.416	
71	  CA	1352.791	394.321	-1355.558	C.3	6	ILE6	-0.060	
72	   C	1352.733	394.284	-1357.066	C.2	6	ILE6	0.597	
73	   O	1353.568	394.871	-1357.770	O.2	6	ILE6	-0.568	
74	  CB	1353.391	392.985	-1354.958	C.3	6	ILE6	0.130	
75	 CG1	1353.410	392.922	-1353.397	C.3	6	ILE6	-0.043	
76	 CG2	1354.832	392.683	-1355.474	C.3	6	ILE6	-0.320	
77	 CD1	1353.680	391.533	-1352.783	C.3	6	ILE6	-0.066	
78	   H	1351.049	393.981	-1354.333	 H	6	ILE6	0.272	
79	  HA	1353.465	395.155	-1355.290	 H	6	ILE6	0.087	
80	  HB	1352.733	392.159	-1355.302	 H	6	ILE6	0.019	
81	2HG1	1352.428	393.242	-1353.001	 H	6	ILE6	0.024	
82	3HG1	1354.126	393.664	-1352.993	 H	6	ILE6	0.024	
83	1HG2	1354.891	392.590	-1356.572	 H	6	ILE6	0.088	
84	2HG2	1355.554	393.466	-1355.172	 H	6	ILE6	0.088	
85	3HG2	1355.222	391.721	-1355.095	 H	6	ILE6	0.088	
86	1HD1	1352.952	390.779	-1353.137	 H	6	ILE6	0.019	
87	2HD1	1354.691	391.154	-1353.018	 H	6	ILE6	0.019	
88	3HD1	1353.604	391.563	-1351.680	 H	6	ILE6	0.019	
89	   N	1351.787	393.620	-1357.640	N.am	7	LEU7	-0.416	
90	  CA	1351.732	393.584	-1359.098	C.3	7	LEU7	-0.052	
91	   C	1351.660	394.980	-1359.670	C.2	7	LEU7	0.597	
92	   O	1352.380	395.343	-1360.612	O.2	7	LEU7	-0.568	
93	  CB	1350.529	392.724	-1359.578	C.3	7	LEU7	-0.110	
94	  CG	1350.457	391.245	-1359.112	C.3	7	LEU7	0.353	
95	 CD1	1349.267	390.539	-1359.778	C.3	7	LEU7	-0.412	
96	 CD2	1351.750	390.466	-1359.404	C.3	7	LEU7	-0.412	
97	   H	1351.096	393.133	-1357.088	 H	7	LEU7	0.272	
98	  HA	1352.674	393.144	-1359.473	 H	7	LEU7	0.092	
99	 2HB	1350.506	392.740	-1360.686	 H	7	LEU7	0.046	
100	 3HB	1349.590	393.227	-1359.274	 H	7	LEU7	0.046	
101	  HG	1350.287	391.236	-1358.015	 H	7	LEU7	-0.036	
102	1HD1	1348.310	391.048	-1359.555	 H	7	LEU7	0.100	
103	2HD1	1349.366	390.499	-1360.879	 H	7	LEU7	0.100	
104	3HD1	1349.160	389.498	-1359.422	 H	7	LEU7	0.100	
105	1HD2	1352.025	390.496	-1360.474	 H	7	LEU7	0.100	
106	2HD2	1352.604	390.877	-1358.833	 H	7	LEU7	0.100	
107	3HD2	1351.669	389.403	-1359.108	 H	7	LEU7	0.100	
108	   N	1350.823	395.820	-1359.164	N.am	8	ARG8	-0.348	
109	  CA	1350.752	397.169	-1359.717	C.3	8	ARG8	-0.264	
110	   C	1352.101	397.848	-1359.659	C.2	8	ARG8	0.734	
111	   O	1352.571	398.447	-1360.624	O.2	8	ARG8	-0.589	
112	  CB	1349.678	397.976	-1358.935	C.3	8	ARG8	-0.001	
113	  CG	1349.276	399.340	-1359.564	C.3	8	ARG8	0.039	
114	  CD	1348.237	400.087	-1358.710	C.3	8	ARG8	0.049	
115	  NE	1347.876	401.375	-1359.372	N.pl3	8	ARG8	-0.530	
116	  CZ	1347.011	402.266	-1358.898	C.cat	8	ARG8	0.808	
117	 NH1	1346.367	402.121	-1357.774	N.pl3	8	ARG8	-0.863	
118	 NH2	1346.792	403.340	-1359.590	N.pl3	8	ARG8	-0.863	
119	   H	1350.225	395.549	-1358.396	 H	8	ARG8	0.275	
120	  HA	1350.465	397.088	-1360.783	 H	8	ARG8	0.156	
121	 2HB	1350.033	398.127	-1357.894	 H	8	ARG8	0.033	
122	 3HB	1348.766	397.355	-1358.826	 H	8	ARG8	0.033	
123	 2HG	1348.886	399.168	-1360.588	 H	8	ARG8	0.029	
124	 3HG	1350.173	399.980	-1359.690	 H	8	ARG8	0.029	
125	 2HD	1348.656	400.266	-1357.695	 H	8	ARG8	0.069	
126	 3HD	1347.341	399.445	-1358.572	 H	8	ARG8	0.069	
127	  HE	1348.296	401.644	-1360.268	 H	8	ARG8	0.346	
128	1HH1	1346.586	401.254	-1357.277	 H	8	ARG8	0.448	
129	2HH1	1345.718	402.852	-1357.479	 H	8	ARG8	0.448	
130	1HH2	1347.306	403.437	-1360.468	 H	8	ARG8	0.448	
131	2HH2	1346.123	404.011	-1359.211	 H	8	ARG8	0.448	
132	   N	1352.780	397.797	-1358.563	N.am	9	GLU9	-0.516	
133	  CA	1354.083	398.453	-1358.507	C.3	9	GLU9	0.040	
134	   C	1355.001	397.924	-1359.582	C.2	9	GLU9	0.537	
135	   O	1355.667	398.678	-1360.307	O.2	9	GLU9	-0.582	
136	  CB	1354.715	398.244	-1357.101	C.3	9	GLU9	0.056	
137	  CG	1356.099	398.934	-1356.870	C.3	9	GLU9	0.014	
138	  CD	1356.799	398.719	-1355.541	C.2	9	GLU9	0.805	
139	 OE1	1356.276	398.029	-1354.646	O.co2	9	GLU9	-0.819	
140	 OE2	1357.919	399.256	-1355.409	O.co2	9	GLU9	-0.819	
141	   H	1352.415	397.311	-1357.757	 H	9	GLU9	0.294	
142	  HA	1353.942	399.535	-1358.682	 H	9	GLU9	0.111	
143	 2HB	1354.827	397.159	-1356.898	 H	9	GLU9	-0.017	
144	 3HB	1354.018	398.598	-1356.317	 H	9	GLU9	-0.017	
145	 2HG	1356.028	400.025	-1357.009	 H	9	GLU9	-0.043	
146	 3HG	1356.845	398.589	-1357.604	 H	9	GLU9	-0.043	
147	   N	1355.096	396.649	-1359.752	N.am	10	HIS10	-0.416	
148	  CA	1355.984	396.137	-1360.792	C.3	10	HIS10	-0.058	
149	   C	1355.620	396.703	-1362.143	C.2	10	HIS10	0.597	
150	   O	1356.473	397.167	-1362.914	O.2	10	HIS10	-0.568	
151	  CB	1355.818	394.608	-1360.788	C.3	10	HIS10	-0.007	
152	  CG	1357.103	393.897	-1360.479	C.2	10	HIS10	0.187	
153	 CD2	1357.482	393.560	-1359.186	C.2	10	HIS10	-0.221	
154	 ND1	1358.055	393.490	-1361.411	N.2	10	HIS10	-0.543	
155	 CE1	1358.960	392.930	-1360.587	C.2	10	HIS10	0.163	
156	 NE2	1358.696	392.927	-1359.252	N.pl3	10	HIS10	-0.280	
157	   H	1354.564	396.014	-1359.174	 H	10	HIS10	0.272	
158	  HA	1357.004	396.493	-1360.566	 H	10	HIS10	0.136	
159	 2HB	1355.454	394.242	-1361.768	 H	10	HIS10	0.037	
160	 3HB	1355.062	394.272	-1360.049	 H	10	HIS10	0.037	
161	 2HD	1356.896	393.776	-1358.298	 H	10	HIS10	0.186	
162	 1HE	1359.851	392.508	-1361.034	 H	10	HIS10	0.144	
163	 2HE	1359.262	392.549	-1358.479	 H	10	HIS10	0.334	
164	   N	1354.382	396.704	-1362.507	N.am	11	VAL11	-0.416	
165	  CA	1354.029	397.251	-1363.814	C.3	11	VAL11	-0.087	
166	   C	1354.495	398.681	-1363.945	C.2	11	VAL11	0.597	
167	   O	1355.097	399.085	-1364.948	O.2	11	VAL11	-0.568	
168	  CB	1352.468	397.146	-1364.035	C.3	11	VAL11	0.299	
169	 CG1	1351.901	397.851	-1365.298	C.3	11	VAL11	-0.319	
170	 CG2	1351.941	395.693	-1364.109	C.3	11	VAL11	-0.319	
171	   H	1353.668	396.331	-1361.897	 H	11	VAL11	0.272	
172	  HA	1354.548	396.668	-1364.596	 H	11	VAL11	0.097	
173	  HB	1351.980	397.627	-1363.160	 H	11	VAL11	-0.030	
174	1HG1	1352.340	397.460	-1366.235	 H	11	VAL11	0.079	
175	2HG1	1350.802	397.746	-1365.380	 H	11	VAL11	0.079	
176	3HG1	1352.080	398.944	-1365.288	 H	11	VAL11	0.079	
177	1HG2	1352.229	395.105	-1363.218	 H	11	VAL11	0.079	
178	2HG2	1350.835	395.657	-1364.153	 H	11	VAL11	0.079	
179	3HG2	1352.323	395.152	-1364.996	 H	11	VAL11	0.079	
180	   N	1354.258	399.506	-1362.983	N.am	12	GLN12	-0.416	
181	  CA	1354.708	400.889	-1363.109	C.3	12	GLN12	-0.003	
182	   C	1356.199	400.954	-1363.346	C.2	12	GLN12	0.597	
183	   O	1356.687	401.662	-1364.224	O.2	12	GLN12	-0.568	
184	  CB	1354.318	401.656	-1361.826	C.3	12	GLN12	-0.004	
185	  CG	1354.680	403.178	-1361.794	C.3	12	GLN12	-0.064	
186	  CD	1354.378	403.991	-1360.529	C.2	12	GLN12	0.695	
187	 NE2	1353.809	403.415	-1359.501	N.pl3	12	GLN12	-0.941	
188	 OE1	1354.681	405.172	-1360.451	O.2	12	GLN12	-0.609	
189	   H	1353.768	399.201	-1362.154	 H	12	GLN12	0.272	
190	  HA	1354.210	401.346	-1363.984	 H	12	GLN12	0.085	
191	 2HB	1354.792	401.155	-1360.957	 H	12	GLN12	0.017	
192	 3HB	1353.227	401.550	-1361.664	 H	12	GLN12	0.017	
193	 2HG	1354.204	403.699	-1362.645	 H	12	GLN12	0.035	
194	 3HG	1355.764	403.318	-1361.959	 H	12	GLN12	0.035	
195	1HE2	1353.702	404.009	-1358.677	 H	12	GLN12	0.425	
196	2HE2	1353.644	402.412	-1359.605	 H	12	GLN12	0.425	
197	   N	1356.982	400.246	-1362.604	N.am	13	ARG13	-0.348	
198	  CA	1358.422	400.310	-1362.834	C.3	13	ARG13	-0.264	
199	   C	1358.759	399.939	-1364.259	C.2	13	ARG13	0.734	
200	   O	1359.529	400.609	-1364.942	O.2	13	ARG13	-0.589	
201	  CB	1359.133	399.369	-1361.820	C.3	13	ARG13	-0.001	
202	  CG	1360.679	399.520	-1361.738	C.3	13	ARG13	0.039	
203	  CD	1361.303	398.531	-1360.740	C.3	13	ARG13	0.049	
204	  NE	1362.781	398.736	-1360.688	N.pl3	13	ARG13	-0.530	
205	  CZ	1363.627	398.043	-1359.932	C.cat	13	ARG13	0.808	
206	 NH1	1363.260	397.079	-1359.136	N.pl3	13	ARG13	-0.863	
207	 NH2	1364.887	398.340	-1359.988	N.pl3	13	ARG13	-0.863	
208	   H	1356.604	399.657	-1361.876	 H	13	ARG13	0.275	
209	  HA	1358.748	401.355	-1362.675	 H	13	ARG13	0.156	
210	 2HB	1358.866	398.319	-1362.060	 H	13	ARG13	0.033	
211	 3HB	1358.708	399.536	-1360.810	 H	13	ARG13	0.033	
212	 2HG	1360.928	400.564	-1361.458	 H	13	ARG13	0.029	
213	 3HG	1361.130	399.364	-1362.739	 H	13	ARG13	0.029	
214	 2HD	1361.058	397.491	-1361.050	 H	13	ARG13	0.069	
215	 3HD	1360.846	398.677	-1359.738	 H	13	ARG13	0.069	
216	  HE	1363.233	399.458	-1361.258	 H	13	ARG13	0.346	
217	1HH1	1362.254	396.894	-1359.140	 H	13	ARG13	0.448	
218	2HH1	1363.972	396.594	-1358.587	 H	13	ARG13	0.448	
219	1HH2	1365.156	399.098	-1360.619	 H	13	ARG13	0.448	
220	2HH2	1365.521	397.797	-1359.399	 H	13	ARG13	0.448	
221	   N	1358.222	398.885	-1364.774	N.am	14	VAL14	-0.416	
222	  CA	1358.547	398.526	-1366.151	C.3	14	VAL14	-0.087	
223	   C	1358.219	399.656	-1367.097	C.2	14	VAL14	0.597	
224	   O	1359.013	400.037	-1367.966	O.2	14	VAL14	-0.568	
225	  CB	1357.773	397.210	-1366.559	C.3	14	VAL14	0.299	
226	 CG1	1357.862	396.792	-1368.053	C.3	14	VAL14	-0.319	
227	 CG2	1358.203	395.957	-1365.759	C.3	14	VAL14	-0.319	
228	   H	1357.586	398.317	-1364.233	 H	14	VAL14	0.272	
229	  HA	1359.635	398.347	-1366.225	 H	14	VAL14	0.097	
230	  HB	1356.697	397.383	-1366.344	 H	14	VAL14	-0.030	
231	1HG1	1358.904	396.613	-1368.381	 H	14	VAL14	0.079	
232	2HG1	1357.288	395.869	-1368.266	 H	14	VAL14	0.079	
233	3HG1	1357.435	397.555	-1368.731	 H	14	VAL14	0.079	
234	1HG2	1358.115	396.115	-1364.668	 H	14	VAL14	0.079	
235	2HG2	1357.566	395.081	-1365.992	 H	14	VAL14	0.079	
236	3HG2	1359.250	395.665	-1365.964	 H	14	VAL14	0.079	
237	   N	1357.075	400.244	-1366.996	N.am	15	MET15	-0.416	
238	  CA	1356.757	401.337	-1367.909	C.3	15	MET15	-0.024	
239	   C	1357.788	402.436	-1367.820	C.2	15	MET15	0.597	
240	   O	1358.292	402.946	-1368.833	O.2	15	MET15	-0.568	
241	  CB	1355.336	401.885	-1367.601	C.3	15	MET15	0.034	
242	  CG	1354.173	400.888	-1367.794	C.3	15	MET15	0.002	
243	  SD	1352.600	401.756	-1367.680	S.3	15	MET15	-0.274	
244	  CE	1351.517	400.328	-1367.545	C.3	15	MET15	-0.054	
245	   H	1356.409	399.952	-1366.295	 H	15	MET15	0.272	
246	  HA	1356.783	400.950	-1368.945	 H	15	MET15	0.088	
247	 2HB	1355.135	402.764	-1368.243	 H	15	MET15	0.024	
248	 3HB	1355.300	402.277	-1366.564	 H	15	MET15	0.024	
249	 2HG	1354.214	400.102	-1367.016	 H	15	MET15	0.044	
250	 3HG	1354.235	400.373	-1368.770	 H	15	MET15	0.044	
251	 1HE	1351.660	399.640	-1368.397	 H	15	MET15	0.068	
252	 2HE	1351.725	399.775	-1366.612	 H	15	MET15	0.068	
253	 3HE	1350.459	400.645	-1367.528	 H	15	MET15	0.068	
254	   N	1358.157	402.856	-1366.658	N.am	16	ARG16	-0.348	
255	  CA	1359.155	403.918	-1366.573	C.3	16	ARG16	-0.264	
256	   C	1360.425	403.524	-1367.289	C.2	16	ARG16	0.734	
257	   O	1360.538	402.448	-1367.870	O.2	16	ARG16	-0.589	
258	  CB	1359.423	404.236	-1365.075	C.3	16	ARG16	-0.001	
259	  CG	1360.250	405.523	-1364.801	C.3	16	ARG16	0.039	
260	  CD	1360.499	405.742	-1363.300	C.3	16	ARG16	0.049	
261	  NE	1361.277	407.000	-1363.098	N.pl3	16	ARG16	-0.530	
262	  CZ	1361.668	407.482	-1361.922	C.cat	16	ARG16	0.808	
263	 NH1	1361.419	406.898	-1360.784	N.pl3	16	ARG16	-0.863	
264	 NH2	1362.334	408.593	-1361.903	N.pl3	16	ARG16	-0.863	
265	   H	1357.761	402.456	-1365.819	 H	16	ARG16	0.275	
266	  HA	1358.747	404.812	-1367.083	 H	16	ARG16	0.156	
267	 2HB	1359.919	403.359	-1364.608	 H	16	ARG16	0.033	
268	 3HB	1358.454	404.318	-1364.541	 H	16	ARG16	0.033	
269	 2HG	1359.721	406.395	-1365.239	 H	16	ARG16	0.029	
270	 3HG	1361.224	405.469	-1365.330	 H	16	ARG16	0.029	
271	 2HD	1361.047	404.867	-1362.886	 H	16	ARG16	0.069	
272	 3HD	1359.526	405.786	-1362.765	 H	16	ARG16	0.069	
273	  HE	1361.557	407.581	-1363.895	 H	16	ARG16	0.346	
274	1HH1	1360.892	406.025	-1360.869	 H	16	ARG16	0.448	
275	2HH1	1361.754	407.333	-1359.922	 H	16	ARG16	0.448	
276	1HH2	1362.521	409.036	-1362.805	 H	16	ARG16	0.448	
277	2HH2	1362.624	408.948	-1360.990	 H	16	ARG16	0.448	
@<TRIPOS>BOND
1 1 2 1
2 1 10 1
3 2 3 1
4 2 5 1
5 2 11 1
6 3 4 2
7 3 16 1
8 5 6 1
9 6 7 1
10 7 8 2
11 7 9 1
12 5 12 1
13 5 13 1
14 6 14 1
15 6 15 1
16 16 17 1
17 16 24 1
18 17 18 1
19 17 20 1
20 17 25 1
21 18 19 2
22 18 30 1
23 20 21 1
24 21 22 1
25 21 23 2
26 20 26 1
27 20 27 1
28 22 28 1
29 22 29 1
30 30 31 1
31 30 36 1
32 31 32 1
33 31 34 1
34 31 37 1
35 32 33 2
36 32 44 1
37 34 35 1
38 35 36 1
39 34 38 1
40 34 39 1
41 35 40 1
42 35 41 1
43 36 42 1
44 36 43 1
45 44 45 1
46 44 53 1
47 45 46 1
48 45 48 1
49 45 54 1
50 46 47 2
51 46 59 1
52 48 49 1
53 49 50 1
54 50 51 2
55 50 52 1
56 48 55 1
57 48 56 1
58 49 57 1
59 49 58 1
60 59 60 1
61 59 65 1
62 60 61 1
63 60 63 1
64 60 66 1
65 61 62 2
66 61 70 1
67 63 64 1
68 63 67 1
69 63 68 1
70 64 69 1
71 70 71 1
72 70 78 1
73 71 72 1
74 71 74 1
75 71 79 1
76 72 73 2
77 72 89 1
78 74 75 1
79 74 76 1
80 75 77 1
81 74 80 1
82 75 81 1
83 75 82 1
84 76 83 1
85 76 84 1
86 76 85 1
87 77 86 1
88 77 87 1
89 77 88 1
90 89 90 1
91 89 97 1
92 90 91 1
93 90 93 1
94 90 98 1
95 91 92 2
96 91 108 1
97 93 94 1
98 94 95 1
99 94 96 1
100 93 99 1
101 93 100 1
102 94 101 1
103 95 102 1
104 95 103 1
105 95 104 1
106 96 105 1
107 96 106 1
108 96 107 1
109 108 109 1
110 108 119 1
111 109 110 1
112 109 112 1
113 109 120 1
114 110 111 2
115 110 132 1
116 112 113 1
117 113 114 1
118 114 115 1
119 115 116 1
120 116 117 2
121 116 118 1
122 112 121 1
123 112 122 1
124 113 123 1
125 113 124 1
126 114 125 1
127 114 126 1
128 115 127 1
129 117 128 1
130 117 129 1
131 118 130 1
132 118 131 1
133 132 133 1
134 132 141 1
135 133 134 1
136 133 136 1
137 133 142 1
138 134 135 2
139 134 147 1
140 136 137 1
141 137 138 1
142 138 139 2
143 138 140 1
144 136 143 1
145 136 144 1
146 137 145 1
147 137 146 1
148 147 148 1
149 147 157 1
150 148 149 1
151 148 151 1
152 148 158 1
153 149 150 2
154 149 164 1
155 151 152 1
156 152 153 2
157 153 156 1
158 152 154 1
159 154 155 2
160 155 156 1
161 151 159 1
162 151 160 1
163 153 161 1
164 155 162 1
165 156 163 1
166 164 165 1
167 164 171 1
168 165 166 1
169 165 168 1
170 165 172 1
171 166 167 2
172 166 180 1
173 168 169 1
174 168 170 1
175 168 173 1
176 169 174 1
177 169 175 1
178 169 176 1
179 170 177 1
180 170 178 1
181 170 179 1
182 180 181 1
183 180 189 1
184 181 182 1
185 181 184 1
186 181 190 1
187 182 183 2
188 182 197 1
189 184 185 1
190 185 186 1
191 186 187 1
192 186 188 2
193 184 191 1
194 184 192 1
195 185 193 1
196 185 194 1
197 187 195 1
198 187 196 1
199 197 198 1
200 197 208 1
201 198 199 1
202 198 201 1
203 198 209 1
204 199 200 2
205 199 221 1
206 201 202 1
207 202 203 1
208 203 204 1
209 204 205 1
210 205 206 2
211 205 207 1
212 201 210 1
213 201 211 1
214 202 212 1
215 202 213 1
216 203 214 1
217 203 215 1
218 204 216 1
219 206 217 1
220 206 218 1
221 207 219 1
222 207 220 1
223 221 222 1
224 221 228 1
225 222 223 1
226 222 225 1
227 222 229 1
228 223 224 2
229 223 237 1
230 225 226 1
231 225 227 1
232 225 230 1
233 226 231 1
234 226 232 1
235 226 233 1
236 227 234 1
237 227 235 1
238 227 236 1
239 237 238 1
240 237 245 1
241 238 239 1
242 238 241 1
243 238 246 1
244 239 240 2
245 239 254 1
246 241 242 1
247 242 243 1
248 243 244 1
249 241 247 1
250 241 248 1
251 242 249 1
252 242 250 1
253 244 251 1
254 244 252 1
255 244 253 1
256 254 255 1
257 254 265 1
258 255 256 1
259 255 258 1
260 255 266 1
261 256 257 2
262 258 259 1
263 259 260 1
264 260 261 1
265 261 262 1
266 262 263 2
267 262 264 1
268 258 267 1
269 258 268 1
270 259 269 1
271 259 270 1
272 260 271 1
273 260 272 1
274 261 273 1
275 263 274 1
276 263 275 1
277 264 276 1
278 264 277 1
@<TRIPOS>SUBSTRUCTURE
1	GLU1	1	RESIDUE	1 ****	GLU
2	ASN2	16	RESIDUE	1 ****	ASN
3	PRO3	30	RESIDUE	1 ****	PRO
4	GLU4	44	RESIDUE	1 ****	GLU
5	SER5	59	RESIDUE	1 ****	SER
6	ILE6	70	RESIDUE	1 ****	ILE
7	LEU7	89	RESIDUE	1 ****	LEU
8	ARG8	108	RESIDUE	1 ****	ARG
9	GLU9	132	RESIDUE	1 ****	GLU
10	HIS10	147	RESIDUE	1 ****	HIS
11	VAL11	164	RESIDUE	1 ****	VAL
12	GLN12	180	RESIDUE	1 ****	GLN
13	ARG13	197	RESIDUE	1 ****	ARG
14	VAL14	221	RESIDUE	1 ****	VAL
15	MET15	237	RESIDUE	1 ****	MET
16	ARG16	254	RESIDUE	1 ****	ARG
