@<TRIPOS>MOLECULE
13-11
258 260 16              
SMALL
USER_CHARGES
@<TRIPOS>ATOM
1	   N	2088.883	634.459	-2160.134	N.3	1	GLU1	-0.516	
2	  CA	2089.442	635.808	-2160.134	C.3	1	GLU1	0.040	
3	   C	2090.951	635.768	-2160.134	C.2	1	GLU1	0.537	
4	   O	2091.626	636.467	-2160.903	O.2	1	GLU1	-0.582	
5	  CB	2088.918	636.593	-2158.897	C.3	1	GLU1	0.056	
6	  CG	2089.394	638.078	-2158.786	C.3	1	GLU1	0.014	
7	  CD	2088.969	638.882	-2157.571	C.2	1	GLU1	0.805	
8	 OE1	2088.241	638.380	-2156.693	O.co2	1	GLU1	-0.819	
9	 OE2	2089.400	640.052	-2157.499	O.co2	1	GLU1	-0.819	
10	   H	2089.510	633.580	-2160.134	 H	1	GLU1	0.294	
11	  HA	2089.115	636.326	-2161.054	 H	1	GLU1	0.111	
12	 2HB	2089.208	636.062	-2157.967	 H	1	GLU1	-0.017	
13	 3HB	2087.812	636.583	-2158.884	 H	1	GLU1	-0.017	
14	 2HG	2089.083	638.663	-2159.667	 H	1	GLU1	-0.043	
15	 3HG	2090.494	638.145	-2158.757	 H	1	GLU1	-0.043	
16	   N	2091.555	634.982	-2159.309	N.am	2	ASN2	-0.416	
17	  CA	2093.014	634.943	-2159.309	C.3	2	ASN2	0.014	
18	   C	2093.546	634.587	-2160.677	C.2	2	ASN2	0.597	
19	   O	2094.461	635.217	-2161.206	O.2	2	ASN2	-0.568	
20	  CB	2093.506	633.920	-2158.244	C.3	2	ASN2	-0.204	
21	  CG	2093.043	634.144	-2156.801	C.2	2	ASN2	0.713	
22	 ND2	2093.637	635.058	-2156.083	N.pl3	2	ASN2	-0.919	
23	 OD1	2092.122	633.510	-2156.307	O.2	2	ASN2	-0.593	
24	   H	2091.027	634.402	-2158.673	 H	2	ASN2	0.272	
25	  HA	2093.392	635.952	-2159.063	 H	2	ASN2	0.105	
26	 2HB	2094.610	633.861	-2158.248	 H	2	ASN2	0.080	
27	 3HB	2093.177	632.901	-2158.530	 H	2	ASN2	0.080	
28	1HD2	2093.156	635.232	-2155.197	 H	2	ASN2	0.420	
29	2HD2	2094.339	635.630	-2156.552	 H	2	ASN2	0.420	
30	   N	2093.024	633.592	-2161.312	N.am	3	PRO3	-0.255	
31	  CA	2093.477	633.183	-2162.633	C.3	3	PRO3	-0.027	
32	   C	2093.079	634.207	-2163.710	C.2	3	PRO3	0.590	
33	   O	2093.902	634.590	-2164.542	O.2	3	PRO3	-0.575	
34	  CB	2092.772	631.828	-2162.803	C.3	3	PRO3	-0.007	
35	  CG	2091.489	631.981	-2161.973	C.3	3	PRO3	0.019	
36	  CD	2091.946	632.799	-2160.763	C.3	3	PRO3	0.019	
37	  HA	2094.562	633.063	-2162.646	 H	3	PRO3	0.064	
38	 2HB	2093.395	631.047	-2162.362	 H	3	PRO3	0.025	
39	 3HB	2092.574	631.580	-2163.848	 H	3	PRO3	0.025	
40	 2HG	2091.061	631.019	-2161.682	 H	3	PRO3	0.021	
41	 3HG	2090.751	632.552	-2162.541	 H	3	PRO3	0.021	
42	 2HD	2092.335	632.150	-2159.976	 H	3	PRO3	0.039	
43	 3HD	2091.149	633.435	-2160.370	 H	3	PRO3	0.039	
44	   N	2091.874	634.667	-2163.743	N.am	4	GLU4	-0.516	
45	  CA	2091.515	635.638	-2164.773	C.3	4	GLU4	0.040	
46	   C	2092.414	636.849	-2164.711	C.2	4	GLU4	0.537	
47	   O	2092.941	637.328	-2165.725	O.2	4	GLU4	-0.582	
48	  CB	2090.026	636.057	-2164.603	C.3	4	GLU4	0.056	
49	  CG	2089.479	637.061	-2165.669	C.3	4	GLU4	0.014	
50	  CD	2088.052	637.558	-2165.526	C.2	4	GLU4	0.805	
51	 OE1	2087.326	637.159	-2164.595	O.co2	4	GLU4	-0.819	
52	 OE2	2087.664	638.387	-2166.374	O.co2	4	GLU4	-0.819	
53	   H	2091.189	634.360	-2163.066	 H	4	GLU4	0.294	
54	  HA	2091.646	635.167	-2165.764	 H	4	GLU4	0.111	
55	 2HB	2089.874	636.497	-2163.596	 H	4	GLU4	-0.017	
56	 3HB	2089.378	635.159	-2164.609	 H	4	GLU4	-0.017	
57	 2HG	2089.561	636.646	-2166.687	 H	4	GLU4	-0.043	
58	 3HG	2090.067	637.993	-2165.680	 H	4	GLU4	-0.043	
59	   N	2092.641	637.401	-2163.568	N.am	5	SER5	-0.416	
60	  CA	2093.511	638.572	-2163.509	C.3	5	SER5	-0.025	
61	   C	2094.870	638.266	-2164.094	C.2	5	SER5	0.597	
62	   O	2095.418	639.020	-2164.899	O.2	5	SER5	-0.568	
63	  CB	2093.622	639.104	-2162.059	C.3	5	SER5	0.212	
64	  OG	2094.353	638.225	-2161.198	O.3	5	SER5	-0.655	
65	   H	2092.224	637.030	-2162.727	 H	5	SER5	0.272	
66	  HA	2093.062	639.363	-2164.138	 H	5	SER5	0.084	
67	 2HB	2092.622	639.298	-2161.625	 H	5	SER5	0.035	
68	 3HB	2094.128	640.090	-2162.061	 H	5	SER5	0.035	
69	  HG	2093.864	637.400	-2161.147	 H	5	SER5	0.428	
70	   N	2095.474	637.183	-2163.740	N.am	6	ILE6	-0.416	
71	  CA	2096.787	636.887	-2164.306	C.3	6	ILE6	-0.060	
72	   C	2096.730	636.850	-2165.814	C.2	6	ILE6	0.597	
73	   O	2097.565	637.437	-2166.518	O.2	6	ILE6	-0.568	
74	  CB	2097.386	635.551	-2163.706	C.3	6	ILE6	0.130	
75	 CG1	2097.405	635.489	-2162.145	C.3	6	ILE6	-0.043	
76	 CG2	2098.828	635.249	-2164.221	C.3	6	ILE6	-0.320	
77	 CD1	2097.675	634.099	-2161.530	C.3	6	ILE6	-0.066	
78	   H	2095.045	636.549	-2163.081	 H	6	ILE6	0.272	
79	  HA	2097.462	637.721	-2164.038	 H	6	ILE6	0.087	
80	  HB	2096.728	634.725	-2164.050	 H	6	ILE6	0.019	
81	2HG1	2096.423	635.809	-2161.749	 H	6	ILE6	0.024	
82	3HG1	2098.121	636.231	-2161.740	 H	6	ILE6	0.024	
83	1HG2	2098.887	635.155	-2165.319	 H	6	ILE6	0.088	
84	2HG2	2099.550	636.031	-2163.918	 H	6	ILE6	0.088	
85	3HG2	2099.217	634.287	-2163.842	 H	6	ILE6	0.088	
86	1HD1	2096.946	633.346	-2161.885	 H	6	ILE6	0.019	
87	2HD1	2098.685	633.721	-2161.765	 H	6	ILE6	0.019	
88	3HD1	2097.598	634.130	-2160.427	 H	6	ILE6	0.019	
89	   N	2095.784	636.187	-2166.387	N.am	7	LEU7	-0.416	
90	  CA	2095.729	636.150	-2167.846	C.3	7	LEU7	-0.052	
91	   C	2095.657	637.546	-2168.419	C.2	7	LEU7	0.597	
92	   O	2096.378	637.907	-2169.361	O.2	7	LEU7	-0.568	
93	  CB	2094.526	635.291	-2168.326	C.3	7	LEU7	-0.110	
94	  CG	2094.453	633.811	-2167.860	C.3	7	LEU7	0.353	
95	 CD1	2093.263	633.106	-2168.525	C.3	7	LEU7	-0.412	
96	 CD2	2095.746	633.032	-2168.151	C.3	7	LEU7	-0.412	
97	   H	2095.092	635.700	-2165.836	 H	7	LEU7	0.272	
98	  HA	2096.671	635.710	-2168.220	 H	7	LEU7	0.092	
99	 2HB	2094.503	635.306	-2169.434	 H	7	LEU7	0.046	
100	 3HB	2093.586	635.793	-2168.022	 H	7	LEU7	0.046	
101	  HG	2094.283	633.803	-2166.762	 H	7	LEU7	-0.036	
102	1HD1	2092.305	633.615	-2168.302	 H	7	LEU7	0.100	
103	2HD1	2093.362	633.065	-2169.626	 H	7	LEU7	0.100	
104	3HD1	2093.155	632.065	-2168.169	 H	7	LEU7	0.100	
105	1HD2	2096.021	633.062	-2169.221	 H	7	LEU7	0.100	
106	2HD2	2096.599	633.443	-2167.580	 H	7	LEU7	0.100	
107	3HD2	2095.664	631.969	-2167.855	 H	7	LEU7	0.100	
108	   N	2094.820	638.387	-2167.913	N.am	8	ASP8	-0.516	
109	  CA	2094.750	639.736	-2168.467	C.3	8	ASP8	0.038	
110	   C	2096.098	640.415	-2168.410	C.2	8	ASP8	0.537	
111	   O	2096.571	641.019	-2169.385	O.2	8	ASP8	-0.582	
112	  CB	2093.673	640.576	-2167.726	C.3	8	ASP8	-0.030	
113	  CG	2093.455	641.997	-2168.267	C.2	8	ASP8	0.799	
114	 OD1	2093.519	642.195	-2169.498	O.co2	8	ASP8	-0.801	
115	 OD2	2093.263	642.923	-2167.452	O.co2	8	ASP8	-0.801	
116	   H	2094.222	638.117	-2167.145	 H	8	ASP8	0.294	
117	  HA	2094.468	639.658	-2169.534	 H	8	ASP8	0.088	
118	 2HB	2093.930	640.660	-2166.654	 H	8	ASP8	-0.012	
119	 3HB	2092.694	640.071	-2167.759	 H	8	ASP8	-0.012	
120	   N	2096.778	640.366	-2167.315	N.am	9	GLU9	-0.516	
121	  CA	2098.081	641.023	-2167.260	C.3	9	GLU9	0.040	
122	   C	2098.998	640.494	-2168.336	C.2	9	GLU9	0.537	
123	   O	2099.662	641.248	-2169.062	O.2	9	GLU9	-0.582	
124	  CB	2098.714	640.815	-2165.855	C.3	9	GLU9	0.056	
125	  CG	2100.097	641.507	-2165.626	C.3	9	GLU9	0.014	
126	  CD	2100.799	641.294	-2164.298	C.2	9	GLU9	0.805	
127	 OE1	2100.278	640.604	-2163.401	O.co2	9	GLU9	-0.819	
128	 OE2	2101.919	641.832	-2164.167	O.co2	9	GLU9	-0.819	
129	   H	2096.414	639.880	-2166.508	 H	9	GLU9	0.294	
130	  HA	2097.939	642.105	-2167.436	 H	9	GLU9	0.111	
131	 2HB	2098.827	639.731	-2165.651	 H	9	GLU9	-0.017	
132	 3HB	2098.018	641.169	-2165.071	 H	9	GLU9	-0.017	
133	 2HG	2100.026	642.598	-2165.766	 H	9	GLU9	-0.043	
134	 3HG	2100.844	641.161	-2166.360	 H	9	GLU9	-0.043	
135	   N	2099.094	639.219	-2168.505	N.am	10	HIS10	-0.416	
136	  CA	2099.981	638.706	-2169.545	C.3	10	HIS10	-0.058	
137	   C	2099.615	639.271	-2170.897	C.2	10	HIS10	0.597	
138	   O	2100.467	639.735	-2171.669	O.2	10	HIS10	-0.568	
139	  CB	2099.817	637.178	-2169.540	C.3	10	HIS10	-0.007	
140	  CG	2101.102	636.467	-2169.232	C.2	10	HIS10	0.187	
141	 CD2	2101.484	636.132	-2167.939	C.2	10	HIS10	-0.221	
142	 ND1	2102.054	636.060	-2170.164	N.2	10	HIS10	-0.543	
143	 CE1	2102.960	635.502	-2169.341	C.2	10	HIS10	0.163	
144	 NE2	2102.698	635.500	-2168.006	N.pl3	10	HIS10	-0.280	
145	   H	2098.563	638.584	-2167.926	 H	10	HIS10	0.272	
146	  HA	2101.001	639.064	-2169.321	 H	10	HIS10	0.136	
147	 2HB	2099.451	636.810	-2170.519	 H	10	HIS10	0.037	
148	 3HB	2099.061	636.841	-2168.799	 H	10	HIS10	0.037	
149	 2HD	2100.898	636.348	-2167.050	 H	10	HIS10	0.186	
150	 1HE	2103.851	635.080	-2169.788	 H	10	HIS10	0.144	
151	 2HE	2103.265	635.123	-2167.233	 H	10	HIS10	0.334	
152	   N	2098.377	639.270	-2171.260	N.am	11	VAL11	-0.416	
153	  CA	2098.021	639.816	-2172.567	C.3	11	VAL11	-0.087	
154	   C	2098.487	641.246	-2172.700	C.2	11	VAL11	0.597	
155	   O	2099.088	641.650	-2173.703	O.2	11	VAL11	-0.568	
156	  CB	2096.460	639.710	-2172.786	C.3	11	VAL11	0.299	
157	 CG1	2095.892	640.413	-2174.049	C.3	11	VAL11	-0.319	
158	 CG2	2095.935	638.256	-2172.858	C.3	11	VAL11	-0.319	
159	   H	2097.664	638.898	-2170.649	 H	11	VAL11	0.272	
160	  HA	2098.541	639.232	-2173.349	 H	11	VAL11	0.097	
161	  HB	2095.973	640.191	-2171.911	 H	11	VAL11	-0.030	
162	1HG1	2096.330	640.021	-2174.986	 H	11	VAL11	0.079	
163	2HG1	2094.793	640.306	-2174.131	 H	11	VAL11	0.079	
164	3HG1	2096.071	641.505	-2174.040	 H	11	VAL11	0.079	
165	1HG2	2096.225	637.669	-2171.967	 H	11	VAL11	0.079	
166	2HG2	2094.829	638.219	-2172.900	 H	11	VAL11	0.079	
167	3HG2	2096.316	637.714	-2173.744	 H	11	VAL11	0.079	
168	   N	2098.250	642.072	-2171.738	N.am	12	GLN12	-0.416	
169	  CA	2098.700	643.455	-2171.866	C.3	12	GLN12	-0.003	
170	   C	2100.189	643.521	-2172.104	C.2	12	GLN12	0.597	
171	   O	2100.677	644.229	-2172.983	O.2	12	GLN12	-0.568	
172	  CB	2098.309	644.223	-2170.583	C.3	12	GLN12	-0.004	
173	  CG	2098.671	645.745	-2170.553	C.3	12	GLN12	-0.064	
174	  CD	2098.369	646.559	-2169.289	C.2	12	GLN12	0.695	
175	 NE2	2097.802	645.984	-2168.260	N.pl3	12	GLN12	-0.941	
176	 OE1	2098.672	647.740	-2169.212	O.2	12	GLN12	-0.609	
177	   H	2097.762	641.767	-2170.908	 H	12	GLN12	0.272	
178	  HA	2098.200	643.911	-2172.741	 H	12	GLN12	0.085	
179	 2HB	2098.785	643.723	-2169.714	 H	12	GLN12	0.017	
180	 3HB	2097.219	644.117	-2170.420	 H	12	GLN12	0.017	
181	 2HG	2098.193	646.266	-2171.404	 H	12	GLN12	0.035	
182	 3HG	2099.754	645.886	-2170.719	 H	12	GLN12	0.035	
183	1HE2	2097.696	646.578	-2167.436	 H	12	GLN12	0.425	
184	2HE2	2097.638	644.980	-2168.362	 H	12	GLN12	0.425	
185	   N	2100.974	642.814	-2171.363	N.am	13	HIS13	-0.416	
186	  CA	2102.415	642.879	-2171.594	C.3	13	HIS13	-0.058	
187	   C	2102.752	642.507	-2173.017	C.2	13	HIS13	0.597	
188	   O	2103.530	643.184	-2173.707	O.2	13	HIS13	-0.568	
189	  CB	2103.054	641.883	-2170.612	C.3	13	HIS13	-0.007	
190	  CG	2103.999	642.550	-2169.657	C.2	13	HIS13	0.187	
191	 CD2	2103.594	643.046	-2168.424	C.2	13	HIS13	-0.221	
192	 ND1	2105.361	642.757	-2169.866	N.2	13	HIS13	-0.543	
193	 CE1	2105.679	643.381	-2168.717	C.2	13	HIS13	0.163	
194	 NE2	2104.690	643.589	-2167.806	N.pl3	13	HIS13	-0.280	
195	   H	2100.597	642.225	-2170.634	 H	13	HIS13	0.272	
196	  HA	2102.728	643.928	-2171.459	 H	13	HIS13	0.136	
197	 2HB	2103.616	641.094	-2171.152	 H	13	HIS13	0.037	
198	 3HB	2102.294	641.342	-2170.010	 H	13	HIS13	0.037	
199	 2HD	2102.578	642.996	-2168.045	 H	13	HIS13	0.186	
200	 1HE	2106.709	643.681	-2168.579	 H	13	HIS13	0.144	
201	 2HE	2104.743	644.043	-2166.882	 H	13	HIS13	0.334	
202	   N	2102.216	641.452	-2173.531	N.am	14	VAL14	-0.416	
203	  CA	2102.543	641.092	-2174.908	C.3	14	VAL14	-0.087	
204	   C	2102.215	642.223	-2175.855	C.2	14	VAL14	0.597	
205	   O	2103.009	642.604	-2176.723	O.2	14	VAL14	-0.568	
206	  CB	2101.771	639.776	-2175.316	C.3	14	VAL14	0.299	
207	 CG1	2101.862	639.357	-2176.810	C.3	14	VAL14	-0.319	
208	 CG2	2102.201	638.524	-2174.515	C.3	14	VAL14	-0.319	
209	   H	2101.580	640.884	-2172.990	 H	14	VAL14	0.272	
210	  HA	2103.631	640.915	-2174.981	 H	14	VAL14	0.097	
211	  HB	2100.694	639.948	-2175.102	 H	14	VAL14	-0.030	
212	1HG1	2102.904	639.179	-2177.136	 H	14	VAL14	0.079	
213	2HG1	2101.289	638.434	-2177.022	 H	14	VAL14	0.079	
214	3HG1	2101.434	640.119	-2177.489	 H	14	VAL14	0.079	
215	1HG2	2102.112	638.682	-2173.424	 H	14	VAL14	0.079	
216	2HG2	2101.564	637.648	-2174.748	 H	14	VAL14	0.079	
217	3HG2	2103.248	638.233	-2174.719	 H	14	VAL14	0.079	
218	   N	2101.070	642.809	-2175.754	N.am	15	MET15	-0.416	
219	  CA	2100.751	643.902	-2176.668	C.3	15	MET15	-0.024	
220	   C	2101.782	645.001	-2176.579	C.2	15	MET15	0.597	
221	   O	2102.286	645.512	-2177.592	O.2	15	MET15	-0.568	
222	  CB	2099.330	644.448	-2176.361	C.3	15	MET15	0.034	
223	  CG	2098.167	643.450	-2176.554	C.3	15	MET15	0.002	
224	  SD	2096.594	644.317	-2176.441	S.3	15	MET15	-0.274	
225	  CE	2095.512	642.888	-2176.306	C.3	15	MET15	-0.054	
226	   H	2100.405	642.516	-2175.053	 H	15	MET15	0.272	
227	  HA	2100.778	643.515	-2177.704	 H	15	MET15	0.088	
228	 2HB	2099.129	645.327	-2177.003	 H	15	MET15	0.024	
229	 3HB	2099.293	644.840	-2175.324	 H	15	MET15	0.024	
230	 2HG	2098.209	642.664	-2175.777	 H	15	MET15	0.044	
231	 3HG	2098.231	642.935	-2177.530	 H	15	MET15	0.044	
232	 1HE	2095.656	642.199	-2177.158	 H	15	MET15	0.068	
233	 2HE	2095.720	642.335	-2175.373	 H	15	MET15	0.068	
234	 3HE	2094.455	643.203	-2176.291	 H	15	MET15	0.068	
235	   N	2102.150	645.422	-2175.417	N.am	16	ARG16	-0.348	
236	  CA	2103.147	646.486	-2175.332	C.3	16	ARG16	-0.264	
237	   C	2104.418	646.093	-2176.047	C.2	16	ARG16	0.734	
238	   O	2104.532	645.017	-2176.629	O.2	16	ARG16	-0.589	
239	  CB	2103.414	646.803	-2173.833	C.3	16	ARG16	-0.001	
240	  CG	2104.240	648.092	-2173.560	C.3	16	ARG16	0.039	
241	  CD	2104.488	648.311	-2172.058	C.3	16	ARG16	0.049	
242	  NE	2105.265	649.569	-2171.856	N.pl3	16	ARG16	-0.530	
243	  CZ	2105.655	650.051	-2170.680	C.cat	16	ARG16	0.808	
244	 NH1	2105.406	649.467	-2169.542	N.pl3	16	ARG16	-0.863	
245	 NH2	2106.320	651.164	-2170.661	N.pl3	16	ARG16	-0.863	
246	   H	2101.754	645.022	-2174.578	 H	16	ARG16	0.275	
247	  HA	2102.739	647.379	-2175.842	 H	16	ARG16	0.156	
248	 2HB	2103.911	645.927	-2173.367	 H	16	ARG16	0.033	
249	 3HB	2102.445	646.884	-2173.300	 H	16	ARG16	0.033	
250	 2HG	2103.710	648.963	-2173.997	 H	16	ARG16	0.029	
251	 3HG	2105.214	648.039	-2174.088	 H	16	ARG16	0.029	
252	 2HD	2105.036	647.436	-2171.644	 H	16	ARG16	0.069	
253	 3HD	2103.515	648.354	-2171.524	 H	16	ARG16	0.069	
254	  HE	2105.544	650.150	-2172.653	 H	16	ARG16	0.346	
255	1HH1	2104.880	648.594	-2169.627	 H	16	ARG16	0.448	
256	2HH1	2105.740	649.902	-2168.680	 H	16	ARG16	0.448	
257	1HH2	2106.506	651.607	-2171.562	 H	16	ARG16	0.448	
258	2HH2	2106.609	651.518	-2169.748	 H	16	ARG16	0.448	
@<TRIPOS>BOND
1 1 2 1
2 1 10 1
3 2 3 1
4 2 5 1
5 2 11 1
6 3 4 2
7 3 16 1
8 5 6 1
9 6 7 1
10 7 8 2
11 7 9 1
12 5 12 1
13 5 13 1
14 6 14 1
15 6 15 1
16 16 17 1
17 16 24 1
18 17 18 1
19 17 20 1
20 17 25 1
21 18 19 2
22 18 30 1
23 20 21 1
24 21 22 1
25 21 23 2
26 20 26 1
27 20 27 1
28 22 28 1
29 22 29 1
30 30 31 1
31 30 36 1
32 31 32 1
33 31 34 1
34 31 37 1
35 32 33 2
36 32 44 1
37 34 35 1
38 35 36 1
39 34 38 1
40 34 39 1
41 35 40 1
42 35 41 1
43 36 42 1
44 36 43 1
45 44 45 1
46 44 53 1
47 45 46 1
48 45 48 1
49 45 54 1
50 46 47 2
51 46 59 1
52 48 49 1
53 49 50 1
54 50 51 2
55 50 52 1
56 48 55 1
57 48 56 1
58 49 57 1
59 49 58 1
60 59 60 1
61 59 65 1
62 60 61 1
63 60 63 1
64 60 66 1
65 61 62 2
66 61 70 1
67 63 64 1
68 63 67 1
69 63 68 1
70 64 69 1
71 70 71 1
72 70 78 1
73 71 72 1
74 71 74 1
75 71 79 1
76 72 73 2
77 72 89 1
78 74 75 1
79 74 76 1
80 75 77 1
81 74 80 1
82 75 81 1
83 75 82 1
84 76 83 1
85 76 84 1
86 76 85 1
87 77 86 1
88 77 87 1
89 77 88 1
90 89 90 1
91 89 97 1
92 90 91 1
93 90 93 1
94 90 98 1
95 91 92 2
96 91 108 1
97 93 94 1
98 94 95 1
99 94 96 1
100 93 99 1
101 93 100 1
102 94 101 1
103 95 102 1
104 95 103 1
105 95 104 1
106 96 105 1
107 96 106 1
108 96 107 1
109 108 109 1
110 108 116 1
111 109 110 1
112 109 112 1
113 109 117 1
114 110 111 2
115 110 120 1
116 112 113 1
117 113 114 2
118 113 115 1
119 112 118 1
120 112 119 1
121 120 121 1
122 120 129 1
123 121 122 1
124 121 124 1
125 121 130 1
126 122 123 2
127 122 135 1
128 124 125 1
129 125 126 1
130 126 127 2
131 126 128 1
132 124 131 1
133 124 132 1
134 125 133 1
135 125 134 1
136 135 136 1
137 135 145 1
138 136 137 1
139 136 139 1
140 136 146 1
141 137 138 2
142 137 152 1
143 139 140 1
144 140 141 2
145 141 144 1
146 140 142 1
147 142 143 2
148 143 144 1
149 139 147 1
150 139 148 1
151 141 149 1
152 143 150 1
153 144 151 1
154 152 153 1
155 152 159 1
156 153 154 1
157 153 156 1
158 153 160 1
159 154 155 2
160 154 168 1
161 156 157 1
162 156 158 1
163 156 161 1
164 157 162 1
165 157 163 1
166 157 164 1
167 158 165 1
168 158 166 1
169 158 167 1
170 168 169 1
171 168 177 1
172 169 170 1
173 169 172 1
174 169 178 1
175 170 171 2
176 170 185 1
177 172 173 1
178 173 174 1
179 174 175 1
180 174 176 2
181 172 179 1
182 172 180 1
183 173 181 1
184 173 182 1
185 175 183 1
186 175 184 1
187 185 186 1
188 185 195 1
189 186 187 1
190 186 189 1
191 186 196 1
192 187 188 2
193 187 202 1
194 189 190 1
195 190 191 2
196 191 194 1
197 190 192 1
198 192 193 2
199 193 194 1
200 189 197 1
201 189 198 1
202 191 199 1
203 193 200 1
204 194 201 1
205 202 203 1
206 202 209 1
207 203 204 1
208 203 206 1
209 203 210 1
210 204 205 2
211 204 218 1
212 206 207 1
213 206 208 1
214 206 211 1
215 207 212 1
216 207 213 1
217 207 214 1
218 208 215 1
219 208 216 1
220 208 217 1
221 218 219 1
222 218 226 1
223 219 220 1
224 219 222 1
225 219 227 1
226 220 221 2
227 220 235 1
228 222 223 1
229 223 224 1
230 224 225 1
231 222 228 1
232 222 229 1
233 223 230 1
234 223 231 1
235 225 232 1
236 225 233 1
237 225 234 1
238 235 236 1
239 235 246 1
240 236 237 1
241 236 239 1
242 236 247 1
243 237 238 2
244 239 240 1
245 240 241 1
246 241 242 1
247 242 243 1
248 243 244 2
249 243 245 1
250 239 248 1
251 239 249 1
252 240 250 1
253 240 251 1
254 241 252 1
255 241 253 1
256 242 254 1
257 244 255 1
258 244 256 1
259 245 257 1
260 245 258 1
@<TRIPOS>SUBSTRUCTURE
1	GLU1	1	RESIDUE	1 ****	GLU
2	ASN2	16	RESIDUE	1 ****	ASN
3	PRO3	30	RESIDUE	1 ****	PRO
4	GLU4	44	RESIDUE	1 ****	GLU
5	SER5	59	RESIDUE	1 ****	SER
6	ILE6	70	RESIDUE	1 ****	ILE
7	LEU7	89	RESIDUE	1 ****	LEU
8	ASP8	108	RESIDUE	1 ****	ASP
9	GLU9	120	RESIDUE	1 ****	GLU
10	HIS10	135	RESIDUE	1 ****	HIS
11	VAL11	152	RESIDUE	1 ****	VAL
12	GLN12	168	RESIDUE	1 ****	GLN
13	HIS13	185	RESIDUE	1 ****	HIS
14	VAL14	202	RESIDUE	1 ****	VAL
15	MET15	218	RESIDUE	1 ****	MET
16	ARG16	235	RESIDUE	1 ****	ARG
