@<TRIPOS>MOLECULE
6-1
256 257 16              
SMALL
USER_CHARGES
@<TRIPOS>ATOM
1	   N	860.565	231.510	-824.840	N.3	1	GLU1	-0.516	
2	  CA	861.125	232.859	-824.840	C.3	1	GLU1	0.040	
3	   C	862.633	232.819	-824.840	C.2	1	GLU1	0.537	
4	   O	863.309	233.518	-825.608	O.2	1	GLU1	-0.582	
5	  CB	860.602	233.644	-823.603	C.3	1	GLU1	0.056	
6	  CG	861.076	235.129	-823.492	C.3	1	GLU1	0.014	
7	  CD	860.652	235.933	-822.277	C.2	1	GLU1	0.805	
8	 OE1	859.924	235.431	-821.399	O.co2	1	GLU1	-0.819	
9	 OE2	861.083	237.103	-822.205	O.co2	1	GLU1	-0.819	
10	   H	861.193	230.631	-824.840	 H	1	GLU1	0.294	
11	  HA	860.798	233.377	-825.760	 H	1	GLU1	0.111	
12	 2HB	860.891	233.113	-822.673	 H	1	GLU1	-0.017	
13	 3HB	859.495	233.634	-823.590	 H	1	GLU1	-0.017	
14	 2HG	860.766	235.714	-824.373	 H	1	GLU1	-0.043	
15	 3HG	862.177	235.196	-823.463	 H	1	GLU1	-0.043	
16	   N	863.238	232.034	-824.015	N.am	2	ASN2	-0.416	
17	  CA	864.697	231.995	-824.015	C.3	2	ASN2	0.014	
18	   C	865.229	231.639	-825.383	C.2	2	ASN2	0.597	
19	   O	866.144	232.270	-825.912	O.2	2	ASN2	-0.568	
20	  CB	865.190	230.972	-822.950	C.3	2	ASN2	-0.204	
21	  CG	864.727	231.196	-821.507	C.2	2	ASN2	0.713	
22	 ND2	865.321	232.111	-820.789	N.pl3	2	ASN2	-0.919	
23	 OD1	863.806	230.562	-821.013	O.2	2	ASN2	-0.593	
24	   H	862.710	231.454	-823.378	 H	2	ASN2	0.272	
25	  HA	865.075	233.005	-823.769	 H	2	ASN2	0.105	
26	 2HB	866.294	230.913	-822.954	 H	2	ASN2	0.080	
27	 3HB	864.861	229.954	-823.236	 H	2	ASN2	0.080	
28	1HD2	864.840	232.284	-819.902	 H	2	ASN2	0.420	
29	2HD2	866.022	232.682	-821.258	 H	2	ASN2	0.420	
30	   N	864.707	230.644	-826.017	N.am	3	PRO3	-0.255	
31	  CA	865.159	230.235	-827.339	C.3	3	PRO3	-0.027	
32	   C	864.761	231.259	-828.416	C.2	3	PRO3	0.590	
33	   O	865.584	231.642	-829.247	O.2	3	PRO3	-0.575	
34	  CB	864.455	228.880	-827.509	C.3	3	PRO3	-0.007	
35	  CG	863.172	229.032	-826.678	C.3	3	PRO3	0.019	
36	  CD	863.629	229.851	-825.469	C.3	3	PRO3	0.019	
37	  HA	866.245	230.115	-827.353	 H	3	PRO3	0.064	
38	 2HB	865.078	228.099	-827.068	 H	3	PRO3	0.025	
39	 3HB	864.257	228.632	-828.554	 H	3	PRO3	0.025	
40	 2HG	862.745	228.070	-826.387	 H	3	PRO3	0.021	
41	 3HG	862.434	229.603	-827.246	 H	3	PRO3	0.021	
42	 2HD	864.019	229.202	-824.681	 H	3	PRO3	0.039	
43	 3HD	862.833	230.487	-825.075	 H	3	PRO3	0.039	
44	   N	863.556	231.719	-828.448	N.am	4	GLU4	-0.516	
45	  CA	863.196	232.689	-829.478	C.3	4	GLU4	0.040	
46	   C	864.095	233.901	-829.417	C.2	4	GLU4	0.537	
47	   O	864.622	234.380	-830.431	O.2	4	GLU4	-0.582	
48	  CB	861.708	233.108	-829.308	C.3	4	GLU4	0.056	
49	  CG	861.160	234.111	-830.374	C.3	4	GLU4	0.014	
50	  CD	859.733	234.608	-830.230	C.2	4	GLU4	0.805	
51	 OE1	859.007	234.209	-829.299	O.co2	4	GLU4	-0.819	
52	 OE2	859.343	235.437	-831.078	O.co2	4	GLU4	-0.819	
53	   H	862.872	231.412	-827.772	 H	4	GLU4	0.294	
54	  HA	863.328	232.219	-830.469	 H	4	GLU4	0.111	
55	 2HB	861.555	233.548	-828.301	 H	4	GLU4	-0.017	
56	 3HB	861.060	232.210	-829.314	 H	4	GLU4	-0.017	
57	 2HG	861.241	233.697	-831.391	 H	4	GLU4	-0.043	
58	 3HG	861.747	235.044	-830.385	 H	4	GLU4	-0.043	
59	   N	864.322	234.454	-828.274	N.am	5	SER5	-0.416	
60	  CA	865.192	235.625	-828.215	C.3	5	SER5	-0.025	
61	   C	866.551	235.320	-828.801	C.2	5	SER5	0.597	
62	   O	867.098	236.073	-829.606	O.2	5	SER5	-0.568	
63	  CB	865.303	236.157	-826.765	C.3	5	SER5	0.212	
64	  OG	866.035	235.278	-825.904	O.3	5	SER5	-0.655	
65	   H	863.905	234.082	-827.432	 H	5	SER5	0.272	
66	  HA	864.742	236.415	-828.845	 H	5	SER5	0.084	
67	 2HB	864.303	236.351	-826.332	 H	5	SER5	0.035	
68	 3HB	865.808	237.143	-826.767	 H	5	SER5	0.035	
69	  HG	865.546	234.453	-825.853	 H	5	SER5	0.428	
70	   N	867.156	234.237	-828.446	N.am	6	ALA6	-0.416	
71	  CA	868.469	233.943	-829.013	C.3	6	ALA6	0.034	
72	   C	868.410	233.905	-830.521	C.2	6	ALA6	0.597	
73	   O	869.242	234.491	-831.225	O.2	6	ALA6	-0.568	
74	  CB	868.954	232.617	-828.402	C.3	6	ALA6	-0.183	
75	   H	866.727	233.602	-827.787	 H	6	ALA6	0.272	
76	  HA	869.165	234.754	-828.731	 H	6	ALA6	0.082	
77	 1HB	869.026	232.675	-827.299	 H	6	ALA6	0.060	
78	 2HB	868.273	231.776	-828.637	 H	6	ALA6	0.060	
79	 3HB	869.957	232.336	-828.771	 H	6	ALA6	0.060	
80	   N	867.464	233.241	-831.094	N.am	7	LEU7	-0.416	
81	  CA	867.408	233.204	-832.552	C.3	7	LEU7	-0.052	
82	   C	867.334	234.600	-833.125	C.2	7	LEU7	0.597	
83	   O	868.054	234.963	-834.068	O.2	7	LEU7	-0.568	
84	  CB	866.205	232.343	-833.031	C.3	7	LEU7	-0.110	
85	  CG	866.133	230.864	-832.564	C.3	7	LEU7	0.353	
86	 CD1	864.943	230.158	-833.228	C.3	7	LEU7	-0.412	
87	 CD2	867.427	230.086	-832.857	C.3	7	LEU7	-0.412	
88	   H	866.773	232.754	-830.542	 H	7	LEU7	0.272	
89	  HA	868.349	232.765	-832.927	 H	7	LEU7	0.092	
90	 2HB	866.180	232.359	-834.139	 H	7	LEU7	0.046	
91	 3HB	865.265	232.846	-832.726	 H	7	LEU7	0.046	
92	  HG	865.964	230.856	-831.467	 H	7	LEU7	-0.036	
93	1HD1	863.986	230.667	-833.005	 H	7	LEU7	0.100	
94	2HD1	865.041	230.117	-834.330	 H	7	LEU7	0.100	
95	3HD1	864.837	229.117	-832.872	 H	7	LEU7	0.100	
96	1HD2	867.701	230.116	-833.927	 H	7	LEU7	0.100	
97	2HD2	868.280	230.498	-832.287	 H	7	LEU7	0.100	
98	3HD2	867.346	229.023	-832.561	 H	7	LEU7	0.100	
99	   N	866.497	235.440	-832.618	N.am	8	ASP8	-0.516	
100	  CA	866.426	236.789	-833.171	C.3	8	ASP8	0.038	
101	   C	867.772	237.470	-833.115	C.2	8	ASP8	0.537	
102	   O	868.244	238.075	-834.091	O.2	8	ASP8	-0.582	
103	  CB	865.348	237.628	-832.429	C.3	8	ASP8	-0.030	
104	  CG	865.128	239.049	-832.969	C.2	8	ASP8	0.799	
105	 OD1	865.190	239.247	-834.200	O.co2	8	ASP8	-0.801	
106	 OD2	864.936	239.974	-832.153	O.co2	8	ASP8	-0.801	
107	   H	865.900	235.169	-831.850	 H	8	ASP8	0.294	
108	  HA	866.142	236.711	-834.238	 H	8	ASP8	0.088	
109	 2HB	865.606	237.712	-831.357	 H	8	ASP8	-0.012	
110	 3HB	864.369	237.123	-832.460	 H	8	ASP8	-0.012	
111	   N	868.453	237.420	-832.021	N.am	9	GLU9	-0.516	
112	  CA	869.755	238.078	-831.967	C.3	9	GLU9	0.040	
113	   C	870.673	237.551	-833.044	C.2	9	GLU9	0.537	
114	   O	871.335	238.306	-833.770	O.2	9	GLU9	-0.582	
115	  CB	870.390	237.871	-830.562	C.3	9	GLU9	0.056	
116	  CG	871.773	238.564	-830.334	C.3	9	GLU9	0.014	
117	  CD	872.476	238.351	-829.007	C.2	9	GLU9	0.805	
118	 OE1	871.956	237.660	-828.110	O.co2	9	GLU9	-0.819	
119	 OE2	873.595	238.889	-828.876	O.co2	9	GLU9	-0.819	
120	   H	868.091	236.934	-831.213	 H	9	GLU9	0.294	
121	  HA	869.613	239.160	-832.142	 H	9	GLU9	0.111	
122	 2HB	870.504	236.786	-830.359	 H	9	GLU9	-0.017	
123	 3HB	869.694	238.224	-829.777	 H	9	GLU9	-0.017	
124	 2HG	871.700	239.655	-830.474	 H	9	GLU9	-0.043	
125	 3HG	872.519	238.219	-831.069	 H	9	GLU9	-0.043	
126	   N	870.769	236.276	-833.213	N.am	10	HIS10	-0.416	
127	  CA	871.657	235.765	-834.255	C.3	10	HIS10	-0.058	
128	   C	871.288	236.329	-835.605	C.2	10	HIS10	0.597	
129	   O	872.140	236.795	-836.378	O.2	10	HIS10	-0.568	
130	  CB	871.493	234.236	-834.250	C.3	10	HIS10	-0.007	
131	  CG	872.780	233.527	-833.943	C.2	10	HIS10	0.187	
132	 CD2	873.162	233.191	-832.651	C.2	10	HIS10	-0.221	
133	 ND1	873.731	233.121	-834.876	N.2	10	HIS10	-0.543	
134	 CE1	874.639	232.564	-834.054	C.2	10	HIS10	0.163	
135	 NE2	874.377	232.561	-832.719	N.pl3	10	HIS10	-0.280	
136	   H	870.239	235.640	-832.634	 H	10	HIS10	0.272	
137	  HA	872.676	236.123	-834.030	 H	10	HIS10	0.136	
138	 2HB	871.128	233.869	-835.229	 H	10	HIS10	0.037	
139	 3HB	870.739	233.899	-833.509	 H	10	HIS10	0.037	
140	 2HD	872.577	233.406	-831.761	 H	10	HIS10	0.186	
141	 1HE	875.529	232.143	-834.502	 H	10	HIS10	0.144	
142	 2HE	874.945	232.184	-831.946	 H	10	HIS10	0.334	
143	   N	870.050	236.328	-835.967	N.am	11	VAL11	-0.416	
144	  CA	869.693	236.874	-837.273	C.3	11	VAL11	-0.087	
145	   C	870.157	238.305	-837.406	C.2	11	VAL11	0.597	
146	   O	870.757	238.710	-838.410	O.2	11	VAL11	-0.568	
147	  CB	868.132	236.766	-837.491	C.3	11	VAL11	0.299	
148	 CG1	867.562	237.470	-838.754	C.3	11	VAL11	-0.319	
149	 CG2	867.608	235.312	-837.564	C.3	11	VAL11	-0.319	
150	   H	869.338	235.955	-835.356	 H	11	VAL11	0.272	
151	  HA	870.212	236.292	-838.056	 H	11	VAL11	0.097	
152	  HB	867.645	237.246	-836.616	 H	11	VAL11	-0.030	
153	1HG1	867.999	237.079	-839.691	 H	11	VAL11	0.079	
154	2HG1	866.463	237.362	-838.834	 H	11	VAL11	0.079	
155	3HG1	867.739	238.563	-838.744	 H	11	VAL11	0.079	
156	1HG2	867.899	234.725	-836.674	 H	11	VAL11	0.079	
157	2HG2	866.502	235.274	-837.606	 H	11	VAL11	0.079	
158	3HG2	867.989	234.771	-838.451	 H	11	VAL11	0.079	
159	   N	869.920	239.130	-836.444	N.am	12	GLN12	-0.416	
160	  CA	870.368	240.513	-836.571	C.3	12	GLN12	-0.003	
161	   C	871.857	240.582	-836.810	C.2	12	GLN12	0.597	
162	   O	872.343	241.290	-837.689	O.2	12	GLN12	-0.568	
163	  CB	869.977	241.280	-835.288	C.3	12	GLN12	-0.004	
164	  CG	870.337	242.802	-835.257	C.3	12	GLN12	-0.064	
165	  CD	870.035	243.616	-833.992	C.2	12	GLN12	0.695	
166	 NE2	869.469	243.039	-832.962	N.pl3	12	GLN12	-0.941	
167	 OE1	870.336	244.797	-833.914	O.2	12	GLN12	-0.609	
168	   H	869.432	238.824	-835.614	 H	12	GLN12	0.272	
169	  HA	869.867	240.969	-837.445	 H	12	GLN12	0.085	
170	 2HB	870.455	240.780	-834.419	 H	12	GLN12	0.017	
171	 3HB	868.887	241.172	-835.124	 H	12	GLN12	0.017	
172	 2HG	869.858	243.323	-836.107	 H	12	GLN12	0.035	
173	 3HG	871.420	242.945	-835.424	 H	12	GLN12	0.035	
174	1HE2	869.363	243.633	-832.139	 H	12	GLN12	0.425	
175	2HE2	869.306	242.035	-833.066	 H	12	GLN12	0.425	
176	   N	872.643	239.875	-836.070	N.am	13	ARG13	-0.348	
177	  CA	874.083	239.942	-836.302	C.3	13	ARG13	-0.264	
178	   C	874.418	239.571	-837.727	C.2	13	ARG13	0.734	
179	   O	875.186	240.243	-838.412	O.2	13	ARG13	-0.589	
180	  CB	874.798	239.003	-835.289	C.3	13	ARG13	-0.001	
181	  CG	876.343	239.157	-835.209	C.3	13	ARG13	0.039	
182	  CD	876.971	238.169	-834.212	C.3	13	ARG13	0.049	
183	  NE	878.448	238.377	-834.163	N.pl3	13	ARG13	-0.530	
184	  CZ	879.297	237.686	-833.409	C.cat	13	ARG13	0.808	
185	 NH1	878.933	236.721	-832.611	N.pl3	13	ARG13	-0.863	
186	 NH2	880.556	237.985	-833.466	N.pl3	13	ARG13	-0.863	
187	   H	872.268	239.285	-835.342	 H	13	ARG13	0.275	
188	  HA	874.407	240.988	-836.144	 H	13	ARG13	0.156	
189	 2HB	874.532	237.952	-835.528	 H	13	ARG13	0.033	
190	 3HB	874.373	239.169	-834.278	 H	13	ARG13	0.033	
191	 2HG	876.590	240.201	-834.930	 H	13	ARG13	0.029	
192	 3HG	876.792	239.001	-836.211	 H	13	ARG13	0.029	
193	 2HD	876.727	237.129	-834.521	 H	13	ARG13	0.069	
194	 3HD	876.515	238.314	-833.209	 H	13	ARG13	0.069	
195	  HE	878.898	239.100	-834.734	 H	13	ARG13	0.346	
196	1HH1	877.928	236.534	-832.613	 H	13	ARG13	0.448	
197	2HH1	879.647	236.238	-832.063	 H	13	ARG13	0.448	
198	1HH2	880.823	238.743	-834.097	 H	13	ARG13	0.448	
199	2HH2	881.192	237.444	-832.878	 H	13	ARG13	0.448	
200	   N	873.882	238.516	-838.242	N.am	14	VAL14	-0.416	
201	  CA	874.206	238.157	-839.620	C.3	14	VAL14	-0.087	
202	   C	873.875	239.287	-840.565	C.2	14	VAL14	0.597	
203	   O	874.667	239.670	-841.435	O.2	14	VAL14	-0.568	
204	  CB	873.434	236.840	-840.026	C.3	14	VAL14	0.299	
205	 CG1	873.522	236.422	-841.520	C.3	14	VAL14	-0.319	
206	 CG2	873.867	235.588	-839.227	C.3	14	VAL14	-0.319	
207	   H	873.248	237.947	-837.700	 H	14	VAL14	0.272	
208	  HA	875.295	237.981	-839.695	 H	14	VAL14	0.097	
209	  HB	872.358	237.011	-839.810	 H	14	VAL14	-0.030	
210	1HG1	874.564	236.246	-841.850	 H	14	VAL14	0.079	
211	2HG1	872.950	235.499	-841.733	 H	14	VAL14	0.079	
212	3HG1	873.092	237.184	-842.198	 H	14	VAL14	0.079	
213	1HG2	873.781	235.746	-838.136	 H	14	VAL14	0.079	
214	2HG2	873.232	234.711	-839.459	 H	14	VAL14	0.079	
215	3HG2	874.915	235.298	-839.433	 H	14	VAL14	0.079	
216	   N	872.730	239.873	-840.462	N.am	15	MET15	-0.416	
217	  CA	872.408	240.965	-841.375	C.3	15	MET15	-0.024	
218	   C	873.438	242.066	-841.288	C.2	15	MET15	0.597	
219	   O	873.940	242.577	-842.300	O.2	15	MET15	-0.568	
220	  CB	870.987	241.510	-841.065	C.3	15	MET15	0.034	
221	  CG	869.825	240.511	-841.256	C.3	15	MET15	0.002	
222	  SD	868.251	241.377	-841.140	S.3	15	MET15	-0.274	
223	  CE	867.170	239.946	-841.003	C.3	15	MET15	-0.054	
224	   H	872.066	239.579	-839.760	 H	15	MET15	0.272	
225	  HA	872.433	240.578	-842.411	 H	15	MET15	0.088	
226	 2HB	870.783	242.389	-841.706	 H	15	MET15	0.024	
227	 3HB	870.952	241.902	-840.028	 H	15	MET15	0.024	
228	 2HG	869.869	239.725	-840.479	 H	15	MET15	0.044	
229	 3HG	869.888	239.997	-842.232	 H	15	MET15	0.044	
230	 1HE	867.314	239.258	-841.856	 H	15	MET15	0.068	
231	 2HE	867.381	239.393	-840.071	 H	15	MET15	0.068	
232	 3HE	866.113	240.261	-840.986	 H	15	MET15	0.068	
233	   N	873.807	242.487	-840.125	N.am	16	ARG16	-0.348	
234	  CA	874.803	243.551	-840.042	C.3	16	ARG16	-0.264	
235	   C	876.074	243.159	-840.759	C.2	16	ARG16	0.734	
236	   O	876.188	242.083	-841.341	O.2	16	ARG16	-0.589	
237	  CB	875.073	243.869	-838.544	C.3	16	ARG16	-0.001	
238	  CG	875.898	245.158	-838.271	C.3	16	ARG16	0.039	
239	  CD	876.148	245.377	-836.770	C.3	16	ARG16	0.049	
240	  NE	876.924	246.636	-836.569	N.pl3	16	ARG16	-0.530	
241	  CZ	877.316	247.118	-835.394	C.cat	16	ARG16	0.808	
242	 NH1	877.069	246.534	-834.255	N.pl3	16	ARG16	-0.863	
243	 NH2	877.979	248.231	-835.375	N.pl3	16	ARG16	-0.863	
244	   H	873.413	242.086	-839.286	 H	16	ARG16	0.275	
245	  HA	874.393	244.444	-840.551	 H	16	ARG16	0.156	
246	 2HB	875.571	242.993	-838.078	 H	16	ARG16	0.033	
247	 3HB	874.105	243.949	-838.009	 H	16	ARG16	0.033	
248	 2HG	875.367	246.029	-838.708	 H	16	ARG16	0.029	
249	 3HG	876.871	245.106	-838.801	 H	16	ARG16	0.029	
250	 2HD	876.698	244.502	-836.357	 H	16	ARG16	0.069	
251	 3HD	875.176	245.419	-836.234	 H	16	ARG16	0.069	
252	  HE	877.202	247.218	-837.366	 H	16	ARG16	0.346	
253	1HH1	876.544	245.660	-834.340	 H	16	ARG16	0.448	
254	2HH1	877.404	246.969	-833.394	 H	16	ARG16	0.448	
255	1HH2	878.164	248.675	-836.277	 H	16	ARG16	0.448	
256	2HH2	878.270	248.586	-834.463	 H	16	ARG16	0.448	
@<TRIPOS>BOND
1 1 2 1
2 1 10 1
3 2 3 1
4 2 5 1
5 2 11 1
6 3 4 2
7 3 16 1
8 5 6 1
9 6 7 1
10 7 8 2
11 7 9 1
12 5 12 1
13 5 13 1
14 6 14 1
15 6 15 1
16 16 17 1
17 16 24 1
18 17 18 1
19 17 20 1
20 17 25 1
21 18 19 2
22 18 30 1
23 20 21 1
24 21 22 1
25 21 23 2
26 20 26 1
27 20 27 1
28 22 28 1
29 22 29 1
30 30 31 1
31 30 36 1
32 31 32 1
33 31 34 1
34 31 37 1
35 32 33 2
36 32 44 1
37 34 35 1
38 35 36 1
39 34 38 1
40 34 39 1
41 35 40 1
42 35 41 1
43 36 42 1
44 36 43 1
45 44 45 1
46 44 53 1
47 45 46 1
48 45 48 1
49 45 54 1
50 46 47 2
51 46 59 1
52 48 49 1
53 49 50 1
54 50 51 2
55 50 52 1
56 48 55 1
57 48 56 1
58 49 57 1
59 49 58 1
60 59 60 1
61 59 65 1
62 60 61 1
63 60 63 1
64 60 66 1
65 61 62 2
66 61 70 1
67 63 64 1
68 63 67 1
69 63 68 1
70 64 69 1
71 70 71 1
72 70 75 1
73 71 72 1
74 71 74 1
75 71 76 1
76 72 73 2
77 72 80 1
78 74 77 1
79 74 78 1
80 74 79 1
81 80 81 1
82 80 88 1
83 81 82 1
84 81 84 1
85 81 89 1
86 82 83 2
87 82 99 1
88 84 85 1
89 85 86 1
90 85 87 1
91 84 90 1
92 84 91 1
93 85 92 1
94 86 93 1
95 86 94 1
96 86 95 1
97 87 96 1
98 87 97 1
99 87 98 1
100 99 100 1
101 99 107 1
102 100 101 1
103 100 103 1
104 100 108 1
105 101 102 2
106 101 111 1
107 103 104 1
108 104 105 2
109 104 106 1
110 103 109 1
111 103 110 1
112 111 112 1
113 111 120 1
114 112 113 1
115 112 115 1
116 112 121 1
117 113 114 2
118 113 126 1
119 115 116 1
120 116 117 1
121 117 118 2
122 117 119 1
123 115 122 1
124 115 123 1
125 116 124 1
126 116 125 1
127 126 127 1
128 126 136 1
129 127 128 1
130 127 130 1
131 127 137 1
132 128 129 2
133 128 143 1
134 130 131 1
135 131 132 2
136 132 135 1
137 131 133 1
138 133 134 2
139 134 135 1
140 130 138 1
141 130 139 1
142 132 140 1
143 134 141 1
144 135 142 1
145 143 144 1
146 143 150 1
147 144 145 1
148 144 147 1
149 144 151 1
150 145 146 2
151 145 159 1
152 147 148 1
153 147 149 1
154 147 152 1
155 148 153 1
156 148 154 1
157 148 155 1
158 149 156 1
159 149 157 1
160 149 158 1
161 159 160 1
162 159 168 1
163 160 161 1
164 160 163 1
165 160 169 1
166 161 162 2
167 161 176 1
168 163 164 1
169 164 165 1
170 165 166 1
171 165 167 2
172 163 170 1
173 163 171 1
174 164 172 1
175 164 173 1
176 166 174 1
177 166 175 1
178 176 177 1
179 176 187 1
180 177 178 1
181 177 180 1
182 177 188 1
183 178 179 2
184 178 200 1
185 180 181 1
186 181 182 1
187 182 183 1
188 183 184 1
189 184 185 2
190 184 186 1
191 180 189 1
192 180 190 1
193 181 191 1
194 181 192 1
195 182 193 1
196 182 194 1
197 183 195 1
198 185 196 1
199 185 197 1
200 186 198 1
201 186 199 1
202 200 201 1
203 200 207 1
204 201 202 1
205 201 204 1
206 201 208 1
207 202 203 2
208 202 216 1
209 204 205 1
210 204 206 1
211 204 209 1
212 205 210 1
213 205 211 1
214 205 212 1
215 206 213 1
216 206 214 1
217 206 215 1
218 216 217 1
219 216 224 1
220 217 218 1
221 217 220 1
222 217 225 1
223 218 219 2
224 218 233 1
225 220 221 1
226 221 222 1
227 222 223 1
228 220 226 1
229 220 227 1
230 221 228 1
231 221 229 1
232 223 230 1
233 223 231 1
234 223 232 1
235 233 234 1
236 233 244 1
237 234 235 1
238 234 237 1
239 234 245 1
240 235 236 2
241 237 238 1
242 238 239 1
243 239 240 1
244 240 241 1
245 241 242 2
246 241 243 1
247 237 246 1
248 237 247 1
249 238 248 1
250 238 249 1
251 239 250 1
252 239 251 1
253 240 252 1
254 242 253 1
255 242 254 1
256 243 255 1
257 243 256 1
@<TRIPOS>SUBSTRUCTURE
1	GLU1	1	RESIDUE	1 ****	GLU
2	ASN2	16	RESIDUE	1 ****	ASN
3	PRO3	30	RESIDUE	1 ****	PRO
4	GLU4	44	RESIDUE	1 ****	GLU
5	SER5	59	RESIDUE	1 ****	SER
6	ALA6	70	RESIDUE	1 ****	ALA
7	LEU7	80	RESIDUE	1 ****	LEU
8	ASP8	99	RESIDUE	1 ****	ASP
9	GLU9	111	RESIDUE	1 ****	GLU
10	HIS10	126	RESIDUE	1 ****	HIS
11	VAL11	143	RESIDUE	1 ****	VAL
12	GLN12	159	RESIDUE	1 ****	GLN
13	ARG13	176	RESIDUE	1 ****	ARG
14	VAL14	200	RESIDUE	1 ****	VAL
15	MET15	216	RESIDUE	1 ****	MET
16	ARG16	233	RESIDUE	1 ****	ARG
