REMARK WARNING: 32 MAX_TORS EXCEEDED!!!
REMARK  66 active torsions:
REMARK  status: ('A' for Active; 'I' for Inactive)
REMARK    1  A    between atoms: N_1  and  CA_2 
REMARK    2  A    between atoms: CA_2  and  C_3 
REMARK    3  A    between atoms: CA_2  and  CB_5 
REMARK       I    between atoms: C_3  and  N_11 
REMARK    4  A    between atoms: CB_5  and  CG_6 
REMARK    5  A    between atoms: CG_6  and  CD_7 
REMARK    6  A    between atoms: N_11  and  CA_12 
REMARK    7  A    between atoms: CA_12  and  C_13 
REMARK    8  A    between atoms: CA_12  and  CB_15 
REMARK       I    between atoms: C_13  and  N_22 
REMARK    9  A    between atoms: CB_15  and  CG_16 
REMARK       I    between atoms: CG_16  and  ND2_17 
REMARK   10  A    between atoms: CA_23  and  C_24 
REMARK       I    between atoms: C_24  and  N_29 
REMARK   11  A    between atoms: N_29  and  CA_30 
REMARK   12  A    between atoms: CA_30  and  C_31 
REMARK   13  A    between atoms: CA_30  and  CB_33 
REMARK       I    between atoms: C_31  and  N_39 
REMARK   14  A    between atoms: CB_33  and  CG_34 
REMARK   15  A    between atoms: CG_34  and  CD_35 
REMARK   16  A    between atoms: N_39  and  CA_40 
REMARK   17  A    between atoms: CA_40  and  C_41 
REMARK   18  A    between atoms: CA_40  and  CB_43 
REMARK       I    between atoms: C_41  and  N_47 
REMARK   19  A    between atoms: CB_43  and  OG_44 
REMARK   20  A    between atoms: N_47  and  CA_48 
REMARK   21  A    between atoms: CA_48  and  C_49 
REMARK   22  A    between atoms: CA_48  and  CB_51 
REMARK       I    between atoms: C_49  and  N_56 
REMARK   23  A    between atoms: CB_51  and  CG1_52 
REMARK   24  A    between atoms: N_56  and  CA_57 
REMARK   25  A    between atoms: CA_57  and  C_58 
REMARK   26  A    between atoms: CA_57  and  CB_60 
REMARK       I    between atoms: C_58  and  N_65 
REMARK   27  A    between atoms: CB_60  and  CG_61 
REMARK   28  A    between atoms: N_65  and  CA_66 
REMARK   29  A    between atoms: CA_66  and  C_67 
REMARK   30  A    between atoms: CA_66  and  CB_69 
REMARK       I    between atoms: C_67  and  N_74 
REMARK   31  A    between atoms: CB_69  and  CG_70 
REMARK   32  A    between atoms: N_74  and  CA_75 
REMARK   33  A    between atoms: CA_75  and  C_76 
REMARK   34  A    between atoms: CA_75  and  CB_78 
REMARK       I    between atoms: C_76  and  N_84 
REMARK   35  A    between atoms: CB_78  and  CG_79 
REMARK   36  A    between atoms: CG_79  and  CD_80 
REMARK   37  A    between atoms: N_84  and  CA_85 
REMARK   38  A    between atoms: CA_85  and  C_86 
REMARK   39  A    between atoms: CA_85  and  CB_88 
REMARK       I    between atoms: C_86  and  N_96 
REMARK   40  A    between atoms: CB_88  and  CG_89 
REMARK   41  A    between atoms: N_96  and  CA_97 
REMARK   42  A    between atoms: CA_97  and  C_98 
REMARK   43  A    between atoms: CA_97  and  CB_100 
REMARK       I    between atoms: C_98  and  N_104 
REMARK   44  A    between atoms: N_104  and  CA_105 
REMARK   45  A    between atoms: CA_105  and  C_106 
REMARK   46  A    between atoms: CA_105  and  CB_108 
REMARK       I    between atoms: C_106  and  N_116 
REMARK   47  A    between atoms: CB_108  and  CG_109 
REMARK   48  A    between atoms: CG_109  and  CD_110 
REMARK       I    between atoms: CD_110  and  NE2_111 
REMARK   49  A    between atoms: N_116  and  CA_117 
REMARK   50  A    between atoms: CA_117  and  C_118 
REMARK   51  A    between atoms: CA_117  and  CB_120 
REMARK       I    between atoms: C_118  and  N_124 
REMARK   52  A    between atoms: CB_120  and  OG_121 
REMARK   53  A    between atoms: N_124  and  CA_125 
REMARK   54  A    between atoms: CA_125  and  C_126 
REMARK   55  A    between atoms: CA_125  and  CB_128 
REMARK       I    between atoms: C_126  and  N_132 
REMARK   56  A    between atoms: N_132  and  CA_133 
REMARK   57  A    between atoms: CA_133  and  C_134 
REMARK   58  A    between atoms: CA_133  and  CB_136 
REMARK       I    between atoms: C_134  and  N_141 
REMARK   59  A    between atoms: CB_136  and  CG_137 
REMARK   60  A    between atoms: CG_137  and  SD_138 
REMARK   61  A    between atoms: N_141  and  CA_142 
REMARK   62  A    between atoms: CA_142  and  C_143 
REMARK   63  A    between atoms: CA_142  and  CB_145 
REMARK   64  A    between atoms: CB_145  and  CG_146 
REMARK   65  A    between atoms: CG_146  and  CD_147 
REMARK   66  A    between atoms: CD_147  and  NE_148 
REMARK       I    between atoms: NE_148  and  CZ_149 
REMARK       I    between atoms: CZ_149  and  NH1_150 
ROOT
ATOM      1  CA  GLU d   9    2113.802 646.319-2184.967  0.00  0.00     0.177 C 
ENDROOT
BRANCH   1   2
ATOM      2  N   GLU d   9    2112.499 645.662-2185.022  0.00  0.00    -0.346 N 
ATOM      3  C   ASP d   8    2111.819 645.711-2186.117  0.00  0.00     0.241 C 
ATOM      4  O   ASP d   8    2112.292 646.315-2187.092  0.00  0.00    -0.271 OA
ATOM      5  H   GLU d   9    2112.135 645.176-2184.214  0.00  0.00     0.163 HD
BRANCH   3   6
ATOM      6  CA  ASP d   8    2110.472 645.032-2186.174  0.00  0.00     0.186 C 
BRANCH   6   7
ATOM      7  N   ASP d   8    2110.542 643.683-2185.620  0.00  0.00    -0.346 N 
ATOM      8  C   LEU d   7    2111.378 642.842-2186.125  0.00  0.00     0.241 C 
ATOM      9  O   LEU d   7    2112.099 643.203-2187.068  0.00  0.00    -0.271 OA
ATOM     10  H   ASP d   8    2109.944 643.412-2184.852  0.00  0.00     0.163 HD
BRANCH   8  11
ATOM     11  CA  LEU d   7    2111.450 641.446-2185.552  0.00  0.00     0.177 C 
BRANCH  11  12
ATOM     12  N   LEU d   7    2111.505 641.482-2184.094  0.00  0.00    -0.346 N 
ATOM     13  C   ILE d   6    2112.451 642.146-2183.521  0.00  0.00     0.241 C 
ATOM     14  O   ILE d   6    2113.286 642.733-2184.224  0.00  0.00    -0.271 OA
ATOM     15  H   LEU d   7    2110.813 640.996-2183.543  0.00  0.00     0.163 HD
BRANCH  13  16
ATOM     16  CA  ILE d   6    2112.509 642.183-2182.013  0.00  0.00     0.180 C 
BRANCH  16  17
ATOM     17  N   ILE d   6    2111.195 642.479-2181.447  0.00  0.00    -0.346 N 
ATOM     18  C   SER d   5    2110.591 643.562-2181.801  0.00  0.00     0.243 C 
ATOM     19  O   SER d   5    2111.139 644.315-2182.606  0.00  0.00    -0.271 OA
ATOM     20  H   ILE d   6    2110.766 641.844-2180.788  0.00  0.00     0.163 HD
BRANCH  18  21
ATOM     21  CA  SER d   5    2109.232 643.868-2181.216  0.00  0.00     0.200 C 
BRANCH  21  22
ATOM     22  N   SER d   5    2108.362 642.697-2181.275  0.00  0.00    -0.344 N 
ATOM     23  C   GLU d   4    2108.135 642.144-2182.418  0.00  0.00     0.241 C 
ATOM     24  O   GLU d   4    2108.662 642.624-2183.432  0.00  0.00    -0.271 OA
ATOM     25  H   SER d   5    2107.945 642.325-2180.433  0.00  0.00     0.163 HD
BRANCH  23  26
ATOM     26  CA  GLU d   4    2107.236 640.934-2182.479  0.00  0.00     0.177 C 
BRANCH  26  27
ATOM     27  N   GLU d   4    2107.595 639.963-2181.450  0.00  0.00    -0.346 N 
ATOM     28  C   PRO d   3    2108.800 639.502-2181.417  0.00  0.00     0.241 C 
ATOM     29  O   PRO d   3    2109.624 639.885-2182.248  0.00  0.00    -0.271 OA
ATOM     30  H   GLU d   4    2106.911 639.656-2180.773  0.00  0.00     0.163 HD
BRANCH  28  31
ATOM     31  CA  PRO d   3    2109.198 638.479-2180.340  0.00  0.00     0.179 C 
ATOM     32  N   PRO d   3    2108.746 638.888-2179.019  0.00  0.00    -0.337 N 
ATOM     33  C   ASN d   2    2109.267 639.883-2178.384  0.00  0.00     0.243 C 
ATOM     34  CD  PRO d   3    2107.667 638.095-2178.470  0.00  0.00     0.127 C 
ATOM     35  O   ASN d   2    2110.182 640.513-2178.912  0.00  0.00    -0.271 OA
ATOM     36  CG  PRO d   3    2107.210 637.277-2179.680  0.00  0.00     0.022 C 
ATOM     37  CB  PRO d   3    2108.493 637.124-2180.510  0.00  0.00     0.037 C 
BRANCH  33  38
ATOM     38  CA  ASN d   2    2108.736 640.239-2177.016  0.00  0.00     0.185 C 
BRANCH  38  39
ATOM     39  N   ASN d   2    2107.276 640.278-2177.016  0.00  0.00    -0.346 N 
ATOM     40  C   GLU d   1    2106.672 641.063-2177.841  0.00  0.00     0.242 C 
ATOM     41  O   GLU d   1    2107.348 641.762-2178.610  0.00  0.00    -0.271 OA
ATOM     42  H   ASN d   2    2106.748 639.698-2176.379  0.00  0.00     0.163 HD
BRANCH  40  43
ATOM     43  CA  GLU d   1    2105.163 641.103-2177.841  0.00  0.00     0.191 C 
BRANCH  43  44
ATOM     44  N   GLU d   1    2104.604 639.754-2177.841  0.00  0.00    -0.326 NA
ATOM     45  H   GLU d   1    2105.231 638.875-2177.841  0.00  0.00     0.180 HD
ENDBRANCH  43  44
BRANCH  43  46
ATOM     46  CB  GLU d   1    2104.640 641.888-2176.604  0.00  0.00     0.047 C 
BRANCH  46  47
ATOM     47  CG  GLU d   1    2105.115 643.373-2176.493  0.00  0.00     0.116 C 
BRANCH  47  48
ATOM     48  CD  GLU d   1    2104.691 644.177-2175.278  0.00  0.00     0.172 C 
ATOM     49  OE1 GLU d   1    2103.963 643.675-2174.400  0.00  0.00    -0.648 OA
ATOM     50  OE2 GLU d   1    2105.121 645.347-2175.206  0.00  0.00    -0.648 OA
ENDBRANCH  47  48
ENDBRANCH  46  47
ENDBRANCH  43  46
ENDBRANCH  40  43
ENDBRANCH  38  39
BRANCH  38  51
ATOM     51  CB  ASN d   2    2109.227 639.216-2175.951  0.00  0.00     0.137 C 
BRANCH  51  52
ATOM     52  CG  ASN d   2    2108.764 639.439-2174.508  0.00  0.00     0.217 C 
ATOM     53  ND2 ASN d   2    2109.358 640.354-2173.790  0.00  0.00    -0.370 N 
ATOM     54 21HD ASN d   2    2108.877 640.528-2172.903  0.00  0.00     0.159 HD
ATOM     55 22HD ASN d   2    2110.060 640.926-2174.259  0.00  0.00     0.159 HD
ATOM     56  OD1 ASN d   2    2107.843 638.806-2174.014  0.00  0.00    -0.274 OA
ENDBRANCH  51  52
ENDBRANCH  38  51
ENDBRANCH  33  38
ENDBRANCH  28  31
ENDBRANCH  26  27
BRANCH  26  57
ATOM     57  CB  GLU d   4    2105.748 641.353-2182.310  0.00  0.00     0.045 C 
BRANCH  57  58
ATOM     58  CG  GLU d   4    2105.200 642.356-2183.375  0.00  0.00     0.116 C 
BRANCH  58  59
ATOM     59  CD  GLU d   4    2103.774 642.853-2183.232  0.00  0.00     0.172 C 
ATOM     60  OE1 GLU d   4    2103.047 642.455-2182.302  0.00  0.00    -0.648 OA
ATOM     61  OE2 GLU d   4    2103.385 643.683-2184.081  0.00  0.00    -0.648 OA
ENDBRANCH  58  59
ENDBRANCH  57  58
ENDBRANCH  26  57
ENDBRANCH  23  26
ENDBRANCH  21  22
BRANCH  21  62
ATOM     62  CB  SER d   5    2109.344 644.400-2179.765  0.00  0.00     0.199 C 
BRANCH  62  63
ATOM     63  OG  SER d   5    2110.074 643.521-2178.904  0.00  0.00    -0.398 OA
ATOM     64  HG  SER d   5    2109.585 642.696-2178.854  0.00  0.00     0.209 HD
ENDBRANCH  62  63
ENDBRANCH  21  62
ENDBRANCH  18  21
ENDBRANCH  16  17
BRANCH  16  65
ATOM     65  CB  ILE d   6    2113.108 640.847-2181.412  0.00  0.00     0.013 C 
ATOM     66  CG2 ILE d   6    2114.549 640.545-2181.927  0.00  0.00     0.012 C 
BRANCH  65  67
ATOM     67  CG1 ILE d   6    2113.126 640.785-2179.852  0.00  0.00     0.002 C 
ATOM     68  CD1 ILE d   6    2113.396 639.395-2179.236  0.00  0.00     0.005 C 
ENDBRANCH  65  67
ENDBRANCH  16  65
ENDBRANCH  13  16
ENDBRANCH  11  12
BRANCH  11  69
ATOM     69  CB  LEU d   7    2110.247 640.586-2186.033  0.00  0.00     0.038 C 
BRANCH  69  70
ATOM     70  CG  LEU d   7    2110.174 639.107-2185.566  0.00  0.00    -0.020 C 
ATOM     71  CD1 LEU d   7    2108.984 638.402-2186.232  0.00  0.00     0.009 C 
ATOM     72  CD2 LEU d   7    2111.467 638.327-2185.858  0.00  0.00     0.009 C 
ENDBRANCH  69  70
ENDBRANCH  11  69
ENDBRANCH   8  11
ENDBRANCH   6   7
BRANCH   6  73
ATOM     73  CB  ASP d   8    2109.394 645.872-2185.433  0.00  0.00     0.147 C 
BRANCH  73  74
ATOM     74  CG  ASP d   8    2109.176 647.293-2185.974  0.00  0.00     0.175 C 
ATOM     75  OD1 ASP d   8    2109.240 647.491-2187.205  0.00  0.00    -0.648 OA
ATOM     76  OD2 ASP d   8    2108.985 648.219-2185.159  0.00  0.00    -0.648 OA
ENDBRANCH  73  74
ENDBRANCH   6  73
ENDBRANCH   3   6
ENDBRANCH   1   2
BRANCH   1  77
ATOM     77  C   GLU d   9    2114.719 645.790-2186.043  0.00  0.00     0.241 C 
ATOM     78  O   GLU d   9    2115.383 646.544-2186.769  0.00  0.00    -0.271 OA
ATOM     79  N   HIS d  10    2114.815 644.515-2186.212  0.00  0.00    -0.346 N 
ATOM     80  H   HIS d  10    2114.285 643.880-2185.633  0.00  0.00     0.163 HD
BRANCH  79  81
ATOM     81  CA  HIS d  10    2115.703 644.002-2187.252  0.00  0.00     0.182 C 
BRANCH  81  82
ATOM     82  C   HIS d  10    2115.336 644.566-2188.604  0.00  0.00     0.241 C 
ATOM     83  O   HIS d  10    2116.188 645.030-2189.376  0.00  0.00    -0.271 OA
ATOM     84  N   VAL d  11    2114.098 644.566-2188.966  0.00  0.00    -0.346 N 
ATOM     85  H   VAL d  11    2113.385 644.194-2188.355  0.00  0.00     0.163 HD
BRANCH  84  86
ATOM     86  CA  VAL d  11    2113.743 645.112-2190.273  0.00  0.00     0.180 C 
BRANCH  86  87
ATOM     87  C   VAL d  11    2114.208 646.542-2190.407  0.00  0.00     0.241 C 
ATOM     88  O   VAL d  11    2114.809 646.946-2191.410  0.00  0.00    -0.271 OA
ATOM     89  N   GLN d  12    2113.972 647.368-2189.445  0.00  0.00    -0.346 N 
ATOM     90  H   GLN d  12    2113.483 647.063-2188.615  0.00  0.00     0.163 HD
BRANCH  89  91
ATOM     91  CA  GLN d  12    2114.421 648.751-2189.573  0.00  0.00     0.177 C 
BRANCH  91  92
ATOM     92  C   GLN d  12    2115.911 648.817-2189.811  0.00  0.00     0.241 C 
ATOM     93  O   GLN d  12    2116.398 649.525-2190.690  0.00  0.00    -0.271 OA
ATOM     94  N   SER d  13    2116.695 648.110-2189.070  0.00  0.00    -0.344 N 
ATOM     95  H   SER d  13    2116.319 647.521-2188.341  0.00  0.00     0.163 HD
BRANCH  94  96
ATOM     96  CA  SER d  13    2118.135 648.176-2189.302  0.00  0.00     0.200 C 
BRANCH  96  97
ATOM     97  C   SER d  13    2118.471 647.803-2190.727  0.00  0.00     0.243 C 
ATOM     98  O   SER d  13    2119.240 648.475-2191.412  0.00  0.00    -0.271 OA
ATOM     99  N   VAL d  14    2117.934 646.748-2191.240  0.00  0.00    -0.346 N 
ATOM    100  H   VAL d  14    2117.300 646.180-2190.697  0.00  0.00     0.163 HD
BRANCH  99 101
ATOM    101  CA  VAL d  14    2118.259 646.388-2192.617  0.00  0.00     0.180 C 
BRANCH 101 102
ATOM    102  C   VAL d  14    2117.928 647.517-2193.564  0.00  0.00     0.241 C 
ATOM    103  O   VAL d  14    2118.721 647.898-2194.434  0.00  0.00    -0.271 OA
ATOM    104  N   MET d  15    2116.783 648.103-2193.462  0.00  0.00    -0.346 N 
ATOM    105  H   MET d  15    2116.119 647.810-2192.760  0.00  0.00     0.163 HD
BRANCH 104 106
ATOM    106  CA  MET d  15    2116.463 649.195-2194.377  0.00  0.00     0.177 C 
BRANCH 106 107
ATOM    107  C   MET d  15    2117.493 650.295-2194.290  0.00  0.00     0.241 C 
ATOM    108  O   MET d  15    2117.996 650.805-2195.303  0.00  0.00    -0.271 OA
ATOM    109  N   ARG d  16    2117.862 650.717-2193.128  0.00  0.00    -0.347 N 
ATOM    110  H   ARG d  16    2117.467 650.317-2192.289  0.00  0.00     0.163 HD
BRANCH 109 111
ATOM    111  CA  ARG d  16    2118.859 651.780-2193.045  0.00  0.00     0.162 C 
BRANCH 111 112
ATOM    112  C   ARG d  16    2120.129 651.387-2193.762  0.00  0.00     0.219 C 
ATOM    113  O   ARG d  16    2120.243 650.310-2194.342  0.00  0.00    -0.287 OA
ENDBRANCH 111 112
BRANCH 111 114
ATOM    114  CB  ARG d  16    2119.128 652.099-2191.548  0.00  0.00     0.035 C 
BRANCH 114 115
ATOM    115  CG  ARG d  16    2119.954 653.388-2191.276  0.00  0.00     0.023 C 
BRANCH 115 116
ATOM    116  CD  ARG d  16    2120.204 653.609-2189.775  0.00  0.00     0.138 C 
BRANCH 116 117
ATOM    117  NE  ARG d  16    2120.980 654.868-2189.575  0.00  0.00    -0.227 N 
ATOM    118  CZ  ARG d  16    2121.372 655.351-2188.400  0.00  0.00     0.665 C 
ATOM    119  NH1 ARG d  16    2121.125 654.768-2187.261  0.00  0.00    -0.235 N 
ATOM    120  NH2 ARG d  16    2122.036 656.463-2188.382  0.00  0.00    -0.235 N 
ATOM    121 11HH ARG d  16    2120.599 653.894-2187.345  0.00  0.00     0.174 HD
ATOM    122 12HH ARG d  16    2121.459 655.204-2186.400  0.00  0.00     0.174 HD
ATOM    123 21HH ARG d  16    2122.221 656.906-2189.285  0.00  0.00     0.174 HD
ATOM    124 22HH ARG d  16    2122.327 656.819-2187.470  0.00  0.00     0.174 HD
ATOM    125  HE  ARG d  16    2121.259 655.448-2190.373  0.00  0.00     0.177 HD
ENDBRANCH 116 117
ENDBRANCH 115 116
ENDBRANCH 114 115
ENDBRANCH 111 114
ENDBRANCH 109 111
ENDBRANCH 106 107
BRANCH 106 126
ATOM    126  CB  MET d  15    2115.042 649.741-2194.068  0.00  0.00     0.045 C 
BRANCH 126 127
ATOM    127  CG  MET d  15    2113.880 648.743-2194.258  0.00  0.00     0.076 C 
BRANCH 127 128
ATOM    128  SD  MET d  15    2112.306 649.609-2194.144  0.00  0.00    -0.173 SA
ATOM    129  CE  MET d  15    2111.224 648.179-2194.006  0.00  0.00     0.089 C 
ENDBRANCH 127 128
ENDBRANCH 126 127
ENDBRANCH 106 126
ENDBRANCH 104 106
ENDBRANCH 101 102
BRANCH 101 130
ATOM    130  CB  VAL d  14    2117.486 645.070-2193.023  0.00  0.00     0.009 C 
ATOM    131  CG1 VAL d  14    2117.574 644.651-2194.516  0.00  0.00     0.012 C 
ATOM    132  CG2 VAL d  14    2117.918 643.819-2192.222  0.00  0.00     0.012 C 
ENDBRANCH 101 130
ENDBRANCH  99 101
ENDBRANCH  96  97
BRANCH  96 133
ATOM    133  CB  SER d  13    2118.898 647.289-2188.286  0.00  0.00     0.199 C 
BRANCH 133 134
ATOM    134  OG  SER d  13    2118.688 645.889-2188.501  0.00  0.00    -0.398 OA
ATOM    135  HG  SER d  13    2117.754 645.714-2188.366  0.00  0.00     0.209 HD
ENDBRANCH 133 134
ENDBRANCH  96 133
ENDBRANCH  94  96
ENDBRANCH  91  92
BRANCH  91 136
ATOM    136  CB  GLN d  12    2114.031 649.519-2188.290  0.00  0.00     0.044 C 
BRANCH 136 137
ATOM    137  CG  GLN d  12    2114.392 651.041-2188.260  0.00  0.00     0.105 C 
BRANCH 137 138
ATOM    138  CD  GLN d  12    2114.090 651.855-2186.996  0.00  0.00     0.215 C 
ATOM    139  NE2 GLN d  12    2113.523 651.279-2185.966  0.00  0.00    -0.370 N 
ATOM    140 21HE GLN d  12    2113.417 651.874-2185.143  0.00  0.00     0.159 HD
ATOM    141 22HE GLN d  12    2113.359 650.276-2186.069  0.00  0.00     0.159 HD
ATOM    142  OE1 GLN d  12    2114.393 653.036-2186.919  0.00  0.00    -0.274 OA
ENDBRANCH 137 138
ENDBRANCH 136 137
ENDBRANCH  91 136
ENDBRANCH  89  91
ENDBRANCH  86  87
BRANCH  86 143
ATOM    143  CB  VAL d  11    2112.181 645.005-2190.492  0.00  0.00     0.009 C 
ATOM    144  CG1 VAL d  11    2111.613 645.709-2191.755  0.00  0.00     0.012 C 
ATOM    145  CG2 VAL d  11    2111.656 643.552-2190.564  0.00  0.00     0.012 C 
ENDBRANCH  86 143
ENDBRANCH  84  86
ENDBRANCH  81  82
BRANCH  81 146
ATOM    146  CB  HIS d  10    2115.538 642.473-2187.247  0.00  0.00     0.095 C 
BRANCH 146 147
ATOM    147  CG  HIS d  10    2116.823 641.763-2186.938  0.00  0.00     0.053 A 
ATOM    148  CD2 HIS d  10    2117.205 641.428-2185.646  0.00  0.00     0.116 A 
ATOM    149  NE2 HIS d  10    2118.419 640.796-2185.713  0.00  0.00    -0.359 N 
ATOM    150  CE1 HIS d  10    2118.681 640.798-2187.048  0.00  0.00     0.207 A 
ATOM    151  2HE HIS d  10    2118.986 640.419-2184.939  0.00  0.00     0.166 HD
ATOM    152  ND1 HIS d  10    2117.775 641.356-2187.871  0.00  0.00    -0.247 NA
ENDBRANCH 146 147
ENDBRANCH  81 146
ENDBRANCH  79  81
ENDBRANCH   1  77
BRANCH   1 153
ATOM    153  CB  GLU d   9    2114.436 646.111-2183.562  0.00  0.00     0.045 C 
BRANCH 153 154
ATOM    154  CG  GLU d   9    2115.819 646.803-2183.333  0.00  0.00     0.116 C 
BRANCH 154 155
ATOM    155  CD  GLU d   9    2116.521 646.590-2182.005  0.00  0.00     0.172 C 
ATOM    156  OE1 GLU d   9    2115.999 645.900-2181.108  0.00  0.00    -0.648 OA
ATOM    157  OE2 GLU d   9    2117.640 647.127-2181.874  0.00  0.00    -0.648 OA
ENDBRANCH 154 155
ENDBRANCH 153 154
ENDBRANCH   1 153
TORSDOF 66
