@<TRIPOS>MOLECULE
2-10
275 278 16              
SMALL
USER_CHARGES
@<TRIPOS>ATOM
1	   N	247.969	47.309	-222.531	N.3	1	GLU1	-0.516	
2	  CA	248.528	48.658	-222.531	C.3	1	GLU1	0.040	
3	   C	250.037	48.618	-222.531	C.2	1	GLU1	0.537	
4	   O	250.713	49.318	-223.300	O.2	1	GLU1	-0.582	
5	  CB	248.005	49.443	-221.294	C.3	1	GLU1	0.056	
6	  CG	248.480	50.928	-221.183	C.3	1	GLU1	0.014	
7	  CD	248.056	51.732	-219.968	C.2	1	GLU1	0.805	
8	 OE1	247.328	51.230	-219.090	O.co2	1	GLU1	-0.819	
9	 OE2	248.486	52.902	-219.896	O.co2	1	GLU1	-0.819	
10	   H	248.596	46.430	-222.531	 H	1	GLU1	0.294	
11	  HA	248.202	49.176	-223.451	 H	1	GLU1	0.111	
12	 2HB	248.294	48.912	-220.364	 H	1	GLU1	-0.017	
13	 3HB	246.898	49.433	-221.281	 H	1	GLU1	-0.017	
14	 2HG	248.170	51.513	-222.064	 H	1	GLU1	-0.043	
15	 3HG	249.580	50.995	-221.154	 H	1	GLU1	-0.043	
16	   N	250.642	47.833	-221.706	N.am	2	TRP2	-0.416	
17	  CA	252.101	47.794	-221.706	C.3	2	TRP2	-0.027	
18	   C	252.634	47.438	-223.074	C.2	2	TRP2	0.597	
19	   O	253.549	48.069	-223.600	O.2	2	TRP2	-0.568	
20	  CB	252.581	46.743	-220.666	C.3	2	TRP2	-0.005	
21	  CG	252.268	47.095	-219.208	C.2	2	TRP2	-0.141	
22	 CD1	251.160	46.629	-218.470	C.2	2	TRP2	-0.164	
23	 CD2	252.928	47.979	-218.381	C.2	2	TRP2	0.124	
24	 CE2	252.221	48.037	-217.154	C.2	2	TRP2	0.138	
25	 CE3	254.084	48.776	-218.586	C.2	2	TRP2	-0.239	
26	 NE1	251.114	47.202	-217.185	N.pl3	2	TRP2	-0.342	
27	 CZ2	252.672	48.885	-216.119	C.2	2	TRP2	-0.260	
28	 CZ3	254.513	49.600	-217.546	C.2	2	TRP2	-0.197	
29	 CH2	253.820	49.653	-216.329	C.2	2	TRP2	-0.113	
30	   H	250.113	47.253	-221.070	 H	2	TRP2	0.272	
31	  HA	252.491	48.796	-221.446	 H	2	TRP2	0.112	
32	 2HB	253.675	46.598	-220.745	 H	2	TRP2	0.034	
33	 3HB	252.155	45.749	-220.904	 H	2	TRP2	0.034	
34	 1HD	250.413	45.952	-218.865	 H	2	TRP2	0.206	
35	 1HE	250.403	47.074	-216.457	 H	2	TRP2	0.341	
36	 3HE	254.620	48.747	-219.524	 H	2	TRP2	0.170	
37	 2HZ	252.136	48.934	-215.182	 H	2	TRP2	0.157	
38	 3HZ	255.396	50.208	-217.683	 H	2	TRP2	0.145	
39	 2HH	254.179	50.297	-215.541	 H	2	TRP2	0.142	
40	   N	252.113	46.443	-223.709	N.am	3	PRO3	-0.255	
41	  CA	252.567	46.034	-225.030	C.3	3	PRO3	-0.027	
42	   C	252.170	47.058	-226.107	C.2	3	PRO3	0.590	
43	   O	252.994	47.441	-226.937	O.2	3	PRO3	-0.575	
44	  CB	251.863	44.679	-225.200	C.3	3	PRO3	-0.007	
45	  CG	250.579	44.831	-224.372	C.3	3	PRO3	0.019	
46	  CD	251.035	45.649	-223.161	C.3	3	PRO3	0.019	
47	  HA	253.653	45.915	-225.042	 H	3	PRO3	0.064	
48	 2HB	252.486	43.898	-224.759	 H	3	PRO3	0.025	
49	 3HB	251.667	44.431	-226.246	 H	3	PRO3	0.025	
50	 2HG	250.151	43.868	-224.081	 H	3	PRO3	0.021	
51	 3HG	249.842	45.402	-224.940	 H	3	PRO3	0.021	
52	 2HD	251.423	45.000	-222.373	 H	3	PRO3	0.039	
53	 3HD	250.238	46.285	-222.769	 H	3	PRO3	0.039	
54	   N	250.965	47.517	-226.141	N.am	4	GLU4	-0.516	
55	  CA	250.606	48.488	-227.171	C.3	4	GLU4	0.040	
56	   C	251.505	49.700	-227.108	C.2	4	GLU4	0.537	
57	   O	252.032	50.180	-228.122	O.2	4	GLU4	-0.582	
58	  CB	249.118	48.907	-227.002	C.3	4	GLU4	0.056	
59	  CG	248.570	49.910	-228.068	C.3	4	GLU4	0.014	
60	  CD	247.144	50.406	-227.926	C.2	4	GLU4	0.805	
61	 OE1	246.416	50.008	-226.996	O.co2	4	GLU4	-0.819	
62	 OE2	246.755	51.236	-228.775	O.co2	4	GLU4	-0.819	
63	   H	250.280	47.210	-225.465	 H	4	GLU4	0.294	
64	  HA	250.739	48.018	-228.162	 H	4	GLU4	0.111	
65	 2HB	248.964	49.346	-225.995	 H	4	GLU4	-0.017	
66	 3HB	248.470	48.009	-227.009	 H	4	GLU4	-0.017	
67	 2HG	248.654	49.496	-229.086	 H	4	GLU4	-0.043	
68	 3HG	249.158	50.843	-228.078	 H	4	GLU4	-0.043	
69	   N	251.731	50.252	-225.964	N.am	5	SER5	-0.416	
70	  CA	252.600	51.424	-225.905	C.3	5	SER5	-0.025	
71	   C	253.959	51.119	-226.488	C.2	5	SER5	0.597	
72	   O	254.507	51.873	-227.292	O.2	5	SER5	-0.568	
73	  CB	252.709	51.956	-224.454	C.3	5	SER5	0.212	
74	  OG	253.440	51.077	-223.592	O.3	5	SER5	-0.655	
75	   H	251.313	49.880	-225.124	 H	5	SER5	0.272	
76	  HA	252.151	52.214	-226.534	 H	5	SER5	0.084	
77	 2HB	251.709	52.149	-224.022	 H	5	SER5	0.035	
78	 3HB	253.214	52.942	-224.455	 H	5	SER5	0.035	
79	  HG	252.952	50.252	-223.542	 H	5	SER5	0.428	
80	   N	254.564	50.036	-226.134	N.am	6	ILE6	-0.416	
81	  CA	255.878	49.742	-226.699	C.3	6	ILE6	-0.060	
82	   C	255.823	49.705	-228.206	C.2	6	ILE6	0.597	
83	   O	256.658	50.293	-228.909	O.2	6	ILE6	-0.568	
84	  CB	256.478	48.406	-226.098	C.3	6	ILE6	0.130	
85	 CG1	256.495	48.344	-224.537	C.3	6	ILE6	-0.043	
86	 CG2	257.920	48.105	-226.611	C.3	6	ILE6	-0.320	
87	 CD1	256.765	46.954	-223.922	C.3	6	ILE6	-0.066	
88	   H	254.135	49.402	-225.476	 H	6	ILE6	0.272	
89	  HA	256.551	50.577	-226.430	 H	6	ILE6	0.087	
90	  HB	255.821	47.580	-226.443	 H	6	ILE6	0.019	
91	2HG1	255.512	48.663	-224.142	 H	6	ILE6	0.024	
92	3HG1	257.210	49.086	-224.131	 H	6	ILE6	0.024	
93	1HG2	257.980	48.012	-227.710	 H	6	ILE6	0.088	
94	2HG2	258.641	48.888	-226.308	 H	6	ILE6	0.088	
95	3HG2	258.310	47.143	-226.232	 H	6	ILE6	0.088	
96	1HD1	256.037	46.200	-224.277	 H	6	ILE6	0.019	
97	2HD1	257.776	46.576	-224.156	 H	6	ILE6	0.019	
98	3HD1	256.687	46.984	-222.819	 H	6	ILE6	0.019	
99	   N	254.878	49.041	-228.781	N.am	7	LEU7	-0.416	
100	  CA	254.825	49.005	-230.240	C.3	7	LEU7	-0.052	
101	   C	254.753	50.400	-230.812	C.2	7	LEU7	0.597	
102	   O	255.474	50.764	-231.753	O.2	7	LEU7	-0.568	
103	  CB	253.623	48.144	-230.722	C.3	7	LEU7	-0.110	
104	  CG	253.550	46.665	-230.256	C.3	7	LEU7	0.353	
105	 CD1	252.361	45.959	-230.923	C.3	7	LEU7	-0.412	
106	 CD2	254.844	45.886	-230.546	C.3	7	LEU7	-0.412	
107	   H	254.185	48.553	-228.231	 H	7	LEU7	0.272	
108	  HA	255.767	48.566	-230.613	 H	7	LEU7	0.092	
109	 2HB	253.601	48.161	-231.829	 H	7	LEU7	0.046	
110	 3HB	252.682	48.647	-230.419	 H	7	LEU7	0.046	
111	  HG	253.379	46.657	-229.159	 H	7	LEU7	-0.036	
112	1HD1	251.404	46.467	-230.701	 H	7	LEU7	0.100	
113	2HD1	252.462	45.918	-232.024	 H	7	LEU7	0.100	
114	3HD1	252.254	44.917	-230.567	 H	7	LEU7	0.100	
115	1HD2	255.121	45.917	-231.615	 H	7	LEU7	0.100	
116	2HD2	255.697	46.298	-229.974	 H	7	LEU7	0.100	
117	3HD2	254.763	44.824	-230.250	 H	7	LEU7	0.100	
118	   N	253.914	51.241	-230.307	N.am	8	ASP8	-0.516	
119	  CA	253.844	52.590	-230.860	C.3	8	ASP8	0.038	
120	   C	255.190	53.271	-230.801	C.2	8	ASP8	0.537	
121	   O	255.664	53.876	-231.775	O.2	8	ASP8	-0.582	
122	  CB	252.765	53.428	-230.119	C.3	8	ASP8	-0.030	
123	  CG	252.546	54.849	-230.660	C.2	8	ASP8	0.799	
124	 OD1	252.611	55.049	-231.890	O.co2	8	ASP8	-0.801	
125	 OD2	252.352	55.775	-229.844	O.co2	8	ASP8	-0.801	
126	   H	253.316	50.969	-229.540	 H	8	ASP8	0.294	
127	  HA	253.562	52.512	-231.927	 H	8	ASP8	0.088	
128	 2HB	253.020	53.512	-229.047	 H	8	ASP8	-0.012	
129	 3HB	251.786	52.923	-230.154	 H	8	ASP8	-0.012	
130	   N	255.869	53.221	-229.705	N.am	9	GLU9	-0.516	
131	  CA	257.171	53.879	-229.648	C.3	9	GLU9	0.040	
132	   C	258.091	53.352	-230.722	C.2	9	GLU9	0.537	
133	   O	258.755	54.107	-231.447	O.2	9	GLU9	-0.582	
134	  CB	257.803	53.671	-228.241	C.3	9	GLU9	0.056	
135	  CG	259.185	54.364	-228.010	C.3	9	GLU9	0.014	
136	  CD	259.885	54.151	-226.681	C.2	9	GLU9	0.805	
137	 OE1	259.363	53.459	-225.785	O.co2	9	GLU9	-0.819	
138	 OE2	261.004	54.689	-226.548	O.co2	9	GLU9	-0.819	
139	   H	255.505	52.734	-228.898	 H	9	GLU9	0.294	
140	  HA	257.028	54.961	-229.823	 H	9	GLU9	0.111	
141	 2HB	257.916	52.587	-228.038	 H	9	GLU9	-0.017	
142	 3HB	257.105	54.024	-227.458	 H	9	GLU9	-0.017	
143	 2HG	259.112	55.455	-228.150	 H	9	GLU9	-0.043	
144	 3HG	259.932	54.020	-228.743	 H	9	GLU9	-0.043	
145	   N	258.188	52.077	-230.892	N.am	10	HIS10	-0.416	
146	  CA	259.078	51.566	-231.932	C.3	10	HIS10	-0.058	
147	   C	258.712	52.131	-233.283	C.2	10	HIS10	0.597	
148	   O	259.565	52.597	-234.053	O.2	10	HIS10	-0.568	
149	  CB	258.915	50.038	-231.927	C.3	10	HIS10	-0.007	
150	  CG	260.200	49.328	-231.618	C.2	10	HIS10	0.187	
151	 CD2	260.580	48.993	-230.325	C.2	10	HIS10	-0.221	
152	 ND1	261.154	48.923	-232.549	N.2	10	HIS10	-0.543	
153	 CE1	262.059	48.365	-231.725	C.2	10	HIS10	0.163	
154	 NE2	261.795	48.362	-230.390	N.pl3	10	HIS10	-0.280	
155	   H	257.657	51.441	-230.315	 H	10	HIS10	0.272	
156	  HA	260.096	51.924	-231.705	 H	10	HIS10	0.136	
157	 2HB	258.551	49.671	-232.908	 H	10	HIS10	0.037	
158	 3HB	258.158	49.700	-231.188	 H	10	HIS10	0.037	
159	 2HD	259.993	49.207	-229.436	 H	10	HIS10	0.186	
160	 1HE	262.951	47.945	-232.171	 H	10	HIS10	0.144	
161	 2HE	262.361	47.984	-229.616	 H	10	HIS10	0.334	
162	   N	257.475	52.130	-233.648	N.am	11	VAL11	-0.416	
163	  CA	257.121	52.676	-234.955	C.3	11	VAL11	-0.087	
164	   C	257.585	54.107	-235.086	C.2	11	VAL11	0.597	
165	   O	258.187	54.513	-236.088	O.2	11	VAL11	-0.568	
166	  CB	255.560	52.569	-235.176	C.3	11	VAL11	0.299	
167	 CG1	254.993	53.273	-236.439	C.3	11	VAL11	-0.319	
168	 CG2	255.037	51.114	-235.250	C.3	11	VAL11	-0.319	
169	   H	256.761	51.756	-233.038	 H	11	VAL11	0.272	
170	  HA	257.642	52.094	-235.737	 H	11	VAL11	0.097	
171	  HB	255.071	53.048	-234.301	 H	11	VAL11	-0.030	
172	1HG1	255.433	52.881	-237.376	 H	11	VAL11	0.079	
173	2HG1	253.894	53.165	-236.523	 H	11	VAL11	0.079	
174	3HG1	255.170	54.365	-236.429	 H	11	VAL11	0.079	
175	1HG2	255.326	50.527	-234.360	 H	11	VAL11	0.079	
176	2HG2	253.931	51.076	-235.295	 H	11	VAL11	0.079	
177	3HG2	255.420	50.574	-236.137	 H	11	VAL11	0.079	
178	   N	257.346	54.932	-234.124	N.am	12	GLN12	-0.416	
179	  CA	257.794	56.316	-234.250	C.3	12	GLN12	-0.003	
180	   C	259.284	56.384	-234.486	C.2	12	GLN12	0.597	
181	   O	259.772	57.093	-235.363	O.2	12	GLN12	-0.568	
182	  CB	257.401	57.082	-232.967	C.3	12	GLN12	-0.004	
183	  CG	257.760	58.604	-232.935	C.3	12	GLN12	-0.064	
184	  CD	257.455	59.417	-231.671	C.2	12	GLN12	0.695	
185	 NE2	256.887	58.840	-230.643	N.pl3	12	GLN12	-0.941	
186	 OE1	257.756	60.598	-231.592	O.2	12	GLN12	-0.609	
187	   H	256.856	54.626	-233.295	 H	12	GLN12	0.272	
188	  HA	257.295	56.772	-235.125	 H	12	GLN12	0.085	
189	 2HB	257.876	56.582	-232.098	 H	12	GLN12	0.017	
190	 3HB	256.310	56.974	-232.806	 H	12	GLN12	0.017	
191	 2HG	257.283	59.125	-233.786	 H	12	GLN12	0.035	
192	 3HG	258.844	58.747	-233.100	 H	12	GLN12	0.035	
193	1HE2	256.779	59.434	-229.819	 H	12	GLN12	0.425	
194	2HE2	256.725	57.836	-230.747	 H	12	GLN12	0.425	
195	   N	260.068	55.677	-233.744	N.am	13	ARG13	-0.348	
196	  CA	261.509	55.744	-233.973	C.3	13	ARG13	-0.264	
197	   C	261.847	55.373	-235.398	C.2	13	ARG13	0.734	
198	   O	262.616	56.046	-236.080	O.2	13	ARG13	-0.589	
199	  CB	262.221	54.805	-232.958	C.3	13	ARG13	-0.001	
200	  CG	263.766	54.959	-232.875	C.3	13	ARG13	0.039	
201	  CD	264.392	53.972	-231.877	C.3	13	ARG13	0.049	
202	  NE	265.869	54.180	-231.824	N.pl3	13	ARG13	-0.530	
203	  CZ	266.717	53.488	-231.068	C.cat	13	ARG13	0.808	
204	 NH1	266.351	52.524	-230.272	N.pl3	13	ARG13	-0.863	
205	 NH2	267.976	53.788	-231.123	N.pl3	13	ARG13	-0.863	
206	   H	259.691	55.087	-233.016	 H	13	ARG13	0.275	
207	  HA	261.832	56.790	-233.814	 H	13	ARG13	0.156	
208	 2HB	261.956	53.755	-233.198	 H	13	ARG13	0.033	
209	 3HB	261.795	54.971	-231.948	 H	13	ARG13	0.033	
210	 2HG	264.013	56.004	-232.595	 H	13	ARG13	0.029	
211	 3HG	264.218	54.804	-233.876	 H	13	ARG13	0.029	
212	 2HD	264.149	52.932	-232.187	 H	13	ARG13	0.069	
213	 3HD	263.934	54.117	-230.875	 H	13	ARG13	0.069	
214	  HE	266.321	54.902	-232.394	 H	13	ARG13	0.346	
215	1HH1	265.346	52.337	-230.276	 H	13	ARG13	0.448	
216	2HH1	267.064	52.041	-229.722	 H	13	ARG13	0.448	
217	1HH2	268.244	54.546	-231.754	 H	13	ARG13	0.448	
218	2HH2	268.611	53.247	-230.534	 H	13	ARG13	0.448	
219	   N	261.312	54.319	-235.913	N.am	14	VAL14	-0.416	
220	  CA	261.639	53.960	-237.290	C.3	14	VAL14	-0.087	
221	   C	261.309	55.090	-238.236	C.2	14	VAL14	0.597	
222	   O	262.104	55.472	-239.104	O.2	14	VAL14	-0.568	
223	  CB	260.868	52.643	-237.699	C.3	14	VAL14	0.299	
224	 CG1	260.959	52.225	-239.192	C.3	14	VAL14	-0.319	
225	 CG2	261.300	51.390	-236.898	C.3	14	VAL14	-0.319	
226	   H	260.677	53.749	-235.372	 H	14	VAL14	0.272	
227	  HA	262.727	53.784	-237.364	 H	14	VAL14	0.097	
228	  HB	259.791	52.813	-237.484	 H	14	VAL14	-0.030	
229	1HG1	262.001	52.049	-239.520	 H	14	VAL14	0.079	
230	2HG1	260.387	51.301	-239.406	 H	14	VAL14	0.079	
231	3HG1	260.531	52.987	-239.871	 H	14	VAL14	0.079	
232	1HG2	261.211	51.548	-235.808	 H	14	VAL14	0.079	
233	2HG2	260.665	50.514	-237.132	 H	14	VAL14	0.079	
234	3HG2	262.348	51.101	-237.103	 H	14	VAL14	0.079	
235	   N	260.164	55.675	-238.135	N.am	15	MET15	-0.416	
236	  CA	259.844	56.768	-239.049	C.3	15	MET15	-0.024	
237	   C	260.874	57.869	-238.960	C.2	15	MET15	0.597	
238	   O	261.378	58.380	-239.971	O.2	15	MET15	-0.568	
239	  CB	258.422	57.313	-238.742	C.3	15	MET15	0.034	
240	  CG	257.261	56.314	-238.936	C.3	15	MET15	0.002	
241	  SD	255.686	57.179	-238.823	S.3	15	MET15	-0.274	
242	  CE	254.606	55.749	-238.688	C.3	15	MET15	-0.054	
243	   H	259.499	55.382	-237.435	 H	15	MET15	0.272	
244	  HA	259.872	56.381	-240.085	 H	15	MET15	0.088	
245	 2HB	258.220	58.192	-239.384	 H	15	MET15	0.024	
246	 3HB	258.385	57.705	-237.706	 H	15	MET15	0.024	
247	 2HG	257.303	55.528	-238.158	 H	15	MET15	0.044	
248	 3HG	257.326	55.799	-239.912	 H	15	MET15	0.044	
249	 1HE	254.751	55.061	-239.541	 H	15	MET15	0.068	
250	 2HE	254.814	55.196	-237.755	 H	15	MET15	0.068	
251	 3HE	253.548	56.063	-238.673	 H	15	MET15	0.068	
252	   N	261.241	58.289	-237.797	N.am	16	ARG16	-0.348	
253	  CA	262.237	59.354	-237.711	C.3	16	ARG16	-0.264	
254	   C	263.508	58.962	-238.426	C.2	16	ARG16	0.734	
255	   O	263.624	57.886	-239.008	O.2	16	ARG16	-0.589	
256	  CB	262.503	59.671	-236.213	C.3	16	ARG16	-0.001	
257	  CG	263.327	60.961	-235.938	C.3	16	ARG16	0.039	
258	  CD	263.575	61.180	-234.437	C.3	16	ARG16	0.049	
259	  NE	264.350	62.439	-234.234	N.pl3	16	ARG16	-0.530	
260	  CZ	264.740	62.921	-233.058	C.cat	16	ARG16	0.808	
261	 NH1	264.491	62.336	-231.920	N.pl3	16	ARG16	-0.863	
262	 NH2	265.403	64.034	-233.038	N.pl3	16	ARG16	-0.863	
263	   H	260.845	57.889	-236.958	 H	16	ARG16	0.275	
264	  HA	261.828	60.247	-238.221	 H	16	ARG16	0.156	
265	 2HB	263.000	58.796	-235.746	 H	16	ARG16	0.033	
266	 3HB	261.534	59.752	-235.680	 H	16	ARG16	0.033	
267	 2HG	262.797	61.832	-236.376	 H	16	ARG16	0.029	
268	 3HG	264.302	60.909	-236.466	 H	16	ARG16	0.029	
269	 2HD	264.124	60.305	-234.023	 H	16	ARG16	0.069	
270	 3HD	262.601	61.222	-233.903	 H	16	ARG16	0.069	
271	  HE	264.629	63.021	-235.031	 H	16	ARG16	0.346	
272	1HH1	263.966	61.463	-232.005	 H	16	ARG16	0.448	
273	2HH1	264.824	62.772	-231.058	 H	16	ARG16	0.448	
274	1HH2	265.589	64.478	-233.940	 H	16	ARG16	0.448	
275	2HH2	265.692	64.389	-232.125	 H	16	ARG16	0.448	
@<TRIPOS>BOND
1 1 2 1
2 1 10 1
3 2 3 1
4 2 5 1
5 2 11 1
6 3 4 2
7 3 16 1
8 5 6 1
9 6 7 1
10 7 8 2
11 7 9 1
12 5 12 1
13 5 13 1
14 6 14 1
15 6 15 1
16 16 17 1
17 16 30 1
18 17 18 1
19 17 20 1
20 17 31 1
21 18 19 2
22 18 40 1
23 20 21 1
24 21 23 1
25 21 22 2
26 23 25 1
27 23 24 2
28 24 26 1
29 25 28 2
30 22 26 1
31 24 27 1
32 28 29 1
33 27 29 2
34 20 32 1
35 20 33 1
36 22 34 1
37 26 35 1
38 25 36 1
39 27 37 1
40 28 38 1
41 29 39 1
42 40 41 1
43 40 46 1
44 41 42 1
45 41 44 1
46 41 47 1
47 42 43 2
48 42 54 1
49 44 45 1
50 45 46 1
51 44 48 1
52 44 49 1
53 45 50 1
54 45 51 1
55 46 52 1
56 46 53 1
57 54 55 1
58 54 63 1
59 55 56 1
60 55 58 1
61 55 64 1
62 56 57 2
63 56 69 1
64 58 59 1
65 59 60 1
66 60 61 2
67 60 62 1
68 58 65 1
69 58 66 1
70 59 67 1
71 59 68 1
72 69 70 1
73 69 75 1
74 70 71 1
75 70 73 1
76 70 76 1
77 71 72 2
78 71 80 1
79 73 74 1
80 73 77 1
81 73 78 1
82 74 79 1
83 80 81 1
84 80 88 1
85 81 82 1
86 81 84 1
87 81 89 1
88 82 83 2
89 82 99 1
90 84 85 1
91 84 86 1
92 85 87 1
93 84 90 1
94 85 91 1
95 85 92 1
96 86 93 1
97 86 94 1
98 86 95 1
99 87 96 1
100 87 97 1
101 87 98 1
102 99 100 1
103 99 107 1
104 100 101 1
105 100 103 1
106 100 108 1
107 101 102 2
108 101 118 1
109 103 104 1
110 104 105 1
111 104 106 1
112 103 109 1
113 103 110 1
114 104 111 1
115 105 112 1
116 105 113 1
117 105 114 1
118 106 115 1
119 106 116 1
120 106 117 1
121 118 119 1
122 118 126 1
123 119 120 1
124 119 122 1
125 119 127 1
126 120 121 2
127 120 130 1
128 122 123 1
129 123 124 2
130 123 125 1
131 122 128 1
132 122 129 1
133 130 131 1
134 130 139 1
135 131 132 1
136 131 134 1
137 131 140 1
138 132 133 2
139 132 145 1
140 134 135 1
141 135 136 1
142 136 137 2
143 136 138 1
144 134 141 1
145 134 142 1
146 135 143 1
147 135 144 1
148 145 146 1
149 145 155 1
150 146 147 1
151 146 149 1
152 146 156 1
153 147 148 2
154 147 162 1
155 149 150 1
156 150 151 2
157 151 154 1
158 150 152 1
159 152 153 2
160 153 154 1
161 149 157 1
162 149 158 1
163 151 159 1
164 153 160 1
165 154 161 1
166 162 163 1
167 162 169 1
168 163 164 1
169 163 166 1
170 163 170 1
171 164 165 2
172 164 178 1
173 166 167 1
174 166 168 1
175 166 171 1
176 167 172 1
177 167 173 1
178 167 174 1
179 168 175 1
180 168 176 1
181 168 177 1
182 178 179 1
183 178 187 1
184 179 180 1
185 179 182 1
186 179 188 1
187 180 181 2
188 180 195 1
189 182 183 1
190 183 184 1
191 184 185 1
192 184 186 2
193 182 189 1
194 182 190 1
195 183 191 1
196 183 192 1
197 185 193 1
198 185 194 1
199 195 196 1
200 195 206 1
201 196 197 1
202 196 199 1
203 196 207 1
204 197 198 2
205 197 219 1
206 199 200 1
207 200 201 1
208 201 202 1
209 202 203 1
210 203 204 2
211 203 205 1
212 199 208 1
213 199 209 1
214 200 210 1
215 200 211 1
216 201 212 1
217 201 213 1
218 202 214 1
219 204 215 1
220 204 216 1
221 205 217 1
222 205 218 1
223 219 220 1
224 219 226 1
225 220 221 1
226 220 223 1
227 220 227 1
228 221 222 2
229 221 235 1
230 223 224 1
231 223 225 1
232 223 228 1
233 224 229 1
234 224 230 1
235 224 231 1
236 225 232 1
237 225 233 1
238 225 234 1
239 235 236 1
240 235 243 1
241 236 237 1
242 236 239 1
243 236 244 1
244 237 238 2
245 237 252 1
246 239 240 1
247 240 241 1
248 241 242 1
249 239 245 1
250 239 246 1
251 240 247 1
252 240 248 1
253 242 249 1
254 242 250 1
255 242 251 1
256 252 253 1
257 252 263 1
258 253 254 1
259 253 256 1
260 253 264 1
261 254 255 2
262 256 257 1
263 257 258 1
264 258 259 1
265 259 260 1
266 260 261 2
267 260 262 1
268 256 265 1
269 256 266 1
270 257 267 1
271 257 268 1
272 258 269 1
273 258 270 1
274 259 271 1
275 261 272 1
276 261 273 1
277 262 274 1
278 262 275 1
@<TRIPOS>SUBSTRUCTURE
1	GLU1	1	RESIDUE	1 ****	GLU
2	TRP2	16	RESIDUE	1 ****	TRP
3	PRO3	40	RESIDUE	1 ****	PRO
4	GLU4	54	RESIDUE	1 ****	GLU
5	SER5	69	RESIDUE	1 ****	SER
6	ILE6	80	RESIDUE	1 ****	ILE
7	LEU7	99	RESIDUE	1 ****	LEU
8	ASP8	118	RESIDUE	1 ****	ASP
9	GLU9	130	RESIDUE	1 ****	GLU
10	HIS10	145	RESIDUE	1 ****	HIS
11	VAL11	162	RESIDUE	1 ****	VAL
12	GLN12	178	RESIDUE	1 ****	GLN
13	ARG13	195	RESIDUE	1 ****	ARG
14	VAL14	219	RESIDUE	1 ****	VAL
15	MET15	235	RESIDUE	1 ****	MET
16	ARG16	252	RESIDUE	1 ****	ARG
