REMARK WARNING: 32 MAX_TORS EXCEEDED!!!
REMARK  71 active torsions:
REMARK  status: ('A' for Active; 'I' for Inactive)
REMARK    1  A    between atoms: N_1  and  CA_2 
REMARK    2  A    between atoms: CA_2  and  C_3 
REMARK    3  A    between atoms: CA_2  and  CB_5 
REMARK       I    between atoms: C_3  and  N_11 
REMARK    4  A    between atoms: CB_5  and  CG_6 
REMARK    5  A    between atoms: CG_6  and  CD_7 
REMARK    6  A    between atoms: N_11  and  CA_12 
REMARK    7  A    between atoms: CA_12  and  C_13 
REMARK    8  A    between atoms: CA_12  and  CB_15 
REMARK       I    between atoms: C_13  and  N_22 
REMARK    9  A    between atoms: CB_15  and  CG_16 
REMARK       I    between atoms: CG_16  and  ND2_17 
REMARK   10  A    between atoms: N_22  and  CA_23 
REMARK   11  A    between atoms: CA_23  and  C_24 
REMARK   12  A    between atoms: CA_23  and  CB_26 
REMARK       I    between atoms: C_24  and  N_33 
REMARK   13  A    between atoms: CB_26  and  CG_27 
REMARK       I    between atoms: CG_27  and  ND2_28 
REMARK   14  A    between atoms: N_33  and  CA_34 
REMARK   15  A    between atoms: CA_34  and  C_35 
REMARK   16  A    between atoms: CA_34  and  CB_37 
REMARK       I    between atoms: C_35  and  N_43 
REMARK   17  A    between atoms: CB_37  and  CG_38 
REMARK   18  A    between atoms: CG_38  and  CD_39 
REMARK   19  A    between atoms: N_43  and  CA_44 
REMARK   20  A    between atoms: CA_44  and  C_45 
REMARK   21  A    between atoms: CA_44  and  CB_47 
REMARK       I    between atoms: C_45  and  N_51 
REMARK   22  A    between atoms: CB_47  and  OG_48 
REMARK   23  A    between atoms: N_51  and  CA_52 
REMARK   24  A    between atoms: CA_52  and  C_53 
REMARK   25  A    between atoms: CA_52  and  CB_55 
REMARK       I    between atoms: C_53  and  N_60 
REMARK   26  A    between atoms: CB_55  and  CG1_56 
REMARK   27  A    between atoms: N_60  and  CA_61 
REMARK   28  A    between atoms: CA_61  and  C_62 
REMARK   29  A    between atoms: CA_61  and  CB_64 
REMARK       I    between atoms: C_62  and  N_69 
REMARK   30  A    between atoms: CB_64  and  CG_65 
REMARK   31  A    between atoms: N_69  and  CA_70 
REMARK   32  A    between atoms: CA_70  and  C_71 
REMARK   33  A    between atoms: CA_70  and  CB_73 
REMARK       I    between atoms: C_71  and  N_78 
REMARK   34  A    between atoms: CB_73  and  CG_74 
REMARK   35  A    between atoms: N_78  and  CA_79 
REMARK   36  A    between atoms: CA_79  and  C_80 
REMARK   37  A    between atoms: CA_79  and  CB_82 
REMARK       I    between atoms: C_80  and  N_88 
REMARK   38  A    between atoms: CB_82  and  CG_83 
REMARK   39  A    between atoms: CG_83  and  CD_84 
REMARK   40  A    between atoms: N_88  and  CA_89 
REMARK   41  A    between atoms: CA_89  and  C_90 
REMARK   42  A    between atoms: CA_89  and  CB_92 
REMARK       I    between atoms: C_90  and  N_100 
REMARK   43  A    between atoms: CB_92  and  CG_93 
REMARK   44  A    between atoms: N_100  and  CA_101 
REMARK   45  A    between atoms: CA_101  and  C_102 
REMARK   46  A    between atoms: CA_101  and  CB_104 
REMARK       I    between atoms: C_102  and  N_108 
REMARK   47  A    between atoms: N_108  and  CA_109 
REMARK   48  A    between atoms: CA_109  and  C_110 
REMARK   49  A    between atoms: CA_109  and  CB_112 
REMARK       I    between atoms: C_110  and  N_120 
REMARK   50  A    between atoms: CB_112  and  CG_113 
REMARK   51  A    between atoms: CG_113  and  CD_114 
REMARK       I    between atoms: CD_114  and  NE2_115 
REMARK   52  A    between atoms: N_120  and  CA_121 
REMARK   53  A    between atoms: CA_121  and  C_122 
REMARK   54  A    between atoms: CA_121  and  CB_124 
REMARK       I    between atoms: C_122  and  N_137 
REMARK   55  A    between atoms: CB_124  and  CG_125 
REMARK   56  A    between atoms: CG_125  and  CD_126 
REMARK   57  A    between atoms: CD_126  and  NE_127 
REMARK       I    between atoms: NE_127  and  CZ_128 
REMARK       I    between atoms: CZ_128  and  NH1_129 
REMARK       I    between atoms: CZ_128  and  NH2_130 
REMARK   58  A    between atoms: N_137  and  CA_138 
REMARK   59  A    between atoms: CA_138  and  C_139 
REMARK   60  A    between atoms: CA_138  and  CB_141 
REMARK       I    between atoms: C_139  and  N_145 
REMARK   61  A    between atoms: N_145  and  CA_146 
REMARK   62  A    between atoms: CA_146  and  C_147 
REMARK   63  A    between atoms: CA_146  and  CB_149 
REMARK       I    between atoms: C_147  and  N_154 
REMARK   64  A    between atoms: CB_149  and  CG_150 
REMARK   65  A    between atoms: CG_150  and  SD_151 
REMARK   66  A    between atoms: N_154  and  CA_155 
REMARK   67  A    between atoms: CA_155  and  C_156 
REMARK   68  A    between atoms: CA_155  and  CB_158 
REMARK   69  A    between atoms: CB_158  and  CG_159 
REMARK   70  A    between atoms: CG_159  and  CD_160 
REMARK   71  A    between atoms: CD_160  and  NE_161 
REMARK       I    between atoms: NE_161  and  CZ_162 
REMARK       I    between atoms: CZ_162  and  NH1_163 
ROOT
ATOM      1  CA  GLU d   9     485.555 115.796-433.399  0.00  0.00     0.177 C 
ENDROOT
BRANCH   1   2
ATOM      2  N   GLU d   9     484.171 115.395-433.639  0.00  0.00    -0.346 N 
ATOM      3  C   ASP d   8     483.617 115.701-434.763  0.00  0.00     0.241 C 
ATOM      4  O   ASP d   8     484.276 116.328-435.607  0.00  0.00    -0.271 OA
ATOM      5  H   GLU d   9     483.656 114.884-432.936  0.00  0.00     0.163 HD
BRANCH   3   6
ATOM      6  CA  ASP d   8     482.187 115.286-435.011  0.00  0.00     0.186 C 
BRANCH   6   7
ATOM      7  N   ASP d   8     481.977 113.888-434.648  0.00  0.00    -0.346 N 
ATOM      8  C   LEU d   7     482.705 112.980-435.204  0.00  0.00     0.241 C 
ATOM      9  O   LEU d   7     483.563 113.322-436.032  0.00  0.00    -0.271 OA
ATOM     10  H   ASP d   8     481.272 113.635-433.970  0.00  0.00     0.163 HD
BRANCH   8  11
ATOM     11  CA  LEU d   7     482.488 111.534-434.828  0.00  0.00     0.177 C 
BRANCH  11  12
ATOM     12  N   LEU d   7     482.408 111.378-433.378  0.00  0.00    -0.346 N 
ATOM     13  C   ILE d   6     483.393 111.785-432.651  0.00  0.00     0.241 C 
ATOM     14  O   ILE d   6     484.378 112.297-433.204  0.00  0.00    -0.271 OA
ATOM     15  H   LEU d   7     481.595 110.958-432.951  0.00  0.00     0.163 HD
BRANCH  13  16
ATOM     16  CA  ILE d   6     483.312 111.624-431.152  0.00  0.00     0.180 C 
BRANCH  16  17
ATOM     17  N   ILE d   6     482.019 112.077-430.647  0.00  0.00    -0.346 N 
ATOM     18  C   SER d   5     481.641 113.286-430.890  0.00  0.00     0.243 C 
ATOM     19  O   SER d   5     482.382 114.023-431.540  0.00  0.00    -0.271 OA
ATOM     20  H   ILE d   6     481.429 111.452-430.115  0.00  0.00     0.163 HD
BRANCH  18  21
ATOM     21  CA  SER d   5     480.304 113.755-430.367  0.00  0.00     0.200 C 
BRANCH  21  22
ATOM     22  N   SER d   5     479.259 112.775-430.650  0.00  0.00    -0.344 N 
ATOM     23  C   GLU d   4     479.052 112.419-431.873  0.00  0.00     0.241 C 
ATOM     24  O   GLU d   4     479.746 112.918-432.770  0.00  0.00    -0.271 OA
ATOM     25  H   SER d   5     478.707 112.382-429.901  0.00  0.00     0.163 HD
BRANCH  23  26
ATOM     26  CA  GLU d   4     477.972 111.405-432.166  0.00  0.00     0.177 C 
BRANCH  26  27
ATOM     27  N   GLU d   4     478.064 110.265-431.259  0.00  0.00    -0.346 N 
ATOM     28  C   ASN d   3     479.166 109.596-431.204  0.00  0.00     0.241 C 
ATOM     29  O   ASN d   3     480.107 109.938-431.918  0.00  0.00    -0.271 OA
ATOM     30  H   GLU d   4     477.277 110.004-430.682  0.00  0.00     0.163 HD
BRANCH  28  31
ATOM     31  CA  ASN d   3     479.260 108.417-430.265  0.00  0.00     0.185 C 
BRANCH  31  32
ATOM     32  N   ASN d   3     478.746 108.760-428.942  0.00  0.00    -0.346 N 
ATOM     33  C   ASN d   2     479.268 109.755-428.308  0.00  0.00     0.241 C 
ATOM     34  O   ASN d   2     480.183 110.386-428.837  0.00  0.00    -0.271 OA
ATOM     35  H   ASN d   3     477.995 108.227-428.529  0.00  0.00     0.163 HD
BRANCH  33  36
ATOM     36  CA  ASN d   2     478.737 110.111-426.939  0.00  0.00     0.185 C 
BRANCH  36  37
ATOM     37  N   ASN d   2     477.277 110.149-426.939  0.00  0.00    -0.346 N 
ATOM     38  C   GLU d   1     476.673 110.935-427.764  0.00  0.00     0.242 C 
ATOM     39  O   GLU d   1     477.349 111.634-428.533  0.00  0.00    -0.271 OA
ATOM     40  H   ASN d   2     476.749 109.570-426.302  0.00  0.00     0.163 HD
BRANCH  38  41
ATOM     41  CA  GLU d   1     475.164 110.975-427.764  0.00  0.00     0.191 C 
BRANCH  41  42
ATOM     42  N   GLU d   1     474.605 109.626-427.764  0.00  0.00    -0.326 NA
ATOM     43  H   GLU d   1     475.232 108.747-427.764  0.00  0.00     0.180 HD
ENDBRANCH  41  42
BRANCH  41  44
ATOM     44  CB  GLU d   1     474.641 111.760-426.527  0.00  0.00     0.047 C 
BRANCH  44  45
ATOM     45  CG  GLU d   1     475.116 113.245-426.416  0.00  0.00     0.116 C 
BRANCH  45  46
ATOM     46  CD  GLU d   1     474.692 114.049-425.201  0.00  0.00     0.172 C 
ATOM     47  OE1 GLU d   1     473.964 113.547-424.323  0.00  0.00    -0.648 OA
ATOM     48  OE2 GLU d   1     475.122 115.219-425.129  0.00  0.00    -0.648 OA
ENDBRANCH  45  46
ENDBRANCH  44  45
ENDBRANCH  41  44
ENDBRANCH  38  41
ENDBRANCH  36  37
BRANCH  36  49
ATOM     49  CB  ASN d   2     479.229 109.088-425.875  0.00  0.00     0.137 C 
BRANCH  49  50
ATOM     50  CG  ASN d   2     478.766 109.312-424.431  0.00  0.00     0.217 C 
ATOM     51  ND2 ASN d   2     479.360 110.227-423.713  0.00  0.00    -0.370 N 
ATOM     52 21HD ASN d   2     478.880 110.400-422.827  0.00  0.00     0.159 HD
ATOM     53 22HD ASN d   2     480.062 110.798-424.183  0.00  0.00     0.159 HD
ATOM     54  OD1 ASN d   2     477.845 108.678-423.937  0.00  0.00    -0.274 OA
ENDBRANCH  49  50
ENDBRANCH  36  49
ENDBRANCH  33  36
ENDBRANCH  31  32
BRANCH  31  55
ATOM     55  CB  ASN d   3     478.470 107.200-430.828  0.00  0.00     0.137 C 
BRANCH  55  56
ATOM     56  CG  ASN d   3     478.466 105.923-429.980  0.00  0.00     0.217 C 
ATOM     57  ND2 ASN d   3     479.519 105.150-430.000  0.00  0.00    -0.370 N 
ATOM     58 21HD ASN d   3     479.476 104.414-429.290  0.00  0.00     0.159 HD
ATOM     59 22HD ASN d   3     480.324 105.481-430.531  0.00  0.00     0.159 HD
ATOM     60  OD1 ASN d   3     477.520 105.616-429.271  0.00  0.00    -0.274 OA
ENDBRANCH  55  56
ENDBRANCH  31  55
ENDBRANCH  28  31
ENDBRANCH  26  27
BRANCH  26  61
ATOM     61  CB  GLU d   4     476.566 112.060-432.047  0.00  0.00     0.045 C 
BRANCH  61  62
ATOM     62  CG  GLU d   4     476.299 113.270-433.000  0.00  0.00     0.116 C 
BRANCH  62  63
ATOM     63  CD  GLU d   4     474.969 113.993-432.892  0.00  0.00     0.172 C 
ATOM     64  OE1 GLU d   4     474.100 113.618-432.080  0.00  0.00    -0.648 OA
ATOM     65  OE2 GLU d   4     474.807 114.977-433.642  0.00  0.00    -0.648 OA
ENDBRANCH  62  63
ENDBRANCH  61  62
ENDBRANCH  26  61
ENDBRANCH  23  26
ENDBRANCH  21  22
BRANCH  21  66
ATOM     66  CB  SER d   5     480.364 114.074-428.852  0.00  0.00     0.199 C 
BRANCH  66  67
ATOM     67  OG  SER d   5     480.852 112.978-428.071  0.00  0.00    -0.398 OA
ATOM     68  HG  SER d   5     480.229 112.254-428.171  0.00  0.00     0.209 HD
ENDBRANCH  66  67
ENDBRANCH  21  66
ENDBRANCH  18  21
ENDBRANCH  16  17
BRANCH  16  69
ATOM     69  CB  ILE d   6     483.618 110.138-430.702  0.00  0.00     0.013 C 
ATOM     70  CG2 ILE d   6     485.031 109.649-431.149  0.00  0.00     0.012 C 
BRANCH  69  71
ATOM     71  CG1 ILE d   6     483.478 109.880-429.168  0.00  0.00     0.002 C 
ATOM     72  CD1 ILE d   6     483.451 108.399-428.734  0.00  0.00     0.005 C 
ENDBRANCH  69  71
ENDBRANCH  16  69
ENDBRANCH  13  16
ENDBRANCH  11  12
BRANCH  11  73
ATOM     73  CB  LEU d   7     481.208 110.970-435.509  0.00  0.00     0.038 C 
BRANCH  73  74
ATOM     74  CG  LEU d   7     480.844 109.481-435.259  0.00  0.00    -0.020 C 
ATOM     75  CD1 LEU d   7     479.621 109.088-436.100  0.00  0.00     0.009 C 
ATOM     76  CD2 LEU d   7     482.010 108.525-435.562  0.00  0.00     0.009 C 
ENDBRANCH  73  74
ENDBRANCH  11  73
ENDBRANCH   8  11
ENDBRANCH   6   7
BRANCH   6  77
ATOM     77  CB  ASP d   8     481.200 116.206-434.240  0.00  0.00     0.147 C 
BRANCH  77  78
ATOM     78  CG  ASP d   8     481.275 117.699-434.592  0.00  0.00     0.175 C 
ATOM     79  OD1 ASP d   8     481.489 118.034-435.775  0.00  0.00    -0.648 OA
ATOM     80  OD2 ASP d   8     481.164 118.535-433.671  0.00  0.00    -0.648 OA
ENDBRANCH  77  78
ENDBRANCH   6  77
ENDBRANCH   3   6
ENDBRANCH   1   2
BRANCH   1  81
ATOM     81  C   GLU d   9     486.469 115.250-434.468  0.00  0.00     0.241 C 
ATOM     82  O   GLU d   9     487.317 115.958-435.032  0.00  0.00    -0.271 OA
ATOM     83  N   HIS d  10     486.366 114.010-434.806  0.00  0.00    -0.346 N 
ATOM     84  H   HIS d  10     485.684 113.413-434.362  0.00  0.00     0.163 HD
BRANCH  83  85
ATOM     85  CA  HIS d  10     487.251 113.481-435.841  0.00  0.00     0.182 C 
BRANCH  85  86
ATOM     86  C   HIS d  10     487.115 114.266-437.123  0.00  0.00     0.241 C 
ATOM     87  O   HIS d  10     488.103 114.663-437.759  0.00  0.00    -0.271 OA
ATOM     88  N   VAL d  11     485.935 114.532-437.571  0.00  0.00    -0.346 N 
ATOM     89  H   VAL d  11     485.114 114.220-437.072  0.00  0.00     0.163 HD
BRANCH  88  90
ATOM     90  CA  VAL d  11     485.803 115.291-438.812  0.00  0.00     0.180 C 
BRANCH  90  91
ATOM     91  C   VAL d  11     486.511 116.620-438.710  0.00  0.00     0.241 C 
ATOM     92  O   VAL d  11     487.265 117.033-439.601  0.00  0.00    -0.271 OA
ATOM     93  N   GLN d  12     486.325 117.349-437.661  0.00  0.00    -0.346 N 
ATOM     94  H   GLN d  12     485.715 117.035-436.921  0.00  0.00     0.163 HD
BRANCH  93  95
ATOM     95  CA  GLN d  12     487.010 118.634-437.562  0.00  0.00     0.177 C 
BRANCH  95  96
ATOM     96  C   GLN d  12     488.505 118.463-437.680  0.00  0.00     0.241 C 
ATOM     97  O   GLN d  12     489.186 119.176-438.414  0.00  0.00    -0.271 OA
ATOM     98  N   ARG d  13     489.086 117.540-436.990  0.00  0.00    -0.346 N 
ATOM     99  H   ARG d  13     488.548 116.941-436.380  0.00  0.00     0.163 HD
BRANCH  98 100
ATOM    100  CA  ARG d  13     490.532 117.375-437.105  0.00  0.00     0.176 C 
BRANCH 100 101
ATOM    101  C   ARG d  13     490.936 117.130-438.540  0.00  0.00     0.241 C 
ATOM    102  O   ARG d  13     491.868 117.733-439.066  0.00  0.00    -0.271 OA
ATOM    103  N   VAL d  14     490.282 116.261-439.233  0.00  0.00    -0.346 N 
ATOM    104  H   VAL d  14     489.512 115.752-438.823  0.00  0.00     0.163 HD
BRANCH 103 105
ATOM    105  CA  VAL d  14     490.672 116.023-440.620  0.00  0.00     0.180 C 
BRANCH 105 106
ATOM    106  C   VAL d  14     490.628 117.303-441.421  0.00  0.00     0.241 C 
ATOM    107  O   VAL d  14     491.553 117.642-442.169  0.00  0.00    -0.271 OA
ATOM    108  N   MET d  15     489.593 118.067-441.321  0.00  0.00    -0.346 N 
ATOM    109  H   MET d  15     488.825 117.813-440.717  0.00  0.00     0.163 HD
BRANCH 108 110
ATOM    110  CA  MET d  15     489.549 119.305-442.094  0.00  0.00     0.177 C 
BRANCH 110 111
ATOM    111  C   MET d  15     490.736 120.183-441.780  0.00  0.00     0.241 C 
ATOM    112  O   MET d  15     491.412 120.717-442.673  0.00  0.00    -0.271 OA
ATOM    113  N   ARG d  16     491.058 120.383-440.547  0.00  0.00    -0.347 N 
ATOM    114  H   ARG d  16     490.523 119.959-439.802  0.00  0.00     0.163 HD
BRANCH 113 115
ATOM    115  CA  ARG d  16     492.206 121.232-440.244  0.00  0.00     0.162 C 
BRANCH 115 116
ATOM    116  C   ARG d  16     493.455 120.711-440.915  0.00  0.00     0.219 C 
ATOM    117  O   ARG d  16     493.442 119.712-441.630  0.00  0.00    -0.287 OA
ENDBRANCH 115 116
BRANCH 115 118
ATOM    118  CB  ARG d  16     492.381 121.308-438.701  0.00  0.00     0.035 C 
BRANCH 118 119
ATOM    119  CG  ARG d  16     493.381 122.384-438.192  0.00  0.00     0.023 C 
BRANCH 119 120
ATOM    120  CD  ARG d  16     493.519 122.366-436.661  0.00  0.00     0.138 C 
BRANCH 120 121
ATOM    121  NE  ARG d  16     494.473 123.431-436.231  0.00  0.00    -0.227 N 
ATOM    122  CZ  ARG d  16     494.826 123.685-434.975  0.00  0.00     0.665 C 
ATOM    123  NH1 ARG d  16     494.376 123.018-433.949  0.00  0.00    -0.235 N 
ATOM    124  NH2 ARG d  16     495.662 124.650-434.754  0.00  0.00    -0.235 N 
ATOM    125 11HH ARG d  16     493.722 122.270-434.193  0.00  0.00     0.174 HD
ATOM    126 12HH ARG d  16     494.695 123.276-433.014  0.00  0.00     0.174 HD
ATOM    127 21HH ARG d  16     496.005 125.161-435.569  0.00  0.00     0.174 HD
ATOM    128 22HH ARG d  16     495.919 124.831-433.782  0.00  0.00     0.174 HD
ATOM    129  HE  ARG d  16     494.920 124.047-436.917  0.00  0.00     0.177 HD
ENDBRANCH 120 121
ENDBRANCH 119 120
ENDBRANCH 118 119
ENDBRANCH 115 118
ENDBRANCH 113 115
ENDBRANCH 110 111
BRANCH 110 130
ATOM    130  CB  MET d  15     488.217 120.053-441.816  0.00  0.00     0.045 C 
BRANCH 130 131
ATOM    131  CG  MET d  15     486.927 119.311-442.228  0.00  0.00     0.076 C 
BRANCH 131 132
ATOM    132  SD  MET d  15     485.518 120.424-442.109  0.00  0.00    -0.173 SA
ATOM    133  CE  MET d  15     484.204 119.205-442.251  0.00  0.00     0.089 C 
ENDBRANCH 131 132
ENDBRANCH 130 131
ENDBRANCH 110 130
ENDBRANCH 108 110
ENDBRANCH 105 106
BRANCH 105 134
ATOM    134  CB  VAL d  14     489.731 114.927-441.261  0.00  0.00     0.009 C 
ATOM    135  CG1 VAL d  14     489.891 114.689-442.788  0.00  0.00     0.012 C 
ATOM    136  CG2 VAL d  14     489.869 113.528-440.614  0.00  0.00     0.012 C 
ENDBRANCH 105 134
ENDBRANCH 103 105
ENDBRANCH 100 101
BRANCH 100 137
ATOM    137  CB  ARG d  13     490.978 116.205-436.183  0.00  0.00     0.036 C 
BRANCH 137 138
ATOM    138  CG  ARG d  13     492.511 116.068-435.970  0.00  0.00     0.023 C 
BRANCH 138 139
ATOM    139  CD  ARG d  13     492.866 114.867-435.076  0.00  0.00     0.138 C 
BRANCH 139 140
ATOM    140  NE  ARG d  13     494.345 114.799-434.891  0.00  0.00    -0.227 N 
ATOM    141  CZ  ARG d  13     494.989 113.878-434.180  0.00  0.00     0.665 C 
ATOM    142  NH1 ARG d  13     494.393 112.903-433.553  0.00  0.00    -0.235 N 
ATOM    143  NH2 ARG d  13     496.280 113.951-434.104  0.00  0.00    -0.235 N 
ATOM    144 11HH ARG d  13     493.375 112.901-433.655  0.00  0.00     0.174 HD
ATOM    145 12HH ARG d  13     494.959 112.235-433.027  0.00  0.00     0.174 HD
ATOM    146 21HH ARG d  13     496.730 114.721-434.602  0.00  0.00     0.174 HD
ATOM    147 22HH ARG d  13     496.756 113.235-433.552  0.00  0.00     0.174 HD
ATOM    148  HE  ARG d  13     494.963 115.493-435.322  0.00  0.00     0.177 HD
ENDBRANCH 139 140
ENDBRANCH 138 139
ENDBRANCH 137 138
ENDBRANCH 100 137
ENDBRANCH  98 100
ENDBRANCH  95  96
BRANCH  95 149
ATOM    149  CB  GLN d  12     486.632 119.294-436.217  0.00  0.00     0.044 C 
BRANCH 149 150
ATOM    150  CG  GLN d  12     487.238 120.710-435.948  0.00  0.00     0.105 C 
BRANCH 150 151
ATOM    151  CD  GLN d  12     486.957 121.401-434.608  0.00  0.00     0.215 C 
ATOM    152  NE2 GLN d  12     486.206 120.812-433.713  0.00  0.00    -0.370 N 
ATOM    153 21HE GLN d  12     486.122 121.309-432.824  0.00  0.00     0.159 HD
ATOM    154 22HE GLN d  12     485.887 119.875-433.966  0.00  0.00     0.159 HD
ATOM    155  OE1 GLN d  12     487.445 122.490-434.345  0.00  0.00    -0.274 OA
ENDBRANCH 150 151
ENDBRANCH 149 150
ENDBRANCH  95 149
ENDBRANCH  93  95
ENDBRANCH  90  91
BRANCH  90 156
ATOM    156  CB  VAL d  11     484.274 115.494-439.156  0.00  0.00     0.009 C 
ATOM    157  CG1 VAL d  11     483.955 116.440-440.346  0.00  0.00     0.012 C 
ATOM    158  CG2 VAL d  11     483.522 114.178-439.469  0.00  0.00     0.012 C 
ENDBRANCH  90 156
ENDBRANCH  88  90
ENDBRANCH  85  86
BRANCH  85 159
ATOM    159  CB  HIS d  10     486.833 112.018-436.061  0.00  0.00     0.095 C 
BRANCH 159 160
ATOM    160  CG  HIS d  10     487.946 111.056-435.762  0.00  0.00     0.053 A 
ATOM    161  CD2 HIS d  10     488.140 110.500-434.505  0.00  0.00     0.116 A 
ATOM    162  NE2 HIS d  10     489.232 109.674-434.571  0.00  0.00    -0.359 N 
ATOM    163  CE1 HIS d  10     489.618 109.796-435.870  0.00  0.00     0.207 A 
ATOM    164  2HE HIS d  10     489.651 109.108-433.819  0.00  0.00     0.166 HD
ATOM    165  ND1 HIS d  10     488.901 110.606-436.671  0.00  0.00    -0.247 NA
ENDBRANCH 159 160
ENDBRANCH  85 159
ENDBRANCH  83  85
ENDBRANCH   1  81
BRANCH   1 166
ATOM    166  CB  GLU d   9     486.007 115.305-431.994  0.00  0.00     0.045 C 
BRANCH 166 167
ATOM    167  CG  GLU d   9     487.458 115.704-431.571  0.00  0.00     0.116 C 
BRANCH 167 168
ATOM    168  CD  GLU d   9     487.984 115.205-430.238  0.00  0.00     0.172 C 
ATOM    169  OE1 GLU d   9     487.271 114.513-429.487  0.00  0.00    -0.648 OA
ATOM    170  OE2 GLU d   9     489.160 115.513-429.953  0.00  0.00    -0.648 OA
ENDBRANCH 167 168
ENDBRANCH 166 167
ENDBRANCH   1 166
TORSDOF 71
