@<TRIPOS>MOLECULE
14-6
268 269 16              
SMALL
USER_CHARGES
@<TRIPOS>ATOM
1	   N	2208.956	674.169	-2292.884	N.3	1	GLU1	-0.516	
2	  CA	2209.515	675.518	-2292.884	C.3	1	GLU1	0.040	
3	   C	2211.024	675.478	-2292.884	C.2	1	GLU1	0.537	
4	   O	2211.700	676.177	-2293.653	O.2	1	GLU1	-0.582	
5	  CB	2208.992	676.303	-2291.647	C.3	1	GLU1	0.056	
6	  CG	2209.467	677.788	-2291.536	C.3	1	GLU1	0.014	
7	  CD	2209.043	678.592	-2290.321	C.2	1	GLU1	0.805	
8	 OE1	2208.315	678.090	-2289.443	O.co2	1	GLU1	-0.819	
9	 OE2	2209.473	679.762	-2290.249	O.co2	1	GLU1	-0.819	
10	   H	2209.583	673.290	-2292.884	 H	1	GLU1	0.294	
11	  HA	2209.189	676.036	-2293.804	 H	1	GLU1	0.111	
12	 2HB	2209.281	675.772	-2290.717	 H	1	GLU1	-0.017	
13	 3HB	2207.885	676.293	-2291.634	 H	1	GLU1	-0.017	
14	 2HG	2209.157	678.373	-2292.417	 H	1	GLU1	-0.043	
15	 3HG	2210.567	677.855	-2291.507	 H	1	GLU1	-0.043	
16	   N	2211.629	674.693	-2292.059	N.am	2	ASN2	-0.416	
17	  CA	2213.088	674.654	-2292.059	C.3	2	ASN2	0.014	
18	   C	2213.619	674.298	-2293.427	C.2	2	ASN2	0.597	
19	   O	2214.534	674.928	-2293.956	O.2	2	ASN2	-0.568	
20	  CB	2213.580	673.631	-2290.994	C.3	2	ASN2	-0.204	
21	  CG	2213.116	673.854	-2289.551	C.2	2	ASN2	0.713	
22	 ND2	2213.710	674.769	-2288.833	N.pl3	2	ASN2	-0.919	
23	 OD1	2212.195	673.221	-2289.057	O.2	2	ASN2	-0.593	
24	   H	2211.100	674.113	-2291.423	 H	2	ASN2	0.272	
25	  HA	2213.466	675.663	-2291.813	 H	2	ASN2	0.105	
26	 2HB	2214.684	673.572	-2290.998	 H	2	ASN2	0.080	
27	 3HB	2213.250	672.612	-2291.280	 H	2	ASN2	0.080	
28	1HD2	2213.229	674.943	-2287.947	 H	2	ASN2	0.420	
29	2HD2	2214.412	675.341	-2289.302	 H	2	ASN2	0.420	
30	   N	2213.098	673.303	-2294.062	N.am	3	PRO3	-0.255	
31	  CA	2213.550	672.894	-2295.383	C.3	3	PRO3	-0.027	
32	   C	2213.152	673.917	-2296.460	C.2	3	PRO3	0.590	
33	   O	2213.976	674.300	-2297.292	O.2	3	PRO3	-0.575	
34	  CB	2212.846	671.539	-2295.553	C.3	3	PRO3	-0.007	
35	  CG	2211.562	671.692	-2294.723	C.3	3	PRO3	0.019	
36	  CD	2212.020	672.510	-2293.513	C.3	3	PRO3	0.019	
37	  HA	2214.636	672.774	-2295.396	 H	3	PRO3	0.064	
38	 2HB	2213.469	670.758	-2295.112	 H	3	PRO3	0.025	
39	 3HB	2212.648	671.291	-2296.598	 H	3	PRO3	0.025	
40	 2HG	2211.134	670.730	-2294.432	 H	3	PRO3	0.021	
41	 3HG	2210.825	672.263	-2295.291	 H	3	PRO3	0.021	
42	 2HD	2212.408	671.860	-2292.726	 H	3	PRO3	0.039	
43	 3HD	2211.223	673.146	-2293.120	 H	3	PRO3	0.039	
44	   N	2211.948	674.378	-2296.493	N.am	4	GLU4	-0.516	
45	  CA	2211.588	675.349	-2297.523	C.3	4	GLU4	0.040	
46	   C	2212.488	676.559	-2297.461	C.2	4	GLU4	0.537	
47	   O	2213.014	677.039	-2298.475	O.2	4	GLU4	-0.582	
48	  CB	2210.100	675.768	-2297.353	C.3	4	GLU4	0.056	
49	  CG	2209.552	676.772	-2298.419	C.3	4	GLU4	0.014	
50	  CD	2208.126	677.269	-2298.276	C.2	4	GLU4	0.805	
51	 OE1	2207.399	676.870	-2297.345	O.co2	4	GLU4	-0.819	
52	 OE2	2207.737	678.098	-2299.124	O.co2	4	GLU4	-0.819	
53	   H	2211.263	674.071	-2295.816	 H	4	GLU4	0.294	
54	  HA	2211.720	674.878	-2298.514	 H	4	GLU4	0.111	
55	 2HB	2209.947	676.207	-2296.346	 H	4	GLU4	-0.017	
56	 3HB	2209.452	674.870	-2297.359	 H	4	GLU4	-0.017	
57	 2HG	2209.634	676.357	-2299.437	 H	4	GLU4	-0.043	
58	 3HG	2210.141	677.704	-2298.430	 H	4	GLU4	-0.043	
59	   N	2212.715	677.112	-2296.318	N.am	5	SER5	-0.416	
60	  CA	2213.584	678.283	-2296.259	C.3	5	SER5	-0.025	
61	   C	2214.943	677.977	-2296.844	C.2	5	SER5	0.597	
62	   O	2215.491	678.730	-2297.649	O.2	5	SER5	-0.568	
63	  CB	2213.696	678.815	-2294.809	C.3	5	SER5	0.212	
64	  OG	2214.427	677.936	-2293.948	O.3	5	SER5	-0.655	
65	   H	2212.297	676.741	-2295.477	 H	5	SER5	0.272	
66	  HA	2213.135	679.074	-2296.888	 H	5	SER5	0.084	
67	 2HB	2212.696	679.009	-2294.375	 H	5	SER5	0.035	
68	 3HB	2214.201	679.801	-2294.811	 H	5	SER5	0.035	
69	  HG	2213.938	677.111	-2293.897	 H	5	SER5	0.428	
70	   N	2215.548	676.894	-2296.490	N.am	6	ILE6	-0.416	
71	  CA	2216.861	676.598	-2297.056	C.3	6	ILE6	-0.060	
72	   C	2216.804	676.561	-2298.564	C.2	6	ILE6	0.597	
73	   O	2217.638	677.148	-2299.268	O.2	6	ILE6	-0.568	
74	  CB	2217.460	675.262	-2296.456	C.3	6	ILE6	0.130	
75	 CG1	2217.479	675.200	-2294.895	C.3	6	ILE6	-0.043	
76	 CG2	2218.901	674.960	-2296.971	C.3	6	ILE6	-0.320	
77	 CD1	2217.748	673.810	-2294.280	C.3	6	ILE6	-0.066	
78	   H	2215.119	676.260	-2295.831	 H	6	ILE6	0.272	
79	  HA	2217.535	677.432	-2296.788	 H	6	ILE6	0.087	
80	  HB	2216.802	674.436	-2296.800	 H	6	ILE6	0.019	
81	2HG1	2216.497	675.520	-2294.499	 H	6	ILE6	0.024	
82	3HG1	2218.195	675.942	-2294.490	 H	6	ILE6	0.024	
83	1HG2	2218.960	674.866	-2298.069	 H	6	ILE6	0.088	
84	2HG2	2219.624	675.742	-2296.668	 H	6	ILE6	0.088	
85	3HG2	2219.291	673.997	-2296.592	 H	6	ILE6	0.088	
86	1HD1	2217.020	673.057	-2294.635	 H	6	ILE6	0.019	
87	2HD1	2218.759	673.431	-2294.515	 H	6	ILE6	0.019	
88	3HD1	2217.672	673.841	-2293.177	 H	6	ILE6	0.019	
89	   N	2215.858	675.898	-2299.137	N.am	7	LEU7	-0.416	
90	  CA	2215.803	675.861	-2300.596	C.3	7	LEU7	-0.052	
91	   C	2215.731	677.257	-2301.169	C.2	7	LEU7	0.597	
92	   O	2216.452	677.618	-2302.111	O.2	7	LEU7	-0.568	
93	  CB	2214.599	675.002	-2301.076	C.3	7	LEU7	-0.110	
94	  CG	2214.526	673.522	-2300.610	C.3	7	LEU7	0.353	
95	 CD1	2213.336	672.817	-2301.275	C.3	7	LEU7	-0.412	
96	 CD2	2215.820	672.742	-2300.901	C.3	7	LEU7	-0.412	
97	   H	2215.166	675.411	-2298.586	 H	7	LEU7	0.272	
98	  HA	2216.744	675.421	-2300.970	 H	7	LEU7	0.092	
99	 2HB	2214.576	675.017	-2302.184	 H	7	LEU7	0.046	
100	 3HB	2213.660	675.504	-2300.772	 H	7	LEU7	0.046	
101	  HG	2214.356	673.514	-2299.512	 H	7	LEU7	-0.036	
102	1HD1	2212.379	673.326	-2301.052	 H	7	LEU7	0.100	
103	2HD1	2213.435	672.776	-2302.376	 H	7	LEU7	0.100	
104	3HD1	2213.229	671.776	-2300.919	 H	7	LEU7	0.100	
105	1HD2	2216.095	672.773	-2301.971	 H	7	LEU7	0.100	
106	2HD2	2216.673	673.154	-2300.330	 H	7	LEU7	0.100	
107	3HD2	2215.738	671.680	-2300.605	 H	7	LEU7	0.100	
108	   N	2214.894	678.098	-2300.663	N.am	8	ASP8	-0.516	
109	  CA	2214.824	679.447	-2301.217	C.3	8	ASP8	0.038	
110	   C	2216.171	680.126	-2301.160	C.2	8	ASP8	0.537	
111	   O	2216.644	680.730	-2302.135	O.2	8	ASP8	-0.582	
112	  CB	2213.746	680.287	-2300.476	C.3	8	ASP8	-0.030	
113	  CG	2213.528	681.708	-2301.017	C.2	8	ASP8	0.799	
114	 OD1	2213.593	681.906	-2302.248	O.co2	8	ASP8	-0.801	
115	 OD2	2213.337	682.634	-2300.202	O.co2	8	ASP8	-0.801	
116	   H	2214.296	677.828	-2299.895	 H	8	ASP8	0.294	
117	  HA	2214.541	679.369	-2302.284	 H	8	ASP8	0.088	
118	 2HB	2214.004	680.371	-2299.404	 H	8	ASP8	-0.012	
119	 3HB	2212.767	679.782	-2300.509	 H	8	ASP8	-0.012	
120	   N	2216.851	680.077	-2300.065	N.am	9	GLU9	-0.516	
121	  CA	2218.154	680.734	-2300.010	C.3	9	GLU9	0.040	
122	   C	2219.072	680.205	-2301.086	C.2	9	GLU9	0.537	
123	   O	2219.736	680.959	-2301.812	O.2	9	GLU9	-0.582	
124	  CB	2218.788	680.526	-2298.605	C.3	9	GLU9	0.056	
125	  CG	2220.171	681.218	-2298.376	C.3	9	GLU9	0.014	
126	  CD	2220.873	681.005	-2297.048	C.2	9	GLU9	0.805	
127	 OE1	2220.351	680.315	-2296.151	O.co2	9	GLU9	-0.819	
128	 OE2	2221.992	681.543	-2296.917	O.co2	9	GLU9	-0.819	
129	   H	2216.488	679.591	-2299.258	 H	9	GLU9	0.294	
130	  HA	2218.012	681.815	-2300.186	 H	9	GLU9	0.111	
131	 2HB	2218.900	679.442	-2298.401	 H	9	GLU9	-0.017	
132	 3HB	2218.091	680.880	-2297.821	 H	9	GLU9	-0.017	
133	 2HG	2220.099	682.309	-2298.516	 H	9	GLU9	-0.043	
134	 3HG	2220.917	680.872	-2299.110	 H	9	GLU9	-0.043	
135	   N	2219.168	678.930	-2301.255	N.am	10	HIS10	-0.416	
136	  CA	2220.055	678.417	-2302.295	C.3	10	HIS10	-0.058	
137	   C	2219.688	678.982	-2303.647	C.2	10	HIS10	0.597	
138	   O	2220.541	679.445	-2304.419	O.2	10	HIS10	-0.568	
139	  CB	2219.890	676.889	-2302.290	C.3	10	HIS10	-0.007	
140	  CG	2221.176	676.178	-2301.982	C.2	10	HIS10	0.187	
141	 CD2	2221.557	675.843	-2300.689	C.2	10	HIS10	-0.221	
142	 ND1	2222.127	675.771	-2302.914	N.2	10	HIS10	-0.543	
143	 CE1	2223.034	675.213	-2302.091	C.2	10	HIS10	0.163	
144	 NE2	2222.771	675.211	-2300.756	N.pl3	10	HIS10	-0.280	
145	   H	2218.637	678.295	-2300.676	 H	10	HIS10	0.272	
146	  HA	2221.074	678.775	-2302.071	 H	10	HIS10	0.136	
147	 2HB	2219.524	676.521	-2303.269	 H	10	HIS10	0.037	
148	 3HB	2219.135	676.552	-2301.549	 H	10	HIS10	0.037	
149	 2HD	2220.972	676.059	-2299.800	 H	10	HIS10	0.186	
150	 1HE	2223.924	674.791	-2302.538	 H	10	HIS10	0.144	
151	 2HE	2223.338	674.834	-2299.983	 H	10	HIS10	0.334	
152	   N	2218.450	678.981	-2304.010	N.am	11	VAL11	-0.416	
153	  CA	2218.095	679.527	-2305.317	C.3	11	VAL11	-0.087	
154	   C	2218.560	680.957	-2305.450	C.2	11	VAL11	0.597	
155	   O	2219.161	681.361	-2306.453	O.2	11	VAL11	-0.568	
156	  CB	2216.534	679.421	-2305.536	C.3	11	VAL11	0.299	
157	 CG1	2215.965	680.124	-2306.799	C.3	11	VAL11	-0.319	
158	 CG2	2216.009	677.967	-2305.608	C.3	11	VAL11	-0.319	
159	   H	2217.737	678.609	-2303.399	 H	11	VAL11	0.272	
160	  HA	2218.614	678.943	-2306.099	 H	11	VAL11	0.097	
161	  HB	2216.047	679.902	-2304.661	 H	11	VAL11	-0.030	
162	1HG1	2216.404	679.732	-2307.736	 H	11	VAL11	0.079	
163	2HG1	2214.866	680.017	-2306.881	 H	11	VAL11	0.079	
164	3HG1	2216.144	681.216	-2306.790	 H	11	VAL11	0.079	
165	1HG2	2216.298	677.380	-2304.717	 H	11	VAL11	0.079	
166	2HG2	2214.903	677.930	-2305.650	 H	11	VAL11	0.079	
167	3HG2	2216.390	677.425	-2306.494	 H	11	VAL11	0.079	
168	   N	2218.324	681.783	-2304.488	N.am	12	GLN12	-0.416	
169	  CA	2218.773	683.166	-2304.616	C.3	12	GLN12	-0.003	
170	   C	2220.263	683.232	-2304.854	C.2	12	GLN12	0.597	
171	   O	2220.750	683.940	-2305.733	O.2	12	GLN12	-0.568	
172	  CB	2218.383	683.934	-2303.333	C.3	12	GLN12	-0.004	
173	  CG	2218.744	685.456	-2303.303	C.3	12	GLN12	-0.064	
174	  CD	2218.443	686.270	-2302.039	C.2	12	GLN12	0.695	
175	 NE2	2217.875	685.695	-2301.010	N.pl3	12	GLN12	-0.941	
176	 OE1	2218.745	687.451	-2301.962	O.2	12	GLN12	-0.609	
177	   H	2217.835	681.478	-2303.658	 H	12	GLN12	0.272	
178	  HA	2218.274	683.622	-2305.491	 H	12	GLN12	0.085	
179	 2HB	2218.859	683.434	-2302.464	 H	12	GLN12	0.017	
180	 3HB	2217.293	683.828	-2303.170	 H	12	GLN12	0.017	
181	 2HG	2218.267	685.977	-2304.154	 H	12	GLN12	0.035	
182	 3HG	2219.828	685.597	-2303.469	 H	12	GLN12	0.035	
183	1HE2	2217.769	686.289	-2300.186	 H	12	GLN12	0.425	
184	2HE2	2217.711	684.691	-2301.112	 H	12	GLN12	0.425	
185	   N	2221.048	682.526	-2304.113	N.am	13	ARG13	-0.348	
186	  CA	2222.488	682.591	-2304.344	C.3	13	ARG13	-0.264	
187	   C	2222.823	682.218	-2305.769	C.2	13	ARG13	0.734	
188	   O	2223.592	682.889	-2306.454	O.2	13	ARG13	-0.589	
189	  CB	2223.201	681.652	-2303.330	C.3	13	ARG13	-0.001	
190	  CG	2224.746	681.805	-2303.249	C.3	13	ARG13	0.039	
191	  CD	2225.373	680.818	-2302.251	C.3	13	ARG13	0.049	
192	  NE	2226.850	681.025	-2302.201	N.pl3	13	ARG13	-0.530	
193	  CZ	2227.698	680.333	-2301.446	C.cat	13	ARG13	0.808	
194	 NH1	2227.333	679.370	-2300.647	N.pl3	13	ARG13	-0.863	
195	 NH2	2228.958	680.632	-2301.503	N.pl3	13	ARG13	-0.863	
196	   H	2220.671	681.936	-2303.384	 H	13	ARG13	0.275	
197	  HA	2222.812	683.637	-2304.187	 H	13	ARG13	0.156	
198	 2HB	2222.935	680.602	-2303.568	 H	13	ARG13	0.033	
199	 3HB	2222.776	681.820	-2302.319	 H	13	ARG13	0.033	
200	 2HG	2224.995	682.850	-2302.971	 H	13	ARG13	0.029	
201	 3HG	2225.197	681.648	-2304.251	 H	13	ARG13	0.029	
202	 2HD	2225.128	679.778	-2302.559	 H	13	ARG13	0.069	
203	 3HD	2224.917	680.964	-2301.248	 H	13	ARG13	0.069	
204	  HE	2227.302	681.746	-2302.772	 H	13	ARG13	0.346	
205	1HH1	2226.328	679.184	-2300.650	 H	13	ARG13	0.448	
206	2HH1	2228.047	678.887	-2300.098	 H	13	ARG13	0.448	
207	1HH2	2229.226	681.389	-2302.135	 H	13	ARG13	0.448	
208	2HH2	2229.594	680.091	-2300.914	 H	13	ARG13	0.448	
209	   N	2222.287	681.164	-2306.283	N.am	14	ILE14	-0.416	
210	  CA	2222.612	680.804	-2307.660	C.3	14	ILE14	-0.060	
211	   C	2222.282	681.933	-2308.606	C.2	14	ILE14	0.597	
212	   O	2223.078	682.314	-2309.477	O.2	14	ILE14	-0.568	
213	  CB	2221.904	679.453	-2308.085	C.3	14	ILE14	0.130	
214	 CG1	2222.140	678.258	-2307.108	C.3	14	ILE14	-0.043	
215	 CG2	2222.298	678.990	-2309.522	C.3	14	ILE14	-0.320	
216	 CD1	2221.221	677.034	-2307.306	C.3	14	ILE14	-0.066	
217	   H	2221.652	680.595	-2305.740	 H	14	ILE14	0.272	
218	  HA	2223.706	680.656	-2307.717	 H	14	ILE14	0.087	
219	  HB	2220.812	679.654	-2308.086	 H	14	ILE14	0.019	
220	2HG1	2221.975	678.593	-2306.066	 H	14	ILE14	0.024	
221	3HG1	2223.202	677.945	-2307.133	 H	14	ILE14	0.024	
222	1HG2	2222.053	679.733	-2310.301	 H	14	ILE14	0.088	
223	2HG2	2223.379	678.769	-2309.606	 H	14	ILE14	0.088	
224	3HG2	2221.757	678.078	-2309.833	 H	14	ILE14	0.088	
225	1HD1	2220.151	677.310	-2307.244	 H	14	ILE14	0.019	
226	2HD1	2221.379	676.540	-2308.281	 H	14	ILE14	0.019	
227	3HD1	2221.403	676.268	-2306.531	 H	14	ILE14	0.019	
228	   N	2221.137	682.519	-2308.505	N.am	15	MET15	-0.416	
229	  CA	2220.818	683.612	-2309.419	C.3	15	MET15	-0.024	
230	   C	2221.849	684.711	-2309.331	C.2	15	MET15	0.597	
231	   O	2222.352	685.221	-2310.344	O.2	15	MET15	-0.568	
232	  CB	2219.397	684.158	-2309.111	C.3	15	MET15	0.034	
233	  CG	2218.234	683.161	-2309.302	C.3	15	MET15	0.002	
234	  SD	2216.661	684.028	-2309.189	S.3	15	MET15	-0.274	
235	  CE	2215.579	682.599	-2309.052	C.3	15	MET15	-0.054	
236	   H	2220.472	682.227	-2307.803	 H	15	MET15	0.272	
237	  HA	2220.844	683.224	-2310.454	 H	15	MET15	0.088	
238	 2HB	2219.195	685.037	-2309.753	 H	15	MET15	0.024	
239	 3HB	2219.361	684.551	-2308.074	 H	15	MET15	0.024	
240	 2HG	2218.277	682.375	-2308.525	 H	15	MET15	0.044	
241	 3HG	2218.297	682.645	-2310.279	 H	15	MET15	0.044	
242	 1HE	2215.723	681.910	-2309.905	 H	15	MET15	0.068	
243	 2HE	2215.788	682.046	-2308.119	 H	15	MET15	0.068	
244	 3HE	2214.521	682.914	-2309.036	 H	15	MET15	0.068	
245	   N	2222.217	685.133	-2308.169	N.am	16	ARG16	-0.348	
246	  CA	2223.214	686.196	-2308.086	C.3	16	ARG16	-0.264	
247	   C	2224.485	685.803	-2308.801	C.2	16	ARG16	0.734	
248	   O	2224.598	684.726	-2309.382	O.2	16	ARG16	-0.589	
249	  CB	2223.483	686.515	-2306.587	C.3	16	ARG16	-0.001	
250	  CG	2224.308	687.804	-2306.315	C.3	16	ARG16	0.039	
251	  CD	2224.558	688.024	-2304.813	C.3	16	ARG16	0.049	
252	  NE	2225.334	689.283	-2304.613	N.pl3	16	ARG16	-0.530	
253	  CZ	2225.725	689.765	-2303.437	C.cat	16	ARG16	0.808	
254	 NH1	2225.477	689.182	-2302.299	N.pl3	16	ARG16	-0.863	
255	 NH2	2226.390	690.878	-2303.419	N.pl3	16	ARG16	-0.863	
256	   H	2221.822	684.734	-2307.330	 H	16	ARG16	0.275	
257	  HA	2222.806	687.089	-2308.596	 H	16	ARG16	0.156	
258	 2HB	2223.979	685.639	-2306.120	 H	16	ARG16	0.033	
259	 3HB	2222.514	686.597	-2306.054	 H	16	ARG16	0.033	
260	 2HG	2223.779	688.675	-2306.752	 H	16	ARG16	0.029	
261	 3HG	2225.282	687.750	-2306.843	 H	16	ARG16	0.029	
262	 2HD	2225.106	687.149	-2304.400	 H	16	ARG16	0.069	
263	 3HD	2223.585	688.067	-2304.279	 H	16	ARG16	0.069	
264	  HE	2225.613	689.863	-2305.410	 H	16	ARG16	0.346	
265	1HH1	2224.951	688.309	-2302.383	 H	16	ARG16	0.448	
266	2HH1	2225.811	689.617	-2301.438	 H	16	ARG16	0.448	
267	1HH2	2226.576	691.320	-2304.321	 H	16	ARG16	0.448	
268	2HH2	2226.680	691.233	-2302.507	 H	16	ARG16	0.448	
@<TRIPOS>BOND
1 1 2 1
2 1 10 1
3 2 3 1
4 2 5 1
5 2 11 1
6 3 4 2
7 3 16 1
8 5 6 1
9 6 7 1
10 7 8 2
11 7 9 1
12 5 12 1
13 5 13 1
14 6 14 1
15 6 15 1
16 16 17 1
17 16 24 1
18 17 18 1
19 17 20 1
20 17 25 1
21 18 19 2
22 18 30 1
23 20 21 1
24 21 22 1
25 21 23 2
26 20 26 1
27 20 27 1
28 22 28 1
29 22 29 1
30 30 31 1
31 30 36 1
32 31 32 1
33 31 34 1
34 31 37 1
35 32 33 2
36 32 44 1
37 34 35 1
38 35 36 1
39 34 38 1
40 34 39 1
41 35 40 1
42 35 41 1
43 36 42 1
44 36 43 1
45 44 45 1
46 44 53 1
47 45 46 1
48 45 48 1
49 45 54 1
50 46 47 2
51 46 59 1
52 48 49 1
53 49 50 1
54 50 51 2
55 50 52 1
56 48 55 1
57 48 56 1
58 49 57 1
59 49 58 1
60 59 60 1
61 59 65 1
62 60 61 1
63 60 63 1
64 60 66 1
65 61 62 2
66 61 70 1
67 63 64 1
68 63 67 1
69 63 68 1
70 64 69 1
71 70 71 1
72 70 78 1
73 71 72 1
74 71 74 1
75 71 79 1
76 72 73 2
77 72 89 1
78 74 75 1
79 74 76 1
80 75 77 1
81 74 80 1
82 75 81 1
83 75 82 1
84 76 83 1
85 76 84 1
86 76 85 1
87 77 86 1
88 77 87 1
89 77 88 1
90 89 90 1
91 89 97 1
92 90 91 1
93 90 93 1
94 90 98 1
95 91 92 2
96 91 108 1
97 93 94 1
98 94 95 1
99 94 96 1
100 93 99 1
101 93 100 1
102 94 101 1
103 95 102 1
104 95 103 1
105 95 104 1
106 96 105 1
107 96 106 1
108 96 107 1
109 108 109 1
110 108 116 1
111 109 110 1
112 109 112 1
113 109 117 1
114 110 111 2
115 110 120 1
116 112 113 1
117 113 114 2
118 113 115 1
119 112 118 1
120 112 119 1
121 120 121 1
122 120 129 1
123 121 122 1
124 121 124 1
125 121 130 1
126 122 123 2
127 122 135 1
128 124 125 1
129 125 126 1
130 126 127 2
131 126 128 1
132 124 131 1
133 124 132 1
134 125 133 1
135 125 134 1
136 135 136 1
137 135 145 1
138 136 137 1
139 136 139 1
140 136 146 1
141 137 138 2
142 137 152 1
143 139 140 1
144 140 141 2
145 141 144 1
146 140 142 1
147 142 143 2
148 143 144 1
149 139 147 1
150 139 148 1
151 141 149 1
152 143 150 1
153 144 151 1
154 152 153 1
155 152 159 1
156 153 154 1
157 153 156 1
158 153 160 1
159 154 155 2
160 154 168 1
161 156 157 1
162 156 158 1
163 156 161 1
164 157 162 1
165 157 163 1
166 157 164 1
167 158 165 1
168 158 166 1
169 158 167 1
170 168 169 1
171 168 177 1
172 169 170 1
173 169 172 1
174 169 178 1
175 170 171 2
176 170 185 1
177 172 173 1
178 173 174 1
179 174 175 1
180 174 176 2
181 172 179 1
182 172 180 1
183 173 181 1
184 173 182 1
185 175 183 1
186 175 184 1
187 185 186 1
188 185 196 1
189 186 187 1
190 186 189 1
191 186 197 1
192 187 188 2
193 187 209 1
194 189 190 1
195 190 191 1
196 191 192 1
197 192 193 1
198 193 194 2
199 193 195 1
200 189 198 1
201 189 199 1
202 190 200 1
203 190 201 1
204 191 202 1
205 191 203 1
206 192 204 1
207 194 205 1
208 194 206 1
209 195 207 1
210 195 208 1
211 209 210 1
212 209 217 1
213 210 211 1
214 210 213 1
215 210 218 1
216 211 212 2
217 211 228 1
218 213 214 1
219 213 215 1
220 214 216 1
221 213 219 1
222 214 220 1
223 214 221 1
224 215 222 1
225 215 223 1
226 215 224 1
227 216 225 1
228 216 226 1
229 216 227 1
230 228 229 1
231 228 236 1
232 229 230 1
233 229 232 1
234 229 237 1
235 230 231 2
236 230 245 1
237 232 233 1
238 233 234 1
239 234 235 1
240 232 238 1
241 232 239 1
242 233 240 1
243 233 241 1
244 235 242 1
245 235 243 1
246 235 244 1
247 245 246 1
248 245 256 1
249 246 247 1
250 246 249 1
251 246 257 1
252 247 248 2
253 249 250 1
254 250 251 1
255 251 252 1
256 252 253 1
257 253 254 2
258 253 255 1
259 249 258 1
260 249 259 1
261 250 260 1
262 250 261 1
263 251 262 1
264 251 263 1
265 252 264 1
266 254 265 1
267 254 266 1
268 255 267 1
269 255 268 1
@<TRIPOS>SUBSTRUCTURE
1	GLU1	1	RESIDUE	1 ****	GLU
2	ASN2	16	RESIDUE	1 ****	ASN
3	PRO3	30	RESIDUE	1 ****	PRO
4	GLU4	44	RESIDUE	1 ****	GLU
5	SER5	59	RESIDUE	1 ****	SER
6	ILE6	70	RESIDUE	1 ****	ILE
7	LEU7	89	RESIDUE	1 ****	LEU
8	ASP8	108	RESIDUE	1 ****	ASP
9	GLU9	120	RESIDUE	1 ****	GLU
10	HIS10	135	RESIDUE	1 ****	HIS
11	VAL11	152	RESIDUE	1 ****	VAL
12	GLN12	168	RESIDUE	1 ****	GLN
13	ARG13	185	RESIDUE	1 ****	ARG
14	ILE14	209	RESIDUE	1 ****	ILE
15	MET15	228	RESIDUE	1 ****	MET
16	ARG16	245	RESIDUE	1 ****	ARG
