@<TRIPOS>MOLECULE
12-20
272 273 16              
SMALL
USER_CHARGES
@<TRIPOS>ATOM
1	   N	2001.625	604.976	-2062.776	N.3	1	GLU1	-0.516	
2	  CA	2002.184	606.325	-2062.776	C.3	1	GLU1	0.040	
3	   C	2003.693	606.285	-2062.776	C.2	1	GLU1	0.537	
4	   O	2004.369	606.984	-2063.544	O.2	1	GLU1	-0.582	
5	  CB	2001.661	607.110	-2061.539	C.3	1	GLU1	0.056	
6	  CG	2002.136	608.595	-2061.428	C.3	1	GLU1	0.014	
7	  CD	2001.713	609.399	-2060.213	C.2	1	GLU1	0.805	
8	 OE1	2000.984	608.897	-2059.335	O.co2	1	GLU1	-0.819	
9	 OE2	2002.142	610.569	-2060.141	O.co2	1	GLU1	-0.819	
10	   H	2002.252	604.097	-2062.776	 H	1	GLU1	0.294	
11	  HA	2001.859	606.843	-2063.696	 H	1	GLU1	0.111	
12	 2HB	2001.950	606.579	-2060.609	 H	1	GLU1	-0.017	
13	 3HB	2000.554	607.100	-2061.526	 H	1	GLU1	-0.017	
14	 2HG	2001.827	609.180	-2062.309	 H	1	GLU1	-0.043	
15	 3HG	2003.236	608.662	-2061.399	 H	1	GLU1	-0.043	
16	   N	2004.298	605.500	-2061.951	N.am	2	ASN2	-0.416	
17	  CA	2005.757	605.461	-2061.951	C.3	2	ASN2	0.014	
18	   C	2006.289	605.105	-2063.319	C.2	2	ASN2	0.597	
19	   O	2007.204	605.736	-2063.848	O.2	2	ASN2	-0.568	
20	  CB	2006.249	604.438	-2060.886	C.3	2	ASN2	-0.204	
21	  CG	2005.786	604.662	-2059.443	C.2	2	ASN2	0.713	
22	 ND2	2006.380	605.576	-2058.725	N.pl3	2	ASN2	-0.919	
23	 OD1	2004.865	604.028	-2058.949	O.2	2	ASN2	-0.593	
24	   H	2003.770	604.920	-2061.314	 H	2	ASN2	0.272	
25	  HA	2006.135	606.471	-2061.705	 H	2	ASN2	0.105	
26	 2HB	2007.354	604.379	-2060.890	 H	2	ASN2	0.080	
27	 3HB	2005.920	603.419	-2061.172	 H	2	ASN2	0.080	
28	1HD2	2005.900	605.750	-2057.838	 H	2	ASN2	0.420	
29	2HD2	2007.082	606.148	-2059.194	 H	2	ASN2	0.420	
30	   N	2005.767	604.110	-2063.953	N.am	3	PRO3	-0.255	
31	  CA	2006.219	603.701	-2065.275	C.3	3	PRO3	-0.027	
32	   C	2005.821	604.724	-2066.352	C.2	3	PRO3	0.590	
33	   O	2006.644	605.107	-2067.183	O.2	3	PRO3	-0.575	
34	  CB	2005.515	602.346	-2065.444	C.3	3	PRO3	-0.007	
35	  CG	2004.231	602.498	-2064.614	C.3	3	PRO3	0.019	
36	  CD	2004.689	603.317	-2063.404	C.3	3	PRO3	0.019	
37	  HA	2007.305	603.581	-2065.288	 H	3	PRO3	0.064	
38	 2HB	2006.137	601.565	-2065.003	 H	3	PRO3	0.025	
39	 3HB	2005.316	602.097	-2066.489	 H	3	PRO3	0.025	
40	 2HG	2003.803	601.536	-2064.323	 H	3	PRO3	0.021	
41	 3HG	2003.494	603.069	-2065.181	 H	3	PRO3	0.021	
42	 2HD	2005.078	602.668	-2062.616	 H	3	PRO3	0.039	
43	 3HD	2003.892	603.953	-2063.011	 H	3	PRO3	0.039	
44	   N	2004.616	605.184	-2066.385	N.am	4	GLU4	-0.516	
45	  CA	2004.256	606.155	-2067.414	C.3	4	GLU4	0.040	
46	   C	2005.155	607.366	-2067.353	C.2	4	GLU4	0.537	
47	   O	2005.682	607.846	-2068.368	O.2	4	GLU4	-0.582	
48	  CB	2002.768	606.574	-2067.244	C.3	4	GLU4	0.056	
49	  CG	2002.220	607.577	-2068.310	C.3	4	GLU4	0.014	
50	  CD	2000.793	608.074	-2068.167	C.2	4	GLU4	0.805	
51	 OE1	2000.067	607.675	-2067.236	O.co2	4	GLU4	-0.819	
52	 OE2	2000.403	608.902	-2069.015	O.co2	4	GLU4	-0.819	
53	   H	2003.932	604.878	-2065.708	 H	4	GLU4	0.294	
54	  HA	2004.387	605.684	-2068.406	 H	4	GLU4	0.111	
55	 2HB	2002.615	607.014	-2066.238	 H	4	GLU4	-0.017	
56	 3HB	2002.120	605.676	-2067.250	 H	4	GLU4	-0.017	
57	 2HG	2002.301	607.162	-2069.328	 H	4	GLU4	-0.043	
58	 3HG	2002.807	608.509	-2068.322	 H	4	GLU4	-0.043	
59	   N	2005.383	607.919	-2066.210	N.am	5	SER5	-0.416	
60	  CA	2006.252	609.090	-2066.152	C.3	5	SER5	-0.025	
61	   C	2007.611	608.784	-2066.737	C.2	5	SER5	0.597	
62	   O	2008.158	609.537	-2067.542	O.2	5	SER5	-0.568	
63	  CB	2006.364	609.622	-2064.701	C.3	5	SER5	0.212	
64	  OG	2007.095	608.742	-2063.840	O.3	5	SER5	-0.655	
65	   H	2004.965	607.547	-2065.369	 H	5	SER5	0.272	
66	  HA	2005.803	609.880	-2066.781	 H	5	SER5	0.084	
67	 2HB	2005.364	609.816	-2064.268	 H	5	SER5	0.035	
68	 3HB	2006.869	610.607	-2064.704	 H	5	SER5	0.035	
69	  HG	2006.606	607.918	-2063.790	 H	5	SER5	0.428	
70	   N	2008.215	607.701	-2066.383	N.am	6	ILE6	-0.416	
71	  CA	2009.528	607.405	-2066.949	C.3	6	ILE6	-0.060	
72	   C	2009.472	607.368	-2068.457	C.2	6	ILE6	0.597	
73	   O	2010.307	607.956	-2069.161	O.2	6	ILE6	-0.568	
74	  CB	2010.128	606.069	-2066.350	C.3	6	ILE6	0.130	
75	 CG1	2010.147	606.006	-2064.789	C.3	6	ILE6	-0.043	
76	 CG2	2011.569	605.767	-2066.865	C.3	6	ILE6	-0.320	
77	 CD1	2010.416	604.617	-2064.174	C.3	6	ILE6	-0.066	
78	   H	2007.787	607.066	-2065.725	 H	6	ILE6	0.272	
79	  HA	2010.203	608.239	-2066.681	 H	6	ILE6	0.087	
80	  HB	2009.469	605.243	-2066.694	 H	6	ILE6	0.019	
81	2HG1	2009.165	606.326	-2064.393	 H	6	ILE6	0.024	
82	3HG1	2010.863	606.748	-2064.384	 H	6	ILE6	0.024	
83	1HG2	2011.628	605.674	-2067.963	 H	6	ILE6	0.088	
84	2HG2	2012.291	606.549	-2066.562	 H	6	ILE6	0.088	
85	3HG2	2011.959	604.804	-2066.486	 H	6	ILE6	0.088	
86	1HD1	2009.688	603.863	-2064.529	 H	6	ILE6	0.019	
87	2HD1	2011.427	604.238	-2064.410	 H	6	ILE6	0.019	
88	3HD1	2010.340	604.647	-2063.071	 H	6	ILE6	0.019	
89	   N	2008.526	606.705	-2069.031	N.am	7	LEU7	-0.416	
90	  CA	2008.471	606.670	-2070.490	C.3	7	LEU7	-0.052	
91	   C	2008.400	608.065	-2071.062	C.2	7	LEU7	0.597	
92	   O	2009.121	608.428	-2072.003	O.2	7	LEU7	-0.568	
93	  CB	2007.268	605.810	-2070.971	C.3	7	LEU7	-0.110	
94	  CG	2007.194	604.331	-2070.505	C.3	7	LEU7	0.353	
95	 CD1	2006.004	603.625	-2071.171	C.3	7	LEU7	-0.412	
96	 CD2	2008.488	603.551	-2070.797	C.3	7	LEU7	-0.412	
97	   H	2007.833	606.218	-2068.481	 H	7	LEU7	0.272	
98	  HA	2009.413	606.230	-2070.864	 H	7	LEU7	0.092	
99	 2HB	2007.245	605.827	-2072.078	 H	7	LEU7	0.046	
100	 3HB	2006.328	606.313	-2070.667	 H	7	LEU7	0.046	
101	  HG	2007.024	604.322	-2069.408	 H	7	LEU7	-0.036	
102	1HD1	2005.047	604.135	-2070.948	 H	7	LEU7	0.100	
103	2HD1	2006.104	603.585	-2072.272	 H	7	LEU7	0.100	
104	3HD1	2005.897	602.584	-2070.815	 H	7	LEU7	0.100	
105	1HD2	2008.763	603.582	-2071.867	 H	7	LEU7	0.100	
106	2HD2	2009.341	603.962	-2070.225	 H	7	LEU7	0.100	
107	3HD2	2008.406	602.489	-2070.501	 H	7	LEU7	0.100	
108	   N	2007.562	608.906	-2070.556	N.am	8	ASP8	-0.516	
109	  CA	2007.492	610.256	-2071.108	C.3	8	ASP8	0.038	
110	   C	2008.839	610.935	-2071.050	C.2	8	ASP8	0.537	
111	   O	2009.313	611.541	-2072.024	O.2	8	ASP8	-0.582	
112	  CB	2006.414	611.095	-2070.366	C.3	8	ASP8	-0.030	
113	  CG	2006.196	612.516	-2070.906	C.2	8	ASP8	0.799	
114	 OD1	2006.260	612.715	-2072.137	O.co2	8	ASP8	-0.801	
115	 OD2	2006.004	613.441	-2070.090	O.co2	8	ASP8	-0.801	
116	   H	2006.964	608.634	-2069.788	 H	8	ASP8	0.294	
117	  HA	2007.210	610.179	-2072.175	 H	8	ASP8	0.088	
118	 2HB	2006.671	611.177	-2069.294	 H	8	ASP8	-0.012	
119	 3HB	2005.435	610.590	-2070.400	 H	8	ASP8	-0.012	
120	   N	2009.518	610.885	-2069.955	N.am	9	GLU9	-0.516	
121	  CA	2010.821	611.542	-2069.898	C.3	9	GLU9	0.040	
122	   C	2011.740	611.014	-2070.974	C.2	9	GLU9	0.537	
123	   O	2012.404	611.769	-2071.699	O.2	9	GLU9	-0.582	
124	  CB	2011.454	611.333	-2068.493	C.3	9	GLU9	0.056	
125	  CG	2012.837	612.024	-2068.262	C.3	9	GLU9	0.014	
126	  CD	2013.538	611.810	-2066.934	C.2	9	GLU9	0.805	
127	 OE1	2013.016	611.119	-2066.038	O.co2	9	GLU9	-0.819	
128	 OE2	2014.657	612.348	-2066.801	O.co2	9	GLU9	-0.819	
129	   H	2009.155	610.398	-2069.148	 H	9	GLU9	0.294	
130	  HA	2010.680	612.624	-2070.073	 H	9	GLU9	0.111	
131	 2HB	2011.567	610.248	-2068.290	 H	9	GLU9	-0.017	
132	 3HB	2010.757	611.686	-2067.708	 H	9	GLU9	-0.017	
133	 2HG	2012.765	613.115	-2068.401	 H	9	GLU9	-0.043	
134	 3HG	2013.584	611.680	-2068.996	 H	9	GLU9	-0.043	
135	   N	2011.836	609.739	-2071.145	N.am	10	HIS10	-0.416	
136	  CA	2012.724	609.229	-2072.185	C.3	10	HIS10	-0.058	
137	   C	2012.358	609.794	-2073.536	C.2	10	HIS10	0.597	
138	   O	2013.211	610.260	-2074.307	O.2	10	HIS10	-0.568	
139	  CB	2012.560	607.700	-2072.181	C.3	10	HIS10	-0.007	
140	  CG	2013.845	606.989	-2071.873	C.2	10	HIS10	0.187	
141	 CD2	2014.225	606.653	-2070.581	C.2	10	HIS10	-0.221	
142	 ND1	2014.797	606.584	-2072.805	N.2	10	HIS10	-0.543	
143	 CE1	2015.704	606.025	-2071.982	C.2	10	HIS10	0.163	
144	 NE2	2015.440	606.021	-2070.647	N.pl3	10	HIS10	-0.280	
145	   H	2011.305	609.104	-2070.567	 H	10	HIS10	0.272	
146	  HA	2013.743	609.586	-2071.959	 H	10	HIS10	0.136	
147	 2HB	2012.195	607.333	-2073.161	 H	10	HIS10	0.037	
148	 3HB	2011.804	607.362	-2071.442	 H	10	HIS10	0.037	
149	 2HD	2013.640	606.867	-2069.692	 H	10	HIS10	0.186	
150	 1HE	2016.595	605.604	-2072.429	 H	10	HIS10	0.144	
151	 2HE	2016.007	605.643	-2069.874	 H	10	HIS10	0.334	
152	   N	2011.120	609.794	-2073.899	N.am	11	VAL11	-0.416	
153	  CA	2010.766	610.341	-2075.206	C.3	11	VAL11	-0.087	
154	   C	2011.230	611.772	-2075.337	C.2	11	VAL11	0.597	
155	   O	2011.832	612.177	-2076.340	O.2	11	VAL11	-0.568	
156	  CB	2009.204	610.235	-2075.426	C.3	11	VAL11	0.299	
157	 CG1	2008.636	610.940	-2076.688	C.3	11	VAL11	-0.319	
158	 CG2	2008.680	608.781	-2075.500	C.3	11	VAL11	-0.319	
159	   H	2010.407	609.421	-2073.289	 H	11	VAL11	0.272	
160	  HA	2011.285	609.759	-2075.988	 H	11	VAL11	0.097	
161	  HB	2008.717	610.714	-2074.550	 H	11	VAL11	-0.030	
162	1HG1	2009.075	610.549	-2077.625	 H	11	VAL11	0.079	
163	2HG1	2007.537	610.833	-2076.770	 H	11	VAL11	0.079	
164	3HG1	2008.814	612.032	-2076.678	 H	11	VAL11	0.079	
165	1HG2	2008.969	608.193	-2074.610	 H	11	VAL11	0.079	
166	2HG2	2007.574	608.744	-2075.543	 H	11	VAL11	0.079	
167	3HG2	2009.061	608.241	-2076.387	 H	11	VAL11	0.079	
168	   N	2010.993	612.597	-2074.375	N.am	12	ARG12	-0.348	
169	  CA	2011.442	613.980	-2074.501	C.3	12	ARG12	-0.264	
170	   C	2012.933	614.044	-2074.739	C.2	12	ARG12	0.734	
171	   O	2013.422	614.751	-2075.617	O.2	12	ARG12	-0.589	
172	  CB	2011.039	614.758	-2073.217	C.3	12	ARG12	-0.001	
173	  CG	2011.193	616.303	-2073.294	C.3	12	ARG12	0.039	
174	  CD	2010.808	616.989	-2071.973	C.3	12	ARG12	0.049	
175	  NE	2010.955	618.468	-2072.114	N.pl3	12	ARG12	-0.530	
176	  CZ	2010.711	619.359	-2071.158	C.cat	12	ARG12	0.808	
177	 NH1	2010.311	619.040	-2069.959	N.pl3	12	ARG12	-0.863	
178	 NH2	2010.877	620.615	-2071.430	N.pl3	12	ARG12	-0.863	
179	   H	2010.504	612.291	-2073.545	 H	12	ARG12	0.275	
180	  HA	2010.944	614.422	-2075.385	 H	12	ARG12	0.156	
181	 2HB	2011.623	614.360	-2072.361	 H	12	ARG12	0.033	
182	 3HB	2009.986	614.520	-2072.963	 H	12	ARG12	0.033	
183	 2HG	2010.572	616.690	-2074.128	 H	12	ARG12	0.029	
184	 3HG	2012.239	616.569	-2073.553	 H	12	ARG12	0.029	
185	 2HD	2011.454	616.602	-2071.156	 H	12	ARG12	0.069	
186	 3HD	2009.765	616.717	-2071.705	 H	12	ARG12	0.069	
187	  HE	2011.264	618.885	-2072.998	 H	12	ARG12	0.346	
188	1HH1	2010.201	618.035	-2069.809	 H	12	ARG12	0.448	
189	2HH1	2010.144	619.785	-2069.281	 H	12	ARG12	0.448	
190	1HH2	2011.192	620.846	-2072.375	 H	12	ARG12	0.448	
191	2HH2	2010.683	621.284	-2070.684	 H	12	ARG12	0.448	
192	   N	2013.715	613.336	-2073.998	N.am	13	ARG13	-0.348	
193	  CA	2015.156	613.398	-2074.228	C.3	13	ARG13	-0.264	
194	   C	2015.491	613.026	-2075.653	C.2	13	ARG13	0.734	
195	   O	2016.262	613.695	-2076.337	O.2	13	ARG13	-0.589	
196	  CB	2015.866	612.457	-2073.214	C.3	13	ARG13	-0.001	
197	  CG	2017.411	612.607	-2073.132	C.3	13	ARG13	0.039	
198	  CD	2018.036	611.617	-2072.134	C.3	13	ARG13	0.049	
199	  NE	2019.513	611.821	-2072.083	N.pl3	13	ARG13	-0.530	
200	  CZ	2020.359	611.128	-2071.328	C.cat	13	ARG13	0.808	
201	 NH1	2019.992	610.164	-2070.530	N.pl3	13	ARG13	-0.863	
202	 NH2	2021.620	611.423	-2071.384	N.pl3	13	ARG13	-0.863	
203	   H	2013.337	612.747	-2073.270	 H	13	ARG13	0.275	
204	  HA	2015.483	614.443	-2074.069	 H	13	ARG13	0.156	
205	 2HB	2015.598	611.407	-2073.453	 H	13	ARG13	0.033	
206	 3HB	2015.441	612.625	-2072.203	 H	13	ARG13	0.033	
207	 2HG	2017.662	613.651	-2072.853	 H	13	ARG13	0.029	
208	 3HG	2017.862	612.450	-2074.134	 H	13	ARG13	0.029	
209	 2HD	2017.789	610.578	-2072.443	 H	13	ARG13	0.069	
210	 3HD	2017.579	611.764	-2071.132	 H	13	ARG13	0.069	
211	  HE	2019.967	612.542	-2072.654	 H	13	ARG13	0.346	
212	1HH1	2018.986	609.980	-2070.534	 H	13	ARG13	0.448	
213	2HH1	2020.703	609.679	-2069.981	 H	13	ARG13	0.448	
214	1HH2	2021.889	612.181	-2072.015	 H	13	ARG13	0.448	
215	2HH2	2022.253	610.880	-2070.795	 H	13	ARG13	0.448	
216	   N	2014.953	611.972	-2076.167	N.am	14	VAL14	-0.416	
217	  CA	2015.277	611.612	-2077.545	C.3	14	VAL14	-0.087	
218	   C	2014.950	612.743	-2078.490	C.2	14	VAL14	0.597	
219	   O	2015.744	613.122	-2079.360	O.2	14	VAL14	-0.568	
220	  CB	2014.501	610.297	-2077.952	C.3	14	VAL14	0.299	
221	 CG1	2014.589	609.878	-2079.445	C.3	14	VAL14	-0.319	
222	 CG2	2014.929	609.044	-2077.151	C.3	14	VAL14	-0.319	
223	   H	2014.316	611.405	-2075.625	 H	14	VAL14	0.272	
224	  HA	2016.365	611.432	-2077.619	 H	14	VAL14	0.097	
225	  HB	2013.425	610.471	-2077.736	 H	14	VAL14	-0.030	
226	1HG1	2015.630	609.698	-2079.774	 H	14	VAL14	0.079	
227	2HG1	2014.014	608.956	-2079.657	 H	14	VAL14	0.079	
228	3HG1	2014.162	610.641	-2080.123	 H	14	VAL14	0.079	
229	1HG2	2014.843	609.203	-2076.061	 H	14	VAL14	0.079	
230	2HG2	2014.291	608.169	-2077.383	 H	14	VAL14	0.079	
231	3HG2	2015.976	608.751	-2077.356	 H	14	VAL14	0.079	
232	   N	2013.806	613.332	-2078.389	N.am	15	MET15	-0.416	
233	  CA	2013.489	614.425	-2079.303	C.3	15	MET15	-0.024	
234	   C	2014.522	615.522	-2079.215	C.2	15	MET15	0.597	
235	   O	2015.026	616.031	-2080.228	O.2	15	MET15	-0.568	
236	  CB	2012.069	614.974	-2078.994	C.3	15	MET15	0.034	
237	  CG	2010.904	613.979	-2079.186	C.3	15	MET15	0.002	
238	  SD	2009.333	614.849	-2079.072	S.3	15	MET15	-0.274	
239	  CE	2008.248	613.422	-2078.935	C.3	15	MET15	-0.054	
240	   H	2013.141	613.040	-2077.687	 H	15	MET15	0.272	
241	  HA	2013.514	614.037	-2080.338	 H	15	MET15	0.088	
242	 2HB	2011.869	615.854	-2079.636	 H	15	MET15	0.024	
243	 3HB	2012.034	615.367	-2077.958	 H	15	MET15	0.024	
244	 2HG	2010.945	613.194	-2078.408	 H	15	MET15	0.044	
245	 3HG	2010.966	613.464	-2080.162	 H	15	MET15	0.044	
246	 1HE	2008.390	612.734	-2079.788	 H	15	MET15	0.068	
247	 2HE	2008.455	612.869	-2078.002	 H	15	MET15	0.068	
248	 3HE	2007.191	613.741	-2078.919	 H	15	MET15	0.068	
249	   N	2014.892	615.942	-2078.052	N.am	16	ARG16	-0.348	
250	  CA	2015.891	617.003	-2077.969	C.3	16	ARG16	-0.264	
251	   C	2017.161	616.607	-2078.685	C.2	16	ARG16	0.734	
252	   O	2017.272	615.530	-2079.266	O.2	16	ARG16	-0.589	
253	  CB	2016.161	617.321	-2076.470	C.3	16	ARG16	-0.001	
254	  CG	2016.989	618.608	-2076.198	C.3	16	ARG16	0.039	
255	  CD	2017.239	618.827	-2074.697	C.3	16	ARG16	0.049	
256	  NE	2018.019	620.084	-2074.496	N.pl3	16	ARG16	-0.530	
257	  CZ	2018.411	620.565	-2073.320	C.cat	16	ARG16	0.808	
258	 NH1	2018.162	619.982	-2072.182	N.pl3	16	ARG16	-0.863	
259	 NH2	2019.078	621.676	-2073.302	N.pl3	16	ARG16	-0.863	
260	   H	2014.496	615.543	-2077.213	 H	16	ARG16	0.275	
261	  HA	2015.485	617.897	-2078.479	 H	16	ARG16	0.156	
262	 2HB	2016.655	616.444	-2076.004	 H	16	ARG16	0.033	
263	 3HB	2015.192	617.405	-2075.937	 H	16	ARG16	0.033	
264	 2HG	2016.461	619.480	-2076.635	 H	16	ARG16	0.029	
265	 3HG	2017.963	618.552	-2076.727	 H	16	ARG16	0.029	
266	 2HD	2017.786	617.951	-2074.283	 H	16	ARG16	0.069	
267	 3HD	2016.267	618.872	-2074.161	 H	16	ARG16	0.069	
268	  HE	2018.299	620.664	-2075.293	 H	16	ARG16	0.346	
269	1HH1	2017.634	619.110	-2072.266	 H	16	ARG16	0.448	
270	2HH1	2018.497	620.417	-2071.320	 H	16	ARG16	0.448	
271	1HH2	2019.265	622.118	-2074.204	 H	16	ARG16	0.448	
272	2HH2	2019.369	622.031	-2072.389	 H	16	ARG16	0.448	
@<TRIPOS>BOND
1 1 2 1
2 1 10 1
3 2 3 1
4 2 5 1
5 2 11 1
6 3 4 2
7 3 16 1
8 5 6 1
9 6 7 1
10 7 8 2
11 7 9 1
12 5 12 1
13 5 13 1
14 6 14 1
15 6 15 1
16 16 17 1
17 16 24 1
18 17 18 1
19 17 20 1
20 17 25 1
21 18 19 2
22 18 30 1
23 20 21 1
24 21 22 1
25 21 23 2
26 20 26 1
27 20 27 1
28 22 28 1
29 22 29 1
30 30 31 1
31 30 36 1
32 31 32 1
33 31 34 1
34 31 37 1
35 32 33 2
36 32 44 1
37 34 35 1
38 35 36 1
39 34 38 1
40 34 39 1
41 35 40 1
42 35 41 1
43 36 42 1
44 36 43 1
45 44 45 1
46 44 53 1
47 45 46 1
48 45 48 1
49 45 54 1
50 46 47 2
51 46 59 1
52 48 49 1
53 49 50 1
54 50 51 2
55 50 52 1
56 48 55 1
57 48 56 1
58 49 57 1
59 49 58 1
60 59 60 1
61 59 65 1
62 60 61 1
63 60 63 1
64 60 66 1
65 61 62 2
66 61 70 1
67 63 64 1
68 63 67 1
69 63 68 1
70 64 69 1
71 70 71 1
72 70 78 1
73 71 72 1
74 71 74 1
75 71 79 1
76 72 73 2
77 72 89 1
78 74 75 1
79 74 76 1
80 75 77 1
81 74 80 1
82 75 81 1
83 75 82 1
84 76 83 1
85 76 84 1
86 76 85 1
87 77 86 1
88 77 87 1
89 77 88 1
90 89 90 1
91 89 97 1
92 90 91 1
93 90 93 1
94 90 98 1
95 91 92 2
96 91 108 1
97 93 94 1
98 94 95 1
99 94 96 1
100 93 99 1
101 93 100 1
102 94 101 1
103 95 102 1
104 95 103 1
105 95 104 1
106 96 105 1
107 96 106 1
108 96 107 1
109 108 109 1
110 108 116 1
111 109 110 1
112 109 112 1
113 109 117 1
114 110 111 2
115 110 120 1
116 112 113 1
117 113 114 2
118 113 115 1
119 112 118 1
120 112 119 1
121 120 121 1
122 120 129 1
123 121 122 1
124 121 124 1
125 121 130 1
126 122 123 2
127 122 135 1
128 124 125 1
129 125 126 1
130 126 127 2
131 126 128 1
132 124 131 1
133 124 132 1
134 125 133 1
135 125 134 1
136 135 136 1
137 135 145 1
138 136 137 1
139 136 139 1
140 136 146 1
141 137 138 2
142 137 152 1
143 139 140 1
144 140 141 2
145 141 144 1
146 140 142 1
147 142 143 2
148 143 144 1
149 139 147 1
150 139 148 1
151 141 149 1
152 143 150 1
153 144 151 1
154 152 153 1
155 152 159 1
156 153 154 1
157 153 156 1
158 153 160 1
159 154 155 2
160 154 168 1
161 156 157 1
162 156 158 1
163 156 161 1
164 157 162 1
165 157 163 1
166 157 164 1
167 158 165 1
168 158 166 1
169 158 167 1
170 168 169 1
171 168 179 1
172 169 170 1
173 169 172 1
174 169 180 1
175 170 171 2
176 170 192 1
177 172 173 1
178 173 174 1
179 174 175 1
180 175 176 1
181 176 177 2
182 176 178 1
183 172 181 1
184 172 182 1
185 173 183 1
186 173 184 1
187 174 185 1
188 174 186 1
189 175 187 1
190 177 188 1
191 177 189 1
192 178 190 1
193 178 191 1
194 192 193 1
195 192 203 1
196 193 194 1
197 193 196 1
198 193 204 1
199 194 195 2
200 194 216 1
201 196 197 1
202 197 198 1
203 198 199 1
204 199 200 1
205 200 201 2
206 200 202 1
207 196 205 1
208 196 206 1
209 197 207 1
210 197 208 1
211 198 209 1
212 198 210 1
213 199 211 1
214 201 212 1
215 201 213 1
216 202 214 1
217 202 215 1
218 216 217 1
219 216 223 1
220 217 218 1
221 217 220 1
222 217 224 1
223 218 219 2
224 218 232 1
225 220 221 1
226 220 222 1
227 220 225 1
228 221 226 1
229 221 227 1
230 221 228 1
231 222 229 1
232 222 230 1
233 222 231 1
234 232 233 1
235 232 240 1
236 233 234 1
237 233 236 1
238 233 241 1
239 234 235 2
240 234 249 1
241 236 237 1
242 237 238 1
243 238 239 1
244 236 242 1
245 236 243 1
246 237 244 1
247 237 245 1
248 239 246 1
249 239 247 1
250 239 248 1
251 249 250 1
252 249 260 1
253 250 251 1
254 250 253 1
255 250 261 1
256 251 252 2
257 253 254 1
258 254 255 1
259 255 256 1
260 256 257 1
261 257 258 2
262 257 259 1
263 253 262 1
264 253 263 1
265 254 264 1
266 254 265 1
267 255 266 1
268 255 267 1
269 256 268 1
270 258 269 1
271 258 270 1
272 259 271 1
273 259 272 1
@<TRIPOS>SUBSTRUCTURE
1	GLU1	1	RESIDUE	1 ****	GLU
2	ASN2	16	RESIDUE	1 ****	ASN
3	PRO3	30	RESIDUE	1 ****	PRO
4	GLU4	44	RESIDUE	1 ****	GLU
5	SER5	59	RESIDUE	1 ****	SER
6	ILE6	70	RESIDUE	1 ****	ILE
7	LEU7	89	RESIDUE	1 ****	LEU
8	ASP8	108	RESIDUE	1 ****	ASP
9	GLU9	120	RESIDUE	1 ****	GLU
10	HIS10	135	RESIDUE	1 ****	HIS
11	VAL11	152	RESIDUE	1 ****	VAL
12	ARG12	168	RESIDUE	1 ****	ARG
13	ARG13	192	RESIDUE	1 ****	ARG
14	VAL14	216	RESIDUE	1 ****	VAL
15	MET15	232	RESIDUE	1 ****	MET
16	ARG16	249	RESIDUE	1 ****	ARG
