@<TRIPOS>MOLECULE
14-18
264 265 16              
SMALL
USER_CHARGES
@<TRIPOS>ATOM
1	   N	2308.208	705.881	-2399.609	N.3	1	GLU1	-0.516	
2	  CA	2308.767	707.230	-2399.609	C.3	1	GLU1	0.040	
3	   C	2310.276	707.190	-2399.609	C.2	1	GLU1	0.537	
4	   O	2310.952	707.889	-2400.378	O.2	1	GLU1	-0.582	
5	  CB	2308.244	708.015	-2398.373	C.3	1	GLU1	0.056	
6	  CG	2308.719	709.500	-2398.261	C.3	1	GLU1	0.014	
7	  CD	2308.295	710.304	-2397.046	C.2	1	GLU1	0.805	
8	 OE1	2307.567	709.802	-2396.168	O.co2	1	GLU1	-0.819	
9	 OE2	2308.725	711.474	-2396.974	O.co2	1	GLU1	-0.819	
10	   H	2308.835	705.002	-2399.609	 H	1	GLU1	0.294	
11	  HA	2308.441	707.748	-2400.530	 H	1	GLU1	0.111	
12	 2HB	2308.533	707.484	-2397.442	 H	1	GLU1	-0.017	
13	 3HB	2307.137	708.005	-2398.359	 H	1	GLU1	-0.017	
14	 2HG	2308.409	710.085	-2399.142	 H	1	GLU1	-0.043	
15	 3HG	2309.819	709.567	-2398.232	 H	1	GLU1	-0.043	
16	   N	2310.881	706.404	-2398.784	N.am	2	ASN2	-0.416	
17	  CA	2312.340	706.365	-2398.784	C.3	2	ASN2	0.014	
18	   C	2312.871	706.010	-2400.153	C.2	2	ASN2	0.597	
19	   O	2313.786	706.640	-2400.681	O.2	2	ASN2	-0.568	
20	  CB	2312.832	705.342	-2397.719	C.3	2	ASN2	-0.204	
21	  CG	2312.368	705.566	-2396.276	C.2	2	ASN2	0.713	
22	 ND2	2312.962	706.481	-2395.558	N.pl3	2	ASN2	-0.919	
23	 OD1	2311.447	704.933	-2395.782	O.2	2	ASN2	-0.593	
24	   H	2310.352	705.825	-2398.148	 H	2	ASN2	0.272	
25	  HA	2312.718	707.375	-2398.539	 H	2	ASN2	0.105	
26	 2HB	2313.936	705.283	-2397.723	 H	2	ASN2	0.080	
27	 3HB	2312.502	704.324	-2398.005	 H	2	ASN2	0.080	
28	1HD2	2312.481	706.654	-2394.672	 H	2	ASN2	0.420	
29	2HD2	2313.664	707.052	-2396.027	 H	2	ASN2	0.420	
30	   N	2312.350	705.015	-2400.787	N.am	3	PRO3	-0.255	
31	  CA	2312.802	704.605	-2402.108	C.3	3	PRO3	-0.027	
32	   C	2312.404	705.629	-2403.185	C.2	3	PRO3	0.590	
33	   O	2313.228	706.012	-2404.017	O.2	3	PRO3	-0.575	
34	  CB	2312.098	703.251	-2402.278	C.3	3	PRO3	-0.007	
35	  CG	2310.814	703.403	-2401.448	C.3	3	PRO3	0.019	
36	  CD	2311.271	704.222	-2400.238	C.3	3	PRO3	0.019	
37	  HA	2313.888	704.485	-2402.122	 H	3	PRO3	0.064	
38	 2HB	2312.720	702.470	-2401.837	 H	3	PRO3	0.025	
39	 3HB	2311.900	703.003	-2403.323	 H	3	PRO3	0.025	
40	 2HG	2310.386	702.441	-2401.157	 H	3	PRO3	0.021	
41	 3HG	2310.077	703.974	-2402.016	 H	3	PRO3	0.021	
42	 2HD	2311.660	703.572	-2399.451	 H	3	PRO3	0.039	
43	 3HD	2310.475	704.858	-2399.845	 H	3	PRO3	0.039	
44	   N	2311.199	706.089	-2403.218	N.am	4	GLU4	-0.516	
45	  CA	2310.840	707.060	-2404.248	C.3	4	GLU4	0.040	
46	   C	2311.740	708.271	-2404.186	C.2	4	GLU4	0.537	
47	   O	2312.266	708.750	-2405.200	O.2	4	GLU4	-0.582	
48	  CB	2309.352	707.479	-2404.078	C.3	4	GLU4	0.056	
49	  CG	2308.804	708.483	-2405.144	C.3	4	GLU4	0.014	
50	  CD	2307.378	708.980	-2405.001	C.2	4	GLU4	0.805	
51	 OE1	2306.651	708.582	-2404.070	O.co2	4	GLU4	-0.819	
52	 OE2	2306.989	709.809	-2405.849	O.co2	4	GLU4	-0.819	
53	   H	2310.515	705.783	-2402.542	 H	4	GLU4	0.294	
54	  HA	2310.972	706.590	-2405.239	 H	4	GLU4	0.111	
55	 2HB	2309.199	707.919	-2403.072	 H	4	GLU4	-0.017	
56	 3HB	2308.704	706.582	-2404.084	 H	4	GLU4	-0.017	
57	 2HG	2308.886	708.068	-2406.162	 H	4	GLU4	-0.043	
58	 3HG	2309.393	709.415	-2405.155	 H	4	GLU4	-0.043	
59	   N	2311.967	708.824	-2403.043	N.am	5	SER5	-0.416	
60	  CA	2312.836	709.995	-2402.984	C.3	5	SER5	-0.025	
61	   C	2314.195	709.689	-2403.569	C.2	5	SER5	0.597	
62	   O	2314.743	710.442	-2404.374	O.2	5	SER5	-0.568	
63	  CB	2312.948	710.527	-2401.534	C.3	5	SER5	0.212	
64	  OG	2313.679	709.647	-2400.673	O.3	5	SER5	-0.655	
65	   H	2311.549	708.452	-2402.202	 H	5	SER5	0.272	
66	  HA	2312.387	710.785	-2403.613	 H	5	SER5	0.084	
67	 2HB	2311.948	710.721	-2401.101	 H	5	SER5	0.035	
68	 3HB	2313.453	711.512	-2401.536	 H	5	SER5	0.035	
69	  HG	2313.190	708.823	-2400.622	 H	5	SER5	0.428	
70	   N	2314.800	708.605	-2403.215	N.am	6	ILE6	-0.416	
71	  CA	2316.113	708.310	-2403.781	C.3	6	ILE6	-0.060	
72	   C	2316.056	708.272	-2405.289	C.2	6	ILE6	0.597	
73	   O	2316.890	708.860	-2405.993	O.2	6	ILE6	-0.568	
74	  CB	2316.712	706.974	-2403.181	C.3	6	ILE6	0.130	
75	 CG1	2316.731	706.911	-2401.620	C.3	6	ILE6	-0.043	
76	 CG2	2318.153	706.671	-2403.696	C.3	6	ILE6	-0.320	
77	 CD1	2317.000	705.522	-2401.005	C.3	6	ILE6	-0.066	
78	   H	2314.371	707.971	-2402.556	 H	6	ILE6	0.272	
79	  HA	2316.787	709.144	-2403.513	 H	6	ILE6	0.087	
80	  HB	2316.054	706.148	-2403.525	 H	6	ILE6	0.019	
81	2HG1	2315.749	707.231	-2401.224	 H	6	ILE6	0.024	
82	3HG1	2317.447	707.653	-2401.215	 H	6	ILE6	0.024	
83	1HG2	2318.212	706.578	-2404.794	 H	6	ILE6	0.088	
84	2HG2	2318.875	707.453	-2403.393	 H	6	ILE6	0.088	
85	3HG2	2318.543	705.709	-2403.317	 H	6	ILE6	0.088	
86	1HD1	2316.271	704.768	-2401.360	 H	6	ILE6	0.019	
87	2HD1	2318.010	705.143	-2401.240	 H	6	ILE6	0.019	
88	3HD1	2316.924	705.552	-2399.902	 H	6	ILE6	0.019	
89	   N	2315.110	707.609	-2405.862	N.am	7	LEU7	-0.416	
90	  CA	2315.055	707.573	-2407.321	C.3	7	LEU7	-0.052	
91	   C	2314.983	708.968	-2407.894	C.2	7	LEU7	0.597	
92	   O	2315.704	709.330	-2408.836	O.2	7	LEU7	-0.568	
93	  CB	2313.851	706.713	-2407.801	C.3	7	LEU7	-0.110	
94	  CG	2313.778	705.234	-2407.335	C.3	7	LEU7	0.353	
95	 CD1	2312.588	704.528	-2408.000	C.3	7	LEU7	-0.412	
96	 CD2	2315.072	704.454	-2407.626	C.3	7	LEU7	-0.412	
97	   H	2314.417	707.122	-2405.311	 H	7	LEU7	0.272	
98	  HA	2315.996	707.133	-2407.695	 H	7	LEU7	0.092	
99	 2HB	2313.828	706.729	-2408.909	 H	7	LEU7	0.046	
100	 3HB	2312.912	707.216	-2407.497	 H	7	LEU7	0.046	
101	  HG	2313.608	705.226	-2406.238	 H	7	LEU7	-0.036	
102	1HD1	2311.631	705.037	-2407.778	 H	7	LEU7	0.100	
103	2HD1	2312.687	704.488	-2409.102	 H	7	LEU7	0.100	
104	3HD1	2312.481	703.487	-2407.644	 H	7	LEU7	0.100	
105	1HD2	2315.347	704.484	-2408.696	 H	7	LEU7	0.100	
106	2HD2	2315.925	704.865	-2407.055	 H	7	LEU7	0.100	
107	3HD2	2314.990	703.392	-2407.330	 H	7	LEU7	0.100	
108	   N	2314.146	709.810	-2407.388	N.am	8	ASP8	-0.516	
109	  CA	2314.076	711.159	-2407.942	C.3	8	ASP8	0.038	
110	   C	2315.423	711.838	-2407.885	C.2	8	ASP8	0.537	
111	   O	2315.896	712.442	-2408.860	O.2	8	ASP8	-0.582	
112	  CB	2312.998	711.999	-2407.201	C.3	8	ASP8	-0.030	
113	  CG	2312.780	713.419	-2407.742	C.2	8	ASP8	0.799	
114	 OD1	2312.845	713.617	-2408.973	O.co2	8	ASP8	-0.801	
115	 OD2	2312.589	714.346	-2406.927	O.co2	8	ASP8	-0.801	
116	   H	2313.548	709.539	-2406.620	 H	8	ASP8	0.294	
117	  HA	2313.793	711.080	-2409.009	 H	8	ASP8	0.088	
118	 2HB	2313.256	712.082	-2406.129	 H	8	ASP8	-0.012	
119	 3HB	2312.019	711.494	-2407.234	 H	8	ASP8	-0.012	
120	   N	2316.103	711.788	-2406.790	N.am	9	GLU9	-0.516	
121	  CA	2317.406	712.445	-2406.735	C.3	9	GLU9	0.040	
122	   C	2318.324	711.917	-2407.811	C.2	9	GLU9	0.537	
123	   O	2318.988	712.670	-2408.537	O.2	9	GLU9	-0.582	
124	  CB	2318.040	712.238	-2405.330	C.3	9	GLU9	0.056	
125	  CG	2319.423	712.930	-2405.101	C.3	9	GLU9	0.014	
126	  CD	2320.125	712.717	-2403.773	C.2	9	GLU9	0.805	
127	 OE1	2319.603	712.026	-2402.876	O.co2	9	GLU9	-0.819	
128	 OE2	2321.244	713.254	-2403.642	O.co2	9	GLU9	-0.819	
129	   H	2315.740	711.302	-2405.983	 H	9	GLU9	0.294	
130	  HA	2317.264	713.527	-2406.911	 H	9	GLU9	0.111	
131	 2HB	2318.152	711.153	-2405.126	 H	9	GLU9	-0.017	
132	 3HB	2317.343	712.592	-2404.546	 H	9	GLU9	-0.017	
133	 2HG	2319.351	714.020	-2405.241	 H	9	GLU9	-0.043	
134	 3HG	2320.169	712.584	-2405.835	 H	9	GLU9	-0.043	
135	   N	2318.420	710.641	-2407.980	N.am	10	HIS10	-0.416	
136	  CA	2319.307	710.129	-2409.021	C.3	10	HIS10	-0.058	
137	   C	2318.940	710.693	-2410.372	C.2	10	HIS10	0.597	
138	   O	2319.793	711.157	-2411.144	O.2	10	HIS10	-0.568	
139	  CB	2319.142	708.600	-2409.015	C.3	10	HIS10	-0.007	
140	  CG	2320.428	707.889	-2408.707	C.2	10	HIS10	0.187	
141	 CD2	2320.809	707.555	-2407.414	C.2	10	HIS10	-0.221	
142	 ND1	2321.379	707.483	-2409.639	N.2	10	HIS10	-0.543	
143	 CE1	2322.286	706.925	-2408.816	C.2	10	HIS10	0.163	
144	 NE2	2322.023	706.922	-2407.481	N.pl3	10	HIS10	-0.280	
145	   H	2317.889	710.006	-2407.401	 H	10	HIS10	0.272	
146	  HA	2320.326	710.486	-2408.796	 H	10	HIS10	0.136	
147	 2HB	2318.776	708.233	-2409.994	 H	10	HIS10	0.037	
148	 3HB	2318.387	708.264	-2408.274	 H	10	HIS10	0.037	
149	 2HD	2320.224	707.771	-2406.525	 H	10	HIS10	0.186	
150	 1HE	2323.176	706.503	-2409.263	 H	10	HIS10	0.144	
151	 2HE	2322.590	706.545	-2406.708	 H	10	HIS10	0.334	
152	   N	2317.702	710.693	-2410.735	N.am	11	VAL11	-0.416	
153	  CA	2317.347	711.238	-2412.042	C.3	11	VAL11	-0.087	
154	   C	2317.812	712.668	-2412.175	C.2	11	VAL11	0.597	
155	   O	2318.413	713.073	-2413.178	O.2	11	VAL11	-0.568	
156	  CB	2315.786	711.132	-2412.261	C.3	11	VAL11	0.299	
157	 CG1	2315.217	711.836	-2413.524	C.3	11	VAL11	-0.319	
158	 CG2	2315.260	709.678	-2412.333	C.3	11	VAL11	-0.319	
159	   H	2316.989	710.321	-2410.124	 H	11	VAL11	0.272	
160	  HA	2317.866	710.655	-2412.824	 H	11	VAL11	0.097	
161	  HB	2315.299	711.613	-2411.386	 H	11	VAL11	-0.030	
162	1HG1	2315.656	711.443	-2414.461	 H	11	VAL11	0.079	
163	2HG1	2314.118	711.729	-2413.606	 H	11	VAL11	0.079	
164	3HG1	2315.396	712.928	-2413.515	 H	11	VAL11	0.079	
165	1HG2	2315.550	709.091	-2411.442	 H	11	VAL11	0.079	
166	2HG2	2314.155	709.642	-2412.375	 H	11	VAL11	0.079	
167	3HG2	2315.642	709.137	-2413.219	 H	11	VAL11	0.079	
168	   N	2317.576	713.495	-2411.213	N.am	12	GLN12	-0.416	
169	  CA	2318.025	714.877	-2411.341	C.3	12	GLN12	-0.003	
170	   C	2319.515	714.944	-2411.579	C.2	12	GLN12	0.597	
171	   O	2320.002	715.651	-2412.458	O.2	12	GLN12	-0.568	
172	  CB	2317.635	715.646	-2410.059	C.3	12	GLN12	-0.004	
173	  CG	2317.996	717.167	-2410.028	C.3	12	GLN12	-0.064	
174	  CD	2317.695	717.982	-2408.764	C.2	12	GLN12	0.695	
175	 NE2	2317.127	717.406	-2407.735	N.pl3	12	GLN12	-0.941	
176	 OE1	2317.997	719.163	-2408.687	O.2	12	GLN12	-0.609	
177	   H	2317.087	713.189	-2410.384	 H	12	GLN12	0.272	
178	  HA	2317.526	715.333	-2412.216	 H	12	GLN12	0.085	
179	 2HB	2318.111	715.146	-2409.189	 H	12	GLN12	0.017	
180	 3HB	2316.545	715.539	-2409.895	 H	12	GLN12	0.017	
181	 2HG	2317.519	717.688	-2410.879	 H	12	GLN12	0.035	
182	 3HG	2319.080	717.309	-2410.194	 H	12	GLN12	0.035	
183	1HE2	2317.021	718.001	-2406.911	 H	12	GLN12	0.425	
184	2HE2	2316.963	716.403	-2407.837	 H	12	GLN12	0.425	
185	   N	2320.300	714.237	-2410.838	N.am	13	ARG13	-0.348	
186	  CA	2321.740	714.302	-2411.069	C.3	13	ARG13	-0.264	
187	   C	2322.075	713.930	-2412.494	C.2	13	ARG13	0.734	
188	   O	2322.844	714.601	-2413.179	O.2	13	ARG13	-0.589	
189	  CB	2322.453	713.364	-2410.055	C.3	13	ARG13	-0.001	
190	  CG	2323.998	713.517	-2409.974	C.3	13	ARG13	0.039	
191	  CD	2324.625	712.529	-2408.976	C.3	13	ARG13	0.049	
192	  NE	2326.102	712.736	-2408.926	N.pl3	13	ARG13	-0.530	
193	  CZ	2326.950	712.045	-2408.171	C.cat	13	ARG13	0.808	
194	 NH1	2326.585	711.081	-2407.372	N.pl3	13	ARG13	-0.863	
195	 NH2	2328.210	712.344	-2408.228	N.pl3	13	ARG13	-0.863	
196	   H	2319.923	713.648	-2410.109	 H	13	ARG13	0.275	
197	  HA	2322.064	715.348	-2410.912	 H	13	ARG13	0.156	
198	 2HB	2322.187	712.313	-2410.293	 H	13	ARG13	0.033	
199	 3HB	2322.028	713.531	-2409.044	 H	13	ARG13	0.033	
200	 2HG	2324.247	714.562	-2409.696	 H	13	ARG13	0.029	
201	 3HG	2324.448	713.360	-2410.976	 H	13	ARG13	0.029	
202	 2HD	2324.380	711.489	-2409.284	 H	13	ARG13	0.069	
203	 3HD	2324.169	712.676	-2407.973	 H	13	ARG13	0.069	
204	  HE	2326.553	713.458	-2409.498	 H	13	ARG13	0.346	
205	1HH1	2325.580	710.895	-2407.375	 H	13	ARG13	0.448	
206	2HH1	2327.299	710.598	-2406.823	 H	13	ARG13	0.448	
207	1HH2	2328.478	713.101	-2408.860	 H	13	ARG13	0.448	
208	2HH2	2328.845	711.802	-2407.639	 H	13	ARG13	0.448	
209	   N	2321.539	712.875	-2413.008	N.am	14	GLU14	-0.516	
210	  CA	2321.863	712.515	-2414.385	C.3	14	GLU14	0.040	
211	   C	2321.533	713.644	-2415.331	C.2	14	GLU14	0.537	
212	   O	2322.329	714.025	-2416.202	O.2	14	GLU14	-0.582	
213	  CB	2321.090	711.226	-2414.787	C.3	14	GLU14	0.056	
214	  CG	2321.375	710.686	-2416.226	C.3	14	GLU14	0.014	
215	  CD	2320.608	709.466	-2416.702	C.2	14	GLU14	0.805	
216	 OE1	2319.787	708.894	-2415.959	O.co2	14	GLU14	-0.819	
217	 OE2	2320.834	709.087	-2417.870	O.co2	14	GLU14	-0.819	
218	   H	2320.904	712.307	-2412.465	 H	14	GLU14	0.294	
219	  HA	2322.949	712.321	-2414.454	 H	14	GLU14	0.111	
220	 2HB	2319.999	711.397	-2414.686	 H	14	GLU14	-0.017	
221	 3HB	2321.307	710.415	-2414.064	 H	14	GLU14	-0.017	
222	 2HG	2322.443	710.450	-2416.360	 H	14	GLU14	-0.043	
223	 3HG	2321.139	711.443	-2416.991	 H	14	GLU14	-0.043	
224	   N	2320.389	714.231	-2415.230	N.am	15	MET15	-0.416	
225	  CA	2320.069	715.323	-2416.145	C.3	15	MET15	-0.024	
226	   C	2321.100	716.422	-2416.058	C.2	15	MET15	0.597	
227	   O	2321.603	716.932	-2417.072	O.2	15	MET15	-0.568	
228	  CB	2318.648	715.870	-2415.836	C.3	15	MET15	0.034	
229	  CG	2317.486	714.872	-2416.027	C.3	15	MET15	0.002	
230	  SD	2315.912	715.739	-2415.913	S.3	15	MET15	-0.274	
231	  CE	2314.830	714.310	-2415.775	C.3	15	MET15	-0.054	
232	   H	2319.724	713.939	-2414.528	 H	15	MET15	0.272	
233	  HA	2320.095	714.935	-2417.180	 H	15	MET15	0.088	
234	 2HB	2318.446	716.748	-2416.479	 H	15	MET15	0.024	
235	 3HB	2318.613	716.263	-2414.800	 H	15	MET15	0.024	
236	 2HG	2317.528	714.087	-2415.248	 H	15	MET15	0.044	
237	 3HG	2317.548	714.356	-2417.003	 H	15	MET15	0.044	
238	 1HE	2314.973	713.621	-2416.627	 H	15	MET15	0.068	
239	 2HE	2315.039	713.758	-2414.842	 H	15	MET15	0.068	
240	 3HE	2313.773	714.626	-2415.759	 H	15	MET15	0.068	
241	   N	2321.469	716.844	-2414.896	N.am	16	ARG16	-0.348	
242	  CA	2322.467	717.908	-2414.814	C.3	16	ARG16	-0.264	
243	   C	2323.737	717.514	-2415.530	C.2	16	ARG16	0.734	
244	   O	2323.850	716.437	-2416.111	O.2	16	ARG16	-0.589	
245	  CB	2322.736	718.227	-2413.316	C.3	16	ARG16	-0.001	
246	  CG	2323.562	719.516	-2413.045	C.3	16	ARG16	0.039	
247	  CD	2323.812	719.737	-2411.544	C.3	16	ARG16	0.049	
248	  NE	2324.589	720.996	-2411.345	N.pl3	16	ARG16	-0.530	
249	  CZ	2324.981	721.480	-2410.170	C.cat	16	ARG16	0.808	
250	 NH1	2324.733	720.896	-2409.031	N.pl3	16	ARG16	-0.863	
251	 NH2	2325.645	722.592	-2410.153	N.pl3	16	ARG16	-0.863	
252	   H	2321.075	716.445	-2414.057	 H	16	ARG16	0.275	
253	  HA	2322.057	718.800	-2415.325	 H	16	ARG16	0.156	
254	 2HB	2323.233	717.352	-2412.849	 H	16	ARG16	0.033	
255	 3HB	2321.767	718.309	-2412.782	 H	16	ARG16	0.033	
256	 2HG	2323.032	720.387	-2413.483	 H	16	ARG16	0.029	
257	 3HG	2324.535	719.462	-2413.574	 H	16	ARG16	0.029	
258	 2HD	2324.361	718.863	-2411.130	 H	16	ARG16	0.069	
259	 3HD	2322.839	719.781	-2411.009	 H	16	ARG16	0.069	
260	  HE	2324.867	721.576	-2412.143	 H	16	ARG16	0.346	
261	1HH1	2324.207	720.023	-2409.114	 H	16	ARG16	0.448	
262	2HH1	2325.068	721.333	-2408.170	 H	16	ARG16	0.448	
263	1HH2	2325.830	723.034	-2411.055	 H	16	ARG16	0.448	
264	2HH2	2325.936	722.948	-2409.241	 H	16	ARG16	0.448	
@<TRIPOS>BOND
1 1 2 1
2 1 10 1
3 2 3 1
4 2 5 1
5 2 11 1
6 3 4 2
7 3 16 1
8 5 6 1
9 6 7 1
10 7 8 2
11 7 9 1
12 5 12 1
13 5 13 1
14 6 14 1
15 6 15 1
16 16 17 1
17 16 24 1
18 17 18 1
19 17 20 1
20 17 25 1
21 18 19 2
22 18 30 1
23 20 21 1
24 21 22 1
25 21 23 2
26 20 26 1
27 20 27 1
28 22 28 1
29 22 29 1
30 30 31 1
31 30 36 1
32 31 32 1
33 31 34 1
34 31 37 1
35 32 33 2
36 32 44 1
37 34 35 1
38 35 36 1
39 34 38 1
40 34 39 1
41 35 40 1
42 35 41 1
43 36 42 1
44 36 43 1
45 44 45 1
46 44 53 1
47 45 46 1
48 45 48 1
49 45 54 1
50 46 47 2
51 46 59 1
52 48 49 1
53 49 50 1
54 50 51 2
55 50 52 1
56 48 55 1
57 48 56 1
58 49 57 1
59 49 58 1
60 59 60 1
61 59 65 1
62 60 61 1
63 60 63 1
64 60 66 1
65 61 62 2
66 61 70 1
67 63 64 1
68 63 67 1
69 63 68 1
70 64 69 1
71 70 71 1
72 70 78 1
73 71 72 1
74 71 74 1
75 71 79 1
76 72 73 2
77 72 89 1
78 74 75 1
79 74 76 1
80 75 77 1
81 74 80 1
82 75 81 1
83 75 82 1
84 76 83 1
85 76 84 1
86 76 85 1
87 77 86 1
88 77 87 1
89 77 88 1
90 89 90 1
91 89 97 1
92 90 91 1
93 90 93 1
94 90 98 1
95 91 92 2
96 91 108 1
97 93 94 1
98 94 95 1
99 94 96 1
100 93 99 1
101 93 100 1
102 94 101 1
103 95 102 1
104 95 103 1
105 95 104 1
106 96 105 1
107 96 106 1
108 96 107 1
109 108 109 1
110 108 116 1
111 109 110 1
112 109 112 1
113 109 117 1
114 110 111 2
115 110 120 1
116 112 113 1
117 113 114 2
118 113 115 1
119 112 118 1
120 112 119 1
121 120 121 1
122 120 129 1
123 121 122 1
124 121 124 1
125 121 130 1
126 122 123 2
127 122 135 1
128 124 125 1
129 125 126 1
130 126 127 2
131 126 128 1
132 124 131 1
133 124 132 1
134 125 133 1
135 125 134 1
136 135 136 1
137 135 145 1
138 136 137 1
139 136 139 1
140 136 146 1
141 137 138 2
142 137 152 1
143 139 140 1
144 140 141 2
145 141 144 1
146 140 142 1
147 142 143 2
148 143 144 1
149 139 147 1
150 139 148 1
151 141 149 1
152 143 150 1
153 144 151 1
154 152 153 1
155 152 159 1
156 153 154 1
157 153 156 1
158 153 160 1
159 154 155 2
160 154 168 1
161 156 157 1
162 156 158 1
163 156 161 1
164 157 162 1
165 157 163 1
166 157 164 1
167 158 165 1
168 158 166 1
169 158 167 1
170 168 169 1
171 168 177 1
172 169 170 1
173 169 172 1
174 169 178 1
175 170 171 2
176 170 185 1
177 172 173 1
178 173 174 1
179 174 175 1
180 174 176 2
181 172 179 1
182 172 180 1
183 173 181 1
184 173 182 1
185 175 183 1
186 175 184 1
187 185 186 1
188 185 196 1
189 186 187 1
190 186 189 1
191 186 197 1
192 187 188 2
193 187 209 1
194 189 190 1
195 190 191 1
196 191 192 1
197 192 193 1
198 193 194 2
199 193 195 1
200 189 198 1
201 189 199 1
202 190 200 1
203 190 201 1
204 191 202 1
205 191 203 1
206 192 204 1
207 194 205 1
208 194 206 1
209 195 207 1
210 195 208 1
211 209 210 1
212 209 218 1
213 210 211 1
214 210 213 1
215 210 219 1
216 211 212 2
217 211 224 1
218 213 214 1
219 214 215 1
220 215 216 2
221 215 217 1
222 213 220 1
223 213 221 1
224 214 222 1
225 214 223 1
226 224 225 1
227 224 232 1
228 225 226 1
229 225 228 1
230 225 233 1
231 226 227 2
232 226 241 1
233 228 229 1
234 229 230 1
235 230 231 1
236 228 234 1
237 228 235 1
238 229 236 1
239 229 237 1
240 231 238 1
241 231 239 1
242 231 240 1
243 241 242 1
244 241 252 1
245 242 243 1
246 242 245 1
247 242 253 1
248 243 244 2
249 245 246 1
250 246 247 1
251 247 248 1
252 248 249 1
253 249 250 2
254 249 251 1
255 245 254 1
256 245 255 1
257 246 256 1
258 246 257 1
259 247 258 1
260 247 259 1
261 248 260 1
262 250 261 1
263 250 262 1
264 251 263 1
265 251 264 1
@<TRIPOS>SUBSTRUCTURE
1	GLU1	1	RESIDUE	1 ****	GLU
2	ASN2	16	RESIDUE	1 ****	ASN
3	PRO3	30	RESIDUE	1 ****	PRO
4	GLU4	44	RESIDUE	1 ****	GLU
5	SER5	59	RESIDUE	1 ****	SER
6	ILE6	70	RESIDUE	1 ****	ILE
7	LEU7	89	RESIDUE	1 ****	LEU
8	ASP8	108	RESIDUE	1 ****	ASP
9	GLU9	120	RESIDUE	1 ****	GLU
10	HIS10	135	RESIDUE	1 ****	HIS
11	VAL11	152	RESIDUE	1 ****	VAL
12	GLN12	168	RESIDUE	1 ****	GLN
13	ARG13	185	RESIDUE	1 ****	ARG
14	GLU14	209	RESIDUE	1 ****	GLU
15	MET15	224	RESIDUE	1 ****	MET
16	ARG16	241	RESIDUE	1 ****	ARG
