REMARK WARNING: 32 MAX_TORS EXCEEDED!!!
REMARK  68 active torsions:
REMARK  status: ('A' for Active; 'I' for Inactive)
REMARK    1  A    between atoms: N_1  and  CA_2 
REMARK    2  A    between atoms: CA_2  and  C_3 
REMARK    3  A    between atoms: CA_2  and  CB_5 
REMARK       I    between atoms: C_3  and  N_11 
REMARK    4  A    between atoms: CB_5  and  CG_6 
REMARK    5  A    between atoms: CG_6  and  CD_7 
REMARK    6  A    between atoms: N_11  and  CA_12 
REMARK    7  A    between atoms: CA_12  and  C_13 
REMARK    8  A    between atoms: CA_12  and  CB_15 
REMARK       I    between atoms: C_13  and  N_22 
REMARK    9  A    between atoms: CB_15  and  CG_16 
REMARK       I    between atoms: CG_16  and  ND2_17 
REMARK   10  A    between atoms: CA_23  and  C_24 
REMARK       I    between atoms: C_24  and  N_29 
REMARK   11  A    between atoms: N_29  and  CA_30 
REMARK   12  A    between atoms: CA_30  and  C_31 
REMARK   13  A    between atoms: CA_30  and  CB_33 
REMARK       I    between atoms: C_31  and  N_39 
REMARK   14  A    between atoms: CB_33  and  CG_34 
REMARK   15  A    between atoms: CG_34  and  CD_35 
REMARK   16  A    between atoms: N_39  and  CA_40 
REMARK   17  A    between atoms: CA_40  and  C_41 
REMARK   18  A    between atoms: CA_40  and  CB_43 
REMARK       I    between atoms: C_41  and  N_47 
REMARK   19  A    between atoms: CB_43  and  OG_44 
REMARK   20  A    between atoms: N_47  and  CA_48 
REMARK   21  A    between atoms: CA_48  and  C_49 
REMARK   22  A    between atoms: CA_48  and  CB_51 
REMARK       I    between atoms: C_49  and  N_56 
REMARK   23  A    between atoms: CB_51  and  CG1_52 
REMARK   24  A    between atoms: N_56  and  CA_57 
REMARK   25  A    between atoms: CA_57  and  C_58 
REMARK   26  A    between atoms: CA_57  and  CB_60 
REMARK       I    between atoms: C_58  and  N_65 
REMARK   27  A    between atoms: CB_60  and  CG_61 
REMARK   28  A    between atoms: N_65  and  CA_66 
REMARK   29  A    between atoms: CA_66  and  C_67 
REMARK   30  A    between atoms: CA_66  and  CB_69 
REMARK       I    between atoms: C_67  and  N_74 
REMARK   31  A    between atoms: CB_69  and  CG_70 
REMARK   32  A    between atoms: N_74  and  CA_75 
REMARK   33  A    between atoms: CA_75  and  C_76 
REMARK   34  A    between atoms: CA_75  and  CB_78 
REMARK       I    between atoms: C_76  and  N_84 
REMARK   35  A    between atoms: CB_78  and  CG_79 
REMARK   36  A    between atoms: CG_79  and  CD_80 
REMARK   37  A    between atoms: N_84  and  CA_85 
REMARK   38  A    between atoms: CA_85  and  C_86 
REMARK   39  A    between atoms: CA_85  and  CB_88 
REMARK       I    between atoms: C_86  and  N_93 
REMARK   40  A    between atoms: CB_88  and  CG1_89 
REMARK   41  A    between atoms: N_93  and  CA_94 
REMARK   42  A    between atoms: CA_94  and  C_95 
REMARK   43  A    between atoms: CA_94  and  CB_97 
REMARK       I    between atoms: C_95  and  N_101 
REMARK   44  A    between atoms: N_101  and  CA_102 
REMARK   45  A    between atoms: CA_102  and  C_103 
REMARK   46  A    between atoms: CA_102  and  CB_105 
REMARK       I    between atoms: C_103  and  N_113 
REMARK   47  A    between atoms: CB_105  and  CG_106 
REMARK   48  A    between atoms: CG_106  and  CD_107 
REMARK       I    between atoms: CD_107  and  NE2_108 
REMARK   49  A    between atoms: N_113  and  CA_114 
REMARK   50  A    between atoms: CA_114  and  C_115 
REMARK   51  A    between atoms: CA_114  and  CB_117 
REMARK       I    between atoms: C_115  and  N_130 
REMARK   52  A    between atoms: CB_117  and  CG_118 
REMARK   53  A    between atoms: CG_118  and  CD_119 
REMARK   54  A    between atoms: CD_119  and  NE_120 
REMARK       I    between atoms: NE_120  and  CZ_121 
REMARK       I    between atoms: CZ_121  and  NH1_122 
REMARK       I    between atoms: CZ_121  and  NH2_123 
REMARK   55  A    between atoms: N_130  and  CA_131 
REMARK   56  A    between atoms: CA_131  and  C_132 
REMARK   57  A    between atoms: CA_131  and  CB_134 
REMARK       I    between atoms: C_132  and  N_138 
REMARK   58  A    between atoms: N_138  and  CA_139 
REMARK   59  A    between atoms: CA_139  and  C_140 
REMARK   60  A    between atoms: CA_139  and  CB_142 
REMARK       I    between atoms: C_140  and  N_147 
REMARK   61  A    between atoms: CB_142  and  CG_143 
REMARK   62  A    between atoms: CG_143  and  SD_144 
REMARK   63  A    between atoms: N_147  and  CA_148 
REMARK   64  A    between atoms: CA_148  and  C_149 
REMARK   65  A    between atoms: CA_148  and  CB_151 
REMARK   66  A    between atoms: CB_151  and  CG_152 
REMARK   67  A    between atoms: CG_152  and  CD_153 
REMARK   68  A    between atoms: CD_153  and  NE_154 
REMARK       I    between atoms: NE_154  and  CZ_155 
REMARK       I    between atoms: CZ_155  and  NH1_156 
ROOT
ATOM      1  C   GLU d   9    1568.175 467.675-1590.306  0.00  0.00     0.241 C 
ATOM      2  O   GLU d   9    1568.839 468.430-1591.031  0.00  0.00    -0.271 OA
ATOM      3  N   ILE d  10    1568.272 466.400-1590.476  0.00  0.00    -0.346 N 
ATOM      4  H   ILE d  10    1567.741 465.764-1589.898  0.00  0.00     0.163 HD
ENDROOT
BRANCH   1   5
ATOM      5  CA  GLU d   9    1567.257 468.202-1589.229  0.00  0.00     0.177 C 
BRANCH   5   6
ATOM      6  N   GLU d   9    1565.954 467.544-1589.285  0.00  0.00    -0.346 N 
ATOM      7  C   ASP d   8    1565.275 467.594-1590.380  0.00  0.00     0.241 C 
ATOM      8  O   ASP d   8    1565.747 468.200-1591.354  0.00  0.00    -0.271 OA
ATOM      9  H   GLU d   9    1565.591 467.058-1588.478  0.00  0.00     0.163 HD
BRANCH   7  10
ATOM     10  CA  ASP d   8    1563.928 466.915-1590.438  0.00  0.00     0.186 C 
BRANCH  10  11
ATOM     11  N   ASP d   8    1563.999 465.565-1589.885  0.00  0.00    -0.346 N 
ATOM     12  C   LEU d   7    1564.836 464.724-1590.391  0.00  0.00     0.241 C 
ATOM     13  O   LEU d   7    1565.556 465.087-1591.333  0.00  0.00    -0.271 OA
ATOM     14  H   ASP d   8    1563.401 465.294-1589.117  0.00  0.00     0.163 HD
BRANCH  12  15
ATOM     15  CA  LEU d   7    1564.908 463.329-1589.819  0.00  0.00     0.177 C 
BRANCH  15  16
ATOM     16  N   LEU d   7    1564.963 463.365-1588.360  0.00  0.00    -0.346 N 
ATOM     17  C   ILE d   6    1565.909 464.028-1587.787  0.00  0.00     0.241 C 
ATOM     18  O   ILE d   6    1566.744 464.616-1588.491  0.00  0.00    -0.271 OA
ATOM     19  H   LEU d   7    1564.271 462.878-1587.809  0.00  0.00     0.163 HD
BRANCH  17  20
ATOM     20  CA  ILE d   6    1565.967 464.066-1586.279  0.00  0.00     0.180 C 
BRANCH  20  21
ATOM     21  N   ILE d   6    1564.654 464.360-1585.713  0.00  0.00    -0.346 N 
ATOM     22  C   SER d   5    1564.049 465.443-1586.067  0.00  0.00     0.243 C 
ATOM     23  O   SER d   5    1564.596 466.197-1586.871  0.00  0.00    -0.271 OA
ATOM     24  H   ILE d   6    1564.225 463.726-1585.054  0.00  0.00     0.163 HD
BRANCH  22  25
ATOM     25  CA  SER d   5    1562.690 465.749-1585.481  0.00  0.00     0.200 C 
BRANCH  25  26
ATOM     26  N   SER d   5    1561.821 464.578-1585.539  0.00  0.00    -0.344 N 
ATOM     27  C   GLU d   4    1561.593 464.025-1586.682  0.00  0.00     0.241 C 
ATOM     28  O   GLU d   4    1562.119 464.504-1587.697  0.00  0.00    -0.271 OA
ATOM     29  H   SER d   5    1561.404 464.206-1584.698  0.00  0.00     0.163 HD
BRANCH  27  30
ATOM     30  CA  GLU d   4    1560.694 462.814-1586.743  0.00  0.00     0.177 C 
BRANCH  30  31
ATOM     31  N   GLU d   4    1561.054 461.842-1585.714  0.00  0.00    -0.346 N 
ATOM     32  C   PRO d   3    1562.259 461.382-1585.682  0.00  0.00     0.241 C 
ATOM     33  O   PRO d   3    1563.082 461.766-1586.513  0.00  0.00    -0.271 OA
ATOM     34  H   GLU d   4    1560.370 461.536-1585.037  0.00  0.00     0.163 HD
BRANCH  32  35
ATOM     35  CA  PRO d   3    1562.657 460.359-1584.605  0.00  0.00     0.179 C 
ATOM     36  N   PRO d   3    1562.205 460.768-1583.283  0.00  0.00    -0.337 N 
ATOM     37  C   ASN d   2    1562.727 461.763-1582.649  0.00  0.00     0.243 C 
ATOM     38  CD  PRO d   3    1561.127 459.975-1582.734  0.00  0.00     0.127 C 
ATOM     39  O   ASN d   2    1563.641 462.394-1583.178  0.00  0.00    -0.271 OA
ATOM     40  CG  PRO d   3    1560.670 459.156-1583.944  0.00  0.00     0.022 C 
ATOM     41  CB  PRO d   3    1561.953 459.004-1584.774  0.00  0.00     0.037 C 
BRANCH  37  42
ATOM     42  CA  ASN d   2    1562.196 462.119-1581.280  0.00  0.00     0.185 C 
BRANCH  42  43
ATOM     43  N   ASN d   2    1560.736 462.158-1581.280  0.00  0.00    -0.346 N 
ATOM     44  C   GLU d   1    1560.132 462.943-1582.106  0.00  0.00     0.242 C 
ATOM     45  O   GLU d   1    1560.807 463.642-1582.874  0.00  0.00    -0.271 OA
ATOM     46  H   ASN d   2    1560.208 461.578-1580.644  0.00  0.00     0.163 HD
BRANCH  44  47
ATOM     47  CA  GLU d   1    1558.623 462.983-1582.106  0.00  0.00     0.191 C 
BRANCH  47  48
ATOM     48  N   GLU d   1    1558.064 461.634-1582.106  0.00  0.00    -0.326 NA
ATOM     49  H   GLU d   1    1558.691 460.755-1582.106  0.00  0.00     0.180 HD
ENDBRANCH  47  48
BRANCH  47  50
ATOM     50  CB  GLU d   1    1558.100 463.768-1580.869  0.00  0.00     0.047 C 
BRANCH  50  51
ATOM     51  CG  GLU d   1    1558.575 465.253-1580.758  0.00  0.00     0.116 C 
BRANCH  51  52
ATOM     52  CD  GLU d   1    1558.151 466.057-1579.542  0.00  0.00     0.172 C 
ATOM     53  OE1 GLU d   1    1557.423 465.555-1578.665  0.00  0.00    -0.648 OA
ATOM     54  OE2 GLU d   1    1558.581 467.227-1579.471  0.00  0.00    -0.648 OA
ENDBRANCH  51  52
ENDBRANCH  50  51
ENDBRANCH  47  50
ENDBRANCH  44  47
ENDBRANCH  42  43
BRANCH  42  55
ATOM     55  CB  ASN d   2    1562.688 461.096-1580.216  0.00  0.00     0.137 C 
BRANCH  55  56
ATOM     56  CG  ASN d   2    1562.225 461.320-1578.773  0.00  0.00     0.217 C 
ATOM     57  ND2 ASN d   2    1562.819 462.235-1578.055  0.00  0.00    -0.370 N 
ATOM     58 21HD ASN d   2    1562.338 462.408-1577.168  0.00  0.00     0.159 HD
ATOM     59 22HD ASN d   2    1563.520 462.806-1578.524  0.00  0.00     0.159 HD
ATOM     60  OD1 ASN d   2    1561.304 460.686-1578.279  0.00  0.00    -0.274 OA
ENDBRANCH  55  56
ENDBRANCH  42  55
ENDBRANCH  37  42
ENDBRANCH  32  35
ENDBRANCH  30  31
BRANCH  30  61
ATOM     61  CB  GLU d   4    1559.206 463.232-1586.573  0.00  0.00     0.045 C 
BRANCH  61  62
ATOM     62  CG  GLU d   4    1558.657 464.236-1587.638  0.00  0.00     0.116 C 
BRANCH  62  63
ATOM     63  CD  GLU d   4    1557.231 464.732-1587.495  0.00  0.00     0.172 C 
ATOM     64  OE1 GLU d   4    1556.505 464.334-1586.564  0.00  0.00    -0.648 OA
ATOM     65  OE2 GLU d   4    1556.841 465.562-1588.343  0.00  0.00    -0.648 OA
ENDBRANCH  62  63
ENDBRANCH  61  62
ENDBRANCH  30  61
ENDBRANCH  27  30
ENDBRANCH  25  26
BRANCH  25  66
ATOM     66  CB  SER d   5    1562.802 466.281-1584.030  0.00  0.00     0.199 C 
BRANCH  66  67
ATOM     67  OG  SER d   5    1563.534 465.402-1583.169  0.00  0.00    -0.398 OA
ATOM     68  HG  SER d   5    1563.045 464.577-1583.119  0.00  0.00     0.209 HD
ENDBRANCH  66  67
ENDBRANCH  25  66
ENDBRANCH  22  25
ENDBRANCH  20  21
BRANCH  20  69
ATOM     69  CB  ILE d   6    1566.566 462.729-1585.679  0.00  0.00     0.013 C 
ATOM     70  CG2 ILE d   6    1568.008 462.428-1586.195  0.00  0.00     0.012 C 
BRANCH  69  71
ATOM     71  CG1 ILE d   6    1566.586 462.667-1584.118  0.00  0.00     0.002 C 
ATOM     72  CD1 ILE d   6    1566.856 461.278-1583.503  0.00  0.00     0.005 C 
ENDBRANCH  69  71
ENDBRANCH  20  69
ENDBRANCH  17  20
ENDBRANCH  15  16
BRANCH  15  73
ATOM     73  CB  LEU d   7    1563.705 462.469-1590.299  0.00  0.00     0.038 C 
BRANCH  73  74
ATOM     74  CG  LEU d   7    1563.633 460.989-1589.833  0.00  0.00    -0.020 C 
ATOM     75  CD1 LEU d   7    1562.443 460.284-1590.499  0.00  0.00     0.009 C 
ATOM     76  CD2 LEU d   7    1564.926 460.210-1590.125  0.00  0.00     0.009 C 
ENDBRANCH  73  74
ENDBRANCH  15  73
ENDBRANCH  12  15
ENDBRANCH  10  11
BRANCH  10  77
ATOM     77  CB  ASP d   8    1562.850 467.753-1589.695  0.00  0.00     0.147 C 
BRANCH  77  78
ATOM     78  CG  ASP d   8    1562.631 469.174-1590.236  0.00  0.00     0.175 C 
ATOM     79  OD1 ASP d   8    1562.695 469.374-1591.466  0.00  0.00    -0.648 OA
ATOM     80  OD2 ASP d   8    1562.439 470.100-1589.420  0.00  0.00    -0.648 OA
ENDBRANCH  77  78
ENDBRANCH  10  77
ENDBRANCH   7  10
ENDBRANCH   5   6
BRANCH   5  81
ATOM     81  CB  GLU d   9    1567.891 467.994-1587.824  0.00  0.00     0.045 C 
BRANCH  81  82
ATOM     82  CG  GLU d   9    1569.273 468.686-1587.595  0.00  0.00     0.116 C 
BRANCH  82  83
ATOM     83  CD  GLU d   9    1569.975 468.473-1586.267  0.00  0.00     0.172 C 
ATOM     84  OE1 GLU d   9    1569.454 467.781-1585.371  0.00  0.00    -0.648 OA
ATOM     85  OE2 GLU d   9    1571.094 469.010-1586.135  0.00  0.00    -0.648 OA
ENDBRANCH  82  83
ENDBRANCH  81  82
ENDBRANCH   5  81
ENDBRANCH   1   5
BRANCH   3  86
ATOM     86  CA  ILE d  10    1569.160 465.890-1591.517  0.00  0.00     0.180 C 
BRANCH  86  87
ATOM     87  C   ILE d  10    1568.792 466.456-1592.867  0.00  0.00     0.241 C 
ATOM     88  O   ILE d  10    1569.644 466.923-1593.638  0.00  0.00    -0.271 OA
ATOM     89  N   VAL d  11    1567.554 466.455-1593.229  0.00  0.00    -0.346 N 
ATOM     90  H   VAL d  11    1566.842 466.081-1592.619  0.00  0.00     0.163 HD
BRANCH  89  91
ATOM     91  CA  VAL d  11    1567.198 467.003-1594.535  0.00  0.00     0.180 C 
BRANCH  91  92
ATOM     92  C   VAL d  11    1567.661 468.434-1594.666  0.00  0.00     0.241 C 
ATOM     93  O   VAL d  11    1568.261 468.841-1595.669  0.00  0.00    -0.271 OA
ATOM     94  N   GLN d  12    1567.424 469.258-1593.702  0.00  0.00    -0.346 N 
ATOM     95  H   GLN d  12    1566.936 468.951-1592.873  0.00  0.00     0.163 HD
BRANCH  94  96
ATOM     96  CA  GLN d  12    1567.871 470.642-1593.828  0.00  0.00     0.177 C 
BRANCH  96  97
ATOM     97  C   GLN d  12    1569.361 470.710-1594.066  0.00  0.00     0.241 C 
ATOM     98  O   GLN d  12    1569.847 471.420-1594.944  0.00  0.00    -0.271 OA
ATOM     99  N   ARG d  13    1570.146 470.003-1593.327  0.00  0.00    -0.346 N 
ATOM    100  H   ARG d  13    1569.771 469.412-1592.599  0.00  0.00     0.163 HD
BRANCH  99 101
ATOM    101  CA  ARG d  13    1571.587 470.070-1593.558  0.00  0.00     0.176 C 
BRANCH 101 102
ATOM    102  C   ARG d  13    1571.922 469.701-1594.984  0.00  0.00     0.241 C 
ATOM    103  O   ARG d  13    1572.690 470.374-1595.667  0.00  0.00    -0.271 OA
ATOM    104  N   VAL d  14    1571.387 468.647-1595.500  0.00  0.00    -0.346 N 
ATOM    105  H   VAL d  14    1570.752 468.077-1594.958  0.00  0.00     0.163 HD
BRANCH 104 106
ATOM    106  CA  VAL d  14    1571.711 468.290-1596.878  0.00  0.00     0.180 C 
BRANCH 106 107
ATOM    107  C   VAL d  14    1571.380 469.421-1597.821  0.00  0.00     0.241 C 
ATOM    108  O   VAL d  14    1572.173 469.804-1598.691  0.00  0.00    -0.271 OA
ATOM    109  N   MET d  15    1570.235 470.006-1597.718  0.00  0.00    -0.346 N 
ATOM    110  H   MET d  15    1569.570 469.712-1597.017  0.00  0.00     0.163 HD
BRANCH 109 111
ATOM    111  CA  MET d  15    1569.914 471.100-1598.630  0.00  0.00     0.177 C 
BRANCH 111 112
ATOM    112  C   MET d  15    1570.943 472.200-1598.541  0.00  0.00     0.241 C 
ATOM    113  O   MET d  15    1571.446 472.713-1599.553  0.00  0.00    -0.271 OA
ATOM    114  N   ARG d  16    1571.312 472.620-1597.378  0.00  0.00    -0.347 N 
ATOM    115  H   ARG d  16    1570.918 472.218-1596.539  0.00  0.00     0.163 HD
BRANCH 114 116
ATOM    116  CA  ARG d  16    1572.308 473.684-1597.293  0.00  0.00     0.162 C 
BRANCH 116 117
ATOM    117  C   ARG d  16    1573.579 473.293-1598.010  0.00  0.00     0.219 C 
ATOM    118  O   ARG d  16    1573.693 472.217-1598.593  0.00  0.00    -0.287 OA
ENDBRANCH 116 117
BRANCH 116 119
ATOM    119  CB  ARG d  16    1572.577 474.000-1595.794  0.00  0.00     0.035 C 
BRANCH 119 120
ATOM    120  CG  ARG d  16    1573.402 475.289-1595.519  0.00  0.00     0.023 C 
BRANCH 120 121
ATOM    121  CD  ARG d  16    1573.651 475.506-1594.018  0.00  0.00     0.138 C 
BRANCH 121 122
ATOM    122  NE  ARG d  16    1574.427 476.765-1593.815  0.00  0.00    -0.227 N 
ATOM    123  CZ  ARG d  16    1574.818 477.246-1592.639  0.00  0.00     0.665 C 
ATOM    124  NH1 ARG d  16    1574.571 476.659-1591.501  0.00  0.00    -0.235 N 
ATOM    125  NH2 ARG d  16    1575.482 478.358-1592.619  0.00  0.00    -0.235 N 
ATOM    126 11HH ARG d  16    1574.046 475.786-1591.587  0.00  0.00     0.174 HD
ATOM    127 12HH ARG d  16    1574.905 477.094-1590.639  0.00  0.00     0.174 HD
ATOM    128 21HH ARG d  16    1575.667 478.803-1593.520  0.00  0.00     0.174 HD
ATOM    129 22HH ARG d  16    1575.772 478.712-1591.705  0.00  0.00     0.174 HD
ATOM    130  HE  ARG d  16    1574.705 477.347-1594.611  0.00  0.00     0.177 HD
ENDBRANCH 121 122
ENDBRANCH 120 121
ENDBRANCH 119 120
ENDBRANCH 116 119
ENDBRANCH 114 116
ENDBRANCH 111 112
BRANCH 111 131
ATOM    131  CB  MET d  15    1568.492 471.645-1598.320  0.00  0.00     0.045 C 
BRANCH 131 132
ATOM    132  CG  MET d  15    1567.331 470.646-1598.513  0.00  0.00     0.076 C 
BRANCH 132 133
ATOM    133  SD  MET d  15    1565.756 471.511-1598.397  0.00  0.00    -0.173 SA
ATOM    134  CE  MET d  15    1564.676 470.081-1598.262  0.00  0.00     0.089 C 
ENDBRANCH 132 133
ENDBRANCH 131 132
ENDBRANCH 111 131
ENDBRANCH 109 111
ENDBRANCH 106 107
BRANCH 106 135
ATOM    135  CB  VAL d  14    1570.939 466.973-1597.287  0.00  0.00     0.009 C 
ATOM    136  CG1 VAL d  14    1571.028 466.557-1598.781  0.00  0.00     0.012 C 
ATOM    137  CG2 VAL d  14    1571.372 465.720-1596.488  0.00  0.00     0.012 C 
ENDBRANCH 106 135
ENDBRANCH 104 106
ENDBRANCH 101 102
BRANCH 101 138
ATOM    138  CB  ARG d  13    1572.301 469.130-1592.546  0.00  0.00     0.036 C 
BRANCH 138 139
ATOM    139  CG  ARG d  13    1573.845 469.283-1592.465  0.00  0.00     0.023 C 
BRANCH 139 140
ATOM    140  CD  ARG d  13    1574.473 468.295-1591.469  0.00  0.00     0.138 C 
BRANCH 140 141
ATOM    141  NE  ARG d  13    1575.951 468.503-1591.419  0.00  0.00    -0.227 N 
ATOM    142  CZ  ARG d  13    1576.799 467.810-1590.665  0.00  0.00     0.665 C 
ATOM    143  NH1 ARG d  13    1576.435 466.844-1589.869  0.00  0.00    -0.235 N 
ATOM    144  NH2 ARG d  13    1578.058 468.110-1590.722  0.00  0.00    -0.235 N 
ATOM    145 11HH ARG d  13    1575.429 466.657-1589.872  0.00  0.00     0.174 HD
ATOM    146 12HH ARG d  13    1577.148 466.361-1589.321  0.00  0.00     0.174 HD
ATOM    147 21HH ARG d  13    1578.325 468.869-1591.352  0.00  0.00     0.174 HD
ATOM    148 22HH ARG d  13    1578.694 467.568-1590.134  0.00  0.00     0.174 HD
ATOM    149  HE  ARG d  13    1576.401 469.226-1591.989  0.00  0.00     0.177 HD
ENDBRANCH 140 141
ENDBRANCH 139 140
ENDBRANCH 138 139
ENDBRANCH 101 138
ENDBRANCH  99 101
ENDBRANCH  96  97
BRANCH  96 150
ATOM    150  CB  GLN d  12    1567.481 471.407-1592.544  0.00  0.00     0.044 C 
BRANCH 150 151
ATOM    151  CG  GLN d  12    1567.840 472.929-1592.511  0.00  0.00     0.105 C 
BRANCH 151 152
ATOM    152  CD  GLN d  12    1567.537 473.741-1591.245  0.00  0.00     0.215 C 
ATOM    153  NE2 GLN d  12    1566.971 473.162-1590.216  0.00  0.00    -0.370 N 
ATOM    154 21HE GLN d  12    1566.864 473.756-1589.392  0.00  0.00     0.159 HD
ATOM    155 22HE GLN d  12    1566.808 472.159-1590.321  0.00  0.00     0.159 HD
ATOM    156  OE1 GLN d  12    1567.839 474.922-1591.166  0.00  0.00    -0.274 OA
ENDBRANCH 151 152
ENDBRANCH 150 151
ENDBRANCH  96 150
ENDBRANCH  94  96
ENDBRANCH  91  92
BRANCH  91 157
ATOM    157  CB  VAL d  11    1565.636 466.895-1594.754  0.00  0.00     0.009 C 
ATOM    158  CG1 VAL d  11    1565.067 467.601-1596.016  0.00  0.00     0.012 C 
ATOM    159  CG2 VAL d  11    1565.113 465.441-1594.829  0.00  0.00     0.012 C 
ENDBRANCH  91 157
ENDBRANCH  89  91
ENDBRANCH  86  87
BRANCH  86 160
ATOM    160  CB  ILE d  10    1569.185 464.308-1591.529  0.00  0.00     0.013 C 
ATOM    161  CG2 ILE d  10    1570.191 463.726-1592.571  0.00  0.00     0.012 C 
BRANCH 160 162
ATOM    162  CG1 ILE d  10    1569.485 463.650-1590.144  0.00  0.00     0.002 C 
ATOM    163  CD1 ILE d  10    1569.203 462.136-1590.043  0.00  0.00     0.005 C 
ENDBRANCH 160 162
ENDBRANCH  86 160
ENDBRANCH   3  86
TORSDOF 68
