REMARK WARNING: 32 MAX_TORS EXCEEDED!!!
REMARK  68 active torsions:
REMARK  status: ('A' for Active; 'I' for Inactive)
REMARK    1  A    between atoms: N_1  and  CA_2 
REMARK    2  A    between atoms: CA_2  and  C_3 
REMARK    3  A    between atoms: CA_2  and  CB_5 
REMARK       I    between atoms: C_3  and  N_11 
REMARK    4  A    between atoms: CB_5  and  CG_6 
REMARK    5  A    between atoms: CG_6  and  CD_7 
REMARK    6  A    between atoms: N_11  and  CA_12 
REMARK    7  A    between atoms: CA_12  and  C_13 
REMARK    8  A    between atoms: CA_12  and  CB_15 
REMARK       I    between atoms: C_13  and  N_22 
REMARK    9  A    between atoms: CB_15  and  CG_16 
REMARK       I    between atoms: CG_16  and  ND2_17 
REMARK   10  A    between atoms: CA_23  and  C_24 
REMARK       I    between atoms: C_24  and  N_29 
REMARK   11  A    between atoms: N_29  and  CA_30 
REMARK   12  A    between atoms: CA_30  and  C_31 
REMARK   13  A    between atoms: CA_30  and  CB_33 
REMARK       I    between atoms: C_31  and  N_39 
REMARK   14  A    between atoms: CB_33  and  CG_34 
REMARK   15  A    between atoms: CG_34  and  CD_35 
REMARK   16  A    between atoms: N_39  and  CA_40 
REMARK   17  A    between atoms: CA_40  and  C_41 
REMARK   18  A    between atoms: CA_40  and  CB_43 
REMARK       I    between atoms: C_41  and  N_47 
REMARK   19  A    between atoms: CB_43  and  OG_44 
REMARK   20  A    between atoms: N_47  and  CA_48 
REMARK   21  A    between atoms: CA_48  and  C_49 
REMARK   22  A    between atoms: CA_48  and  CB_51 
REMARK       I    between atoms: C_49  and  N_56 
REMARK   23  A    between atoms: CB_51  and  CG1_52 
REMARK   24  A    between atoms: N_56  and  CA_57 
REMARK   25  A    between atoms: CA_57  and  C_58 
REMARK   26  A    between atoms: CA_57  and  CB_60 
REMARK       I    between atoms: C_58  and  N_65 
REMARK   27  A    between atoms: CB_60  and  CG_61 
REMARK   28  A    between atoms: N_65  and  CA_66 
REMARK   29  A    between atoms: CA_66  and  C_67 
REMARK   30  A    between atoms: CA_66  and  CB_69 
REMARK       I    between atoms: C_67  and  N_74 
REMARK   31  A    between atoms: CB_69  and  CG_70 
REMARK   32  A    between atoms: N_74  and  CA_75 
REMARK   33  A    between atoms: CA_75  and  C_76 
REMARK   34  A    between atoms: CA_75  and  CB_78 
REMARK       I    between atoms: C_76  and  N_84 
REMARK   35  A    between atoms: CB_78  and  CG_79 
REMARK   36  A    between atoms: CG_79  and  CD_80 
REMARK   37  A    between atoms: N_84  and  CA_85 
REMARK   38  A    between atoms: CA_85  and  C_86 
REMARK   39  A    between atoms: CA_85  and  CB_88 
REMARK       I    between atoms: C_86  and  N_96 
REMARK   40  A    between atoms: CB_88  and  CG_89 
REMARK   41  A    between atoms: N_96  and  CA_97 
REMARK   42  A    between atoms: CA_97  and  C_98 
REMARK   43  A    between atoms: CA_97  and  CB_100 
REMARK       I    between atoms: C_98  and  N_104 
REMARK   44  A    between atoms: N_104  and  CA_105 
REMARK   45  A    between atoms: CA_105  and  C_106 
REMARK   46  A    between atoms: CA_105  and  CB_108 
REMARK       I    between atoms: C_106  and  N_116 
REMARK   47  A    between atoms: CB_108  and  CG_109 
REMARK   48  A    between atoms: CG_109  and  CD_110 
REMARK       I    between atoms: CD_110  and  NE2_111 
REMARK   49  A    between atoms: N_116  and  CA_117 
REMARK   50  A    between atoms: CA_117  and  C_118 
REMARK   51  A    between atoms: CA_117  and  CB_120 
REMARK       I    between atoms: C_118  and  N_133 
REMARK   52  A    between atoms: CB_120  and  CG_121 
REMARK   53  A    between atoms: CG_121  and  CD_122 
REMARK   54  A    between atoms: CD_122  and  NE_123 
REMARK       I    between atoms: NE_123  and  CZ_124 
REMARK       I    between atoms: CZ_124  and  NH1_125 
REMARK       I    between atoms: CZ_124  and  NH2_126 
REMARK   55  A    between atoms: N_133  and  CA_134 
REMARK   56  A    between atoms: CA_134  and  C_135 
REMARK   57  A    between atoms: CA_134  and  CB_137 
REMARK       I    between atoms: C_135  and  N_141 
REMARK   58  A    between atoms: N_141  and  CA_142 
REMARK   59  A    between atoms: CA_142  and  C_143 
REMARK   60  A    between atoms: CA_142  and  CB_145 
REMARK       I    between atoms: C_143  and  N_150 
REMARK   61  A    between atoms: CB_145  and  CG_146 
REMARK   62  A    between atoms: CG_146  and  SD_147 
REMARK   63  A    between atoms: N_150  and  CA_151 
REMARK   64  A    between atoms: CA_151  and  C_152 
REMARK   65  A    between atoms: CA_151  and  CB_154 
REMARK   66  A    between atoms: CB_154  and  CG_155 
REMARK   67  A    between atoms: CG_155  and  CD_156 
REMARK   68  A    between atoms: CD_156  and  NE_157 
REMARK       I    between atoms: NE_157  and  CZ_158 
REMARK       I    between atoms: CZ_158  and  NH1_159 
ROOT
ATOM      1  C   GLU d   9     911.680 250.396-878.735  0.00  0.00     0.241 C 
ATOM      2  O   GLU d   9     912.344 251.151-879.460  0.00  0.00    -0.271 OA
ATOM      3  N   HIS d  10     911.777 249.121-878.905  0.00  0.00    -0.346 N 
ATOM      4  H   HIS d  10     911.247 248.486-878.326  0.00  0.00     0.163 HD
ENDROOT
BRANCH   1   5
ATOM      5  CA  GLU d   9     910.762 250.924-877.659  0.00  0.00     0.177 C 
BRANCH   5   6
ATOM      6  N   GLU d   9     909.460 250.265-877.715  0.00  0.00    -0.346 N 
ATOM      7  C   ASP d   8     908.780 250.315-878.810  0.00  0.00     0.241 C 
ATOM      8  O   ASP d   8     909.253 250.921-879.785  0.00  0.00    -0.271 OA
ATOM      9  H   GLU d   9     909.096 249.779-876.908  0.00  0.00     0.163 HD
BRANCH   7  10
ATOM     10  CA  ASP d   8     907.434 249.635-878.867  0.00  0.00     0.186 C 
BRANCH  10  11
ATOM     11  N   ASP d   8     907.505 248.285-878.314  0.00  0.00    -0.346 N 
ATOM     12  C   LEU d   7     908.342 247.445-878.821  0.00  0.00     0.241 C 
ATOM     13  O   LEU d   7     909.063 247.808-879.763  0.00  0.00    -0.271 OA
ATOM     14  H   ASP d   8     906.907 248.014-877.547  0.00  0.00     0.163 HD
BRANCH  12  15
ATOM     15  CA  LEU d   7     908.415 246.049-878.248  0.00  0.00     0.177 C 
BRANCH  15  16
ATOM     16  N   LEU d   7     908.470 246.086-876.790  0.00  0.00    -0.346 N 
ATOM     17  C   ILE d   6     909.415 246.749-876.216  0.00  0.00     0.241 C 
ATOM     18  O   ILE d   6     910.250 247.337-876.920  0.00  0.00    -0.271 OA
ATOM     19  H   LEU d   7     907.778 245.598-876.239  0.00  0.00     0.163 HD
BRANCH  17  20
ATOM     20  CA  ILE d   6     909.473 246.787-874.708  0.00  0.00     0.180 C 
BRANCH  20  21
ATOM     21  N   ILE d   6     908.159 247.082-874.142  0.00  0.00    -0.346 N 
ATOM     22  C   SER d   5     907.554 248.165-874.496  0.00  0.00     0.243 C 
ATOM     23  O   SER d   5     908.102 248.918-875.301  0.00  0.00    -0.271 OA
ATOM     24  H   ILE d   6     907.731 246.447-873.483  0.00  0.00     0.163 HD
BRANCH  22  25
ATOM     25  CA  SER d   5     906.195 248.470-873.911  0.00  0.00     0.200 C 
BRANCH  25  26
ATOM     26  N   SER d   5     905.326 247.299-873.969  0.00  0.00    -0.344 N 
ATOM     27  C   GLU d   4     905.099 246.746-875.112  0.00  0.00     0.241 C 
ATOM     28  O   GLU d   4     905.625 247.225-876.127  0.00  0.00    -0.271 OA
ATOM     29  H   SER d   5     904.909 246.927-873.128  0.00  0.00     0.163 HD
BRANCH  27  30
ATOM     30  CA  GLU d   4     904.200 245.534-875.174  0.00  0.00     0.177 C 
BRANCH  30  31
ATOM     31  N   GLU d   4     904.560 244.563-874.144  0.00  0.00    -0.346 N 
ATOM     32  C   PRO d   3     905.765 244.104-874.112  0.00  0.00     0.241 C 
ATOM     33  O   PRO d   3     906.588 244.487-874.943  0.00  0.00    -0.271 OA
ATOM     34  H   GLU d   4     903.876 244.257-873.467  0.00  0.00     0.163 HD
BRANCH  32  35
ATOM     35  CA  PRO d   3     906.163 243.080-873.035  0.00  0.00     0.179 C 
ATOM     36  N   PRO d   3     905.711 243.489-871.713  0.00  0.00    -0.337 N 
ATOM     37  C   ASN d   2     906.232 244.484-871.079  0.00  0.00     0.243 C 
ATOM     38  CD  PRO d   3     904.633 242.696-871.164  0.00  0.00     0.127 C 
ATOM     39  O   ASN d   2     907.147 245.115-871.608  0.00  0.00    -0.271 OA
ATOM     40  CG  PRO d   3     904.176 241.877-872.374  0.00  0.00     0.022 C 
ATOM     41  CB  PRO d   3     905.459 241.725-873.204  0.00  0.00     0.037 C 
BRANCH  37  42
ATOM     42  CA  ASN d   2     905.701 244.840-869.710  0.00  0.00     0.185 C 
BRANCH  42  43
ATOM     43  N   ASN d   2     904.242 244.878-869.710  0.00  0.00    -0.346 N 
ATOM     44  C   GLU d   1     903.637 245.664-870.535  0.00  0.00     0.242 C 
ATOM     45  O   GLU d   1     904.313 246.363-871.304  0.00  0.00    -0.271 OA
ATOM     46  H   ASN d   2     903.714 244.299-869.074  0.00  0.00     0.163 HD
BRANCH  44  47
ATOM     47  CA  GLU d   1     902.128 245.704-870.535  0.00  0.00     0.191 C 
BRANCH  47  48
ATOM     48  N   GLU d   1     901.569 244.355-870.535  0.00  0.00    -0.326 NA
ATOM     49  H   GLU d   1     902.196 243.476-870.535  0.00  0.00     0.180 HD
ENDBRANCH  47  48
BRANCH  47  50
ATOM     50  CB  GLU d   1     901.605 246.489-869.298  0.00  0.00     0.047 C 
BRANCH  50  51
ATOM     51  CG  GLU d   1     902.080 247.974-869.187  0.00  0.00     0.116 C 
BRANCH  51  52
ATOM     52  CD  GLU d   1     901.656 248.778-867.972  0.00  0.00     0.172 C 
ATOM     53  OE1 GLU d   1     900.928 248.276-867.094  0.00  0.00    -0.648 OA
ATOM     54  OE2 GLU d   1     902.086 249.948-867.900  0.00  0.00    -0.648 OA
ENDBRANCH  51  52
ENDBRANCH  50  51
ENDBRANCH  47  50
ENDBRANCH  44  47
ENDBRANCH  42  43
BRANCH  42  55
ATOM     55  CB  ASN d   2     906.193 243.817-868.646  0.00  0.00     0.137 C 
BRANCH  55  56
ATOM     56  CG  ASN d   2     905.730 244.041-867.203  0.00  0.00     0.217 C 
ATOM     57  ND2 ASN d   2     906.324 244.956-866.484  0.00  0.00    -0.370 N 
ATOM     58 21HD ASN d   2     905.844 245.129-865.598  0.00  0.00     0.159 HD
ATOM     59 22HD ASN d   2     907.026 245.527-866.954  0.00  0.00     0.159 HD
ATOM     60  OD1 ASN d   2     904.810 243.407-866.708  0.00  0.00    -0.274 OA
ENDBRANCH  55  56
ENDBRANCH  42  55
ENDBRANCH  37  42
ENDBRANCH  32  35
ENDBRANCH  30  31
BRANCH  30  61
ATOM     61  CB  GLU d   4     902.712 245.953-875.003  0.00  0.00     0.045 C 
BRANCH  61  62
ATOM     62  CG  GLU d   4     902.163 246.956-876.069  0.00  0.00     0.116 C 
BRANCH  62  63
ATOM     63  CD  GLU d   4     900.737 247.453-875.926  0.00  0.00     0.172 C 
ATOM     64  OE1 GLU d   4     900.010 247.054-874.995  0.00  0.00    -0.648 OA
ATOM     65  OE2 GLU d   4     900.347 248.282-876.774  0.00  0.00    -0.648 OA
ENDBRANCH  62  63
ENDBRANCH  61  62
ENDBRANCH  30  61
ENDBRANCH  27  30
ENDBRANCH  25  26
BRANCH  25  66
ATOM     66  CB  SER d   5     906.307 249.002-872.460  0.00  0.00     0.199 C 
BRANCH  66  67
ATOM     67  OG  SER d   5     907.039 248.123-871.599  0.00  0.00    -0.398 OA
ATOM     68  HG  SER d   5     906.550 247.298-871.549  0.00  0.00     0.209 HD
ENDBRANCH  66  67
ENDBRANCH  25  66
ENDBRANCH  22  25
ENDBRANCH  20  21
BRANCH  20  69
ATOM     69  CB  ILE d   6     910.073 245.451-874.108  0.00  0.00     0.013 C 
ATOM     70  CG2 ILE d   6     911.514 245.150-874.623  0.00  0.00     0.012 C 
BRANCH  69  71
ATOM     71  CG1 ILE d   6     910.092 245.389-872.547  0.00  0.00     0.002 C 
ATOM     72  CD1 ILE d   6     910.362 244.000-871.932  0.00  0.00     0.005 C 
ENDBRANCH  69  71
ENDBRANCH  20  69
ENDBRANCH  17  20
ENDBRANCH  15  16
BRANCH  15  73
ATOM     73  CB  LEU d   7     907.212 245.189-878.729  0.00  0.00     0.038 C 
BRANCH  73  74
ATOM     74  CG  LEU d   7     907.140 243.709-878.262  0.00  0.00    -0.020 C 
ATOM     75  CD1 LEU d   7     905.951 243.003-878.928  0.00  0.00     0.009 C 
ATOM     76  CD2 LEU d   7     908.434 242.931-878.554  0.00  0.00     0.009 C 
ENDBRANCH  73  74
ENDBRANCH  15  73
ENDBRANCH  12  15
ENDBRANCH  10  11
BRANCH  10  77
ATOM     77  CB  ASP d   8     906.355 250.473-878.126  0.00  0.00     0.147 C 
BRANCH  77  78
ATOM     78  CG  ASP d   8     906.135 251.894-878.666  0.00  0.00     0.175 C 
ATOM     79  OD1 ASP d   8     906.199 252.093-879.896  0.00  0.00    -0.648 OA
ATOM     80  OD2 ASP d   8     905.943 252.819-877.850  0.00  0.00    -0.648 OA
ENDBRANCH  77  78
ENDBRANCH  10  77
ENDBRANCH   7  10
ENDBRANCH   5   6
BRANCH   5  81
ATOM     81  CB  GLU d   9     911.395 250.716-876.254  0.00  0.00     0.045 C 
BRANCH  81  82
ATOM     82  CG  GLU d   9     912.778 251.409-876.024  0.00  0.00     0.116 C 
BRANCH  82  83
ATOM     83  CD  GLU d   9     913.479 251.196-874.696  0.00  0.00     0.172 C 
ATOM     84  OE1 GLU d   9     912.958 250.504-873.800  0.00  0.00    -0.648 OA
ATOM     85  OE2 GLU d   9     914.598 251.734-874.564  0.00  0.00    -0.648 OA
ENDBRANCH  82  83
ENDBRANCH  81  82
ENDBRANCH   5  81
ENDBRANCH   1   5
BRANCH   3  86
ATOM     86  CA  HIS d  10     912.666 248.610-879.945  0.00  0.00     0.182 C 
BRANCH  86  87
ATOM     87  C   HIS d  10     912.299 249.175-881.296  0.00  0.00     0.241 C 
ATOM     88  O   HIS d  10     913.151 249.640-882.068  0.00  0.00    -0.271 OA
ATOM     89  N   VAL d  11     911.061 249.174-881.659  0.00  0.00    -0.346 N 
ATOM     90  H   VAL d  11     910.348 248.800-881.049  0.00  0.00     0.163 HD
BRANCH  89  91
ATOM     91  CA  VAL d  11     910.706 249.720-882.966  0.00  0.00     0.180 C 
BRANCH  91  92
ATOM     92  C   VAL d  11     911.170 251.151-883.098  0.00  0.00     0.241 C 
ATOM     93  O   VAL d  11     911.771 251.556-884.101  0.00  0.00    -0.271 OA
ATOM     94  N   GLN d  12     910.932 251.976-882.136  0.00  0.00    -0.346 N 
ATOM     95  H   GLN d  12     910.443 251.670-881.307  0.00  0.00     0.163 HD
BRANCH  94  96
ATOM     96  CA  GLN d  12     911.380 253.359-882.262  0.00  0.00     0.177 C 
BRANCH  96  97
ATOM     97  C   GLN d  12     912.870 253.427-882.500  0.00  0.00     0.241 C 
ATOM     98  O   GLN d  12     913.357 254.136-883.378  0.00  0.00    -0.271 OA
ATOM     99  N   ARG d  13     913.655 252.721-881.759  0.00  0.00    -0.346 N 
ATOM    100  H   ARG d  13     913.279 252.131-881.031  0.00  0.00     0.163 HD
BRANCH  99 101
ATOM    101  CA  ARG d  13     915.095 252.787-881.990  0.00  0.00     0.176 C 
BRANCH 101 102
ATOM    102  C   ARG d  13     915.432 252.417-883.415  0.00  0.00     0.241 C 
ATOM    103  O   ARG d  13     916.200 253.089-884.098  0.00  0.00    -0.271 OA
ATOM    104  N   VAL d  14     914.896 251.362-883.930  0.00  0.00    -0.346 N 
ATOM    105  H   VAL d  14     914.261 250.793-883.388  0.00  0.00     0.163 HD
BRANCH 104 106
ATOM    106  CA  VAL d  14     915.221 251.003-885.307  0.00  0.00     0.180 C 
BRANCH 106 107
ATOM    107  C   VAL d  14     914.891 252.133-886.252  0.00  0.00     0.241 C 
ATOM    108  O   VAL d  14     915.684 252.515-887.122  0.00  0.00    -0.271 OA
ATOM    109  N   MET d  15     913.746 252.719-886.151  0.00  0.00    -0.346 N 
ATOM    110  H   MET d  15     913.081 252.425-885.449  0.00  0.00     0.163 HD
BRANCH 109 111
ATOM    111  CA  MET d  15     913.425 253.811-887.064  0.00  0.00     0.177 C 
BRANCH 111 112
ATOM    112  C   MET d  15     914.454 254.912-886.976  0.00  0.00     0.241 C 
ATOM    113  O   MET d  15     914.957 255.423-887.988  0.00  0.00    -0.271 OA
ATOM    114  N   ARG d  16     914.823 255.332-885.813  0.00  0.00    -0.347 N 
ATOM    115  H   ARG d  16     914.428 254.932-884.974  0.00  0.00     0.163 HD
BRANCH 114 116
ATOM    116  CA  ARG d  16     915.819 256.397-885.729  0.00  0.00     0.162 C 
BRANCH 116 117
ATOM    117  C   ARG d  16     917.090 256.005-886.446  0.00  0.00     0.219 C 
ATOM    118  O   ARG d  16     917.204 254.929-887.027  0.00  0.00    -0.287 OA
ENDBRANCH 116 117
BRANCH 116 119
ATOM    119  CB  ARG d  16     916.088 256.714-884.231  0.00  0.00     0.035 C 
BRANCH 119 120
ATOM    120  CG  ARG d  16     916.912 258.004-883.958  0.00  0.00     0.023 C 
BRANCH 120 121
ATOM    121  CD  ARG d  16     917.162 258.223-882.456  0.00  0.00     0.138 C 
BRANCH 121 122
ATOM    122  NE  ARG d  16     917.937 259.482-882.255  0.00  0.00    -0.227 N 
ATOM    123  CZ  ARG d  16     918.328 259.964-881.079  0.00  0.00     0.665 C 
ATOM    124  NH1 ARG d  16     918.081 259.379-879.940  0.00  0.00    -0.235 N 
ATOM    125  NH2 ARG d  16     918.992 261.077-881.060  0.00  0.00    -0.235 N 
ATOM    126 11HH ARG d  16     917.556 258.506-880.025  0.00  0.00     0.174 HD
ATOM    127 12HH ARG d  16     918.415 259.814-879.079  0.00  0.00     0.174 HD
ATOM    128 21HH ARG d  16     919.177 261.520-881.962  0.00  0.00     0.174 HD
ATOM    129 22HH ARG d  16     919.282 261.432-880.147  0.00  0.00     0.174 HD
ATOM    130  HE  ARG d  16     918.216 260.063-883.052  0.00  0.00     0.177 HD
ENDBRANCH 121 122
ENDBRANCH 120 121
ENDBRANCH 119 120
ENDBRANCH 116 119
ENDBRANCH 114 116
ENDBRANCH 111 112
BRANCH 111 131
ATOM    131  CB  MET d  15     912.003 254.356-886.755  0.00  0.00     0.045 C 
BRANCH 131 132
ATOM    132  CG  MET d  15     910.841 253.358-886.947  0.00  0.00     0.076 C 
BRANCH 132 133
ATOM    133  SD  MET d  15     909.267 254.223-886.833  0.00  0.00    -0.173 SA
ATOM    134  CE  MET d  15     908.187 252.793-886.697  0.00  0.00     0.089 C 
ENDBRANCH 132 133
ENDBRANCH 131 132
ENDBRANCH 111 131
ENDBRANCH 109 111
ENDBRANCH 106 107
BRANCH 106 135
ATOM    135  CB  VAL d  14     914.450 249.686-885.714  0.00  0.00     0.009 C 
ATOM    136  CG1 VAL d  14     914.539 249.268-887.208  0.00  0.00     0.012 C 
ATOM    137  CG2 VAL d  14     914.882 248.434-884.914  0.00  0.00     0.012 C 
ENDBRANCH 106 135
ENDBRANCH 104 106
ENDBRANCH 101 102
BRANCH 101 138
ATOM    138  CB  ARG d  13     915.809 251.849-880.976  0.00  0.00     0.036 C 
BRANCH 138 139
ATOM    139  CG  ARG d  13     917.353 252.003-880.894  0.00  0.00     0.023 C 
BRANCH 139 140
ATOM    140  CD  ARG d  13     917.981 251.015-879.897  0.00  0.00     0.138 C 
BRANCH 140 141
ATOM    141  NE  ARG d  13     919.458 251.223-879.846  0.00  0.00    -0.227 N 
ATOM    142  CZ  ARG d  13     920.306 250.532-879.091  0.00  0.00     0.665 C 
ATOM    143  NH1 ARG d  13     919.941 249.567-878.294  0.00  0.00    -0.235 N 
ATOM    144  NH2 ARG d  13     921.566 250.831-879.148  0.00  0.00    -0.235 N 
ATOM    145 11HH ARG d  13     918.936 249.380-878.297  0.00  0.00     0.174 HD
ATOM    146 12HH ARG d  13     920.655 249.084-877.745  0.00  0.00     0.174 HD
ATOM    147 21HH ARG d  13     921.833 251.589-879.778  0.00  0.00     0.174 HD
ATOM    148 22HH ARG d  13     922.201 250.290-878.559  0.00  0.00     0.174 HD
ATOM    149  HE  ARG d  13     919.909 251.945-880.417  0.00  0.00     0.177 HD
ENDBRANCH 140 141
ENDBRANCH 139 140
ENDBRANCH 138 139
ENDBRANCH 101 138
ENDBRANCH  99 101
ENDBRANCH  96  97
BRANCH  96 150
ATOM    150  CB  GLN d  12     910.988 254.126-880.979  0.00  0.00     0.044 C 
BRANCH 150 151
ATOM    151  CG  GLN d  12     911.348 255.648-880.948  0.00  0.00     0.105 C 
BRANCH 151 152
ATOM    152  CD  GLN d  12     911.045 256.461-879.683  0.00  0.00     0.215 C 
ATOM    153  NE2 GLN d  12     910.478 255.884-878.654  0.00  0.00    -0.370 N 
ATOM    154 21HE GLN d  12     910.370 256.478-877.831  0.00  0.00     0.159 HD
ATOM    155 22HE GLN d  12     910.315 254.881-878.758  0.00  0.00     0.159 HD
ATOM    156  OE1 GLN d  12     911.346 257.642-879.605  0.00  0.00    -0.274 OA
ENDBRANCH 151 152
ENDBRANCH 150 151
ENDBRANCH  96 150
ENDBRANCH  94  96
ENDBRANCH  91  92
BRANCH  91 157
ATOM    157  CB  VAL d  11     909.145 249.612-883.186  0.00  0.00     0.009 C 
ATOM    158  CG1 VAL d  11     908.576 250.316-884.448  0.00  0.00     0.012 C 
ATOM    159  CG2 VAL d  11     908.621 248.158-883.259  0.00  0.00     0.012 C 
ENDBRANCH  91 157
ENDBRANCH  89  91
ENDBRANCH  86  87
BRANCH  86 160
ATOM    160  CB  HIS d  10     912.503 247.082-879.940  0.00  0.00     0.095 C 
BRANCH 160 161
ATOM    161  CG  HIS d  10     913.789 246.372-879.632  0.00  0.00     0.053 A 
ATOM    162  CD2 HIS d  10     914.169 246.037-878.339  0.00  0.00     0.116 A 
ATOM    163  NE2 HIS d  10     915.385 245.406-878.406  0.00  0.00    -0.359 N 
ATOM    164  CE1 HIS d  10     915.648 245.409-879.741  0.00  0.00     0.207 A 
ATOM    165  2HE HIS d  10     915.951 245.028-877.633  0.00  0.00     0.166 HD
ATOM    166  ND1 HIS d  10     914.741 245.967-880.564  0.00  0.00    -0.247 NA
ENDBRANCH 160 161
ENDBRANCH  86 160
ENDBRANCH   3  86
TORSDOF 68
