@<TRIPOS>MOLECULE
6-6
265 266 16              
SMALL
USER_CHARGES
@<TRIPOS>ATOM
1	   N	901.569	244.355	-870.535	N.3	1	GLU1	-0.516	
2	  CA	902.128	245.704	-870.535	C.3	1	GLU1	0.040	
3	   C	903.637	245.664	-870.535	C.2	1	GLU1	0.537	
4	   O	904.313	246.363	-871.304	O.2	1	GLU1	-0.582	
5	  CB	901.605	246.489	-869.298	C.3	1	GLU1	0.056	
6	  CG	902.080	247.974	-869.187	C.3	1	GLU1	0.014	
7	  CD	901.656	248.778	-867.972	C.2	1	GLU1	0.805	
8	 OE1	900.928	248.276	-867.094	O.co2	1	GLU1	-0.819	
9	 OE2	902.086	249.948	-867.900	O.co2	1	GLU1	-0.819	
10	   H	902.196	243.476	-870.535	 H	1	GLU1	0.294	
11	  HA	901.802	246.222	-871.455	 H	1	GLU1	0.111	
12	 2HB	901.894	245.958	-868.368	 H	1	GLU1	-0.017	
13	 3HB	900.498	246.479	-869.285	 H	1	GLU1	-0.017	
14	 2HG	901.770	248.559	-870.068	 H	1	GLU1	-0.043	
15	 3HG	903.180	248.041	-869.158	 H	1	GLU1	-0.043	
16	   N	904.242	244.878	-869.710	N.am	2	ASN2	-0.416	
17	  CA	905.701	244.840	-869.710	C.3	2	ASN2	0.014	
18	   C	906.232	244.484	-871.079	C.2	2	ASN2	0.597	
19	   O	907.147	245.115	-871.608	O.2	2	ASN2	-0.568	
20	  CB	906.193	243.817	-868.646	C.3	2	ASN2	-0.204	
21	  CG	905.730	244.041	-867.203	C.2	2	ASN2	0.713	
22	 ND2	906.324	244.956	-866.484	N.pl3	2	ASN2	-0.919	
23	 OD1	904.810	243.407	-866.708	O.2	2	ASN2	-0.593	
24	   H	903.714	244.299	-869.074	 H	2	ASN2	0.272	
25	  HA	906.078	245.850	-869.465	 H	2	ASN2	0.105	
26	 2HB	907.298	243.758	-868.650	 H	2	ASN2	0.080	
27	 3HB	905.864	242.799	-868.932	 H	2	ASN2	0.080	
28	1HD2	905.844	245.129	-865.598	 H	2	ASN2	0.420	
29	2HD2	907.026	245.527	-866.954	 H	2	ASN2	0.420	
30	   N	905.711	243.489	-871.713	N.am	3	PRO3	-0.255	
31	  CA	906.163	243.080	-873.035	C.3	3	PRO3	-0.027	
32	   C	905.765	244.104	-874.112	C.2	3	PRO3	0.590	
33	   O	906.588	244.487	-874.943	O.2	3	PRO3	-0.575	
34	  CB	905.459	241.725	-873.204	C.3	3	PRO3	-0.007	
35	  CG	904.176	241.877	-872.374	C.3	3	PRO3	0.019	
36	  CD	904.633	242.696	-871.164	C.3	3	PRO3	0.019	
37	  HA	907.249	242.960	-873.048	 H	3	PRO3	0.064	
38	 2HB	906.082	240.944	-872.763	 H	3	PRO3	0.025	
39	 3HB	905.261	241.477	-874.249	 H	3	PRO3	0.025	
40	 2HG	903.748	240.915	-872.083	 H	3	PRO3	0.021	
41	 3HG	903.438	242.448	-872.941	 H	3	PRO3	0.021	
42	 2HD	905.022	242.046	-870.377	 H	3	PRO3	0.039	
43	 3HD	903.836	243.332	-870.771	 H	3	PRO3	0.039	
44	   N	904.560	244.563	-874.144	N.am	4	GLU4	-0.516	
45	  CA	904.200	245.534	-875.174	C.3	4	GLU4	0.040	
46	   C	905.099	246.746	-875.112	C.2	4	GLU4	0.537	
47	   O	905.625	247.225	-876.127	O.2	4	GLU4	-0.582	
48	  CB	902.712	245.953	-875.003	C.3	4	GLU4	0.056	
49	  CG	902.163	246.956	-876.069	C.3	4	GLU4	0.014	
50	  CD	900.737	247.453	-875.926	C.2	4	GLU4	0.805	
51	 OE1	900.010	247.054	-874.995	O.co2	4	GLU4	-0.819	
52	 OE2	900.347	248.282	-876.774	O.co2	4	GLU4	-0.819	
53	   H	903.876	244.257	-873.467	 H	4	GLU4	0.294	
54	  HA	904.331	245.064	-876.165	 H	4	GLU4	0.111	
55	 2HB	902.559	246.393	-873.997	 H	4	GLU4	-0.017	
56	 3HB	902.064	245.055	-875.010	 H	4	GLU4	-0.017	
57	 2HG	902.245	246.541	-877.087	 H	4	GLU4	-0.043	
58	 3HG	902.751	247.889	-876.080	 H	4	GLU4	-0.043	
59	   N	905.326	247.299	-873.969	N.am	5	SER5	-0.416	
60	  CA	906.195	248.470	-873.911	C.3	5	SER5	-0.025	
61	   C	907.554	248.165	-874.496	C.2	5	SER5	0.597	
62	   O	908.102	248.918	-875.301	O.2	5	SER5	-0.568	
63	  CB	906.307	249.002	-872.460	C.3	5	SER5	0.212	
64	  OG	907.039	248.123	-871.599	O.3	5	SER5	-0.655	
65	   H	904.909	246.927	-873.128	 H	5	SER5	0.272	
66	  HA	905.746	249.260	-874.540	 H	5	SER5	0.084	
67	 2HB	905.307	249.196	-872.027	 H	5	SER5	0.035	
68	 3HB	906.812	249.988	-872.463	 H	5	SER5	0.035	
69	  HG	906.550	247.298	-871.549	 H	5	SER5	0.428	
70	   N	908.159	247.082	-874.142	N.am	6	ILE6	-0.416	
71	  CA	909.473	246.787	-874.708	C.3	6	ILE6	-0.060	
72	   C	909.415	246.749	-876.216	C.2	6	ILE6	0.597	
73	   O	910.250	247.337	-876.920	O.2	6	ILE6	-0.568	
74	  CB	910.073	245.451	-874.108	C.3	6	ILE6	0.130	
75	 CG1	910.092	245.389	-872.547	C.3	6	ILE6	-0.043	
76	 CG2	911.514	245.150	-874.623	C.3	6	ILE6	-0.320	
77	 CD1	910.362	244.000	-871.932	C.3	6	ILE6	-0.066	
78	   H	907.731	246.447	-873.483	 H	6	ILE6	0.272	
79	  HA	910.146	247.622	-874.440	 H	6	ILE6	0.087	
80	  HB	909.415	244.625	-874.452	 H	6	ILE6	0.019	
81	2HG1	909.110	245.709	-872.151	 H	6	ILE6	0.024	
82	3HG1	910.808	246.131	-872.142	 H	6	ILE6	0.024	
83	1HG2	911.573	245.056	-875.722	 H	6	ILE6	0.088	
84	2HG2	912.236	245.932	-874.321	 H	6	ILE6	0.088	
85	3HG2	911.904	244.188	-874.245	 H	6	ILE6	0.088	
86	1HD1	909.634	243.246	-872.287	 H	6	ILE6	0.019	
87	2HD1	911.373	243.621	-872.168	 H	6	ILE6	0.019	
88	3HD1	910.286	244.030	-870.829	 H	6	ILE6	0.019	
89	   N	908.470	246.086	-876.790	N.am	7	LEU7	-0.416	
90	  CA	908.415	246.049	-878.248	C.3	7	LEU7	-0.052	
91	   C	908.342	247.445	-878.821	C.2	7	LEU7	0.597	
92	   O	909.063	247.808	-879.763	O.2	7	LEU7	-0.568	
93	  CB	907.212	245.189	-878.729	C.3	7	LEU7	-0.110	
94	  CG	907.140	243.709	-878.262	C.3	7	LEU7	0.353	
95	 CD1	905.951	243.003	-878.928	C.3	7	LEU7	-0.412	
96	 CD2	908.434	242.931	-878.554	C.3	7	LEU7	-0.412	
97	   H	907.778	245.598	-876.239	 H	7	LEU7	0.272	
98	  HA	909.357	245.610	-878.623	 H	7	LEU7	0.092	
99	 2HB	907.189	245.205	-879.836	 H	7	LEU7	0.046	
100	 3HB	906.272	245.691	-878.425	 H	7	LEU7	0.046	
101	  HG	906.970	243.701	-877.165	 H	7	LEU7	-0.036	
102	1HD1	904.993	243.512	-878.706	 H	7	LEU7	0.100	
103	2HD1	906.050	242.963	-880.029	 H	7	LEU7	0.100	
104	3HD1	905.844	241.962	-878.572	 H	7	LEU7	0.100	
105	1HD2	908.709	242.961	-879.624	 H	7	LEU7	0.100	
106	2HD2	909.287	243.343	-877.983	 H	7	LEU7	0.100	
107	3HD2	908.353	241.868	-878.258	 H	7	LEU7	0.100	
108	   N	907.505	248.285	-878.314	N.am	8	ASP8	-0.516	
109	  CA	907.434	249.635	-878.867	C.3	8	ASP8	0.038	
110	   C	908.780	250.315	-878.810	C.2	8	ASP8	0.537	
111	   O	909.253	250.921	-879.785	O.2	8	ASP8	-0.582	
112	  CB	906.355	250.473	-878.126	C.3	8	ASP8	-0.030	
113	  CG	906.135	251.894	-878.666	C.2	8	ASP8	0.799	
114	 OD1	906.199	252.093	-879.896	O.co2	8	ASP8	-0.801	
115	 OD2	905.943	252.819	-877.850	O.co2	8	ASP8	-0.801	
116	   H	906.907	248.014	-877.547	 H	8	ASP8	0.294	
117	  HA	907.151	249.557	-879.935	 H	8	ASP8	0.088	
118	 2HB	906.612	250.556	-877.054	 H	8	ASP8	-0.012	
119	 3HB	905.376	249.968	-878.159	 H	8	ASP8	-0.012	
120	   N	909.460	250.265	-877.715	N.am	9	GLU9	-0.516	
121	  CA	910.762	250.924	-877.659	C.3	9	GLU9	0.040	
122	   C	911.680	250.396	-878.735	C.2	9	GLU9	0.537	
123	   O	912.344	251.151	-879.460	O.2	9	GLU9	-0.582	
124	  CB	911.395	250.716	-876.254	C.3	9	GLU9	0.056	
125	  CG	912.778	251.409	-876.024	C.3	9	GLU9	0.014	
126	  CD	913.479	251.196	-874.696	C.2	9	GLU9	0.805	
127	 OE1	912.958	250.504	-873.800	O.co2	9	GLU9	-0.819	
128	 OE2	914.598	251.734	-874.564	O.co2	9	GLU9	-0.819	
129	   H	909.096	249.779	-876.908	 H	9	GLU9	0.294	
130	  HA	910.619	252.005	-877.834	 H	9	GLU9	0.111	
131	 2HB	911.509	249.631	-876.051	 H	9	GLU9	-0.017	
132	 3HB	910.698	251.069	-875.470	 H	9	GLU9	-0.017	
133	 2HG	912.705	252.500	-876.164	 H	9	GLU9	-0.043	
134	 3HG	913.525	251.064	-876.758	 H	9	GLU9	-0.043	
135	   N	911.777	249.121	-878.905	N.am	10	HIS10	-0.416	
136	  CA	912.666	248.610	-879.945	C.3	10	HIS10	-0.058	
137	   C	912.299	249.175	-881.296	C.2	10	HIS10	0.597	
138	   O	913.151	249.640	-882.068	O.2	10	HIS10	-0.568	
139	  CB	912.503	247.082	-879.940	C.3	10	HIS10	-0.007	
140	  CG	913.789	246.372	-879.632	C.2	10	HIS10	0.187	
141	 CD2	914.169	246.037	-878.339	C.2	10	HIS10	-0.221	
142	 ND1	914.741	245.967	-880.564	N.2	10	HIS10	-0.543	
143	 CE1	915.648	245.409	-879.741	C.2	10	HIS10	0.163	
144	 NE2	915.385	245.406	-878.406	N.pl3	10	HIS10	-0.280	
145	   H	911.247	248.486	-878.326	 H	10	HIS10	0.272	
146	  HA	913.685	248.968	-879.719	 H	10	HIS10	0.136	
147	 2HB	912.138	246.714	-880.920	 H	10	HIS10	0.037	
148	 3HB	911.747	246.744	-879.201	 H	10	HIS10	0.037	
149	 2HD	913.583	246.251	-877.450	 H	10	HIS10	0.186	
150	 1HE	916.539	244.988	-880.188	 H	10	HIS10	0.144	
151	 2HE	915.951	245.028	-877.633	 H	10	HIS10	0.334	
152	   N	911.061	249.174	-881.659	N.am	11	VAL11	-0.416	
153	  CA	910.706	249.720	-882.966	C.3	11	VAL11	-0.087	
154	   C	911.170	251.151	-883.098	C.2	11	VAL11	0.597	
155	   O	911.771	251.556	-884.101	O.2	11	VAL11	-0.568	
156	  CB	909.145	249.612	-883.186	C.3	11	VAL11	0.299	
157	 CG1	908.576	250.316	-884.448	C.3	11	VAL11	-0.319	
158	 CG2	908.621	248.158	-883.259	C.3	11	VAL11	-0.319	
159	   H	910.348	248.800	-881.049	 H	11	VAL11	0.272	
160	  HA	911.226	249.138	-883.748	 H	11	VAL11	0.097	
161	  HB	908.657	250.092	-882.310	 H	11	VAL11	-0.030	
162	1HG1	909.015	249.925	-885.385	 H	11	VAL11	0.079	
163	2HG1	907.477	250.209	-884.530	 H	11	VAL11	0.079	
164	3HG1	908.754	251.409	-884.439	 H	11	VAL11	0.079	
165	1HG2	908.911	247.571	-882.369	 H	11	VAL11	0.079	
166	2HG2	907.515	248.121	-883.302	 H	11	VAL11	0.079	
167	3HG2	909.003	247.618	-884.146	 H	11	VAL11	0.079	
168	   N	910.932	251.976	-882.136	N.am	12	GLN12	-0.416	
169	  CA	911.380	253.359	-882.262	C.3	12	GLN12	-0.003	
170	   C	912.870	253.427	-882.500	C.2	12	GLN12	0.597	
171	   O	913.357	254.136	-883.378	O.2	12	GLN12	-0.568	
172	  CB	910.988	254.126	-880.979	C.3	12	GLN12	-0.004	
173	  CG	911.348	255.648	-880.948	C.3	12	GLN12	-0.064	
174	  CD	911.045	256.461	-879.683	C.2	12	GLN12	0.695	
175	 NE2	910.478	255.884	-878.654	N.pl3	12	GLN12	-0.941	
176	 OE1	911.346	257.642	-879.605	O.2	12	GLN12	-0.609	
177	   H	910.443	251.670	-881.307	 H	12	GLN12	0.272	
178	  HA	910.880	253.816	-883.137	 H	12	GLN12	0.085	
179	 2HB	911.464	253.626	-880.110	 H	12	GLN12	0.017	
180	 3HB	909.898	254.018	-880.816	 H	12	GLN12	0.017	
181	 2HG	910.870	256.169	-881.799	 H	12	GLN12	0.035	
182	 3HG	912.431	255.791	-881.113	 H	12	GLN12	0.035	
183	1HE2	910.370	256.478	-877.831	 H	12	GLN12	0.425	
184	2HE2	910.315	254.881	-878.758	 H	12	GLN12	0.425	
185	   N	913.655	252.721	-881.759	N.am	13	ARG13	-0.348	
186	  CA	915.095	252.787	-881.990	C.3	13	ARG13	-0.264	
187	   C	915.432	252.417	-883.415	C.2	13	ARG13	0.734	
188	   O	916.200	253.089	-884.098	O.2	13	ARG13	-0.589	
189	  CB	915.809	251.849	-880.976	C.3	13	ARG13	-0.001	
190	  CG	917.353	252.003	-880.894	C.3	13	ARG13	0.039	
191	  CD	917.981	251.015	-879.897	C.3	13	ARG13	0.049	
192	  NE	919.458	251.223	-879.846	N.pl3	13	ARG13	-0.530	
193	  CZ	920.306	250.532	-879.091	C.cat	13	ARG13	0.808	
194	 NH1	919.941	249.567	-878.294	N.pl3	13	ARG13	-0.863	
195	 NH2	921.566	250.831	-879.148	N.pl3	13	ARG13	-0.863	
196	   H	913.279	252.131	-881.031	 H	13	ARG13	0.275	
197	  HA	915.419	253.834	-881.831	 H	13	ARG13	0.156	
198	 2HB	915.543	250.798	-881.215	 H	13	ARG13	0.033	
199	 3HB	915.383	252.015	-879.965	 H	13	ARG13	0.033	
200	 2HG	917.601	253.047	-880.615	 H	13	ARG13	0.029	
201	 3HG	917.804	251.847	-881.896	 H	13	ARG13	0.029	
202	 2HD	917.737	249.975	-880.206	 H	13	ARG13	0.069	
203	 3HD	917.524	251.160	-878.894	 H	13	ARG13	0.069	
204	  HE	919.909	251.945	-880.417	 H	13	ARG13	0.346	
205	1HH1	918.936	249.380	-878.297	 H	13	ARG13	0.448	
206	2HH1	920.655	249.084	-877.745	 H	13	ARG13	0.448	
207	1HH2	921.833	251.589	-879.778	 H	13	ARG13	0.448	
208	2HH2	922.201	250.290	-878.559	 H	13	ARG13	0.448	
209	   N	914.896	251.362	-883.930	N.am	14	VAL14	-0.416	
210	  CA	915.221	251.003	-885.307	C.3	14	VAL14	-0.087	
211	   C	914.891	252.133	-886.252	C.2	14	VAL14	0.597	
212	   O	915.684	252.515	-887.122	O.2	14	VAL14	-0.568	
213	  CB	914.450	249.686	-885.714	C.3	14	VAL14	0.299	
214	 CG1	914.539	249.268	-887.208	C.3	14	VAL14	-0.319	
215	 CG2	914.882	248.434	-884.914	C.3	14	VAL14	-0.319	
216	   H	914.261	250.793	-883.388	 H	14	VAL14	0.272	
217	  HA	916.310	250.827	-885.382	 H	14	VAL14	0.097	
218	  HB	913.373	249.856	-885.499	 H	14	VAL14	-0.030	
219	1HG1	915.581	249.092	-887.537	 H	14	VAL14	0.079	
220	2HG1	913.967	248.345	-887.421	 H	14	VAL14	0.079	
221	3HG1	914.110	250.030	-887.886	 H	14	VAL14	0.079	
222	1HG2	914.795	248.592	-883.824	 H	14	VAL14	0.079	
223	2HG2	914.247	247.557	-885.147	 H	14	VAL14	0.079	
224	3HG2	915.930	248.144	-885.120	 H	14	VAL14	0.079	
225	   N	913.746	252.719	-886.151	N.am	15	MET15	-0.416	
226	  CA	913.425	253.811	-887.064	C.3	15	MET15	-0.024	
227	   C	914.454	254.912	-886.976	C.2	15	MET15	0.597	
228	   O	914.957	255.423	-887.988	O.2	15	MET15	-0.568	
229	  CB	912.003	254.356	-886.755	C.3	15	MET15	0.034	
230	  CG	910.841	253.358	-886.947	C.3	15	MET15	0.002	
231	  SD	909.267	254.223	-886.833	S.3	15	MET15	-0.274	
232	  CE	908.187	252.793	-886.697	C.3	15	MET15	-0.054	
233	   H	913.081	252.425	-885.449	 H	15	MET15	0.272	
234	  HA	913.451	253.424	-888.100	 H	15	MET15	0.088	
235	 2HB	911.800	255.235	-887.397	 H	15	MET15	0.024	
236	 3HB	911.967	254.748	-885.719	 H	15	MET15	0.024	
237	 2HG	910.885	252.572	-886.170	 H	15	MET15	0.044	
238	 3HG	910.905	252.843	-887.924	 H	15	MET15	0.044	
239	 1HE	908.331	252.105	-887.549	 H	15	MET15	0.068	
240	 2HE	908.396	252.240	-885.764	 H	15	MET15	0.068	
241	 3HE	907.129	253.107	-886.680	 H	15	MET15	0.068	
242	   N	914.823	255.332	-885.813	N.am	16	ARG16	-0.348	
243	  CA	915.819	256.397	-885.729	C.3	16	ARG16	-0.264	
244	   C	917.090	256.005	-886.446	C.2	16	ARG16	0.734	
245	   O	917.204	254.929	-887.027	O.2	16	ARG16	-0.589	
246	  CB	916.088	256.714	-884.231	C.3	16	ARG16	-0.001	
247	  CG	916.912	258.004	-883.958	C.3	16	ARG16	0.039	
248	  CD	917.162	258.223	-882.456	C.3	16	ARG16	0.049	
249	  NE	917.937	259.482	-882.255	N.pl3	16	ARG16	-0.530	
250	  CZ	918.328	259.964	-881.079	C.cat	16	ARG16	0.808	
251	 NH1	918.081	259.379	-879.940	N.pl3	16	ARG16	-0.863	
252	 NH2	918.992	261.077	-881.060	N.pl3	16	ARG16	-0.863	
253	   H	914.428	254.932	-884.974	 H	16	ARG16	0.275	
254	  HA	915.409	257.290	-886.239	 H	16	ARG16	0.156	
255	 2HB	916.585	255.838	-883.765	 H	16	ARG16	0.033	
256	 3HB	915.119	256.795	-883.697	 H	16	ARG16	0.033	
257	 2HG	916.381	258.874	-884.394	 H	16	ARG16	0.029	
258	 3HG	917.886	257.951	-884.486	 H	16	ARG16	0.029	
259	 2HD	917.711	257.348	-882.043	 H	16	ARG16	0.069	
260	 3HD	916.189	258.265	-881.921	 H	16	ARG16	0.069	
261	  HE	918.216	260.063	-883.052	 H	16	ARG16	0.346	
262	1HH1	917.556	258.506	-880.025	 H	16	ARG16	0.448	
263	2HH1	918.415	259.814	-879.079	 H	16	ARG16	0.448	
264	1HH2	919.177	261.520	-881.962	 H	16	ARG16	0.448	
265	2HH2	919.282	261.432	-880.147	 H	16	ARG16	0.448	
@<TRIPOS>BOND
1 1 2 1
2 1 10 1
3 2 3 1
4 2 5 1
5 2 11 1
6 3 4 2
7 3 16 1
8 5 6 1
9 6 7 1
10 7 8 2
11 7 9 1
12 5 12 1
13 5 13 1
14 6 14 1
15 6 15 1
16 16 17 1
17 16 24 1
18 17 18 1
19 17 20 1
20 17 25 1
21 18 19 2
22 18 30 1
23 20 21 1
24 21 22 1
25 21 23 2
26 20 26 1
27 20 27 1
28 22 28 1
29 22 29 1
30 30 31 1
31 30 36 1
32 31 32 1
33 31 34 1
34 31 37 1
35 32 33 2
36 32 44 1
37 34 35 1
38 35 36 1
39 34 38 1
40 34 39 1
41 35 40 1
42 35 41 1
43 36 42 1
44 36 43 1
45 44 45 1
46 44 53 1
47 45 46 1
48 45 48 1
49 45 54 1
50 46 47 2
51 46 59 1
52 48 49 1
53 49 50 1
54 50 51 2
55 50 52 1
56 48 55 1
57 48 56 1
58 49 57 1
59 49 58 1
60 59 60 1
61 59 65 1
62 60 61 1
63 60 63 1
64 60 66 1
65 61 62 2
66 61 70 1
67 63 64 1
68 63 67 1
69 63 68 1
70 64 69 1
71 70 71 1
72 70 78 1
73 71 72 1
74 71 74 1
75 71 79 1
76 72 73 2
77 72 89 1
78 74 75 1
79 74 76 1
80 75 77 1
81 74 80 1
82 75 81 1
83 75 82 1
84 76 83 1
85 76 84 1
86 76 85 1
87 77 86 1
88 77 87 1
89 77 88 1
90 89 90 1
91 89 97 1
92 90 91 1
93 90 93 1
94 90 98 1
95 91 92 2
96 91 108 1
97 93 94 1
98 94 95 1
99 94 96 1
100 93 99 1
101 93 100 1
102 94 101 1
103 95 102 1
104 95 103 1
105 95 104 1
106 96 105 1
107 96 106 1
108 96 107 1
109 108 109 1
110 108 116 1
111 109 110 1
112 109 112 1
113 109 117 1
114 110 111 2
115 110 120 1
116 112 113 1
117 113 114 2
118 113 115 1
119 112 118 1
120 112 119 1
121 120 121 1
122 120 129 1
123 121 122 1
124 121 124 1
125 121 130 1
126 122 123 2
127 122 135 1
128 124 125 1
129 125 126 1
130 126 127 2
131 126 128 1
132 124 131 1
133 124 132 1
134 125 133 1
135 125 134 1
136 135 136 1
137 135 145 1
138 136 137 1
139 136 139 1
140 136 146 1
141 137 138 2
142 137 152 1
143 139 140 1
144 140 141 2
145 141 144 1
146 140 142 1
147 142 143 2
148 143 144 1
149 139 147 1
150 139 148 1
151 141 149 1
152 143 150 1
153 144 151 1
154 152 153 1
155 152 159 1
156 153 154 1
157 153 156 1
158 153 160 1
159 154 155 2
160 154 168 1
161 156 157 1
162 156 158 1
163 156 161 1
164 157 162 1
165 157 163 1
166 157 164 1
167 158 165 1
168 158 166 1
169 158 167 1
170 168 169 1
171 168 177 1
172 169 170 1
173 169 172 1
174 169 178 1
175 170 171 2
176 170 185 1
177 172 173 1
178 173 174 1
179 174 175 1
180 174 176 2
181 172 179 1
182 172 180 1
183 173 181 1
184 173 182 1
185 175 183 1
186 175 184 1
187 185 186 1
188 185 196 1
189 186 187 1
190 186 189 1
191 186 197 1
192 187 188 2
193 187 209 1
194 189 190 1
195 190 191 1
196 191 192 1
197 192 193 1
198 193 194 2
199 193 195 1
200 189 198 1
201 189 199 1
202 190 200 1
203 190 201 1
204 191 202 1
205 191 203 1
206 192 204 1
207 194 205 1
208 194 206 1
209 195 207 1
210 195 208 1
211 209 210 1
212 209 216 1
213 210 211 1
214 210 213 1
215 210 217 1
216 211 212 2
217 211 225 1
218 213 214 1
219 213 215 1
220 213 218 1
221 214 219 1
222 214 220 1
223 214 221 1
224 215 222 1
225 215 223 1
226 215 224 1
227 225 226 1
228 225 233 1
229 226 227 1
230 226 229 1
231 226 234 1
232 227 228 2
233 227 242 1
234 229 230 1
235 230 231 1
236 231 232 1
237 229 235 1
238 229 236 1
239 230 237 1
240 230 238 1
241 232 239 1
242 232 240 1
243 232 241 1
244 242 243 1
245 242 253 1
246 243 244 1
247 243 246 1
248 243 254 1
249 244 245 2
250 246 247 1
251 247 248 1
252 248 249 1
253 249 250 1
254 250 251 2
255 250 252 1
256 246 255 1
257 246 256 1
258 247 257 1
259 247 258 1
260 248 259 1
261 248 260 1
262 249 261 1
263 251 262 1
264 251 263 1
265 252 264 1
266 252 265 1
@<TRIPOS>SUBSTRUCTURE
1	GLU1	1	RESIDUE	1 ****	GLU
2	ASN2	16	RESIDUE	1 ****	ASN
3	PRO3	30	RESIDUE	1 ****	PRO
4	GLU4	44	RESIDUE	1 ****	GLU
5	SER5	59	RESIDUE	1 ****	SER
6	ILE6	70	RESIDUE	1 ****	ILE
7	LEU7	89	RESIDUE	1 ****	LEU
8	ASP8	108	RESIDUE	1 ****	ASP
9	GLU9	120	RESIDUE	1 ****	GLU
10	HIS10	135	RESIDUE	1 ****	HIS
11	VAL11	152	RESIDUE	1 ****	VAL
12	GLN12	168	RESIDUE	1 ****	GLN
13	ARG13	185	RESIDUE	1 ****	ARG
14	VAL14	209	RESIDUE	1 ****	VAL
15	MET15	225	RESIDUE	1 ****	MET
16	ARG16	242	RESIDUE	1 ****	ARG
