@<TRIPOS>MOLECULE
9-10
274 277 16              
SMALL
USER_CHARGES
@<TRIPOS>ATOM
1	   N	1426.976	418.469	-1439.794	N.3	1	GLU1	-0.516	
2	  CA	1427.535	419.818	-1439.794	C.3	1	GLU1	0.040	
3	   C	1429.044	419.778	-1439.794	C.2	1	GLU1	0.537	
4	   O	1429.720	420.477	-1440.563	O.2	1	GLU1	-0.582	
5	  CB	1427.012	420.603	-1438.557	C.3	1	GLU1	0.056	
6	  CG	1427.487	422.088	-1438.446	C.3	1	GLU1	0.014	
7	  CD	1427.063	422.892	-1437.231	C.2	1	GLU1	0.805	
8	 OE1	1426.335	422.390	-1436.353	O.co2	1	GLU1	-0.819	
9	 OE2	1427.493	424.062	-1437.159	O.co2	1	GLU1	-0.819	
10	   H	1427.603	417.590	-1439.794	 H	1	GLU1	0.294	
11	  HA	1427.209	420.336	-1440.714	 H	1	GLU1	0.111	
12	 2HB	1427.301	420.072	-1437.627	 H	1	GLU1	-0.017	
13	 3HB	1425.905	420.593	-1438.544	 H	1	GLU1	-0.017	
14	 2HG	1427.177	422.673	-1439.327	 H	1	GLU1	-0.043	
15	 3HG	1428.587	422.155	-1438.417	 H	1	GLU1	-0.043	
16	   N	1429.649	418.992	-1438.969	N.am	2	ASN2	-0.416	
17	  CA	1431.108	418.953	-1438.969	C.3	2	ASN2	0.014	
18	   C	1431.639	418.598	-1440.338	C.2	2	ASN2	0.597	
19	   O	1432.554	419.228	-1440.866	O.2	2	ASN2	-0.568	
20	  CB	1431.600	417.930	-1437.905	C.3	2	ASN2	-0.204	
21	  CG	1431.137	418.154	-1436.461	C.2	2	ASN2	0.713	
22	 ND2	1431.731	419.069	-1435.743	N.pl3	2	ASN2	-0.919	
23	 OD1	1430.216	417.520	-1435.967	O.2	2	ASN2	-0.593	
24	   H	1429.121	418.412	-1438.333	 H	2	ASN2	0.272	
25	  HA	1431.485	419.963	-1438.724	 H	2	ASN2	0.105	
26	 2HB	1432.705	417.871	-1437.908	 H	2	ASN2	0.080	
27	 3HB	1431.271	416.912	-1438.190	 H	2	ASN2	0.080	
28	1HD2	1431.251	419.242	-1434.857	 H	2	ASN2	0.420	
29	2HD2	1432.433	419.641	-1436.213	 H	2	ASN2	0.420	
30	   N	1431.118	417.602	-1440.972	N.am	3	PRO3	-0.255	
31	  CA	1431.569	417.193	-1442.293	C.3	3	PRO3	-0.027	
32	   C	1431.171	418.217	-1443.370	C.2	3	PRO3	0.590	
33	   O	1431.995	418.600	-1444.202	O.2	3	PRO3	-0.575	
34	  CB	1430.865	415.838	-1442.463	C.3	3	PRO3	-0.007	
35	  CG	1429.582	415.991	-1441.632	C.3	3	PRO3	0.019	
36	  CD	1430.040	416.809	-1440.423	C.3	3	PRO3	0.019	
37	  HA	1432.655	417.073	-1442.307	 H	3	PRO3	0.064	
38	 2HB	1431.488	415.057	-1442.022	 H	3	PRO3	0.025	
39	 3HB	1430.667	415.590	-1443.508	 H	3	PRO3	0.025	
40	 2HG	1429.155	415.028	-1441.341	 H	3	PRO3	0.021	
41	 3HG	1428.844	416.561	-1442.200	 H	3	PRO3	0.021	
42	 2HD	1430.429	416.160	-1439.635	 H	3	PRO3	0.039	
43	 3HD	1429.243	417.445	-1440.030	 H	3	PRO3	0.039	
44	   N	1429.967	418.677	-1443.402	N.am	4	GLU4	-0.516	
45	  CA	1429.607	419.648	-1444.432	C.3	4	GLU4	0.040	
46	   C	1430.506	420.859	-1444.371	C.2	4	GLU4	0.537	
47	   O	1431.032	421.339	-1445.385	O.2	4	GLU4	-0.582	
48	  CB	1428.118	420.066	-1444.261	C.3	4	GLU4	0.056	
49	  CG	1427.570	421.070	-1445.327	C.3	4	GLU4	0.014	
50	  CD	1426.143	421.567	-1445.183	C.2	4	GLU4	0.805	
51	 OE1	1425.417	421.168	-1444.252	O.co2	4	GLU4	-0.819	
52	 OE2	1425.754	422.396	-1446.031	O.co2	4	GLU4	-0.819	
53	   H	1429.282	418.370	-1442.726	 H	4	GLU4	0.294	
54	  HA	1429.738	419.177	-1445.423	 H	4	GLU4	0.111	
55	 2HB	1427.966	420.506	-1443.255	 H	4	GLU4	-0.017	
56	 3HB	1427.470	419.168	-1444.268	 H	4	GLU4	-0.017	
57	 2HG	1427.651	420.655	-1446.345	 H	4	GLU4	-0.043	
58	 3HG	1428.158	422.002	-1445.338	 H	4	GLU4	-0.043	
59	   N	1430.733	421.412	-1443.228	N.am	5	SER5	-0.416	
60	  CA	1431.603	422.583	-1443.169	C.3	5	SER5	-0.025	
61	   C	1432.961	422.278	-1443.755	C.2	5	SER5	0.597	
62	   O	1433.508	423.031	-1444.560	O.2	5	SER5	-0.568	
63	  CB	1431.714	423.115	-1441.719	C.3	5	SER5	0.212	
64	  OG	1432.446	422.236	-1440.858	O.3	5	SER5	-0.655	
65	   H	1430.316	421.040	-1442.386	 H	5	SER5	0.272	
66	  HA	1431.153	423.373	-1443.798	 H	5	SER5	0.084	
67	 2HB	1430.714	423.309	-1441.285	 H	5	SER5	0.035	
68	 3HB	1432.219	424.101	-1441.721	 H	5	SER5	0.035	
69	  HG	1431.957	421.411	-1440.807	 H	5	SER5	0.428	
70	   N	1433.566	421.195	-1443.401	N.am	6	ILE6	-0.416	
71	  CA	1434.879	420.900	-1443.968	C.3	6	ILE6	-0.060	
72	   C	1434.822	420.862	-1445.475	C.2	6	ILE6	0.597	
73	   O	1435.657	421.450	-1446.179	O.2	6	ILE6	-0.568	
74	  CB	1435.479	419.564	-1443.368	C.3	6	ILE6	0.130	
75	 CG1	1435.499	419.501	-1441.807	C.3	6	ILE6	-0.043	
76	 CG2	1436.920	419.262	-1443.883	C.3	6	ILE6	-0.320	
77	 CD1	1435.769	418.112	-1441.192	C.3	6	ILE6	-0.066	
78	   H	1433.138	420.560	-1442.742	 H	6	ILE6	0.272	
79	  HA	1435.553	421.734	-1443.700	 H	6	ILE6	0.087	
80	  HB	1434.821	418.738	-1443.712	 H	6	ILE6	0.019	
81	2HG1	1434.516	419.821	-1441.411	 H	6	ILE6	0.024	
82	3HG1	1436.214	420.243	-1441.402	 H	6	ILE6	0.024	
83	1HG2	1436.979	419.169	-1444.982	 H	6	ILE6	0.088	
84	2HG2	1437.642	420.044	-1443.581	 H	6	ILE6	0.088	
85	3HG2	1437.311	418.300	-1443.505	 H	6	ILE6	0.088	
86	1HD1	1435.041	417.358	-1441.547	 H	6	ILE6	0.019	
87	2HD1	1436.779	417.733	-1441.428	 H	6	ILE6	0.019	
88	3HD1	1435.693	418.142	-1440.089	 H	6	ILE6	0.019	
89	   N	1433.876	420.199	-1446.049	N.am	7	LEU7	-0.416	
90	  CA	1433.821	420.163	-1447.508	C.3	7	LEU7	-0.052	
91	   C	1433.748	421.559	-1448.080	C.2	7	LEU7	0.597	
92	   O	1434.469	421.922	-1449.022	O.2	7	LEU7	-0.568	
93	  CB	1432.618	419.303	-1447.988	C.3	7	LEU7	-0.110	
94	  CG	1432.545	417.823	-1447.522	C.3	7	LEU7	0.353	
95	 CD1	1431.355	417.118	-1448.187	C.3	7	LEU7	-0.412	
96	 CD2	1433.839	417.044	-1447.813	C.3	7	LEU7	-0.412	
97	   H	1433.184	419.712	-1445.498	 H	7	LEU7	0.272	
98	  HA	1434.763	419.723	-1447.882	 H	7	LEU7	0.092	
99	 2HB	1432.594	419.319	-1449.095	 H	7	LEU7	0.046	
100	 3HB	1431.678	419.806	-1447.683	 H	7	LEU7	0.046	
101	  HG	1432.375	417.815	-1446.425	 H	7	LEU7	-0.036	
102	1HD1	1430.398	417.627	-1447.964	 H	7	LEU7	0.100	
103	2HD1	1431.454	417.077	-1449.288	 H	7	LEU7	0.100	
104	3HD1	1431.249	416.076	-1447.831	 H	7	LEU7	0.100	
105	1HD2	1434.114	417.075	-1448.883	 H	7	LEU7	0.100	
106	2HD2	1434.692	417.456	-1447.242	 H	7	LEU7	0.100	
107	3HD2	1433.757	415.982	-1447.518	 H	7	LEU7	0.100	
108	   N	1432.911	422.399	-1447.573	N.am	8	ASP8	-0.516	
109	  CA	1432.841	423.749	-1448.126	C.3	8	ASP8	0.038	
110	   C	1434.187	424.429	-1448.069	C.2	8	ASP8	0.537	
111	   O	1434.660	425.034	-1449.043	O.2	8	ASP8	-0.582	
112	  CB	1431.763	424.588	-1447.384	C.3	8	ASP8	-0.030	
113	  CG	1431.544	426.008	-1447.924	C.2	8	ASP8	0.799	
114	 OD1	1431.608	426.208	-1449.155	O.co2	8	ASP8	-0.801	
115	 OD2	1431.351	426.934	-1447.109	O.co2	8	ASP8	-0.801	
116	   H	1432.313	422.128	-1446.806	 H	8	ASP8	0.294	
117	  HA	1432.558	423.671	-1449.193	 H	8	ASP8	0.088	
118	 2HB	1432.020	424.670	-1446.312	 H	8	ASP8	-0.012	
119	 3HB	1430.783	424.082	-1447.417	 H	8	ASP8	-0.012	
120	   N	1434.867	424.379	-1446.974	N.am	9	TRP9	-0.416	
121	  CA	1436.169	425.036	-1446.918	C.3	9	TRP9	-0.027	
122	   C	1437.089	424.509	-1447.994	C.2	9	TRP9	0.597	
123	   O	1437.747	425.258	-1448.713	O.2	9	TRP9	-0.568	
124	  CB	1436.803	424.792	-1445.520	C.3	9	TRP9	-0.005	
125	  CG	1436.058	425.451	-1444.355	C.2	9	TRP9	-0.141	
126	 CD1	1435.115	424.820	-1443.519	C.2	9	TRP9	-0.164	
127	 CD2	1436.088	426.773	-1443.960	C.2	9	TRP9	0.124	
128	 CE2	1435.171	426.927	-1442.891	C.2	9	TRP9	0.138	
129	 CE3	1436.819	427.886	-1444.451	C.2	9	TRP9	-0.239	
130	 NE1	1434.552	425.722	-1442.596	N.pl3	9	TRP9	-0.342	
131	 CZ2	1434.985	428.195	-1442.297	C.2	9	TRP9	-0.260	
132	 CZ3	1436.623	429.126	-1443.844	C.2	9	TRP9	-0.197	
133	 CH2	1435.722	429.280	-1442.781	C.2	9	TRP9	-0.113	
134	   H	1434.504	423.892	-1446.167	 H	9	TRP9	0.272	
135	  HA	1436.036	426.120	-1447.094	 H	9	TRP9	0.112	
136	 2HB	1437.845	425.163	-1445.502	 H	9	TRP9	0.034	
137	 3HB	1436.896	423.705	-1445.328	 H	9	TRP9	0.034	
138	 1HD	1434.827	423.780	-1443.612	 H	9	TRP9	0.206	
139	 1HE	1433.818	425.545	-1441.901	 H	9	TRP9	0.341	
140	 3HE	1437.510	427.778	-1445.275	 H	9	TRP9	0.170	
141	 2HZ	1434.287	428.319	-1441.483	 H	9	TRP9	0.157	
142	 3HZ	1437.177	429.982	-1444.201	 H	9	TRP9	0.145	
143	 2HH	1435.595	430.251	-1442.328	 H	9	TRP9	0.142	
144	   N	1437.186	423.234	-1448.164	N.am	10	HIS10	-0.416	
145	  CA	1438.074	422.723	-1449.205	C.3	10	HIS10	-0.058	
146	   C	1437.708	423.289	-1450.556	C.2	10	HIS10	0.597	
147	   O	1438.560	423.754	-1451.327	O.2	10	HIS10	-0.568	
148	  CB	1437.911	421.194	-1449.201	C.3	10	HIS10	-0.007	
149	  CG	1439.198	420.485	-1448.893	C.2	10	HIS10	0.187	
150	 CD2	1439.578	420.149	-1447.601	C.2	10	HIS10	-0.221	
151	 ND1	1440.150	420.080	-1449.825	N.2	10	HIS10	-0.543	
152	 CE1	1441.057	419.522	-1449.002	C.2	10	HIS10	0.163	
153	 NE2	1440.793	419.518	-1447.667	N.pl3	10	HIS10	-0.280	
154	   H	1436.655	422.598	-1447.587	 H	10	HIS10	0.272	
155	  HA	1439.093	423.081	-1448.979	 H	10	HIS10	0.136	
156	 2HB	1437.547	420.828	-1450.181	 H	10	HIS10	0.037	
157	 3HB	1437.156	420.856	-1448.462	 H	10	HIS10	0.037	
158	 2HD	1438.992	420.363	-1446.712	 H	10	HIS10	0.186	
159	 1HE	1441.948	419.102	-1449.449	 H	10	HIS10	0.144	
160	 2HE	1441.360	419.141	-1446.894	 H	10	HIS10	0.334	
161	   N	1436.470	423.287	-1450.919	N.am	11	VAL11	-0.416	
162	  CA	1436.115	423.834	-1452.226	C.3	11	VAL11	-0.087	
163	   C	1436.578	425.265	-1452.357	C.2	11	VAL11	0.597	
164	   O	1437.179	425.671	-1453.360	O.2	11	VAL11	-0.568	
165	  CB	1434.554	423.726	-1452.446	C.3	11	VAL11	0.299	
166	 CG1	1433.985	424.431	-1453.708	C.3	11	VAL11	-0.319	
167	 CG2	1434.030	422.272	-1452.520	C.3	11	VAL11	-0.319	
168	   H	1435.757	422.914	-1450.309	 H	11	VAL11	0.272	
169	  HA	1436.635	423.252	-1453.008	 H	11	VAL11	0.097	
170	  HB	1434.066	424.206	-1451.570	 H	11	VAL11	-0.030	
171	1HG1	1434.424	424.040	-1454.645	 H	11	VAL11	0.079	
172	2HG1	1432.886	424.323	-1453.791	 H	11	VAL11	0.079	
173	3HG1	1434.163	425.523	-1453.698	 H	11	VAL11	0.079	
174	1HG2	1434.320	421.684	-1451.630	 H	11	VAL11	0.079	
175	2HG2	1432.924	422.234	-1452.563	 H	11	VAL11	0.079	
176	3HG2	1434.412	421.732	-1453.407	 H	11	VAL11	0.079	
177	   N	1436.341	426.090	-1451.394	N.am	12	GLN12	-0.416	
178	  CA	1436.788	427.473	-1451.520	C.3	12	GLN12	-0.003	
179	   C	1438.278	427.541	-1451.758	C.2	12	GLN12	0.597	
180	   O	1438.766	428.251	-1452.635	O.2	12	GLN12	-0.568	
181	  CB	1436.397	428.239	-1450.237	C.3	12	GLN12	-0.004	
182	  CG	1436.756	429.761	-1450.205	C.3	12	GLN12	-0.064	
183	  CD	1436.453	430.574	-1448.939	C.2	12	GLN12	0.695	
184	 NE2	1435.886	429.996	-1447.911	N.pl3	12	GLN12	-0.941	
185	 OE1	1436.754	431.755	-1448.861	O.2	12	GLN12	-0.609	
186	   H	1435.852	425.783	-1450.566	 H	12	GLN12	0.272	
187	  HA	1436.289	427.930	-1452.395	 H	12	GLN12	0.085	
188	 2HB	1436.873	427.739	-1449.368	 H	12	GLN12	0.017	
189	 3HB	1435.307	428.131	-1450.074	 H	12	GLN12	0.017	
190	 2HG	1436.279	430.282	-1451.055	 H	12	GLN12	0.035	
191	 3HG	1437.840	429.904	-1450.370	 H	12	GLN12	0.035	
192	1HE2	1435.778	430.590	-1447.087	 H	12	GLN12	0.425	
193	2HE2	1435.723	428.992	-1448.015	 H	12	GLN12	0.425	
194	   N	1439.063	426.834	-1451.017	N.am	13	ARG13	-0.348	
195	  CA	1440.504	426.901	-1451.247	C.3	13	ARG13	-0.264	
196	   C	1440.840	426.531	-1452.672	C.2	13	ARG13	0.734	
197	   O	1441.609	427.203	-1453.356	O.2	13	ARG13	-0.589	
198	  CB	1441.217	425.961	-1450.234	C.3	13	ARG13	-0.001	
199	  CG	1442.762	426.115	-1450.152	C.3	13	ARG13	0.039	
200	  CD	1443.389	425.127	-1449.155	C.3	13	ARG13	0.049	
201	  NE	1444.866	425.335	-1449.104	N.pl3	13	ARG13	-0.530	
202	  CZ	1445.714	424.643	-1448.349	C.cat	13	ARG13	0.808	
203	 NH1	1445.349	423.677	-1447.553	N.pl3	13	ARG13	-0.863	
204	 NH2	1446.973	424.942	-1448.405	N.pl3	13	ARG13	-0.863	
205	   H	1438.687	426.244	-1450.289	 H	13	ARG13	0.275	
206	  HA	1440.827	427.947	-1451.088	 H	13	ARG13	0.156	
207	 2HB	1440.951	424.911	-1450.474	 H	13	ARG13	0.033	
208	 3HB	1440.791	426.127	-1449.223	 H	13	ARG13	0.033	
209	 2HG	1443.009	427.160	-1449.872	 H	13	ARG13	0.029	
210	 3HG	1443.213	425.960	-1451.154	 H	13	ARG13	0.029	
211	 2HD	1443.145	424.087	-1449.465	 H	13	ARG13	0.069	
212	 3HD	1442.932	425.271	-1448.153	 H	13	ARG13	0.069	
213	  HE	1445.317	426.057	-1449.674	 H	13	ARG13	0.346	
214	1HH1	1444.343	423.491	-1447.556	 H	13	ARG13	0.448	
215	2HH1	1446.062	423.194	-1447.004	 H	13	ARG13	0.448	
216	1HH2	1447.240	425.701	-1449.035	 H	13	ARG13	0.448	
217	2HH2	1447.608	424.400	-1447.817	 H	13	ARG13	0.448	
218	   N	1440.305	425.477	-1453.188	N.am	14	VAL14	-0.416	
219	  CA	1440.630	425.119	-1454.566	C.3	14	VAL14	-0.087	
220	   C	1440.300	426.250	-1455.510	C.2	14	VAL14	0.597	
221	   O	1441.093	426.633	-1456.379	O.2	14	VAL14	-0.568	
222	  CB	1439.859	423.802	-1454.974	C.3	14	VAL14	0.299	
223	 CG1	1439.948	423.385	-1456.468	C.3	14	VAL14	-0.319	
224	 CG2	1440.291	422.549	-1454.175	C.3	14	VAL14	-0.319	
225	   H	1439.670	424.907	-1452.647	 H	14	VAL14	0.272	
226	  HA	1441.719	424.943	-1454.640	 H	14	VAL14	0.097	
227	  HB	1438.782	423.972	-1454.758	 H	14	VAL14	-0.030	
228	1HG1	1440.990	423.209	-1456.797	 H	14	VAL14	0.079	
229	2HG1	1439.376	422.462	-1456.682	 H	14	VAL14	0.079	
230	3HG1	1439.519	424.148	-1457.146	 H	14	VAL14	0.079	
231	1HG2	1440.203	422.707	-1453.084	 H	14	VAL14	0.079	
232	2HG2	1439.656	421.673	-1454.408	 H	14	VAL14	0.079	
233	3HG2	1441.339	422.260	-1454.380	 H	14	VAL14	0.079	
234	   N	1439.155	426.835	-1455.408	N.am	15	MET15	-0.416	
235	  CA	1438.834	427.928	-1456.321	C.3	15	MET15	-0.024	
236	   C	1439.864	429.029	-1456.232	C.2	15	MET15	0.597	
237	   O	1440.367	429.541	-1457.243	O.2	15	MET15	-0.568	
238	  CB	1437.413	428.473	-1456.012	C.3	15	MET15	0.034	
239	  CG	1436.251	427.474	-1456.205	C.3	15	MET15	0.002	
240	  SD	1434.677	428.340	-1456.090	S.3	15	MET15	-0.274	
241	  CE	1433.596	426.909	-1455.956	C.3	15	MET15	-0.054	
242	   H	1438.490	426.541	-1454.707	 H	15	MET15	0.272	
243	  HA	1438.861	427.542	-1457.357	 H	15	MET15	0.088	
244	 2HB	1437.210	429.352	-1456.653	 H	15	MET15	0.024	
245	 3HB	1437.376	428.864	-1454.975	 H	15	MET15	0.024	
246	 2HG	1436.294	426.688	-1455.428	 H	15	MET15	0.044	
247	 3HG	1436.314	426.960	-1457.182	 H	15	MET15	0.044	
248	 1HE	1433.740	426.222	-1456.809	 H	15	MET15	0.068	
249	 2HE	1433.805	426.356	-1455.023	 H	15	MET15	0.068	
250	 3HE	1432.538	427.224	-1455.939	 H	15	MET15	0.068	
251	   N	1440.232	429.448	-1455.069	N.am	16	ARG16	-0.348	
252	  CA	1441.228	430.513	-1454.984	C.3	16	ARG16	-0.264	
253	   C	1442.499	430.121	-1455.700	C.2	16	ARG16	0.734	
254	   O	1442.614	429.045	-1456.283	O.2	16	ARG16	-0.589	
255	  CB	1441.497	430.829	-1453.485	C.3	16	ARG16	-0.001	
256	  CG	1442.322	432.118	-1453.210	C.3	16	ARG16	0.039	
257	  CD	1442.571	432.336	-1451.709	C.3	16	ARG16	0.049	
258	  NE	1443.347	433.595	-1451.506	N.pl3	16	ARG16	-0.530	
259	  CZ	1443.737	434.076	-1450.330	C.cat	16	ARG16	0.808	
260	 NH1	1443.490	433.490	-1449.192	N.pl3	16	ARG16	-0.863	
261	 NH2	1444.401	435.189	-1450.310	N.pl3	16	ARG16	-0.863	
262	   H	1439.838	429.047	-1454.230	 H	16	ARG16	0.275	
263	  HA	1440.819	431.406	-1455.492	 H	16	ARG16	0.156	
264	 2HB	1441.994	429.953	-1453.019	 H	16	ARG16	0.033	
265	 3HB	1440.528	430.909	-1452.951	 H	16	ARG16	0.033	
266	 2HG	1441.791	432.989	-1453.647	 H	16	ARG16	0.029	
267	 3HG	1443.295	432.066	-1453.739	 H	16	ARG16	0.029	
268	 2HD	1443.120	431.461	-1451.296	 H	16	ARG16	0.069	
269	 3HD	1441.598	432.377	-1451.174	 H	16	ARG16	0.069	
270	  HE	1443.625	434.177	-1452.303	 H	16	ARG16	0.346	
271	1HH1	1442.964	432.617	-1449.278	 H	16	ARG16	0.448	
272	2HH1	1443.824	433.925	-1448.331	 H	16	ARG16	0.448	
273	1HH2	1444.586	435.633	-1451.211	 H	16	ARG16	0.448	
274	2HH2	1444.691	435.543	-1449.397	 H	16	ARG16	0.448	
@<TRIPOS>BOND
1 1 2 1
2 1 10 1
3 2 3 1
4 2 5 1
5 2 11 1
6 3 4 2
7 3 16 1
8 5 6 1
9 6 7 1
10 7 8 2
11 7 9 1
12 5 12 1
13 5 13 1
14 6 14 1
15 6 15 1
16 16 17 1
17 16 24 1
18 17 18 1
19 17 20 1
20 17 25 1
21 18 19 2
22 18 30 1
23 20 21 1
24 21 22 1
25 21 23 2
26 20 26 1
27 20 27 1
28 22 28 1
29 22 29 1
30 30 31 1
31 30 36 1
32 31 32 1
33 31 34 1
34 31 37 1
35 32 33 2
36 32 44 1
37 34 35 1
38 35 36 1
39 34 38 1
40 34 39 1
41 35 40 1
42 35 41 1
43 36 42 1
44 36 43 1
45 44 45 1
46 44 53 1
47 45 46 1
48 45 48 1
49 45 54 1
50 46 47 2
51 46 59 1
52 48 49 1
53 49 50 1
54 50 51 2
55 50 52 1
56 48 55 1
57 48 56 1
58 49 57 1
59 49 58 1
60 59 60 1
61 59 65 1
62 60 61 1
63 60 63 1
64 60 66 1
65 61 62 2
66 61 70 1
67 63 64 1
68 63 67 1
69 63 68 1
70 64 69 1
71 70 71 1
72 70 78 1
73 71 72 1
74 71 74 1
75 71 79 1
76 72 73 2
77 72 89 1
78 74 75 1
79 74 76 1
80 75 77 1
81 74 80 1
82 75 81 1
83 75 82 1
84 76 83 1
85 76 84 1
86 76 85 1
87 77 86 1
88 77 87 1
89 77 88 1
90 89 90 1
91 89 97 1
92 90 91 1
93 90 93 1
94 90 98 1
95 91 92 2
96 91 108 1
97 93 94 1
98 94 95 1
99 94 96 1
100 93 99 1
101 93 100 1
102 94 101 1
103 95 102 1
104 95 103 1
105 95 104 1
106 96 105 1
107 96 106 1
108 96 107 1
109 108 109 1
110 108 116 1
111 109 110 1
112 109 112 1
113 109 117 1
114 110 111 2
115 110 120 1
116 112 113 1
117 113 114 2
118 113 115 1
119 112 118 1
120 112 119 1
121 120 121 1
122 120 134 1
123 121 122 1
124 121 124 1
125 121 135 1
126 122 123 2
127 122 144 1
128 124 125 1
129 125 127 1
130 125 126 2
131 127 129 1
132 127 128 2
133 128 130 1
134 129 132 2
135 126 130 1
136 128 131 1
137 132 133 1
138 131 133 2
139 124 136 1
140 124 137 1
141 126 138 1
142 130 139 1
143 129 140 1
144 131 141 1
145 132 142 1
146 133 143 1
147 144 145 1
148 144 154 1
149 145 146 1
150 145 148 1
151 145 155 1
152 146 147 2
153 146 161 1
154 148 149 1
155 149 150 2
156 150 153 1
157 149 151 1
158 151 152 2
159 152 153 1
160 148 156 1
161 148 157 1
162 150 158 1
163 152 159 1
164 153 160 1
165 161 162 1
166 161 168 1
167 162 163 1
168 162 165 1
169 162 169 1
170 163 164 2
171 163 177 1
172 165 166 1
173 165 167 1
174 165 170 1
175 166 171 1
176 166 172 1
177 166 173 1
178 167 174 1
179 167 175 1
180 167 176 1
181 177 178 1
182 177 186 1
183 178 179 1
184 178 181 1
185 178 187 1
186 179 180 2
187 179 194 1
188 181 182 1
189 182 183 1
190 183 184 1
191 183 185 2
192 181 188 1
193 181 189 1
194 182 190 1
195 182 191 1
196 184 192 1
197 184 193 1
198 194 195 1
199 194 205 1
200 195 196 1
201 195 198 1
202 195 206 1
203 196 197 2
204 196 218 1
205 198 199 1
206 199 200 1
207 200 201 1
208 201 202 1
209 202 203 2
210 202 204 1
211 198 207 1
212 198 208 1
213 199 209 1
214 199 210 1
215 200 211 1
216 200 212 1
217 201 213 1
218 203 214 1
219 203 215 1
220 204 216 1
221 204 217 1
222 218 219 1
223 218 225 1
224 219 220 1
225 219 222 1
226 219 226 1
227 220 221 2
228 220 234 1
229 222 223 1
230 222 224 1
231 222 227 1
232 223 228 1
233 223 229 1
234 223 230 1
235 224 231 1
236 224 232 1
237 224 233 1
238 234 235 1
239 234 242 1
240 235 236 1
241 235 238 1
242 235 243 1
243 236 237 2
244 236 251 1
245 238 239 1
246 239 240 1
247 240 241 1
248 238 244 1
249 238 245 1
250 239 246 1
251 239 247 1
252 241 248 1
253 241 249 1
254 241 250 1
255 251 252 1
256 251 262 1
257 252 253 1
258 252 255 1
259 252 263 1
260 253 254 2
261 255 256 1
262 256 257 1
263 257 258 1
264 258 259 1
265 259 260 2
266 259 261 1
267 255 264 1
268 255 265 1
269 256 266 1
270 256 267 1
271 257 268 1
272 257 269 1
273 258 270 1
274 260 271 1
275 260 272 1
276 261 273 1
277 261 274 1
@<TRIPOS>SUBSTRUCTURE
1	GLU1	1	RESIDUE	1 ****	GLU
2	ASN2	16	RESIDUE	1 ****	ASN
3	PRO3	30	RESIDUE	1 ****	PRO
4	GLU4	44	RESIDUE	1 ****	GLU
5	SER5	59	RESIDUE	1 ****	SER
6	ILE6	70	RESIDUE	1 ****	ILE
7	LEU7	89	RESIDUE	1 ****	LEU
8	ASP8	108	RESIDUE	1 ****	ASP
9	TRP9	120	RESIDUE	1 ****	TRP
10	HIS10	144	RESIDUE	1 ****	HIS
11	VAL11	161	RESIDUE	1 ****	VAL
12	GLN12	177	RESIDUE	1 ****	GLN
13	ARG13	194	RESIDUE	1 ****	ARG
14	VAL14	218	RESIDUE	1 ****	VAL
15	MET15	234	RESIDUE	1 ****	MET
16	ARG16	251	RESIDUE	1 ****	ARG
