@<TRIPOS>MOLECULE
9-11
267 269 16              
SMALL
USER_CHARGES
@<TRIPOS>ATOM
1	   N	1435.160	421.311	-1448.525	N.3	1	GLU1	-0.516	
2	  CA	1435.719	422.660	-1448.525	C.3	1	GLU1	0.040	
3	   C	1437.228	422.620	-1448.525	C.2	1	GLU1	0.537	
4	   O	1437.904	423.319	-1449.294	O.2	1	GLU1	-0.582	
5	  CB	1435.196	423.445	-1447.288	C.3	1	GLU1	0.056	
6	  CG	1435.671	424.930	-1447.177	C.3	1	GLU1	0.014	
7	  CD	1435.247	425.734	-1445.962	C.2	1	GLU1	0.805	
8	 OE1	1434.519	425.232	-1445.084	O.co2	1	GLU1	-0.819	
9	 OE2	1435.677	426.904	-1445.890	O.co2	1	GLU1	-0.819	
10	   H	1435.787	420.432	-1448.525	 H	1	GLU1	0.294	
11	  HA	1435.393	423.178	-1449.445	 H	1	GLU1	0.111	
12	 2HB	1435.485	422.914	-1446.358	 H	1	GLU1	-0.017	
13	 3HB	1434.089	423.435	-1447.275	 H	1	GLU1	-0.017	
14	 2HG	1435.361	425.515	-1448.058	 H	1	GLU1	-0.043	
15	 3HG	1436.771	424.997	-1447.148	 H	1	GLU1	-0.043	
16	   N	1437.833	421.834	-1447.700	N.am	2	ASN2	-0.416	
17	  CA	1439.292	421.795	-1447.700	C.3	2	ASN2	0.014	
18	   C	1439.823	421.440	-1449.069	C.2	2	ASN2	0.597	
19	   O	1440.738	422.070	-1449.597	O.2	2	ASN2	-0.568	
20	  CB	1439.784	420.772	-1446.636	C.3	2	ASN2	-0.204	
21	  CG	1439.321	420.996	-1445.192	C.2	2	ASN2	0.713	
22	 ND2	1439.916	421.911	-1444.474	N.pl3	2	ASN2	-0.919	
23	 OD1	1438.401	420.362	-1444.698	O.2	2	ASN2	-0.593	
24	   H	1437.305	421.254	-1447.063	 H	2	ASN2	0.272	
25	  HA	1439.670	422.805	-1447.455	 H	2	ASN2	0.105	
26	 2HB	1440.889	420.713	-1446.639	 H	2	ASN2	0.080	
27	 3HB	1439.455	419.754	-1446.921	 H	2	ASN2	0.080	
28	1HD2	1439.435	422.084	-1443.588	 H	2	ASN2	0.420	
29	2HD2	1440.617	422.483	-1444.943	 H	2	ASN2	0.420	
30	   N	1439.302	420.445	-1449.703	N.am	3	PRO3	-0.255	
31	  CA	1439.754	420.035	-1451.024	C.3	3	PRO3	-0.027	
32	   C	1439.355	421.059	-1452.101	C.2	3	PRO3	0.590	
33	   O	1440.179	421.442	-1452.933	O.2	3	PRO3	-0.575	
34	  CB	1439.050	418.681	-1451.194	C.3	3	PRO3	-0.007	
35	  CG	1437.766	418.833	-1450.363	C.3	3	PRO3	0.019	
36	  CD	1438.224	419.652	-1449.154	C.3	3	PRO3	0.019	
37	  HA	1440.840	419.916	-1451.038	 H	3	PRO3	0.064	
38	 2HB	1439.672	417.900	-1450.753	 H	3	PRO3	0.025	
39	 3HB	1438.851	418.432	-1452.239	 H	3	PRO3	0.025	
40	 2HG	1437.339	417.871	-1450.072	 H	3	PRO3	0.021	
41	 3HG	1437.029	419.404	-1450.931	 H	3	PRO3	0.021	
42	 2HD	1438.613	419.002	-1448.366	 H	3	PRO3	0.039	
43	 3HD	1437.427	420.287	-1448.760	 H	3	PRO3	0.039	
44	   N	1438.151	421.519	-1452.133	N.am	4	GLU4	-0.516	
45	  CA	1437.791	422.490	-1453.163	C.3	4	GLU4	0.040	
46	   C	1438.690	423.701	-1453.102	C.2	4	GLU4	0.537	
47	   O	1439.216	424.181	-1454.116	O.2	4	GLU4	-0.582	
48	  CB	1436.302	422.909	-1452.992	C.3	4	GLU4	0.056	
49	  CG	1435.754	423.912	-1454.058	C.3	4	GLU4	0.014	
50	  CD	1434.328	424.409	-1453.914	C.2	4	GLU4	0.805	
51	 OE1	1433.601	424.010	-1452.983	O.co2	4	GLU4	-0.819	
52	 OE2	1433.938	425.238	-1454.762	O.co2	4	GLU4	-0.819	
53	   H	1437.467	421.212	-1451.457	 H	4	GLU4	0.294	
54	  HA	1437.922	422.020	-1454.154	 H	4	GLU4	0.111	
55	 2HB	1436.150	423.349	-1451.986	 H	4	GLU4	-0.017	
56	 3HB	1435.655	422.011	-1452.999	 H	4	GLU4	-0.017	
57	 2HG	1435.836	423.497	-1455.076	 H	4	GLU4	-0.043	
58	 3HG	1436.342	424.845	-1454.069	 H	4	GLU4	-0.043	
59	   N	1438.917	424.254	-1451.959	N.am	5	SER5	-0.416	
60	  CA	1439.787	425.425	-1451.900	C.3	5	SER5	-0.025	
61	   C	1441.146	425.120	-1452.486	C.2	5	SER5	0.597	
62	   O	1441.693	425.873	-1453.291	O.2	5	SER5	-0.568	
63	  CB	1439.898	425.957	-1450.450	C.3	5	SER5	0.212	
64	  OG	1440.630	425.078	-1449.589	O.3	5	SER5	-0.655	
65	   H	1438.500	423.882	-1451.117	 H	5	SER5	0.272	
66	  HA	1439.337	426.215	-1452.529	 H	5	SER5	0.084	
67	 2HB	1438.899	426.151	-1450.016	 H	5	SER5	0.035	
68	 3HB	1440.404	426.943	-1450.452	 H	5	SER5	0.035	
69	  HG	1440.142	424.253	-1449.538	 H	5	SER5	0.428	
70	   N	1441.750	424.037	-1452.132	N.am	6	ILE6	-0.416	
71	  CA	1443.063	423.742	-1452.698	C.3	6	ILE6	-0.060	
72	   C	1443.006	423.705	-1454.206	C.2	6	ILE6	0.597	
73	   O	1443.841	424.293	-1454.910	O.2	6	ILE6	-0.568	
74	  CB	1443.663	422.406	-1452.099	C.3	6	ILE6	0.130	
75	 CG1	1443.683	422.344	-1450.538	C.3	6	ILE6	-0.043	
76	 CG2	1445.105	422.105	-1452.614	C.3	6	ILE6	-0.320	
77	 CD1	1443.953	420.954	-1449.923	C.3	6	ILE6	-0.066	
78	   H	1441.322	423.402	-1451.473	 H	6	ILE6	0.272	
79	  HA	1443.738	424.577	-1452.431	 H	6	ILE6	0.087	
80	  HB	1443.005	421.580	-1452.443	 H	6	ILE6	0.019	
81	2HG1	1442.701	422.663	-1450.142	 H	6	ILE6	0.024	
82	3HG1	1444.399	423.086	-1450.133	 H	6	ILE6	0.024	
83	1HG2	1445.163	422.011	-1453.713	 H	6	ILE6	0.088	
84	2HG2	1445.827	422.887	-1452.312	 H	6	ILE6	0.088	
85	3HG2	1445.495	421.142	-1452.236	 H	6	ILE6	0.088	
86	1HD1	1443.225	420.200	-1450.278	 H	6	ILE6	0.019	
87	2HD1	1444.964	420.576	-1450.159	 H	6	ILE6	0.019	
88	3HD1	1443.877	420.984	-1448.820	 H	6	ILE6	0.019	
89	   N	1442.060	423.041	-1454.780	N.am	7	LEU7	-0.416	
90	  CA	1442.005	423.006	-1456.239	C.3	7	LEU7	-0.052	
91	   C	1441.933	424.401	-1456.811	C.2	7	LEU7	0.597	
92	   O	1442.653	424.764	-1457.753	O.2	7	LEU7	-0.568	
93	  CB	1440.802	422.145	-1456.719	C.3	7	LEU7	-0.110	
94	  CG	1440.729	420.666	-1456.253	C.3	7	LEU7	0.353	
95	 CD1	1439.540	419.960	-1456.918	C.3	7	LEU7	-0.412	
96	 CD2	1442.023	419.887	-1456.544	C.3	7	LEU7	-0.412	
97	   H	1441.368	422.554	-1454.229	 H	7	LEU7	0.272	
98	  HA	1442.947	422.566	-1456.613	 H	7	LEU7	0.092	
99	 2HB	1440.779	422.161	-1457.826	 H	7	LEU7	0.046	
100	 3HB	1439.862	422.648	-1456.414	 H	7	LEU7	0.046	
101	  HG	1440.560	420.658	-1455.156	 H	7	LEU7	-0.036	
102	1HD1	1438.582	420.469	-1456.695	 H	7	LEU7	0.100	
103	2HD1	1439.639	419.920	-1458.019	 H	7	LEU7	0.100	
104	3HD1	1439.433	418.919	-1456.562	 H	7	LEU7	0.100	
105	1HD2	1442.298	419.917	-1457.614	 H	7	LEU7	0.100	
106	2HD2	1442.876	420.298	-1455.973	 H	7	LEU7	0.100	
107	3HD2	1441.942	418.824	-1456.249	 H	7	LEU7	0.100	
108	   N	1441.095	425.241	-1456.304	N.am	8	ASP8	-0.516	
109	  CA	1441.025	426.591	-1456.857	C.3	8	ASP8	0.038	
110	   C	1442.371	427.271	-1456.800	C.2	8	ASP8	0.537	
111	   O	1442.844	427.876	-1457.774	O.2	8	ASP8	-0.582	
112	  CB	1439.947	427.430	-1456.115	C.3	8	ASP8	-0.030	
113	  CG	1439.728	428.851	-1456.655	C.2	8	ASP8	0.799	
114	 OD1	1439.792	429.050	-1457.886	O.co2	8	ASP8	-0.801	
115	 OD2	1439.536	429.776	-1455.839	O.co2	8	ASP8	-0.801	
116	   H	1440.498	424.970	-1455.536	 H	8	ASP8	0.294	
117	  HA	1440.742	426.513	-1457.924	 H	8	ASP8	0.088	
118	 2HB	1440.204	427.513	-1455.043	 H	8	ASP8	-0.012	
119	 3HB	1438.968	426.925	-1456.148	 H	8	ASP8	-0.012	
120	   N	1443.051	427.221	-1455.704	N.am	9	HIS9	-0.416	
121	  CA	1444.354	427.879	-1455.648	C.3	9	HIS9	-0.058	
122	   C	1445.273	427.352	-1456.724	C.2	9	HIS9	0.597	
123	   O	1445.938	428.107	-1457.449	O.2	9	HIS9	-0.568	
124	  CB	1444.930	427.577	-1454.255	C.3	9	HIS9	-0.007	
125	  CG	1445.176	428.825	-1453.458	C.2	9	HIS9	0.187	
126	 CD2	1444.220	429.377	-1452.615	C.2	9	HIS9	-0.221	
127	 ND1	1446.351	429.573	-1453.453	N.2	9	HIS9	-0.543	
128	 CE1	1446.003	430.545	-1452.590	C.2	9	HIS9	0.163	
129	 NE2	1444.757	430.502	-1452.045	N.pl3	9	HIS9	-0.280	
130	   H	1442.688	426.734	-1454.898	 H	9	HIS9	0.272	
131	  HA	1444.197	428.949	-1455.864	 H	9	HIS9	0.136	
132	 2HB	1445.889	427.027	-1454.329	 H	9	HIS9	0.037	
133	 3HB	1444.261	426.923	-1453.658	 H	9	HIS9	0.037	
134	 2HD	1443.227	428.965	-1452.458	 H	9	HIS9	0.186	
135	 1HE	1446.737	431.309	-1452.373	 H	9	HIS9	0.144	
136	 2HE	1444.318	431.149	-1451.374	 H	9	HIS9	0.334	
137	   N	1445.370	426.077	-1456.894	N.am	10	HIS10	-0.416	
138	  CA	1446.260	425.567	-1457.934	C.3	10	HIS10	-0.058	
139	   C	1445.894	426.132	-1459.285	C.2	10	HIS10	0.597	
140	   O	1446.747	426.597	-1460.056	O.2	10	HIS10	-0.568	
141	  CB	1446.096	424.038	-1457.930	C.3	10	HIS10	-0.007	
142	  CG	1447.382	423.328	-1457.622	C.2	10	HIS10	0.187	
143	 CD2	1447.762	422.992	-1456.329	C.2	10	HIS10	-0.221	
144	 ND1	1448.335	422.923	-1458.554	N.2	10	HIS10	-0.543	
145	 CE1	1449.241	422.365	-1457.730	C.2	10	HIS10	0.163	
146	 NE2	1448.977	422.361	-1456.395	N.pl3	10	HIS10	-0.280	
147	   H	1444.840	425.441	-1456.317	 H	10	HIS10	0.272	
148	  HA	1447.278	425.924	-1457.708	 H	10	HIS10	0.136	
149	 2HB	1445.732	423.671	-1458.911	 H	10	HIS10	0.037	
150	 3HB	1445.340	423.700	-1457.191	 H	10	HIS10	0.037	
151	 2HD	1447.176	423.206	-1455.440	 H	10	HIS10	0.186	
152	 1HE	1450.133	421.945	-1458.176	 H	10	HIS10	0.144	
153	 2HE	1449.544	421.984	-1455.622	 H	10	HIS10	0.334	
154	   N	1444.656	426.131	-1459.649	N.am	11	VAL11	-0.416	
155	  CA	1444.302	426.677	-1460.956	C.3	11	VAL11	-0.087	
156	   C	1444.766	428.108	-1461.087	C.2	11	VAL11	0.597	
157	   O	1445.367	428.515	-1462.089	O.2	11	VAL11	-0.568	
158	  CB	1442.741	426.570	-1461.177	C.3	11	VAL11	0.299	
159	 CG1	1442.173	427.275	-1462.440	C.3	11	VAL11	-0.319	
160	 CG2	1442.217	425.116	-1461.252	C.3	11	VAL11	-0.319	
161	   H	1443.943	425.757	-1459.040	 H	11	VAL11	0.272	
162	  HA	1444.822	426.096	-1461.738	 H	11	VAL11	0.097	
163	  HB	1442.252	427.049	-1460.302	 H	11	VAL11	-0.030	
164	1HG1	1442.613	426.884	-1463.377	 H	11	VAL11	0.079	
165	2HG1	1441.074	427.167	-1462.523	 H	11	VAL11	0.079	
166	3HG1	1442.351	428.367	-1462.429	 H	11	VAL11	0.079	
167	1HG2	1442.506	424.528	-1460.361	 H	11	VAL11	0.079	
168	2HG2	1441.111	425.078	-1461.295	 H	11	VAL11	0.079	
169	3HG2	1442.600	424.576	-1462.138	 H	11	VAL11	0.079	
170	   N	1444.527	428.933	-1460.124	N.am	12	GLN12	-0.416	
171	  CA	1444.975	430.316	-1460.250	C.3	12	GLN12	-0.003	
172	   C	1446.465	430.385	-1460.486	C.2	12	GLN12	0.597	
173	   O	1446.953	431.094	-1461.363	O.2	12	GLN12	-0.568	
174	  CB	1444.583	431.083	-1458.967	C.3	12	GLN12	-0.004	
175	  CG	1444.942	432.605	-1458.934	C.3	12	GLN12	-0.064	
176	  CD	1444.638	433.417	-1457.669	C.2	12	GLN12	0.695	
177	 NE2	1444.070	432.839	-1456.641	N.pl3	12	GLN12	-0.941	
178	 OE1	1444.939	434.598	-1457.590	O.2	12	GLN12	-0.609	
179	   H	1444.038	428.626	-1459.296	 H	12	GLN12	0.272	
180	  HA	1444.476	430.773	-1461.125	 H	12	GLN12	0.085	
181	 2HB	1445.058	430.582	-1458.097	 H	12	GLN12	0.017	
182	 3HB	1443.492	430.974	-1458.805	 H	12	GLN12	0.017	
183	 2HG	1444.465	433.126	-1459.785	 H	12	GLN12	0.035	
184	 3HG	1446.025	432.747	-1459.099	 H	12	GLN12	0.035	
185	1HE2	1443.962	433.433	-1455.817	 H	12	GLN12	0.425	
186	2HE2	1443.907	431.836	-1456.746	 H	12	GLN12	0.425	
187	   N	1447.249	429.678	-1459.745	N.am	13	ARG13	-0.348	
188	  CA	1448.690	429.745	-1459.974	C.3	13	ARG13	-0.264	
189	   C	1449.028	429.375	-1461.398	C.2	13	ARG13	0.734	
190	   O	1449.797	430.047	-1462.081	O.2	13	ARG13	-0.589	
191	  CB	1449.403	428.806	-1458.959	C.3	13	ARG13	-0.001	
192	  CG	1450.947	428.960	-1458.876	C.3	13	ARG13	0.039	
193	  CD	1451.574	427.972	-1457.879	C.3	13	ARG13	0.049	
194	  NE	1453.051	428.180	-1457.826	N.pl3	13	ARG13	-0.530	
195	  CZ	1453.898	427.488	-1457.070	C.cat	13	ARG13	0.808	
196	 NH1	1453.533	426.523	-1456.274	N.pl3	13	ARG13	-0.863	
197	 NH2	1455.158	427.788	-1457.126	N.pl3	13	ARG13	-0.863	
198	   H	1446.873	429.087	-1459.017	 H	13	ARG13	0.275	
199	  HA	1449.013	430.791	-1459.814	 H	13	ARG13	0.156	
200	 2HB	1449.137	427.755	-1459.200	 H	13	ARG13	0.033	
201	 3HB	1448.976	428.971	-1457.949	 H	13	ARG13	0.033	
202	 2HG	1451.194	430.005	-1458.596	 H	13	ARG13	0.029	
203	 3HG	1451.399	428.805	-1459.877	 H	13	ARG13	0.029	
204	 2HD	1451.331	426.932	-1458.189	 H	13	ARG13	0.069	
205	 3HD	1451.116	428.117	-1456.877	 H	13	ARG13	0.069	
206	  HE	1453.502	428.903	-1458.396	 H	13	ARG13	0.346	
207	1HH1	1452.528	426.336	-1456.279	 H	13	ARG13	0.448	
208	2HH1	1454.246	426.040	-1455.725	 H	13	ARG13	0.448	
209	1HH2	1455.426	428.547	-1457.756	 H	13	ARG13	0.448	
210	2HH2	1455.792	427.247	-1456.536	 H	13	ARG13	0.448	
211	   N	1448.494	428.320	-1461.915	N.am	14	VAL14	-0.416	
212	  CA	1448.820	427.962	-1463.292	C.3	14	VAL14	-0.087	
213	   C	1448.491	429.093	-1464.237	C.2	14	VAL14	0.597	
214	   O	1449.286	429.475	-1465.105	O.2	14	VAL14	-0.568	
215	  CB	1448.050	426.645	-1463.701	C.3	14	VAL14	0.299	
216	 CG1	1448.141	426.228	-1465.194	C.3	14	VAL14	-0.319	
217	 CG2	1448.481	425.392	-1462.901	C.3	14	VAL14	-0.319	
218	   H	1447.858	427.751	-1461.374	 H	14	VAL14	0.272	
219	  HA	1449.909	427.786	-1463.365	 H	14	VAL14	0.097	
220	  HB	1446.973	426.815	-1463.486	 H	14	VAL14	-0.030	
221	1HG1	1449.183	426.052	-1465.522	 H	14	VAL14	0.079	
222	2HG1	1447.569	425.304	-1465.409	 H	14	VAL14	0.079	
223	3HG1	1447.712	426.990	-1465.873	 H	14	VAL14	0.079	
224	1HG2	1448.392	425.550	-1461.810	 H	14	VAL14	0.079	
225	2HG2	1447.846	424.516	-1463.134	 H	14	VAL14	0.079	
226	3HG2	1449.529	425.103	-1463.105	 H	14	VAL14	0.079	
227	   N	1447.346	429.678	-1464.137	N.am	15	MET15	-0.416	
228	  CA	1447.026	430.771	-1465.050	C.3	15	MET15	-0.024	
229	   C	1448.056	431.871	-1464.960	C.2	15	MET15	0.597	
230	   O	1448.560	432.383	-1465.972	O.2	15	MET15	-0.568	
231	  CB	1445.604	431.315	-1464.743	C.3	15	MET15	0.034	
232	  CG	1444.443	430.317	-1464.937	C.3	15	MET15	0.002	
233	  SD	1442.868	431.182	-1464.825	S.3	15	MET15	-0.274	
234	  CE	1441.788	429.751	-1464.691	C.3	15	MET15	-0.054	
235	   H	1446.680	429.384	-1463.436	 H	15	MET15	0.272	
236	  HA	1447.054	430.384	-1466.086	 H	15	MET15	0.088	
237	 2HB	1445.402	432.194	-1465.385	 H	15	MET15	0.024	
238	 3HB	1445.567	431.707	-1463.707	 H	15	MET15	0.024	
239	 2HG	1444.485	429.530	-1464.160	 H	15	MET15	0.044	
240	 3HG	1444.508	429.802	-1465.914	 H	15	MET15	0.044	
241	 1HE	1441.933	429.064	-1465.544	 H	15	MET15	0.068	
242	 2HE	1441.996	429.198	-1463.758	 H	15	MET15	0.068	
243	 3HE	1440.730	430.066	-1464.676	 H	15	MET15	0.068	
244	   N	1448.422	432.292	-1463.797	N.am	16	ARG16	-0.348	
245	  CA	1449.418	433.356	-1463.711	C.3	16	ARG16	-0.264	
246	   C	1450.690	432.965	-1464.425	C.2	16	ARG16	0.734	
247	   O	1450.805	431.889	-1465.007	O.2	16	ARG16	-0.589	
248	  CB	1449.684	433.673	-1462.212	C.3	16	ARG16	-0.001	
249	  CG	1450.508	434.963	-1461.937	C.3	16	ARG16	0.039	
250	  CD	1450.756	435.181	-1460.435	C.3	16	ARG16	0.049	
251	  NE	1451.531	436.440	-1460.232	N.pl3	16	ARG16	-0.530	
252	  CZ	1451.920	436.922	-1459.055	C.cat	16	ARG16	0.808	
253	 NH1	1451.671	436.337	-1457.918	N.pl3	16	ARG16	-0.863	
254	 NH2	1452.583	438.035	-1459.035	N.pl3	16	ARG16	-0.863	
255	   H	1448.026	431.891	-1462.958	 H	16	ARG16	0.275	
256	  HA	1449.009	434.249	-1464.221	 H	16	ARG16	0.156	
257	 2HB	1450.181	432.797	-1461.745	 H	16	ARG16	0.033	
258	 3HB	1448.715	433.753	-1461.680	 H	16	ARG16	0.033	
259	 2HG	1449.978	435.833	-1462.374	 H	16	ARG16	0.029	
260	 3HG	1451.483	434.910	-1462.464	 H	16	ARG16	0.029	
261	 2HD	1451.304	434.306	-1460.021	 H	16	ARG16	0.069	
262	 3HD	1449.782	435.223	-1459.901	 H	16	ARG16	0.069	
263	  HE	1451.810	437.022	-1461.028	 H	16	ARG16	0.346	
264	1HH1	1451.146	435.464	-1458.004	 H	16	ARG16	0.448	
265	2HH1	1452.004	436.772	-1457.056	 H	16	ARG16	0.448	
266	1HH2	1452.770	438.479	-1459.937	 H	16	ARG16	0.448	
267	2HH2	1452.872	438.390	-1458.122	 H	16	ARG16	0.448	
@<TRIPOS>BOND
1 1 2 1
2 1 10 1
3 2 3 1
4 2 5 1
5 2 11 1
6 3 4 2
7 3 16 1
8 5 6 1
9 6 7 1
10 7 8 2
11 7 9 1
12 5 12 1
13 5 13 1
14 6 14 1
15 6 15 1
16 16 17 1
17 16 24 1
18 17 18 1
19 17 20 1
20 17 25 1
21 18 19 2
22 18 30 1
23 20 21 1
24 21 22 1
25 21 23 2
26 20 26 1
27 20 27 1
28 22 28 1
29 22 29 1
30 30 31 1
31 30 36 1
32 31 32 1
33 31 34 1
34 31 37 1
35 32 33 2
36 32 44 1
37 34 35 1
38 35 36 1
39 34 38 1
40 34 39 1
41 35 40 1
42 35 41 1
43 36 42 1
44 36 43 1
45 44 45 1
46 44 53 1
47 45 46 1
48 45 48 1
49 45 54 1
50 46 47 2
51 46 59 1
52 48 49 1
53 49 50 1
54 50 51 2
55 50 52 1
56 48 55 1
57 48 56 1
58 49 57 1
59 49 58 1
60 59 60 1
61 59 65 1
62 60 61 1
63 60 63 1
64 60 66 1
65 61 62 2
66 61 70 1
67 63 64 1
68 63 67 1
69 63 68 1
70 64 69 1
71 70 71 1
72 70 78 1
73 71 72 1
74 71 74 1
75 71 79 1
76 72 73 2
77 72 89 1
78 74 75 1
79 74 76 1
80 75 77 1
81 74 80 1
82 75 81 1
83 75 82 1
84 76 83 1
85 76 84 1
86 76 85 1
87 77 86 1
88 77 87 1
89 77 88 1
90 89 90 1
91 89 97 1
92 90 91 1
93 90 93 1
94 90 98 1
95 91 92 2
96 91 108 1
97 93 94 1
98 94 95 1
99 94 96 1
100 93 99 1
101 93 100 1
102 94 101 1
103 95 102 1
104 95 103 1
105 95 104 1
106 96 105 1
107 96 106 1
108 96 107 1
109 108 109 1
110 108 116 1
111 109 110 1
112 109 112 1
113 109 117 1
114 110 111 2
115 110 120 1
116 112 113 1
117 113 114 2
118 113 115 1
119 112 118 1
120 112 119 1
121 120 121 1
122 120 130 1
123 121 122 1
124 121 124 1
125 121 131 1
126 122 123 2
127 122 137 1
128 124 125 1
129 125 126 2
130 126 129 1
131 125 127 1
132 127 128 2
133 128 129 1
134 124 132 1
135 124 133 1
136 126 134 1
137 128 135 1
138 129 136 1
139 137 138 1
140 137 147 1
141 138 139 1
142 138 141 1
143 138 148 1
144 139 140 2
145 139 154 1
146 141 142 1
147 142 143 2
148 143 146 1
149 142 144 1
150 144 145 2
151 145 146 1
152 141 149 1
153 141 150 1
154 143 151 1
155 145 152 1
156 146 153 1
157 154 155 1
158 154 161 1
159 155 156 1
160 155 158 1
161 155 162 1
162 156 157 2
163 156 170 1
164 158 159 1
165 158 160 1
166 158 163 1
167 159 164 1
168 159 165 1
169 159 166 1
170 160 167 1
171 160 168 1
172 160 169 1
173 170 171 1
174 170 179 1
175 171 172 1
176 171 174 1
177 171 180 1
178 172 173 2
179 172 187 1
180 174 175 1
181 175 176 1
182 176 177 1
183 176 178 2
184 174 181 1
185 174 182 1
186 175 183 1
187 175 184 1
188 177 185 1
189 177 186 1
190 187 188 1
191 187 198 1
192 188 189 1
193 188 191 1
194 188 199 1
195 189 190 2
196 189 211 1
197 191 192 1
198 192 193 1
199 193 194 1
200 194 195 1
201 195 196 2
202 195 197 1
203 191 200 1
204 191 201 1
205 192 202 1
206 192 203 1
207 193 204 1
208 193 205 1
209 194 206 1
210 196 207 1
211 196 208 1
212 197 209 1
213 197 210 1
214 211 212 1
215 211 218 1
216 212 213 1
217 212 215 1
218 212 219 1
219 213 214 2
220 213 227 1
221 215 216 1
222 215 217 1
223 215 220 1
224 216 221 1
225 216 222 1
226 216 223 1
227 217 224 1
228 217 225 1
229 217 226 1
230 227 228 1
231 227 235 1
232 228 229 1
233 228 231 1
234 228 236 1
235 229 230 2
236 229 244 1
237 231 232 1
238 232 233 1
239 233 234 1
240 231 237 1
241 231 238 1
242 232 239 1
243 232 240 1
244 234 241 1
245 234 242 1
246 234 243 1
247 244 245 1
248 244 255 1
249 245 246 1
250 245 248 1
251 245 256 1
252 246 247 2
253 248 249 1
254 249 250 1
255 250 251 1
256 251 252 1
257 252 253 2
258 252 254 1
259 248 257 1
260 248 258 1
261 249 259 1
262 249 260 1
263 250 261 1
264 250 262 1
265 251 263 1
266 253 264 1
267 253 265 1
268 254 266 1
269 254 267 1
@<TRIPOS>SUBSTRUCTURE
1	GLU1	1	RESIDUE	1 ****	GLU
2	ASN2	16	RESIDUE	1 ****	ASN
3	PRO3	30	RESIDUE	1 ****	PRO
4	GLU4	44	RESIDUE	1 ****	GLU
5	SER5	59	RESIDUE	1 ****	SER
6	ILE6	70	RESIDUE	1 ****	ILE
7	LEU7	89	RESIDUE	1 ****	LEU
8	ASP8	108	RESIDUE	1 ****	ASP
9	HIS9	120	RESIDUE	1 ****	HIS
10	HIS10	137	RESIDUE	1 ****	HIS
11	VAL11	154	RESIDUE	1 ****	VAL
12	GLN12	170	RESIDUE	1 ****	GLN
13	ARG13	187	RESIDUE	1 ****	ARG
14	VAL14	211	RESIDUE	1 ****	VAL
15	MET15	227	RESIDUE	1 ****	MET
16	ARG16	244	RESIDUE	1 ****	ARG
