REMARK WARNING: 32 MAX_TORS EXCEEDED!!!
REMARK  71 active torsions:
REMARK  status: ('A' for Active; 'I' for Inactive)
REMARK    1  A    between atoms: N_1  and  CA_2 
REMARK    2  A    between atoms: CA_2  and  C_3 
REMARK    3  A    between atoms: CA_2  and  CB_5 
REMARK       I    between atoms: C_3  and  N_11 
REMARK    4  A    between atoms: CB_5  and  CG_6 
REMARK    5  A    between atoms: CG_6  and  CD_7 
REMARK    6  A    between atoms: N_11  and  CA_12 
REMARK    7  A    between atoms: CA_12  and  C_13 
REMARK    8  A    between atoms: CA_12  and  CB_15 
REMARK       I    between atoms: C_13  and  N_22 
REMARK    9  A    between atoms: CB_15  and  CG_16 
REMARK       I    between atoms: CG_16  and  ND2_17 
REMARK   10  A    between atoms: CA_23  and  C_24 
REMARK       I    between atoms: C_24  and  N_29 
REMARK   11  A    between atoms: N_29  and  CA_30 
REMARK   12  A    between atoms: CA_30  and  C_31 
REMARK   13  A    between atoms: CA_30  and  CB_33 
REMARK       I    between atoms: C_31  and  N_39 
REMARK   14  A    between atoms: CB_33  and  CG_34 
REMARK   15  A    between atoms: CG_34  and  CD_35 
REMARK   16  A    between atoms: N_39  and  CA_40 
REMARK   17  A    between atoms: CA_40  and  C_41 
REMARK   18  A    between atoms: CA_40  and  CB_43 
REMARK       I    between atoms: C_41  and  N_47 
REMARK   19  A    between atoms: CB_43  and  OG_44 
REMARK   20  A    between atoms: N_47  and  CA_48 
REMARK   21  A    between atoms: CA_48  and  C_49 
REMARK   22  A    between atoms: CA_48  and  CB_51 
REMARK       I    between atoms: C_49  and  N_56 
REMARK   23  A    between atoms: CB_51  and  CG1_52 
REMARK   24  A    between atoms: N_56  and  CA_57 
REMARK   25  A    between atoms: CA_57  and  C_58 
REMARK   26  A    between atoms: CA_57  and  CB_60 
REMARK       I    between atoms: C_58  and  N_65 
REMARK   27  A    between atoms: CB_60  and  CG_61 
REMARK   28  A    between atoms: N_65  and  CA_66 
REMARK   29  A    between atoms: CA_66  and  C_67 
REMARK   30  A    between atoms: CA_66  and  CB_69 
REMARK       I    between atoms: C_67  and  N_74 
REMARK   31  A    between atoms: CB_69  and  CG_70 
REMARK   32  A    between atoms: N_74  and  CA_75 
REMARK   33  A    between atoms: CA_75  and  C_76 
REMARK   34  A    between atoms: CA_75  and  CB_78 
REMARK       I    between atoms: C_76  and  N_84 
REMARK   35  A    between atoms: CB_78  and  CG_79 
REMARK   36  A    between atoms: CG_79  and  CD_80 
REMARK   37  A    between atoms: N_84  and  CA_85 
REMARK   38  A    between atoms: CA_85  and  C_86 
REMARK   39  A    between atoms: CA_85  and  CB_88 
REMARK       I    between atoms: C_86  and  N_96 
REMARK   40  A    between atoms: CB_88  and  CG_89 
REMARK   41  A    between atoms: N_96  and  CA_97 
REMARK   42  A    between atoms: CA_97  and  C_98 
REMARK   43  A    between atoms: CA_97  and  CB_100 
REMARK       I    between atoms: C_98  and  N_113 
REMARK   44  A    between atoms: CB_100  and  CG_101 
REMARK   45  A    between atoms: CG_101  and  CD_102 
REMARK   46  A    between atoms: CD_102  and  NE_103 
REMARK       I    between atoms: NE_103  and  CZ_104 
REMARK       I    between atoms: CZ_104  and  NH1_105 
REMARK       I    between atoms: CZ_104  and  NH2_106 
REMARK   47  A    between atoms: N_113  and  CA_114 
REMARK   48  A    between atoms: CA_114  and  C_115 
REMARK   49  A    between atoms: CA_114  and  CB_117 
REMARK       I    between atoms: C_115  and  N_125 
REMARK   50  A    between atoms: CB_117  and  CG_118 
REMARK   51  A    between atoms: CG_118  and  CD_119 
REMARK       I    between atoms: CD_119  and  NE2_120 
REMARK   52  A    between atoms: N_125  and  CA_126 
REMARK   53  A    between atoms: CA_126  and  C_127 
REMARK   54  A    between atoms: CA_126  and  CB_129 
REMARK       I    between atoms: C_127  and  N_142 
REMARK   55  A    between atoms: CB_129  and  CG_130 
REMARK   56  A    between atoms: CG_130  and  CD_131 
REMARK   57  A    between atoms: CD_131  and  NE_132 
REMARK       I    between atoms: NE_132  and  CZ_133 
REMARK       I    between atoms: CZ_133  and  NH1_134 
REMARK       I    between atoms: CZ_133  and  NH2_135 
REMARK   58  A    between atoms: N_142  and  CA_143 
REMARK   59  A    between atoms: CA_143  and  C_144 
REMARK   60  A    between atoms: CA_143  and  CB_146 
REMARK       I    between atoms: C_144  and  N_150 
REMARK   61  A    between atoms: N_150  and  CA_151 
REMARK   62  A    between atoms: CA_151  and  C_152 
REMARK   63  A    between atoms: CA_151  and  CB_154 
REMARK       I    between atoms: C_152  and  N_159 
REMARK   64  A    between atoms: CB_154  and  CG_155 
REMARK   65  A    between atoms: CG_155  and  SD_156 
REMARK   66  A    between atoms: N_159  and  CA_160 
REMARK   67  A    between atoms: CA_160  and  C_161 
REMARK   68  A    between atoms: CA_160  and  CB_163 
REMARK   69  A    between atoms: CB_163  and  CG_164 
REMARK   70  A    between atoms: CG_164  and  CD_165 
REMARK   71  A    between atoms: CD_165  and  NE_166 
REMARK       I    between atoms: NE_166  and  CZ_167 
REMARK       I    between atoms: CZ_167  and  NH1_168 
ROOT
ATOM      1  CA  HIS d  10    1848.627 556.605-1894.083  0.00  0.00     0.182 C 
ENDROOT
BRANCH   1   2
ATOM      2  N   HIS d  10    1847.739 557.116-1893.042  0.00  0.00    -0.346 N 
ATOM      3  C   GLU d   9    1847.641 558.391-1892.872  0.00  0.00     0.241 C 
ATOM      4  O   GLU d   9    1848.305 559.146-1893.598  0.00  0.00    -0.271 OA
ATOM      5  H   HIS d  10    1847.208 556.480-1892.464  0.00  0.00     0.163 HD
BRANCH   3   6
ATOM      6  CA  GLU d   9    1846.723 558.918-1891.796  0.00  0.00     0.177 C 
BRANCH   6   7
ATOM      7  N   GLU d   9    1845.421 558.260-1891.852  0.00  0.00    -0.346 N 
ATOM      8  C   ASP d   8    1844.741 558.310-1892.947  0.00  0.00     0.241 C 
ATOM      9  O   ASP d   8    1845.214 558.915-1893.921  0.00  0.00    -0.271 OA
ATOM     10  H   GLU d   9    1845.058 557.773-1891.045  0.00  0.00     0.163 HD
BRANCH   8  11
ATOM     11  CA  ASP d   8    1843.395 557.630-1893.004  0.00  0.00     0.186 C 
BRANCH  11  12
ATOM     12  N   ASP d   8    1843.465 556.280-1892.451  0.00  0.00    -0.346 N 
ATOM     13  C   LEU d   7    1844.303 555.440-1892.957  0.00  0.00     0.241 C 
ATOM     14  O   LEU d   7    1845.023 555.803-1893.899  0.00  0.00    -0.271 OA
ATOM     15  H   ASP d   8    1842.867 556.009-1891.684  0.00  0.00     0.163 HD
BRANCH  13  16
ATOM     16  CA  LEU d   7    1844.375 554.045-1892.385  0.00  0.00     0.177 C 
BRANCH  16  17
ATOM     17  N   LEU d   7    1844.430 554.081-1890.926  0.00  0.00    -0.346 N 
ATOM     18  C   ILE d   6    1845.376 554.744-1890.353  0.00  0.00     0.241 C 
ATOM     19  O   ILE d   6    1846.211 555.332-1891.057  0.00  0.00    -0.271 OA
ATOM     20  H   LEU d   7    1843.738 553.594-1890.375  0.00  0.00     0.163 HD
BRANCH  18  21
ATOM     21  CA  ILE d   6    1845.433 554.782-1888.845  0.00  0.00     0.180 C 
BRANCH  21  22
ATOM     22  N   ILE d   6    1844.120 555.077-1888.279  0.00  0.00    -0.346 N 
ATOM     23  C   SER d   5    1843.515 556.160-1888.633  0.00  0.00     0.243 C 
ATOM     24  O   SER d   5    1844.062 556.913-1889.438  0.00  0.00    -0.271 OA
ATOM     25  H   ILE d   6    1843.692 554.442-1887.620  0.00  0.00     0.163 HD
BRANCH  23  26
ATOM     26  CA  SER d   5    1842.156 556.465-1888.047  0.00  0.00     0.200 C 
BRANCH  26  27
ATOM     27  N   SER d   5    1841.287 555.294-1888.106  0.00  0.00    -0.344 N 
ATOM     28  C   GLU d   4    1841.059 554.741-1889.249  0.00  0.00     0.241 C 
ATOM     29  O   GLU d   4    1841.586 555.221-1890.263  0.00  0.00    -0.271 OA
ATOM     30  H   SER d   5    1840.870 554.922-1887.264  0.00  0.00     0.163 HD
BRANCH  28  31
ATOM     31  CA  GLU d   4    1840.160 553.530-1889.310  0.00  0.00     0.177 C 
BRANCH  31  32
ATOM     32  N   GLU d   4    1840.520 552.559-1888.280  0.00  0.00    -0.346 N 
ATOM     33  C   PRO d   3    1841.725 552.099-1888.248  0.00  0.00     0.241 C 
ATOM     34  O   PRO d   3    1842.548 552.482-1889.080  0.00  0.00    -0.271 OA
ATOM     35  H   GLU d   4    1839.836 552.252-1887.604  0.00  0.00     0.163 HD
BRANCH  33  36
ATOM     36  CA  PRO d   3    1842.123 551.076-1887.171  0.00  0.00     0.179 C 
ATOM     37  N   PRO d   3    1841.671 551.485-1885.850  0.00  0.00    -0.337 N 
ATOM     38  C   ASN d   2    1842.193 552.480-1885.216  0.00  0.00     0.243 C 
ATOM     39  CD  PRO d   3    1840.593 550.692-1885.300  0.00  0.00     0.127 C 
ATOM     40  O   ASN d   2    1843.108 553.110-1885.744  0.00  0.00    -0.271 OA
ATOM     41  CG  PRO d   3    1840.135 549.873-1886.510  0.00  0.00     0.022 C 
ATOM     42  CB  PRO d   3    1841.419 549.721-1887.340  0.00  0.00     0.037 C 
BRANCH  38  43
ATOM     43  CA  ASN d   2    1841.661 552.836-1883.847  0.00  0.00     0.185 C 
BRANCH  43  44
ATOM     44  N   ASN d   2    1840.202 552.874-1883.847  0.00  0.00    -0.346 N 
ATOM     45  C   GLU d   1    1839.598 553.660-1884.672  0.00  0.00     0.242 C 
ATOM     46  O   GLU d   1    1840.273 554.359-1885.441  0.00  0.00    -0.271 OA
ATOM     47  H   ASN d   2    1839.674 552.295-1883.210  0.00  0.00     0.163 HD
BRANCH  45  48
ATOM     48  CA  GLU d   1    1838.089 553.700-1884.672  0.00  0.00     0.191 C 
BRANCH  48  49
ATOM     49  N   GLU d   1    1837.530 552.351-1884.672  0.00  0.00    -0.326 NA
ATOM     50  H   GLU d   1    1838.156 551.472-1884.672  0.00  0.00     0.180 HD
ENDBRANCH  48  49
BRANCH  48  51
ATOM     51  CB  GLU d   1    1837.566 554.485-1883.435  0.00  0.00     0.047 C 
BRANCH  51  52
ATOM     52  CG  GLU d   1    1838.041 555.970-1883.324  0.00  0.00     0.116 C 
BRANCH  52  53
ATOM     53  CD  GLU d   1    1837.617 556.774-1882.109  0.00  0.00     0.172 C 
ATOM     54  OE1 GLU d   1    1836.889 556.272-1881.231  0.00  0.00    -0.648 OA
ATOM     55  OE2 GLU d   1    1838.047 557.944-1882.037  0.00  0.00    -0.648 OA
ENDBRANCH  52  53
ENDBRANCH  51  52
ENDBRANCH  48  51
ENDBRANCH  45  48
ENDBRANCH  43  44
BRANCH  43  56
ATOM     56  CB  ASN d   2    1842.153 551.812-1882.783  0.00  0.00     0.137 C 
BRANCH  56  57
ATOM     57  CG  ASN d   2    1841.690 552.036-1881.339  0.00  0.00     0.217 C 
ATOM     58  ND2 ASN d   2    1842.285 552.951-1880.621  0.00  0.00    -0.370 N 
ATOM     59 21HD ASN d   2    1841.804 553.124-1879.734  0.00  0.00     0.159 HD
ATOM     60 22HD ASN d   2    1842.986 553.523-1881.090  0.00  0.00     0.159 HD
ATOM     61  OD1 ASN d   2    1840.769 551.403-1880.845  0.00  0.00    -0.274 OA
ENDBRANCH  56  57
ENDBRANCH  43  56
ENDBRANCH  38  43
ENDBRANCH  33  36
ENDBRANCH  31  32
BRANCH  31  62
ATOM     62  CB  GLU d   4    1838.672 553.949-1889.140  0.00  0.00     0.045 C 
BRANCH  62  63
ATOM     63  CG  GLU d   4    1838.124 554.953-1890.205  0.00  0.00     0.116 C 
BRANCH  63  64
ATOM     64  CD  GLU d   4    1836.697 555.449-1890.062  0.00  0.00     0.172 C 
ATOM     65  OE1 GLU d   4    1835.971 555.051-1889.131  0.00  0.00    -0.648 OA
ATOM     66  OE2 GLU d   4    1836.308 556.279-1890.910  0.00  0.00    -0.648 OA
ENDBRANCH  63  64
ENDBRANCH  62  63
ENDBRANCH  31  62
ENDBRANCH  28  31
ENDBRANCH  26  27
BRANCH  26  67
ATOM     67  CB  SER d   5    1842.268 556.997-1886.597  0.00  0.00     0.199 C 
BRANCH  67  68
ATOM     68  OG  SER d   5    1843.000 556.118-1885.736  0.00  0.00    -0.398 OA
ATOM     69  HG  SER d   5    1842.511 555.293-1885.685  0.00  0.00     0.209 HD
ENDBRANCH  67  68
ENDBRANCH  26  67
ENDBRANCH  23  26
ENDBRANCH  21  22
BRANCH  21  70
ATOM     70  CB  ILE d   6    1846.033 553.446-1888.245  0.00  0.00     0.013 C 
ATOM     71  CG2 ILE d   6    1847.474 553.144-1888.760  0.00  0.00     0.012 C 
BRANCH  70  72
ATOM     72  CG1 ILE d   6    1846.053 553.384-1886.684  0.00  0.00     0.002 C 
ATOM     73  CD1 ILE d   6    1846.323 551.995-1886.069  0.00  0.00     0.005 C 
ENDBRANCH  70  72
ENDBRANCH  21  70
ENDBRANCH  18  21
ENDBRANCH  16  17
BRANCH  16  74
ATOM     74  CB  LEU d   7    1843.172 553.184-1892.865  0.00  0.00     0.038 C 
BRANCH  74  75
ATOM     75  CG  LEU d   7    1843.100 551.705-1892.399  0.00  0.00    -0.020 C 
ATOM     76  CD1 LEU d   7    1841.910 550.999-1893.064  0.00  0.00     0.009 C 
ATOM     77  CD2 LEU d   7    1844.394 550.926-1892.690  0.00  0.00     0.009 C 
ENDBRANCH  74  75
ENDBRANCH  16  74
ENDBRANCH  13  16
ENDBRANCH  11  12
BRANCH  11  78
ATOM     78  CB  ASP d   8    1842.316 558.469-1892.262  0.00  0.00     0.147 C 
BRANCH  78  79
ATOM     79  CG  ASP d   8    1842.097 559.889-1892.803  0.00  0.00     0.175 C 
ATOM     80  OD1 ASP d   8    1842.161 560.089-1894.033  0.00  0.00    -0.648 OA
ATOM     81  OD2 ASP d   8    1841.905 560.815-1891.987  0.00  0.00    -0.648 OA
ENDBRANCH  78  79
ENDBRANCH  11  78
ENDBRANCH   8  11
ENDBRANCH   6   7
BRANCH   6  82
ATOM     82  CB  GLU d   9    1847.357 558.711-1890.391  0.00  0.00     0.045 C 
BRANCH  82  83
ATOM     83  CG  GLU d   9    1848.740 559.404-1890.162  0.00  0.00     0.116 C 
BRANCH  83  84
ATOM     84  CD  GLU d   9    1849.442 559.190-1888.834  0.00  0.00     0.172 C 
ATOM     85  OE1 GLU d   9    1848.920 558.499-1887.937  0.00  0.00    -0.648 OA
ATOM     86  OE2 GLU d   9    1850.560 559.729-1888.702  0.00  0.00    -0.648 OA
ENDBRANCH  83  84
ENDBRANCH  82  83
ENDBRANCH   6  82
ENDBRANCH   3   6
ENDBRANCH   1   2
BRANCH   1  87
ATOM     87  C   HIS d  10    1848.259 557.170-1895.434  0.00  0.00     0.241 C 
ATOM     88  O   HIS d  10    1849.111 557.635-1896.205  0.00  0.00    -0.271 OA
ATOM     89  N   ARG d  11    1847.021 557.169-1895.797  0.00  0.00    -0.346 N 
ATOM     90  H   ARG d  11    1846.309 556.795-1895.186  0.00  0.00     0.163 HD
BRANCH  89  91
ATOM     91  CA  ARG d  11    1846.666 557.715-1897.103  0.00  0.00     0.176 C 
BRANCH  91  92
ATOM     92  C   ARG d  11    1847.131 559.146-1897.234  0.00  0.00     0.241 C 
ATOM     93  O   ARG d  11    1847.728 559.549-1898.230  0.00  0.00    -0.271 OA
ATOM     94  N   GLN d  12    1846.893 559.971-1896.271  0.00  0.00    -0.346 N 
ATOM     95  H   GLN d  12    1846.404 559.664-1895.443  0.00  0.00     0.163 HD
BRANCH  94  96
ATOM     96  CA  GLN d  12    1847.342 561.354-1896.398  0.00  0.00     0.177 C 
BRANCH  96  97
ATOM     97  C   GLN d  12    1848.832 561.422-1896.635  0.00  0.00     0.241 C 
ATOM     98  O   GLN d  12    1849.319 562.130-1897.513  0.00  0.00    -0.271 OA
ATOM     99  N   ARG d  13    1849.616 560.714-1895.894  0.00  0.00    -0.346 N 
ATOM    100  H   ARG d  13    1849.239 560.124-1895.166  0.00  0.00     0.163 HD
BRANCH  99 101
ATOM    101  CA  ARG d  13    1851.056 560.780-1896.124  0.00  0.00     0.176 C 
BRANCH 101 102
ATOM    102  C   ARG d  13    1851.393 560.409-1897.549  0.00  0.00     0.241 C 
ATOM    103  O   ARG d  13    1852.162 561.081-1898.233  0.00  0.00    -0.271 OA
ATOM    104  N   VAL d  14    1850.857 559.355-1898.064  0.00  0.00    -0.346 N 
ATOM    105  H   VAL d  14    1850.222 558.786-1897.523  0.00  0.00     0.163 HD
BRANCH 104 106
ATOM    106  CA  VAL d  14    1851.182 558.997-1899.442  0.00  0.00     0.180 C 
BRANCH 106 107
ATOM    107  C   VAL d  14    1850.853 560.127-1900.387  0.00  0.00     0.241 C 
ATOM    108  O   VAL d  14    1851.647 560.508-1901.256  0.00  0.00    -0.271 OA
ATOM    109  N   MET d  15    1849.708 560.713-1900.286  0.00  0.00    -0.346 N 
ATOM    110  H   MET d  15    1849.043 560.420-1899.585  0.00  0.00     0.163 HD
BRANCH 109 111
ATOM    111  CA  MET d  15    1849.389 561.806-1901.199  0.00  0.00     0.177 C 
BRANCH 111 112
ATOM    112  C   MET d  15    1850.419 562.905-1901.111  0.00  0.00     0.241 C 
ATOM    113  O   MET d  15    1850.922 563.416-1902.123  0.00  0.00    -0.271 OA
ATOM    114  N   ARG d  16    1850.787 563.326-1899.948  0.00  0.00    -0.347 N 
ATOM    115  H   ARG d  16    1850.392 562.926-1899.109  0.00  0.00     0.163 HD
BRANCH 114 116
ATOM    116  CA  ARG d  16    1851.784 564.390-1899.864  0.00  0.00     0.162 C 
BRANCH 116 117
ATOM    117  C   ARG d  16    1853.055 563.997-1900.580  0.00  0.00     0.219 C 
ATOM    118  O   ARG d  16    1853.169 562.921-1901.161  0.00  0.00    -0.287 OA
ENDBRANCH 116 117
BRANCH 116 119
ATOM    119  CB  ARG d  16    1852.053 564.707-1898.365  0.00  0.00     0.035 C 
BRANCH 119 120
ATOM    120  CG  ARG d  16    1852.878 565.996-1898.092  0.00  0.00     0.023 C 
BRANCH 120 121
ATOM    121  CD  ARG d  16    1853.127 566.215-1896.591  0.00  0.00     0.138 C 
BRANCH 121 122
ATOM    122  NE  ARG d  16    1853.904 567.474-1896.389  0.00  0.00    -0.227 N 
ATOM    123  CZ  ARG d  16    1854.294 567.956-1895.213  0.00  0.00     0.665 C 
ATOM    124  NH1 ARG d  16    1854.046 567.371-1894.075  0.00  0.00    -0.235 N 
ATOM    125  NH2 ARG d  16    1854.958 569.068-1895.194  0.00  0.00    -0.235 N 
ATOM    126 11HH ARG d  16    1853.520 566.498-1894.160  0.00  0.00     0.174 HD
ATOM    127 12HH ARG d  16    1854.380 567.806-1893.213  0.00  0.00     0.174 HD
ATOM    128 21HH ARG d  16    1855.145 569.511-1896.096  0.00  0.00     0.174 HD
ATOM    129 22HH ARG d  16    1855.249 569.423-1894.281  0.00  0.00     0.174 HD
ATOM    130  HE  ARG d  16    1854.183 568.055-1897.186  0.00  0.00     0.177 HD
ENDBRANCH 121 122
ENDBRANCH 120 121
ENDBRANCH 119 120
ENDBRANCH 116 119
ENDBRANCH 114 116
ENDBRANCH 111 112
BRANCH 111 131
ATOM    131  CB  MET d  15    1847.967 562.352-1900.891  0.00  0.00     0.045 C 
BRANCH 131 132
ATOM    132  CG  MET d  15    1846.805 561.354-1901.083  0.00  0.00     0.076 C 
BRANCH 132 133
ATOM    133  SD  MET d  15    1845.231 562.221-1900.969  0.00  0.00    -0.173 SA
ATOM    134  CE  MET d  15    1844.150 560.791-1900.834  0.00  0.00     0.089 C 
ENDBRANCH 132 133
ENDBRANCH 131 132
ENDBRANCH 111 131
ENDBRANCH 109 111
ENDBRANCH 106 107
BRANCH 106 135
ATOM    135  CB  VAL d  14    1850.410 557.679-1899.850  0.00  0.00     0.009 C 
ATOM    136  CG1 VAL d  14    1850.500 557.262-1901.344  0.00  0.00     0.012 C 
ATOM    137  CG2 VAL d  14    1850.841 556.427-1899.050  0.00  0.00     0.012 C 
ENDBRANCH 106 135
ENDBRANCH 104 106
ENDBRANCH 101 102
BRANCH 101 138
ATOM    138  CB  ARG d  13    1851.769 559.840-1895.110  0.00  0.00     0.036 C 
BRANCH 138 139
ATOM    139  CG  ARG d  13    1853.314 559.993-1895.029  0.00  0.00     0.023 C 
BRANCH 139 140
ATOM    140  CD  ARG d  13    1853.940 559.005-1894.031  0.00  0.00     0.138 C 
BRANCH 140 141
ATOM    141  NE  ARG d  13    1855.417 559.212-1893.980  0.00  0.00    -0.227 N 
ATOM    142  CZ  ARG d  13    1856.265 558.519-1893.224  0.00  0.00     0.665 C 
ATOM    143  NH1 ARG d  13    1855.899 557.555-1892.428  0.00  0.00    -0.235 N 
ATOM    144  NH2 ARG d  13    1857.524 558.818-1893.281  0.00  0.00    -0.235 N 
ATOM    145 11HH ARG d  13    1854.894 557.369-1892.432  0.00  0.00     0.174 HD
ATOM    146 12HH ARG d  13    1856.612 557.071-1891.879  0.00  0.00     0.174 HD
ATOM    147 21HH ARG d  13    1857.792 559.576-1893.911  0.00  0.00     0.174 HD
ATOM    148 22HH ARG d  13    1858.159 558.276-1892.692  0.00  0.00     0.174 HD
ATOM    149  HE  ARG d  13    1855.869 559.934-1894.550  0.00  0.00     0.177 HD
ENDBRANCH 140 141
ENDBRANCH 139 140
ENDBRANCH 138 139
ENDBRANCH 101 138
ENDBRANCH  99 101
ENDBRANCH  96  97
BRANCH  96 150
ATOM    150  CB  GLN d  12    1846.950 562.121-1895.115  0.00  0.00     0.044 C 
BRANCH 150 151
ATOM    151  CG  GLN d  12    1847.311 563.643-1895.083  0.00  0.00     0.105 C 
BRANCH 151 152
ATOM    152  CD  GLN d  12    1847.008 564.455-1893.817  0.00  0.00     0.215 C 
ATOM    153  NE2 GLN d  12    1846.440 563.878-1892.789  0.00  0.00    -0.370 N 
ATOM    154 21HE GLN d  12    1846.333 564.472-1891.965  0.00  0.00     0.159 HD
ATOM    155 22HE GLN d  12    1846.277 562.875-1892.893  0.00  0.00     0.159 HD
ATOM    156  OE1 GLN d  12    1847.310 565.636-1893.739  0.00  0.00    -0.274 OA
ENDBRANCH 151 152
ENDBRANCH 150 151
ENDBRANCH  96 150
ENDBRANCH  94  96
ENDBRANCH  91  92
BRANCH  91 157
ATOM    157  CB  ARG d  11    1845.127 557.598-1897.294  0.00  0.00     0.036 C 
BRANCH 157 158
ATOM    158  CG  ARG d  11    1844.608 557.877-1898.732  0.00  0.00     0.023 C 
BRANCH 158 159
ATOM    159  CD  ARG d  11    1843.077 557.776-1898.823  0.00  0.00     0.138 C 
BRANCH 159 160
ATOM    160  NE  ARG d  11    1842.639 558.032-1900.228  0.00  0.00    -0.227 N 
ATOM    161  CZ  ARG d  11    1841.380 558.028-1900.653  0.00  0.00     0.665 C 
ATOM    162  NH1 ARG d  11    1840.357 557.802-1899.878  0.00  0.00    -0.235 N 
ATOM    163  NH2 ARG d  11    1841.154 558.262-1901.908  0.00  0.00    -0.235 N 
ATOM    164 11HH ARG d  11    1840.604 557.627-1898.901  0.00  0.00     0.174 HD
ATOM    165 12HH ARG d  11    1839.419 557.815-1900.282  0.00  0.00     0.174 HD
ATOM    166 21HH ARG d  11    1841.968 558.438-1902.500  0.00  0.00     0.174 HD
ATOM    167 22HH ARG d  11    1840.180 558.253-1902.216  0.00  0.00     0.174 HD
ATOM    168  HE  ARG d  11    1843.323 558.229-1900.965  0.00  0.00     0.177 HD
ENDBRANCH 159 160
ENDBRANCH 158 159
ENDBRANCH 157 158
ENDBRANCH  91 157
ENDBRANCH  89  91
ENDBRANCH   1  87
BRANCH   1 169
ATOM    169  CB  HIS d  10    1848.464 555.076-1894.078  0.00  0.00     0.095 C 
BRANCH 169 170
ATOM    170  CG  HIS d  10    1849.750 554.367-1893.771  0.00  0.00     0.053 A 
ATOM    171  CD2 HIS d  10    1850.131 554.031-1892.478  0.00  0.00     0.116 A 
ATOM    172  NE2 HIS d  10    1851.346 553.400-1892.545  0.00  0.00    -0.359 N 
ATOM    173  CE1 HIS d  10    1851.609 553.404-1893.880  0.00  0.00     0.207 A 
ATOM    174  2HE HIS d  10    1851.913 553.023-1891.772  0.00  0.00     0.166 HD
ATOM    175  ND1 HIS d  10    1850.702 553.962-1894.703  0.00  0.00    -0.247 NA
ENDBRANCH 169 170
ENDBRANCH   1 169
TORSDOF 71
