REMARK WARNING: 32 MAX_TORS EXCEEDED!!!
REMARK  69 active torsions:
REMARK  status: ('A' for Active; 'I' for Inactive)
REMARK    1  A    between atoms: N_1  and  CA_2 
REMARK    2  A    between atoms: CA_2  and  C_3 
REMARK    3  A    between atoms: CA_2  and  CB_5 
REMARK       I    between atoms: C_3  and  N_11 
REMARK    4  A    between atoms: CB_5  and  CG_6 
REMARK    5  A    between atoms: CG_6  and  CD_7 
REMARK    6  A    between atoms: N_11  and  CA_12 
REMARK    7  A    between atoms: CA_12  and  C_13 
REMARK    8  A    between atoms: CA_12  and  CB_15 
REMARK       I    between atoms: C_13  and  N_22 
REMARK    9  A    between atoms: CB_15  and  CG_16 
REMARK       I    between atoms: CG_16  and  ND2_17 
REMARK   10  A    between atoms: CA_23  and  C_24 
REMARK       I    between atoms: C_24  and  N_29 
REMARK   11  A    between atoms: N_29  and  CA_30 
REMARK   12  A    between atoms: CA_30  and  C_31 
REMARK   13  A    between atoms: CA_30  and  CB_33 
REMARK       I    between atoms: C_31  and  N_39 
REMARK   14  A    between atoms: CB_33  and  CG_34 
REMARK   15  A    between atoms: CG_34  and  CD_35 
REMARK   16  A    between atoms: N_39  and  CA_40 
REMARK   17  A    between atoms: CA_40  and  C_41 
REMARK   18  A    between atoms: CA_40  and  CB_43 
REMARK       I    between atoms: C_41  and  N_47 
REMARK   19  A    between atoms: CB_43  and  OG_44 
REMARK   20  A    between atoms: N_47  and  CA_48 
REMARK   21  A    between atoms: CA_48  and  C_49 
REMARK   22  A    between atoms: CA_48  and  CB_51 
REMARK       I    between atoms: C_49  and  N_56 
REMARK   23  A    between atoms: CB_51  and  CG1_52 
REMARK   24  A    between atoms: N_56  and  CA_57 
REMARK   25  A    between atoms: CA_57  and  C_58 
REMARK   26  A    between atoms: CA_57  and  CB_60 
REMARK       I    between atoms: C_58  and  N_65 
REMARK   27  A    between atoms: CB_60  and  CG_61 
REMARK   28  A    between atoms: N_65  and  CA_66 
REMARK   29  A    between atoms: CA_66  and  C_67 
REMARK   30  A    between atoms: CA_66  and  CB_69 
REMARK       I    between atoms: C_67  and  N_74 
REMARK   31  A    between atoms: CB_69  and  CG_70 
REMARK   32  A    between atoms: N_74  and  CA_75 
REMARK   33  A    between atoms: CA_75  and  C_76 
REMARK   34  A    between atoms: CA_75  and  CB_78 
REMARK       I    between atoms: C_76  and  N_84 
REMARK   35  A    between atoms: CB_78  and  CG_79 
REMARK   36  A    between atoms: CG_79  and  CD_80 
REMARK   37  A    between atoms: N_84  and  CA_85 
REMARK   38  A    between atoms: CA_85  and  C_86 
REMARK   39  A    between atoms: CA_85  and  CB_88 
REMARK       I    between atoms: C_86  and  N_96 
REMARK   40  A    between atoms: CB_88  and  CG_89 
REMARK   41  A    between atoms: CG_89  and  CD_90 
REMARK       I    between atoms: CD_90  and  NE2_91 
REMARK   42  A    between atoms: N_96  and  CA_97 
REMARK   43  A    between atoms: CA_97  and  C_98 
REMARK   44  A    between atoms: CA_97  and  CB_100 
REMARK       I    between atoms: C_98  and  N_104 
REMARK   45  A    between atoms: N_104  and  CA_105 
REMARK   46  A    between atoms: CA_105  and  C_106 
REMARK   47  A    between atoms: CA_105  and  CB_108 
REMARK       I    between atoms: C_106  and  N_116 
REMARK   48  A    between atoms: CB_108  and  CG_109 
REMARK   49  A    between atoms: CG_109  and  CD_110 
REMARK       I    between atoms: CD_110  and  NE2_111 
REMARK   50  A    between atoms: N_116  and  CA_117 
REMARK   51  A    between atoms: CA_117  and  C_118 
REMARK   52  A    between atoms: CA_117  and  CB_120 
REMARK       I    between atoms: C_118  and  N_133 
REMARK   53  A    between atoms: CB_120  and  CG_121 
REMARK   54  A    between atoms: CG_121  and  CD_122 
REMARK   55  A    between atoms: CD_122  and  NE_123 
REMARK       I    between atoms: NE_123  and  CZ_124 
REMARK       I    between atoms: CZ_124  and  NH1_125 
REMARK       I    between atoms: CZ_124  and  NH2_126 
REMARK   56  A    between atoms: N_133  and  CA_134 
REMARK   57  A    between atoms: CA_134  and  C_135 
REMARK   58  A    between atoms: CA_134  and  CB_137 
REMARK       I    between atoms: C_135  and  N_141 
REMARK   59  A    between atoms: N_141  and  CA_142 
REMARK   60  A    between atoms: CA_142  and  C_143 
REMARK   61  A    between atoms: CA_142  and  CB_145 
REMARK       I    between atoms: C_143  and  N_150 
REMARK   62  A    between atoms: CB_145  and  CG_146 
REMARK   63  A    between atoms: CG_146  and  SD_147 
REMARK   64  A    between atoms: N_150  and  CA_151 
REMARK   65  A    between atoms: CA_151  and  C_152 
REMARK   66  A    between atoms: CA_151  and  CB_154 
REMARK   67  A    between atoms: CB_154  and  CG_155 
REMARK   68  A    between atoms: CG_155  and  CD_156 
REMARK   69  A    between atoms: CD_156  and  NE_157 
REMARK       I    between atoms: NE_157  and  CZ_158 
REMARK       I    between atoms: CZ_158  and  NH1_159 
ROOT
ATOM      1  C   GLU d   9    1650.337 494.484-1679.113  0.00  0.00     0.241 C 
ATOM      2  O   GLU d   9    1651.001 495.239-1679.838  0.00  0.00    -0.271 OA
ATOM      3  N   GLN d  10    1650.434 493.209-1679.283  0.00  0.00    -0.346 N 
ATOM      4  H   GLN d  10    1649.903 492.573-1678.705  0.00  0.00     0.163 HD
ENDROOT
BRANCH   1   5
ATOM      5  CA  GLU d   9    1649.419 495.011-1678.036  0.00  0.00     0.177 C 
BRANCH   5   6
ATOM      6  N   GLU d   9    1648.117 494.353-1678.092  0.00  0.00    -0.346 N 
ATOM      7  C   ASP d   8    1647.437 494.403-1679.187  0.00  0.00     0.241 C 
ATOM      8  O   ASP d   8    1647.909 495.009-1680.161  0.00  0.00    -0.271 OA
ATOM      9  H   GLU d   9    1647.753 493.867-1677.285  0.00  0.00     0.163 HD
BRANCH   7  10
ATOM     10  CA  ASP d   8    1646.090 493.724-1679.244  0.00  0.00     0.186 C 
BRANCH  10  11
ATOM     11  N   ASP d   8    1646.161 492.374-1678.691  0.00  0.00    -0.346 N 
ATOM     12  C   LEU d   7    1646.998 491.533-1679.198  0.00  0.00     0.241 C 
ATOM     13  O   LEU d   7    1647.718 491.896-1680.140  0.00  0.00    -0.271 OA
ATOM     14  H   ASP d   8    1645.563 492.103-1677.924  0.00  0.00     0.163 HD
BRANCH  12  15
ATOM     15  CA  LEU d   7    1647.070 490.138-1678.626  0.00  0.00     0.177 C 
BRANCH  15  16
ATOM     16  N   LEU d   7    1647.125 490.174-1677.167  0.00  0.00    -0.346 N 
ATOM     17  C   ILE d   6    1648.071 490.837-1676.594  0.00  0.00     0.241 C 
ATOM     18  O   ILE d   6    1648.906 491.425-1677.297  0.00  0.00    -0.271 OA
ATOM     19  H   LEU d   7    1646.434 489.687-1676.616  0.00  0.00     0.163 HD
BRANCH  17  20
ATOM     20  CA  ILE d   6    1648.129 490.875-1675.086  0.00  0.00     0.180 C 
BRANCH  20  21
ATOM     21  N   ILE d   6    1646.816 491.169-1674.519  0.00  0.00    -0.346 N 
ATOM     22  C   SER d   5    1646.211 492.252-1674.873  0.00  0.00     0.243 C 
ATOM     23  O   SER d   5    1646.758 493.006-1675.678  0.00  0.00    -0.271 OA
ATOM     24  H   ILE d   6    1646.387 490.535-1673.860  0.00  0.00     0.163 HD
BRANCH  22  25
ATOM     25  CA  SER d   5    1644.852 492.558-1674.287  0.00  0.00     0.200 C 
BRANCH  25  26
ATOM     26  N   SER d   5    1643.983 491.387-1674.346  0.00  0.00    -0.344 N 
ATOM     27  C   GLU d   4    1643.755 490.834-1675.489  0.00  0.00     0.241 C 
ATOM     28  O   GLU d   4    1644.281 491.313-1676.504  0.00  0.00    -0.271 OA
ATOM     29  H   SER d   5    1643.566 491.015-1673.504  0.00  0.00     0.163 HD
BRANCH  27  30
ATOM     30  CA  GLU d   4    1642.856 489.623-1675.550  0.00  0.00     0.177 C 
BRANCH  30  31
ATOM     31  N   GLU d   4    1643.216 488.651-1674.521  0.00  0.00    -0.346 N 
ATOM     32  C   PRO d   3    1644.421 488.191-1674.488  0.00  0.00     0.241 C 
ATOM     33  O   PRO d   3    1645.244 488.575-1675.320  0.00  0.00    -0.271 OA
ATOM     34  H   GLU d   4    1642.532 488.345-1673.844  0.00  0.00     0.163 HD
BRANCH  32  35
ATOM     35  CA  PRO d   3    1644.819 487.168-1673.411  0.00  0.00     0.179 C 
ATOM     36  N   PRO d   3    1644.367 487.577-1672.090  0.00  0.00    -0.337 N 
ATOM     37  C   ASN d   2    1644.889 488.572-1671.456  0.00  0.00     0.243 C 
ATOM     38  CD  PRO d   3    1643.289 486.784-1671.541  0.00  0.00     0.127 C 
ATOM     39  O   ASN d   2    1645.803 489.203-1671.985  0.00  0.00    -0.271 OA
ATOM     40  CG  PRO d   3    1642.832 485.965-1672.751  0.00  0.00     0.022 C 
ATOM     41  CB  PRO d   3    1644.115 485.813-1673.581  0.00  0.00     0.037 C 
BRANCH  37  42
ATOM     42  CA  ASN d   2    1644.358 488.928-1670.087  0.00  0.00     0.185 C 
BRANCH  42  43
ATOM     43  N   ASN d   2    1642.898 488.967-1670.087  0.00  0.00    -0.346 N 
ATOM     44  C   GLU d   1    1642.294 489.752-1670.912  0.00  0.00     0.242 C 
ATOM     45  O   GLU d   1    1642.970 490.451-1671.681  0.00  0.00    -0.271 OA
ATOM     46  H   ASN d   2    1642.370 488.387-1669.451  0.00  0.00     0.163 HD
BRANCH  44  47
ATOM     47  CA  GLU d   1    1640.785 489.792-1670.912  0.00  0.00     0.191 C 
BRANCH  47  48
ATOM     48  N   GLU d   1    1640.226 488.443-1670.912  0.00  0.00    -0.326 NA
ATOM     49  H   GLU d   1    1640.853 487.564-1670.912  0.00  0.00     0.180 HD
ENDBRANCH  47  48
BRANCH  47  50
ATOM     50  CB  GLU d   1    1640.262 490.577-1669.675  0.00  0.00     0.047 C 
BRANCH  50  51
ATOM     51  CG  GLU d   1    1640.737 492.062-1669.564  0.00  0.00     0.116 C 
BRANCH  51  52
ATOM     52  CD  GLU d   1    1640.313 492.866-1668.349  0.00  0.00     0.172 C 
ATOM     53  OE1 GLU d   1    1639.585 492.364-1667.471  0.00  0.00    -0.648 OA
ATOM     54  OE2 GLU d   1    1640.743 494.036-1668.277  0.00  0.00    -0.648 OA
ENDBRANCH  51  52
ENDBRANCH  50  51
ENDBRANCH  47  50
ENDBRANCH  44  47
ENDBRANCH  42  43
BRANCH  42  55
ATOM     55  CB  ASN d   2    1644.850 487.905-1669.023  0.00  0.00     0.137 C 
BRANCH  55  56
ATOM     56  CG  ASN d   2    1644.387 488.129-1667.579  0.00  0.00     0.217 C 
ATOM     57  ND2 ASN d   2    1644.981 489.044-1666.861  0.00  0.00    -0.370 N 
ATOM     58 21HD ASN d   2    1644.500 489.217-1665.975  0.00  0.00     0.159 HD
ATOM     59 22HD ASN d   2    1645.682 489.615-1667.331  0.00  0.00     0.159 HD
ATOM     60  OD1 ASN d   2    1643.466 487.495-1667.085  0.00  0.00    -0.274 OA
ENDBRANCH  55  56
ENDBRANCH  42  55
ENDBRANCH  37  42
ENDBRANCH  32  35
ENDBRANCH  30  31
BRANCH  30  61
ATOM     61  CB  GLU d   4    1641.368 490.041-1675.380  0.00  0.00     0.045 C 
BRANCH  61  62
ATOM     62  CG  GLU d   4    1640.819 491.045-1676.445  0.00  0.00     0.116 C 
BRANCH  62  63
ATOM     63  CD  GLU d   4    1639.393 491.541-1676.301  0.00  0.00     0.172 C 
ATOM     64  OE1 GLU d   4    1638.667 491.143-1675.370  0.00  0.00    -0.648 OA
ATOM     65  OE2 GLU d   4    1639.003 492.371-1677.150  0.00  0.00    -0.648 OA
ENDBRANCH  62  63
ENDBRANCH  61  62
ENDBRANCH  30  61
ENDBRANCH  27  30
ENDBRANCH  25  26
BRANCH  25  66
ATOM     66  CB  SER d   5    1644.964 493.090-1672.837  0.00  0.00     0.199 C 
BRANCH  66  67
ATOM     67  OG  SER d   5    1645.696 492.211-1671.976  0.00  0.00    -0.398 OA
ATOM     68  HG  SER d   5    1645.207 491.386-1671.925  0.00  0.00     0.209 HD
ENDBRANCH  66  67
ENDBRANCH  25  66
ENDBRANCH  22  25
ENDBRANCH  20  21
BRANCH  20  69
ATOM     69  CB  ILE d   6    1648.729 489.538-1674.486  0.00  0.00     0.013 C 
ATOM     70  CG2 ILE d   6    1650.170 489.237-1675.001  0.00  0.00     0.012 C 
BRANCH  69  71
ATOM     71  CG1 ILE d   6    1648.748 489.476-1672.925  0.00  0.00     0.002 C 
ATOM     72  CD1 ILE d   6    1649.018 488.087-1672.310  0.00  0.00     0.005 C 
ENDBRANCH  69  71
ENDBRANCH  20  69
ENDBRANCH  17  20
ENDBRANCH  15  16
BRANCH  15  73
ATOM     73  CB  LEU d   7    1645.867 489.278-1679.106  0.00  0.00     0.038 C 
BRANCH  73  74
ATOM     74  CG  LEU d   7    1645.795 487.798-1678.640  0.00  0.00    -0.020 C 
ATOM     75  CD1 LEU d   7    1644.605 487.093-1679.305  0.00  0.00     0.009 C 
ATOM     76  CD2 LEU d   7    1647.088 487.019-1678.932  0.00  0.00     0.009 C 
ENDBRANCH  73  74
ENDBRANCH  15  73
ENDBRANCH  12  15
ENDBRANCH  10  11
BRANCH  10  77
ATOM     77  CB  ASP d   8    1645.012 494.562-1678.502  0.00  0.00     0.147 C 
BRANCH  77  78
ATOM     78  CG  ASP d   8    1644.793 495.983-1679.042  0.00  0.00     0.175 C 
ATOM     79  OD1 ASP d   8    1644.857 496.183-1680.273  0.00  0.00    -0.648 OA
ATOM     80  OD2 ASP d   8    1644.601 496.909-1678.227  0.00  0.00    -0.648 OA
ENDBRANCH  77  78
ENDBRANCH  10  77
ENDBRANCH   7  10
ENDBRANCH   5   6
BRANCH   5  81
ATOM     81  CB  GLU d   9    1650.053 494.803-1676.631  0.00  0.00     0.045 C 
BRANCH  81  82
ATOM     82  CG  GLU d   9    1651.435 495.495-1676.401  0.00  0.00     0.116 C 
BRANCH  82  83
ATOM     83  CD  GLU d   9    1652.138 495.282-1675.073  0.00  0.00     0.172 C 
ATOM     84  OE1 GLU d   9    1651.616 494.590-1674.177  0.00  0.00    -0.648 OA
ATOM     85  OE2 GLU d   9    1653.257 495.819-1674.942  0.00  0.00    -0.648 OA
ENDBRANCH  82  83
ENDBRANCH  81  82
ENDBRANCH   5  81
ENDBRANCH   1   5
BRANCH   3  86
ATOM     86  CA  GLN d  10    1651.321 492.699-1680.323  0.00  0.00     0.177 C 
BRANCH  86  87
ATOM     87  C   GLN d  10    1650.954 493.264-1681.674  0.00  0.00     0.241 C 
ATOM     88  O   GLN d  10    1651.800 493.725-1682.438  0.00  0.00    -0.271 OA
ATOM     89  N   VAL d  11    1649.716 493.264-1682.038  0.00  0.00    -0.346 N 
ATOM     90  H   VAL d  11    1649.003 492.890-1681.428  0.00  0.00     0.163 HD
BRANCH  89  91
ATOM     91  CA  VAL d  11    1649.362 493.811-1683.344  0.00  0.00     0.180 C 
BRANCH  91  92
ATOM     92  C   VAL d  11    1649.827 495.241-1683.476  0.00  0.00     0.241 C 
ATOM     93  O   VAL d  11    1650.428 495.647-1684.478  0.00  0.00    -0.271 OA
ATOM     94  N   GLN d  12    1649.589 496.066-1682.513  0.00  0.00    -0.346 N 
ATOM     95  H   GLN d  12    1649.100 495.760-1681.684  0.00  0.00     0.163 HD
BRANCH  94  96
ATOM     96  CA  GLN d  12    1650.037 497.450-1682.639  0.00  0.00     0.177 C 
BRANCH  96  97
ATOM     97  C   GLN d  12    1651.528 497.517-1682.876  0.00  0.00     0.241 C 
ATOM     98  O   GLN d  12    1652.015 498.226-1683.754  0.00  0.00    -0.271 OA
ATOM     99  N   ARG d  13    1652.312 496.810-1682.135  0.00  0.00    -0.346 N 
ATOM    100  H   ARG d  13    1651.935 496.219-1681.407  0.00  0.00     0.163 HD
BRANCH  99 101
ATOM    101  CA  ARG d  13    1653.752 496.876-1682.365  0.00  0.00     0.176 C 
BRANCH 101 102
ATOM    102  C   ARG d  13    1654.089 496.505-1683.790  0.00  0.00     0.241 C 
ATOM    103  O   ARG d  13    1654.858 497.177-1684.474  0.00  0.00    -0.271 OA
ATOM    104  N   VAL d  14    1653.553 495.451-1684.305  0.00  0.00    -0.346 N 
ATOM    105  H   VAL d  14    1652.918 494.882-1683.764  0.00  0.00     0.163 HD
BRANCH 104 106
ATOM    106  CA  VAL d  14    1653.878 495.092-1685.683  0.00  0.00     0.180 C 
BRANCH 106 107
ATOM    107  C   VAL d  14    1653.549 496.223-1686.628  0.00  0.00     0.241 C 
ATOM    108  O   VAL d  14    1654.343 496.605-1687.497  0.00  0.00    -0.271 OA
ATOM    109  N   MET d  15    1652.404 496.809-1686.526  0.00  0.00    -0.346 N 
ATOM    110  H   MET d  15    1651.739 496.516-1685.825  0.00  0.00     0.163 HD
BRANCH 109 111
ATOM    111  CA  MET d  15    1652.084 497.902-1687.440  0.00  0.00     0.177 C 
BRANCH 111 112
ATOM    112  C   MET d  15    1653.115 499.002-1687.350  0.00  0.00     0.241 C 
ATOM    113  O   MET d  15    1653.618 499.514-1688.362  0.00  0.00    -0.271 OA
ATOM    114  N   ARG d  16    1653.483 499.422-1686.188  0.00  0.00    -0.347 N 
ATOM    115  H   ARG d  16    1653.088 499.021-1685.349  0.00  0.00     0.163 HD
BRANCH 114 116
ATOM    116  CA  ARG d  16    1654.480 500.485-1686.102  0.00  0.00     0.162 C 
BRANCH 116 117
ATOM    117  C   ARG d  16    1655.750 500.093-1686.818  0.00  0.00     0.219 C 
ATOM    118  O   ARG d  16    1655.864 499.017-1687.401  0.00  0.00    -0.287 OA
ENDBRANCH 116 117
BRANCH 116 119
ATOM    119  CB  ARG d  16    1654.748 500.802-1684.604  0.00  0.00     0.035 C 
BRANCH 119 120
ATOM    120  CG  ARG d  16    1655.573 502.091-1684.329  0.00  0.00     0.023 C 
BRANCH 120 121
ATOM    121  CD  ARG d  16    1655.822 502.308-1682.828  0.00  0.00     0.138 C 
BRANCH 121 122
ATOM    122  NE  ARG d  16    1656.599 503.567-1682.625  0.00  0.00    -0.227 N 
ATOM    123  CZ  ARG d  16    1656.990 504.048-1681.449  0.00  0.00     0.665 C 
ATOM    124  NH1 ARG d  16    1656.741 503.463-1680.311  0.00  0.00    -0.235 N 
ATOM    125  NH2 ARG d  16    1657.654 505.161-1681.429  0.00  0.00    -0.235 N 
ATOM    126 11HH ARG d  16    1656.215 502.590-1680.397  0.00  0.00     0.174 HD
ATOM    127 12HH ARG d  16    1657.075 503.898-1679.449  0.00  0.00     0.174 HD
ATOM    128 21HH ARG d  16    1657.840 505.604-1682.331  0.00  0.00     0.174 HD
ATOM    129 22HH ARG d  16    1657.944 505.515-1680.516  0.00  0.00     0.174 HD
ATOM    130  HE  ARG d  16    1656.878 504.149-1683.422  0.00  0.00     0.177 HD
ENDBRANCH 121 122
ENDBRANCH 120 121
ENDBRANCH 119 120
ENDBRANCH 116 119
ENDBRANCH 114 116
ENDBRANCH 111 112
BRANCH 111 131
ATOM    131  CB  MET d  15    1650.663 498.448-1687.131  0.00  0.00     0.045 C 
BRANCH 131 132
ATOM    132  CG  MET d  15    1649.501 497.450-1687.324  0.00  0.00     0.076 C 
BRANCH 132 133
ATOM    133  SD  MET d  15    1647.927 498.317-1687.210  0.00  0.00    -0.173 SA
ATOM    134  CE  MET d  15    1646.845 496.887-1687.075  0.00  0.00     0.089 C 
ENDBRANCH 132 133
ENDBRANCH 131 132
ENDBRANCH 111 131
ENDBRANCH 109 111
ENDBRANCH 106 107
BRANCH 106 135
ATOM    135  CB  VAL d  14    1653.106 493.776-1686.091  0.00  0.00     0.009 C 
ATOM    136  CG1 VAL d  14    1653.196 493.358-1687.585  0.00  0.00     0.012 C 
ATOM    137  CG2 VAL d  14    1653.538 492.523-1685.292  0.00  0.00     0.012 C 
ENDBRANCH 106 135
ENDBRANCH 104 106
ENDBRANCH 101 102
BRANCH 101 138
ATOM    138  CB  ARG d  13    1654.465 495.936-1681.352  0.00  0.00     0.036 C 
BRANCH 138 139
ATOM    139  CG  ARG d  13    1656.010 496.089-1681.270  0.00  0.00     0.023 C 
BRANCH 139 140
ATOM    140  CD  ARG d  13    1656.636 495.101-1680.272  0.00  0.00     0.138 C 
BRANCH 140 141
ATOM    141  NE  ARG d  13    1658.114 495.308-1680.221  0.00  0.00    -0.227 N 
ATOM    142  CZ  ARG d  13    1658.961 494.616-1679.466  0.00  0.00     0.665 C 
ATOM    143  NH1 ARG d  13    1658.596 493.651-1678.669  0.00  0.00    -0.235 N 
ATOM    144  NH2 ARG d  13    1660.221 494.915-1679.522  0.00  0.00    -0.235 N 
ATOM    145 11HH ARG d  13    1657.590 493.465-1678.673  0.00  0.00     0.174 HD
ATOM    146 12HH ARG d  13    1659.309 493.167-1678.120  0.00  0.00     0.174 HD
ATOM    147 21HH ARG d  13    1660.489 495.673-1680.152  0.00  0.00     0.174 HD
ATOM    148 22HH ARG d  13    1660.856 494.373-1678.933  0.00  0.00     0.174 HD
ATOM    149  HE  ARG d  13    1658.565 496.030-1680.791  0.00  0.00     0.177 HD
ENDBRANCH 140 141
ENDBRANCH 139 140
ENDBRANCH 138 139
ENDBRANCH 101 138
ENDBRANCH  99 101
ENDBRANCH  96  97
BRANCH  96 150
ATOM    150  CB  GLN d  12    1649.646 498.216-1681.356  0.00  0.00     0.044 C 
BRANCH 150 151
ATOM    151  CG  GLN d  12    1650.006 499.738-1681.324  0.00  0.00     0.105 C 
BRANCH 151 152
ATOM    152  CD  GLN d  12    1649.703 500.551-1680.059  0.00  0.00     0.215 C 
ATOM    153  NE2 GLN d  12    1649.136 499.974-1679.030  0.00  0.00    -0.370 N 
ATOM    154 21HE GLN d  12    1649.028 500.568-1678.207  0.00  0.00     0.159 HD
ATOM    155 22HE GLN d  12    1648.972 498.970-1679.135  0.00  0.00     0.159 HD
ATOM    156  OE1 GLN d  12    1650.005 501.732-1679.980  0.00  0.00    -0.274 OA
ENDBRANCH 151 152
ENDBRANCH 150 151
ENDBRANCH  96 150
ENDBRANCH  94  96
ENDBRANCH  91  92
BRANCH  91 157
ATOM    157  CB  VAL d  11    1647.801 493.704-1683.565  0.00  0.00     0.009 C 
ATOM    158  CG1 VAL d  11    1647.233 494.409-1684.827  0.00  0.00     0.012 C 
ATOM    159  CG2 VAL d  11    1647.276 492.250-1683.640  0.00  0.00     0.012 C 
ENDBRANCH  91 157
ENDBRANCH  89  91
ENDBRANCH  86  87
BRANCH  86 160
ATOM    160  CB  GLN d  10    1651.242 491.156-1680.329  0.00  0.00     0.044 C 
BRANCH 160 161
ATOM    161  CG  GLN d  10    1652.166 490.420-1681.355  0.00  0.00     0.105 C 
BRANCH 161 162
ATOM    162  CD  GLN d  10    1652.096 488.892-1681.460  0.00  0.00     0.215 C 
ATOM    163  NE2 GLN d  10    1651.284 488.218-1680.687  0.00  0.00    -0.370 N 
ATOM    164 21HE GLN d  10    1651.251 487.213-1680.865  0.00  0.00     0.159 HD
ATOM    165 22HE GLN d  10    1650.697 488.790-1680.076  0.00  0.00     0.159 HD
ATOM    166  OE1 GLN d  10    1652.773 488.285-1682.276  0.00  0.00    -0.274 OA
ENDBRANCH 161 162
ENDBRANCH 160 161
ENDBRANCH  86 160
ENDBRANCH   3  86
TORSDOF 69
