REMARK WARNING: 32 MAX_TORS EXCEEDED!!!
REMARK  67 active torsions:
REMARK  status: ('A' for Active; 'I' for Inactive)
REMARK    1  A    between atoms: N_1  and  CA_2 
REMARK    2  A    between atoms: CA_2  and  C_3 
REMARK    3  A    between atoms: CA_2  and  CB_5 
REMARK       I    between atoms: C_3  and  N_11 
REMARK    4  A    between atoms: CB_5  and  CG_6 
REMARK    5  A    between atoms: CG_6  and  CD_7 
REMARK    6  A    between atoms: N_11  and  CA_12 
REMARK    7  A    between atoms: CA_12  and  C_13 
REMARK    8  A    between atoms: CA_12  and  CB_15 
REMARK       I    between atoms: C_13  and  N_22 
REMARK    9  A    between atoms: CB_15  and  CG_16 
REMARK       I    between atoms: CG_16  and  ND2_17 
REMARK   10  A    between atoms: CA_23  and  C_24 
REMARK       I    between atoms: C_24  and  N_29 
REMARK   11  A    between atoms: N_29  and  CA_30 
REMARK   12  A    between atoms: CA_30  and  C_31 
REMARK   13  A    between atoms: CA_30  and  CB_33 
REMARK       I    between atoms: C_31  and  N_39 
REMARK   14  A    between atoms: CB_33  and  CG_34 
REMARK   15  A    between atoms: CG_34  and  CD_35 
REMARK   16  A    between atoms: N_39  and  CA_40 
REMARK   17  A    between atoms: CA_40  and  C_41 
REMARK   18  A    between atoms: CA_40  and  CB_43 
REMARK       I    between atoms: C_41  and  N_47 
REMARK   19  A    between atoms: CB_43  and  OG_44 
REMARK   20  A    between atoms: N_47  and  CA_48 
REMARK   21  A    between atoms: CA_48  and  C_49 
REMARK   22  A    between atoms: CA_48  and  CB_51 
REMARK       I    between atoms: C_49  and  N_56 
REMARK   23  A    between atoms: CB_51  and  CG1_52 
REMARK   24  A    between atoms: N_56  and  CA_57 
REMARK   25  A    between atoms: CA_57  and  C_58 
REMARK   26  A    between atoms: CA_57  and  CB_60 
REMARK       I    between atoms: C_58  and  N_65 
REMARK   27  A    between atoms: CB_60  and  CG_61 
REMARK   28  A    between atoms: N_65  and  CA_66 
REMARK   29  A    between atoms: CA_66  and  C_67 
REMARK   30  A    between atoms: CA_66  and  CB_69 
REMARK       I    between atoms: C_67  and  N_74 
REMARK   31  A    between atoms: CB_69  and  CG_70 
REMARK   32  A    between atoms: N_74  and  CA_75 
REMARK   33  A    between atoms: CA_75  and  C_76 
REMARK   34  A    between atoms: CA_75  and  CB_78 
REMARK       I    between atoms: C_76  and  N_84 
REMARK   35  A    between atoms: CB_78  and  CG_79 
REMARK   36  A    between atoms: CG_79  and  CD_80 
REMARK   37  A    between atoms: N_84  and  CA_85 
REMARK   38  A    between atoms: CA_85  and  C_86 
REMARK   39  A    between atoms: CA_85  and  CB_88 
REMARK       I    between atoms: C_86  and  N_96 
REMARK   40  A    between atoms: CB_88  and  CG_89 
REMARK   41  A    between atoms: N_96  and  CA_97 
REMARK   42  A    between atoms: CA_97  and  C_98 
REMARK   43  A    between atoms: CA_97  and  CB_100 
REMARK       I    between atoms: C_98  and  N_104 
REMARK   44  A    between atoms: N_104  and  CA_105 
REMARK   45  A    between atoms: CA_105  and  C_106 
REMARK   46  A    between atoms: CA_105  and  CB_108 
REMARK       I    between atoms: C_106  and  N_116 
REMARK   47  A    between atoms: CB_108  and  CG_109 
REMARK   48  A    between atoms: CG_109  and  CD_110 
REMARK       I    between atoms: CD_110  and  NE2_111 
REMARK   49  A    between atoms: N_116  and  CA_117 
REMARK   50  A    between atoms: CA_117  and  C_118 
REMARK   51  A    between atoms: CA_117  and  CB_120 
REMARK       I    between atoms: C_118  and  N_133 
REMARK   52  A    between atoms: CB_120  and  CG_121 
REMARK   53  A    between atoms: CG_121  and  CD_122 
REMARK   54  A    between atoms: CD_122  and  NE_123 
REMARK       I    between atoms: NE_123  and  CZ_124 
REMARK       I    between atoms: CZ_124  and  NH1_125 
REMARK       I    between atoms: CZ_124  and  NH2_126 
REMARK   55  A    between atoms: N_133  and  CA_134 
REMARK   56  A    between atoms: CA_134  and  C_135 
REMARK   57  A    between atoms: CA_134  and  CB_137 
REMARK       I    between atoms: C_135  and  N_141 
REMARK   58  A    between atoms: N_141  and  CA_142 
REMARK   59  A    between atoms: CA_142  and  C_143 
REMARK   60  A    between atoms: CA_142  and  CB_145 
REMARK       I    between atoms: C_143  and  N_150 
REMARK   61  A    between atoms: CB_145  and  CG_146 
REMARK   62  A    between atoms: N_150  and  CA_151 
REMARK   63  A    between atoms: CA_151  and  C_152 
REMARK   64  A    between atoms: CA_151  and  CB_154 
REMARK   65  A    between atoms: CB_154  and  CG_155 
REMARK   66  A    between atoms: CG_155  and  CD_156 
REMARK   67  A    between atoms: CD_156  and  NE_157 
REMARK       I    between atoms: NE_157  and  CZ_158 
REMARK       I    between atoms: CZ_158  and  NH1_159 
ROOT
ATOM      1  C   GLU d   9    2392.816 735.605-2487.846  0.00  0.00     0.241 C 
ATOM      2  O   GLU d   9    2393.480 736.358-2488.572  0.00  0.00    -0.271 OA
ATOM      3  N   HIS d  10    2392.912 734.329-2488.015  0.00  0.00    -0.346 N 
ATOM      4  H   HIS d  10    2392.382 733.694-2487.436  0.00  0.00     0.163 HD
ENDROOT
BRANCH   1   5
ATOM      5  CA  GLU d   9    2391.899 736.133-2486.770  0.00  0.00     0.177 C 
BRANCH   5   6
ATOM      6  N   GLU d   9    2390.596 735.476-2486.825  0.00  0.00    -0.346 N 
ATOM      7  C   ASP d   8    2389.916 735.526-2487.920  0.00  0.00     0.241 C 
ATOM      8  O   ASP d   8    2390.389 736.130-2488.895  0.00  0.00    -0.271 OA
ATOM      9  H   GLU d   9    2390.232 734.991-2486.018  0.00  0.00     0.163 HD
BRANCH   7  10
ATOM     10  CA  ASP d   8    2388.569 734.847-2487.977  0.00  0.00     0.186 C 
BRANCH  10  11
ATOM     11  N   ASP d   8    2388.638 733.498-2487.423  0.00  0.00    -0.346 N 
ATOM     12  C   LEU d   7    2389.475 732.656-2487.929  0.00  0.00     0.241 C 
ATOM     13  O   LEU d   7    2390.196 733.018-2488.871  0.00  0.00    -0.271 OA
ATOM     14  H   ASP d   8    2388.041 733.227-2486.655  0.00  0.00     0.163 HD
BRANCH  12  15
ATOM     15  CA  LEU d   7    2389.547 731.261-2487.356  0.00  0.00     0.177 C 
BRANCH  15  16
ATOM     16  N   LEU d   7    2389.602 731.297-2485.897  0.00  0.00    -0.346 N 
ATOM     17  C   ILE d   6    2390.548 731.960-2485.324  0.00  0.00     0.241 C 
ATOM     18  O   ILE d   6    2391.383 732.548-2486.028  0.00  0.00    -0.271 OA
ATOM     19  H   LEU d   7    2388.910 730.810-2485.346  0.00  0.00     0.163 HD
BRANCH  17  20
ATOM     20  CA  ILE d   6    2390.605 731.998-2483.816  0.00  0.00     0.180 C 
BRANCH  20  21
ATOM     21  N   ILE d   6    2389.292 732.293-2483.250  0.00  0.00    -0.346 N 
ATOM     22  C   SER d   5    2388.688 733.377-2483.604  0.00  0.00     0.243 C 
ATOM     23  O   SER d   5    2389.236 734.130-2484.409  0.00  0.00    -0.271 OA
ATOM     24  H   ILE d   6    2388.863 731.659-2482.591  0.00  0.00     0.163 HD
BRANCH  22  25
ATOM     25  CA  SER d   5    2387.329 733.683-2483.019  0.00  0.00     0.200 C 
BRANCH  25  26
ATOM     26  N   SER d   5    2386.459 732.512-2483.078  0.00  0.00    -0.344 N 
ATOM     27  C   GLU d   4    2386.232 731.959-2484.221  0.00  0.00     0.241 C 
ATOM     28  O   GLU d   4    2386.759 732.439-2485.235  0.00  0.00    -0.271 OA
ATOM     29  H   SER d   5    2386.042 732.140-2482.237  0.00  0.00     0.163 HD
BRANCH  27  30
ATOM     30  CA  GLU d   4    2385.333 730.748-2484.283  0.00  0.00     0.177 C 
BRANCH  30  31
ATOM     31  N   GLU d   4    2385.692 729.777-2483.253  0.00  0.00    -0.346 N 
ATOM     32  C   PRO d   3    2386.897 729.317-2483.220  0.00  0.00     0.241 C 
ATOM     33  O   PRO d   3    2387.720 729.700-2484.052  0.00  0.00    -0.271 OA
ATOM     34  H   GLU d   4    2385.008 729.471-2482.576  0.00  0.00     0.163 HD
BRANCH  32  35
ATOM     35  CA  PRO d   3    2387.295 728.294-2482.143  0.00  0.00     0.179 C 
ATOM     36  N   PRO d   3    2386.843 728.703-2480.822  0.00  0.00    -0.337 N 
ATOM     37  C   ASN d   2    2387.364 729.698-2480.188  0.00  0.00     0.243 C 
ATOM     38  CD  PRO d   3    2385.764 727.910-2480.273  0.00  0.00     0.127 C 
ATOM     39  O   ASN d   2    2388.279 730.328-2480.716  0.00  0.00    -0.271 OA
ATOM     40  CG  PRO d   3    2385.307 727.091-2481.483  0.00  0.00     0.022 C 
ATOM     41  CB  PRO d   3    2386.590 726.939-2482.313  0.00  0.00     0.037 C 
BRANCH  37  42
ATOM     42  CA  ASN d   2    2386.833 730.053-2478.819  0.00  0.00     0.185 C 
BRANCH  42  43
ATOM     43  N   ASN d   2    2385.373 730.092-2478.819  0.00  0.00    -0.346 N 
ATOM     44  C   GLU d   1    2384.769 730.878-2479.644  0.00  0.00     0.242 C 
ATOM     45  O   GLU d   1    2385.445 731.577-2480.413  0.00  0.00    -0.271 OA
ATOM     46  H   ASN d   2    2384.845 729.513-2478.183  0.00  0.00     0.163 HD
BRANCH  44  47
ATOM     47  CA  GLU d   1    2383.260 730.918-2479.644  0.00  0.00     0.191 C 
BRANCH  47  48
ATOM     48  N   GLU d   1    2382.701 729.569-2479.644  0.00  0.00    -0.326 NA
ATOM     49  H   GLU d   1    2383.328 728.690-2479.644  0.00  0.00     0.180 HD
ENDBRANCH  47  48
BRANCH  47  50
ATOM     50  CB  GLU d   1    2382.737 731.703-2478.407  0.00  0.00     0.047 C 
BRANCH  50  51
ATOM     51  CG  GLU d   1    2383.212 733.188-2478.296  0.00  0.00     0.116 C 
BRANCH  51  52
ATOM     52  CD  GLU d   1    2382.788 733.992-2477.081  0.00  0.00     0.172 C 
ATOM     53  OE1 GLU d   1    2382.060 733.490-2476.203  0.00  0.00    -0.648 OA
ATOM     54  OE2 GLU d   1    2383.218 735.162-2477.009  0.00  0.00    -0.648 OA
ENDBRANCH  51  52
ENDBRANCH  50  51
ENDBRANCH  47  50
ENDBRANCH  44  47
ENDBRANCH  42  43
BRANCH  42  55
ATOM     55  CB  ASN d   2    2387.324 729.030-2477.754  0.00  0.00     0.137 C 
BRANCH  55  56
ATOM     56  CG  ASN d   2    2386.861 729.254-2476.311  0.00  0.00     0.217 C 
ATOM     57  ND2 ASN d   2    2387.455 730.169-2475.593  0.00  0.00    -0.370 N 
ATOM     58 21HD ASN d   2    2386.974 730.342-2474.707  0.00  0.00     0.159 HD
ATOM     59 22HD ASN d   2    2388.157 730.741-2476.062  0.00  0.00     0.159 HD
ATOM     60  OD1 ASN d   2    2385.940 728.621-2475.817  0.00  0.00    -0.274 OA
ENDBRANCH  55  56
ENDBRANCH  42  55
ENDBRANCH  37  42
ENDBRANCH  32  35
ENDBRANCH  30  31
BRANCH  30  61
ATOM     61  CB  GLU d   4    2383.844 731.168-2484.113  0.00  0.00     0.045 C 
BRANCH  61  62
ATOM     62  CG  GLU d   4    2383.297 732.171-2485.179  0.00  0.00     0.116 C 
BRANCH  62  63
ATOM     63  CD  GLU d   4    2381.871 732.668-2485.036  0.00  0.00     0.172 C 
ATOM     64  OE1 GLU d   4    2381.144 732.270-2484.105  0.00  0.00    -0.648 OA
ATOM     65  OE2 GLU d   4    2381.482 733.498-2485.884  0.00  0.00    -0.648 OA
ENDBRANCH  62  63
ENDBRANCH  61  62
ENDBRANCH  30  61
ENDBRANCH  27  30
ENDBRANCH  25  26
BRANCH  25  66
ATOM     66  CB  SER d   5    2387.440 734.215-2481.569  0.00  0.00     0.199 C 
BRANCH  66  67
ATOM     67  OG  SER d   5    2388.171 733.335-2480.708  0.00  0.00    -0.398 OA
ATOM     68  HG  SER d   5    2387.682 732.511-2480.657  0.00  0.00     0.209 HD
ENDBRANCH  66  67
ENDBRANCH  25  66
ENDBRANCH  22  25
ENDBRANCH  20  21
BRANCH  20  69
ATOM     69  CB  ILE d   6    2391.205 730.662-2483.216  0.00  0.00     0.013 C 
ATOM     70  CG2 ILE d   6    2392.646 730.359-2483.731  0.00  0.00     0.012 C 
BRANCH  69  71
ATOM     71  CG1 ILE d   6    2391.223 730.599-2481.655  0.00  0.00     0.002 C 
ATOM     72  CD1 ILE d   6    2391.493 729.210-2481.040  0.00  0.00     0.005 C 
ENDBRANCH  69  71
ENDBRANCH  20  69
ENDBRANCH  17  20
ENDBRANCH  15  16
BRANCH  15  73
ATOM     73  CB  LEU d   7    2388.344 730.401-2487.836  0.00  0.00     0.038 C 
BRANCH  73  74
ATOM     74  CG  LEU d   7    2388.271 728.922-2487.370  0.00  0.00    -0.020 C 
ATOM     75  CD1 LEU d   7    2387.081 728.216-2488.035  0.00  0.00     0.009 C 
ATOM     76  CD2 LEU d   7    2389.564 728.142-2487.661  0.00  0.00     0.009 C 
ENDBRANCH  73  74
ENDBRANCH  15  73
ENDBRANCH  12  15
ENDBRANCH  10  11
BRANCH  10  77
ATOM     77  CB  ASP d   8    2387.491 735.687-2487.236  0.00  0.00     0.147 C 
BRANCH  77  78
ATOM     78  CG  ASP d   8    2387.273 737.107-2487.777  0.00  0.00     0.175 C 
ATOM     79  OD1 ASP d   8    2387.337 737.306-2489.008  0.00  0.00    -0.648 OA
ATOM     80  OD2 ASP d   8    2387.082 738.034-2486.962  0.00  0.00    -0.648 OA
ENDBRANCH  77  78
ENDBRANCH  10  77
ENDBRANCH   7  10
ENDBRANCH   5   6
BRANCH   5  81
ATOM     81  CB  GLU d   9    2392.532 735.926-2485.365  0.00  0.00     0.045 C 
BRANCH  81  82
ATOM     82  CG  GLU d   9    2393.916 736.618-2485.136  0.00  0.00     0.116 C 
BRANCH  82  83
ATOM     83  CD  GLU d   9    2394.617 736.405-2483.808  0.00  0.00     0.172 C 
ATOM     84  OE1 GLU d   9    2394.096 735.715-2482.911  0.00  0.00    -0.648 OA
ATOM     85  OE2 GLU d   9    2395.737 736.942-2483.677  0.00  0.00    -0.648 OA
ENDBRANCH  82  83
ENDBRANCH  81  82
ENDBRANCH   5  81
ENDBRANCH   1   5
BRANCH   3  86
ATOM     86  CA  HIS d  10    2393.800 733.817-2489.055  0.00  0.00     0.182 C 
BRANCH  86  87
ATOM     87  C   HIS d  10    2393.433 734.381-2490.407  0.00  0.00     0.241 C 
ATOM     88  O   HIS d  10    2394.285 734.845-2491.179  0.00  0.00    -0.271 OA
ATOM     89  N   VAL d  11    2392.195 734.381-2490.770  0.00  0.00    -0.346 N 
ATOM     90  H   VAL d  11    2391.482 734.009-2490.159  0.00  0.00     0.163 HD
BRANCH  89  91
ATOM     91  CA  VAL d  11    2391.840 734.926-2492.077  0.00  0.00     0.180 C 
BRANCH  91  92
ATOM     92  C   VAL d  11    2392.305 736.357-2492.210  0.00  0.00     0.241 C 
ATOM     93  O   VAL d  11    2392.906 736.761-2493.213  0.00  0.00    -0.271 OA
ATOM     94  N   GLN d  12    2392.069 737.183-2491.248  0.00  0.00    -0.346 N 
ATOM     95  H   GLN d  12    2391.580 736.877-2490.418  0.00  0.00     0.163 HD
BRANCH  94  96
ATOM     96  CA  GLN d  12    2392.518 738.565-2491.376  0.00  0.00     0.177 C 
BRANCH  96  97
ATOM     97  C   GLN d  12    2394.008 738.632-2491.614  0.00  0.00     0.241 C 
ATOM     98  O   GLN d  12    2394.495 739.339-2492.493  0.00  0.00    -0.271 OA
ATOM     99  N   ARG d  13    2394.792 737.925-2490.873  0.00  0.00    -0.346 N 
ATOM    100  H   ARG d  13    2394.416 737.336-2490.144  0.00  0.00     0.163 HD
BRANCH  99 101
ATOM    101  CA  ARG d  13    2396.232 737.990-2491.104  0.00  0.00     0.176 C 
BRANCH 101 102
ATOM    102  C   ARG d  13    2396.568 737.618-2492.529  0.00  0.00     0.241 C 
ATOM    103  O   ARG d  13    2397.337 738.289-2493.214  0.00  0.00    -0.271 OA
ATOM    104  N   VAL d  14    2396.031 736.563-2493.042  0.00  0.00    -0.346 N 
ATOM    105  H   VAL d  14    2395.396 735.995-2492.500  0.00  0.00     0.163 HD
BRANCH 104 106
ATOM    106  CA  VAL d  14    2396.356 736.203-2494.420  0.00  0.00     0.180 C 
BRANCH 106 107
ATOM    107  C   VAL d  14    2396.026 737.333-2495.366  0.00  0.00     0.241 C 
ATOM    108  O   VAL d  14    2396.819 737.714-2496.236  0.00  0.00    -0.271 OA
ATOM    109  N   LEU d  15    2394.882 737.919-2495.264  0.00  0.00    -0.346 N 
ATOM    110  H   LEU d  15    2394.216 737.627-2494.562  0.00  0.00     0.163 HD
BRANCH 109 111
ATOM    111  CA  LEU d  15    2394.562 739.011-2496.179  0.00  0.00     0.177 C 
BRANCH 111 112
ATOM    112  C   LEU d  15    2395.595 740.109-2496.090  0.00  0.00     0.241 C 
ATOM    113  O   LEU d  15    2396.101 740.621-2497.100  0.00  0.00    -0.271 OA
ATOM    114  N   ARG d  16    2395.963 740.528-2494.927  0.00  0.00    -0.347 N 
ATOM    115  H   ARG d  16    2395.566 740.128-2494.088  0.00  0.00     0.163 HD
BRANCH 114 116
ATOM    116  CA  ARG d  16    2396.961 741.590-2494.840  0.00  0.00     0.162 C 
BRANCH 116 117
ATOM    117  C   ARG d  16    2398.232 741.195-2495.555  0.00  0.00     0.219 C 
ATOM    118  O   ARG d  16    2398.345 740.119-2496.137  0.00  0.00    -0.287 OA
ENDBRANCH 116 117
BRANCH 116 119
ATOM    119  CB  ARG d  16    2397.229 741.906-2493.341  0.00  0.00     0.035 C 
BRANCH 119 120
ATOM    120  CG  ARG d  16    2398.056 743.193-2493.065  0.00  0.00     0.023 C 
BRANCH 120 121
ATOM    121  CD  ARG d  16    2398.304 743.410-2491.564  0.00  0.00     0.138 C 
BRANCH 121 122
ATOM    122  NE  ARG d  16    2399.082 744.667-2491.360  0.00  0.00    -0.227 N 
ATOM    123  CZ  ARG d  16    2399.473 745.147-2490.183  0.00  0.00     0.665 C 
ATOM    124  NH1 ARG d  16    2399.222 744.562-2489.046  0.00  0.00    -0.235 N 
ATOM    125  NH2 ARG d  16    2400.139 746.258-2490.162  0.00  0.00    -0.235 N 
ATOM    126 11HH ARG d  16    2398.695 743.691-2489.132  0.00  0.00     0.174 HD
ATOM    127 12HH ARG d  16    2399.556 744.996-2488.184  0.00  0.00     0.174 HD
ATOM    128 21HH ARG d  16    2400.327 746.702-2491.063  0.00  0.00     0.174 HD
ATOM    129 22HH ARG d  16    2400.429 746.612-2489.249  0.00  0.00     0.174 HD
ATOM    130  HE  ARG d  16    2399.363 745.248-2492.156  0.00  0.00     0.177 HD
ENDBRANCH 121 122
ENDBRANCH 120 121
ENDBRANCH 119 120
ENDBRANCH 116 119
ENDBRANCH 114 116
ENDBRANCH 111 112
BRANCH 111 131
ATOM    131  CB  LEU d  15    2393.137 739.565-2495.893  0.00  0.00     0.038 C 
BRANCH 131 132
ATOM    132  CG  LEU d  15    2391.941 738.579-2495.972  0.00  0.00    -0.020 C 
ATOM    133  CD1 LEU d  15    2390.619 739.333-2495.770  0.00  0.00     0.009 C 
ATOM    134  CD2 LEU d  15    2391.897 737.804-2497.300  0.00  0.00     0.009 C 
ENDBRANCH 131 132
ENDBRANCH 111 131
ENDBRANCH 109 111
ENDBRANCH 106 107
BRANCH 106 135
ATOM    135  CB  VAL d  14    2395.583 734.886-2494.826  0.00  0.00     0.009 C 
ATOM    136  CG1 VAL d  14    2395.672 734.467-2496.319  0.00  0.00     0.012 C 
ATOM    137  CG2 VAL d  14    2396.015 733.634-2494.025  0.00  0.00     0.012 C 
ENDBRANCH 106 135
ENDBRANCH 104 106
ENDBRANCH 101 102
BRANCH 101 138
ATOM    138  CB  ARG d  13    2396.946 737.052-2490.090  0.00  0.00     0.036 C 
BRANCH 138 139
ATOM    139  CG  ARG d  13    2398.491 737.205-2490.009  0.00  0.00     0.023 C 
BRANCH 139 140
ATOM    140  CD  ARG d  13    2399.118 736.218-2489.011  0.00  0.00     0.138 C 
BRANCH 140 141
ATOM    141  NE  ARG d  13    2400.595 736.424-2488.961  0.00  0.00    -0.227 N 
ATOM    142  CZ  ARG d  13    2401.443 735.733-2488.206  0.00  0.00     0.665 C 
ATOM    143  NH1 ARG d  13    2401.078 734.770-2487.407  0.00  0.00    -0.235 N 
ATOM    144  NH2 ARG d  13    2402.703 736.032-2488.263  0.00  0.00    -0.235 N 
ATOM    145 11HH ARG d  13    2400.073 734.584-2487.410  0.00  0.00     0.174 HD
ATOM    146 12HH ARG d  13    2401.791 734.287-2486.858  0.00  0.00     0.174 HD
ATOM    147 21HH ARG d  13    2402.970 736.789-2488.895  0.00  0.00     0.174 HD
ATOM    148 22HH ARG d  13    2403.338 735.490-2487.674  0.00  0.00     0.174 HD
ATOM    149  HE  ARG d  13    2401.046 737.146-2489.532  0.00  0.00     0.177 HD
ENDBRANCH 140 141
ENDBRANCH 139 140
ENDBRANCH 138 139
ENDBRANCH 101 138
ENDBRANCH  99 101
ENDBRANCH  96  97
BRANCH  96 150
ATOM    150  CB  GLN d  12    2392.127 739.334-2490.094  0.00  0.00     0.044 C 
BRANCH 150 151
ATOM    151  CG  GLN d  12    2392.489 740.855-2490.063  0.00  0.00     0.105 C 
BRANCH 151 152
ATOM    152  CD  GLN d  12    2392.187 741.670-2488.799  0.00  0.00     0.215 C 
ATOM    153  NE2 GLN d  12    2391.620 741.094-2487.770  0.00  0.00    -0.370 N 
ATOM    154 21HE GLN d  12    2391.514 741.689-2486.946  0.00  0.00     0.159 HD
ATOM    155 22HE GLN d  12    2391.456 740.091-2487.872  0.00  0.00     0.159 HD
ATOM    156  OE1 GLN d  12    2392.490 742.851-2488.722  0.00  0.00    -0.274 OA
ENDBRANCH 151 152
ENDBRANCH 150 151
ENDBRANCH  96 150
ENDBRANCH  94  96
ENDBRANCH  91  92
BRANCH  91 157
ATOM    157  CB  VAL d  11    2390.278 734.820-2492.296  0.00  0.00     0.009 C 
ATOM    158  CG1 VAL d  11    2389.710 735.524-2493.559  0.00  0.00     0.012 C 
ATOM    159  CG2 VAL d  11    2389.753 733.366-2492.368  0.00  0.00     0.012 C 
ENDBRANCH  91 157
ENDBRANCH  89  91
ENDBRANCH  86  87
BRANCH  86 160
ATOM    160  CB  HIS d  10    2393.635 732.288-2489.050  0.00  0.00     0.095 C 
BRANCH 160 161
ATOM    161  CG  HIS d  10    2394.920 731.577-2488.742  0.00  0.00     0.053 A 
ATOM    162  CD2 HIS d  10    2395.302 731.243-2487.449  0.00  0.00     0.116 A 
ATOM    163  NE2 HIS d  10    2396.516 730.611-2487.516  0.00  0.00    -0.359 N 
ATOM    164  CE1 HIS d  10    2396.778 730.613-2488.851  0.00  0.00     0.207 A 
ATOM    165  2HE HIS d  10    2397.083 730.234-2486.743  0.00  0.00     0.166 HD
ATOM    166  ND1 HIS d  10    2395.872 731.171-2489.674  0.00  0.00    -0.247 NA
ENDBRANCH 160 161
ENDBRANCH  86 160
ENDBRANCH   3  86
TORSDOF 67
