REMARK WARNING: 32 MAX_TORS EXCEEDED!!!
REMARK  67 active torsions:
REMARK  status: ('A' for Active; 'I' for Inactive)
REMARK    1  A    between atoms: N_1  and  CA_2 
REMARK    2  A    between atoms: CA_2  and  C_3 
REMARK    3  A    between atoms: CA_2  and  CB_5 
REMARK       I    between atoms: C_3  and  N_11 
REMARK    4  A    between atoms: CB_5  and  CG_6 
REMARK    5  A    between atoms: CG_6  and  CD_7 
REMARK    6  A    between atoms: N_11  and  CA_12 
REMARK    7  A    between atoms: CA_12  and  C_13 
REMARK    8  A    between atoms: CA_12  and  CB_15 
REMARK       I    between atoms: C_13  and  N_22 
REMARK    9  A    between atoms: CB_15  and  CG_16 
REMARK       I    between atoms: CG_16  and  ND2_17 
REMARK   10  A    between atoms: CA_23  and  C_24 
REMARK       I    between atoms: C_24  and  N_29 
REMARK   11  A    between atoms: N_29  and  CA_30 
REMARK   12  A    between atoms: CA_30  and  C_31 
REMARK   13  A    between atoms: CA_30  and  CB_33 
REMARK       I    between atoms: C_31  and  N_39 
REMARK   14  A    between atoms: CB_33  and  CG_34 
REMARK   15  A    between atoms: CG_34  and  CD_35 
REMARK   16  A    between atoms: N_39  and  CA_40 
REMARK   17  A    between atoms: CA_40  and  C_41 
REMARK   18  A    between atoms: CA_40  and  CB_43 
REMARK       I    between atoms: C_41  and  N_47 
REMARK   19  A    between atoms: CB_43  and  OG_44 
REMARK   20  A    between atoms: N_47  and  CA_48 
REMARK   21  A    between atoms: CA_48  and  C_49 
REMARK   22  A    between atoms: CA_48  and  CB_51 
REMARK       I    between atoms: C_49  and  N_56 
REMARK   23  A    between atoms: CB_51  and  CG1_52 
REMARK   24  A    between atoms: N_56  and  CA_57 
REMARK   25  A    between atoms: CA_57  and  C_58 
REMARK   26  A    between atoms: CA_57  and  CB_60 
REMARK       I    between atoms: C_58  and  N_65 
REMARK   27  A    between atoms: CB_60  and  CG_61 
REMARK   28  A    between atoms: N_65  and  CA_66 
REMARK   29  A    between atoms: CA_66  and  C_67 
REMARK   30  A    between atoms: CA_66  and  CB_69 
REMARK       I    between atoms: C_67  and  N_74 
REMARK   31  A    between atoms: CB_69  and  CG_70 
REMARK   32  A    between atoms: N_74  and  CA_75 
REMARK   33  A    between atoms: CA_75  and  C_76 
REMARK   34  A    between atoms: CA_75  and  CB_78 
REMARK       I    between atoms: C_76  and  N_84 
REMARK   35  A    between atoms: CB_78  and  CG_79 
REMARK   36  A    between atoms: CG_79  and  CD_80 
REMARK   37  A    between atoms: N_84  and  CA_85 
REMARK   38  A    between atoms: CA_85  and  C_86 
REMARK   39  A    between atoms: CA_85  and  CB_88 
REMARK       I    between atoms: C_86  and  N_96 
REMARK   40  A    between atoms: CB_88  and  CG_89 
REMARK   41  A    between atoms: N_96  and  CA_97 
REMARK   42  A    between atoms: CA_97  and  C_98 
REMARK   43  A    between atoms: CA_97  and  CB_100 
REMARK       I    between atoms: C_98  and  N_104 
REMARK   44  A    between atoms: N_104  and  CA_105 
REMARK   45  A    between atoms: CA_105  and  C_106 
REMARK   46  A    between atoms: CA_105  and  CB_108 
REMARK       I    between atoms: C_106  and  N_116 
REMARK   47  A    between atoms: CB_108  and  CG_109 
REMARK   48  A    between atoms: CG_109  and  CD_110 
REMARK       I    between atoms: CD_110  and  NE2_111 
REMARK   49  A    between atoms: N_116  and  CA_117 
REMARK   50  A    between atoms: CA_117  and  C_118 
REMARK   51  A    between atoms: CA_117  and  CB_120 
REMARK       I    between atoms: C_118  and  N_130 
REMARK   52  A    between atoms: CB_120  and  CG_121 
REMARK   53  A    between atoms: CZ_126  and  OH_127 
REMARK   54  A    between atoms: N_130  and  CA_131 
REMARK   55  A    between atoms: CA_131  and  C_132 
REMARK   56  A    between atoms: CA_131  and  CB_134 
REMARK       I    between atoms: C_132  and  N_138 
REMARK   57  A    between atoms: N_138  and  CA_139 
REMARK   58  A    between atoms: CA_139  and  C_140 
REMARK   59  A    between atoms: CA_139  and  CB_142 
REMARK       I    between atoms: C_140  and  N_147 
REMARK   60  A    between atoms: CB_142  and  CG_143 
REMARK   61  A    between atoms: CG_143  and  SD_144 
REMARK   62  A    between atoms: N_147  and  CA_148 
REMARK   63  A    between atoms: CA_148  and  C_149 
REMARK   64  A    between atoms: CA_148  and  CB_151 
REMARK   65  A    between atoms: CB_151  and  CG_152 
REMARK   66  A    between atoms: CG_152  and  CD_153 
REMARK   67  A    between atoms: CD_153  and  NE_154 
REMARK       I    between atoms: NE_154  and  CZ_155 
REMARK       I    between atoms: CZ_155  and  NH1_156 
ROOT
ATOM      1  C   GLU d   9    2082.930 634.957-2150.715  0.00  0.00     0.241 C 
ATOM      2  O   GLU d   9    2083.594 635.710-2151.441  0.00  0.00    -0.271 OA
ATOM      3  N   HIS d  10    2083.026 633.681-2150.883  0.00  0.00    -0.346 N 
ATOM      4  H   HIS d  10    2082.496 633.047-2150.304  0.00  0.00     0.163 HD
ENDROOT
BRANCH   1   5
ATOM      5  CA  GLU d   9    2082.013 635.485-2149.639  0.00  0.00     0.177 C 
BRANCH   5   6
ATOM      6  N   GLU d   9    2080.710 634.828-2149.693  0.00  0.00    -0.346 N 
ATOM      7  C   ASP d   8    2080.030 634.878-2150.789  0.00  0.00     0.241 C 
ATOM      8  O   ASP d   8    2080.503 635.482-2151.764  0.00  0.00    -0.271 OA
ATOM      9  H   GLU d   9    2080.346 634.343-2148.886  0.00  0.00     0.163 HD
BRANCH   7  10
ATOM     10  CA  ASP d   8    2078.683 634.199-2150.845  0.00  0.00     0.186 C 
BRANCH  10  11
ATOM     11  N   ASP d   8    2078.752 632.850-2150.291  0.00  0.00    -0.346 N 
ATOM     12  C   LEU d   7    2079.589 632.008-2150.797  0.00  0.00     0.241 C 
ATOM     13  O   LEU d   7    2080.310 632.370-2151.740  0.00  0.00    -0.271 OA
ATOM     14  H   ASP d   8    2078.155 632.579-2149.523  0.00  0.00     0.163 HD
BRANCH  12  15
ATOM     15  CA  LEU d   7    2079.661 630.613-2150.224  0.00  0.00     0.177 C 
BRANCH  15  16
ATOM     16  N   LEU d   7    2079.716 630.649-2148.766  0.00  0.00    -0.346 N 
ATOM     17  C   ILE d   6    2080.662 631.313-2148.192  0.00  0.00     0.241 C 
ATOM     18  O   ILE d   6    2081.497 631.900-2148.896  0.00  0.00    -0.271 OA
ATOM     19  H   LEU d   7    2079.024 630.162-2148.214  0.00  0.00     0.163 HD
BRANCH  17  20
ATOM     20  CA  ILE d   6    2080.719 631.350-2146.684  0.00  0.00     0.180 C 
BRANCH  20  21
ATOM     21  N   ILE d   6    2079.406 631.646-2146.118  0.00  0.00    -0.346 N 
ATOM     22  C   SER d   5    2078.802 632.729-2146.473  0.00  0.00     0.243 C 
ATOM     23  O   SER d   5    2079.350 633.482-2147.277  0.00  0.00    -0.271 OA
ATOM     24  H   ILE d   6    2078.977 631.011-2145.460  0.00  0.00     0.163 HD
BRANCH  22  25
ATOM     25  CA  SER d   5    2077.443 633.035-2145.887  0.00  0.00     0.200 C 
BRANCH  25  26
ATOM     26  N   SER d   5    2076.573 631.864-2145.946  0.00  0.00    -0.344 N 
ATOM     27  C   GLU d   4    2076.346 631.311-2147.090  0.00  0.00     0.241 C 
ATOM     28  O   GLU d   4    2076.873 631.791-2148.104  0.00  0.00    -0.271 OA
ATOM     29  H   SER d   5    2076.156 631.492-2145.105  0.00  0.00     0.163 HD
BRANCH  27  30
ATOM     30  CA  GLU d   4    2075.447 630.101-2147.151  0.00  0.00     0.177 C 
BRANCH  30  31
ATOM     31  N   GLU d   4    2075.806 629.130-2146.121  0.00  0.00    -0.346 N 
ATOM     32  C   PRO d   3    2077.011 628.669-2146.089  0.00  0.00     0.241 C 
ATOM     33  O   PRO d   3    2077.834 629.052-2146.920  0.00  0.00    -0.271 OA
ATOM     34  H   GLU d   4    2075.122 628.823-2145.445  0.00  0.00     0.163 HD
BRANCH  32  35
ATOM     35  CA  PRO d   3    2077.409 627.646-2145.011  0.00  0.00     0.179 C 
ATOM     36  N   PRO d   3    2076.957 628.055-2143.690  0.00  0.00    -0.337 N 
ATOM     37  C   ASN d   2    2077.478 629.050-2143.056  0.00  0.00     0.243 C 
ATOM     38  CD  PRO d   3    2075.878 627.262-2143.141  0.00  0.00     0.127 C 
ATOM     39  O   ASN d   2    2078.393 629.680-2143.584  0.00  0.00    -0.271 OA
ATOM     40  CG  PRO d   3    2075.421 626.443-2144.351  0.00  0.00     0.022 C 
ATOM     41  CB  PRO d   3    2076.704 626.291-2145.181  0.00  0.00     0.037 C 
BRANCH  37  42
ATOM     42  CA  ASN d   2    2076.947 629.405-2141.687  0.00  0.00     0.185 C 
BRANCH  42  43
ATOM     43  N   ASN d   2    2075.487 629.444-2141.688  0.00  0.00    -0.346 N 
ATOM     44  C   GLU d   1    2074.883 630.230-2142.513  0.00  0.00     0.242 C 
ATOM     45  O   GLU d   1    2075.559 630.929-2143.281  0.00  0.00    -0.271 OA
ATOM     46  H   ASN d   2    2074.959 628.865-2141.051  0.00  0.00     0.163 HD
BRANCH  44  47
ATOM     47  CA  GLU d   1    2073.374 630.270-2142.513  0.00  0.00     0.191 C 
BRANCH  47  48
ATOM     48  N   GLU d   1    2072.815 628.921-2142.513  0.00  0.00    -0.326 NA
ATOM     49  H   GLU d   1    2073.442 628.042-2142.513  0.00  0.00     0.180 HD
ENDBRANCH  47  48
BRANCH  47  50
ATOM     50  CB  GLU d   1    2072.851 631.055-2141.276  0.00  0.00     0.047 C 
BRANCH  50  51
ATOM     51  CG  GLU d   1    2073.326 632.540-2141.165  0.00  0.00     0.116 C 
BRANCH  51  52
ATOM     52  CD  GLU d   1    2072.902 633.344-2139.950  0.00  0.00     0.172 C 
ATOM     53  OE1 GLU d   1    2072.174 632.842-2139.072  0.00  0.00    -0.648 OA
ATOM     54  OE2 GLU d   1    2073.332 634.514-2139.878  0.00  0.00    -0.648 OA
ENDBRANCH  51  52
ENDBRANCH  50  51
ENDBRANCH  47  50
ENDBRANCH  44  47
ENDBRANCH  42  43
BRANCH  42  55
ATOM     55  CB  ASN d   2    2077.438 628.382-2140.623  0.00  0.00     0.137 C 
BRANCH  55  56
ATOM     56  CG  ASN d   2    2076.975 628.606-2139.180  0.00  0.00     0.217 C 
ATOM     57  ND2 ASN d   2    2077.569 629.521-2138.461  0.00  0.00    -0.370 N 
ATOM     58 21HD ASN d   2    2077.088 629.694-2137.575  0.00  0.00     0.159 HD
ATOM     59 22HD ASN d   2    2078.271 630.093-2138.930  0.00  0.00     0.159 HD
ATOM     60  OD1 ASN d   2    2076.054 627.973-2138.686  0.00  0.00    -0.274 OA
ENDBRANCH  55  56
ENDBRANCH  42  55
ENDBRANCH  37  42
ENDBRANCH  32  35
ENDBRANCH  30  31
BRANCH  30  61
ATOM     61  CB  GLU d   4    2073.958 630.520-2146.981  0.00  0.00     0.045 C 
BRANCH  61  62
ATOM     62  CG  GLU d   4    2073.411 631.523-2148.047  0.00  0.00     0.116 C 
BRANCH  62  63
ATOM     63  CD  GLU d   4    2071.985 632.020-2147.904  0.00  0.00     0.172 C 
ATOM     64  OE1 GLU d   4    2071.258 631.622-2146.974  0.00  0.00    -0.648 OA
ATOM     65  OE2 GLU d   4    2071.596 632.850-2148.753  0.00  0.00    -0.648 OA
ENDBRANCH  62  63
ENDBRANCH  61  62
ENDBRANCH  30  61
ENDBRANCH  27  30
ENDBRANCH  25  26
BRANCH  25  66
ATOM     66  CB  SER d   5    2077.554 633.567-2144.437  0.00  0.00     0.199 C 
BRANCH  66  67
ATOM     67  OG  SER d   5    2078.285 632.687-2143.576  0.00  0.00    -0.398 OA
ATOM     68  HG  SER d   5    2077.796 631.863-2143.525  0.00  0.00     0.209 HD
ENDBRANCH  66  67
ENDBRANCH  25  66
ENDBRANCH  22  25
ENDBRANCH  20  21
BRANCH  20  69
ATOM     69  CB  ILE d   6    2081.319 630.014-2146.084  0.00  0.00     0.013 C 
ATOM     70  CG2 ILE d   6    2082.760 629.711-2146.599  0.00  0.00     0.012 C 
BRANCH  69  71
ATOM     71  CG1 ILE d   6    2081.337 629.951-2144.523  0.00  0.00     0.002 C 
ATOM     72  CD1 ILE d   6    2081.607 628.562-2143.908  0.00  0.00     0.005 C 
ENDBRANCH  69  71
ENDBRANCH  20  69
ENDBRANCH  17  20
ENDBRANCH  15  16
BRANCH  15  73
ATOM     73  CB  LEU d   7    2078.458 629.753-2150.705  0.00  0.00     0.038 C 
BRANCH  73  74
ATOM     74  CG  LEU d   7    2078.385 628.274-2150.238  0.00  0.00    -0.020 C 
ATOM     75  CD1 LEU d   7    2077.195 627.568-2150.903  0.00  0.00     0.009 C 
ATOM     76  CD2 LEU d   7    2079.678 627.494-2150.530  0.00  0.00     0.009 C 
ENDBRANCH  73  74
ENDBRANCH  15  73
ENDBRANCH  12  15
ENDBRANCH  10  11
BRANCH  10  77
ATOM     77  CB  ASP d   8    2077.605 635.039-2150.104  0.00  0.00     0.147 C 
BRANCH  77  78
ATOM     78  CG  ASP d   8    2077.387 636.459-2150.646  0.00  0.00     0.175 C 
ATOM     79  OD1 ASP d   8    2077.451 636.658-2151.876  0.00  0.00    -0.648 OA
ATOM     80  OD2 ASP d   8    2077.196 637.386-2149.831  0.00  0.00    -0.648 OA
ENDBRANCH  77  78
ENDBRANCH  10  77
ENDBRANCH   7  10
ENDBRANCH   5   6
BRANCH   5  81
ATOM     81  CB  GLU d   9    2082.646 635.278-2148.233  0.00  0.00     0.045 C 
BRANCH  81  82
ATOM     82  CG  GLU d   9    2084.030 635.970-2148.005  0.00  0.00     0.116 C 
BRANCH  82  83
ATOM     83  CD  GLU d   9    2084.731 635.757-2146.676  0.00  0.00     0.172 C 
ATOM     84  OE1 GLU d   9    2084.210 635.067-2145.780  0.00  0.00    -0.648 OA
ATOM     85  OE2 GLU d   9    2085.851 636.294-2146.545  0.00  0.00    -0.648 OA
ENDBRANCH  82  83
ENDBRANCH  81  82
ENDBRANCH   5  81
ENDBRANCH   1   5
BRANCH   3  86
ATOM     86  CA  HIS d  10    2083.914 633.169-2151.924  0.00  0.00     0.182 C 
BRANCH  86  87
ATOM     87  C   HIS d  10    2083.547 633.733-2153.275  0.00  0.00     0.241 C 
ATOM     88  O   HIS d  10    2084.399 634.197-2154.047  0.00  0.00    -0.271 OA
ATOM     89  N   VAL d  11    2082.309 633.733-2153.638  0.00  0.00    -0.346 N 
ATOM     90  H   VAL d  11    2081.596 633.361-2153.027  0.00  0.00     0.163 HD
BRANCH  89  91
ATOM     91  CA  VAL d  11    2081.954 634.278-2154.945  0.00  0.00     0.180 C 
BRANCH  91  92
ATOM     92  C   VAL d  11    2082.419 635.709-2155.078  0.00  0.00     0.241 C 
ATOM     93  O   VAL d  11    2083.020 636.113-2156.082  0.00  0.00    -0.271 OA
ATOM     94  N   GLN d  12    2082.183 636.535-2154.116  0.00  0.00    -0.346 N 
ATOM     95  H   GLN d  12    2081.694 636.229-2153.287  0.00  0.00     0.163 HD
BRANCH  94  96
ATOM     96  CA  GLN d  12    2082.632 637.918-2154.244  0.00  0.00     0.177 C 
BRANCH  96  97
ATOM     97  C   GLN d  12    2084.122 637.984-2154.482  0.00  0.00     0.241 C 
ATOM     98  O   GLN d  12    2084.609 638.692-2155.362  0.00  0.00    -0.271 OA
ATOM     99  N   TYR d  13    2084.906 637.277-2153.741  0.00  0.00    -0.346 N 
ATOM    100  H   TYR d  13    2084.530 636.688-2153.012  0.00  0.00     0.163 HD
BRANCH  99 101
ATOM    101  CA  TYR d  13    2086.346 637.342-2153.972  0.00  0.00     0.180 C 
BRANCH 101 102
ATOM    102  C   TYR d  13    2086.683 636.970-2155.396  0.00  0.00     0.241 C 
ATOM    103  O   TYR d  13    2087.455 637.643-2156.083  0.00  0.00    -0.271 OA
ATOM    104  N   VAL d  14    2086.146 635.915-2155.910  0.00  0.00    -0.346 N 
ATOM    105  H   VAL d  14    2085.511 635.347-2155.368  0.00  0.00     0.163 HD
BRANCH 104 106
ATOM    106  CA  VAL d  14    2086.471 635.555-2157.287  0.00  0.00     0.180 C 
BRANCH 106 107
ATOM    107  C   VAL d  14    2086.142 636.685-2158.234  0.00  0.00     0.241 C 
ATOM    108  O   VAL d  14    2086.937 637.066-2159.103  0.00  0.00    -0.271 OA
ATOM    109  N   MET d  15    2084.998 637.271-2158.133  0.00  0.00    -0.346 N 
ATOM    110  H   MET d  15    2084.333 636.979-2157.431  0.00  0.00     0.163 HD
BRANCH 109 111
ATOM    111  CA  MET d  15    2084.678 638.363-2159.047  0.00  0.00     0.177 C 
BRANCH 111 112
ATOM    112  C   MET d  15    2085.709 639.463-2158.960  0.00  0.00     0.241 C 
ATOM    113  O   MET d  15    2086.212 639.973-2159.972  0.00  0.00    -0.271 OA
ATOM    114  N   ARG d  16    2086.077 639.885-2157.798  0.00  0.00    -0.347 N 
ATOM    115  H   ARG d  16    2085.682 639.485-2156.958  0.00  0.00     0.163 HD
BRANCH 114 116
ATOM    116  CA  ARG d  16    2087.074 640.948-2157.714  0.00  0.00     0.162 C 
BRANCH 116 117
ATOM    117  C   ARG d  16    2088.345 640.554-2158.429  0.00  0.00     0.219 C 
ATOM    118  O   ARG d  16    2088.458 639.477-2159.010  0.00  0.00    -0.287 OA
ENDBRANCH 116 117
BRANCH 116 119
ATOM    119  CB  ARG d  16    2087.343 641.266-2156.216  0.00  0.00     0.035 C 
BRANCH 119 120
ATOM    120  CG  ARG d  16    2088.169 642.555-2155.943  0.00  0.00     0.023 C 
BRANCH 120 121
ATOM    121  CD  ARG d  16    2088.418 642.775-2154.442  0.00  0.00     0.138 C 
BRANCH 121 122
ATOM    122  NE  ARG d  16    2089.195 644.033-2154.241  0.00  0.00    -0.227 N 
ATOM    123  CZ  ARG d  16    2089.586 644.516-2153.066  0.00  0.00     0.665 C 
ATOM    124  NH1 ARG d  16    2089.337 643.932-2151.927  0.00  0.00    -0.235 N 
ATOM    125  NH2 ARG d  16    2090.250 645.628-2153.048  0.00  0.00    -0.235 N 
ATOM    126 11HH ARG d  16    2088.811 643.060-2152.011  0.00  0.00     0.174 HD
ATOM    127 12HH ARG d  16    2089.672 644.368-2151.066  0.00  0.00     0.174 HD
ATOM    128 21HH ARG d  16    2090.437 646.071-2153.949  0.00  0.00     0.174 HD
ATOM    129 22HH ARG d  16    2090.541 645.984-2152.135  0.00  0.00     0.174 HD
ATOM    130  HE  ARG d  16    2089.474 644.614-2155.039  0.00  0.00     0.177 HD
ENDBRANCH 121 122
ENDBRANCH 120 121
ENDBRANCH 119 120
ENDBRANCH 116 119
ENDBRANCH 114 116
ENDBRANCH 111 112
BRANCH 111 131
ATOM    131  CB  MET d  15    2083.257 638.910-2158.740  0.00  0.00     0.045 C 
BRANCH 131 132
ATOM    132  CG  MET d  15    2082.094 637.912-2158.931  0.00  0.00     0.076 C 
BRANCH 132 133
ATOM    133  SD  MET d  15    2080.521 638.778-2158.818  0.00  0.00    -0.173 SA
ATOM    134  CE  MET d  15    2079.439 637.349-2158.681  0.00  0.00     0.089 C 
ENDBRANCH 132 133
ENDBRANCH 131 132
ENDBRANCH 111 131
ENDBRANCH 109 111
ENDBRANCH 106 107
BRANCH 106 135
ATOM    135  CB  VAL d  14    2085.698 634.238-2157.694  0.00  0.00     0.009 C 
ATOM    136  CG1 VAL d  14    2085.788 633.819-2159.187  0.00  0.00     0.012 C 
ATOM    137  CG2 VAL d  14    2086.130 632.986-2156.892  0.00  0.00     0.012 C 
ENDBRANCH 106 135
ENDBRANCH 104 106
ENDBRANCH 101 102
BRANCH 101 138
ATOM    138  CB  TYR d  13    2087.104 636.363-2153.028  0.00  0.00     0.073 C 
BRANCH 138 139
ATOM    139  CG  TYR d  13    2086.969 636.616-2151.522  0.00  0.00    -0.056 A 
ATOM    140  CD1 TYR d  13    2087.707 637.629-2150.901  0.00  0.00     0.010 A 
ATOM    141  CE1 TYR d  13    2087.564 637.859-2149.535  0.00  0.00     0.037 A 
ATOM    142  CZ  TYR d  13    2086.689 637.078-2148.784  0.00  0.00     0.065 A 
ATOM    143  CE2 TYR d  13    2085.954 636.065-2149.397  0.00  0.00     0.037 A 
ATOM    144  CD2 TYR d  13    2086.095 635.834-2150.762  0.00  0.00     0.010 A 
BRANCH 142 145
ATOM    145  OH  TYR d  13    2086.551 637.309-2147.445  0.00  0.00    -0.361 OA
ATOM    146  HH  TYR d  13    2085.912 636.685-2147.094  0.00  0.00     0.217 HD
ENDBRANCH 142 145
ENDBRANCH 138 139
ENDBRANCH 101 138
ENDBRANCH  99 101
ENDBRANCH  96  97
BRANCH  96 147
ATOM    147  CB  GLN d  12    2082.241 638.686-2152.962  0.00  0.00     0.044 C 
BRANCH 147 148
ATOM    148  CG  GLN d  12    2082.603 640.208-2152.932  0.00  0.00     0.105 C 
BRANCH 148 149
ATOM    149  CD  GLN d  12    2082.301 641.022-2151.667  0.00  0.00     0.215 C 
ATOM    150  NE2 GLN d  12    2081.734 640.446-2150.638  0.00  0.00    -0.370 N 
ATOM    151 21HE GLN d  12    2081.628 641.041-2149.815  0.00  0.00     0.159 HD
ATOM    152 22HE GLN d  12    2081.570 639.443-2150.741  0.00  0.00     0.159 HD
ATOM    153  OE1 GLN d  12    2082.604 642.203-2151.590  0.00  0.00    -0.274 OA
ENDBRANCH 148 149
ENDBRANCH 147 148
ENDBRANCH  96 147
ENDBRANCH  94  96
ENDBRANCH  91  92
BRANCH  91 154
ATOM    154  CB  VAL d  11    2080.392 634.172-2155.164  0.00  0.00     0.009 C 
ATOM    155  CG1 VAL d  11    2079.824 634.876-2156.427  0.00  0.00     0.012 C 
ATOM    156  CG2 VAL d  11    2079.867 632.719-2155.236  0.00  0.00     0.012 C 
ENDBRANCH  91 154
ENDBRANCH  89  91
ENDBRANCH  86  87
BRANCH  86 157
ATOM    157  CB  HIS d  10    2083.749 631.640-2151.918  0.00  0.00     0.095 C 
BRANCH 157 158
ATOM    158  CG  HIS d  10    2085.034 630.929-2151.610  0.00  0.00     0.053 A 
ATOM    159  CD2 HIS d  10    2085.416 630.595-2150.318  0.00  0.00     0.116 A 
ATOM    160  NE2 HIS d  10    2086.630 629.963-2150.384  0.00  0.00    -0.359 N 
ATOM    161  CE1 HIS d  10    2086.892 629.965-2151.719  0.00  0.00     0.207 A 
ATOM    162  2HE HIS d  10    2087.197 629.586-2149.611  0.00  0.00     0.166 HD
ATOM    163  ND1 HIS d  10    2085.986 630.523-2152.543  0.00  0.00    -0.247 NA
ENDBRANCH 157 158
ENDBRANCH  86 157
ENDBRANCH   3  86
TORSDOF 67
