REMARK WARNING: 32 MAX_TORS EXCEEDED!!!
REMARK  69 active torsions:
REMARK  status: ('A' for Active; 'I' for Inactive)
REMARK    1  A    between atoms: N_1  and  CA_2 
REMARK    2  A    between atoms: CA_2  and  C_3 
REMARK    3  A    between atoms: CA_2  and  CB_5 
REMARK       I    between atoms: C_3  and  N_11 
REMARK    4  A    between atoms: CB_5  and  CG_6 
REMARK    5  A    between atoms: CG_6  and  CD_7 
REMARK    6  A    between atoms: N_11  and  CA_12 
REMARK    7  A    between atoms: CA_12  and  C_13 
REMARK    8  A    between atoms: CA_12  and  CB_15 
REMARK       I    between atoms: C_13  and  N_22 
REMARK    9  A    between atoms: CB_15  and  CG_16 
REMARK       I    between atoms: CG_16  and  ND2_17 
REMARK   10  A    between atoms: CA_23  and  C_24 
REMARK       I    between atoms: C_24  and  N_29 
REMARK   11  A    between atoms: N_29  and  CA_30 
REMARK   12  A    between atoms: CA_30  and  C_31 
REMARK   13  A    between atoms: CA_30  and  CB_33 
REMARK       I    between atoms: C_31  and  N_39 
REMARK   14  A    between atoms: CB_33  and  CG_34 
REMARK   15  A    between atoms: CG_34  and  CD_35 
REMARK   16  A    between atoms: N_39  and  CA_40 
REMARK   17  A    between atoms: CA_40  and  C_41 
REMARK   18  A    between atoms: CA_40  and  CB_43 
REMARK       I    between atoms: C_41  and  N_47 
REMARK   19  A    between atoms: CB_43  and  OG_44 
REMARK   20  A    between atoms: N_47  and  CA_48 
REMARK   21  A    between atoms: CA_48  and  C_49 
REMARK   22  A    between atoms: CA_48  and  CB_51 
REMARK       I    between atoms: C_49  and  N_56 
REMARK   23  A    between atoms: CB_51  and  CG1_52 
REMARK   24  A    between atoms: N_56  and  CA_57 
REMARK   25  A    between atoms: CA_57  and  C_58 
REMARK   26  A    between atoms: CA_57  and  CB_60 
REMARK       I    between atoms: C_58  and  N_65 
REMARK   27  A    between atoms: CB_60  and  CG_61 
REMARK   28  A    between atoms: N_65  and  CA_66 
REMARK   29  A    between atoms: CA_66  and  C_67 
REMARK   30  A    between atoms: CA_66  and  CB_69 
REMARK       I    between atoms: C_67  and  N_74 
REMARK   31  A    between atoms: CB_69  and  CG_70 
REMARK   32  A    between atoms: N_74  and  CA_75 
REMARK   33  A    between atoms: CA_75  and  C_76 
REMARK   34  A    between atoms: CA_75  and  CB_78 
REMARK       I    between atoms: C_76  and  N_84 
REMARK   35  A    between atoms: CB_78  and  CG_79 
REMARK   36  A    between atoms: CG_79  and  CD_80 
REMARK   37  A    between atoms: N_84  and  CA_85 
REMARK   38  A    between atoms: CA_85  and  C_86 
REMARK   39  A    between atoms: CA_85  and  CB_88 
REMARK       I    between atoms: C_86  and  N_96 
REMARK   40  A    between atoms: CB_88  and  CG_89 
REMARK   41  A    between atoms: N_96  and  CA_97 
REMARK   42  A    between atoms: CA_97  and  C_98 
REMARK   43  A    between atoms: CA_97  and  CB_100 
REMARK       I    between atoms: C_98  and  N_104 
REMARK   44  A    between atoms: N_104  and  CA_105 
REMARK   45  A    between atoms: CA_105  and  C_106 
REMARK   46  A    between atoms: CA_105  and  CB_108 
REMARK       I    between atoms: C_106  and  N_116 
REMARK   47  A    between atoms: CB_108  and  CG_109 
REMARK   48  A    between atoms: CG_109  and  CD_110 
REMARK       I    between atoms: CD_110  and  NE2_111 
REMARK   49  A    between atoms: N_116  and  CA_117 
REMARK   50  A    between atoms: CA_117  and  C_118 
REMARK   51  A    between atoms: CA_117  and  CB_120 
REMARK       I    between atoms: C_118  and  N_133 
REMARK   52  A    between atoms: CB_120  and  CG_121 
REMARK   53  A    between atoms: CG_121  and  CD_122 
REMARK   54  A    between atoms: CD_122  and  NE_123 
REMARK       I    between atoms: NE_123  and  CZ_124 
REMARK       I    between atoms: CZ_124  and  NH1_125 
REMARK       I    between atoms: CZ_124  and  NH2_126 
REMARK   55  A    between atoms: N_133  and  CA_134 
REMARK   56  A    between atoms: CA_134  and  C_135 
REMARK   57  A    between atoms: CA_134  and  CB_137 
REMARK       I    between atoms: C_135  and  N_142 
REMARK   58  A    between atoms: CB_137  and  CG_138 
REMARK   59  A    between atoms: N_142  and  CA_143 
REMARK   60  A    between atoms: CA_143  and  C_144 
REMARK   61  A    between atoms: CA_143  and  CB_146 
REMARK       I    between atoms: C_144  and  N_151 
REMARK   62  A    between atoms: CB_146  and  CG_147 
REMARK   63  A    between atoms: CG_147  and  SD_148 
REMARK   64  A    between atoms: N_151  and  CA_152 
REMARK   65  A    between atoms: CA_152  and  C_153 
REMARK   66  A    between atoms: CA_152  and  CB_155 
REMARK   67  A    between atoms: CB_155  and  CG_156 
REMARK   68  A    between atoms: CG_156  and  CD_157 
REMARK   69  A    between atoms: CD_157  and  NE_158 
REMARK       I    between atoms: NE_158  and  CZ_159 
REMARK       I    between atoms: CZ_159  and  NH1_160 
ROOT
ATOM      1  C   GLU d   9    2227.365 682.847-2310.059  0.00  0.00     0.241 C 
ATOM      2  O   GLU d   9    2228.029 683.600-2310.785  0.00  0.00    -0.271 OA
ATOM      3  N   HIS d  10    2227.461 681.571-2310.228  0.00  0.00    -0.346 N 
ATOM      4  H   HIS d  10    2226.930 680.936-2309.649  0.00  0.00     0.163 HD
ENDROOT
BRANCH   3   5
ATOM      5  CA  HIS d  10    2228.348 681.059-2311.268  0.00  0.00     0.182 C 
BRANCH   5   6
ATOM      6  C   HIS d  10    2227.981 681.623-2312.619  0.00  0.00     0.241 C 
ATOM      7  O   HIS d  10    2228.834 682.087-2313.392  0.00  0.00    -0.271 OA
ATOM      8  N   VAL d  11    2226.744 681.623-2312.982  0.00  0.00    -0.346 N 
ATOM      9  H   VAL d  11    2226.031 681.251-2312.371  0.00  0.00     0.163 HD
BRANCH   8  10
ATOM     10  CA  VAL d  11    2226.388 682.168-2314.289  0.00  0.00     0.180 C 
BRANCH  10  11
ATOM     11  C   VAL d  11    2226.854 683.599-2314.423  0.00  0.00     0.241 C 
ATOM     12  O   VAL d  11    2227.455 684.003-2315.426  0.00  0.00    -0.271 OA
ATOM     13  N   GLN d  12    2226.617 684.425-2313.460  0.00  0.00    -0.346 N 
ATOM     14  H   GLN d  12    2226.129 684.119-2312.631  0.00  0.00     0.163 HD
BRANCH  13  15
ATOM     15  CA  GLN d  12    2227.067 685.807-2313.588  0.00  0.00     0.177 C 
BRANCH  15  16
ATOM     16  C   GLN d  12    2228.556 685.874-2313.827  0.00  0.00     0.241 C 
ATOM     17  O   GLN d  12    2229.044 686.581-2314.706  0.00  0.00    -0.271 OA
ATOM     18  N   ARG d  13    2229.341 685.167-2313.085  0.00  0.00    -0.346 N 
ATOM     19  H   ARG d  13    2228.965 684.578-2312.356  0.00  0.00     0.163 HD
BRANCH  18  20
ATOM     20  CA  ARG d  13    2230.781 685.232-2313.317  0.00  0.00     0.176 C 
BRANCH  20  21
ATOM     21  C   ARG d  13    2231.117 684.860-2314.741  0.00  0.00     0.241 C 
ATOM     22  O   ARG d  13    2231.886 685.531-2315.426  0.00  0.00    -0.271 OA
ATOM     23  N   LEU d  14    2230.580 683.805-2315.255  0.00  0.00    -0.346 N 
ATOM     24  H   LEU d  14    2229.945 683.237-2314.713  0.00  0.00     0.163 HD
BRANCH  23  25
ATOM     25  CA  LEU d  14    2230.905 683.446-2316.633  0.00  0.00     0.177 C 
BRANCH  25  26
ATOM     26  C   LEU d  14    2230.575 684.576-2317.578  0.00  0.00     0.241 C 
ATOM     27  O   LEU d  14    2231.371 684.958-2318.449  0.00  0.00    -0.271 OA
ATOM     28  N   MET d  15    2229.430 685.162-2317.476  0.00  0.00    -0.346 N 
ATOM     29  H   MET d  15    2228.766 684.869-2316.774  0.00  0.00     0.163 HD
BRANCH  28  30
ATOM     30  CA  MET d  15    2229.110 686.255-2318.389  0.00  0.00     0.177 C 
BRANCH  30  31
ATOM     31  C   MET d  15    2230.141 687.354-2318.301  0.00  0.00     0.241 C 
ATOM     32  O   MET d  15    2230.644 687.865-2319.313  0.00  0.00    -0.271 OA
ATOM     33  N   ARG d  16    2230.510 687.775-2317.139  0.00  0.00    -0.347 N 
ATOM     34  H   ARG d  16    2230.115 687.375-2316.300  0.00  0.00     0.163 HD
BRANCH  33  35
ATOM     35  CA  ARG d  16    2231.506 688.838-2317.055  0.00  0.00     0.162 C 
BRANCH  35  36
ATOM     36  C   ARG d  16    2232.777 688.446-2317.771  0.00  0.00     0.219 C 
ATOM     37  O   ARG d  16    2232.891 687.370-2318.353  0.00  0.00    -0.287 OA
ENDBRANCH  35  36
BRANCH  35  38
ATOM     38  CB  ARG d  16    2231.775 689.156-2315.556  0.00  0.00     0.035 C 
BRANCH  38  39
ATOM     39  CG  ARG d  16    2232.601 690.445-2315.282  0.00  0.00     0.023 C 
BRANCH  39  40
ATOM     40  CD  ARG d  16    2232.850 690.663-2313.781  0.00  0.00     0.138 C 
BRANCH  40  41
ATOM     41  NE  ARG d  16    2233.626 691.922-2313.580  0.00  0.00    -0.227 N 
ATOM     42  CZ  ARG d  16    2234.018 692.404-2312.404  0.00  0.00     0.665 C 
ATOM     43  NH1 ARG d  16    2233.769 691.819-2311.265  0.00  0.00    -0.235 N 
ATOM     44  NH2 ARG d  16    2234.682 693.516-2312.385  0.00  0.00    -0.235 N 
ATOM     45 11HH ARG d  16    2233.243 690.946-2311.350  0.00  0.00     0.174 HD
ATOM     46 12HH ARG d  16    2234.104 692.254-2310.404  0.00  0.00     0.174 HD
ATOM     47 21HH ARG d  16    2234.867 693.959-2313.286  0.00  0.00     0.174 HD
ATOM     48 22HH ARG d  16    2234.972 693.871-2311.472  0.00  0.00     0.174 HD
ATOM     49  HE  ARG d  16    2233.905 692.503-2314.376  0.00  0.00     0.177 HD
ENDBRANCH  40  41
ENDBRANCH  39  40
ENDBRANCH  38  39
ENDBRANCH  35  38
ENDBRANCH  33  35
ENDBRANCH  30  31
BRANCH  30  50
ATOM     50  CB  MET d  15    2227.689 686.801-2318.080  0.00  0.00     0.045 C 
BRANCH  50  51
ATOM     51  CG  MET d  15    2226.527 685.803-2318.272  0.00  0.00     0.076 C 
BRANCH  51  52
ATOM     52  SD  MET d  15    2224.953 686.670-2318.157  0.00  0.00    -0.173 SA
ATOM     53  CE  MET d  15    2223.871 685.240-2318.021  0.00  0.00     0.089 C 
ENDBRANCH  51  52
ENDBRANCH  50  51
ENDBRANCH  30  50
ENDBRANCH  28  30
ENDBRANCH  25  26
BRANCH  25  54
ATOM     54  CB  LEU d  14    2230.165 682.142-2317.045  0.00  0.00     0.038 C 
BRANCH  54  55
ATOM     55  CG  LEU d  14    2230.412 680.862-2316.201  0.00  0.00    -0.020 C 
ATOM     56  CD1 LEU d  14    2229.686 679.666-2316.831  0.00  0.00     0.009 C 
ATOM     57  CD2 LEU d  14    2231.906 680.536-2316.041  0.00  0.00     0.009 C 
ENDBRANCH  54  55
ENDBRANCH  25  54
ENDBRANCH  23  25
ENDBRANCH  20  21
BRANCH  20  58
ATOM     58  CB  ARG d  13    2231.494 684.294-2312.302  0.00  0.00     0.036 C 
BRANCH  58  59
ATOM     59  CG  ARG d  13    2233.040 684.447-2312.222  0.00  0.00     0.023 C 
BRANCH  59  60
ATOM     60  CD  ARG d  13    2233.667 683.460-2311.224  0.00  0.00     0.138 C 
BRANCH  60  61
ATOM     61  NE  ARG d  13    2235.144 683.666-2311.174  0.00  0.00    -0.227 N 
ATOM     62  CZ  ARG d  13    2235.992 682.975-2310.418  0.00  0.00     0.665 C 
ATOM     63  NH1 ARG d  13    2235.627 682.012-2309.620  0.00  0.00    -0.235 N 
ATOM     64  NH2 ARG d  13    2237.251 683.274-2310.476  0.00  0.00    -0.235 N 
ATOM     65 11HH ARG d  13    2234.621 681.826-2309.623  0.00  0.00     0.174 HD
ATOM     66 12HH ARG d  13    2236.340 681.529-2309.071  0.00  0.00     0.174 HD
ATOM     67 21HH ARG d  13    2237.519 684.031-2311.107  0.00  0.00     0.174 HD
ATOM     68 22HH ARG d  13    2237.887 682.732-2309.887  0.00  0.00     0.174 HD
ATOM     69  HE  ARG d  13    2235.595 684.388-2311.745  0.00  0.00     0.177 HD
ENDBRANCH  60  61
ENDBRANCH  59  60
ENDBRANCH  58  59
ENDBRANCH  20  58
ENDBRANCH  18  20
ENDBRANCH  15  16
BRANCH  15  70
ATOM     70  CB  GLN d  12    2226.676 686.576-2312.306  0.00  0.00     0.044 C 
BRANCH  70  71
ATOM     71  CG  GLN d  12    2227.038 688.097-2312.276  0.00  0.00     0.105 C 
BRANCH  71  72
ATOM     72  CD  GLN d  12    2226.736 688.912-2311.011  0.00  0.00     0.215 C 
ATOM     73  NE2 GLN d  12    2226.169 688.336-2309.982  0.00  0.00    -0.370 N 
ATOM     74 21HE GLN d  12    2226.062 688.931-2309.159  0.00  0.00     0.159 HD
ATOM     75 22HE GLN d  12    2226.005 687.333-2310.085  0.00  0.00     0.159 HD
ATOM     76  OE1 GLN d  12    2227.039 690.093-2310.935  0.00  0.00    -0.274 OA
ENDBRANCH  71  72
ENDBRANCH  70  71
ENDBRANCH  15  70
ENDBRANCH  13  15
ENDBRANCH  10  11
BRANCH  10  77
ATOM     77  CB  VAL d  11    2224.827 682.062-2314.508  0.00  0.00     0.009 C 
ATOM     78  CG1 VAL d  11    2224.259 682.766-2315.771  0.00  0.00     0.012 C 
ATOM     79  CG2 VAL d  11    2224.302 680.608-2314.580  0.00  0.00     0.012 C 
ENDBRANCH  10  77
ENDBRANCH   8  10
ENDBRANCH   5   6
BRANCH   5  80
ATOM     80  CB  HIS d  10    2228.184 679.530-2311.262  0.00  0.00     0.095 C 
BRANCH  80  81
ATOM     81  CG  HIS d  10    2229.469 678.819-2310.954  0.00  0.00     0.053 A 
ATOM     82  CD2 HIS d  10    2229.851 678.485-2309.662  0.00  0.00     0.116 A 
ATOM     83  NE2 HIS d  10    2231.065 677.853-2309.729  0.00  0.00    -0.359 N 
ATOM     84  CE1 HIS d  10    2231.327 677.855-2311.064  0.00  0.00     0.207 A 
ATOM     85  2HE HIS d  10    2231.632 677.476-2308.955  0.00  0.00     0.166 HD
ATOM     86  ND1 HIS d  10    2230.421 678.413-2311.887  0.00  0.00    -0.247 NA
ENDBRANCH  80  81
ENDBRANCH   5  80
ENDBRANCH   3   5
BRANCH   1  87
ATOM     87  CA  GLU d   9    2226.448 683.375-2308.983  0.00  0.00     0.177 C 
BRANCH  87  88
ATOM     88  N   GLU d   9    2225.145 682.718-2309.038  0.00  0.00    -0.346 N 
ATOM     89  C   ASP d   8    2224.465 682.768-2310.133  0.00  0.00     0.241 C 
ATOM     90  O   ASP d   8    2224.938 683.372-2311.108  0.00  0.00    -0.271 OA
ATOM     91  H   GLU d   9    2224.781 682.233-2308.230  0.00  0.00     0.163 HD
BRANCH  89  92
ATOM     92  CA  ASP d   8    2223.117 682.089-2310.189  0.00  0.00     0.186 C 
BRANCH  92  93
ATOM     93  N   ASP d   8    2223.187 680.740-2309.635  0.00  0.00    -0.346 N 
ATOM     94  C   LEU d   7    2224.024 679.898-2310.141  0.00  0.00     0.241 C 
ATOM     95  O   LEU d   7    2224.745 680.260-2311.084  0.00  0.00    -0.271 OA
ATOM     96  H   ASP d   8    2222.589 680.469-2308.868  0.00  0.00     0.163 HD
BRANCH  94  97
ATOM     97  CA  LEU d   7    2224.096 678.503-2309.568  0.00  0.00     0.177 C 
BRANCH  97  98
ATOM     98  N   LEU d   7    2224.151 678.539-2308.110  0.00  0.00    -0.346 N 
ATOM     99  C   ILE d   6    2225.097 679.202-2307.536  0.00  0.00     0.241 C 
ATOM    100  O   ILE d   6    2225.932 679.790-2308.240  0.00  0.00    -0.271 OA
ATOM    101  H   LEU d   7    2223.459 678.052-2307.559  0.00  0.00     0.163 HD
BRANCH  99 102
ATOM    102  CA  ILE d   6    2225.154 679.240-2306.029  0.00  0.00     0.180 C 
BRANCH 102 103
ATOM    103  N   ILE d   6    2223.841 679.535-2305.463  0.00  0.00    -0.346 N 
ATOM    104  C   SER d   5    2223.237 680.619-2305.817  0.00  0.00     0.243 C 
ATOM    105  O   SER d   5    2223.785 681.372-2306.622  0.00  0.00    -0.271 OA
ATOM    106  H   ILE d   6    2223.412 678.901-2304.804  0.00  0.00     0.163 HD
BRANCH 104 107
ATOM    107  CA  SER d   5    2221.878 680.925-2305.232  0.00  0.00     0.200 C 
BRANCH 107 108
ATOM    108  N   SER d   5    2221.008 679.754-2305.291  0.00  0.00    -0.344 N 
ATOM    109  C   GLU d   4    2220.781 679.201-2306.434  0.00  0.00     0.241 C 
ATOM    110  O   GLU d   4    2221.308 679.681-2307.448  0.00  0.00    -0.271 OA
ATOM    111  H   SER d   5    2220.591 679.382-2304.449  0.00  0.00     0.163 HD
BRANCH 109 112
ATOM    112  CA  GLU d   4    2219.882 677.990-2306.495  0.00  0.00     0.177 C 
BRANCH 112 113
ATOM    113  N   GLU d   4    2220.241 677.019-2305.466  0.00  0.00    -0.346 N 
ATOM    114  C   PRO d   3    2221.446 676.559-2305.433  0.00  0.00     0.241 C 
ATOM    115  O   PRO d   3    2222.269 676.942-2306.264  0.00  0.00    -0.271 OA
ATOM    116  H   GLU d   4    2219.556 676.713-2304.789  0.00  0.00     0.163 HD
BRANCH 114 117
ATOM    117  CA  PRO d   3    2221.844 675.536-2304.356  0.00  0.00     0.179 C 
ATOM    118  N   PRO d   3    2221.391 675.945-2303.034  0.00  0.00    -0.337 N 
ATOM    119  C   ASN d   2    2221.913 676.940-2302.400  0.00  0.00     0.243 C 
ATOM    120  CD  PRO d   3    2220.313 675.152-2302.486  0.00  0.00     0.127 C 
ATOM    121  O   ASN d   2    2222.828 677.570-2302.928  0.00  0.00    -0.271 OA
ATOM    122  CG  PRO d   3    2219.855 674.333-2303.696  0.00  0.00     0.022 C 
ATOM    123  CB  PRO d   3    2221.139 674.181-2304.525  0.00  0.00     0.037 C 
BRANCH 119 124
ATOM    124  CA  ASN d   2    2221.381 677.295-2301.031  0.00  0.00     0.185 C 
BRANCH 124 125
ATOM    125  N   ASN d   2    2219.922 677.334-2301.032  0.00  0.00    -0.346 N 
ATOM    126  C   GLU d   1    2219.318 678.120-2301.857  0.00  0.00     0.242 C 
ATOM    127  O   GLU d   1    2219.993 678.819-2302.625  0.00  0.00    -0.271 OA
ATOM    128  H   ASN d   2    2219.394 676.755-2300.395  0.00  0.00     0.163 HD
BRANCH 126 129
ATOM    129  CA  GLU d   1    2217.809 678.160-2301.857  0.00  0.00     0.191 C 
BRANCH 129 130
ATOM    130  N   GLU d   1    2217.250 676.811-2301.857  0.00  0.00    -0.326 NA
ATOM    131  H   GLU d   1    2217.876 675.932-2301.857  0.00  0.00     0.180 HD
ENDBRANCH 129 130
BRANCH 129 132
ATOM    132  CB  GLU d   1    2217.285 678.945-2300.620  0.00  0.00     0.047 C 
BRANCH 132 133
ATOM    133  CG  GLU d   1    2217.760 680.430-2300.509  0.00  0.00     0.116 C 
BRANCH 133 134
ATOM    134  CD  GLU d   1    2217.336 681.234-2299.294  0.00  0.00     0.172 C 
ATOM    135  OE1 GLU d   1    2216.608 680.732-2298.416  0.00  0.00    -0.648 OA
ATOM    136  OE2 GLU d   1    2217.767 682.404-2299.222  0.00  0.00    -0.648 OA
ENDBRANCH 133 134
ENDBRANCH 132 133
ENDBRANCH 129 132
ENDBRANCH 126 129
ENDBRANCH 124 125
BRANCH 124 137
ATOM    137  CB  ASN d   2    2221.873 676.272-2299.967  0.00  0.00     0.137 C 
BRANCH 137 138
ATOM    138  CG  ASN d   2    2221.410 676.496-2298.524  0.00  0.00     0.217 C 
ATOM    139  ND2 ASN d   2    2222.004 677.411-2297.805  0.00  0.00    -0.370 N 
ATOM    140 21HD ASN d   2    2221.523 677.584-2296.919  0.00  0.00     0.159 HD
ATOM    141 22HD ASN d   2    2222.706 677.983-2298.274  0.00  0.00     0.159 HD
ATOM    142  OD1 ASN d   2    2220.489 675.863-2298.030  0.00  0.00    -0.274 OA
ENDBRANCH 137 138
ENDBRANCH 124 137
ENDBRANCH 119 124
ENDBRANCH 114 117
ENDBRANCH 112 113
BRANCH 112 143
ATOM    143  CB  GLU d   4    2218.393 678.410-2306.326  0.00  0.00     0.045 C 
BRANCH 143 144
ATOM    144  CG  GLU d   4    2217.846 679.413-2307.391  0.00  0.00     0.116 C 
BRANCH 144 145
ATOM    145  CD  GLU d   4    2216.419 679.910-2307.248  0.00  0.00     0.172 C 
ATOM    146  OE1 GLU d   4    2215.693 679.512-2306.318  0.00  0.00    -0.648 OA
ATOM    147  OE2 GLU d   4    2216.031 680.740-2308.097  0.00  0.00    -0.648 OA
ENDBRANCH 144 145
ENDBRANCH 143 144
ENDBRANCH 112 143
ENDBRANCH 109 112
ENDBRANCH 107 108
BRANCH 107 148
ATOM    148  CB  SER d   5    2221.989 681.457-2303.781  0.00  0.00     0.199 C 
BRANCH 148 149
ATOM    149  OG  SER d   5    2222.720 680.577-2302.920  0.00  0.00    -0.398 OA
ATOM    150  HG  SER d   5    2222.231 679.753-2302.869  0.00  0.00     0.209 HD
ENDBRANCH 148 149
ENDBRANCH 107 148
ENDBRANCH 104 107
ENDBRANCH 102 103
BRANCH 102 151
ATOM    151  CB  ILE d   6    2225.753 677.904-2305.428  0.00  0.00     0.013 C 
ATOM    152  CG2 ILE d   6    2227.195 677.601-2305.943  0.00  0.00     0.012 C 
BRANCH 151 153
ATOM    153  CG1 ILE d   6    2225.772 677.841-2303.867  0.00  0.00     0.002 C 
ATOM    154  CD1 ILE d   6    2226.042 676.452-2303.252  0.00  0.00     0.005 C 
ENDBRANCH 151 153
ENDBRANCH 102 151
ENDBRANCH  99 102
ENDBRANCH  97  98
BRANCH  97 155
ATOM    155  CB  LEU d   7    2222.893 677.643-2310.049  0.00  0.00     0.038 C 
BRANCH 155 156
ATOM    156  CG  LEU d   7    2222.820 676.164-2309.582  0.00  0.00    -0.020 C 
ATOM    157  CD1 LEU d   7    2221.630 675.458-2310.248  0.00  0.00     0.009 C 
ATOM    158  CD2 LEU d   7    2224.113 675.384-2309.874  0.00  0.00     0.009 C 
ENDBRANCH 155 156
ENDBRANCH  97 155
ENDBRANCH  94  97
ENDBRANCH  92  93
BRANCH  92 159
ATOM    159  CB  ASP d   8    2222.040 682.929-2309.448  0.00  0.00     0.147 C 
BRANCH 159 160
ATOM    160  CG  ASP d   8    2221.822 684.349-2309.990  0.00  0.00     0.175 C 
ATOM    161  OD1 ASP d   8    2221.886 684.548-2311.221  0.00  0.00    -0.648 OA
ATOM    162  OD2 ASP d   8    2221.630 685.276-2309.175  0.00  0.00    -0.648 OA
ENDBRANCH 159 160
ENDBRANCH  92 159
ENDBRANCH  89  92
ENDBRANCH  87  88
BRANCH  87 163
ATOM    163  CB  GLU d   9    2227.081 683.168-2307.578  0.00  0.00     0.045 C 
BRANCH 163 164
ATOM    164  CG  GLU d   9    2228.464 683.860-2307.349  0.00  0.00     0.116 C 
BRANCH 164 165
ATOM    165  CD  GLU d   9    2229.166 683.647-2306.021  0.00  0.00     0.172 C 
ATOM    166  OE1 GLU d   9    2228.645 682.957-2305.124  0.00  0.00    -0.648 OA
ATOM    167  OE2 GLU d   9    2230.286 684.184-2305.889  0.00  0.00    -0.648 OA
ENDBRANCH 164 165
ENDBRANCH 163 164
ENDBRANCH  87 163
ENDBRANCH   1  87
TORSDOF 69
