@<TRIPOS>MOLECULE
6-11
263 265 16              
SMALL
USER_CHARGES
@<TRIPOS>ATOM
1	   N	942.834	257.716	-914.583	N.3	1	GLU1	-0.516	
2	  CA	943.393	259.065	-914.583	C.3	1	GLU1	0.040	
3	   C	944.902	259.025	-914.583	C.2	1	GLU1	0.537	
4	   O	945.578	259.724	-915.351	O.2	1	GLU1	-0.582	
5	  CB	942.870	259.850	-913.346	C.3	1	GLU1	0.056	
6	  CG	943.345	261.335	-913.235	C.3	1	GLU1	0.014	
7	  CD	942.921	262.139	-912.020	C.2	1	GLU1	0.805	
8	 OE1	942.193	261.637	-911.142	O.co2	1	GLU1	-0.819	
9	 OE2	943.352	263.309	-911.948	O.co2	1	GLU1	-0.819	
10	   H	943.461	256.837	-914.583	 H	1	GLU1	0.294	
11	  HA	943.067	259.583	-915.503	 H	1	GLU1	0.111	
12	 2HB	943.159	259.319	-912.416	 H	1	GLU1	-0.017	
13	 3HB	941.763	259.840	-913.333	 H	1	GLU1	-0.017	
14	 2HG	943.035	261.920	-914.116	 H	1	GLU1	-0.043	
15	 3HG	944.445	261.402	-913.206	 H	1	GLU1	-0.043	
16	   N	945.507	258.239	-913.758	N.am	2	ASN2	-0.416	
17	  CA	946.966	258.200	-913.758	C.3	2	ASN2	0.014	
18	   C	947.498	257.845	-915.126	C.2	2	ASN2	0.597	
19	   O	948.413	258.476	-915.655	O.2	2	ASN2	-0.568	
20	  CB	947.458	257.178	-912.693	C.3	2	ASN2	-0.204	
21	  CG	946.995	257.401	-911.250	C.2	2	ASN2	0.713	
22	 ND2	947.590	258.316	-910.532	N.pl3	2	ASN2	-0.919	
23	 OD1	946.075	256.768	-910.756	O.2	2	ASN2	-0.593	
24	   H	944.979	257.659	-913.121	 H	2	ASN2	0.272	
25	  HA	947.344	259.210	-913.512	 H	2	ASN2	0.105	
26	 2HB	948.563	257.118	-912.697	 H	2	ASN2	0.080	
27	 3HB	947.129	256.159	-912.979	 H	2	ASN2	0.080	
28	1HD2	947.109	258.489	-909.645	 H	2	ASN2	0.420	
29	2HD2	948.291	258.888	-911.001	 H	2	ASN2	0.420	
30	   N	946.976	256.850	-915.760	N.am	3	PRO3	-0.255	
31	  CA	947.428	256.441	-917.082	C.3	3	PRO3	-0.027	
32	   C	947.030	257.464	-918.159	C.2	3	PRO3	0.590	
33	   O	947.853	257.847	-918.990	O.2	3	PRO3	-0.575	
34	  CB	946.724	255.086	-917.251	C.3	3	PRO3	-0.007	
35	  CG	945.441	255.238	-916.421	C.3	3	PRO3	0.019	
36	  CD	945.898	256.057	-915.211	C.3	3	PRO3	0.019	
37	  HA	948.514	256.321	-917.096	 H	3	PRO3	0.064	
38	 2HB	947.347	254.305	-916.811	 H	3	PRO3	0.025	
39	 3HB	946.526	254.837	-918.297	 H	3	PRO3	0.025	
40	 2HG	945.013	254.276	-916.130	 H	3	PRO3	0.021	
41	 3HG	944.703	255.809	-916.989	 H	3	PRO3	0.021	
42	 2HD	946.288	255.407	-914.424	 H	3	PRO3	0.039	
43	 3HD	945.102	256.693	-914.818	 H	3	PRO3	0.039	
44	   N	945.825	257.924	-918.191	N.am	4	GLU4	-0.516	
45	  CA	945.465	258.895	-919.221	C.3	4	GLU4	0.040	
46	   C	946.364	260.106	-919.160	C.2	4	GLU4	0.537	
47	   O	946.890	260.586	-920.174	O.2	4	GLU4	-0.582	
48	  CB	943.977	259.313	-919.050	C.3	4	GLU4	0.056	
49	  CG	943.428	260.317	-920.116	C.3	4	GLU4	0.014	
50	  CD	942.002	260.813	-919.973	C.2	4	GLU4	0.805	
51	 OE1	941.276	260.415	-919.042	O.co2	4	GLU4	-0.819	
52	 OE2	941.612	261.643	-920.821	O.co2	4	GLU4	-0.819	
53	   H	945.141	257.617	-917.514	 H	4	GLU4	0.294	
54	  HA	945.596	258.424	-920.212	 H	4	GLU4	0.111	
55	 2HB	943.824	259.753	-918.044	 H	4	GLU4	-0.017	
56	 3HB	943.329	258.416	-919.057	 H	4	GLU4	-0.017	
57	 2HG	943.510	259.902	-921.134	 H	4	GLU4	-0.043	
58	 3HG	944.016	261.249	-920.127	 H	4	GLU4	-0.043	
59	   N	946.591	260.659	-918.016	N.am	5	SER5	-0.416	
60	  CA	947.461	261.830	-917.958	C.3	5	SER5	-0.025	
61	   C	948.820	261.525	-918.544	C.2	5	SER5	0.597	
62	   O	949.367	262.278	-919.348	O.2	5	SER5	-0.568	
63	  CB	947.572	262.363	-916.508	C.3	5	SER5	0.212	
64	  OG	948.304	261.484	-915.646	O.3	5	SER5	-0.655	
65	   H	946.174	260.287	-917.175	 H	5	SER5	0.272	
66	  HA	947.011	262.620	-918.587	 H	5	SER5	0.084	
67	 2HB	946.573	262.556	-916.074	 H	5	SER5	0.035	
68	 3HB	948.078	263.348	-916.510	 H	5	SER5	0.035	
69	  HG	947.815	260.659	-915.596	 H	5	SER5	0.428	
70	   N	949.425	260.442	-918.189	N.am	6	HIS6	-0.416	
71	  CA	950.738	260.147	-918.755	C.3	6	HIS6	-0.058	
72	   C	950.682	260.108	-920.263	C.2	6	HIS6	0.597	
73	   O	951.518	260.695	-920.967	O.2	6	HIS6	-0.568	
74	  CB	951.149	258.773	-918.198	C.3	6	HIS6	-0.007	
75	  CG	952.413	258.841	-917.392	C.2	6	HIS6	0.187	
76	 CD2	952.418	259.065	-916.022	C.2	6	HIS6	-0.221	
77	 ND1	953.707	258.692	-917.888	N.2	6	HIS6	-0.543	
78	 CE1	954.409	258.847	-916.751	C.2	6	HIS6	0.163	
79	 NE2	953.722	259.069	-915.598	N.pl3	6	HIS6	-0.280	
80	   H	948.996	259.808	-917.530	 H	6	HIS6	0.272	
81	  HA	951.412	260.977	-918.485	 H	6	HIS6	0.136	
82	 2HB	951.305	258.040	-919.015	 H	6	HIS6	0.037	
83	 3HB	950.362	258.331	-917.553	 H	6	HIS6	0.037	
84	 2HD	951.526	259.209	-915.419	 H	6	HIS6	0.186	
85	 1HE	955.488	258.784	-916.815	 H	6	HIS6	0.144	
86	 2HE	954.082	259.209	-914.643	 H	6	HIS6	0.334	
87	   N	949.737	259.444	-920.837	N.am	7	LEU7	-0.416	
88	  CA	949.683	259.407	-922.296	C.3	7	LEU7	-0.052	
89	   C	949.612	260.802	-922.869	C.2	7	LEU7	0.597	
90	   O	950.333	261.164	-923.811	O.2	7	LEU7	-0.568	
91	  CB	948.480	258.547	-922.777	C.3	7	LEU7	-0.110	
92	  CG	948.406	257.068	-922.309	C.3	7	LEU7	0.353	
93	 CD1	947.217	256.362	-922.975	C.3	7	LEU7	-0.412	
94	 CD2	949.700	256.288	-922.599	C.3	7	LEU7	-0.412	
95	   H	949.044	258.958	-920.286	 H	7	LEU7	0.272	
96	  HA	950.625	258.967	-922.669	 H	7	LEU7	0.092	
97	 2HB	948.458	258.562	-923.884	 H	7	LEU7	0.046	
98	 3HB	947.540	259.050	-922.474	 H	7	LEU7	0.046	
99	  HG	948.236	257.061	-921.212	 H	7	LEU7	-0.036	
100	1HD1	946.260	256.872	-922.754	 H	7	LEU7	0.100	
101	2HD1	947.317	256.321	-924.076	 H	7	LEU7	0.100	
102	3HD1	947.109	255.321	-922.619	 H	7	LEU7	0.100	
103	1HD2	949.976	256.318	-923.669	 H	7	LEU7	0.100	
104	2HD2	950.553	256.700	-922.028	 H	7	LEU7	0.100	
105	3HD2	949.618	255.226	-922.302	 H	7	LEU7	0.100	
106	   N	948.774	261.644	-922.364	N.am	8	ASP8	-0.516	
107	  CA	948.704	262.993	-922.918	C.3	8	ASP8	0.038	
108	   C	950.051	263.672	-922.860	C.2	8	ASP8	0.537	
109	   O	950.525	264.277	-923.835	O.2	8	ASP8	-0.582	
110	  CB	947.626	263.832	-922.178	C.3	8	ASP8	-0.030	
111	  CG	947.408	265.253	-922.720	C.2	8	ASP8	0.799	
112	 OD1	947.473	265.451	-923.950	O.co2	8	ASP8	-0.801	
113	 OD2	947.215	266.179	-921.905	O.co2	8	ASP8	-0.801	
114	   H	948.175	261.373	-921.597	 H	8	ASP8	0.294	
115	  HA	948.422	262.914	-923.986	 H	8	ASP8	0.088	
116	 2HB	947.882	263.916	-921.106	 H	8	ASP8	-0.012	
117	 3HB	946.647	263.328	-922.212	 H	8	ASP8	-0.012	
118	   N	950.730	263.623	-921.765	N.am	9	GLU9	-0.516	
119	  CA	952.033	264.280	-921.709	C.3	9	GLU9	0.040	
120	   C	952.952	263.752	-922.783	C.2	9	GLU9	0.537	
121	   O	953.616	264.506	-923.509	O.2	9	GLU9	-0.582	
122	  CB	952.665	264.074	-920.303	C.3	9	GLU9	0.056	
123	  CG	954.048	264.766	-920.073	C.3	9	GLU9	0.014	
124	  CD	954.748	264.553	-918.744	C.2	9	GLU9	0.805	
125	 OE1	954.226	263.863	-917.847	O.co2	9	GLU9	-0.819	
126	 OE2	955.867	265.091	-918.611	O.co2	9	GLU9	-0.819	
127	   H	950.366	263.137	-920.958	 H	9	GLU9	0.294	
128	  HA	951.891	265.362	-921.885	 H	9	GLU9	0.111	
129	 2HB	952.778	262.989	-920.099	 H	9	GLU9	-0.017	
130	 3HB	951.968	264.427	-919.519	 H	9	GLU9	-0.017	
131	 2HG	953.976	265.856	-920.213	 H	9	GLU9	-0.043	
132	 3HG	954.795	264.420	-920.806	 H	9	GLU9	-0.043	
133	   N	953.048	262.477	-922.952	N.am	10	HIS10	-0.416	
134	  CA	953.937	261.965	-923.992	C.3	10	HIS10	-0.058	
135	   C	953.571	262.528	-925.343	C.2	10	HIS10	0.597	
136	   O	954.424	262.993	-926.115	O.2	10	HIS10	-0.568	
137	  CB	953.773	260.436	-923.986	C.3	10	HIS10	-0.007	
138	  CG	955.059	259.726	-923.676	C.2	10	HIS10	0.187	
139	 CD2	955.438	259.392	-922.383	C.2	10	HIS10	-0.221	
140	 ND1	956.011	259.319	-924.608	N.2	10	HIS10	-0.543	
141	 CE1	956.917	258.762	-923.783	C.2	10	HIS10	0.163	
142	 NE2	956.653	258.760	-922.448	N.pl3	10	HIS10	-0.280	
143	   H	952.517	261.842	-922.374	 H	10	HIS10	0.272	
144	  HA	954.956	262.322	-923.766	 H	10	HIS10	0.136	
145	 2HB	953.409	260.068	-924.966	 H	10	HIS10	0.037	
146	 3HB	953.017	260.099	-923.246	 H	10	HIS10	0.037	
147	 2HD	954.852	259.607	-921.495	 H	10	HIS10	0.186	
148	 1HE	957.809	258.341	-924.229	 H	10	HIS10	0.144	
149	 2HE	957.220	258.383	-921.674	 H	10	HIS10	0.334	
150	   N	952.334	262.527	-925.707	N.am	11	VAL11	-0.416	
151	  CA	951.980	263.073	-927.015	C.3	11	VAL11	-0.087	
152	   C	952.444	264.503	-927.148	C.2	11	VAL11	0.597	
153	   O	953.046	264.907	-928.151	O.2	11	VAL11	-0.568	
154	  CB	950.419	262.966	-927.235	C.3	11	VAL11	0.299	
155	 CG1	949.851	263.669	-928.499	C.3	11	VAL11	-0.319	
156	 CG2	949.894	261.511	-927.308	C.3	11	VAL11	-0.319	
157	   H	951.620	262.155	-925.097	 H	11	VAL11	0.272	
158	  HA	952.500	262.490	-927.796	 H	11	VAL11	0.097	
159	  HB	949.930	263.446	-926.361	 H	11	VAL11	-0.030	
160	1HG1	950.290	263.276	-929.435	 H	11	VAL11	0.079	
161	2HG1	948.752	263.561	-928.582	 H	11	VAL11	0.079	
162	3HG1	950.029	264.761	-928.490	 H	11	VAL11	0.079	
163	1HG2	950.183	260.925	-926.417	 H	11	VAL11	0.079	
164	2HG2	948.788	261.474	-927.352	 H	11	VAL11	0.079	
165	3HG2	950.277	260.970	-928.194	 H	11	VAL11	0.079	
166	   N	952.206	265.329	-926.186	N.am	12	GLN12	-0.416	
167	  CA	952.655	266.712	-926.314	C.3	12	GLN12	-0.003	
168	   C	954.145	266.780	-926.551	C.2	12	GLN12	0.597	
169	   O	954.633	267.487	-927.430	O.2	12	GLN12	-0.568	
170	  CB	952.263	267.481	-925.032	C.3	12	GLN12	-0.004	
171	  CG	952.623	269.003	-925.002	C.3	12	GLN12	-0.064	
172	  CD	952.319	269.817	-923.738	C.2	12	GLN12	0.695	
173	 NE2	951.752	269.241	-922.709	N.pl3	12	GLN12	-0.941	
174	 OE1	952.621	270.998	-923.661	O.2	12	GLN12	-0.609	
175	   H	951.717	265.024	-925.357	 H	12	GLN12	0.272	
176	  HA	952.156	267.168	-927.190	 H	12	GLN12	0.085	
177	 2HB	952.738	266.981	-924.162	 H	12	GLN12	0.017	
178	 3HB	951.172	267.373	-924.870	 H	12	GLN12	0.017	
179	 2HG	952.146	269.523	-925.853	 H	12	GLN12	0.035	
180	 3HG	953.706	269.145	-925.167	 H	12	GLN12	0.035	
181	1HE2	951.644	269.836	-921.886	 H	12	GLN12	0.425	
182	2HE2	951.588	268.238	-922.812	 H	12	GLN12	0.425	
183	   N	954.929	266.073	-925.809	N.am	13	ARG13	-0.348	
184	  CA	956.369	266.139	-926.039	C.3	13	ARG13	-0.264	
185	   C	956.707	265.767	-927.463	C.2	13	ARG13	0.734	
186	   O	957.476	266.438	-928.147	O.2	13	ARG13	-0.589	
187	  CB	957.082	265.201	-925.023	C.3	13	ARG13	-0.001	
188	  CG	958.627	265.354	-924.941	C.3	13	ARG13	0.039	
189	  CD	959.253	264.367	-923.942	C.3	13	ARG13	0.049	
190	  NE	960.730	264.575	-923.891	N.pl3	13	ARG13	-0.530	
191	  CZ	961.578	263.884	-923.135	C.cat	13	ARG13	0.808	
192	 NH1	961.212	262.920	-922.337	N.pl3	13	ARG13	-0.863	
193	 NH2	962.837	264.183	-923.191	N.pl3	13	ARG13	-0.863	
194	   H	954.552	265.484	-925.080	 H	13	ARG13	0.275	
195	  HA	956.693	267.185	-925.881	 H	13	ARG13	0.156	
196	 2HB	956.816	264.150	-925.262	 H	13	ARG13	0.033	
197	 3HB	956.656	265.368	-924.013	 H	13	ARG13	0.033	
198	 2HG	958.874	266.399	-924.662	 H	13	ARG13	0.029	
199	 3HG	959.078	265.198	-925.942	 H	13	ARG13	0.029	
200	 2HD	959.009	263.327	-924.251	 H	13	ARG13	0.069	
201	 3HD	958.796	264.514	-922.940	 H	13	ARG13	0.069	
202	  HE	961.182	265.297	-924.462	 H	13	ARG13	0.346	
203	1HH1	960.207	262.734	-922.341	 H	13	ARG13	0.448	
204	2HH1	961.925	262.437	-921.787	 H	13	ARG13	0.448	
205	1HH2	963.105	264.940	-923.822	 H	13	ARG13	0.448	
206	2HH2	963.472	263.642	-922.601	 H	13	ARG13	0.448	
207	   N	956.171	264.712	-927.977	N.am	14	VAL14	-0.416	
208	  CA	956.497	264.352	-929.354	C.3	14	VAL14	-0.087	
209	   C	956.167	265.481	-930.301	C.2	14	VAL14	0.597	
210	   O	956.962	265.862	-931.170	O.2	14	VAL14	-0.568	
211	  CB	955.725	263.034	-929.761	C.3	14	VAL14	0.299	
212	 CG1	955.815	262.615	-931.254	C.3	14	VAL14	-0.319	
213	 CG2	956.156	261.783	-928.959	C.3	14	VAL14	-0.319	
214	   H	955.536	264.144	-927.435	 H	14	VAL14	0.272	
215	  HA	957.585	264.175	-929.428	 H	14	VAL14	0.097	
216	  HB	954.648	263.206	-929.546	 H	14	VAL14	-0.030	
217	1HG1	956.857	262.438	-931.582	 H	14	VAL14	0.079	
218	2HG1	955.242	261.692	-931.467	 H	14	VAL14	0.079	
219	3HG1	955.386	263.377	-931.933	 H	14	VAL14	0.079	
220	1HG2	956.068	261.942	-927.869	 H	14	VAL14	0.079	
221	2HG2	955.521	260.906	-929.192	 H	14	VAL14	0.079	
222	3HG2	957.204	261.493	-929.164	 H	14	VAL14	0.079	
223	   N	955.022	266.067	-930.200	N.am	15	MET15	-0.416	
224	  CA	954.703	267.159	-931.115	C.3	15	MET15	-0.024	
225	   C	955.733	268.259	-931.027	C.2	15	MET15	0.597	
226	   O	956.236	268.769	-932.040	O.2	15	MET15	-0.568	
227	  CB	953.281	267.705	-930.808	C.3	15	MET15	0.034	
228	  CG	952.119	266.707	-931.000	C.3	15	MET15	0.002	
229	  SD	950.545	267.573	-930.888	S.3	15	MET15	-0.274	
230	  CE	949.464	266.143	-930.751	C.3	15	MET15	-0.054	
231	   H	954.357	265.775	-929.499	 H	15	MET15	0.272	
232	  HA	954.730	266.771	-932.150	 H	15	MET15	0.088	
233	 2HB	953.079	268.583	-931.451	 H	15	MET15	0.024	
234	 3HB	953.245	268.098	-929.772	 H	15	MET15	0.024	
235	 2HG	952.162	265.921	-930.222	 H	15	MET15	0.044	
236	 3HG	952.183	266.191	-931.976	 H	15	MET15	0.044	
237	 1HE	949.609	265.454	-931.603	 H	15	MET15	0.068	
238	 2HE	949.672	265.591	-929.818	 H	15	MET15	0.068	
239	 3HE	948.406	266.458	-930.736	 H	15	MET15	0.068	
240	   N	956.100	268.681	-929.865	N.am	16	ARG16	-0.348	
241	  CA	957.097	269.745	-929.781	C.3	16	ARG16	-0.264	
242	   C	958.368	269.352	-930.496	C.2	16	ARG16	0.734	
243	   O	958.482	268.275	-931.076	O.2	16	ARG16	-0.589	
244	  CB	957.365	270.064	-928.283	C.3	16	ARG16	-0.001	
245	  CG	958.189	271.353	-928.010	C.3	16	ARG16	0.039	
246	  CD	958.438	271.574	-926.509	C.3	16	ARG16	0.049	
247	  NE	959.214	272.833	-926.308	N.pl3	16	ARG16	-0.530	
248	  CZ	959.604	273.316	-925.132	C.cat	16	ARG16	0.808	
249	 NH1	959.355	272.733	-923.994	N.pl3	16	ARG16	-0.863	
250	 NH2	960.268	274.429	-925.114	N.pl3	16	ARG16	-0.863	
251	   H	955.705	268.282	-929.026	 H	16	ARG16	0.275	
252	  HA	956.688	270.637	-930.292	 H	16	ARG16	0.156	
253	 2HB	957.861	269.189	-927.815	 H	16	ARG16	0.033	
254	 3HB	956.395	270.145	-927.750	 H	16	ARG16	0.033	
255	 2HG	957.659	272.224	-928.448	 H	16	ARG16	0.029	
256	 3HG	959.164	271.300	-928.538	 H	16	ARG16	0.029	
257	 2HD	958.986	270.699	-926.094	 H	16	ARG16	0.069	
258	 3HD	957.465	271.617	-925.974	 H	16	ARG16	0.069	
259	  HE	959.493	273.413	-927.105	 H	16	ARG16	0.346	
260	1HH1	958.830	271.859	-924.078	 H	16	ARG16	0.448	
261	2HH1	959.689	273.169	-923.133	 H	16	ARG16	0.448	
262	1HH2	960.454	274.871	-926.016	 H	16	ARG16	0.448	
263	2HH2	960.557	274.785	-924.202	 H	16	ARG16	0.448	
@<TRIPOS>BOND
1 1 2 1
2 1 10 1
3 2 3 1
4 2 5 1
5 2 11 1
6 3 4 2
7 3 16 1
8 5 6 1
9 6 7 1
10 7 8 2
11 7 9 1
12 5 12 1
13 5 13 1
14 6 14 1
15 6 15 1
16 16 17 1
17 16 24 1
18 17 18 1
19 17 20 1
20 17 25 1
21 18 19 2
22 18 30 1
23 20 21 1
24 21 22 1
25 21 23 2
26 20 26 1
27 20 27 1
28 22 28 1
29 22 29 1
30 30 31 1
31 30 36 1
32 31 32 1
33 31 34 1
34 31 37 1
35 32 33 2
36 32 44 1
37 34 35 1
38 35 36 1
39 34 38 1
40 34 39 1
41 35 40 1
42 35 41 1
43 36 42 1
44 36 43 1
45 44 45 1
46 44 53 1
47 45 46 1
48 45 48 1
49 45 54 1
50 46 47 2
51 46 59 1
52 48 49 1
53 49 50 1
54 50 51 2
55 50 52 1
56 48 55 1
57 48 56 1
58 49 57 1
59 49 58 1
60 59 60 1
61 59 65 1
62 60 61 1
63 60 63 1
64 60 66 1
65 61 62 2
66 61 70 1
67 63 64 1
68 63 67 1
69 63 68 1
70 64 69 1
71 70 71 1
72 70 80 1
73 71 72 1
74 71 74 1
75 71 81 1
76 72 73 2
77 72 87 1
78 74 75 1
79 75 76 2
80 76 79 1
81 75 77 1
82 77 78 2
83 78 79 1
84 74 82 1
85 74 83 1
86 76 84 1
87 78 85 1
88 79 86 1
89 87 88 1
90 87 95 1
91 88 89 1
92 88 91 1
93 88 96 1
94 89 90 2
95 89 106 1
96 91 92 1
97 92 93 1
98 92 94 1
99 91 97 1
100 91 98 1
101 92 99 1
102 93 100 1
103 93 101 1
104 93 102 1
105 94 103 1
106 94 104 1
107 94 105 1
108 106 107 1
109 106 114 1
110 107 108 1
111 107 110 1
112 107 115 1
113 108 109 2
114 108 118 1
115 110 111 1
116 111 112 2
117 111 113 1
118 110 116 1
119 110 117 1
120 118 119 1
121 118 127 1
122 119 120 1
123 119 122 1
124 119 128 1
125 120 121 2
126 120 133 1
127 122 123 1
128 123 124 1
129 124 125 2
130 124 126 1
131 122 129 1
132 122 130 1
133 123 131 1
134 123 132 1
135 133 134 1
136 133 143 1
137 134 135 1
138 134 137 1
139 134 144 1
140 135 136 2
141 135 150 1
142 137 138 1
143 138 139 2
144 139 142 1
145 138 140 1
146 140 141 2
147 141 142 1
148 137 145 1
149 137 146 1
150 139 147 1
151 141 148 1
152 142 149 1
153 150 151 1
154 150 157 1
155 151 152 1
156 151 154 1
157 151 158 1
158 152 153 2
159 152 166 1
160 154 155 1
161 154 156 1
162 154 159 1
163 155 160 1
164 155 161 1
165 155 162 1
166 156 163 1
167 156 164 1
168 156 165 1
169 166 167 1
170 166 175 1
171 167 168 1
172 167 170 1
173 167 176 1
174 168 169 2
175 168 183 1
176 170 171 1
177 171 172 1
178 172 173 1
179 172 174 2
180 170 177 1
181 170 178 1
182 171 179 1
183 171 180 1
184 173 181 1
185 173 182 1
186 183 184 1
187 183 194 1
188 184 185 1
189 184 187 1
190 184 195 1
191 185 186 2
192 185 207 1
193 187 188 1
194 188 189 1
195 189 190 1
196 190 191 1
197 191 192 2
198 191 193 1
199 187 196 1
200 187 197 1
201 188 198 1
202 188 199 1
203 189 200 1
204 189 201 1
205 190 202 1
206 192 203 1
207 192 204 1
208 193 205 1
209 193 206 1
210 207 208 1
211 207 214 1
212 208 209 1
213 208 211 1
214 208 215 1
215 209 210 2
216 209 223 1
217 211 212 1
218 211 213 1
219 211 216 1
220 212 217 1
221 212 218 1
222 212 219 1
223 213 220 1
224 213 221 1
225 213 222 1
226 223 224 1
227 223 231 1
228 224 225 1
229 224 227 1
230 224 232 1
231 225 226 2
232 225 240 1
233 227 228 1
234 228 229 1
235 229 230 1
236 227 233 1
237 227 234 1
238 228 235 1
239 228 236 1
240 230 237 1
241 230 238 1
242 230 239 1
243 240 241 1
244 240 251 1
245 241 242 1
246 241 244 1
247 241 252 1
248 242 243 2
249 244 245 1
250 245 246 1
251 246 247 1
252 247 248 1
253 248 249 2
254 248 250 1
255 244 253 1
256 244 254 1
257 245 255 1
258 245 256 1
259 246 257 1
260 246 258 1
261 247 259 1
262 249 260 1
263 249 261 1
264 250 262 1
265 250 263 1
@<TRIPOS>SUBSTRUCTURE
1	GLU1	1	RESIDUE	1 ****	GLU
2	ASN2	16	RESIDUE	1 ****	ASN
3	PRO3	30	RESIDUE	1 ****	PRO
4	GLU4	44	RESIDUE	1 ****	GLU
5	SER5	59	RESIDUE	1 ****	SER
6	HIS6	70	RESIDUE	1 ****	HIS
7	LEU7	87	RESIDUE	1 ****	LEU
8	ASP8	106	RESIDUE	1 ****	ASP
9	GLU9	118	RESIDUE	1 ****	GLU
10	HIS10	133	RESIDUE	1 ****	HIS
11	VAL11	150	RESIDUE	1 ****	VAL
12	GLN12	166	RESIDUE	1 ****	GLN
13	ARG13	183	RESIDUE	1 ****	ARG
14	VAL14	207	RESIDUE	1 ****	VAL
15	MET15	223	RESIDUE	1 ****	MET
16	ARG16	240	RESIDUE	1 ****	ARG
