@<TRIPOS>MOLECULE
6-12
257 258 16              
SMALL
USER_CHARGES
@<TRIPOS>ATOM
1	   N	951.124	260.449	-923.506	N.3	1	GLU1	-0.516	
2	  CA	951.683	261.798	-923.506	C.3	1	GLU1	0.040	
3	   C	953.192	261.758	-923.506	C.2	1	GLU1	0.537	
4	   O	953.868	262.457	-924.275	O.2	1	GLU1	-0.582	
5	  CB	951.160	262.583	-922.269	C.3	1	GLU1	0.056	
6	  CG	951.635	264.068	-922.158	C.3	1	GLU1	0.014	
7	  CD	951.211	264.872	-920.943	C.2	1	GLU1	0.805	
8	 OE1	950.483	264.370	-920.065	O.co2	1	GLU1	-0.819	
9	 OE2	951.641	266.042	-920.871	O.co2	1	GLU1	-0.819	
10	   H	951.751	259.570	-923.506	 H	1	GLU1	0.294	
11	  HA	951.357	262.316	-924.426	 H	1	GLU1	0.111	
12	 2HB	951.449	262.052	-921.339	 H	1	GLU1	-0.017	
13	 3HB	950.053	262.573	-922.256	 H	1	GLU1	-0.017	
14	 2HG	951.325	264.653	-923.039	 H	1	GLU1	-0.043	
15	 3HG	952.735	264.135	-922.129	 H	1	GLU1	-0.043	
16	   N	953.796	260.972	-922.681	N.am	2	ASN2	-0.416	
17	  CA	955.256	260.934	-922.681	C.3	2	ASN2	0.014	
18	   C	955.787	260.578	-924.050	C.2	2	ASN2	0.597	
19	   O	956.702	261.209	-924.578	O.2	2	ASN2	-0.568	
20	  CB	955.748	259.911	-921.617	C.3	2	ASN2	-0.204	
21	  CG	955.285	260.135	-920.174	C.2	2	ASN2	0.713	
22	 ND2	955.879	261.050	-919.455	N.pl3	2	ASN2	-0.919	
23	 OD1	954.364	259.501	-919.679	O.2	2	ASN2	-0.593	
24	   H	953.268	260.393	-922.045	 H	2	ASN2	0.272	
25	  HA	955.633	261.944	-922.436	 H	2	ASN2	0.105	
26	 2HB	956.852	259.852	-921.620	 H	2	ASN2	0.080	
27	 3HB	955.419	258.893	-921.903	 H	2	ASN2	0.080	
28	1HD2	955.398	261.223	-918.569	 H	2	ASN2	0.420	
29	2HD2	956.581	261.621	-919.925	 H	2	ASN2	0.420	
30	   N	955.266	259.583	-924.684	N.am	3	PRO3	-0.255	
31	  CA	955.717	259.174	-926.005	C.3	3	PRO3	-0.027	
32	   C	955.319	260.197	-927.082	C.2	3	PRO3	0.590	
33	   O	956.143	260.581	-927.914	O.2	3	PRO3	-0.575	
34	  CB	955.013	257.819	-926.175	C.3	3	PRO3	-0.007	
35	  CG	953.730	257.971	-925.345	C.3	3	PRO3	0.019	
36	  CD	954.188	258.790	-924.135	C.3	3	PRO3	0.019	
37	  HA	956.803	259.054	-926.019	 H	3	PRO3	0.064	
38	 2HB	955.636	257.038	-925.734	 H	3	PRO3	0.025	
39	 3HB	954.815	257.571	-927.220	 H	3	PRO3	0.025	
40	 2HG	953.302	257.009	-925.054	 H	3	PRO3	0.021	
41	 3HG	952.992	258.542	-925.912	 H	3	PRO3	0.021	
42	 2HD	954.577	258.140	-923.347	 H	3	PRO3	0.039	
43	 3HD	953.391	259.426	-923.742	 H	3	PRO3	0.039	
44	   N	954.114	260.657	-927.115	N.am	4	GLU4	-0.516	
45	  CA	953.755	261.628	-928.144	C.3	4	GLU4	0.040	
46	   C	954.654	262.839	-928.083	C.2	4	GLU4	0.537	
47	   O	955.180	263.319	-929.098	O.2	4	GLU4	-0.582	
48	  CB	952.266	262.047	-927.974	C.3	4	GLU4	0.056	
49	  CG	951.718	263.050	-929.040	C.3	4	GLU4	0.014	
50	  CD	950.291	263.547	-928.896	C.2	4	GLU4	0.805	
51	 OE1	949.565	263.148	-927.965	O.co2	4	GLU4	-0.819	
52	 OE2	949.902	264.376	-929.744	O.co2	4	GLU4	-0.819	
53	   H	953.430	260.350	-926.438	 H	4	GLU4	0.294	
54	  HA	953.886	261.158	-929.135	 H	4	GLU4	0.111	
55	 2HB	952.114	262.486	-926.967	 H	4	GLU4	-0.017	
56	 3HB	951.619	261.149	-927.980	 H	4	GLU4	-0.017	
57	 2HG	951.799	262.635	-930.058	 H	4	GLU4	-0.043	
58	 3HG	952.306	263.983	-929.051	 H	4	GLU4	-0.043	
59	   N	954.881	263.392	-926.940	N.am	5	SER5	-0.416	
60	  CA	955.750	264.563	-926.881	C.3	5	SER5	-0.025	
61	   C	957.109	264.258	-927.467	C.2	5	SER5	0.597	
62	   O	957.656	265.012	-928.272	O.2	5	SER5	-0.568	
63	  CB	955.862	265.096	-925.431	C.3	5	SER5	0.212	
64	  OG	956.593	264.216	-924.570	O.3	5	SER5	-0.655	
65	   H	954.464	263.020	-926.099	 H	5	SER5	0.272	
66	  HA	955.301	265.354	-927.511	 H	5	SER5	0.084	
67	 2HB	954.862	265.289	-924.998	 H	5	SER5	0.035	
68	 3HB	956.367	266.081	-925.433	 H	5	SER5	0.035	
69	  HG	956.105	263.392	-924.519	 H	5	SER5	0.428	
70	   N	957.714	263.175	-927.113	N.am	6	CYS6	-0.416	
71	  CA	959.028	262.880	-927.679	C.3	6	CYS6	0.021	
72	   C	958.971	262.842	-929.188	C.2	6	CYS6	0.597	
73	   O	959.805	263.429	-929.891	O.2	6	CYS6	-0.568	
74	  CB	959.535	261.556	-927.075	C.3	6	CYS6	-0.123	
75	  SG	961.233	261.224	-927.596	S.3	6	CYS6	-0.312	
76	   H	957.286	262.541	-926.454	 H	6	CYS6	0.272	
77	  HA	959.718	263.696	-927.397	 H	6	CYS6	0.112	
78	 2HB	958.888	260.703	-927.366	 H	6	CYS6	0.111	
79	 3HB	959.519	261.588	-925.971	 H	6	CYS6	0.111	
80	  HG	960.946	260.268	-928.476	 H	6	CYS6	0.193	
81	   N	958.025	262.178	-929.761	N.am	7	LEU7	-0.416	
82	  CA	957.970	262.142	-931.220	C.3	7	LEU7	-0.052	
83	   C	957.898	263.537	-931.792	C.2	7	LEU7	0.597	
84	   O	958.618	263.899	-932.734	O.2	7	LEU7	-0.568	
85	  CB	956.766	261.282	-931.700	C.3	7	LEU7	-0.110	
86	  CG	956.693	259.802	-931.233	C.3	7	LEU7	0.353	
87	 CD1	955.503	259.097	-931.898	C.3	7	LEU7	-0.412	
88	 CD2	957.987	259.023	-931.524	C.3	7	LEU7	-0.412	
89	   H	957.332	261.691	-929.210	 H	7	LEU7	0.272	
90	  HA	958.911	261.702	-931.594	 H	7	LEU7	0.092	
91	 2HB	956.743	261.297	-932.807	 H	7	LEU7	0.046	
92	 3HB	955.827	261.785	-931.396	 H	7	LEU7	0.046	
93	  HG	956.523	259.795	-930.135	 H	7	LEU7	-0.036	
94	1HD1	954.546	259.606	-931.676	 H	7	LEU7	0.100	
95	2HD1	955.603	259.056	-932.999	 H	7	LEU7	0.100	
96	3HD1	955.396	258.056	-931.542	 H	7	LEU7	0.100	
97	1HD2	958.262	259.053	-932.594	 H	7	LEU7	0.100	
98	2HD2	958.840	259.434	-930.953	 H	7	LEU7	0.100	
99	3HD2	957.905	257.961	-931.228	 H	7	LEU7	0.100	
100	   N	957.060	264.378	-931.286	N.am	8	ASP8	-0.516	
101	  CA	956.990	265.727	-931.840	C.3	8	ASP8	0.038	
102	   C	958.337	266.407	-931.783	C.2	8	ASP8	0.537	
103	   O	958.810	267.012	-932.758	O.2	8	ASP8	-0.582	
104	  CB	955.912	266.567	-931.099	C.3	8	ASP8	-0.030	
105	  CG	955.694	267.987	-931.639	C.2	8	ASP8	0.799	
106	 OD1	955.758	268.186	-932.870	O.co2	8	ASP8	-0.801	
107	 OD2	955.502	268.913	-930.824	O.co2	8	ASP8	-0.801	
108	   H	956.463	264.107	-930.519	 H	8	ASP8	0.294	
109	  HA	956.707	265.649	-932.907	 H	8	ASP8	0.088	
110	 2HB	956.170	266.650	-930.027	 H	8	ASP8	-0.012	
111	 3HB	954.933	266.062	-931.131	 H	8	ASP8	-0.012	
112	   N	959.017	266.357	-930.688	N.am	9	GLU9	-0.516	
113	  CA	960.320	267.015	-930.632	C.3	9	GLU9	0.040	
114	   C	961.238	266.487	-931.708	C.2	9	GLU9	0.537	
115	   O	961.902	267.241	-932.434	O.2	9	GLU9	-0.582	
116	  CB	960.953	266.807	-929.227	C.3	9	GLU9	0.056	
117	  CG	962.336	267.499	-928.998	C.3	9	GLU9	0.014	
118	  CD	963.037	267.286	-927.669	C.2	9	GLU9	0.805	
119	 OE1	962.516	266.596	-926.773	O.co2	9	GLU9	-0.819	
120	 OE2	964.157	267.824	-927.538	O.co2	9	GLU9	-0.819	
121	   H	958.653	265.871	-929.880	 H	9	GLU9	0.294	
122	  HA	960.178	268.096	-930.808	 H	9	GLU9	0.111	
123	 2HB	961.066	265.723	-929.023	 H	9	GLU9	-0.017	
124	 3HB	960.256	267.161	-928.443	 H	9	GLU9	-0.017	
125	 2HG	962.264	268.590	-929.138	 H	9	GLU9	-0.043	
126	 3HG	963.082	267.154	-929.731	 H	9	GLU9	-0.043	
127	   N	961.334	265.211	-931.877	N.am	10	HIS10	-0.416	
128	  CA	962.222	264.700	-932.917	C.3	10	HIS10	-0.058	
129	   C	961.855	265.264	-934.269	C.2	10	HIS10	0.597	
130	   O	962.708	265.728	-935.040	O.2	10	HIS10	-0.568	
131	  CB	962.058	263.171	-932.912	C.3	10	HIS10	-0.007	
132	  CG	963.343	262.460	-932.604	C.2	10	HIS10	0.187	
133	 CD2	963.724	262.125	-931.311	C.2	10	HIS10	-0.221	
134	 ND1	964.295	262.054	-933.536	N.2	10	HIS10	-0.543	
135	 CE1	965.202	261.496	-932.713	C.2	10	HIS10	0.163	
136	 NE2	964.939	261.494	-931.378	N.pl3	10	HIS10	-0.280	
137	   H	960.803	264.576	-931.299	 H	10	HIS10	0.272	
138	  HA	963.241	265.057	-932.692	 H	10	HIS10	0.136	
139	 2HB	961.693	262.804	-933.892	 H	10	HIS10	0.037	
140	 3HB	961.302	262.834	-932.172	 H	10	HIS10	0.037	
141	 2HD	963.138	262.341	-930.422	 H	10	HIS10	0.186	
142	 1HE	966.093	261.075	-933.160	 H	10	HIS10	0.144	
143	 2HE	965.506	261.117	-930.604	 H	10	HIS10	0.334	
144	   N	960.617	265.263	-934.632	N.am	11	VAL11	-0.416	
145	  CA	960.263	265.809	-935.939	C.3	11	VAL11	-0.087	
146	   C	960.727	267.240	-936.071	C.2	11	VAL11	0.597	
147	   O	961.328	267.644	-937.074	O.2	11	VAL11	-0.568	
148	  CB	958.701	265.703	-936.158	C.3	11	VAL11	0.299	
149	 CG1	958.133	266.406	-937.421	C.3	11	VAL11	-0.319	
150	 CG2	958.177	264.248	-936.231	C.3	11	VAL11	-0.319	
151	   H	959.904	264.890	-934.021	 H	11	VAL11	0.272	
152	  HA	960.782	265.226	-936.721	 H	11	VAL11	0.097	
153	  HB	958.214	266.183	-935.283	 H	11	VAL11	-0.030	
154	1HG1	958.571	266.014	-938.358	 H	11	VAL11	0.079	
155	2HG1	957.034	266.299	-937.503	 H	11	VAL11	0.079	
156	3HG1	958.311	267.499	-937.412	 H	11	VAL11	0.079	
157	1HG2	958.466	263.661	-935.340	 H	11	VAL11	0.079	
158	2HG2	957.071	264.212	-936.274	 H	11	VAL11	0.079	
159	3HG2	958.558	263.708	-937.117	 H	11	VAL11	0.079	
160	   N	960.490	268.066	-935.109	N.am	12	GLN12	-0.416	
161	  CA	960.939	269.448	-935.237	C.3	12	GLN12	-0.003	
162	   C	962.429	269.516	-935.474	C.2	12	GLN12	0.597	
163	   O	962.916	270.224	-936.353	O.2	12	GLN12	-0.568	
164	  CB	960.548	270.216	-933.954	C.3	12	GLN12	-0.004	
165	  CG	960.908	271.738	-933.923	C.3	12	GLN12	-0.064	
166	  CD	960.606	272.552	-932.658	C.2	12	GLN12	0.695	
167	 NE2	960.039	271.975	-931.629	N.pl3	12	GLN12	-0.941	
168	 OE1	960.908	273.733	-932.581	O.2	12	GLN12	-0.609	
169	   H	960.001	267.760	-934.280	 H	12	GLN12	0.272	
170	  HA	960.439	269.905	-936.112	 H	12	GLN12	0.085	
171	 2HB	961.024	269.716	-933.085	 H	12	GLN12	0.017	
172	 3HB	959.458	270.109	-933.791	 H	12	GLN12	0.017	
173	 2HG	960.431	272.259	-934.774	 H	12	GLN12	0.035	
174	 3HG	961.992	271.880	-934.089	 H	12	GLN12	0.035	
175	1HE2	959.932	272.570	-930.806	 H	12	GLN12	0.425	
176	2HE2	959.875	270.972	-931.733	 H	12	GLN12	0.425	
177	   N	963.213	268.809	-934.733	N.am	13	ARG13	-0.348	
178	  CA	964.654	268.874	-934.964	C.3	13	ARG13	-0.264	
179	   C	964.990	268.503	-936.389	C.2	13	ARG13	0.734	
180	   O	965.758	269.174	-937.074	O.2	13	ARG13	-0.589	
181	  CB	965.367	267.935	-933.950	C.3	13	ARG13	-0.001	
182	  CG	966.912	268.088	-933.869	C.3	13	ARG13	0.039	
183	  CD	967.539	267.101	-932.871	C.3	13	ARG13	0.049	
184	  NE	969.016	267.308	-932.821	N.pl3	13	ARG13	-0.530	
185	  CZ	969.864	266.616	-932.065	C.cat	13	ARG13	0.808	
186	 NH1	969.498	265.652	-931.268	N.pl3	13	ARG13	-0.863	
187	 NH2	971.123	266.915	-932.123	N.pl3	13	ARG13	-0.863	
188	   H	962.837	268.219	-934.005	 H	13	ARG13	0.275	
189	  HA	964.978	269.920	-934.806	 H	13	ARG13	0.156	
190	 2HB	965.100	266.885	-934.189	 H	13	ARG13	0.033	
191	 3HB	964.941	268.102	-932.940	 H	13	ARG13	0.033	
192	 2HG	967.160	269.133	-933.590	 H	13	ARG13	0.029	
193	 3HG	967.362	267.932	-934.871	 H	13	ARG13	0.029	
194	 2HD	967.294	266.060	-933.180	 H	13	ARG13	0.069	
195	 3HD	967.082	267.247	-931.869	 H	13	ARG13	0.069	
196	  HE	969.467	268.030	-933.392	 H	13	ARG13	0.346	
197	1HH1	968.493	265.466	-931.271	 H	13	ARG13	0.448	
198	2HH1	970.211	265.169	-930.719	 H	13	ARG13	0.448	
199	1HH2	971.391	267.672	-932.754	 H	13	ARG13	0.448	
200	2HH2	971.758	266.373	-931.534	 H	13	ARG13	0.448	
201	   N	964.453	267.448	-936.903	N.am	14	VAL14	-0.416	
202	  CA	964.778	267.088	-938.281	C.3	14	VAL14	-0.087	
203	   C	964.448	268.218	-939.227	C.2	14	VAL14	0.597	
204	   O	965.241	268.600	-940.096	O.2	14	VAL14	-0.568	
205	  CB	964.005	265.771	-938.687	C.3	14	VAL14	0.299	
206	 CG1	964.094	265.353	-940.181	C.3	14	VAL14	-0.319	
207	 CG2	964.437	264.519	-937.887	C.3	14	VAL14	-0.319	
208	   H	963.818	266.880	-936.361	 H	14	VAL14	0.272	
209	  HA	965.866	266.911	-938.356	 H	14	VAL14	0.097	
210	  HB	962.929	265.943	-938.471	 H	14	VAL14	-0.030	
211	1HG1	965.135	265.176	-940.510	 H	14	VAL14	0.079	
212	2HG1	963.521	264.430	-940.393	 H	14	VAL14	0.079	
213	3HG1	963.665	266.115	-940.859	 H	14	VAL14	0.079	
214	1HG2	964.350	264.678	-936.796	 H	14	VAL14	0.079	
215	2HG2	963.801	263.643	-938.119	 H	14	VAL14	0.079	
216	3HG2	965.484	264.229	-938.093	 H	14	VAL14	0.079	
217	   N	963.303	268.804	-939.125	N.am	15	MET15	-0.416	
218	  CA	962.983	269.897	-940.039	C.3	15	MET15	-0.024	
219	   C	964.013	270.997	-939.951	C.2	15	MET15	0.597	
220	   O	964.516	271.507	-940.964	O.2	15	MET15	-0.568	
221	  CB	961.562	270.443	-939.730	C.3	15	MET15	0.034	
222	  CG	960.399	269.445	-939.921	C.3	15	MET15	0.002	
223	  SD	958.826	270.311	-939.807	S.3	15	MET15	-0.274	
224	  CE	957.744	268.882	-939.670	C.3	15	MET15	-0.054	
225	   H	962.638	268.512	-938.423	 H	15	MET15	0.272	
226	  HA	963.008	269.509	-941.074	 H	15	MET15	0.088	
227	 2HB	961.359	271.322	-940.372	 H	15	MET15	0.024	
228	 3HB	961.526	270.836	-938.693	 H	15	MET15	0.024	
229	 2HG	960.442	268.659	-939.143	 H	15	MET15	0.044	
230	 3HG	960.462	268.930	-940.897	 H	15	MET15	0.044	
231	 1HE	957.888	268.193	-940.522	 H	15	MET15	0.068	
232	 2HE	957.953	268.329	-938.737	 H	15	MET15	0.068	
233	 3HE	956.687	269.197	-939.653	 H	15	MET15	0.068	
234	   N	964.382	271.418	-938.789	N.am	16	ARG16	-0.348	
235	  CA	965.379	272.482	-938.706	C.3	16	ARG16	-0.264	
236	   C	966.649	272.089	-939.422	C.2	16	ARG16	0.734	
237	   O	966.763	271.012	-940.003	O.2	16	ARG16	-0.589	
238	  CB	965.648	272.800	-937.208	C.3	16	ARG16	-0.001	
239	  CG	966.474	274.089	-936.935	C.3	16	ARG16	0.039	
240	  CD	966.723	274.308	-935.434	C.3	16	ARG16	0.049	
241	  NE	967.500	275.567	-935.233	N.pl3	16	ARG16	-0.530	
242	  CZ	967.891	276.050	-934.058	C.cat	16	ARG16	0.808	
243	 NH1	967.644	275.466	-932.919	N.pl3	16	ARG16	-0.863	
244	 NH2	968.555	277.162	-934.040	N.pl3	16	ARG16	-0.863	
245	   H	963.987	271.018	-937.950	 H	16	ARG16	0.275	
246	  HA	964.970	273.374	-939.216	 H	16	ARG16	0.156	
247	 2HB	966.145	271.924	-936.741	 H	16	ARG16	0.033	
248	 3HB	964.679	272.881	-936.674	 H	16	ARG16	0.033	
249	 2HG	965.943	274.960	-937.372	 H	16	ARG16	0.029	
250	 3HG	967.447	274.036	-937.464	 H	16	ARG16	0.029	
251	 2HD	967.272	273.434	-935.021	 H	16	ARG16	0.069	
252	 3HD	965.751	274.351	-934.898	 H	16	ARG16	0.069	
253	  HE	967.778	276.148	-936.031	 H	16	ARG16	0.346	
254	1HH1	967.118	274.593	-933.003	 H	16	ARG16	0.448	
255	2HH1	967.978	275.901	-932.058	 H	16	ARG16	0.448	
256	1HH2	968.741	277.605	-934.942	 H	16	ARG16	0.448	
257	2HH2	968.846	277.518	-933.127	 H	16	ARG16	0.448	
@<TRIPOS>BOND
1 1 2 1
2 1 10 1
3 2 3 1
4 2 5 1
5 2 11 1
6 3 4 2
7 3 16 1
8 5 6 1
9 6 7 1
10 7 8 2
11 7 9 1
12 5 12 1
13 5 13 1
14 6 14 1
15 6 15 1
16 16 17 1
17 16 24 1
18 17 18 1
19 17 20 1
20 17 25 1
21 18 19 2
22 18 30 1
23 20 21 1
24 21 22 1
25 21 23 2
26 20 26 1
27 20 27 1
28 22 28 1
29 22 29 1
30 30 31 1
31 30 36 1
32 31 32 1
33 31 34 1
34 31 37 1
35 32 33 2
36 32 44 1
37 34 35 1
38 35 36 1
39 34 38 1
40 34 39 1
41 35 40 1
42 35 41 1
43 36 42 1
44 36 43 1
45 44 45 1
46 44 53 1
47 45 46 1
48 45 48 1
49 45 54 1
50 46 47 2
51 46 59 1
52 48 49 1
53 49 50 1
54 50 51 2
55 50 52 1
56 48 55 1
57 48 56 1
58 49 57 1
59 49 58 1
60 59 60 1
61 59 65 1
62 60 61 1
63 60 63 1
64 60 66 1
65 61 62 2
66 61 70 1
67 63 64 1
68 63 67 1
69 63 68 1
70 64 69 1
71 70 71 1
72 70 76 1
73 71 72 1
74 71 74 1
75 71 77 1
76 72 73 2
77 72 81 1
78 74 75 1
79 74 78 1
80 74 79 1
81 75 80 1
82 81 82 1
83 81 89 1
84 82 83 1
85 82 85 1
86 82 90 1
87 83 84 2
88 83 100 1
89 85 86 1
90 86 87 1
91 86 88 1
92 85 91 1
93 85 92 1
94 86 93 1
95 87 94 1
96 87 95 1
97 87 96 1
98 88 97 1
99 88 98 1
100 88 99 1
101 100 101 1
102 100 108 1
103 101 102 1
104 101 104 1
105 101 109 1
106 102 103 2
107 102 112 1
108 104 105 1
109 105 106 2
110 105 107 1
111 104 110 1
112 104 111 1
113 112 113 1
114 112 121 1
115 113 114 1
116 113 116 1
117 113 122 1
118 114 115 2
119 114 127 1
120 116 117 1
121 117 118 1
122 118 119 2
123 118 120 1
124 116 123 1
125 116 124 1
126 117 125 1
127 117 126 1
128 127 128 1
129 127 137 1
130 128 129 1
131 128 131 1
132 128 138 1
133 129 130 2
134 129 144 1
135 131 132 1
136 132 133 2
137 133 136 1
138 132 134 1
139 134 135 2
140 135 136 1
141 131 139 1
142 131 140 1
143 133 141 1
144 135 142 1
145 136 143 1
146 144 145 1
147 144 151 1
148 145 146 1
149 145 148 1
150 145 152 1
151 146 147 2
152 146 160 1
153 148 149 1
154 148 150 1
155 148 153 1
156 149 154 1
157 149 155 1
158 149 156 1
159 150 157 1
160 150 158 1
161 150 159 1
162 160 161 1
163 160 169 1
164 161 162 1
165 161 164 1
166 161 170 1
167 162 163 2
168 162 177 1
169 164 165 1
170 165 166 1
171 166 167 1
172 166 168 2
173 164 171 1
174 164 172 1
175 165 173 1
176 165 174 1
177 167 175 1
178 167 176 1
179 177 178 1
180 177 188 1
181 178 179 1
182 178 181 1
183 178 189 1
184 179 180 2
185 179 201 1
186 181 182 1
187 182 183 1
188 183 184 1
189 184 185 1
190 185 186 2
191 185 187 1
192 181 190 1
193 181 191 1
194 182 192 1
195 182 193 1
196 183 194 1
197 183 195 1
198 184 196 1
199 186 197 1
200 186 198 1
201 187 199 1
202 187 200 1
203 201 202 1
204 201 208 1
205 202 203 1
206 202 205 1
207 202 209 1
208 203 204 2
209 203 217 1
210 205 206 1
211 205 207 1
212 205 210 1
213 206 211 1
214 206 212 1
215 206 213 1
216 207 214 1
217 207 215 1
218 207 216 1
219 217 218 1
220 217 225 1
221 218 219 1
222 218 221 1
223 218 226 1
224 219 220 2
225 219 234 1
226 221 222 1
227 222 223 1
228 223 224 1
229 221 227 1
230 221 228 1
231 222 229 1
232 222 230 1
233 224 231 1
234 224 232 1
235 224 233 1
236 234 235 1
237 234 245 1
238 235 236 1
239 235 238 1
240 235 246 1
241 236 237 2
242 238 239 1
243 239 240 1
244 240 241 1
245 241 242 1
246 242 243 2
247 242 244 1
248 238 247 1
249 238 248 1
250 239 249 1
251 239 250 1
252 240 251 1
253 240 252 1
254 241 253 1
255 243 254 1
256 243 255 1
257 244 256 1
258 244 257 1
@<TRIPOS>SUBSTRUCTURE
1	GLU1	1	RESIDUE	1 ****	GLU
2	ASN2	16	RESIDUE	1 ****	ASN
3	PRO3	30	RESIDUE	1 ****	PRO
4	GLU4	44	RESIDUE	1 ****	GLU
5	SER5	59	RESIDUE	1 ****	SER
6	CYS6	70	RESIDUE	1 ****	CYS
7	LEU7	81	RESIDUE	1 ****	LEU
8	ASP8	100	RESIDUE	1 ****	ASP
9	GLU9	112	RESIDUE	1 ****	GLU
10	HIS10	127	RESIDUE	1 ****	HIS
11	VAL11	144	RESIDUE	1 ****	VAL
12	GLN12	160	RESIDUE	1 ****	GLN
13	ARG13	177	RESIDUE	1 ****	ARG
14	VAL14	201	RESIDUE	1 ****	VAL
15	MET15	217	RESIDUE	1 ****	MET
16	ARG16	234	RESIDUE	1 ****	ARG
