REMARK WARNING: 32 MAX_TORS EXCEEDED!!!
REMARK  68 active torsions:
REMARK  status: ('A' for Active; 'I' for Inactive)
REMARK    1  A    between atoms: N_1  and  CA_2 
REMARK    2  A    between atoms: CA_2  and  C_3 
REMARK    3  A    between atoms: CA_2  and  CB_5 
REMARK       I    between atoms: C_3  and  N_11 
REMARK    4  A    between atoms: CB_5  and  CG_6 
REMARK    5  A    between atoms: CG_6  and  CD_7 
REMARK    6  A    between atoms: N_11  and  CA_12 
REMARK    7  A    between atoms: CA_12  and  C_13 
REMARK    8  A    between atoms: CA_12  and  CB_15 
REMARK       I    between atoms: C_13  and  N_22 
REMARK    9  A    between atoms: CB_15  and  CG_16 
REMARK       I    between atoms: CG_16  and  ND2_17 
REMARK   10  A    between atoms: CA_23  and  C_24 
REMARK       I    between atoms: C_24  and  N_29 
REMARK   11  A    between atoms: N_29  and  CA_30 
REMARK   12  A    between atoms: CA_30  and  C_31 
REMARK   13  A    between atoms: CA_30  and  CB_33 
REMARK       I    between atoms: C_31  and  N_39 
REMARK   14  A    between atoms: CB_33  and  CG_34 
REMARK   15  A    between atoms: CG_34  and  CD_35 
REMARK   16  A    between atoms: N_39  and  CA_40 
REMARK   17  A    between atoms: CA_40  and  C_41 
REMARK   18  A    between atoms: CA_40  and  CB_43 
REMARK       I    between atoms: C_41  and  N_48 
REMARK   19  A    between atoms: CB_43  and  CG_44 
REMARK   20  A    between atoms: N_48  and  CA_49 
REMARK   21  A    between atoms: CA_49  and  C_50 
REMARK   22  A    between atoms: CA_49  and  CB_52 
REMARK       I    between atoms: C_50  and  N_57 
REMARK   23  A    between atoms: CB_52  and  CG1_53 
REMARK   24  A    between atoms: N_57  and  CA_58 
REMARK   25  A    between atoms: CA_58  and  C_59 
REMARK   26  A    between atoms: CA_58  and  CB_61 
REMARK       I    between atoms: C_59  and  N_66 
REMARK   27  A    between atoms: CB_61  and  CG_62 
REMARK   28  A    between atoms: N_66  and  CA_67 
REMARK   29  A    between atoms: CA_67  and  C_68 
REMARK   30  A    between atoms: CA_67  and  CB_70 
REMARK       I    between atoms: C_68  and  N_75 
REMARK   31  A    between atoms: CB_70  and  CG_71 
REMARK   32  A    between atoms: N_75  and  CA_76 
REMARK   33  A    between atoms: CA_76  and  C_77 
REMARK   34  A    between atoms: CA_76  and  CB_79 
REMARK       I    between atoms: C_77  and  N_85 
REMARK   35  A    between atoms: CB_79  and  CG_80 
REMARK   36  A    between atoms: CG_80  and  CD_81 
REMARK   37  A    between atoms: N_85  and  CA_86 
REMARK   38  A    between atoms: CA_86  and  C_87 
REMARK   39  A    between atoms: CA_86  and  CB_89 
REMARK       I    between atoms: C_87  and  N_97 
REMARK   40  A    between atoms: CB_89  and  CG_90 
REMARK   41  A    between atoms: N_97  and  CA_98 
REMARK   42  A    between atoms: CA_98  and  C_99 
REMARK   43  A    between atoms: CA_98  and  CB_101 
REMARK       I    between atoms: C_99  and  N_105 
REMARK   44  A    between atoms: N_105  and  CA_106 
REMARK   45  A    between atoms: CA_106  and  C_107 
REMARK   46  A    between atoms: CA_106  and  CB_109 
REMARK       I    between atoms: C_107  and  N_117 
REMARK   47  A    between atoms: CB_109  and  CG_110 
REMARK   48  A    between atoms: CG_110  and  CD_111 
REMARK       I    between atoms: CD_111  and  NE2_112 
REMARK   49  A    between atoms: N_117  and  CA_118 
REMARK   50  A    between atoms: CA_118  and  C_119 
REMARK   51  A    between atoms: CA_118  and  CB_121 
REMARK       I    between atoms: C_119  and  N_134 
REMARK   52  A    between atoms: CB_121  and  CG_122 
REMARK   53  A    between atoms: CG_122  and  CD_123 
REMARK   54  A    between atoms: CD_123  and  NE_124 
REMARK       I    between atoms: NE_124  and  CZ_125 
REMARK       I    between atoms: CZ_125  and  NH1_126 
REMARK       I    between atoms: CZ_125  and  NH2_127 
REMARK   55  A    between atoms: N_134  and  CA_135 
REMARK   56  A    between atoms: CA_135  and  C_136 
REMARK   57  A    between atoms: CA_135  and  CB_138 
REMARK       I    between atoms: C_136  and  N_142 
REMARK   58  A    between atoms: N_142  and  CA_143 
REMARK   59  A    between atoms: CA_143  and  C_144 
REMARK   60  A    between atoms: CA_143  and  CB_146 
REMARK       I    between atoms: C_144  and  N_151 
REMARK   61  A    between atoms: CB_146  and  CG_147 
REMARK   62  A    between atoms: CG_147  and  SD_148 
REMARK   63  A    between atoms: N_151  and  CA_152 
REMARK   64  A    between atoms: CA_152  and  C_153 
REMARK   65  A    between atoms: CA_152  and  CB_155 
REMARK   66  A    between atoms: CB_155  and  CG_156 
REMARK   67  A    between atoms: CG_156  and  CD_157 
REMARK   68  A    between atoms: CD_157  and  NE_158 
REMARK       I    between atoms: NE_158  and  CZ_159 
REMARK       I    between atoms: CZ_159  and  NH1_160 
ROOT
ATOM      1  C   GLU d   9     756.701 199.388-710.868  0.00  0.00     0.241 C 
ATOM      2  O   GLU d   9     757.365 200.143-711.593  0.00  0.00    -0.271 OA
ATOM      3  N   HIS d  10     756.797 198.113-711.037  0.00  0.00    -0.346 N 
ATOM      4  H   HIS d  10     756.266 197.478-710.459  0.00  0.00     0.163 HD
ENDROOT
BRANCH   1   5
ATOM      5  CA  GLU d   9     755.782 199.916-709.792  0.00  0.00     0.177 C 
BRANCH   5   6
ATOM      6  N   GLU d   9     754.479 199.259-709.849  0.00  0.00    -0.346 N 
ATOM      7  C   ASP d   8     753.800 199.309-710.944  0.00  0.00     0.241 C 
ATOM      8  O   ASP d   8     754.274 199.914-711.918  0.00  0.00    -0.271 OA
ATOM      9  H   GLU d   9     754.115 198.773-709.042  0.00  0.00     0.163 HD
BRANCH   7  10
ATOM     10  CA  ASP d   8     752.453 198.630-711.002  0.00  0.00     0.186 C 
BRANCH  10  11
ATOM     11  N   ASP d   8     752.523 197.280-710.449  0.00  0.00    -0.346 N 
ATOM     12  C   LEU d   7     753.360 196.439-710.954  0.00  0.00     0.241 C 
ATOM     13  O   LEU d   7     754.081 196.802-711.896  0.00  0.00    -0.271 OA
ATOM     14  H   ASP d   8     751.925 197.009-709.681  0.00  0.00     0.163 HD
BRANCH  12  15
ATOM     15  CA  LEU d   7     753.432 195.044-710.382  0.00  0.00     0.177 C 
BRANCH  15  16
ATOM     16  N   LEU d   7     753.486 195.080-708.923  0.00  0.00    -0.346 N 
ATOM     17  C   ILE d   6     754.432 195.744-708.349  0.00  0.00     0.241 C 
ATOM     18  O   ILE d   6     755.267 196.331-709.053  0.00  0.00    -0.271 OA
ATOM     19  H   LEU d   7     752.794 194.593-708.372  0.00  0.00     0.163 HD
BRANCH  17  20
ATOM     20  CA  ILE d   6     754.489 195.781-706.842  0.00  0.00     0.180 C 
BRANCH  20  21
ATOM     21  N   ILE d   6     753.175 196.077-706.276  0.00  0.00    -0.346 N 
ATOM     22  C   LEU d   5     752.571 197.160-706.630  0.00  0.00     0.241 C 
ATOM     23  O   LEU d   5     753.124 197.918-707.441  0.00  0.00    -0.271 OA
ATOM     24  H   ILE d   6     752.746 195.443-705.617  0.00  0.00     0.163 HD
BRANCH  22  25
ATOM     25  CA  LEU d   5     751.213 197.465-706.045  0.00  0.00     0.177 C 
BRANCH  25  26
ATOM     26  N   LEU d   5     750.344 196.294-706.104  0.00  0.00    -0.346 N 
ATOM     27  C   GLU d   4     750.117 195.741-707.247  0.00  0.00     0.241 C 
ATOM     28  O   GLU d   4     750.643 196.220-708.262  0.00  0.00    -0.271 OA
ATOM     29  H   LEU d   5     749.927 195.922-705.263  0.00  0.00     0.163 HD
BRANCH  27  30
ATOM     30  CA  GLU d   4     749.218 194.529-707.309  0.00  0.00     0.177 C 
BRANCH  30  31
ATOM     31  N   GLU d   4     749.578 193.559-706.279  0.00  0.00    -0.346 N 
ATOM     32  C   PRO d   3     750.782 193.099-706.247  0.00  0.00     0.241 C 
ATOM     33  O   PRO d   3     751.606 193.482-707.078  0.00  0.00    -0.271 OA
ATOM     34  H   GLU d   4     748.893 193.252-705.602  0.00  0.00     0.163 HD
BRANCH  32  35
ATOM     35  CA  PRO d   3     751.181 192.075-705.170  0.00  0.00     0.179 C 
ATOM     36  N   PRO d   3     750.729 192.484-703.848  0.00  0.00    -0.337 N 
ATOM     37  C   ASN d   2     751.250 193.480-703.214  0.00  0.00     0.243 C 
ATOM     38  CD  PRO d   3     749.651 191.691-703.299  0.00  0.00     0.127 C 
ATOM     39  O   ASN d   2     752.165 194.110-703.743  0.00  0.00    -0.271 OA
ATOM     40  CG  PRO d   3     749.193 190.872-704.509  0.00  0.00     0.022 C 
ATOM     41  CB  PRO d   3     750.477 190.720-705.339  0.00  0.00     0.037 C 
BRANCH  37  42
ATOM     42  CA  ASN d   2     750.719 193.835-701.845  0.00  0.00     0.185 C 
BRANCH  42  43
ATOM     43  N   ASN d   2     749.259 193.874-701.845  0.00  0.00    -0.346 N 
ATOM     44  C   GLU d   1     748.655 194.659-702.670  0.00  0.00     0.242 C 
ATOM     45  O   GLU d   1     749.331 195.359-703.439  0.00  0.00    -0.271 OA
ATOM     46  H   ASN d   2     748.731 193.294-701.209  0.00  0.00     0.163 HD
BRANCH  44  47
ATOM     47  CA  GLU d   1     747.146 194.699-702.670  0.00  0.00     0.191 C 
BRANCH  47  48
ATOM     48  N   GLU d   1     746.587 193.350-702.670  0.00  0.00    -0.326 NA
ATOM     49  H   GLU d   1     747.214 192.471-702.670  0.00  0.00     0.180 HD
ENDBRANCH  47  48
BRANCH  47  50
ATOM     50  CB  GLU d   1     746.623 195.484-701.433  0.00  0.00     0.047 C 
BRANCH  50  51
ATOM     51  CG  GLU d   1     747.098 196.969-701.322  0.00  0.00     0.116 C 
BRANCH  51  52
ATOM     52  CD  GLU d   1     746.674 197.773-700.107  0.00  0.00     0.172 C 
ATOM     53  OE1 GLU d   1     745.946 197.271-699.229  0.00  0.00    -0.648 OA
ATOM     54  OE2 GLU d   1     747.104 198.943-700.035  0.00  0.00    -0.648 OA
ENDBRANCH  51  52
ENDBRANCH  50  51
ENDBRANCH  47  50
ENDBRANCH  44  47
ENDBRANCH  42  43
BRANCH  42  55
ATOM     55  CB  ASN d   2     751.211 192.812-700.781  0.00  0.00     0.137 C 
BRANCH  55  56
ATOM     56  CG  ASN d   2     750.748 193.036-699.338  0.00  0.00     0.217 C 
ATOM     57  ND2 ASN d   2     751.342 193.951-698.620  0.00  0.00    -0.370 N 
ATOM     58 21HD ASN d   2     750.861 194.124-697.733  0.00  0.00     0.159 HD
ATOM     59 22HD ASN d   2     752.044 194.522-699.089  0.00  0.00     0.159 HD
ATOM     60  OD1 ASN d   2     749.827 192.402-698.844  0.00  0.00    -0.274 OA
ENDBRANCH  55  56
ENDBRANCH  42  55
ENDBRANCH  37  42
ENDBRANCH  32  35
ENDBRANCH  30  31
BRANCH  30  61
ATOM     61  CB  GLU d   4     747.729 194.948-707.138  0.00  0.00     0.045 C 
BRANCH  61  62
ATOM     62  CG  GLU d   4     747.181 195.951-708.204  0.00  0.00     0.116 C 
BRANCH  62  63
ATOM     63  CD  GLU d   4     745.754 196.448-708.061  0.00  0.00     0.172 C 
ATOM     64  OE1 GLU d   4     745.028 196.049-707.130  0.00  0.00    -0.648 OA
ATOM     65  OE2 GLU d   4     745.365 197.277-708.909  0.00  0.00    -0.648 OA
ENDBRANCH  62  63
ENDBRANCH  61  62
ENDBRANCH  30  61
ENDBRANCH  27  30
ENDBRANCH  25  26
BRANCH  25  66
ATOM     66  CB  LEU d   5     751.341 197.977-704.583  0.00  0.00     0.038 C 
BRANCH  66  67
ATOM     67  CG  LEU d   5     750.041 198.372-703.831  0.00  0.00    -0.020 C 
ATOM     68  CD1 LEU d   5     750.385 198.954-702.452  0.00  0.00     0.009 C 
ATOM     69  CD2 LEU d   5     749.182 199.376-704.617  0.00  0.00     0.009 C 
ENDBRANCH  66  67
ENDBRANCH  25  66
ENDBRANCH  22  25
ENDBRANCH  20  21
BRANCH  20  70
ATOM     70  CB  ILE d   6     755.088 194.445-706.241  0.00  0.00     0.013 C 
ATOM     71  CG2 ILE d   6     756.529 194.143-706.756  0.00  0.00     0.012 C 
BRANCH  70  72
ATOM     72  CG1 ILE d   6     755.106 194.383-704.680  0.00  0.00     0.002 C 
ATOM     73  CD1 ILE d   6     755.376 192.994-704.065  0.00  0.00     0.005 C 
ENDBRANCH  70  72
ENDBRANCH  20  70
ENDBRANCH  17  20
ENDBRANCH  15  16
BRANCH  15  74
ATOM     74  CB  LEU d   7     752.229 194.184-710.863  0.00  0.00     0.038 C 
BRANCH  74  75
ATOM     75  CG  LEU d   7     752.156 192.705-710.396  0.00  0.00    -0.020 C 
ATOM     76  CD1 LEU d   7     750.966 191.999-711.062  0.00  0.00     0.009 C 
ATOM     77  CD2 LEU d   7     753.449 191.925-710.687  0.00  0.00     0.009 C 
ENDBRANCH  74  75
ENDBRANCH  15  74
ENDBRANCH  12  15
ENDBRANCH  10  11
BRANCH  10  78
ATOM     78  CB  ASP d   8     751.375 199.469-710.261  0.00  0.00     0.147 C 
BRANCH  78  79
ATOM     79  CG  ASP d   8     751.157 200.890-710.802  0.00  0.00     0.175 C 
ATOM     80  OD1 ASP d   8     751.221 201.089-712.032  0.00  0.00    -0.648 OA
ATOM     81  OD2 ASP d   8     750.964 201.816-709.986  0.00  0.00    -0.648 OA
ENDBRANCH  78  79
ENDBRANCH  10  78
ENDBRANCH   7  10
ENDBRANCH   5   6
BRANCH   5  82
ATOM     82  CB  GLU d   9     756.415 199.709-708.387  0.00  0.00     0.045 C 
BRANCH  82  83
ATOM     83  CG  GLU d   9     757.797 200.400-708.156  0.00  0.00     0.116 C 
BRANCH  83  84
ATOM     84  CD  GLU d   9     758.498 200.187-706.828  0.00  0.00     0.172 C 
ATOM     85  OE1 GLU d   9     757.976 199.496-705.932  0.00  0.00    -0.648 OA
ATOM     86  OE2 GLU d   9     759.617 200.725-706.695  0.00  0.00    -0.648 OA
ENDBRANCH  83  84
ENDBRANCH  82  83
ENDBRANCH   5  82
ENDBRANCH   1   5
BRANCH   3  87
ATOM     87  CA  HIS d  10     757.685 197.602-712.077  0.00  0.00     0.182 C 
BRANCH  87  88
ATOM     88  C   HIS d  10     757.319 198.166-713.428  0.00  0.00     0.241 C 
ATOM     89  O   HIS d  10     758.172 198.631-714.200  0.00  0.00    -0.271 OA
ATOM     90  N   VAL d  11     756.082 198.165-713.792  0.00  0.00    -0.346 N 
ATOM     91  H   VAL d  11     755.368 197.793-713.182  0.00  0.00     0.163 HD
BRANCH  90  92
ATOM     92  CA  VAL d  11     755.727 198.712-715.099  0.00  0.00     0.180 C 
BRANCH  92  93
ATOM     93  C   VAL d  11     756.192 200.142-715.231  0.00  0.00     0.241 C 
ATOM     94  O   VAL d  11     756.794 200.547-716.234  0.00  0.00    -0.271 OA
ATOM     95  N   GLN d  12     755.955 200.968-714.269  0.00  0.00    -0.346 N 
ATOM     96  H   GLN d  12     755.465 200.662-713.440  0.00  0.00     0.163 HD
BRANCH  95  97
ATOM     97  CA  GLN d  12     756.403 202.351-714.396  0.00  0.00     0.177 C 
BRANCH  97  98
ATOM     98  C   GLN d  12     757.893 202.418-714.633  0.00  0.00     0.241 C 
ATOM     99  O   GLN d  12     758.381 203.126-715.511  0.00  0.00    -0.271 OA
ATOM    100  N   ARG d  13     758.678 201.711-713.892  0.00  0.00    -0.346 N 
ATOM    101  H   ARG d  13     758.301 201.121-713.163  0.00  0.00     0.163 HD
BRANCH 100 102
ATOM    102  CA  ARG d  13     760.118 201.777-714.121  0.00  0.00     0.176 C 
BRANCH 102 103
ATOM    103  C   ARG d  13     760.455 201.406-715.546  0.00  0.00     0.241 C 
ATOM    104  O   ARG d  13     761.224 202.077-716.230  0.00  0.00    -0.271 OA
ATOM    105  N   VAL d  14     759.919 200.351-716.061  0.00  0.00    -0.346 N 
ATOM    106  H   VAL d  14     759.284 199.783-715.520  0.00  0.00     0.163 HD
BRANCH 105 107
ATOM    107  CA  VAL d  14     760.245 199.992-717.439  0.00  0.00     0.180 C 
BRANCH 107 108
ATOM    108  C   VAL d  14     759.915 201.122-718.384  0.00  0.00     0.241 C 
ATOM    109  O   VAL d  14     760.709 201.504-719.253  0.00  0.00    -0.271 OA
ATOM    110  N   MET d  15     758.771 201.708-718.283  0.00  0.00    -0.346 N 
ATOM    111  H   MET d  15     758.105 201.415-717.582  0.00  0.00     0.163 HD
BRANCH 110 112
ATOM    112  CA  MET d  15     758.451 202.801-719.197  0.00  0.00     0.177 C 
BRANCH 112 113
ATOM    113  C   MET d  15     759.481 203.901-719.108  0.00  0.00     0.241 C 
ATOM    114  O   MET d  15     759.985 204.412-720.120  0.00  0.00    -0.271 OA
ATOM    115  N   ARG d  16     759.849 204.322-717.945  0.00  0.00    -0.347 N 
ATOM    116  H   ARG d  16     759.454 203.922-717.107  0.00  0.00     0.163 HD
BRANCH 115 117
ATOM    117  CA  ARG d  16     760.846 205.386-717.861  0.00  0.00     0.162 C 
BRANCH 117 118
ATOM    118  C   ARG d  16     762.117 204.993-718.576  0.00  0.00     0.219 C 
ATOM    119  O   ARG d  16     762.231 203.916-719.158  0.00  0.00    -0.287 OA
ENDBRANCH 117 118
BRANCH 117 120
ATOM    120  CB  ARG d  16     761.114 205.703-716.362  0.00  0.00     0.035 C 
BRANCH 120 121
ATOM    121  CG  ARG d  16     761.939 206.992-716.089  0.00  0.00     0.023 C 
BRANCH 121 122
ATOM    122  CD  ARG d  16     762.188 207.211-714.587  0.00  0.00     0.138 C 
BRANCH 122 123
ATOM    123  NE  ARG d  16     762.964 208.470-714.386  0.00  0.00    -0.227 N 
ATOM    124  CZ  ARG d  16     763.355 208.952-713.210  0.00  0.00     0.665 C 
ATOM    125  NH1 ARG d  16     763.106 208.367-712.071  0.00  0.00    -0.235 N 
ATOM    126  NH2 ARG d  16     764.019 210.064-713.191  0.00  0.00    -0.235 N 
ATOM    127 11HH ARG d  16     762.581 207.495-712.156  0.00  0.00     0.174 HD
ATOM    128 12HH ARG d  16     763.440 208.803-711.210  0.00  0.00     0.174 HD
ATOM    129 21HH ARG d  16     764.205 210.508-714.092  0.00  0.00     0.174 HD
ATOM    130 22HH ARG d  16     764.309 210.419-712.278  0.00  0.00     0.174 HD
ATOM    131  HE  ARG d  16     763.244 209.051-715.183  0.00  0.00     0.177 HD
ENDBRANCH 122 123
ENDBRANCH 121 122
ENDBRANCH 120 121
ENDBRANCH 117 120
ENDBRANCH 115 117
ENDBRANCH 112 113
BRANCH 112 132
ATOM    132  CB  MET d  15     757.029 203.347-718.889  0.00  0.00     0.045 C 
BRANCH 132 133
ATOM    133  CG  MET d  15     755.867 202.349-719.081  0.00  0.00     0.076 C 
BRANCH 133 134
ATOM    134  SD  MET d  15     754.294 203.215-718.968  0.00  0.00    -0.173 SA
ATOM    135  CE  MET d  15     753.212 201.786-718.832  0.00  0.00     0.089 C 
ENDBRANCH 133 134
ENDBRANCH 132 133
ENDBRANCH 112 132
ENDBRANCH 110 112
ENDBRANCH 107 108
BRANCH 107 136
ATOM    136  CB  VAL d  14     759.473 198.675-717.846  0.00  0.00     0.009 C 
ATOM    137  CG1 VAL d  14     759.563 198.257-719.340  0.00  0.00     0.012 C 
ATOM    138  CG2 VAL d  14     759.904 197.423-717.046  0.00  0.00     0.012 C 
ENDBRANCH 107 136
ENDBRANCH 105 107
ENDBRANCH 102 103
BRANCH 102 139
ATOM    139  CB  ARG d  13     760.831 200.838-713.107  0.00  0.00     0.036 C 
BRANCH 139 140
ATOM    140  CG  ARG d  13     762.375 200.990-713.025  0.00  0.00     0.023 C 
BRANCH 140 141
ATOM    141  CD  ARG d  13     763.002 200.003-712.027  0.00  0.00     0.138 C 
BRANCH 141 142
ATOM    142  NE  ARG d  13     764.479 200.210-711.976  0.00  0.00    -0.227 N 
ATOM    143  CZ  ARG d  13     765.326 199.518-711.220  0.00  0.00     0.665 C 
ATOM    144  NH1 ARG d  13     764.961 198.553-710.423  0.00  0.00    -0.235 N 
ATOM    145  NH2 ARG d  13     766.586 199.816-711.276  0.00  0.00    -0.235 N 
ATOM    146 11HH ARG d  13     763.955 198.367-710.427  0.00  0.00     0.174 HD
ATOM    147 12HH ARG d  13     765.673 198.070-709.874  0.00  0.00     0.174 HD
ATOM    148 21HH ARG d  13     766.854 200.574-711.907  0.00  0.00     0.174 HD
ATOM    149 22HH ARG d  13     767.221 199.275-710.687  0.00  0.00     0.174 HD
ATOM    150  HE  ARG d  13     764.931 200.932-712.546  0.00  0.00     0.177 HD
ENDBRANCH 141 142
ENDBRANCH 140 141
ENDBRANCH 139 140
ENDBRANCH 102 139
ENDBRANCH 100 102
ENDBRANCH  97  98
BRANCH  97 151
ATOM    151  CB  GLN d  12     756.012 203.118-713.113  0.00  0.00     0.044 C 
BRANCH 151 152
ATOM    152  CG  GLN d  12     756.372 204.640-713.082  0.00  0.00     0.105 C 
BRANCH 152 153
ATOM    153  CD  GLN d  12     756.069 205.453-711.817  0.00  0.00     0.215 C 
ATOM    154  NE2 GLN d  12     755.501 204.877-710.789  0.00  0.00    -0.370 N 
ATOM    155 21HE GLN d  12     755.394 205.471-709.965  0.00  0.00     0.159 HD
ATOM    156 22HE GLN d  12     755.338 203.873-710.892  0.00  0.00     0.159 HD
ATOM    157  OE1 GLN d  12     756.371 206.634-711.739  0.00  0.00    -0.274 OA
ENDBRANCH 152 153
ENDBRANCH 151 152
ENDBRANCH  97 151
ENDBRANCH  95  97
ENDBRANCH  92  93
BRANCH  92 158
ATOM    158  CB  VAL d  11     754.166 198.605-715.319  0.00  0.00     0.009 C 
ATOM    159  CG1 VAL d  11     753.598 199.309-716.582  0.00  0.00     0.012 C 
ATOM    160  CG2 VAL d  11     753.642 197.151-715.393  0.00  0.00     0.012 C 
ENDBRANCH  92 158
ENDBRANCH  90  92
ENDBRANCH  87  88
BRANCH  87 161
ATOM    161  CB  HIS d  10     757.521 196.073-712.072  0.00  0.00     0.095 C 
BRANCH 161 162
ATOM    162  CG  HIS d  10     758.806 195.362-711.763  0.00  0.00     0.053 A 
ATOM    163  CD2 HIS d  10     759.186 195.027-710.470  0.00  0.00     0.116 A 
ATOM    164  NE2 HIS d  10     760.401 194.395-710.536  0.00  0.00    -0.359 N 
ATOM    165  CE1 HIS d  10     760.665 194.398-711.871  0.00  0.00     0.207 A 
ATOM    166  2HE HIS d  10     760.967 194.018-709.763  0.00  0.00     0.166 HD
ATOM    167  ND1 HIS d  10     759.759 194.956-712.695  0.00  0.00    -0.247 NA
ENDBRANCH 161 162
ENDBRANCH  87 161
ENDBRANCH   3  87
TORSDOF 68
