@<TRIPOS>MOLECULE
4-18
265 266 16              
SMALL
USER_CHARGES
@<TRIPOS>ATOM
1	   N	672.366	169.575	-624.216	N.3	1	GLU1	-0.516	
2	  CA	672.925	170.924	-624.216	C.3	1	GLU1	0.040	
3	   C	674.434	170.884	-624.216	C.2	1	GLU1	0.537	
4	   O	675.110	171.583	-624.985	O.2	1	GLU1	-0.582	
5	  CB	672.402	171.709	-622.979	C.3	1	GLU1	0.056	
6	  CG	672.877	173.194	-622.868	C.3	1	GLU1	0.014	
7	  CD	672.453	173.998	-621.653	C.2	1	GLU1	0.805	
8	 OE1	671.725	173.496	-620.775	O.co2	1	GLU1	-0.819	
9	 OE2	672.883	175.168	-621.581	O.co2	1	GLU1	-0.819	
10	   H	672.993	168.696	-624.216	 H	1	GLU1	0.294	
11	  HA	672.599	171.442	-625.136	 H	1	GLU1	0.111	
12	 2HB	672.691	171.178	-622.049	 H	1	GLU1	-0.017	
13	 3HB	671.295	171.699	-622.966	 H	1	GLU1	-0.017	
14	 2HG	672.567	173.779	-623.749	 H	1	GLU1	-0.043	
15	 3HG	673.977	173.261	-622.839	 H	1	GLU1	-0.043	
16	   N	675.039	170.098	-623.391	N.am	2	ASN2	-0.416	
17	  CA	676.498	170.060	-623.391	C.3	2	ASN2	0.014	
18	   C	677.030	169.704	-624.760	C.2	2	ASN2	0.597	
19	   O	677.944	170.335	-625.288	O.2	2	ASN2	-0.568	
20	  CB	676.990	169.037	-622.327	C.3	2	ASN2	-0.204	
21	  CG	676.527	169.261	-620.883	C.2	2	ASN2	0.713	
22	 ND2	677.122	170.176	-620.165	N.pl3	2	ASN2	-0.919	
23	 OD1	675.607	168.627	-620.389	O.2	2	ASN2	-0.593	
24	   H	674.511	169.519	-622.754	 H	2	ASN2	0.272	
25	  HA	676.876	171.070	-623.146	 H	2	ASN2	0.105	
26	 2HB	678.095	168.978	-622.330	 H	2	ASN2	0.080	
27	 3HB	676.661	168.019	-622.612	 H	2	ASN2	0.080	
28	1HD2	676.641	170.349	-619.279	 H	2	ASN2	0.420	
29	2HD2	677.823	170.747	-620.634	 H	2	ASN2	0.420	
30	   N	676.508	168.709	-625.394	N.am	3	PRO3	-0.255	
31	  CA	676.960	168.300	-626.715	C.3	3	PRO3	-0.027	
32	   C	676.562	169.324	-627.792	C.2	3	PRO3	0.590	
33	   O	677.385	169.707	-628.624	O.2	3	PRO3	-0.575	
34	  CB	676.256	166.945	-626.885	C.3	3	PRO3	-0.007	
35	  CG	674.973	167.097	-626.055	C.3	3	PRO3	0.019	
36	  CD	675.430	167.916	-624.845	C.3	3	PRO3	0.019	
37	  HA	678.046	168.180	-626.729	 H	3	PRO3	0.064	
38	 2HB	676.879	166.164	-626.444	 H	3	PRO3	0.025	
39	 3HB	676.058	166.697	-627.930	 H	3	PRO3	0.025	
40	 2HG	674.545	166.135	-625.764	 H	3	PRO3	0.021	
41	 3HG	674.235	167.668	-626.622	 H	3	PRO3	0.021	
42	 2HD	675.820	167.266	-624.057	 H	3	PRO3	0.039	
43	 3HD	674.634	168.552	-624.452	 H	3	PRO3	0.039	
44	   N	675.357	169.783	-627.825	N.am	4	GLU4	-0.516	
45	  CA	674.997	170.754	-628.854	C.3	4	GLU4	0.040	
46	   C	675.896	171.966	-628.793	C.2	4	GLU4	0.537	
47	   O	676.422	172.445	-629.808	O.2	4	GLU4	-0.582	
48	  CB	673.509	171.173	-628.684	C.3	4	GLU4	0.056	
49	  CG	672.961	172.176	-629.750	C.3	4	GLU4	0.014	
50	  CD	671.534	172.673	-629.606	C.2	4	GLU4	0.805	
51	 OE1	670.808	172.274	-628.675	O.co2	4	GLU4	-0.819	
52	 OE2	671.144	173.502	-630.455	O.co2	4	GLU4	-0.819	
53	   H	674.673	169.477	-627.148	 H	4	GLU4	0.294	
54	  HA	675.129	170.284	-629.845	 H	4	GLU4	0.111	
55	 2HB	673.356	171.613	-627.677	 H	4	GLU4	-0.017	
56	 3HB	672.861	170.275	-628.690	 H	4	GLU4	-0.017	
57	 2HG	673.042	171.761	-630.767	 H	4	GLU4	-0.043	
58	 3HG	673.548	173.109	-629.761	 H	4	GLU4	-0.043	
59	   N	676.123	172.519	-627.650	N.am	5	SER5	-0.416	
60	  CA	676.993	173.690	-627.591	C.3	5	SER5	-0.025	
61	   C	678.352	173.385	-628.177	C.2	5	SER5	0.597	
62	   O	678.899	174.138	-628.982	O.2	5	SER5	-0.568	
63	  CB	677.104	174.222	-626.141	C.3	5	SER5	0.212	
64	  OG	677.836	173.343	-625.280	O.3	5	SER5	-0.655	
65	   H	675.706	172.147	-626.808	 H	5	SER5	0.272	
66	  HA	676.543	174.480	-628.221	 H	5	SER5	0.084	
67	 2HB	676.104	174.416	-625.708	 H	5	SER5	0.035	
68	 3HB	677.609	175.208	-626.143	 H	5	SER5	0.035	
69	  HG	677.347	172.518	-625.229	 H	5	SER5	0.428	
70	   N	678.956	172.302	-627.823	N.am	6	ILE6	-0.416	
71	  CA	680.270	172.007	-628.389	C.3	6	ILE6	-0.060	
72	   C	680.213	171.969	-629.897	C.2	6	ILE6	0.597	
73	   O	681.047	172.557	-630.601	O.2	6	ILE6	-0.568	
74	  CB	680.870	170.671	-627.789	C.3	6	ILE6	0.130	
75	 CG1	680.889	170.609	-626.228	C.3	6	ILE6	-0.043	
76	 CG2	682.311	170.370	-628.304	C.3	6	ILE6	-0.320	
77	 CD1	681.159	169.220	-625.613	C.3	6	ILE6	-0.066	
78	   H	678.528	171.667	-627.164	 H	6	ILE6	0.272	
79	  HA	680.944	172.842	-628.121	 H	6	ILE6	0.087	
80	  HB	680.212	169.845	-628.133	 H	6	ILE6	0.019	
81	2HG1	679.907	170.929	-625.832	 H	6	ILE6	0.024	
82	3HG1	681.605	171.351	-625.823	 H	6	ILE6	0.024	
83	1HG2	682.370	170.276	-629.402	 H	6	ILE6	0.088	
84	2HG2	683.033	171.152	-628.002	 H	6	ILE6	0.088	
85	3HG2	682.702	169.408	-627.925	 H	6	ILE6	0.088	
86	1HD1	680.432	168.466	-625.967	 H	6	ILE6	0.019	
87	2HD1	682.170	168.841	-625.848	 H	6	ILE6	0.019	
88	3HD1	681.083	169.250	-624.510	 H	6	ILE6	0.019	
89	   N	679.267	171.306	-630.470	N.am	7	LEU7	-0.416	
90	  CA	679.212	171.269	-631.929	C.3	7	LEU7	-0.052	
91	   C	679.139	172.665	-632.501	C.2	7	LEU7	0.597	
92	   O	679.860	173.028	-633.443	O.2	7	LEU7	-0.568	
93	  CB	678.010	170.409	-632.409	C.3	7	LEU7	-0.110	
94	  CG	677.937	168.929	-631.943	C.3	7	LEU7	0.353	
95	 CD1	676.748	168.223	-632.609	C.3	7	LEU7	-0.412	
96	 CD2	679.231	168.151	-632.234	C.3	7	LEU7	-0.412	
97	   H	678.575	170.818	-629.919	 H	7	LEU7	0.272	
98	  HA	680.154	170.830	-632.303	 H	7	LEU7	0.092	
99	 2HB	677.986	170.425	-633.517	 H	7	LEU7	0.046	
100	 3HB	677.070	170.911	-632.105	 H	7	LEU7	0.046	
101	  HG	677.767	168.921	-630.846	 H	7	LEU7	-0.036	
102	1HD1	675.790	168.732	-632.386	 H	7	LEU7	0.100	
103	2HD1	676.847	168.183	-633.710	 H	7	LEU7	0.100	
104	3HD1	676.641	167.182	-632.253	 H	7	LEU7	0.100	
105	1HD2	679.506	168.181	-633.305	 H	7	LEU7	0.100	
106	2HD2	680.084	168.563	-631.663	 H	7	LEU7	0.100	
107	3HD2	679.150	167.088	-631.939	 H	7	LEU7	0.100	
108	   N	678.302	173.505	-631.995	N.am	8	ASP8	-0.516	
109	  CA	678.231	174.855	-632.548	C.3	8	ASP8	0.038	
110	   C	679.577	175.535	-632.491	C.2	8	ASP8	0.537	
111	   O	680.050	176.141	-633.465	O.2	8	ASP8	-0.582	
112	  CB	677.152	175.693	-631.806	C.3	8	ASP8	-0.030	
113	  CG	676.933	177.114	-632.346	C.2	8	ASP8	0.799	
114	 OD1	676.997	177.313	-633.577	O.co2	8	ASP8	-0.801	
115	 OD2	676.740	178.039	-631.531	O.co2	8	ASP8	-0.801	
116	   H	677.704	173.234	-631.227	 H	8	ASP8	0.294	
117	  HA	677.948	174.777	-633.615	 H	8	ASP8	0.088	
118	 2HB	677.409	175.776	-630.734	 H	8	ASP8	-0.012	
119	 3HB	676.173	175.188	-631.839	 H	8	ASP8	-0.012	
120	   N	680.257	175.485	-631.395	N.am	9	GLU9	-0.516	
121	  CA	681.559	176.143	-631.340	C.3	9	GLU9	0.040	
122	   C	682.478	175.616	-632.416	C.2	9	GLU9	0.537	
123	   O	683.141	176.371	-633.141	O.2	9	GLU9	-0.582	
124	  CB	682.193	175.936	-629.934	C.3	9	GLU9	0.056	
125	  CG	683.575	176.629	-629.705	C.3	9	GLU9	0.014	
126	  CD	684.277	176.416	-628.376	C.2	9	GLU9	0.805	
127	 OE1	683.755	175.724	-627.480	O.co2	9	GLU9	-0.819	
128	 OE2	685.396	176.954	-628.245	O.co2	9	GLU9	-0.819	
129	   H	679.894	174.999	-630.588	 H	9	GLU9	0.294	
130	  HA	681.417	177.225	-631.515	 H	9	GLU9	0.111	
131	 2HB	682.306	174.851	-629.731	 H	9	GLU9	-0.017	
132	 3HB	681.495	176.289	-629.150	 H	9	GLU9	-0.017	
133	 2HG	683.503	177.720	-629.844	 H	9	GLU9	-0.043	
134	 3HG	684.322	176.284	-630.439	 H	9	GLU9	-0.043	
135	   N	682.575	174.341	-632.585	N.am	10	HIS10	-0.416	
136	  CA	683.463	173.830	-633.626	C.3	10	HIS10	-0.058	
137	   C	683.096	174.395	-634.977	C.2	10	HIS10	0.597	
138	   O	683.948	174.860	-635.748	O.2	10	HIS10	-0.568	
139	  CB	683.300	172.301	-633.621	C.3	10	HIS10	-0.007	
140	  CG	684.586	171.592	-633.313	C.2	10	HIS10	0.187	
141	 CD2	684.966	171.256	-632.020	C.2	10	HIS10	-0.221	
142	 ND1	685.538	171.186	-634.245	N.2	10	HIS10	-0.543	
143	 CE1	686.445	170.628	-633.422	C.2	10	HIS10	0.163	
144	 NE2	686.181	170.625	-632.087	N.pl3	10	HIS10	-0.280	
145	   H	682.044	173.706	-632.007	 H	10	HIS10	0.272	
146	  HA	684.482	174.188	-633.400	 H	10	HIS10	0.136	
147	 2HB	682.935	171.934	-634.601	 H	10	HIS10	0.037	
148	 3HB	682.544	171.964	-632.881	 H	10	HIS10	0.037	
149	 2HD	684.380	171.471	-631.131	 H	10	HIS10	0.186	
150	 1HE	687.336	170.208	-633.868	 H	10	HIS10	0.144	
151	 2HE	686.748	170.248	-631.313	 H	10	HIS10	0.334	
152	   N	681.858	174.394	-635.340	N.am	11	VAL11	-0.416	
153	  CA	681.503	174.940	-636.646	C.3	11	VAL11	-0.087	
154	   C	681.967	176.371	-636.779	C.2	11	VAL11	0.597	
155	   O	682.568	176.776	-637.781	O.2	11	VAL11	-0.568	
156	  CB	679.942	174.832	-636.866	C.3	11	VAL11	0.299	
157	 CG1	679.373	175.536	-638.129	C.3	11	VAL11	-0.319	
158	 CG2	679.418	173.378	-636.940	C.3	11	VAL11	-0.319	
159	   H	681.146	174.020	-634.729	 H	11	VAL11	0.272	
160	  HA	682.023	174.358	-637.429	 H	11	VAL11	0.097	
161	  HB	679.454	175.312	-635.991	 H	11	VAL11	-0.030	
162	1HG1	679.812	175.145	-639.066	 H	11	VAL11	0.079	
163	2HG1	678.274	175.429	-638.211	 H	11	VAL11	0.079	
164	3HG1	679.551	176.629	-638.119	 H	11	VAL11	0.079	
165	1HG2	679.708	172.791	-636.049	 H	11	VAL11	0.079	
166	2HG2	678.312	173.340	-636.982	 H	11	VAL11	0.079	
167	3HG2	679.800	172.838	-637.826	 H	11	VAL11	0.079	
168	   N	681.729	177.196	-635.816	N.am	12	GLN12	-0.416	
169	  CA	682.177	178.579	-635.943	C.3	12	GLN12	-0.003	
170	   C	683.667	178.647	-636.181	C.2	12	GLN12	0.597	
171	   O	684.154	179.356	-637.059	O.2	12	GLN12	-0.568	
172	  CB	681.786	179.346	-634.660	C.3	12	GLN12	-0.004	
173	  CG	682.145	180.868	-634.629	C.3	12	GLN12	-0.064	
174	  CD	681.842	181.681	-633.364	C.2	12	GLN12	0.695	
175	 NE2	681.275	181.105	-632.335	N.pl3	12	GLN12	-0.941	
176	 OE1	682.143	182.863	-633.287	O.2	12	GLN12	-0.609	
177	   H	681.241	176.890	-634.987	 H	12	GLN12	0.272	
178	  HA	681.678	179.035	-636.818	 H	12	GLN12	0.085	
179	 2HB	682.262	178.846	-633.791	 H	12	GLN12	0.017	
180	 3HB	680.695	179.238	-634.497	 H	12	GLN12	0.017	
181	 2HG	681.668	181.389	-635.480	 H	12	GLN12	0.035	
182	 3HG	683.229	181.011	-634.795	 H	12	GLN12	0.035	
183	1HE2	681.168	181.699	-631.512	 H	12	GLN12	0.425	
184	2HE2	681.112	180.101	-632.439	 H	12	GLN12	0.425	
185	   N	684.452	177.941	-635.440	N.am	13	ARG13	-0.348	
186	  CA	685.892	178.007	-635.670	C.3	13	ARG13	-0.264	
187	   C	686.229	177.636	-637.095	C.2	13	ARG13	0.734	
188	   O	686.997	178.309	-637.779	O.2	13	ARG13	-0.589	
189	  CB	686.606	177.068	-634.657	C.3	13	ARG13	-0.001	
190	  CG	688.151	177.222	-634.575	C.3	13	ARG13	0.039	
191	  CD	688.778	176.235	-633.578	C.3	13	ARG13	0.049	
192	  NE	690.255	176.442	-633.527	N.pl3	13	ARG13	-0.530	
193	  CZ	691.103	175.751	-632.772	C.cat	13	ARG13	0.808	
194	 NH1	690.739	174.786	-631.975	N.pl3	13	ARG13	-0.863	
195	 NH2	692.363	176.051	-632.829	N.pl3	13	ARG13	-0.863	
196	   H	684.076	177.351	-634.712	 H	13	ARG13	0.275	
197	  HA	686.216	179.053	-635.512	 H	13	ARG13	0.156	
198	 2HB	686.340	176.018	-634.896	 H	13	ARG13	0.033	
199	 3HB	686.180	177.235	-633.646	 H	13	ARG13	0.033	
200	 2HG	688.398	178.267	-634.296	 H	13	ARG13	0.029	
201	 3HG	688.601	177.067	-635.577	 H	13	ARG13	0.029	
202	 2HD	688.534	175.194	-633.887	 H	13	ARG13	0.069	
203	 3HD	688.321	176.380	-632.575	 H	13	ARG13	0.069	
204	  HE	690.706	177.165	-634.097	 H	13	ARG13	0.346	
205	1HH1	689.733	174.600	-631.978	 H	13	ARG13	0.448	
206	2HH1	691.452	174.303	-631.426	 H	13	ARG13	0.448	
207	1HH2	692.630	176.809	-633.459	 H	13	ARG13	0.448	
208	2HH2	692.998	175.509	-632.240	 H	13	ARG13	0.448	
209	   N	685.693	176.582	-637.610	N.am	14	VAL14	-0.416	
210	  CA	686.018	176.223	-638.988	C.3	14	VAL14	-0.087	
211	   C	685.688	177.353	-639.933	C.2	14	VAL14	0.597	
212	   O	686.482	177.735	-640.802	O.2	14	VAL14	-0.568	
213	  CB	685.247	174.905	-639.395	C.3	14	VAL14	0.299	
214	 CG1	685.336	174.488	-640.889	C.3	14	VAL14	-0.319	
215	 CG2	685.679	173.653	-638.595	C.3	14	VAL14	-0.319	
216	   H	685.059	176.013	-637.069	 H	14	VAL14	0.272	
217	  HA	687.107	176.047	-639.062	 H	14	VAL14	0.097	
218	  HB	684.170	175.076	-639.179	 H	14	VAL14	-0.030	
219	1HG1	686.378	174.311	-641.217	 H	14	VAL14	0.079	
220	2HG1	684.764	173.564	-641.102	 H	14	VAL14	0.079	
221	3HG1	684.907	175.250	-641.567	 H	14	VAL14	0.079	
222	1HG2	685.592	173.811	-637.504	 H	14	VAL14	0.079	
223	2HG2	685.044	172.777	-638.828	 H	14	VAL14	0.079	
224	3HG2	686.727	173.364	-638.800	 H	14	VAL14	0.079	
225	   N	684.543	177.938	-639.831	N.am	15	MET15	-0.416	
226	  CA	684.222	179.031	-640.745	C.3	15	MET15	-0.024	
227	   C	685.252	180.131	-640.657	C.2	15	MET15	0.597	
228	   O	685.755	180.642	-641.669	O.2	15	MET15	-0.568	
229	  CB	682.801	179.576	-640.436	C.3	15	MET15	0.034	
230	  CG	681.639	178.577	-640.628	C.3	15	MET15	0.002	
231	  SD	680.065	179.443	-640.514	S.3	15	MET15	-0.274	
232	  CE	678.984	178.012	-640.378	C.3	15	MET15	-0.054	
233	   H	683.878	177.645	-639.130	 H	15	MET15	0.272	
234	  HA	684.248	178.644	-641.781	 H	15	MET15	0.088	
235	 2HB	682.598	180.455	-641.078	 H	15	MET15	0.024	
236	 3HB	682.765	179.968	-639.400	 H	15	MET15	0.024	
237	 2HG	681.682	177.791	-639.851	 H	15	MET15	0.044	
238	 3HG	681.702	178.062	-641.605	 H	15	MET15	0.044	
239	 1HE	679.128	177.324	-641.231	 H	15	MET15	0.068	
240	 2HE	679.193	177.460	-639.445	 H	15	MET15	0.068	
241	 3HE	677.926	178.327	-640.362	 H	15	MET15	0.068	
242	   N	685.620	180.552	-639.494	N.am	16	ARG16	-0.348	
243	  CA	686.616	181.617	-639.410	C.3	16	ARG16	-0.264	
244	   C	687.887	181.224	-640.127	C.2	16	ARG16	0.734	
245	   O	688.002	180.148	-640.708	O.2	16	ARG16	-0.589	
246	  CB	686.885	181.935	-637.912	C.3	16	ARG16	-0.001	
247	  CG	687.710	183.224	-637.639	C.3	16	ARG16	0.039	
248	  CD	687.959	183.443	-636.138	C.3	16	ARG16	0.049	
249	  NE	688.735	184.702	-635.936	N.pl3	16	ARG16	-0.530	
250	  CZ	689.126	185.185	-634.761	C.cat	16	ARG16	0.808	
251	 NH1	688.878	184.600	-633.622	N.pl3	16	ARG16	-0.863	
252	 NH2	689.789	186.298	-634.742	N.pl3	16	ARG16	-0.863	
253	   H	685.226	180.152	-638.655	 H	16	ARG16	0.275	
254	  HA	686.207	182.509	-639.920	 H	16	ARG16	0.156	
255	 2HB	687.382	181.059	-637.446	 H	16	ARG16	0.033	
256	 3HB	685.916	182.015	-637.378	 H	16	ARG16	0.033	
257	 2HG	687.179	184.095	-638.076	 H	16	ARG16	0.029	
258	 3HG	688.683	183.171	-638.168	 H	16	ARG16	0.029	
259	 2HD	688.508	182.569	-635.724	 H	16	ARG16	0.069	
260	 3HD	686.986	183.485	-635.603	 H	16	ARG16	0.069	
261	  HE	689.013	185.284	-636.734	 H	16	ARG16	0.346	
262	1HH1	688.353	183.727	-633.707	 H	16	ARG16	0.448	
263	2HH1	689.212	185.036	-632.761	 H	16	ARG16	0.448	
264	1HH2	689.975	186.741	-635.644	 H	16	ARG16	0.448	
265	2HH2	690.079	186.653	-633.830	 H	16	ARG16	0.448	
@<TRIPOS>BOND
1 1 2 1
2 1 10 1
3 2 3 1
4 2 5 1
5 2 11 1
6 3 4 2
7 3 16 1
8 5 6 1
9 6 7 1
10 7 8 2
11 7 9 1
12 5 12 1
13 5 13 1
14 6 14 1
15 6 15 1
16 16 17 1
17 16 24 1
18 17 18 1
19 17 20 1
20 17 25 1
21 18 19 2
22 18 30 1
23 20 21 1
24 21 22 1
25 21 23 2
26 20 26 1
27 20 27 1
28 22 28 1
29 22 29 1
30 30 31 1
31 30 36 1
32 31 32 1
33 31 34 1
34 31 37 1
35 32 33 2
36 32 44 1
37 34 35 1
38 35 36 1
39 34 38 1
40 34 39 1
41 35 40 1
42 35 41 1
43 36 42 1
44 36 43 1
45 44 45 1
46 44 53 1
47 45 46 1
48 45 48 1
49 45 54 1
50 46 47 2
51 46 59 1
52 48 49 1
53 49 50 1
54 50 51 2
55 50 52 1
56 48 55 1
57 48 56 1
58 49 57 1
59 49 58 1
60 59 60 1
61 59 65 1
62 60 61 1
63 60 63 1
64 60 66 1
65 61 62 2
66 61 70 1
67 63 64 1
68 63 67 1
69 63 68 1
70 64 69 1
71 70 71 1
72 70 78 1
73 71 72 1
74 71 74 1
75 71 79 1
76 72 73 2
77 72 89 1
78 74 75 1
79 74 76 1
80 75 77 1
81 74 80 1
82 75 81 1
83 75 82 1
84 76 83 1
85 76 84 1
86 76 85 1
87 77 86 1
88 77 87 1
89 77 88 1
90 89 90 1
91 89 97 1
92 90 91 1
93 90 93 1
94 90 98 1
95 91 92 2
96 91 108 1
97 93 94 1
98 94 95 1
99 94 96 1
100 93 99 1
101 93 100 1
102 94 101 1
103 95 102 1
104 95 103 1
105 95 104 1
106 96 105 1
107 96 106 1
108 96 107 1
109 108 109 1
110 108 116 1
111 109 110 1
112 109 112 1
113 109 117 1
114 110 111 2
115 110 120 1
116 112 113 1
117 113 114 2
118 113 115 1
119 112 118 1
120 112 119 1
121 120 121 1
122 120 129 1
123 121 122 1
124 121 124 1
125 121 130 1
126 122 123 2
127 122 135 1
128 124 125 1
129 125 126 1
130 126 127 2
131 126 128 1
132 124 131 1
133 124 132 1
134 125 133 1
135 125 134 1
136 135 136 1
137 135 145 1
138 136 137 1
139 136 139 1
140 136 146 1
141 137 138 2
142 137 152 1
143 139 140 1
144 140 141 2
145 141 144 1
146 140 142 1
147 142 143 2
148 143 144 1
149 139 147 1
150 139 148 1
151 141 149 1
152 143 150 1
153 144 151 1
154 152 153 1
155 152 159 1
156 153 154 1
157 153 156 1
158 153 160 1
159 154 155 2
160 154 168 1
161 156 157 1
162 156 158 1
163 156 161 1
164 157 162 1
165 157 163 1
166 157 164 1
167 158 165 1
168 158 166 1
169 158 167 1
170 168 169 1
171 168 177 1
172 169 170 1
173 169 172 1
174 169 178 1
175 170 171 2
176 170 185 1
177 172 173 1
178 173 174 1
179 174 175 1
180 174 176 2
181 172 179 1
182 172 180 1
183 173 181 1
184 173 182 1
185 175 183 1
186 175 184 1
187 185 186 1
188 185 196 1
189 186 187 1
190 186 189 1
191 186 197 1
192 187 188 2
193 187 209 1
194 189 190 1
195 190 191 1
196 191 192 1
197 192 193 1
198 193 194 2
199 193 195 1
200 189 198 1
201 189 199 1
202 190 200 1
203 190 201 1
204 191 202 1
205 191 203 1
206 192 204 1
207 194 205 1
208 194 206 1
209 195 207 1
210 195 208 1
211 209 210 1
212 209 216 1
213 210 211 1
214 210 213 1
215 210 217 1
216 211 212 2
217 211 225 1
218 213 214 1
219 213 215 1
220 213 218 1
221 214 219 1
222 214 220 1
223 214 221 1
224 215 222 1
225 215 223 1
226 215 224 1
227 225 226 1
228 225 233 1
229 226 227 1
230 226 229 1
231 226 234 1
232 227 228 2
233 227 242 1
234 229 230 1
235 230 231 1
236 231 232 1
237 229 235 1
238 229 236 1
239 230 237 1
240 230 238 1
241 232 239 1
242 232 240 1
243 232 241 1
244 242 243 1
245 242 253 1
246 243 244 1
247 243 246 1
248 243 254 1
249 244 245 2
250 246 247 1
251 247 248 1
252 248 249 1
253 249 250 1
254 250 251 2
255 250 252 1
256 246 255 1
257 246 256 1
258 247 257 1
259 247 258 1
260 248 259 1
261 248 260 1
262 249 261 1
263 251 262 1
264 251 263 1
265 252 264 1
266 252 265 1
@<TRIPOS>SUBSTRUCTURE
1	GLU1	1	RESIDUE	1 ****	GLU
2	ASN2	16	RESIDUE	1 ****	ASN
3	PRO3	30	RESIDUE	1 ****	PRO
4	GLU4	44	RESIDUE	1 ****	GLU
5	SER5	59	RESIDUE	1 ****	SER
6	ILE6	70	RESIDUE	1 ****	ILE
7	LEU7	89	RESIDUE	1 ****	LEU
8	ASP8	108	RESIDUE	1 ****	ASP
9	GLU9	120	RESIDUE	1 ****	GLU
10	HIS10	135	RESIDUE	1 ****	HIS
11	VAL11	152	RESIDUE	1 ****	VAL
12	GLN12	168	RESIDUE	1 ****	GLN
13	ARG13	185	RESIDUE	1 ****	ARG
14	VAL14	209	RESIDUE	1 ****	VAL
15	MET15	225	RESIDUE	1 ****	MET
16	ARG16	242	RESIDUE	1 ****	ARG
