@<TRIPOS>MOLECULE
8-15
267 268 16              
SMALL
USER_CHARGES
@<TRIPOS>ATOM
1	   N	1304.060	378.263	-1306.932	N.3	1	GLU1	-0.516	
2	  CA	1304.619	379.612	-1306.932	C.3	1	GLU1	0.040	
3	   C	1306.128	379.572	-1306.932	C.2	1	GLU1	0.537	
4	   O	1306.803	380.271	-1307.701	O.2	1	GLU1	-0.582	
5	  CB	1304.096	380.397	-1305.695	C.3	1	GLU1	0.056	
6	  CG	1304.571	381.882	-1305.584	C.3	1	GLU1	0.014	
7	  CD	1304.147	382.686	-1304.369	C.2	1	GLU1	0.805	
8	 OE1	1303.419	382.184	-1303.491	O.co2	1	GLU1	-0.819	
9	 OE2	1304.577	383.856	-1304.297	O.co2	1	GLU1	-0.819	
10	   H	1304.687	377.384	-1306.932	 H	1	GLU1	0.294	
11	  HA	1304.293	380.130	-1307.852	 H	1	GLU1	0.111	
12	 2HB	1304.385	379.866	-1304.765	 H	1	GLU1	-0.017	
13	 3HB	1302.989	380.387	-1305.682	 H	1	GLU1	-0.017	
14	 2HG	1304.261	382.467	-1306.465	 H	1	GLU1	-0.043	
15	 3HG	1305.671	381.949	-1305.555	 H	1	GLU1	-0.043	
16	   N	1306.732	378.786	-1306.107	N.am	2	ASN2	-0.416	
17	  CA	1308.192	378.748	-1306.107	C.3	2	ASN2	0.014	
18	   C	1308.723	378.392	-1307.476	C.2	2	ASN2	0.597	
19	   O	1309.637	379.023	-1308.005	O.2	2	ASN2	-0.568	
20	  CB	1308.683	377.725	-1305.043	C.3	2	ASN2	-0.204	
21	  CG	1308.221	377.949	-1303.599	C.2	2	ASN2	0.713	
22	 ND2	1308.815	378.864	-1302.881	N.pl3	2	ASN2	-0.919	
23	 OD1	1307.300	377.315	-1303.105	O.2	2	ASN2	-0.593	
24	   H	1306.204	378.207	-1305.471	 H	2	ASN2	0.272	
25	  HA	1308.569	379.758	-1305.862	 H	2	ASN2	0.105	
26	 2HB	1309.788	377.666	-1305.046	 H	2	ASN2	0.080	
27	 3HB	1308.355	376.707	-1305.328	 H	2	ASN2	0.080	
28	1HD2	1308.334	379.037	-1301.995	 H	2	ASN2	0.420	
29	2HD2	1309.516	379.435	-1303.351	 H	2	ASN2	0.420	
30	   N	1308.201	377.397	-1308.110	N.am	3	PRO3	-0.255	
31	  CA	1308.653	376.988	-1309.431	C.3	3	PRO3	-0.027	
32	   C	1308.255	378.011	-1310.508	C.2	3	PRO3	0.590	
33	   O	1309.078	378.395	-1311.340	O.2	3	PRO3	-0.575	
34	  CB	1307.949	375.633	-1309.601	C.3	3	PRO3	-0.007	
35	  CG	1306.666	375.785	-1308.771	C.3	3	PRO3	0.019	
36	  CD	1307.123	376.604	-1307.561	C.3	3	PRO3	0.019	
37	  HA	1309.739	376.868	-1309.445	 H	3	PRO3	0.064	
38	 2HB	1308.572	374.852	-1309.160	 H	3	PRO3	0.025	
39	 3HB	1307.751	375.385	-1310.646	 H	3	PRO3	0.025	
40	 2HG	1306.238	374.823	-1308.479	 H	3	PRO3	0.021	
41	 3HG	1305.928	376.356	-1309.338	 H	3	PRO3	0.021	
42	 2HD	1307.513	375.955	-1306.773	 H	3	PRO3	0.039	
43	 3HD	1306.327	377.240	-1307.168	 H	3	PRO3	0.039	
44	   N	1307.050	378.471	-1310.541	N.am	4	GLU4	-0.516	
45	  CA	1306.690	379.442	-1311.570	C.3	4	GLU4	0.040	
46	   C	1307.589	380.654	-1311.509	C.2	4	GLU4	0.537	
47	   O	1308.115	381.133	-1312.523	O.2	4	GLU4	-0.582	
48	  CB	1305.202	379.861	-1311.400	C.3	4	GLU4	0.056	
49	  CG	1304.653	380.865	-1312.465	C.3	4	GLU4	0.014	
50	  CD	1303.227	381.361	-1312.321	C.2	4	GLU4	0.805	
51	 OE1	1302.501	380.963	-1311.390	O.co2	4	GLU4	-0.819	
52	 OE2	1302.837	382.191	-1313.169	O.co2	4	GLU4	-0.819	
53	   H	1306.366	378.165	-1309.864	 H	4	GLU4	0.294	
54	  HA	1306.821	378.972	-1312.561	 H	4	GLU4	0.111	
55	 2HB	1305.049	380.301	-1310.393	 H	4	GLU4	-0.017	
56	 3HB	1304.554	378.963	-1311.406	 H	4	GLU4	-0.017	
57	 2HG	1304.735	380.450	-1313.483	 H	4	GLU4	-0.043	
58	 3HG	1305.241	381.797	-1312.476	 H	4	GLU4	-0.043	
59	   N	1307.817	381.206	-1310.366	N.am	5	SER5	-0.416	
60	  CA	1308.686	382.378	-1310.307	C.3	5	SER5	-0.025	
61	   C	1310.045	382.072	-1310.893	C.2	5	SER5	0.597	
62	   O	1310.592	382.826	-1311.698	O.2	5	SER5	-0.568	
63	  CB	1308.798	382.910	-1308.857	C.3	5	SER5	0.212	
64	  OG	1309.530	382.030	-1307.996	O.3	5	SER5	-0.655	
65	   H	1307.400	380.835	-1309.524	 H	5	SER5	0.272	
66	  HA	1308.236	383.168	-1310.936	 H	5	SER5	0.084	
67	 2HB	1307.798	383.103	-1308.423	 H	5	SER5	0.035	
68	 3HB	1309.303	383.896	-1308.859	 H	5	SER5	0.035	
69	  HG	1309.041	381.205	-1307.945	 H	5	SER5	0.428	
70	   N	1310.650	380.989	-1310.539	N.am	6	ILE6	-0.416	
71	  CA	1311.963	380.695	-1311.106	C.3	6	ILE6	-0.060	
72	   C	1311.905	380.657	-1312.613	C.2	6	ILE6	0.597	
73	   O	1312.740	381.245	-1313.317	O.2	6	ILE6	-0.568	
74	  CB	1312.562	379.358	-1310.506	C.3	6	ILE6	0.130	
75	 CG1	1312.582	379.296	-1308.945	C.3	6	ILE6	-0.043	
76	 CG2	1314.004	379.057	-1311.021	C.3	6	ILE6	-0.320	
77	 CD1	1312.852	377.907	-1308.330	C.3	6	ILE6	-0.066	
78	   H	1310.221	380.355	-1309.880	 H	6	ILE6	0.272	
79	  HA	1312.637	381.529	-1310.838	 H	6	ILE6	0.087	
80	  HB	1311.905	378.532	-1310.850	 H	6	ILE6	0.019	
81	2HG1	1311.600	379.616	-1308.549	 H	6	ILE6	0.024	
82	3HG1	1313.298	380.038	-1308.540	 H	6	ILE6	0.024	
83	1HG2	1314.062	378.963	-1312.120	 H	6	ILE6	0.088	
84	2HG2	1314.726	379.839	-1310.719	 H	6	ILE6	0.088	
85	3HG2	1314.394	378.095	-1310.643	 H	6	ILE6	0.088	
86	1HD1	1312.124	377.153	-1308.685	 H	6	ILE6	0.019	
87	2HD1	1313.863	377.528	-1308.566	 H	6	ILE6	0.019	
88	3HD1	1312.776	377.937	-1307.227	 H	6	ILE6	0.019	
89	   N	1310.959	379.994	-1313.187	N.am	7	LEU7	-0.416	
90	  CA	1310.904	379.958	-1314.646	C.3	7	LEU7	-0.052	
91	   C	1310.832	381.353	-1315.218	C.2	7	LEU7	0.597	
92	   O	1311.552	381.716	-1316.160	O.2	7	LEU7	-0.568	
93	  CB	1309.701	379.098	-1315.126	C.3	7	LEU7	-0.110	
94	  CG	1309.629	377.618	-1314.660	C.3	7	LEU7	0.353	
95	 CD1	1308.439	376.912	-1315.325	C.3	7	LEU7	-0.412	
96	 CD2	1310.922	376.839	-1314.952	C.3	7	LEU7	-0.412	
97	   H	1310.267	379.507	-1312.636	 H	7	LEU7	0.272	
98	  HA	1311.846	379.518	-1315.020	 H	7	LEU7	0.092	
99	 2HB	1309.678	379.114	-1316.233	 H	7	LEU7	0.046	
100	 3HB	1308.761	379.600	-1314.822	 H	7	LEU7	0.046	
101	  HG	1309.459	377.610	-1313.563	 H	7	LEU7	-0.036	
102	1HD1	1307.481	377.422	-1315.103	 H	7	LEU7	0.100	
103	2HD1	1308.538	376.872	-1316.426	 H	7	LEU7	0.100	
104	3HD1	1308.332	375.871	-1314.969	 H	7	LEU7	0.100	
105	1HD2	1311.197	376.870	-1316.021	 H	7	LEU7	0.100	
106	2HD2	1311.776	377.251	-1314.380	 H	7	LEU7	0.100	
107	3HD2	1310.841	375.777	-1314.656	 H	7	LEU7	0.100	
108	   N	1309.995	382.194	-1314.711	N.am	8	ASN8	-0.416	
109	  CA	1309.924	383.543	-1315.264	C.3	8	ASN8	0.014	
110	   C	1311.273	384.222	-1315.206	C.2	8	ASN8	0.597	
111	   O	1311.743	384.822	-1316.172	O.2	8	ASN8	-0.568	
112	  CB	1308.859	384.368	-1314.487	C.3	8	ASN8	-0.204	
113	  CG	1307.435	383.802	-1314.449	C.2	8	ASN8	0.713	
114	 ND2	1306.670	383.949	-1315.497	N.pl3	8	ASN8	-0.919	
115	 OD1	1307.000	383.200	-1313.479	O.2	8	ASN8	-0.593	
116	   H	1309.397	381.923	-1313.944	 H	8	ASN8	0.272	
117	  HA	1309.640	383.470	-1316.330	 H	8	ASN8	0.105	
118	 2HB	1308.810	385.401	-1314.878	 H	8	ASN8	0.080	
119	 3HB	1309.181	384.490	-1313.434	 H	8	ASN8	0.080	
120	1HD2	1305.805	383.408	-1315.427	 H	8	ASN8	0.420	
121	2HD2	1307.093	384.376	-1316.321	 H	8	ASN8	0.420	
122	   N	1311.952	384.171	-1314.111	N.am	9	GLU9	-0.516	
123	  CA	1313.255	384.827	-1314.055	C.3	9	GLU9	0.040	
124	   C	1314.173	384.298	-1315.130	C.2	9	GLU9	0.537	
125	   O	1314.839	385.052	-1315.855	O.2	9	GLU9	-0.582	
126	  CB	1313.888	384.618	-1312.649	C.3	9	GLU9	0.056	
127	  CG	1315.271	385.308	-1312.419	C.3	9	GLU9	0.014	
128	  CD	1315.972	385.094	-1311.090	C.2	9	GLU9	0.805	
129	 OE1	1315.449	384.404	-1310.194	O.co2	9	GLU9	-0.819	
130	 OE2	1317.092	385.630	-1310.958	O.co2	9	GLU9	-0.819	
131	   H	1311.587	383.685	-1313.304	 H	9	GLU9	0.294	
132	  HA	1313.115	385.909	-1314.230	 H	9	GLU9	0.111	
133	 2HB	1313.999	383.533	-1312.446	 H	9	GLU9	-0.017	
134	 3HB	1313.191	384.972	-1311.865	 H	9	GLU9	-0.017	
135	 2HG	1315.201	386.399	-1312.558	 H	9	GLU9	-0.043	
136	 3HG	1316.018	384.963	-1313.152	 H	9	GLU9	-0.043	
137	   N	1314.268	383.023	-1315.300	N.am	10	HIS10	-0.416	
138	  CA	1315.156	382.511	-1316.340	C.3	10	HIS10	-0.058	
139	   C	1314.791	383.076	-1317.691	C.2	10	HIS10	0.597	
140	   O	1315.645	383.540	-1318.462	O.2	10	HIS10	-0.568	
141	  CB	1314.990	380.982	-1316.335	C.3	10	HIS10	-0.007	
142	  CG	1316.275	380.270	-1316.026	C.2	10	HIS10	0.187	
143	 CD2	1316.654	379.934	-1314.733	C.2	10	HIS10	-0.221	
144	 ND1	1317.226	379.863	-1316.958	N.2	10	HIS10	-0.543	
145	 CE1	1318.132	379.303	-1316.134	C.2	10	HIS10	0.163	
146	 NE2	1317.868	379.301	-1314.799	N.pl3	10	HIS10	-0.280	
147	   H	1313.736	382.388	-1314.722	 H	10	HIS10	0.272	
148	  HA	1316.176	382.866	-1316.114	 H	10	HIS10	0.136	
149	 2HB	1314.625	380.615	-1317.315	 H	10	HIS10	0.037	
150	 3HB	1314.233	380.646	-1315.596	 H	10	HIS10	0.037	
151	 2HD	1316.068	380.150	-1313.845	 H	10	HIS10	0.186	
152	 1HE	1319.022	378.881	-1316.581	 H	10	HIS10	0.144	
153	 2HE	1318.434	378.922	-1314.026	 H	10	HIS10	0.334	
154	   N	1313.553	383.077	-1318.055	N.am	11	VAL11	-0.416	
155	  CA	1313.200	383.623	-1319.362	C.3	11	VAL11	-0.087	
156	   C	1313.666	385.053	-1319.494	C.2	11	VAL11	0.597	
157	   O	1314.269	385.458	-1320.496	O.2	11	VAL11	-0.568	
158	  CB	1311.639	383.519	-1319.583	C.3	11	VAL11	0.299	
159	 CG1	1311.072	384.224	-1320.845	C.3	11	VAL11	-0.319	
160	 CG2	1311.112	382.065	-1319.656	C.3	11	VAL11	-0.319	
161	   H	1312.839	382.704	-1317.445	 H	11	VAL11	0.272	
162	  HA	1313.719	383.040	-1320.144	 H	11	VAL11	0.097	
163	  HB	1311.151	383.999	-1318.708	 H	11	VAL11	-0.030	
164	1HG1	1311.511	383.832	-1321.782	 H	11	VAL11	0.079	
165	2HG1	1309.973	384.118	-1320.928	 H	11	VAL11	0.079	
166	3HG1	1311.252	385.316	-1320.836	 H	11	VAL11	0.079	
167	1HG2	1311.401	381.478	-1318.766	 H	11	VAL11	0.079	
168	2HG2	1310.006	382.030	-1319.700	 H	11	VAL11	0.079	
169	3HG2	1311.494	381.524	-1320.543	 H	11	VAL11	0.079	
170	   N	1313.430	385.879	-1318.531	N.am	12	GLN12	-0.416	
171	  CA	1313.880	387.262	-1318.658	C.3	12	GLN12	-0.003	
172	   C	1315.370	387.327	-1318.894	C.2	12	GLN12	0.597	
173	   O	1315.859	388.035	-1319.772	O.2	12	GLN12	-0.568	
174	  CB	1313.489	388.029	-1317.375	C.3	12	GLN12	-0.004	
175	  CG	1313.851	389.551	-1317.344	C.3	12	GLN12	-0.064	
176	  CD	1313.548	390.364	-1316.079	C.2	12	GLN12	0.695	
177	 NE2	1312.980	389.788	-1315.050	N.pl3	12	GLN12	-0.941	
178	 OE1	1313.852	391.545	-1316.001	O.2	12	GLN12	-0.609	
179	   H	1312.940	385.574	-1317.703	 H	12	GLN12	0.272	
180	  HA	1313.382	387.719	-1319.533	 H	12	GLN12	0.085	
181	 2HB	1313.964	387.528	-1316.506	 H	12	GLN12	0.017	
182	 3HB	1312.398	387.923	-1317.213	 H	12	GLN12	0.017	
183	 2HG	1313.375	390.072	-1318.194	 H	12	GLN12	0.035	
184	 3HG	1314.935	389.692	-1317.508	 H	12	GLN12	0.035	
185	1HE2	1312.873	390.383	-1314.227	 H	12	GLN12	0.425	
186	2HE2	1312.815	388.785	-1315.154	 H	12	GLN12	0.425	
187	   N	1316.153	386.619	-1318.153	N.am	13	ARG13	-0.348	
188	  CA	1317.594	386.684	-1318.383	C.3	13	ARG13	-0.264	
189	   C	1317.931	386.312	-1319.807	C.2	13	ARG13	0.734	
190	   O	1318.700	386.983	-1320.491	O.2	13	ARG13	-0.589	
191	  CB	1318.305	385.743	-1317.369	C.3	13	ARG13	-0.001	
192	  CG	1319.850	385.894	-1317.286	C.3	13	ARG13	0.039	
193	  CD	1320.475	384.905	-1316.289	C.3	13	ARG13	0.049	
194	  NE	1321.953	385.111	-1316.237	N.pl3	13	ARG13	-0.530	
195	  CZ	1322.799	384.418	-1315.481	C.cat	13	ARG13	0.808	
196	 NH1	1322.432	383.453	-1314.685	N.pl3	13	ARG13	-0.863	
197	 NH2	1324.059	384.715	-1315.537	N.pl3	13	ARG13	-0.863	
198	   H	1315.776	386.030	-1317.425	 H	13	ARG13	0.275	
199	  HA	1317.919	387.729	-1318.224	 H	13	ARG13	0.156	
200	 2HB	1318.038	384.693	-1317.608	 H	13	ARG13	0.033	
201	 3HB	1317.879	385.910	-1316.358	 H	13	ARG13	0.033	
202	 2HG	1320.099	386.939	-1317.006	 H	13	ARG13	0.029	
203	 3HG	1320.301	385.738	-1318.287	 H	13	ARG13	0.029	
204	 2HD	1320.230	383.866	-1316.598	 H	13	ARG13	0.069	
205	 3HD	1320.018	385.051	-1315.286	 H	13	ARG13	0.069	
206	  HE	1322.405	385.832	-1316.807	 H	13	ARG13	0.346	
207	1HH1	1321.427	383.269	-1314.689	 H	13	ARG13	0.448	
208	2HH1	1323.144	382.969	-1314.135	 H	13	ARG13	0.448	
209	1HH2	1324.328	385.473	-1316.168	 H	13	ARG13	0.448	
210	2HH2	1324.693	384.173	-1314.948	 H	13	ARG13	0.448	
211	   N	1317.393	385.258	-1320.323	N.am	14	VAL14	-0.416	
212	  CA	1317.719	384.899	-1321.700	C.3	14	VAL14	-0.087	
213	   C	1317.391	386.030	-1322.646	C.2	14	VAL14	0.597	
214	   O	1318.185	386.411	-1323.514	O.2	14	VAL14	-0.568	
215	  CB	1316.945	383.583	-1322.108	C.3	14	VAL14	0.299	
216	 CG1	1317.035	383.165	-1323.601	C.3	14	VAL14	-0.319	
217	 CG2	1317.375	382.330	-1321.308	C.3	14	VAL14	-0.319	
218	   H	1316.757	384.690	-1319.781	 H	14	VAL14	0.272	
219	  HA	1318.807	384.721	-1321.774	 H	14	VAL14	0.097	
220	  HB	1315.869	383.755	-1321.892	 H	14	VAL14	-0.030	
221	1HG1	1318.076	382.987	-1323.930	 H	14	VAL14	0.079	
222	2HG1	1316.461	382.243	-1323.815	 H	14	VAL14	0.079	
223	3HG1	1316.607	383.928	-1324.280	 H	14	VAL14	0.079	
224	1HG2	1317.287	382.488	-1320.217	 H	14	VAL14	0.079	
225	2HG2	1316.738	381.454	-1321.541	 H	14	VAL14	0.079	
226	3HG2	1318.423	382.039	-1321.512	 H	14	VAL14	0.079	
227	   N	1316.247	386.617	-1322.544	N.am	15	MET15	-0.416	
228	  CA	1315.928	387.710	-1323.458	C.3	15	MET15	-0.024	
229	   C	1316.960	388.809	-1323.369	C.2	15	MET15	0.597	
230	   O	1317.464	389.319	-1324.381	O.2	15	MET15	-0.568	
231	  CB	1314.507	388.257	-1323.150	C.3	15	MET15	0.034	
232	  CG	1313.344	387.261	-1323.343	C.3	15	MET15	0.002	
233	  SD	1311.771	388.129	-1323.229	S.3	15	MET15	-0.274	
234	  CE	1310.688	386.700	-1323.094	C.3	15	MET15	-0.054	
235	   H	1315.581	386.325	-1321.843	 H	15	MET15	0.272	
236	  HA	1315.954	387.323	-1324.494	 H	15	MET15	0.088	
237	 2HB	1314.306	389.137	-1323.792	 H	15	MET15	0.024	
238	 3HB	1314.471	388.650	-1322.114	 H	15	MET15	0.024	
239	 2HG	1313.386	386.475	-1322.565	 H	15	MET15	0.044	
240	 3HG	1313.407	386.746	-1324.319	 H	15	MET15	0.044	
241	 1HE	1310.832	386.012	-1323.947	 H	15	MET15	0.068	
242	 2HE	1310.896	386.147	-1322.161	 H	15	MET15	0.068	
243	 3HE	1309.631	387.017	-1323.078	 H	15	MET15	0.068	
244	   N	1317.328	389.229	-1322.207	N.am	16	ARG16	-0.348	
245	  CA	1318.326	390.292	-1322.122	C.3	16	ARG16	-0.264	
246	   C	1319.596	389.898	-1322.837	C.2	16	ARG16	0.734	
247	   O	1319.709	388.822	-1323.419	O.2	16	ARG16	-0.589	
248	  CB	1318.594	390.609	-1320.623	C.3	16	ARG16	-0.001	
249	  CG	1319.420	391.897	-1320.349	C.3	16	ARG16	0.039	
250	  CD	1319.669	392.116	-1318.848	C.3	16	ARG16	0.049	
251	  NE	1320.446	393.374	-1318.646	N.pl3	16	ARG16	-0.530	
252	  CZ	1320.837	393.855	-1317.469	C.cat	16	ARG16	0.808	
253	 NH1	1320.588	393.271	-1316.331	N.pl3	16	ARG16	-0.863	
254	 NH2	1321.502	394.967	-1317.450	N.pl3	16	ARG16	-0.863	
255	   H	1316.932	388.829	-1321.368	 H	16	ARG16	0.275	
256	  HA	1317.918	391.185	-1322.631	 H	16	ARG16	0.156	
257	 2HB	1319.089	389.732	-1320.157	 H	16	ARG16	0.033	
258	 3HB	1317.625	390.691	-1320.090	 H	16	ARG16	0.033	
259	 2HG	1318.891	392.769	-1320.786	 H	16	ARG16	0.029	
260	 3HG	1320.394	391.843	-1320.877	 H	16	ARG16	0.029	
261	 2HD	1320.216	391.240	-1318.434	 H	16	ARG16	0.069	
262	 3HD	1318.696	392.159	-1318.313	 H	16	ARG16	0.069	
263	  HE	1320.726	393.955	-1319.442	 H	16	ARG16	0.346	
264	1HH1	1320.061	392.398	-1316.417	 H	16	ARG16	0.448	
265	2HH1	1320.922	393.706	-1315.470	 H	16	ARG16	0.448	
266	1HH2	1321.689	395.410	-1318.351	 H	16	ARG16	0.448	
267	2HH2	1321.792	395.321	-1316.537	 H	16	ARG16	0.448	
@<TRIPOS>BOND
1 1 2 1
2 1 10 1
3 2 3 1
4 2 5 1
5 2 11 1
6 3 4 2
7 3 16 1
8 5 6 1
9 6 7 1
10 7 8 2
11 7 9 1
12 5 12 1
13 5 13 1
14 6 14 1
15 6 15 1
16 16 17 1
17 16 24 1
18 17 18 1
19 17 20 1
20 17 25 1
21 18 19 2
22 18 30 1
23 20 21 1
24 21 22 1
25 21 23 2
26 20 26 1
27 20 27 1
28 22 28 1
29 22 29 1
30 30 31 1
31 30 36 1
32 31 32 1
33 31 34 1
34 31 37 1
35 32 33 2
36 32 44 1
37 34 35 1
38 35 36 1
39 34 38 1
40 34 39 1
41 35 40 1
42 35 41 1
43 36 42 1
44 36 43 1
45 44 45 1
46 44 53 1
47 45 46 1
48 45 48 1
49 45 54 1
50 46 47 2
51 46 59 1
52 48 49 1
53 49 50 1
54 50 51 2
55 50 52 1
56 48 55 1
57 48 56 1
58 49 57 1
59 49 58 1
60 59 60 1
61 59 65 1
62 60 61 1
63 60 63 1
64 60 66 1
65 61 62 2
66 61 70 1
67 63 64 1
68 63 67 1
69 63 68 1
70 64 69 1
71 70 71 1
72 70 78 1
73 71 72 1
74 71 74 1
75 71 79 1
76 72 73 2
77 72 89 1
78 74 75 1
79 74 76 1
80 75 77 1
81 74 80 1
82 75 81 1
83 75 82 1
84 76 83 1
85 76 84 1
86 76 85 1
87 77 86 1
88 77 87 1
89 77 88 1
90 89 90 1
91 89 97 1
92 90 91 1
93 90 93 1
94 90 98 1
95 91 92 2
96 91 108 1
97 93 94 1
98 94 95 1
99 94 96 1
100 93 99 1
101 93 100 1
102 94 101 1
103 95 102 1
104 95 103 1
105 95 104 1
106 96 105 1
107 96 106 1
108 96 107 1
109 108 109 1
110 108 116 1
111 109 110 1
112 109 112 1
113 109 117 1
114 110 111 2
115 110 122 1
116 112 113 1
117 113 114 1
118 113 115 2
119 112 118 1
120 112 119 1
121 114 120 1
122 114 121 1
123 122 123 1
124 122 131 1
125 123 124 1
126 123 126 1
127 123 132 1
128 124 125 2
129 124 137 1
130 126 127 1
131 127 128 1
132 128 129 2
133 128 130 1
134 126 133 1
135 126 134 1
136 127 135 1
137 127 136 1
138 137 138 1
139 137 147 1
140 138 139 1
141 138 141 1
142 138 148 1
143 139 140 2
144 139 154 1
145 141 142 1
146 142 143 2
147 143 146 1
148 142 144 1
149 144 145 2
150 145 146 1
151 141 149 1
152 141 150 1
153 143 151 1
154 145 152 1
155 146 153 1
156 154 155 1
157 154 161 1
158 155 156 1
159 155 158 1
160 155 162 1
161 156 157 2
162 156 170 1
163 158 159 1
164 158 160 1
165 158 163 1
166 159 164 1
167 159 165 1
168 159 166 1
169 160 167 1
170 160 168 1
171 160 169 1
172 170 171 1
173 170 179 1
174 171 172 1
175 171 174 1
176 171 180 1
177 172 173 2
178 172 187 1
179 174 175 1
180 175 176 1
181 176 177 1
182 176 178 2
183 174 181 1
184 174 182 1
185 175 183 1
186 175 184 1
187 177 185 1
188 177 186 1
189 187 188 1
190 187 198 1
191 188 189 1
192 188 191 1
193 188 199 1
194 189 190 2
195 189 211 1
196 191 192 1
197 192 193 1
198 193 194 1
199 194 195 1
200 195 196 2
201 195 197 1
202 191 200 1
203 191 201 1
204 192 202 1
205 192 203 1
206 193 204 1
207 193 205 1
208 194 206 1
209 196 207 1
210 196 208 1
211 197 209 1
212 197 210 1
213 211 212 1
214 211 218 1
215 212 213 1
216 212 215 1
217 212 219 1
218 213 214 2
219 213 227 1
220 215 216 1
221 215 217 1
222 215 220 1
223 216 221 1
224 216 222 1
225 216 223 1
226 217 224 1
227 217 225 1
228 217 226 1
229 227 228 1
230 227 235 1
231 228 229 1
232 228 231 1
233 228 236 1
234 229 230 2
235 229 244 1
236 231 232 1
237 232 233 1
238 233 234 1
239 231 237 1
240 231 238 1
241 232 239 1
242 232 240 1
243 234 241 1
244 234 242 1
245 234 243 1
246 244 245 1
247 244 255 1
248 245 246 1
249 245 248 1
250 245 256 1
251 246 247 2
252 248 249 1
253 249 250 1
254 250 251 1
255 251 252 1
256 252 253 2
257 252 254 1
258 248 257 1
259 248 258 1
260 249 259 1
261 249 260 1
262 250 261 1
263 250 262 1
264 251 263 1
265 253 264 1
266 253 265 1
267 254 266 1
268 254 267 1
@<TRIPOS>SUBSTRUCTURE
1	GLU1	1	RESIDUE	1 ****	GLU
2	ASN2	16	RESIDUE	1 ****	ASN
3	PRO3	30	RESIDUE	1 ****	PRO
4	GLU4	44	RESIDUE	1 ****	GLU
5	SER5	59	RESIDUE	1 ****	SER
6	ILE6	70	RESIDUE	1 ****	ILE
7	LEU7	89	RESIDUE	1 ****	LEU
8	ASN8	108	RESIDUE	1 ****	ASN
9	GLU9	122	RESIDUE	1 ****	GLU
10	HIS10	137	RESIDUE	1 ****	HIS
11	VAL11	154	RESIDUE	1 ****	VAL
12	GLN12	170	RESIDUE	1 ****	GLN
13	ARG13	187	RESIDUE	1 ****	ARG
14	VAL14	211	RESIDUE	1 ****	VAL
15	MET15	227	RESIDUE	1 ****	MET
16	ARG16	244	RESIDUE	1 ****	ARG
