@<TRIPOS>MOLECULE
6-18
261 262 16              
SMALL
USER_CHARGES
@<TRIPOS>ATOM
1	   N	1000.594	277.131	-977.727	N.3	1	GLU1	-0.516	
2	  CA	1001.154	278.480	-977.727	C.3	1	GLU1	0.040	
3	   C	1002.662	278.440	-977.727	C.2	1	GLU1	0.537	
4	   O	1003.338	279.139	-978.496	O.2	1	GLU1	-0.582	
5	  CB	1000.630	279.265	-976.490	C.3	1	GLU1	0.056	
6	  CG	1001.105	280.750	-976.379	C.3	1	GLU1	0.014	
7	  CD	1000.681	281.554	-975.164	C.2	1	GLU1	0.805	
8	 OE1	999.953	281.052	-974.286	O.co2	1	GLU1	-0.819	
9	 OE2	1001.112	282.724	-975.092	O.co2	1	GLU1	-0.819	
10	   H	1001.221	276.252	-977.727	 H	1	GLU1	0.294	
11	  HA	1000.827	278.998	-978.647	 H	1	GLU1	0.111	
12	 2HB	1000.919	278.734	-975.560	 H	1	GLU1	-0.017	
13	 3HB	999.523	279.255	-976.477	 H	1	GLU1	-0.017	
14	 2HG	1000.795	281.335	-977.260	 H	1	GLU1	-0.043	
15	 3HG	1002.206	280.817	-976.350	 H	1	GLU1	-0.043	
16	   N	1003.267	277.654	-976.902	N.am	2	ASN2	-0.416	
17	  CA	1004.726	277.616	-976.902	C.3	2	ASN2	0.014	
18	   C	1005.258	277.260	-978.270	C.2	2	ASN2	0.597	
19	   O	1006.173	277.891	-978.799	O.2	2	ASN2	-0.568	
20	  CB	1005.219	276.593	-975.838	C.3	2	ASN2	-0.204	
21	  CG	1004.755	276.817	-974.394	C.2	2	ASN2	0.713	
22	 ND2	1005.350	277.732	-973.676	N.pl3	2	ASN2	-0.919	
23	 OD1	1003.835	276.183	-973.900	O.2	2	ASN2	-0.593	
24	   H	1002.739	277.075	-976.265	 H	2	ASN2	0.272	
25	  HA	1005.104	278.626	-976.656	 H	2	ASN2	0.105	
26	 2HB	1006.323	276.534	-975.841	 H	2	ASN2	0.080	
27	 3HB	1004.889	275.574	-976.123	 H	2	ASN2	0.080	
28	1HD2	1004.869	277.905	-972.789	 H	2	ASN2	0.420	
29	2HD2	1006.051	278.303	-974.145	 H	2	ASN2	0.420	
30	   N	1004.736	276.265	-978.904	N.am	3	PRO3	-0.255	
31	  CA	1005.188	275.856	-980.226	C.3	3	PRO3	-0.027	
32	   C	1004.790	276.879	-981.303	C.2	3	PRO3	0.590	
33	   O	1005.613	277.262	-982.134	O.2	3	PRO3	-0.575	
34	  CB	1004.484	274.501	-980.396	C.3	3	PRO3	-0.007	
35	  CG	1003.201	274.653	-979.565	C.3	3	PRO3	0.019	
36	  CD	1003.658	275.472	-978.356	C.3	3	PRO3	0.019	
37	  HA	1006.274	275.736	-980.240	 H	3	PRO3	0.064	
38	 2HB	1005.107	273.720	-979.955	 H	3	PRO3	0.025	
39	 3HB	1004.286	274.253	-981.441	 H	3	PRO3	0.025	
40	 2HG	1002.773	273.691	-979.274	 H	3	PRO3	0.021	
41	 3HG	1002.463	275.224	-980.133	 H	3	PRO3	0.021	
42	 2HD	1004.048	274.822	-977.568	 H	3	PRO3	0.039	
43	 3HD	1002.862	276.108	-977.962	 H	3	PRO3	0.039	
44	   N	1003.585	277.339	-981.335	N.am	4	GLU4	-0.516	
45	  CA	1003.225	278.310	-982.365	C.3	4	GLU4	0.040	
46	   C	1004.124	279.521	-982.304	C.2	4	GLU4	0.537	
47	   O	1004.651	280.001	-983.318	O.2	4	GLU4	-0.582	
48	  CB	1001.737	278.729	-982.195	C.3	4	GLU4	0.056	
49	  CG	1001.189	279.732	-983.260	C.3	4	GLU4	0.014	
50	  CD	999.762	280.229	-983.117	C.2	4	GLU4	0.805	
51	 OE1	999.036	279.830	-982.186	O.co2	4	GLU4	-0.819	
52	 OE2	999.372	281.058	-983.965	O.co2	4	GLU4	-0.819	
53	   H	1002.901	277.032	-980.659	 H	4	GLU4	0.294	
54	  HA	1003.356	277.840	-983.356	 H	4	GLU4	0.111	
55	 2HB	1001.584	279.168	-981.188	 H	4	GLU4	-0.017	
56	 3HB	1001.089	277.831	-982.201	 H	4	GLU4	-0.017	
57	 2HG	1001.270	279.317	-984.278	 H	4	GLU4	-0.043	
58	 3HG	1001.776	280.664	-983.271	 H	4	GLU4	-0.043	
59	   N	1004.351	280.074	-981.161	N.am	5	SER5	-0.416	
60	  CA	1005.221	281.245	-981.102	C.3	5	SER5	-0.025	
61	   C	1006.580	280.940	-981.687	C.2	5	SER5	0.597	
62	   O	1007.127	281.694	-982.492	O.2	5	SER5	-0.568	
63	  CB	1005.332	281.778	-979.651	C.3	5	SER5	0.212	
64	  OG	1006.064	280.898	-978.790	O.3	5	SER5	-0.655	
65	   H	1003.934	279.702	-980.319	 H	5	SER5	0.272	
66	  HA	1004.771	282.036	-981.731	 H	5	SER5	0.084	
67	 2HB	1004.332	281.971	-979.218	 H	5	SER5	0.035	
68	 3HB	1005.837	282.763	-979.654	 H	5	SER5	0.035	
69	  HG	1005.575	280.073	-978.740	 H	5	SER5	0.428	
70	   N	1007.185	279.857	-981.333	N.am	6	GLU6	-0.516	
71	  CA	1008.498	279.562	-981.899	C.3	6	GLU6	0.040	
72	   C	1008.441	279.525	-983.407	C.2	6	GLU6	0.537	
73	   O	1009.275	280.112	-984.112	O.2	6	GLU6	-0.582	
74	  CB	1009.018	278.207	-981.341	C.3	6	GLU6	0.056	
75	  CG	1010.443	277.778	-981.820	C.3	6	GLU6	0.014	
76	  CD	1010.985	276.437	-981.362	C.2	6	GLU6	0.805	
77	 OE1	1010.322	275.704	-980.603	O.co2	6	GLU6	-0.819	
78	 OE2	1012.110	276.112	-981.796	O.co2	6	GLU6	-0.819	
79	   H	1006.756	279.223	-980.674	 H	6	GLU6	0.294	
80	  HA	1009.198	280.365	-981.606	 H	6	GLU6	0.111	
81	 2HB	1008.304	277.398	-981.597	 H	6	GLU6	-0.017	
82	 3HB	1009.019	278.230	-980.234	 H	6	GLU6	-0.017	
83	 2HG	1011.200	278.528	-981.542	 H	6	GLU6	-0.043	
84	 3HG	1010.489	277.702	-982.919	 H	6	GLU6	-0.043	
85	   N	1007.495	278.861	-983.981	N.am	7	LEU7	-0.416	
86	  CA	1007.440	278.824	-985.439	C.3	7	LEU7	-0.052	
87	   C	1007.367	280.220	-986.012	C.2	7	LEU7	0.597	
88	   O	1008.087	280.582	-986.954	O.2	7	LEU7	-0.568	
89	  CB	1006.237	277.964	-985.919	C.3	7	LEU7	-0.110	
90	  CG	1006.164	276.485	-985.452	C.3	7	LEU7	0.353	
91	 CD1	1004.974	275.779	-986.117	C.3	7	LEU7	-0.412	
92	 CD2	1007.458	275.706	-985.744	C.3	7	LEU7	-0.412	
93	   H	1006.803	278.374	-983.429	 H	7	LEU7	0.272	
94	  HA	1008.381	278.384	-985.814	 H	7	LEU7	0.092	
95	 2HB	1006.213	277.980	-987.027	 H	7	LEU7	0.046	
96	 3HB	1005.297	278.467	-985.615	 H	7	LEU7	0.046	
97	  HG	1005.995	276.477	-984.355	 H	7	LEU7	-0.036	
98	1HD1	1004.017	276.288	-985.895	 H	7	LEU7	0.100	
99	2HD1	1005.073	275.738	-987.219	 H	7	LEU7	0.100	
100	3HD1	1004.867	274.737	-985.761	 H	7	LEU7	0.100	
101	1HD2	1007.733	275.736	-986.814	 H	7	LEU7	0.100	
102	2HD2	1008.311	276.117	-985.173	 H	7	LEU7	0.100	
103	3HD2	1007.376	274.643	-985.448	 H	7	LEU7	0.100	
104	   N	1006.530	281.060	-985.505	N.am	8	ASP8	-0.516	
105	  CA	1006.459	282.410	-986.059	C.3	8	ASP8	0.038	
106	   C	1007.805	283.090	-986.002	C.2	8	ASP8	0.537	
107	   O	1008.278	283.695	-986.977	O.2	8	ASP8	-0.582	
108	  CB	1005.381	283.249	-985.317	C.3	8	ASP8	-0.030	
109	  CG	1005.162	284.669	-985.858	C.2	8	ASP8	0.799	
110	 OD1	1005.225	284.868	-987.088	O.co2	8	ASP8	-0.801	
111	 OD2	1004.970	285.595	-985.042	O.co2	8	ASP8	-0.801	
112	   H	1005.932	280.789	-984.738	 H	8	ASP8	0.294	
113	  HA	1006.176	282.332	-987.126	 H	8	ASP8	0.088	
114	 2HB	1005.639	283.332	-984.245	 H	8	ASP8	-0.012	
115	 3HB	1004.402	282.743	-985.350	 H	8	ASP8	-0.012	
116	   N	1008.485	283.040	-984.907	N.am	9	GLU9	-0.516	
117	  CA	1009.788	283.698	-984.852	C.3	9	GLU9	0.040	
118	   C	1010.706	283.170	-985.928	C.2	9	GLU9	0.537	
119	   O	1011.370	283.925	-986.653	O.2	9	GLU9	-0.582	
120	  CB	1010.422	283.490	-983.447	C.3	9	GLU9	0.056	
121	  CG	1011.804	284.183	-983.217	C.3	9	GLU9	0.014	
122	  CD	1012.507	283.969	-981.889	C.2	9	GLU9	0.805	
123	 OE1	1011.985	283.278	-980.993	O.co2	9	GLU9	-0.819	
124	 OE2	1013.626	284.507	-981.758	O.co2	9	GLU9	-0.819	
125	   H	1008.122	282.553	-984.100	 H	9	GLU9	0.294	
126	  HA	1009.646	284.779	-985.027	 H	9	GLU9	0.111	
127	 2HB	1010.535	282.406	-983.243	 H	9	GLU9	-0.017	
128	 3HB	1009.725	283.843	-982.662	 H	9	GLU9	-0.017	
129	 2HG	1011.732	285.273	-983.357	 H	9	GLU9	-0.043	
130	 3HG	1012.551	283.838	-983.952	 H	9	GLU9	-0.043	
131	   N	1010.803	281.895	-986.097	N.am	10	HIS10	-0.416	
132	  CA	1011.691	281.384	-987.138	C.3	10	HIS10	-0.058	
133	   C	1011.324	281.948	-988.489	C.2	10	HIS10	0.597	
134	   O	1012.176	282.413	-989.261	O.2	10	HIS10	-0.568	
135	  CB	1011.527	279.855	-987.133	C.3	10	HIS10	-0.007	
136	  CG	1012.813	279.145	-986.824	C.2	10	HIS10	0.187	
137	 CD2	1013.194	278.810	-985.532	C.2	10	HIS10	-0.221	
138	 ND1	1013.765	278.739	-987.757	N.2	10	HIS10	-0.543	
139	 CE1	1014.671	278.181	-986.934	C.2	10	HIS10	0.163	
140	 NE2	1014.409	278.178	-985.599	N.pl3	10	HIS10	-0.280	
141	   H	1010.272	281.259	-985.519	 H	10	HIS10	0.272	
142	  HA	1012.710	281.741	-986.913	 H	10	HIS10	0.136	
143	 2HB	1011.162	279.488	-988.112	 H	10	HIS10	0.037	
144	 3HB	1010.771	279.518	-986.393	 H	10	HIS10	0.037	
145	 2HD	1012.608	279.025	-984.643	 H	10	HIS10	0.186	
146	 1HE	1015.562	277.760	-987.381	 H	10	HIS10	0.144	
147	 2HE	1014.976	277.801	-984.825	 H	10	HIS10	0.334	
148	   N	1010.086	281.947	-988.852	N.am	11	VAL11	-0.416	
149	  CA	1009.731	282.493	-990.158	C.3	11	VAL11	-0.087	
150	   C	1010.195	283.923	-990.291	C.2	11	VAL11	0.597	
151	   O	1010.796	284.329	-991.294	O.2	11	VAL11	-0.568	
152	  CB	1008.169	282.386	-990.378	C.3	11	VAL11	0.299	
153	 CG1	1007.600	283.089	-991.640	C.3	11	VAL11	-0.319	
154	 CG2	1007.645	280.931	-990.451	C.3	11	VAL11	-0.319	
155	   H	1009.373	281.574	-988.241	 H	11	VAL11	0.272	
156	  HA	1010.250	281.910	-990.941	 H	11	VAL11	0.097	
157	  HB	1007.682	282.866	-989.502	 H	11	VAL11	-0.030	
158	1HG1	1008.039	282.698	-992.578	 H	11	VAL11	0.079	
159	2HG1	1006.502	282.982	-991.722	 H	11	VAL11	0.079	
160	3HG1	1007.778	284.182	-991.631	 H	11	VAL11	0.079	
161	1HG2	1007.935	280.344	-989.560	 H	11	VAL11	0.079	
162	2HG2	1006.539	280.894	-990.493	 H	11	VAL11	0.079	
163	3HG2	1008.027	280.391	-991.337	 H	11	VAL11	0.079	
164	   N	1009.957	284.749	-989.329	N.am	12	GLN12	-0.416	
165	  CA	1010.405	286.132	-989.456	C.3	12	GLN12	-0.003	
166	   C	1011.895	286.200	-989.694	C.2	12	GLN12	0.597	
167	   O	1012.382	286.909	-990.572	O.2	12	GLN12	-0.568	
168	  CB	1010.014	286.900	-988.173	C.3	12	GLN12	-0.004	
169	  CG	1010.374	288.422	-988.142	C.3	12	GLN12	-0.064	
170	  CD	1010.071	289.235	-986.877	C.2	12	GLN12	0.695	
171	 NE2	1009.504	288.658	-985.848	N.pl3	12	GLN12	-0.941	
172	 OE1	1010.373	290.416	-986.800	O.2	12	GLN12	-0.609	
173	   H	1009.469	284.443	-988.500	 H	12	GLN12	0.272	
174	  HA	1009.906	286.588	-990.331	 H	12	GLN12	0.085	
175	 2HB	1010.490	286.400	-987.304	 H	12	GLN12	0.017	
176	 3HB	1008.924	286.792	-988.010	 H	12	GLN12	0.017	
177	 2HG	1009.896	288.942	-988.993	 H	12	GLN12	0.035	
178	 3HG	1011.457	288.564	-988.308	 H	12	GLN12	0.035	
179	1HE2	1009.397	289.253	-985.025	 H	12	GLN12	0.425	
180	2HE2	1009.341	287.655	-985.952	 H	12	GLN12	0.425	
181	   N	1012.680	285.493	-988.953	N.am	13	ARG13	-0.348	
182	  CA	1014.120	285.560	-989.184	C.3	13	ARG13	-0.264	
183	   C	1014.457	285.189	-990.609	C.2	13	ARG13	0.734	
184	   O	1015.225	285.860	-991.293	O.2	13	ARG13	-0.589	
185	  CB	1014.834	284.621	-988.170	C.3	13	ARG13	-0.001	
186	  CG	1016.379	284.775	-988.088	C.3	13	ARG13	0.039	
187	  CD	1017.006	283.787	-987.091	C.3	13	ARG13	0.049	
188	  NE	1018.483	283.995	-987.040	N.pl3	13	ARG13	-0.530	
189	  CZ	1019.331	283.303	-986.285	C.cat	13	ARG13	0.808	
190	 NH1	1018.967	282.339	-985.488	N.pl3	13	ARG13	-0.863	
191	 NH2	1020.591	283.603	-986.342	N.pl3	13	ARG13	-0.863	
192	   H	1012.304	284.904	-988.224	 H	13	ARG13	0.275	
193	  HA	1014.444	286.606	-989.025	 H	13	ARG13	0.156	
194	 2HB	1014.568	283.570	-988.409	 H	13	ARG13	0.033	
195	 3HB	1014.409	284.787	-987.159	 H	13	ARG13	0.033	
196	 2HG	1016.627	285.819	-987.809	 H	13	ARG13	0.029	
197	 3HG	1016.830	284.619	-989.090	 H	13	ARG13	0.029	
198	 2HD	1016.762	282.747	-987.400	 H	13	ARG13	0.069	
199	 3HD	1016.549	283.933	-986.088	 H	13	ARG13	0.069	
200	  HE	1018.934	284.717	-987.611	 H	13	ARG13	0.346	
201	1HH1	1017.961	282.152	-985.491	 H	13	ARG13	0.448	
202	2HH1	1019.680	281.856	-984.939	 H	13	ARG13	0.448	
203	1HH2	1020.858	284.361	-986.973	 H	13	ARG13	0.448	
204	2HH2	1021.226	283.062	-985.753	 H	13	ARG13	0.448	
205	   N	1013.921	284.134	-991.123	N.am	14	VAL14	-0.416	
206	  CA	1014.246	283.775	-992.500	C.3	14	VAL14	-0.087	
207	   C	1013.916	284.905	-993.446	C.2	14	VAL14	0.597	
208	   O	1014.709	285.286	-994.316	O.2	14	VAL14	-0.568	
209	  CB	1013.474	282.457	-992.908	C.3	14	VAL14	0.299	
210	 CG1	1013.563	282.039	-994.401	C.3	14	VAL14	-0.319	
211	 CG2	1013.906	281.205	-992.107	C.3	14	VAL14	-0.319	
212	   H	1013.286	283.565	-990.581	 H	14	VAL14	0.272	
213	  HA	1015.334	283.598	-992.575	 H	14	VAL14	0.097	
214	  HB	1012.398	282.628	-992.692	 H	14	VAL14	-0.030	
215	1HG1	1014.605	281.863	-994.730	 H	14	VAL14	0.079	
216	2HG1	1012.991	281.116	-994.614	 H	14	VAL14	0.079	
217	3HG1	1013.134	282.801	-995.079	 H	14	VAL14	0.079	
218	1HG2	1013.819	281.364	-991.017	 H	14	VAL14	0.079	
219	2HG2	1013.271	280.329	-992.339	 H	14	VAL14	0.079	
220	3HG2	1014.954	280.916	-992.313	 H	14	VAL14	0.079	
221	   N	1012.771	285.490	-993.344	N.am	15	MET15	-0.416	
222	  CA	1012.450	286.583	-994.258	C.3	15	MET15	-0.024	
223	   C	1013.480	287.683	-994.170	C.2	15	MET15	0.597	
224	   O	1013.982	288.194	-995.183	O.2	15	MET15	-0.568	
225	  CB	1011.028	287.128	-993.949	C.3	15	MET15	0.034	
226	  CG	1009.867	286.130	-994.141	C.3	15	MET15	0.002	
227	  SD	1008.292	286.995	-994.027	S.3	15	MET15	-0.274	
228	  CE	1007.212	285.565	-993.890	C.3	15	MET15	-0.054	
229	   H	1012.106	285.197	-992.643	 H	15	MET15	0.272	
230	  HA	1012.476	286.195	-995.294	 H	15	MET15	0.088	
231	 2HB	1010.826	288.007	-994.591	 H	15	MET15	0.024	
232	 3HB	1010.993	287.521	-992.913	 H	15	MET15	0.024	
233	 2HG	1009.910	285.344	-993.363	 H	15	MET15	0.044	
234	 3HG	1009.930	285.614	-995.117	 H	15	MET15	0.044	
235	 1HE	1007.356	284.877	-994.742	 H	15	MET15	0.068	
236	 2HE	1007.421	285.013	-992.957	 H	15	MET15	0.068	
237	 3HE	1006.154	285.880	-993.873	 H	15	MET15	0.068	
238	   N	1013.848	288.104	-993.008	N.am	16	ARG16	-0.348	
239	  CA	1014.845	289.168	-992.924	C.3	16	ARG16	-0.264	
240	   C	1016.115	288.776	-993.641	C.2	16	ARG16	0.734	
241	   O	1016.229	287.699	-994.222	O.2	16	ARG16	-0.589	
242	  CB	1015.114	289.486	-991.426	C.3	16	ARG16	-0.001	
243	  CG	1015.939	290.776	-991.154	C.3	16	ARG16	0.039	
244	  CD	1016.188	290.995	-989.652	C.3	16	ARG16	0.049	
245	  NE	1016.964	292.254	-989.452	N.pl3	16	ARG16	-0.530	
246	  CZ	1017.355	292.737	-988.276	C.cat	16	ARG16	0.808	
247	 NH1	1017.108	292.153	-987.137	N.pl3	16	ARG16	-0.863	
248	 NH2	1018.019	293.850	-988.258	N.pl3	16	ARG16	-0.863	
249	   H	1013.454	287.704	-992.169	 H	16	ARG16	0.275	
250	  HA	1014.435	290.061	-993.434	 H	16	ARG16	0.156	
251	 2HB	1015.611	288.611	-990.960	 H	16	ARG16	0.033	
252	 3HB	1014.145	289.567	-990.892	 H	16	ARG16	0.033	
253	 2HG	1015.408	291.646	-991.591	 H	16	ARG16	0.029	
254	 3HG	1016.912	290.723	-991.683	 H	16	ARG16	0.029	
255	 2HD	1016.737	290.121	-989.239	 H	16	ARG16	0.069	
256	 3HD	1015.216	291.038	-989.117	 H	16	ARG16	0.069	
257	  HE	1017.243	292.835	-990.249	 H	16	ARG16	0.346	
258	1HH1	1016.583	291.279	-987.222	 H	16	ARG16	0.448	
259	2HH1	1017.442	292.588	-986.276	 H	16	ARG16	0.448	
260	1HH2	1018.205	294.293	-989.160	 H	16	ARG16	0.448	
261	2HH2	1018.309	294.205	-987.345	 H	16	ARG16	0.448	
@<TRIPOS>BOND
1 1 2 1
2 1 10 1
3 2 3 1
4 2 5 1
5 2 11 1
6 3 4 2
7 3 16 1
8 5 6 1
9 6 7 1
10 7 8 2
11 7 9 1
12 5 12 1
13 5 13 1
14 6 14 1
15 6 15 1
16 16 17 1
17 16 24 1
18 17 18 1
19 17 20 1
20 17 25 1
21 18 19 2
22 18 30 1
23 20 21 1
24 21 22 1
25 21 23 2
26 20 26 1
27 20 27 1
28 22 28 1
29 22 29 1
30 30 31 1
31 30 36 1
32 31 32 1
33 31 34 1
34 31 37 1
35 32 33 2
36 32 44 1
37 34 35 1
38 35 36 1
39 34 38 1
40 34 39 1
41 35 40 1
42 35 41 1
43 36 42 1
44 36 43 1
45 44 45 1
46 44 53 1
47 45 46 1
48 45 48 1
49 45 54 1
50 46 47 2
51 46 59 1
52 48 49 1
53 49 50 1
54 50 51 2
55 50 52 1
56 48 55 1
57 48 56 1
58 49 57 1
59 49 58 1
60 59 60 1
61 59 65 1
62 60 61 1
63 60 63 1
64 60 66 1
65 61 62 2
66 61 70 1
67 63 64 1
68 63 67 1
69 63 68 1
70 64 69 1
71 70 71 1
72 70 79 1
73 71 72 1
74 71 74 1
75 71 80 1
76 72 73 2
77 72 85 1
78 74 75 1
79 75 76 1
80 76 77 2
81 76 78 1
82 74 81 1
83 74 82 1
84 75 83 1
85 75 84 1
86 85 86 1
87 85 93 1
88 86 87 1
89 86 89 1
90 86 94 1
91 87 88 2
92 87 104 1
93 89 90 1
94 90 91 1
95 90 92 1
96 89 95 1
97 89 96 1
98 90 97 1
99 91 98 1
100 91 99 1
101 91 100 1
102 92 101 1
103 92 102 1
104 92 103 1
105 104 105 1
106 104 112 1
107 105 106 1
108 105 108 1
109 105 113 1
110 106 107 2
111 106 116 1
112 108 109 1
113 109 110 2
114 109 111 1
115 108 114 1
116 108 115 1
117 116 117 1
118 116 125 1
119 117 118 1
120 117 120 1
121 117 126 1
122 118 119 2
123 118 131 1
124 120 121 1
125 121 122 1
126 122 123 2
127 122 124 1
128 120 127 1
129 120 128 1
130 121 129 1
131 121 130 1
132 131 132 1
133 131 141 1
134 132 133 1
135 132 135 1
136 132 142 1
137 133 134 2
138 133 148 1
139 135 136 1
140 136 137 2
141 137 140 1
142 136 138 1
143 138 139 2
144 139 140 1
145 135 143 1
146 135 144 1
147 137 145 1
148 139 146 1
149 140 147 1
150 148 149 1
151 148 155 1
152 149 150 1
153 149 152 1
154 149 156 1
155 150 151 2
156 150 164 1
157 152 153 1
158 152 154 1
159 152 157 1
160 153 158 1
161 153 159 1
162 153 160 1
163 154 161 1
164 154 162 1
165 154 163 1
166 164 165 1
167 164 173 1
168 165 166 1
169 165 168 1
170 165 174 1
171 166 167 2
172 166 181 1
173 168 169 1
174 169 170 1
175 170 171 1
176 170 172 2
177 168 175 1
178 168 176 1
179 169 177 1
180 169 178 1
181 171 179 1
182 171 180 1
183 181 182 1
184 181 192 1
185 182 183 1
186 182 185 1
187 182 193 1
188 183 184 2
189 183 205 1
190 185 186 1
191 186 187 1
192 187 188 1
193 188 189 1
194 189 190 2
195 189 191 1
196 185 194 1
197 185 195 1
198 186 196 1
199 186 197 1
200 187 198 1
201 187 199 1
202 188 200 1
203 190 201 1
204 190 202 1
205 191 203 1
206 191 204 1
207 205 206 1
208 205 212 1
209 206 207 1
210 206 209 1
211 206 213 1
212 207 208 2
213 207 221 1
214 209 210 1
215 209 211 1
216 209 214 1
217 210 215 1
218 210 216 1
219 210 217 1
220 211 218 1
221 211 219 1
222 211 220 1
223 221 222 1
224 221 229 1
225 222 223 1
226 222 225 1
227 222 230 1
228 223 224 2
229 223 238 1
230 225 226 1
231 226 227 1
232 227 228 1
233 225 231 1
234 225 232 1
235 226 233 1
236 226 234 1
237 228 235 1
238 228 236 1
239 228 237 1
240 238 239 1
241 238 249 1
242 239 240 1
243 239 242 1
244 239 250 1
245 240 241 2
246 242 243 1
247 243 244 1
248 244 245 1
249 245 246 1
250 246 247 2
251 246 248 1
252 242 251 1
253 242 252 1
254 243 253 1
255 243 254 1
256 244 255 1
257 244 256 1
258 245 257 1
259 247 258 1
260 247 259 1
261 248 260 1
262 248 261 1
@<TRIPOS>SUBSTRUCTURE
1	GLU1	1	RESIDUE	1 ****	GLU
2	ASN2	16	RESIDUE	1 ****	ASN
3	PRO3	30	RESIDUE	1 ****	PRO
4	GLU4	44	RESIDUE	1 ****	GLU
5	SER5	59	RESIDUE	1 ****	SER
6	GLU6	70	RESIDUE	1 ****	GLU
7	LEU7	85	RESIDUE	1 ****	LEU
8	ASP8	104	RESIDUE	1 ****	ASP
9	GLU9	116	RESIDUE	1 ****	GLU
10	HIS10	131	RESIDUE	1 ****	HIS
11	VAL11	148	RESIDUE	1 ****	VAL
12	GLN12	164	RESIDUE	1 ****	GLN
13	ARG13	181	RESIDUE	1 ****	ARG
14	VAL14	205	RESIDUE	1 ****	VAL
15	MET15	221	RESIDUE	1 ****	MET
16	ARG16	238	RESIDUE	1 ****	ARG
