@<TRIPOS>MOLECULE
8-7
272 273 16              
SMALL
USER_CHARGES
@<TRIPOS>ATOM
1	   N	1239.194	356.907	-1235.722	N.3	1	GLU1	-0.516	
2	  CA	1239.753	358.256	-1235.722	C.3	1	GLU1	0.040	
3	   C	1241.262	358.216	-1235.722	C.2	1	GLU1	0.537	
4	   O	1241.938	358.915	-1236.490	O.2	1	GLU1	-0.582	
5	  CB	1239.230	359.041	-1234.485	C.3	1	GLU1	0.056	
6	  CG	1239.705	360.526	-1234.374	C.3	1	GLU1	0.014	
7	  CD	1239.281	361.330	-1233.159	C.2	1	GLU1	0.805	
8	 OE1	1238.553	360.828	-1232.281	O.co2	1	GLU1	-0.819	
9	 OE2	1239.711	362.500	-1233.087	O.co2	1	GLU1	-0.819	
10	   H	1239.821	356.028	-1235.722	 H	1	GLU1	0.294	
11	  HA	1239.427	358.774	-1236.642	 H	1	GLU1	0.111	
12	 2HB	1239.519	358.510	-1233.555	 H	1	GLU1	-0.017	
13	 3HB	1238.123	359.031	-1234.472	 H	1	GLU1	-0.017	
14	 2HG	1239.395	361.111	-1235.255	 H	1	GLU1	-0.043	
15	 3HG	1240.805	360.593	-1234.345	 H	1	GLU1	-0.043	
16	   N	1241.867	357.430	-1234.896	N.am	2	ASN2	-0.416	
17	  CA	1243.326	357.391	-1234.896	C.3	2	ASN2	0.014	
18	   C	1243.857	357.036	-1236.265	C.2	2	ASN2	0.597	
19	   O	1244.772	357.666	-1236.794	O.2	2	ASN2	-0.568	
20	  CB	1243.818	356.368	-1233.832	C.3	2	ASN2	-0.204	
21	  CG	1243.355	356.592	-1232.389	C.2	2	ASN2	0.713	
22	 ND2	1243.949	357.507	-1231.671	N.pl3	2	ASN2	-0.919	
23	 OD1	1242.434	355.958	-1231.895	O.2	2	ASN2	-0.593	
24	   H	1241.338	356.850	-1234.260	 H	2	ASN2	0.272	
25	  HA	1243.703	358.401	-1234.651	 H	2	ASN2	0.105	
26	 2HB	1244.922	356.309	-1233.836	 H	2	ASN2	0.080	
27	 3HB	1243.489	355.350	-1234.118	 H	2	ASN2	0.080	
28	1HD2	1243.469	357.680	-1230.784	 H	2	ASN2	0.420	
29	2HD2	1244.651	358.079	-1232.140	 H	2	ASN2	0.420	
30	   N	1243.336	356.041	-1236.899	N.am	3	PRO3	-0.255	
31	  CA	1243.787	355.631	-1238.221	C.3	3	PRO3	-0.027	
32	   C	1243.389	356.655	-1239.298	C.2	3	PRO3	0.590	
33	   O	1244.212	357.038	-1240.129	O.2	3	PRO3	-0.575	
34	  CB	1243.083	354.277	-1238.390	C.3	3	PRO3	-0.007	
35	  CG	1241.800	354.429	-1237.560	C.3	3	PRO3	0.019	
36	  CD	1242.258	355.247	-1236.350	C.3	3	PRO3	0.019	
37	  HA	1244.873	355.511	-1238.235	 H	3	PRO3	0.064	
38	 2HB	1243.706	353.495	-1237.949	 H	3	PRO3	0.025	
39	 3HB	1242.885	354.028	-1239.435	 H	3	PRO3	0.025	
40	 2HG	1241.372	353.466	-1237.269	 H	3	PRO3	0.021	
41	 3HG	1241.062	355.000	-1238.127	 H	3	PRO3	0.021	
42	 2HD	1242.647	354.598	-1235.562	 H	3	PRO3	0.039	
43	 3HD	1241.461	355.883	-1235.957	 H	3	PRO3	0.039	
44	   N	1242.184	357.115	-1239.330	N.am	4	GLU4	-0.516	
45	  CA	1241.824	358.086	-1240.359	C.3	4	GLU4	0.040	
46	   C	1242.723	359.297	-1240.298	C.2	4	GLU4	0.537	
47	   O	1243.250	359.777	-1241.313	O.2	4	GLU4	-0.582	
48	  CB	1240.336	358.504	-1240.189	C.3	4	GLU4	0.056	
49	  CG	1239.788	359.508	-1241.255	C.3	4	GLU4	0.014	
50	  CD	1238.361	360.005	-1241.111	C.2	4	GLU4	0.805	
51	 OE1	1237.635	359.606	-1240.180	O.co2	4	GLU4	-0.819	
52	 OE2	1237.971	360.834	-1241.959	O.co2	4	GLU4	-0.819	
53	   H	1241.500	356.808	-1238.653	 H	4	GLU4	0.294	
54	  HA	1241.955	357.615	-1241.351	 H	4	GLU4	0.111	
55	 2HB	1240.184	358.944	-1239.182	 H	4	GLU4	-0.017	
56	 3HB	1239.688	357.607	-1240.195	 H	4	GLU4	-0.017	
57	 2HG	1239.869	359.093	-1242.272	 H	4	GLU4	-0.043	
58	 3HG	1240.376	360.440	-1241.266	 H	4	GLU4	-0.043	
59	   N	1242.951	359.850	-1239.155	N.am	5	SER5	-0.416	
60	  CA	1243.820	361.021	-1239.097	C.3	5	SER5	-0.025	
61	   C	1245.179	360.716	-1239.683	C.2	5	SER5	0.597	
62	   O	1245.726	361.469	-1240.487	O.2	5	SER5	-0.568	
63	  CB	1243.932	361.553	-1237.646	C.3	5	SER5	0.212	
64	  OG	1244.664	360.674	-1236.785	O.3	5	SER5	-0.655	
65	   H	1242.534	359.478	-1238.314	 H	5	SER5	0.272	
66	  HA	1243.371	361.811	-1239.726	 H	5	SER5	0.084	
67	 2HB	1242.932	361.747	-1237.213	 H	5	SER5	0.035	
68	 3HB	1244.437	362.539	-1237.648	 H	5	SER5	0.035	
69	  HG	1244.175	359.849	-1236.735	 H	5	SER5	0.428	
70	   N	1245.784	359.633	-1239.329	N.am	6	ILE6	-0.416	
71	  CA	1247.097	359.338	-1239.895	C.3	6	ILE6	-0.060	
72	   C	1247.040	359.301	-1241.403	C.2	6	ILE6	0.597	
73	   O	1247.874	359.888	-1242.107	O.2	6	ILE6	-0.568	
74	  CB	1247.697	358.002	-1239.295	C.3	6	ILE6	0.130	
75	 CG1	1247.716	357.939	-1237.734	C.3	6	ILE6	-0.043	
76	 CG2	1249.138	357.700	-1239.811	C.3	6	ILE6	-0.320	
77	 CD1	1247.986	356.550	-1237.120	C.3	6	ILE6	-0.066	
78	   H	1245.356	358.998	-1238.670	 H	6	ILE6	0.272	
79	  HA	1247.771	360.172	-1239.627	 H	6	ILE6	0.087	
80	  HB	1247.039	357.176	-1239.639	 H	6	ILE6	0.019	
81	2HG1	1246.734	358.259	-1237.338	 H	6	ILE6	0.024	
82	3HG1	1248.432	358.681	-1237.329	 H	6	ILE6	0.024	
83	1HG2	1249.197	357.607	-1240.909	 H	6	ILE6	0.088	
84	2HG2	1249.860	358.483	-1239.509	 H	6	ILE6	0.088	
85	3HG2	1249.528	356.738	-1239.432	 H	6	ILE6	0.088	
86	1HD1	1247.258	355.796	-1237.474	 H	6	ILE6	0.019	
87	2HD1	1248.997	356.172	-1237.355	 H	6	ILE6	0.019	
88	3HD1	1247.910	356.580	-1236.017	 H	6	ILE6	0.019	
89	   N	1246.094	358.637	-1241.976	N.am	7	LEU7	-0.416	
90	  CA	1246.039	358.601	-1243.435	C.3	7	LEU7	-0.052	
91	   C	1245.966	359.997	-1244.007	C.2	7	LEU7	0.597	
92	   O	1246.687	360.360	-1244.949	O.2	7	LEU7	-0.568	
93	  CB	1244.836	357.741	-1243.915	C.3	7	LEU7	-0.110	
94	  CG	1244.763	356.262	-1243.449	C.3	7	LEU7	0.353	
95	 CD1	1243.573	355.556	-1244.115	C.3	7	LEU7	-0.412	
96	 CD2	1246.057	355.483	-1243.741	C.3	7	LEU7	-0.412	
97	   H	1245.402	358.150	-1241.425	 H	7	LEU7	0.272	
98	  HA	1246.980	358.161	-1243.809	 H	7	LEU7	0.092	
99	 2HB	1244.812	357.757	-1245.023	 H	7	LEU7	0.046	
100	 3HB	1243.896	358.244	-1243.611	 H	7	LEU7	0.046	
101	  HG	1244.593	356.253	-1242.352	 H	7	LEU7	-0.036	
102	1HD1	1242.616	356.065	-1243.892	 H	7	LEU7	0.100	
103	2HD1	1243.672	355.516	-1245.216	 H	7	LEU7	0.100	
104	3HD1	1243.466	354.515	-1243.759	 H	7	LEU7	0.100	
105	1HD2	1246.332	355.513	-1244.811	 H	7	LEU7	0.100	
106	2HD2	1246.910	355.894	-1243.170	 H	7	LEU7	0.100	
107	3HD2	1245.975	354.420	-1243.445	 H	7	LEU7	0.100	
108	   N	1245.129	360.837	-1243.501	N.am	8	LEU8	-0.416	
109	  CA	1245.059	362.186	-1244.054	C.3	8	LEU8	-0.052	
110	   C	1246.406	362.865	-1243.996	C.2	8	LEU8	0.597	
111	   O	1246.881	363.469	-1244.969	O.2	8	LEU8	-0.568	
112	  CB	1243.982	363.026	-1243.310	C.3	8	LEU8	-0.110	
113	  CG	1242.523	362.495	-1243.295	C.3	8	LEU8	0.353	
114	 CD1	1241.597	363.513	-1242.614	C.3	8	LEU8	-0.412	
115	 CD2	1241.993	362.174	-1244.702	C.3	8	LEU8	-0.412	
116	   H	1244.531	360.566	-1242.733	 H	8	LEU8	0.272	
117	  HA	1244.795	362.112	-1245.124	 H	8	LEU8	0.092	
118	 2HB	1243.974	364.048	-1243.740	 H	8	LEU8	0.046	
119	 3HB	1244.306	363.170	-1242.260	 H	8	LEU8	0.046	
120	  HG	1242.502	361.561	-1242.695	 H	8	LEU8	-0.036	
121	1HD1	1241.923	363.738	-1241.580	 H	8	LEU8	0.100	
122	2HD1	1241.557	364.474	-1243.160	 H	8	LEU8	0.100	
123	3HD1	1240.560	363.136	-1242.541	 H	8	LEU8	0.100	
124	1HD2	1242.055	363.043	-1245.382	 H	8	LEU8	0.100	
125	2HD2	1242.565	361.349	-1245.168	 H	8	LEU8	0.100	
126	3HD2	1240.939	361.839	-1244.681	 H	8	LEU8	0.100	
127	   N	1247.085	362.814	-1242.900	N.am	9	GLU9	-0.516	
128	  CA	1248.389	363.470	-1242.844	C.3	9	GLU9	0.040	
129	   C	1249.307	362.941	-1243.919	C.2	9	GLU9	0.537	
130	   O	1249.972	363.695	-1244.643	O.2	9	GLU9	-0.582	
131	  CB	1249.021	363.261	-1241.438	C.3	9	GLU9	0.056	
132	  CG	1250.404	363.951	-1241.207	C.3	9	GLU9	0.014	
133	  CD	1251.104	363.736	-1239.878	C.2	9	GLU9	0.805	
134	 OE1	1250.581	363.046	-1238.983	O.co2	9	GLU9	-0.819	
135	 OE2	1252.224	364.273	-1239.745	O.co2	9	GLU9	-0.819	
136	   H	1246.720	362.327	-1242.094	 H	9	GLU9	0.294	
137	  HA	1248.248	364.552	-1243.019	 H	9	GLU9	0.111	
138	 2HB	1249.132	362.176	-1241.235	 H	9	GLU9	-0.017	
139	 3HB	1248.323	363.614	-1240.654	 H	9	GLU9	-0.017	
140	 2HG	1250.333	365.042	-1241.346	 H	9	GLU9	-0.043	
141	 3HG	1251.151	363.606	-1241.940	 H	9	GLU9	-0.043	
142	   N	1249.402	361.666	-1244.089	N.am	10	HIS10	-0.416	
143	  CA	1250.290	361.154	-1245.129	C.3	10	HIS10	-0.058	
144	   C	1249.925	361.720	-1246.480	C.2	10	HIS10	0.597	
145	   O	1250.779	362.184	-1247.251	O.2	10	HIS10	-0.568	
146	  CB	1250.124	359.625	-1245.125	C.3	10	HIS10	-0.007	
147	  CG	1251.409	358.913	-1244.816	C.2	10	HIS10	0.187	
148	 CD2	1251.788	358.577	-1243.523	C.2	10	HIS10	-0.221	
149	 ND1	1252.361	358.507	-1245.748	N.2	10	HIS10	-0.543	
150	 CE1	1253.266	357.947	-1244.924	C.2	10	HIS10	0.163	
151	 NE2	1253.002	357.944	-1243.589	N.pl3	10	HIS10	-0.280	
152	   H	1248.870	361.031	-1243.511	 H	10	HIS10	0.272	
153	  HA	1251.309	361.510	-1244.903	 H	10	HIS10	0.136	
154	 2HB	1249.759	359.259	-1246.105	 H	10	HIS10	0.037	
155	 3HB	1249.368	359.289	-1244.386	 H	10	HIS10	0.037	
156	 2HD	1251.202	358.792	-1242.634	 H	10	HIS10	0.186	
157	 1HE	1254.157	357.525	-1245.371	 H	10	HIS10	0.144	
158	 2HE	1253.568	357.565	-1242.816	 H	10	HIS10	0.334	
159	   N	1248.688	361.720	-1246.844	N.am	11	VAL11	-0.416	
160	  CA	1248.334	362.268	-1248.151	C.3	11	VAL11	-0.087	
161	   C	1248.800	363.698	-1248.282	C.2	11	VAL11	0.597	
162	   O	1249.402	364.103	-1249.284	O.2	11	VAL11	-0.568	
163	  CB	1246.773	362.163	-1248.371	C.3	11	VAL11	0.299	
164	 CG1	1246.206	362.869	-1249.634	C.3	11	VAL11	-0.319	
165	 CG2	1246.247	360.710	-1248.446	C.3	11	VAL11	-0.319	
166	   H	1247.974	361.348	-1246.234	 H	11	VAL11	0.272	
167	  HA	1248.854	361.685	-1248.933	 H	11	VAL11	0.097	
168	  HB	1246.285	362.643	-1247.496	 H	11	VAL11	-0.030	
169	1HG1	1246.645	362.477	-1250.571	 H	11	VAL11	0.079	
170	2HG1	1245.107	362.763	-1249.717	 H	11	VAL11	0.079	
171	3HG1	1246.385	363.961	-1249.624	 H	11	VAL11	0.079	
172	1HG2	1246.535	360.121	-1247.555	 H	11	VAL11	0.079	
173	2HG2	1245.141	360.674	-1248.489	 H	11	VAL11	0.079	
174	3HG2	1246.629	360.169	-1249.332	 H	11	VAL11	0.079	
175	   N	1248.563	364.523	-1247.319	N.am	12	GLN12	-0.416	
176	  CA	1249.013	365.906	-1247.445	C.3	12	GLN12	-0.003	
177	   C	1250.503	365.972	-1247.681	C.2	12	GLN12	0.597	
178	   O	1250.992	366.680	-1248.559	O.2	12	GLN12	-0.568	
179	  CB	1248.622	366.673	-1246.162	C.3	12	GLN12	-0.004	
180	  CG	1248.984	368.194	-1246.129	C.3	12	GLN12	-0.064	
181	  CD	1248.681	369.007	-1244.864	C.2	12	GLN12	0.695	
182	 NE2	1248.113	368.430	-1243.836	N.pl3	12	GLN12	-0.941	
183	 OE1	1248.984	370.188	-1244.786	O.2	12	GLN12	-0.609	
184	   H	1248.073	364.217	-1246.490	 H	12	GLN12	0.272	
185	  HA	1248.515	366.363	-1248.320	 H	12	GLN12	0.085	
186	 2HB	1249.097	366.171	-1245.292	 H	12	GLN12	0.017	
187	 3HB	1247.532	366.566	-1245.999	 H	12	GLN12	0.017	
188	 2HG	1248.508	368.716	-1246.980	 H	12	GLN12	0.035	
189	 3HG	1250.068	368.335	-1246.294	 H	12	GLN12	0.035	
190	1HE2	1248.006	369.024	-1243.012	 H	12	GLN12	0.425	
191	2HE2	1247.948	367.427	-1243.940	 H	12	GLN12	0.425	
192	   N	1251.287	365.264	-1246.940	N.am	13	ARG13	-0.348	
193	  CA	1252.727	365.328	-1247.170	C.3	13	ARG13	-0.264	
194	   C	1253.064	364.957	-1248.595	C.2	13	ARG13	0.734	
195	   O	1253.834	365.629	-1249.278	O.2	13	ARG13	-0.589	
196	  CB	1253.439	364.387	-1246.156	C.3	13	ARG13	-0.001	
197	  CG	1254.984	364.539	-1246.074	C.3	13	ARG13	0.039	
198	  CD	1255.609	363.550	-1245.077	C.3	13	ARG13	0.049	
199	  NE	1257.087	363.755	-1245.025	N.pl3	13	ARG13	-0.530	
200	  CZ	1257.933	363.062	-1244.270	C.cat	13	ARG13	0.808	
201	 NH1	1257.566	362.097	-1243.473	N.pl3	13	ARG13	-0.863	
202	 NH2	1259.193	363.359	-1244.326	N.pl3	13	ARG13	-0.863	
203	   H	1250.909	364.674	-1246.213	 H	13	ARG13	0.275	
204	  HA	1253.053	366.374	-1247.010	 H	13	ARG13	0.156	
205	 2HB	1253.171	363.338	-1246.396	 H	13	ARG13	0.033	
206	 3HB	1253.013	364.554	-1245.146	 H	13	ARG13	0.033	
207	 2HG	1255.233	365.583	-1245.794	 H	13	ARG13	0.029	
208	 3HG	1255.435	364.383	-1247.075	 H	13	ARG13	0.029	
209	 2HD	1255.364	362.510	-1245.387	 H	13	ARG13	0.069	
210	 3HD	1255.152	363.695	-1244.074	 H	13	ARG13	0.069	
211	  HE	1257.539	364.477	-1245.595	 H	13	ARG13	0.346	
212	1HH1	1256.561	361.912	-1243.477	 H	13	ARG13	0.448	
213	2HH1	1258.279	361.613	-1242.925	 H	13	ARG13	0.448	
214	1HH2	1259.462	364.118	-1244.956	 H	13	ARG13	0.448	
215	2HH2	1259.827	362.817	-1243.737	 H	13	ARG13	0.448	
216	   N	1252.527	363.904	-1249.110	N.am	14	VAL14	-0.416	
217	  CA	1252.853	363.545	-1250.488	C.3	14	VAL14	-0.087	
218	   C	1252.524	364.676	-1251.433	C.2	14	VAL14	0.597	
219	   O	1253.319	365.057	-1252.302	O.2	14	VAL14	-0.568	
220	  CB	1252.079	362.229	-1250.896	C.3	14	VAL14	0.299	
221	 CG1	1252.169	361.811	-1252.390	C.3	14	VAL14	-0.319	
222	 CG2	1252.509	360.976	-1250.096	C.3	14	VAL14	-0.319	
223	   H	1251.891	363.335	-1248.569	 H	14	VAL14	0.272	
224	  HA	1253.941	363.367	-1250.562	 H	14	VAL14	0.097	
225	  HB	1251.003	362.401	-1250.681	 H	14	VAL14	-0.030	
226	1HG1	1253.210	361.633	-1252.718	 H	14	VAL14	0.079	
227	2HG1	1251.595	360.889	-1252.604	 H	14	VAL14	0.079	
228	3HG1	1251.741	362.574	-1253.068	 H	14	VAL14	0.079	
229	1HG2	1252.421	361.134	-1249.006	 H	14	VAL14	0.079	
230	2HG2	1251.873	360.100	-1250.330	 H	14	VAL14	0.079	
231	3HG2	1253.557	360.685	-1250.301	 H	14	VAL14	0.079	
232	   N	1251.380	365.263	-1251.332	N.am	15	MET15	-0.416	
233	  CA	1251.062	366.356	-1252.245	C.3	15	MET15	-0.024	
234	   C	1252.093	367.455	-1252.156	C.2	15	MET15	0.597	
235	   O	1252.597	367.966	-1253.168	O.2	15	MET15	-0.568	
236	  CB	1249.641	366.904	-1251.937	C.3	15	MET15	0.034	
237	  CG	1248.478	365.907	-1252.130	C.3	15	MET15	0.002	
238	  SD	1246.905	366.775	-1252.016	S.3	15	MET15	-0.274	
239	  CE	1245.822	365.346	-1251.881	C.3	15	MET15	-0.054	
240	   H	1250.714	364.970	-1250.631	 H	15	MET15	0.272	
241	  HA	1251.088	365.970	-1253.281	 H	15	MET15	0.088	
242	 2HB	1249.440	367.783	-1252.578	 H	15	MET15	0.024	
243	 3HB	1249.605	367.295	-1250.900	 H	15	MET15	0.024	
244	 2HG	1248.519	365.121	-1251.352	 H	15	MET15	0.044	
245	 3HG	1248.541	365.392	-1253.106	 H	15	MET15	0.044	
246	 1HE	1245.965	364.658	-1252.734	 H	15	MET15	0.068	
247	 2HE	1246.030	364.793	-1250.948	 H	15	MET15	0.068	
248	 3HE	1244.764	365.663	-1251.865	 H	15	MET15	0.068	
249	   N	1252.462	367.875	-1250.993	N.am	16	ARG16	-0.348	
250	  CA	1253.459	368.938	-1250.908	C.3	16	ARG16	-0.264	
251	   C	1254.730	368.544	-1251.624	C.2	16	ARG16	0.734	
252	   O	1254.843	367.468	-1252.206	O.2	16	ARG16	-0.589	
253	  CB	1253.728	369.254	-1249.409	C.3	16	ARG16	-0.001	
254	  CG	1254.554	370.542	-1249.135	C.3	16	ARG16	0.039	
255	  CD	1254.803	370.760	-1247.633	C.3	16	ARG16	0.049	
256	  NE	1255.580	372.018	-1247.431	N.pl3	16	ARG16	-0.530	
257	  CZ	1255.972	372.499	-1246.255	C.cat	16	ARG16	0.808	
258	 NH1	1255.723	371.914	-1245.117	N.pl3	16	ARG16	-0.863	
259	 NH2	1256.637	373.611	-1246.235	N.pl3	16	ARG16	-0.863	
260	   H	1252.066	367.475	-1250.154	 H	16	ARG16	0.275	
261	  HA	1253.051	369.831	-1251.417	 H	16	ARG16	0.156	
262	 2HB	1254.223	368.377	-1248.943	 H	16	ARG16	0.033	
263	 3HB	1252.759	369.336	-1248.876	 H	16	ARG16	0.033	
264	 2HG	1254.025	371.414	-1249.572	 H	16	ARG16	0.029	
265	 3HG	1255.528	370.488	-1249.663	 H	16	ARG16	0.029	
266	 2HD	1255.351	369.884	-1247.220	 H	16	ARG16	0.069	
267	 3HD	1253.830	370.803	-1247.099	 H	16	ARG16	0.069	
268	  HE	1255.860	372.599	-1248.227	 H	16	ARG16	0.346	
269	1HH1	1255.196	371.042	-1245.202	 H	16	ARG16	0.448	
270	2HH1	1256.057	372.349	-1244.255	 H	16	ARG16	0.448	
271	1HH2	1256.823	374.054	-1247.136	 H	16	ARG16	0.448	
272	2HH2	1256.927	373.965	-1245.322	 H	16	ARG16	0.448	
@<TRIPOS>BOND
1 1 2 1
2 1 10 1
3 2 3 1
4 2 5 1
5 2 11 1
6 3 4 2
7 3 16 1
8 5 6 1
9 6 7 1
10 7 8 2
11 7 9 1
12 5 12 1
13 5 13 1
14 6 14 1
15 6 15 1
16 16 17 1
17 16 24 1
18 17 18 1
19 17 20 1
20 17 25 1
21 18 19 2
22 18 30 1
23 20 21 1
24 21 22 1
25 21 23 2
26 20 26 1
27 20 27 1
28 22 28 1
29 22 29 1
30 30 31 1
31 30 36 1
32 31 32 1
33 31 34 1
34 31 37 1
35 32 33 2
36 32 44 1
37 34 35 1
38 35 36 1
39 34 38 1
40 34 39 1
41 35 40 1
42 35 41 1
43 36 42 1
44 36 43 1
45 44 45 1
46 44 53 1
47 45 46 1
48 45 48 1
49 45 54 1
50 46 47 2
51 46 59 1
52 48 49 1
53 49 50 1
54 50 51 2
55 50 52 1
56 48 55 1
57 48 56 1
58 49 57 1
59 49 58 1
60 59 60 1
61 59 65 1
62 60 61 1
63 60 63 1
64 60 66 1
65 61 62 2
66 61 70 1
67 63 64 1
68 63 67 1
69 63 68 1
70 64 69 1
71 70 71 1
72 70 78 1
73 71 72 1
74 71 74 1
75 71 79 1
76 72 73 2
77 72 89 1
78 74 75 1
79 74 76 1
80 75 77 1
81 74 80 1
82 75 81 1
83 75 82 1
84 76 83 1
85 76 84 1
86 76 85 1
87 77 86 1
88 77 87 1
89 77 88 1
90 89 90 1
91 89 97 1
92 90 91 1
93 90 93 1
94 90 98 1
95 91 92 2
96 91 108 1
97 93 94 1
98 94 95 1
99 94 96 1
100 93 99 1
101 93 100 1
102 94 101 1
103 95 102 1
104 95 103 1
105 95 104 1
106 96 105 1
107 96 106 1
108 96 107 1
109 108 109 1
110 108 116 1
111 109 110 1
112 109 112 1
113 109 117 1
114 110 111 2
115 110 127 1
116 112 113 1
117 113 114 1
118 113 115 1
119 112 118 1
120 112 119 1
121 113 120 1
122 114 121 1
123 114 122 1
124 114 123 1
125 115 124 1
126 115 125 1
127 115 126 1
128 127 128 1
129 127 136 1
130 128 129 1
131 128 131 1
132 128 137 1
133 129 130 2
134 129 142 1
135 131 132 1
136 132 133 1
137 133 134 2
138 133 135 1
139 131 138 1
140 131 139 1
141 132 140 1
142 132 141 1
143 142 143 1
144 142 152 1
145 143 144 1
146 143 146 1
147 143 153 1
148 144 145 2
149 144 159 1
150 146 147 1
151 147 148 2
152 148 151 1
153 147 149 1
154 149 150 2
155 150 151 1
156 146 154 1
157 146 155 1
158 148 156 1
159 150 157 1
160 151 158 1
161 159 160 1
162 159 166 1
163 160 161 1
164 160 163 1
165 160 167 1
166 161 162 2
167 161 175 1
168 163 164 1
169 163 165 1
170 163 168 1
171 164 169 1
172 164 170 1
173 164 171 1
174 165 172 1
175 165 173 1
176 165 174 1
177 175 176 1
178 175 184 1
179 176 177 1
180 176 179 1
181 176 185 1
182 177 178 2
183 177 192 1
184 179 180 1
185 180 181 1
186 181 182 1
187 181 183 2
188 179 186 1
189 179 187 1
190 180 188 1
191 180 189 1
192 182 190 1
193 182 191 1
194 192 193 1
195 192 203 1
196 193 194 1
197 193 196 1
198 193 204 1
199 194 195 2
200 194 216 1
201 196 197 1
202 197 198 1
203 198 199 1
204 199 200 1
205 200 201 2
206 200 202 1
207 196 205 1
208 196 206 1
209 197 207 1
210 197 208 1
211 198 209 1
212 198 210 1
213 199 211 1
214 201 212 1
215 201 213 1
216 202 214 1
217 202 215 1
218 216 217 1
219 216 223 1
220 217 218 1
221 217 220 1
222 217 224 1
223 218 219 2
224 218 232 1
225 220 221 1
226 220 222 1
227 220 225 1
228 221 226 1
229 221 227 1
230 221 228 1
231 222 229 1
232 222 230 1
233 222 231 1
234 232 233 1
235 232 240 1
236 233 234 1
237 233 236 1
238 233 241 1
239 234 235 2
240 234 249 1
241 236 237 1
242 237 238 1
243 238 239 1
244 236 242 1
245 236 243 1
246 237 244 1
247 237 245 1
248 239 246 1
249 239 247 1
250 239 248 1
251 249 250 1
252 249 260 1
253 250 251 1
254 250 253 1
255 250 261 1
256 251 252 2
257 253 254 1
258 254 255 1
259 255 256 1
260 256 257 1
261 257 258 2
262 257 259 1
263 253 262 1
264 253 263 1
265 254 264 1
266 254 265 1
267 255 266 1
268 255 267 1
269 256 268 1
270 258 269 1
271 258 270 1
272 259 271 1
273 259 272 1
@<TRIPOS>SUBSTRUCTURE
1	GLU1	1	RESIDUE	1 ****	GLU
2	ASN2	16	RESIDUE	1 ****	ASN
3	PRO3	30	RESIDUE	1 ****	PRO
4	GLU4	44	RESIDUE	1 ****	GLU
5	SER5	59	RESIDUE	1 ****	SER
6	ILE6	70	RESIDUE	1 ****	ILE
7	LEU7	89	RESIDUE	1 ****	LEU
8	LEU8	108	RESIDUE	1 ****	LEU
9	GLU9	127	RESIDUE	1 ****	GLU
10	HIS10	142	RESIDUE	1 ****	HIS
11	VAL11	159	RESIDUE	1 ****	VAL
12	GLN12	175	RESIDUE	1 ****	GLN
13	ARG13	192	RESIDUE	1 ****	ARG
14	VAL14	216	RESIDUE	1 ****	VAL
15	MET15	232	RESIDUE	1 ****	MET
16	ARG16	249	RESIDUE	1 ****	ARG
