REMARK WARNING: 32 MAX_TORS EXCEEDED!!!
REMARK  70 active torsions:
REMARK  status: ('A' for Active; 'I' for Inactive)
REMARK    1  A    between atoms: N_1  and  CA_2 
REMARK    2  A    between atoms: CA_2  and  C_3 
REMARK    3  A    between atoms: CA_2  and  CB_5 
REMARK       I    between atoms: C_3  and  N_11 
REMARK    4  A    between atoms: CB_5  and  CG_6 
REMARK    5  A    between atoms: CG_6  and  CD_7 
REMARK    6  A    between atoms: N_11  and  CA_12 
REMARK    7  A    between atoms: CA_12  and  C_13 
REMARK    8  A    between atoms: CA_12  and  CB_15 
REMARK       I    between atoms: C_13  and  N_22 
REMARK    9  A    between atoms: CB_15  and  CG_16 
REMARK       I    between atoms: CG_16  and  ND2_17 
REMARK   10  A    between atoms: CA_23  and  C_24 
REMARK       I    between atoms: C_24  and  N_29 
REMARK   11  A    between atoms: N_29  and  CA_30 
REMARK   12  A    between atoms: CA_30  and  C_31 
REMARK   13  A    between atoms: CA_30  and  CB_33 
REMARK       I    between atoms: C_31  and  N_39 
REMARK   14  A    between atoms: CB_33  and  CG_34 
REMARK   15  A    between atoms: CG_34  and  CD_35 
REMARK   16  A    between atoms: N_39  and  CA_40 
REMARK   17  A    between atoms: CA_40  and  C_41 
REMARK   18  A    between atoms: CA_40  and  CB_43 
REMARK       I    between atoms: C_41  and  N_47 
REMARK   19  A    between atoms: CB_43  and  OG_44 
REMARK   20  A    between atoms: N_47  and  CA_48 
REMARK   21  A    between atoms: CA_48  and  C_49 
REMARK   22  A    between atoms: CA_48  and  CB_51 
REMARK       I    between atoms: C_49  and  N_56 
REMARK   23  A    between atoms: CB_51  and  CG1_52 
REMARK   24  A    between atoms: N_56  and  CA_57 
REMARK   25  A    between atoms: CA_57  and  C_58 
REMARK   26  A    between atoms: CA_57  and  CB_60 
REMARK       I    between atoms: C_58  and  N_65 
REMARK   27  A    between atoms: CB_60  and  CG_61 
REMARK   28  A    between atoms: N_65  and  CA_66 
REMARK   29  A    between atoms: CA_66  and  C_67 
REMARK   30  A    between atoms: CA_66  and  CB_69 
REMARK       I    between atoms: C_67  and  N_74 
REMARK   31  A    between atoms: CB_69  and  CG_70 
REMARK   32  A    between atoms: N_74  and  CA_75 
REMARK   33  A    between atoms: CA_75  and  C_76 
REMARK   34  A    between atoms: CA_75  and  CB_78 
REMARK       I    between atoms: C_76  and  N_84 
REMARK   35  A    between atoms: CB_78  and  CG_79 
REMARK   36  A    between atoms: CG_79  and  CD_80 
REMARK   37  A    between atoms: N_84  and  CA_85 
REMARK   38  A    between atoms: CA_85  and  C_86 
REMARK   39  A    between atoms: CA_85  and  CB_88 
REMARK       I    between atoms: C_86  and  N_96 
REMARK   40  A    between atoms: CB_88  and  CG_89 
REMARK   41  A    between atoms: N_96  and  CA_97 
REMARK   42  A    between atoms: CA_97  and  C_98 
REMARK   43  A    between atoms: CA_97  and  CB_100 
REMARK       I    between atoms: C_98  and  N_110 
REMARK   44  A    between atoms: CB_100  and  CG_101 
REMARK   45  A    between atoms: CZ_106  and  OH_107 
REMARK   46  A    between atoms: N_110  and  CA_111 
REMARK   47  A    between atoms: CA_111  and  C_112 
REMARK   48  A    between atoms: CA_111  and  CB_114 
REMARK       I    between atoms: C_112  and  N_122 
REMARK   49  A    between atoms: CB_114  and  CG_115 
REMARK   50  A    between atoms: CG_115  and  CD_116 
REMARK       I    between atoms: CD_116  and  NE2_117 
REMARK   51  A    between atoms: N_122  and  CA_123 
REMARK   52  A    between atoms: CA_123  and  C_124 
REMARK   53  A    between atoms: CA_123  and  CB_126 
REMARK       I    between atoms: C_124  and  N_139 
REMARK   54  A    between atoms: CB_126  and  CG_127 
REMARK   55  A    between atoms: CG_127  and  CD_128 
REMARK   56  A    between atoms: CD_128  and  NE_129 
REMARK       I    between atoms: NE_129  and  CZ_130 
REMARK       I    between atoms: CZ_130  and  NH1_131 
REMARK       I    between atoms: CZ_130  and  NH2_132 
REMARK   57  A    between atoms: N_139  and  CA_140 
REMARK   58  A    between atoms: CA_140  and  C_141 
REMARK   59  A    between atoms: CA_140  and  CB_143 
REMARK       I    between atoms: C_141  and  N_147 
REMARK   60  A    between atoms: N_147  and  CA_148 
REMARK   61  A    between atoms: CA_148  and  C_149 
REMARK   62  A    between atoms: CA_148  and  CB_151 
REMARK       I    between atoms: C_149  and  N_156 
REMARK   63  A    between atoms: CB_151  and  CG_152 
REMARK   64  A    between atoms: CG_152  and  SD_153 
REMARK   65  A    between atoms: N_156  and  CA_157 
REMARK   66  A    between atoms: CA_157  and  C_158 
REMARK   67  A    between atoms: CA_157  and  CB_160 
REMARK   68  A    between atoms: CB_160  and  CG_161 
REMARK   69  A    between atoms: CG_161  and  CD_162 
REMARK   70  A    between atoms: CD_162  and  NE_163 
REMARK       I    between atoms: NE_163  and  CZ_164 
REMARK       I    between atoms: CZ_164  and  NH1_165 
ROOT
ATOM      1  CA  HIS d  10    1758.045 527.354-1796.025  0.00  0.00     0.182 C 
ENDROOT
BRANCH   1   2
ATOM      2  N   HIS d  10    1757.157 527.865-1794.984  0.00  0.00    -0.346 N 
ATOM      3  C   GLU d   9    1757.060 529.140-1794.814  0.00  0.00     0.241 C 
ATOM      4  O   GLU d   9    1757.723 529.895-1795.540  0.00  0.00    -0.271 OA
ATOM      5  H   HIS d  10    1756.627 527.229-1794.406  0.00  0.00     0.163 HD
BRANCH   3   6
ATOM      6  CA  GLU d   9    1756.142 529.667-1793.738  0.00  0.00     0.177 C 
BRANCH   6   7
ATOM      7  N   GLU d   9    1754.839 529.009-1793.794  0.00  0.00    -0.346 N 
ATOM      8  C   ASP d   8    1754.159 529.059-1794.889  0.00  0.00     0.241 C 
ATOM      9  O   ASP d   8    1754.632 529.664-1795.863  0.00  0.00    -0.271 OA
ATOM     10  H   GLU d   9    1754.476 528.522-1792.987  0.00  0.00     0.163 HD
BRANCH   8  11
ATOM     11  CA  ASP d   8    1752.813 528.378-1794.946  0.00  0.00     0.186 C 
BRANCH  11  12
ATOM     12  N   ASP d   8    1752.884 527.029-1794.393  0.00  0.00    -0.346 N 
ATOM     13  C   LEU d   7    1753.721 526.189-1794.899  0.00  0.00     0.241 C 
ATOM     14  O   LEU d   7    1754.442 526.552-1795.841  0.00  0.00    -0.271 OA
ATOM     15  H   ASP d   8    1752.286 526.758-1793.626  0.00  0.00     0.163 HD
BRANCH  13  16
ATOM     16  CA  LEU d   7    1753.794 524.793-1794.327  0.00  0.00     0.177 C 
BRANCH  16  17
ATOM     17  N   LEU d   7    1753.849 524.829-1792.868  0.00  0.00    -0.346 N 
ATOM     18  C   ILE d   6    1754.794 525.493-1792.295  0.00  0.00     0.241 C 
ATOM     19  O   ILE d   6    1755.629 526.081-1792.999  0.00  0.00    -0.271 OA
ATOM     20  H   LEU d   7    1753.157 524.342-1792.317  0.00  0.00     0.163 HD
BRANCH  18  21
ATOM     21  CA  ILE d   6    1754.852 525.531-1790.787  0.00  0.00     0.180 C 
BRANCH  21  22
ATOM     22  N   ILE d   6    1753.538 525.825-1790.221  0.00  0.00    -0.346 N 
ATOM     23  C   SER d   5    1752.934 526.908-1790.575  0.00  0.00     0.243 C 
ATOM     24  O   SER d   5    1753.481 527.662-1791.380  0.00  0.00    -0.271 OA
ATOM     25  H   ILE d   6    1753.110 525.191-1789.562  0.00  0.00     0.163 HD
BRANCH  23  26
ATOM     26  CA  SER d   5    1751.575 527.214-1789.989  0.00  0.00     0.200 C 
BRANCH  26  27
ATOM     27  N   SER d   5    1750.705 526.043-1790.048  0.00  0.00    -0.344 N 
ATOM     28  C   GLU d   4    1750.478 525.490-1791.191  0.00  0.00     0.241 C 
ATOM     29  O   GLU d   4    1751.004 525.969-1792.205  0.00  0.00    -0.271 OA
ATOM     30  H   SER d   5    1750.288 525.671-1789.206  0.00  0.00     0.163 HD
BRANCH  28  31
ATOM     31  CA  GLU d   4    1749.579 524.279-1791.252  0.00  0.00     0.177 C 
BRANCH  31  32
ATOM     32  N   GLU d   4    1749.938 523.308-1790.222  0.00  0.00    -0.346 N 
ATOM     33  C   PRO d   3    1751.143 522.848-1790.190  0.00  0.00     0.241 C 
ATOM     34  O   PRO d   3    1751.967 523.231-1791.022  0.00  0.00    -0.271 OA
ATOM     35  H   GLU d   4    1749.254 523.001-1789.546  0.00  0.00     0.163 HD
BRANCH  33  36
ATOM     36  CA  PRO d   3    1751.541 521.824-1789.113  0.00  0.00     0.179 C 
ATOM     37  N   PRO d   3    1751.089 522.234-1787.792  0.00  0.00    -0.337 N 
ATOM     38  C   ASN d   2    1751.611 523.229-1787.158  0.00  0.00     0.243 C 
ATOM     39  CD  PRO d   3    1750.012 521.441-1787.242  0.00  0.00     0.127 C 
ATOM     40  O   ASN d   2    1752.526 523.859-1787.686  0.00  0.00    -0.271 OA
ATOM     41  CG  PRO d   3    1749.554 520.622-1788.452  0.00  0.00     0.022 C 
ATOM     42  CB  PRO d   3    1750.837 520.470-1789.282  0.00  0.00     0.037 C 
BRANCH  38  43
ATOM     43  CA  ASN d   2    1751.080 523.584-1785.789  0.00  0.00     0.185 C 
BRANCH  43  44
ATOM     44  N   ASN d   2    1749.621 523.623-1785.789  0.00  0.00    -0.346 N 
ATOM     45  C   GLU d   1    1749.016 524.409-1786.614  0.00  0.00     0.242 C 
ATOM     46  O   GLU d   1    1749.692 525.108-1787.383  0.00  0.00    -0.271 OA
ATOM     47  H   ASN d   2    1749.092 523.043-1785.152  0.00  0.00     0.163 HD
BRANCH  45  48
ATOM     48  CA  GLU d   1    1747.507 524.449-1786.614  0.00  0.00     0.191 C 
BRANCH  48  49
ATOM     49  N   GLU d   1    1746.948 523.100-1786.614  0.00  0.00    -0.326 NA
ATOM     50  H   GLU d   1    1747.575 522.221-1786.614  0.00  0.00     0.180 HD
ENDBRANCH  48  49
BRANCH  48  51
ATOM     51  CB  GLU d   1    1746.984 525.234-1785.377  0.00  0.00     0.047 C 
BRANCH  51  52
ATOM     52  CG  GLU d   1    1747.459 526.719-1785.266  0.00  0.00     0.116 C 
BRANCH  52  53
ATOM     53  CD  GLU d   1    1747.035 527.523-1784.051  0.00  0.00     0.172 C 
ATOM     54  OE1 GLU d   1    1746.307 527.021-1783.173  0.00  0.00    -0.648 OA
ATOM     55  OE2 GLU d   1    1747.465 528.693-1783.979  0.00  0.00    -0.648 OA
ENDBRANCH  52  53
ENDBRANCH  51  52
ENDBRANCH  48  51
ENDBRANCH  45  48
ENDBRANCH  43  44
BRANCH  43  56
ATOM     56  CB  ASN d   2    1751.572 522.561-1784.725  0.00  0.00     0.137 C 
BRANCH  56  57
ATOM     57  CG  ASN d   2    1751.109 522.785-1783.281  0.00  0.00     0.217 C 
ATOM     58  ND2 ASN d   2    1751.703 523.700-1782.563  0.00  0.00    -0.370 N 
ATOM     59 21HD ASN d   2    1751.222 523.873-1781.677  0.00  0.00     0.159 HD
ATOM     60 22HD ASN d   2    1752.405 524.272-1783.032  0.00  0.00     0.159 HD
ATOM     61  OD1 ASN d   2    1750.188 522.151-1782.787  0.00  0.00    -0.274 OA
ENDBRANCH  56  57
ENDBRANCH  43  56
ENDBRANCH  38  43
ENDBRANCH  33  36
ENDBRANCH  31  32
BRANCH  31  62
ATOM     62  CB  GLU d   4    1748.090 524.698-1791.082  0.00  0.00     0.045 C 
BRANCH  62  63
ATOM     63  CG  GLU d   4    1747.542 525.701-1792.147  0.00  0.00     0.116 C 
BRANCH  63  64
ATOM     64  CD  GLU d   4    1746.116 526.198-1792.004  0.00  0.00     0.172 C 
ATOM     65  OE1 GLU d   4    1745.389 525.800-1791.073  0.00  0.00    -0.648 OA
ATOM     66  OE2 GLU d   4    1745.726 527.027-1792.852  0.00  0.00    -0.648 OA
ENDBRANCH  63  64
ENDBRANCH  62  63
ENDBRANCH  31  62
ENDBRANCH  28  31
ENDBRANCH  26  27
BRANCH  26  67
ATOM     67  CB  SER d   5    1751.686 527.746-1788.539  0.00  0.00     0.199 C 
BRANCH  67  68
ATOM     68  OG  SER d   5    1752.418 526.867-1787.678  0.00  0.00    -0.398 OA
ATOM     69  HG  SER d   5    1751.929 526.042-1787.627  0.00  0.00     0.209 HD
ENDBRANCH  67  68
ENDBRANCH  26  67
ENDBRANCH  23  26
ENDBRANCH  21  22
BRANCH  21  70
ATOM     70  CB  ILE d   6    1755.451 524.194-1790.187  0.00  0.00     0.013 C 
ATOM     71  CG2 ILE d   6    1756.893 523.893-1790.702  0.00  0.00     0.012 C 
BRANCH  70  72
ATOM     72  CG1 ILE d   6    1755.471 524.132-1788.626  0.00  0.00     0.002 C 
ATOM     73  CD1 ILE d   6    1755.741 522.743-1788.011  0.00  0.00     0.005 C 
ENDBRANCH  70  72
ENDBRANCH  21  70
ENDBRANCH  18  21
ENDBRANCH  16  17
BRANCH  16  74
ATOM     74  CB  LEU d   7    1752.591 523.933-1794.807  0.00  0.00     0.038 C 
BRANCH  74  75
ATOM     75  CG  LEU d   7    1752.518 522.454-1794.341  0.00  0.00    -0.020 C 
ATOM     76  CD1 LEU d   7    1751.328 521.747-1795.006  0.00  0.00     0.009 C 
ATOM     77  CD2 LEU d   7    1753.812 521.675-1794.632  0.00  0.00     0.009 C 
ENDBRANCH  74  75
ENDBRANCH  16  74
ENDBRANCH  13  16
ENDBRANCH  11  12
BRANCH  11  78
ATOM     78  CB  ASP d   8    1751.735 529.217-1794.204  0.00  0.00     0.147 C 
BRANCH  78  79
ATOM     79  CG  ASP d   8    1751.516 530.638-1794.745  0.00  0.00     0.175 C 
ATOM     80  OD1 ASP d   8    1751.580 530.837-1795.975  0.00  0.00    -0.648 OA
ATOM     81  OD2 ASP d   8    1751.323 531.564-1793.929  0.00  0.00    -0.648 OA
ENDBRANCH  78  79
ENDBRANCH  11  78
ENDBRANCH   8  11
ENDBRANCH   6   7
BRANCH   6  82
ATOM     82  CB  GLU d   9    1756.776 529.459-1792.333  0.00  0.00     0.045 C 
BRANCH  82  83
ATOM     83  CG  GLU d   9    1758.158 530.152-1792.104  0.00  0.00     0.116 C 
BRANCH  83  84
ATOM     84  CD  GLU d   9    1758.860 529.939-1790.776  0.00  0.00     0.172 C 
ATOM     85  OE1 GLU d   9    1758.339 529.248-1789.879  0.00  0.00    -0.648 OA
ATOM     86  OE2 GLU d   9    1759.979 530.477-1790.644  0.00  0.00    -0.648 OA
ENDBRANCH  83  84
ENDBRANCH  82  83
ENDBRANCH   6  82
ENDBRANCH   3   6
ENDBRANCH   1   2
BRANCH   1  87
ATOM     87  C   HIS d  10    1757.678 527.919-1797.376  0.00  0.00     0.241 C 
ATOM     88  O   HIS d  10    1758.530 528.384-1798.147  0.00  0.00    -0.271 OA
ATOM     89  N   TYR d  11    1756.440 527.917-1797.739  0.00  0.00    -0.346 N 
ATOM     90  H   TYR d  11    1755.727 527.544-1797.128  0.00  0.00     0.163 HD
BRANCH  89  91
ATOM     91  CA  TYR d  11    1756.085 528.463-1799.045  0.00  0.00     0.180 C 
BRANCH  91  92
ATOM     92  C   TYR d  11    1756.548 529.894-1799.177  0.00  0.00     0.241 C 
ATOM     93  O   TYR d  11    1757.147 530.297-1800.178  0.00  0.00    -0.271 OA
ATOM     94  N   GLN d  12    1756.310 530.720-1798.215  0.00  0.00    -0.346 N 
ATOM     95  H   GLN d  12    1755.822 530.414-1797.386  0.00  0.00     0.163 HD
BRANCH  94  96
ATOM     96  CA  GLN d  12    1756.758 532.103-1798.343  0.00  0.00     0.177 C 
BRANCH  96  97
ATOM     97  C   GLN d  12    1758.248 532.171-1798.580  0.00  0.00     0.241 C 
ATOM     98  O   GLN d  12    1758.735 532.879-1799.459  0.00  0.00    -0.271 OA
ATOM     99  N   ARG d  13    1759.033 531.464-1797.839  0.00  0.00    -0.346 N 
ATOM    100  H   ARG d  13    1758.657 530.875-1797.111  0.00  0.00     0.163 HD
BRANCH  99 101
ATOM    101  CA  ARG d  13    1760.473 531.531-1798.070  0.00  0.00     0.176 C 
BRANCH 101 102
ATOM    102  C   ARG d  13    1760.810 531.159-1799.495  0.00  0.00     0.241 C 
ATOM    103  O   ARG d  13    1761.578 531.831-1800.179  0.00  0.00    -0.271 OA
ATOM    104  N   VAL d  14    1760.274 530.104-1800.009  0.00  0.00    -0.346 N 
ATOM    105  H   VAL d  14    1759.640 529.536-1799.467  0.00  0.00     0.163 HD
BRANCH 104 106
ATOM    106  CA  VAL d  14    1760.599 529.745-1801.386  0.00  0.00     0.180 C 
BRANCH 106 107
ATOM    107  C   VAL d  14    1760.269 530.875-1802.332  0.00  0.00     0.241 C 
ATOM    108  O   VAL d  14    1761.062 531.256-1803.202  0.00  0.00    -0.271 OA
ATOM    109  N   MET d  15    1759.124 531.460-1802.231  0.00  0.00    -0.346 N 
ATOM    110  H   MET d  15    1758.459 531.167-1801.529  0.00  0.00     0.163 HD
BRANCH 109 111
ATOM    111  CA  MET d  15    1758.803 532.552-1803.145  0.00  0.00     0.177 C 
BRANCH 111 112
ATOM    112  C   MET d  15    1759.833 533.652-1803.057  0.00  0.00     0.241 C 
ATOM    113  O   MET d  15    1760.335 534.163-1804.070  0.00  0.00    -0.271 OA
ATOM    114  N   ARG d  16    1760.201 534.074-1801.895  0.00  0.00    -0.347 N 
ATOM    115  H   ARG d  16    1759.807 533.674-1801.056  0.00  0.00     0.163 HD
BRANCH 114 116
ATOM    116  CA  ARG d  16    1761.197 535.138-1801.812  0.00  0.00     0.162 C 
BRANCH 116 117
ATOM    117  C   ARG d  16    1762.468 534.746-1802.528  0.00  0.00     0.219 C 
ATOM    118  O   ARG d  16    1762.582 533.670-1803.109  0.00  0.00    -0.287 OA
ENDBRANCH 116 117
BRANCH 116 119
ATOM    119  CB  ARG d  16    1761.466 535.456-1800.313  0.00  0.00     0.035 C 
BRANCH 119 120
ATOM    120  CG  ARG d  16    1762.291 536.746-1800.041  0.00  0.00     0.023 C 
BRANCH 120 121
ATOM    121  CD  ARG d  16    1762.541 536.965-1798.540  0.00  0.00     0.138 C 
BRANCH 121 122
ATOM    122  NE  ARG d  16    1763.316 538.225-1798.339  0.00  0.00    -0.227 N 
ATOM    123  CZ  ARG d  16    1763.708 538.707-1797.163  0.00  0.00     0.665 C 
ATOM    124  NH1 ARG d  16    1763.460 538.123-1796.025  0.00  0.00    -0.235 N 
ATOM    125  NH2 ARG d  16    1764.371 539.820-1797.145  0.00  0.00    -0.235 N 
ATOM    126 11HH ARG d  16    1762.935 537.250-1796.109  0.00  0.00     0.174 HD
ATOM    127 12HH ARG d  16    1763.795 538.559-1795.163  0.00  0.00     0.174 HD
ATOM    128 21HH ARG d  16    1764.556 540.263-1798.047  0.00  0.00     0.174 HD
ATOM    129 22HH ARG d  16    1764.661 540.175-1796.232  0.00  0.00     0.174 HD
ATOM    130  HE  ARG d  16    1763.595 538.806-1799.136  0.00  0.00     0.177 HD
ENDBRANCH 121 122
ENDBRANCH 120 121
ENDBRANCH 119 120
ENDBRANCH 116 119
ENDBRANCH 114 116
ENDBRANCH 111 112
BRANCH 111 131
ATOM    131  CB  MET d  15    1757.381 533.097-1802.836  0.00  0.00     0.045 C 
BRANCH 131 132
ATOM    132  CG  MET d  15    1756.220 532.099-1803.027  0.00  0.00     0.076 C 
BRANCH 132 133
ATOM    133  SD  MET d  15    1754.646 532.964-1802.913  0.00  0.00    -0.173 SA
ATOM    134  CE  MET d  15    1753.565 531.534-1802.776  0.00  0.00     0.089 C 
ENDBRANCH 132 133
ENDBRANCH 131 132
ENDBRANCH 111 131
ENDBRANCH 109 111
ENDBRANCH 106 107
BRANCH 106 135
ATOM    135  CB  VAL d  14    1759.828 528.427-1801.793  0.00  0.00     0.009 C 
ATOM    136  CG1 VAL d  14    1759.917 528.009-1803.286  0.00  0.00     0.012 C 
ATOM    137  CG2 VAL d  14    1760.260 527.176-1800.992  0.00  0.00     0.012 C 
ENDBRANCH 106 135
ENDBRANCH 104 106
ENDBRANCH 101 102
BRANCH 101 138
ATOM    138  CB  ARG d  13    1761.187 530.592-1797.056  0.00  0.00     0.036 C 
BRANCH 138 139
ATOM    139  CG  ARG d  13    1762.732 530.746-1796.975  0.00  0.00     0.023 C 
BRANCH 139 140
ATOM    140  CD  ARG d  13    1763.359 529.759-1795.977  0.00  0.00     0.138 C 
BRANCH 140 141
ATOM    141  NE  ARG d  13    1764.836 529.967-1795.926  0.00  0.00    -0.227 N 
ATOM    142  CZ  ARG d  13    1765.685 529.276-1795.171  0.00  0.00     0.665 C 
ATOM    143  NH1 ARG d  13    1765.320 528.312-1794.373  0.00  0.00    -0.235 N 
ATOM    144  NH2 ARG d  13    1766.944 529.576-1795.228  0.00  0.00    -0.235 N 
ATOM    145 11HH ARG d  13    1764.315 528.125-1794.376  0.00  0.00     0.174 HD
ATOM    146 12HH ARG d  13    1766.033 527.829-1793.824  0.00  0.00     0.174 HD
ATOM    147 21HH ARG d  13    1767.211 530.334-1795.859  0.00  0.00     0.174 HD
ATOM    148 22HH ARG d  13    1767.579 529.035-1794.639  0.00  0.00     0.174 HD
ATOM    149  HE  ARG d  13    1765.287 530.690-1796.497  0.00  0.00     0.177 HD
ENDBRANCH 140 141
ENDBRANCH 139 140
ENDBRANCH 138 139
ENDBRANCH 101 138
ENDBRANCH  99 101
ENDBRANCH  96  97
BRANCH  96 150
ATOM    150  CB  GLN d  12    1756.367 532.870-1797.060  0.00  0.00     0.044 C 
BRANCH 150 151
ATOM    151  CG  GLN d  12    1756.727 534.392-1797.029  0.00  0.00     0.105 C 
BRANCH 151 152
ATOM    152  CD  GLN d  12    1756.424 535.206-1795.765  0.00  0.00     0.215 C 
ATOM    153  NE2 GLN d  12    1755.857 534.630-1794.736  0.00  0.00    -0.370 N 
ATOM    154 21HE GLN d  12    1755.750 535.224-1793.912  0.00  0.00     0.159 HD
ATOM    155 22HE GLN d  12    1755.694 533.626-1794.839  0.00  0.00     0.159 HD
ATOM    156  OE1 GLN d  12    1756.725 536.387-1795.688  0.00  0.00    -0.274 OA
ENDBRANCH 151 152
ENDBRANCH 150 151
ENDBRANCH  96 150
ENDBRANCH  94  96
ENDBRANCH  91  92
BRANCH  91 157
ATOM    157  CB  TYR d  11    1754.543 528.437-1799.258  0.00  0.00     0.073 C 
BRANCH 157 158
ATOM    158  CG  TYR d  11    1753.870 527.058-1799.248  0.00  0.00    -0.056 A 
ATOM    159  CD1 TYR d  11    1753.940 526.224-1800.369  0.00  0.00     0.010 A 
ATOM    160  CE1 TYR d  11    1753.338 524.969-1800.343  0.00  0.00     0.037 A 
ATOM    161  CZ  TYR d  11    1752.663 524.543-1799.202  0.00  0.00     0.065 A 
ATOM    162  CE2 TYR d  11    1752.588 525.371-1798.083  0.00  0.00     0.037 A 
ATOM    163  CD2 TYR d  11    1753.189 526.626-1798.107  0.00  0.00     0.010 A 
BRANCH 161 164
ATOM    164  OH  TYR d  11    1752.076 523.310-1799.180  0.00  0.00    -0.361 OA
ATOM    165  HH  TYR d  11    1751.663 523.185-1798.323  0.00  0.00     0.217 HD
ENDBRANCH 161 164
ENDBRANCH 157 158
ENDBRANCH  91 157
ENDBRANCH  89  91
ENDBRANCH   1  87
BRANCH   1 166
ATOM    166  CB  HIS d  10    1757.882 525.825-1796.020  0.00  0.00     0.095 C 
BRANCH 166 167
ATOM    167  CG  HIS d  10    1759.168 525.115-1795.713  0.00  0.00     0.053 A 
ATOM    168  CD2 HIS d  10    1759.549 524.780-1794.420  0.00  0.00     0.116 A 
ATOM    169  NE2 HIS d  10    1760.764 524.149-1794.487  0.00  0.00    -0.359 N 
ATOM    170  CE1 HIS d  10    1761.027 524.152-1795.822  0.00  0.00     0.207 A 
ATOM    171  2HE HIS d  10    1761.332 523.772-1793.714  0.00  0.00     0.166 HD
ATOM    172  ND1 HIS d  10    1760.120 524.710-1796.645  0.00  0.00    -0.247 NA
ENDBRANCH 166 167
ENDBRANCH   1 166
TORSDOF 70
