REMARK WARNING: 32 MAX_TORS EXCEEDED!!!
REMARK  68 active torsions:
REMARK  status: ('A' for Active; 'I' for Inactive)
REMARK    1  A    between atoms: N_1  and  CA_2 
REMARK    2  A    between atoms: CA_2  and  C_3 
REMARK    3  A    between atoms: CA_2  and  CB_5 
REMARK       I    between atoms: C_3  and  N_11 
REMARK    4  A    between atoms: CB_5  and  CG_6 
REMARK    5  A    between atoms: CG_6  and  CD_7 
REMARK    6  A    between atoms: N_11  and  CA_12 
REMARK    7  A    between atoms: CA_12  and  C_13 
REMARK    8  A    between atoms: CA_12  and  CB_15 
REMARK       I    between atoms: C_13  and  N_22 
REMARK    9  A    between atoms: CB_15  and  CG_16 
REMARK       I    between atoms: CG_16  and  ND2_17 
REMARK   10  A    between atoms: CA_23  and  C_24 
REMARK       I    between atoms: C_24  and  N_29 
REMARK   11  A    between atoms: N_29  and  CA_30 
REMARK   12  A    between atoms: CA_30  and  C_31 
REMARK   13  A    between atoms: CA_30  and  CB_33 
REMARK       I    between atoms: C_31  and  N_39 
REMARK   14  A    between atoms: CB_33  and  CG_34 
REMARK   15  A    between atoms: CG_34  and  CD_35 
REMARK   16  A    between atoms: N_39  and  CA_40 
REMARK   17  A    between atoms: CA_40  and  C_41 
REMARK   18  A    between atoms: CA_40  and  CB_43 
REMARK       I    between atoms: C_41  and  N_48 
REMARK   19  A    between atoms: CB_43  and  CG1_44 
REMARK   20  A    between atoms: N_48  and  CA_49 
REMARK   21  A    between atoms: CA_49  and  C_50 
REMARK   22  A    between atoms: CA_49  and  CB_52 
REMARK       I    between atoms: C_50  and  N_57 
REMARK   23  A    between atoms: CB_52  and  CG1_53 
REMARK   24  A    between atoms: N_57  and  CA_58 
REMARK   25  A    between atoms: CA_58  and  C_59 
REMARK   26  A    between atoms: CA_58  and  CB_61 
REMARK       I    between atoms: C_59  and  N_66 
REMARK   27  A    between atoms: CB_61  and  CG_62 
REMARK   28  A    between atoms: N_66  and  CA_67 
REMARK   29  A    between atoms: CA_67  and  C_68 
REMARK   30  A    between atoms: CA_67  and  CB_70 
REMARK       I    between atoms: C_68  and  N_75 
REMARK   31  A    between atoms: CB_70  and  CG_71 
REMARK   32  A    between atoms: N_75  and  CA_76 
REMARK   33  A    between atoms: CA_76  and  C_77 
REMARK   34  A    between atoms: CA_76  and  CB_79 
REMARK       I    between atoms: C_77  and  N_85 
REMARK   35  A    between atoms: CB_79  and  CG_80 
REMARK   36  A    between atoms: CG_80  and  CD_81 
REMARK   37  A    between atoms: N_85  and  CA_86 
REMARK   38  A    between atoms: CA_86  and  C_87 
REMARK   39  A    between atoms: CA_86  and  CB_89 
REMARK       I    between atoms: C_87  and  N_97 
REMARK   40  A    between atoms: CB_89  and  CG_90 
REMARK   41  A    between atoms: N_97  and  CA_98 
REMARK   42  A    between atoms: CA_98  and  C_99 
REMARK   43  A    between atoms: CA_98  and  CB_101 
REMARK       I    between atoms: C_99  and  N_105 
REMARK   44  A    between atoms: N_105  and  CA_106 
REMARK   45  A    between atoms: CA_106  and  C_107 
REMARK   46  A    between atoms: CA_106  and  CB_109 
REMARK       I    between atoms: C_107  and  N_117 
REMARK   47  A    between atoms: CB_109  and  CG_110 
REMARK   48  A    between atoms: CG_110  and  CD_111 
REMARK       I    between atoms: CD_111  and  NE2_112 
REMARK   49  A    between atoms: N_117  and  CA_118 
REMARK   50  A    between atoms: CA_118  and  C_119 
REMARK   51  A    between atoms: CA_118  and  CB_121 
REMARK       I    between atoms: C_119  and  N_134 
REMARK   52  A    between atoms: CB_121  and  CG_122 
REMARK   53  A    between atoms: CG_122  and  CD_123 
REMARK   54  A    between atoms: CD_123  and  NE_124 
REMARK       I    between atoms: NE_124  and  CZ_125 
REMARK       I    between atoms: CZ_125  and  NH1_126 
REMARK       I    between atoms: CZ_125  and  NH2_127 
REMARK   55  A    between atoms: N_134  and  CA_135 
REMARK   56  A    between atoms: CA_135  and  C_136 
REMARK   57  A    between atoms: CA_135  and  CB_138 
REMARK       I    between atoms: C_136  and  N_142 
REMARK   58  A    between atoms: N_142  and  CA_143 
REMARK   59  A    between atoms: CA_143  and  C_144 
REMARK   60  A    between atoms: CA_143  and  CB_146 
REMARK       I    between atoms: C_144  and  N_151 
REMARK   61  A    between atoms: CB_146  and  CG_147 
REMARK   62  A    between atoms: CG_147  and  SD_148 
REMARK   63  A    between atoms: N_151  and  CA_152 
REMARK   64  A    between atoms: CA_152  and  C_153 
REMARK   65  A    between atoms: CA_152  and  CB_155 
REMARK   66  A    between atoms: CB_155  and  CG_156 
REMARK   67  A    between atoms: CG_156  and  CD_157 
REMARK   68  A    between atoms: CD_157  and  NE_158 
REMARK       I    between atoms: NE_158  and  CZ_159 
REMARK       I    between atoms: CZ_159  and  NH1_160 
ROOT
ATOM      1  C   GLU d   9     748.589 196.689-702.183  0.00  0.00     0.241 C 
ATOM      2  O   GLU d   9     749.253 197.444-702.908  0.00  0.00    -0.271 OA
ATOM      3  N   HIS d  10     748.686 195.414-702.353  0.00  0.00    -0.346 N 
ATOM      4  H   HIS d  10     748.156 194.778-701.775  0.00  0.00     0.163 HD
ENDROOT
BRANCH   1   5
ATOM      5  CA  GLU d   9     747.670 197.216-701.108  0.00  0.00     0.177 C 
BRANCH   5   6
ATOM      6  N   GLU d   9     746.368 196.557-701.164  0.00  0.00    -0.346 N 
ATOM      7  C   ASP d   8     745.688 196.607-702.260  0.00  0.00     0.241 C 
ATOM      8  O   ASP d   8     746.162 197.213-703.234  0.00  0.00    -0.271 OA
ATOM      9  H   GLU d   9     746.004 196.070-700.357  0.00  0.00     0.163 HD
BRANCH   7  10
ATOM     10  CA  ASP d   8     744.342 195.926-702.318  0.00  0.00     0.186 C 
BRANCH  10  11
ATOM     11  N   ASP d   8     744.413 194.577-701.765  0.00  0.00    -0.346 N 
ATOM     12  C   LEU d   7     745.251 193.737-702.271  0.00  0.00     0.241 C 
ATOM     13  O   LEU d   7     745.972 194.100-703.213  0.00  0.00    -0.271 OA
ATOM     14  H   ASP d   8     743.815 194.305-700.998  0.00  0.00     0.163 HD
BRANCH  12  15
ATOM     15  CA  LEU d   7     745.324 192.341-701.699  0.00  0.00     0.177 C 
BRANCH  15  16
ATOM     16  N   LEU d   7     745.378 192.377-700.241  0.00  0.00    -0.346 N 
ATOM     17  C   ILE d   6     746.324 193.041-699.666  0.00  0.00     0.241 C 
ATOM     18  O   ILE d   6     747.158 193.629-700.369  0.00  0.00    -0.271 OA
ATOM     19  H   LEU d   7     744.687 191.889-699.690  0.00  0.00     0.163 HD
BRANCH  17  20
ATOM     20  CA  ILE d   6     746.380 193.078-698.158  0.00  0.00     0.180 C 
BRANCH  20  21
ATOM     21  N   ILE d   6     745.066 193.371-697.593  0.00  0.00    -0.346 N 
ATOM     22  C   ILE d   5     744.461 194.454-697.947  0.00  0.00     0.241 C 
ATOM     23  O   ILE d   5     745.012 195.214-698.757  0.00  0.00    -0.271 OA
ATOM     24  H   ILE d   6     744.638 192.737-696.934  0.00  0.00     0.163 HD
BRANCH  22  25
ATOM     25  CA  ILE d   5     743.103 194.758-697.362  0.00  0.00     0.180 C 
BRANCH  25  26
ATOM     26  N   ILE d   5     742.234 193.587-697.421  0.00  0.00    -0.346 N 
ATOM     27  C   GLU d   4     742.006 193.034-698.564  0.00  0.00     0.241 C 
ATOM     28  O   GLU d   4     742.533 193.513-699.579  0.00  0.00    -0.271 OA
ATOM     29  H   ILE d   5     741.817 193.215-696.580  0.00  0.00     0.163 HD
BRANCH  27  30
ATOM     30  CA  GLU d   4     741.108 191.822-698.626  0.00  0.00     0.177 C 
BRANCH  30  31
ATOM     31  N   GLU d   4     741.467 190.852-697.596  0.00  0.00    -0.346 N 
ATOM     32  C   PRO d   3     742.672 190.392-697.564  0.00  0.00     0.241 C 
ATOM     33  O   PRO d   3     743.496 190.775-698.395  0.00  0.00    -0.271 OA
ATOM     34  H   GLU d   4     740.783 190.545-696.919  0.00  0.00     0.163 HD
BRANCH  32  35
ATOM     35  CA  PRO d   3     743.070 189.368-696.487  0.00  0.00     0.179 C 
ATOM     36  N   PRO d   3     742.619 189.777-695.165  0.00  0.00    -0.337 N 
ATOM     37  C   ASN d   2     743.140 190.773-694.531  0.00  0.00     0.243 C 
ATOM     38  CD  PRO d   3     741.541 188.984-694.616  0.00  0.00     0.127 C 
ATOM     39  O   ASN d   2     744.055 191.403-695.060  0.00  0.00    -0.271 OA
ATOM     40  CG  PRO d   3     741.083 188.165-695.826  0.00  0.00     0.022 C 
ATOM     41  CB  PRO d   3     742.367 188.013-696.656  0.00  0.00     0.037 C 
BRANCH  37  42
ATOM     42  CA  ASN d   2     742.609 191.128-693.162  0.00  0.00     0.185 C 
BRANCH  42  43
ATOM     43  N   ASN d   2     741.149 191.167-693.162  0.00  0.00    -0.346 N 
ATOM     44  C   GLU d   1     740.545 191.952-693.987  0.00  0.00     0.242 C 
ATOM     45  O   GLU d   1     741.221 192.652-694.756  0.00  0.00    -0.271 OA
ATOM     46  H   ASN d   2     740.621 190.587-692.526  0.00  0.00     0.163 HD
BRANCH  44  47
ATOM     47  CA  GLU d   1     739.036 191.992-693.987  0.00  0.00     0.191 C 
BRANCH  47  48
ATOM     48  N   GLU d   1     738.477 190.643-693.987  0.00  0.00    -0.326 NA
ATOM     49  H   GLU d   1     739.104 189.764-693.987  0.00  0.00     0.180 HD
ENDBRANCH  47  48
BRANCH  47  50
ATOM     50  CB  GLU d   1     738.513 192.777-692.750  0.00  0.00     0.047 C 
BRANCH  50  51
ATOM     51  CG  GLU d   1     738.988 194.262-692.639  0.00  0.00     0.116 C 
BRANCH  51  52
ATOM     52  CD  GLU d   1     738.564 195.066-691.424  0.00  0.00     0.172 C 
ATOM     53  OE1 GLU d   1     737.836 194.564-690.547  0.00  0.00    -0.648 OA
ATOM     54  OE2 GLU d   1     738.994 196.236-691.352  0.00  0.00    -0.648 OA
ENDBRANCH  51  52
ENDBRANCH  50  51
ENDBRANCH  47  50
ENDBRANCH  44  47
ENDBRANCH  42  43
BRANCH  42  55
ATOM     55  CB  ASN d   2     743.101 190.105-692.098  0.00  0.00     0.137 C 
BRANCH  55  56
ATOM     56  CG  ASN d   2     742.638 190.329-690.655  0.00  0.00     0.217 C 
ATOM     57  ND2 ASN d   2     743.232 191.244-689.937  0.00  0.00    -0.370 N 
ATOM     58 21HD ASN d   2     742.751 191.417-689.050  0.00  0.00     0.159 HD
ATOM     59 22HD ASN d   2     743.934 191.815-690.406  0.00  0.00     0.159 HD
ATOM     60  OD1 ASN d   2     741.717 189.695-690.161  0.00  0.00    -0.274 OA
ENDBRANCH  55  56
ENDBRANCH  42  55
ENDBRANCH  37  42
ENDBRANCH  32  35
ENDBRANCH  30  31
BRANCH  30  61
ATOM     61  CB  GLU d   4     739.619 192.241-698.455  0.00  0.00     0.045 C 
BRANCH  61  62
ATOM     62  CG  GLU d   4     739.071 193.244-699.521  0.00  0.00     0.116 C 
BRANCH  62  63
ATOM     63  CD  GLU d   4     737.644 193.741-699.378  0.00  0.00     0.172 C 
ATOM     64  OE1 GLU d   4     736.918 193.342-698.447  0.00  0.00    -0.648 OA
ATOM     65  OE2 GLU d   4     737.255 194.570-700.226  0.00  0.00    -0.648 OA
ENDBRANCH  62  63
ENDBRANCH  61  62
ENDBRANCH  30  61
ENDBRANCH  27  30
ENDBRANCH  25  26
BRANCH  25  66
ATOM     66  CB  ILE d   5     743.210 195.323-695.887  0.00  0.00     0.013 C 
ATOM     67  CG2 ILE d   5     744.060 196.628-695.799  0.00  0.00     0.012 C 
BRANCH  66  68
ATOM     68  CG1 ILE d   5     741.837 195.589-695.191  0.00  0.00     0.002 C 
ATOM     69  CD1 ILE d   5     741.890 195.828-693.667  0.00  0.00     0.005 C 
ENDBRANCH  66  68
ENDBRANCH  25  66
ENDBRANCH  22  25
ENDBRANCH  20  21
BRANCH  20  70
ATOM     70  CB  ILE d   6     746.980 191.742-697.558  0.00  0.00     0.013 C 
ATOM     71  CG2 ILE d   6     748.422 191.441-698.073  0.00  0.00     0.012 C 
BRANCH  70  72
ATOM     72  CG1 ILE d   6     746.999 191.679-695.997  0.00  0.00     0.002 C 
ATOM     73  CD1 ILE d   6     747.269 190.290-695.383  0.00  0.00     0.005 C 
ENDBRANCH  70  72
ENDBRANCH  20  70
ENDBRANCH  17  20
ENDBRANCH  15  16
BRANCH  15  74
ATOM     74  CB  LEU d   7     744.122 191.480-702.181  0.00  0.00     0.038 C 
BRANCH  74  75
ATOM     75  CG  LEU d   7     744.050 190.001-701.715  0.00  0.00    -0.020 C 
ATOM     76  CD1 LEU d   7     742.861 189.294-702.381  0.00  0.00     0.009 C 
ATOM     77  CD2 LEU d   7     745.344 189.223-702.006  0.00  0.00     0.009 C 
ENDBRANCH  74  75
ENDBRANCH  15  74
ENDBRANCH  12  15
ENDBRANCH  10  11
BRANCH  10  78
ATOM     78  CB  ASP d   8     743.263 196.764-701.577  0.00  0.00     0.147 C 
BRANCH  78  79
ATOM     79  CG  ASP d   8     743.044 198.185-702.117  0.00  0.00     0.175 C 
ATOM     80  OD1 ASP d   8     743.109 198.385-703.347  0.00  0.00    -0.648 OA
ATOM     81  OD2 ASP d   8     742.851 199.111-701.301  0.00  0.00    -0.648 OA
ENDBRANCH  78  79
ENDBRANCH  10  78
ENDBRANCH   7  10
ENDBRANCH   5   6
BRANCH   5  82
ATOM     82  CB  GLU d   9     748.303 197.008-699.702  0.00  0.00     0.045 C 
BRANCH  82  83
ATOM     83  CG  GLU d   9     749.685 197.701-699.471  0.00  0.00     0.116 C 
BRANCH  83  84
ATOM     84  CD  GLU d   9     750.386 197.488-698.143  0.00  0.00     0.172 C 
ATOM     85  OE1 GLU d   9     749.864 196.796-697.247  0.00  0.00    -0.648 OA
ATOM     86  OE2 GLU d   9     751.505 198.026-698.010  0.00  0.00    -0.648 OA
ENDBRANCH  83  84
ENDBRANCH  82  83
ENDBRANCH   5  82
ENDBRANCH   1   5
BRANCH   3  87
ATOM     87  CA  HIS d  10     749.575 194.903-703.393  0.00  0.00     0.182 C 
BRANCH  87  88
ATOM     88  C   HIS d  10     749.209 195.468-704.744  0.00  0.00     0.241 C 
ATOM     89  O   HIS d  10     750.061 195.934-705.515  0.00  0.00    -0.271 OA
ATOM     90  N   VAL d  11     747.971 195.467-705.108  0.00  0.00    -0.346 N 
ATOM     91  H   VAL d  11     747.258 195.093-704.498  0.00  0.00     0.163 HD
BRANCH  90  92
ATOM     92  CA  VAL d  11     747.617 196.013-706.415  0.00  0.00     0.180 C 
BRANCH  92  93
ATOM     93  C   VAL d  11     748.080 197.444-706.546  0.00  0.00     0.241 C 
ATOM     94  O   VAL d  11     748.682 197.850-707.548  0.00  0.00    -0.271 OA
ATOM     95  N   GLN d  12     747.842 198.269-705.584  0.00  0.00    -0.346 N 
ATOM     96  H   GLN d  12     747.353 197.962-704.755  0.00  0.00     0.163 HD
BRANCH  95  97
ATOM     97  CA  GLN d  12     748.290 199.652-705.710  0.00  0.00     0.177 C 
BRANCH  97  98
ATOM     98  C   GLN d  12     749.780 199.721-705.946  0.00  0.00     0.241 C 
ATOM     99  O   GLN d  12     750.267 200.430-706.824  0.00  0.00    -0.271 OA
ATOM    100  N   ARG d  13     750.564 199.014-705.205  0.00  0.00    -0.346 N 
ATOM    101  H   ARG d  13     750.188 198.424-704.478  0.00  0.00     0.163 HD
BRANCH 100 102
ATOM    102  CA  ARG d  13     752.005 199.081-705.435  0.00  0.00     0.176 C 
BRANCH 102 103
ATOM    103  C   ARG d  13     752.342 198.710-706.860  0.00  0.00     0.241 C 
ATOM    104  O   ARG d  13     753.111 199.383-707.543  0.00  0.00    -0.271 OA
ATOM    105  N   VAL d  14     751.807 197.656-707.375  0.00  0.00    -0.346 N 
ATOM    106  H   VAL d  14     751.172 197.086-706.834  0.00  0.00     0.163 HD
BRANCH 105 107
ATOM    107  CA  VAL d  14     752.133 197.297-708.753  0.00  0.00     0.180 C 
BRANCH 107 108
ATOM    108  C   VAL d  14     751.803 198.428-709.698  0.00  0.00     0.241 C 
ATOM    109  O   VAL d  14     752.597 198.810-710.567  0.00  0.00    -0.271 OA
ATOM    110  N   MET d  15     750.658 199.013-709.597  0.00  0.00    -0.346 N 
ATOM    111  H   MET d  15     749.993 198.719-708.896  0.00  0.00     0.163 HD
BRANCH 110 112
ATOM    112  CA  MET d  15     750.338 200.106-710.510  0.00  0.00     0.177 C 
BRANCH 112 113
ATOM    113  C   MET d  15     751.367 201.206-710.421  0.00  0.00     0.241 C 
ATOM    114  O   MET d  15     751.870 201.718-711.433  0.00  0.00    -0.271 OA
ATOM    115  N   ARG d  16     751.735 201.627-709.258  0.00  0.00    -0.347 N 
ATOM    116  H   ARG d  16     751.340 201.226-708.419  0.00  0.00     0.163 HD
BRANCH 115 117
ATOM    117  CA  ARG d  16     752.731 202.691-709.173  0.00  0.00     0.162 C 
BRANCH 117 118
ATOM    118  C   ARG d  16     754.002 202.300-709.889  0.00  0.00     0.219 C 
ATOM    119  O   ARG d  16     754.117 201.223-710.471  0.00  0.00    -0.287 OA
ENDBRANCH 117 118
BRANCH 117 120
ATOM    120  CB  ARG d  16     752.999 203.008-707.674  0.00  0.00     0.035 C 
BRANCH 120 121
ATOM    121  CG  ARG d  16     753.823 204.298-707.400  0.00  0.00     0.023 C 
BRANCH 121 122
ATOM    122  CD  ARG d  16     754.071 204.516-705.899  0.00  0.00     0.138 C 
BRANCH 122 123
ATOM    123  NE  ARG d  16     754.846 205.776-705.697  0.00  0.00    -0.227 N 
ATOM    124  CZ  ARG d  16     755.237 206.258-704.520  0.00  0.00     0.665 C 
ATOM    125  NH1 ARG d  16     754.989 205.672-703.382  0.00  0.00    -0.235 N 
ATOM    126  NH2 ARG d  16     755.900 207.371-704.501  0.00  0.00    -0.235 N 
ATOM    127 11HH ARG d  16     754.464 204.799-703.468  0.00  0.00     0.174 HD
ATOM    128 12HH ARG d  16     755.322 206.108-702.521  0.00  0.00     0.174 HD
ATOM    129 21HH ARG d  16     756.086 207.814-705.402  0.00  0.00     0.174 HD
ATOM    130 22HH ARG d  16     756.189 207.725-703.588  0.00  0.00     0.174 HD
ATOM    131  HE  ARG d  16     755.125 206.357-706.493  0.00  0.00     0.177 HD
ENDBRANCH 122 123
ENDBRANCH 121 122
ENDBRANCH 120 121
ENDBRANCH 117 120
ENDBRANCH 115 117
ENDBRANCH 112 113
BRANCH 112 132
ATOM    132  CB  MET d  15     748.916 200.650-710.202  0.00  0.00     0.045 C 
BRANCH 132 133
ATOM    133  CG  MET d  15     747.755 199.652-710.395  0.00  0.00     0.076 C 
BRANCH 133 134
ATOM    134  SD  MET d  15     746.180 200.517-710.281  0.00  0.00    -0.173 SA
ATOM    135  CE  MET d  15     745.099 199.087-710.146  0.00  0.00     0.089 C 
ENDBRANCH 133 134
ENDBRANCH 132 133
ENDBRANCH 112 132
ENDBRANCH 110 112
ENDBRANCH 107 108
BRANCH 107 136
ATOM    136  CB  VAL d  14     751.362 195.980-709.161  0.00  0.00     0.009 C 
ATOM    137  CG1 VAL d  14     751.453 195.563-710.654  0.00  0.00     0.012 C 
ATOM    138  CG2 VAL d  14     751.794 194.728-708.361  0.00  0.00     0.012 C 
ENDBRANCH 107 136
ENDBRANCH 105 107
ENDBRANCH 102 103
BRANCH 102 139
ATOM    139  CB  ARG d  13     752.718 198.142-704.421  0.00  0.00     0.036 C 
BRANCH 139 140
ATOM    140  CG  ARG d  13     754.263 198.296-704.339  0.00  0.00     0.023 C 
BRANCH 140 141
ATOM    141  CD  ARG d  13     754.890 197.308-703.341  0.00  0.00     0.138 C 
BRANCH 141 142
ATOM    142  NE  ARG d  13     756.367 197.516-703.289  0.00  0.00    -0.227 N 
ATOM    143  CZ  ARG d  13     757.214 196.825-702.534  0.00  0.00     0.665 C 
ATOM    144  NH1 ARG d  13     756.849 195.860-701.737  0.00  0.00    -0.235 N 
ATOM    145  NH2 ARG d  13     758.474 197.125-702.589  0.00  0.00    -0.235 N 
ATOM    146 11HH ARG d  13     755.844 195.673-701.741  0.00  0.00     0.174 HD
ATOM    147 12HH ARG d  13     757.562 195.377-701.188  0.00  0.00     0.174 HD
ATOM    148 21HH ARG d  13     758.741 197.883-703.220  0.00  0.00     0.174 HD
ATOM    149 22HH ARG d  13     759.109 196.583-702.000  0.00  0.00     0.174 HD
ATOM    150  HE  ARG d  13     756.818 198.239-703.859  0.00  0.00     0.177 HD
ENDBRANCH 141 142
ENDBRANCH 140 141
ENDBRANCH 139 140
ENDBRANCH 102 139
ENDBRANCH 100 102
ENDBRANCH  97  98
BRANCH  97 151
ATOM    151  CB  GLN d  12     747.897 200.419-704.427  0.00  0.00     0.044 C 
BRANCH 151 152
ATOM    152  CG  GLN d  12     748.257 201.941-704.395  0.00  0.00     0.105 C 
BRANCH 152 153
ATOM    153  CD  GLN d  12     747.953 202.754-703.130  0.00  0.00     0.215 C 
ATOM    154  NE2 GLN d  12     747.385 202.177-702.102  0.00  0.00    -0.370 N 
ATOM    155 21HE GLN d  12     747.277 202.771-701.278  0.00  0.00     0.159 HD
ATOM    156 22HE GLN d  12     747.223 201.173-702.206  0.00  0.00     0.159 HD
ATOM    157  OE1 GLN d  12     748.254 203.935-703.052  0.00  0.00    -0.274 OA
ENDBRANCH 152 153
ENDBRANCH 151 152
ENDBRANCH  97 151
ENDBRANCH  95  97
ENDBRANCH  92  93
BRANCH  92 158
ATOM    158  CB  VAL d  11     746.056 195.906-706.635  0.00  0.00     0.009 C 
ATOM    159  CG1 VAL d  11     745.487 196.610-707.898  0.00  0.00     0.012 C 
ATOM    160  CG2 VAL d  11     745.532 194.451-706.709  0.00  0.00     0.012 C 
ENDBRANCH  92 158
ENDBRANCH  90  92
ENDBRANCH  87  88
BRANCH  87 161
ATOM    161  CB  HIS d  10     749.412 193.374-703.389  0.00  0.00     0.095 C 
BRANCH 161 162
ATOM    162  CG  HIS d  10     750.698 192.665-703.080  0.00  0.00     0.053 A 
ATOM    163  CD2 HIS d  10     751.078 192.329-701.787  0.00  0.00     0.116 A 
ATOM    164  NE2 HIS d  10     752.294 191.699-701.854  0.00  0.00    -0.359 N 
ATOM    165  CE1 HIS d  10     752.557 191.702-703.189  0.00  0.00     0.207 A 
ATOM    166  2HE HIS d  10     752.860 191.321-701.080  0.00  0.00     0.166 HD
ATOM    167  ND1 HIS d  10     751.651 192.260-704.012  0.00  0.00    -0.247 NA
ENDBRANCH 161 162
ENDBRANCH  87 161
ENDBRANCH   3  87
TORSDOF 68
