REMARK WARNING: 32 MAX_TORS EXCEEDED!!!
REMARK  67 active torsions:
REMARK  status: ('A' for Active; 'I' for Inactive)
REMARK    1  A    between atoms: N_1  and  CA_2 
REMARK    2  A    between atoms: CA_2  and  C_3 
REMARK    3  A    between atoms: CA_2  and  CB_5 
REMARK       I    between atoms: C_3  and  N_11 
REMARK    4  A    between atoms: CB_5  and  CG_6 
REMARK    5  A    between atoms: CG_6  and  CD_7 
REMARK    6  A    between atoms: N_11  and  CA_12 
REMARK    7  A    between atoms: CA_12  and  C_13 
REMARK    8  A    between atoms: CA_12  and  CB_15 
REMARK       I    between atoms: C_13  and  N_22 
REMARK    9  A    between atoms: CB_15  and  CG_16 
REMARK       I    between atoms: CG_16  and  ND2_17 
REMARK   10  A    between atoms: CA_23  and  C_24 
REMARK       I    between atoms: C_24  and  N_29 
REMARK   11  A    between atoms: N_29  and  CA_30 
REMARK   12  A    between atoms: CA_30  and  C_31 
REMARK   13  A    between atoms: CA_30  and  CB_33 
REMARK       I    between atoms: C_31  and  N_39 
REMARK   14  A    between atoms: CB_33  and  CG_34 
REMARK   15  A    between atoms: CG_34  and  CD_35 
REMARK   16  A    between atoms: N_39  and  CA_40 
REMARK   17  A    between atoms: CA_40  and  C_41 
REMARK   18  A    between atoms: CA_40  and  CB_43 
REMARK       I    between atoms: C_41  and  N_47 
REMARK   19  A    between atoms: CB_43  and  OG_44 
REMARK   20  A    between atoms: N_47  and  CA_48 
REMARK   21  A    between atoms: CA_48  and  C_49 
REMARK   22  A    between atoms: CA_48  and  CB_51 
REMARK       I    between atoms: C_49  and  N_56 
REMARK   23  A    between atoms: CB_51  and  CG1_52 
REMARK   24  A    between atoms: N_56  and  CA_57 
REMARK   25  A    between atoms: CA_57  and  C_58 
REMARK   26  A    between atoms: CA_57  and  CB_60 
REMARK       I    between atoms: C_58  and  N_65 
REMARK   27  A    between atoms: CB_60  and  CG_61 
REMARK   28  A    between atoms: N_65  and  CA_66 
REMARK   29  A    between atoms: CA_66  and  C_67 
REMARK   30  A    between atoms: CA_66  and  CB_69 
REMARK       I    between atoms: C_67  and  N_74 
REMARK   31  A    between atoms: CB_69  and  CG_70 
REMARK   32  A    between atoms: N_74  and  CA_75 
REMARK   33  A    between atoms: CA_75  and  C_76 
REMARK   34  A    between atoms: CA_75  and  CB_78 
REMARK       I    between atoms: C_76  and  N_83 
REMARK   35  A    between atoms: CB_78  and  OG1_80 
REMARK   36  A    between atoms: N_83  and  CA_84 
REMARK   37  A    between atoms: CA_84  and  C_85 
REMARK   38  A    between atoms: CA_84  and  CB_87 
REMARK       I    between atoms: C_85  and  N_95 
REMARK   39  A    between atoms: CB_87  and  CG_88 
REMARK   40  A    between atoms: N_95  and  CA_96 
REMARK   41  A    between atoms: CA_96  and  C_97 
REMARK   42  A    between atoms: CA_96  and  CB_99 
REMARK       I    between atoms: C_97  and  N_103 
REMARK   43  A    between atoms: N_103  and  CA_104 
REMARK   44  A    between atoms: CA_104  and  C_105 
REMARK   45  A    between atoms: CA_104  and  CB_107 
REMARK       I    between atoms: C_105  and  N_115 
REMARK   46  A    between atoms: CB_107  and  CG_108 
REMARK   47  A    between atoms: CG_108  and  CD_109 
REMARK       I    between atoms: CD_109  and  NE2_110 
REMARK   48  A    between atoms: N_115  and  CA_116 
REMARK   49  A    between atoms: CA_116  and  C_117 
REMARK   50  A    between atoms: CA_116  and  CB_119 
REMARK       I    between atoms: C_117  and  N_132 
REMARK   51  A    between atoms: CB_119  and  CG_120 
REMARK   52  A    between atoms: CG_120  and  CD_121 
REMARK   53  A    between atoms: CD_121  and  NE_122 
REMARK       I    between atoms: NE_122  and  CZ_123 
REMARK       I    between atoms: CZ_123  and  NH1_124 
REMARK       I    between atoms: CZ_123  and  NH2_125 
REMARK   54  A    between atoms: N_132  and  CA_133 
REMARK   55  A    between atoms: CA_133  and  C_134 
REMARK   56  A    between atoms: CA_133  and  CB_136 
REMARK       I    between atoms: C_134  and  N_140 
REMARK   57  A    between atoms: N_140  and  CA_141 
REMARK   58  A    between atoms: CA_141  and  C_142 
REMARK   59  A    between atoms: CA_141  and  CB_144 
REMARK       I    between atoms: C_142  and  N_149 
REMARK   60  A    between atoms: CB_144  and  CG_145 
REMARK   61  A    between atoms: CG_145  and  SD_146 
REMARK   62  A    between atoms: N_149  and  CA_150 
REMARK   63  A    between atoms: CA_150  and  C_151 
REMARK   64  A    between atoms: CA_150  and  CB_153 
REMARK   65  A    between atoms: CB_153  and  CG_154 
REMARK   66  A    between atoms: CG_154  and  CD_155 
REMARK   67  A    between atoms: CD_155  and  NE_156 
REMARK       I    between atoms: NE_156  and  CZ_157 
REMARK       I    between atoms: CZ_157  and  NH1_158 
ROOT
ATOM      1  C   THR d   9    1469.888 435.373-1483.485  0.00  0.00     0.243 C 
ATOM      2  O   THR d   9    1470.538 436.114-1484.195  0.00  0.00    -0.271 OA
ATOM      3  N   HIS d  10    1469.986 434.098-1483.656  0.00  0.00    -0.346 N 
ATOM      4  H   HIS d  10    1469.456 433.461-1483.078  0.00  0.00     0.163 HD
ENDROOT
BRANCH   3   5
ATOM      5  CA  HIS d  10    1470.875 433.588-1484.697  0.00  0.00     0.182 C 
BRANCH   5   6
ATOM      6  C   HIS d  10    1470.507 434.154-1486.047  0.00  0.00     0.241 C 
ATOM      7  O   HIS d  10    1471.359 434.620-1486.819  0.00  0.00    -0.271 OA
ATOM      8  N   VAL d  11    1469.269 434.151-1486.410  0.00  0.00    -0.346 N 
ATOM      9  H   VAL d  11    1468.557 433.777-1485.800  0.00  0.00     0.163 HD
BRANCH   8  10
ATOM     10  CA  VAL d  11    1468.914 434.698-1487.717  0.00  0.00     0.180 C 
BRANCH  10  11
ATOM     11  C   VAL d  11    1469.376 436.129-1487.848  0.00  0.00     0.241 C 
ATOM     12  O   VAL d  11    1469.977 436.536-1488.851  0.00  0.00    -0.271 OA
ATOM     13  N   GLN d  12    1469.138 436.954-1486.885  0.00  0.00    -0.346 N 
ATOM     14  H   GLN d  12    1468.650 436.647-1486.056  0.00  0.00     0.163 HD
BRANCH  13  15
ATOM     15  CA  GLN d  12    1469.584 438.338-1487.011  0.00  0.00     0.177 C 
BRANCH  15  16
ATOM     16  C   GLN d  12    1471.074 438.407-1487.249  0.00  0.00     0.241 C 
ATOM     17  O   GLN d  12    1471.561 439.117-1488.126  0.00  0.00    -0.271 OA
ATOM     18  N   ARG d  13    1471.860 437.701-1486.508  0.00  0.00    -0.346 N 
ATOM     19  H   ARG d  13    1471.484 437.110-1485.780  0.00  0.00     0.163 HD
BRANCH  18  20
ATOM     20  CA  ARG d  13    1473.300 437.769-1486.739  0.00  0.00     0.176 C 
BRANCH  20  21
ATOM     21  C   ARG d  13    1473.637 437.399-1488.164  0.00  0.00     0.241 C 
ATOM     22  O   ARG d  13    1474.405 438.073-1488.848  0.00  0.00    -0.271 OA
ATOM     23  N   VAL d  14    1473.102 436.344-1488.680  0.00  0.00    -0.346 N 
ATOM     24  H   VAL d  14    1472.468 435.775-1488.139  0.00  0.00     0.163 HD
BRANCH  23  25
ATOM     25  CA  VAL d  14    1473.427 435.987-1490.057  0.00  0.00     0.180 C 
BRANCH  25  26
ATOM     26  C   VAL d  14    1473.096 437.117-1491.002  0.00  0.00     0.241 C 
ATOM     27  O   VAL d  14    1473.889 437.500-1491.871  0.00  0.00    -0.271 OA
ATOM     28  N   MET d  15    1471.951 437.702-1490.900  0.00  0.00    -0.346 N 
ATOM     29  H   MET d  15    1471.286 437.407-1490.199  0.00  0.00     0.163 HD
BRANCH  28  30
ATOM     30  CA  MET d  15    1471.629 438.795-1491.813  0.00  0.00     0.177 C 
BRANCH  30  31
ATOM     31  C   MET d  15    1472.658 439.896-1491.724  0.00  0.00     0.241 C 
ATOM     32  O   MET d  15    1473.160 440.408-1492.737  0.00  0.00    -0.271 OA
ATOM     33  N   ARG d  16    1473.026 440.316-1490.562  0.00  0.00    -0.347 N 
ATOM     34  H   ARG d  16    1472.631 439.915-1489.723  0.00  0.00     0.163 HD
BRANCH  33  35
ATOM     35  CA  ARG d  16    1474.021 441.381-1490.477  0.00  0.00     0.162 C 
BRANCH  35  36
ATOM     36  C   ARG d  16    1475.292 440.991-1491.193  0.00  0.00     0.219 C 
ATOM     37  O   ARG d  16    1475.407 439.915-1491.776  0.00  0.00    -0.287 OA
ENDBRANCH  35  36
BRANCH  35  38
ATOM     38  CB  ARG d  16    1474.289 441.698-1488.978  0.00  0.00     0.035 C 
BRANCH  38  39
ATOM     39  CG  ARG d  16    1475.112 442.988-1488.704  0.00  0.00     0.023 C 
BRANCH  39  40
ATOM     40  CD  ARG d  16    1475.361 443.207-1487.203  0.00  0.00     0.138 C 
BRANCH  40  41
ATOM     41  NE  ARG d  16    1476.136 444.466-1487.000  0.00  0.00    -0.227 N 
ATOM     42  CZ  ARG d  16    1476.526 444.948-1485.824  0.00  0.00     0.665 C 
ATOM     43  NH1 ARG d  16    1476.279 444.362-1484.686  0.00  0.00    -0.235 N 
ATOM     44  NH2 ARG d  16    1477.189 446.061-1485.804  0.00  0.00    -0.235 N 
ATOM     45 11HH ARG d  16    1475.754 443.489-1484.772  0.00  0.00     0.174 HD
ATOM     46 12HH ARG d  16    1476.613 444.798-1483.824  0.00  0.00     0.174 HD
ATOM     47 21HH ARG d  16    1477.374 446.506-1486.706  0.00  0.00     0.174 HD
ATOM     48 22HH ARG d  16    1477.478 446.416-1484.891  0.00  0.00     0.174 HD
ATOM     49  HE  ARG d  16    1476.414 445.048-1487.797  0.00  0.00     0.177 HD
ENDBRANCH  40  41
ENDBRANCH  39  40
ENDBRANCH  38  39
ENDBRANCH  35  38
ENDBRANCH  33  35
ENDBRANCH  30  31
BRANCH  30  50
ATOM     50  CB  MET d  15    1470.207 439.338-1491.504  0.00  0.00     0.045 C 
BRANCH  50  51
ATOM     51  CG  MET d  15    1469.046 438.339-1491.697  0.00  0.00     0.076 C 
BRANCH  51  52
ATOM     52  SD  MET d  15    1467.471 439.203-1491.583  0.00  0.00    -0.173 SA
ATOM     53  CE  MET d  15    1466.392 437.771-1491.448  0.00  0.00     0.089 C 
ENDBRANCH  51  52
ENDBRANCH  50  51
ENDBRANCH  30  50
ENDBRANCH  28  30
ENDBRANCH  25  26
BRANCH  25  54
ATOM     54  CB  VAL d  14    1472.657 434.669-1490.466  0.00  0.00     0.009 C 
ATOM     55  CG1 VAL d  14    1472.747 434.252-1491.960  0.00  0.00     0.012 C 
ATOM     56  CG2 VAL d  14    1473.091 433.417-1489.667  0.00  0.00     0.012 C 
ENDBRANCH  25  54
ENDBRANCH  23  25
ENDBRANCH  20  21
BRANCH  20  57
ATOM     57  CB  ARG d  13    1474.015 436.830-1485.726  0.00  0.00     0.036 C 
BRANCH  57  58
ATOM     58  CG  ARG d  13    1475.559 436.985-1485.645  0.00  0.00     0.023 C 
BRANCH  58  59
ATOM     59  CD  ARG d  13    1476.188 435.997-1484.648  0.00  0.00     0.138 C 
BRANCH  59  60
ATOM     60  NE  ARG d  13    1477.665 436.207-1484.597  0.00  0.00    -0.227 N 
ATOM     61  CZ  ARG d  13    1478.514 435.515-1483.842  0.00  0.00     0.665 C 
ATOM     62  NH1 ARG d  13    1478.150 434.550-1483.046  0.00  0.00    -0.235 N 
ATOM     63  NH2 ARG d  13    1479.773 435.816-1483.899  0.00  0.00    -0.235 N 
ATOM     64 11HH ARG d  13    1477.145 434.362-1483.049  0.00  0.00     0.174 HD
ATOM     65 12HH ARG d  13    1478.864 434.067-1482.498  0.00  0.00     0.174 HD
ATOM     66 21HH ARG d  13    1480.039 436.575-1484.529  0.00  0.00     0.174 HD
ATOM     67 22HH ARG d  13    1480.409 435.275-1483.311  0.00  0.00     0.174 HD
ATOM     68  HE  ARG d  13    1478.115 436.930-1485.167  0.00  0.00     0.177 HD
ENDBRANCH  59  60
ENDBRANCH  58  59
ENDBRANCH  57  58
ENDBRANCH  20  57
ENDBRANCH  18  20
ENDBRANCH  15  16
BRANCH  15  69
ATOM     69  CB  GLN d  12    1469.192 439.104-1485.728  0.00  0.00     0.044 C 
BRANCH  69  70
ATOM     70  CG  GLN d  12    1469.551 440.626-1485.695  0.00  0.00     0.105 C 
BRANCH  70  71
ATOM     71  CD  GLN d  12    1469.247 441.438-1484.430  0.00  0.00     0.215 C 
ATOM     72  NE2 GLN d  12    1468.681 440.860-1483.401  0.00  0.00    -0.370 N 
ATOM     73 21HE GLN d  12    1468.573 441.453-1482.577  0.00  0.00     0.159 HD
ATOM     74 22HE GLN d  12    1468.519 439.856-1483.506  0.00  0.00     0.159 HD
ATOM     75  OE1 GLN d  12    1469.547 442.619-1484.351  0.00  0.00    -0.274 OA
ENDBRANCH  70  71
ENDBRANCH  69  70
ENDBRANCH  15  69
ENDBRANCH  13  15
ENDBRANCH  10  11
BRANCH  10  76
ATOM     76  CB  VAL d  11    1467.353 434.590-1487.936  0.00  0.00     0.009 C 
ATOM     77  CG1 VAL d  11    1466.783 435.294-1489.198  0.00  0.00     0.012 C 
ATOM     78  CG2 VAL d  11    1466.830 433.135-1488.011  0.00  0.00     0.012 C 
ENDBRANCH  10  76
ENDBRANCH   8  10
ENDBRANCH   5   6
BRANCH   5  79
ATOM     79  CB  HIS d  10    1470.713 432.059-1484.693  0.00  0.00     0.095 C 
BRANCH  79  80
ATOM     80  CG  HIS d  10    1471.999 431.350-1484.386  0.00  0.00     0.053 A 
ATOM     81  CD2 HIS d  10    1472.380 431.014-1483.093  0.00  0.00     0.116 A 
ATOM     82  NE2 HIS d  10    1473.596 430.384-1483.161  0.00  0.00    -0.359 N 
ATOM     83  CE1 HIS d  10    1473.859 430.389-1484.496  0.00  0.00     0.207 A 
ATOM     84  2HE HIS d  10    1474.163 430.007-1482.388  0.00  0.00     0.166 HD
ATOM     85  ND1 HIS d  10    1472.952 430.946-1485.319  0.00  0.00    -0.247 NA
ENDBRANCH  79  80
ENDBRANCH   5  79
ENDBRANCH   3   5
BRANCH   1  86
ATOM     86  CA  THR d   9    1468.969 435.899-1482.409  0.00  0.00     0.205 C 
BRANCH  86  87
ATOM     87  N   THR d   9    1467.668 435.242-1482.464  0.00  0.00    -0.344 N 
ATOM     88  C   ASP d   8    1466.988 435.292-1483.559  0.00  0.00     0.241 C 
ATOM     89  O   ASP d   8    1467.461 435.897-1484.533  0.00  0.00    -0.271 OA
ATOM     90  H   THR d   9    1467.305 434.755-1481.657  0.00  0.00     0.163 HD
BRANCH  88  91
ATOM     91  CA  ASP d   8    1465.641 434.612-1483.616  0.00  0.00     0.186 C 
BRANCH  91  92
ATOM     92  N   ASP d   8    1465.712 433.262-1483.063  0.00  0.00    -0.346 N 
ATOM     93  C   LEU d   7    1466.549 432.422-1483.570  0.00  0.00     0.241 C 
ATOM     94  O   LEU d   7    1467.270 432.785-1484.512  0.00  0.00    -0.271 OA
ATOM     95  H   ASP d   8    1465.114 432.991-1482.296  0.00  0.00     0.163 HD
BRANCH  93  96
ATOM     96  CA  LEU d   7    1466.622 431.026-1482.998  0.00  0.00     0.177 C 
BRANCH  96  97
ATOM     97  N   LEU d   7    1466.677 431.062-1481.539  0.00  0.00    -0.346 N 
ATOM     98  C   ILE d   6    1467.623 431.726-1480.966  0.00  0.00     0.241 C 
ATOM     99  O   ILE d   6    1468.457 432.313-1481.670  0.00  0.00    -0.271 OA
ATOM    100  H   LEU d   7    1465.985 430.575-1480.988  0.00  0.00     0.163 HD
BRANCH  98 101
ATOM    101  CA  ILE d   6    1467.680 431.763-1479.458  0.00  0.00     0.180 C 
BRANCH 101 102
ATOM    102  N   ILE d   6    1466.367 432.058-1478.891  0.00  0.00    -0.346 N 
ATOM    103  C   SER d   5    1465.762 433.141-1479.245  0.00  0.00     0.243 C 
ATOM    104  O   SER d   5    1466.309 433.894-1480.050  0.00  0.00    -0.271 OA
ATOM    105  H   ILE d   6    1465.938 431.423-1478.233  0.00  0.00     0.163 HD
BRANCH 103 106
ATOM    106  CA  SER d   5    1464.403 433.446-1478.660  0.00  0.00     0.200 C 
BRANCH 106 107
ATOM    107  N   SER d   5    1463.534 432.275-1478.718  0.00  0.00    -0.344 N 
ATOM    108  C   GLU d   4    1463.306 431.722-1479.861  0.00  0.00     0.241 C 
ATOM    109  O   GLU d   4    1463.832 432.202-1480.876  0.00  0.00    -0.271 OA
ATOM    110  H   SER d   5    1463.117 431.903-1477.877  0.00  0.00     0.163 HD
BRANCH 108 111
ATOM    111  CA  GLU d   4    1462.407 430.511-1479.922  0.00  0.00     0.177 C 
BRANCH 111 112
ATOM    112  N   GLU d   4    1462.767 429.540-1478.893  0.00  0.00    -0.346 N 
ATOM    113  C   PRO d   3    1463.972 429.080-1478.861  0.00  0.00     0.241 C 
ATOM    114  O   PRO d   3    1464.795 429.463-1479.692  0.00  0.00    -0.271 OA
ATOM    115  H   GLU d   4    1462.083 429.233-1478.216  0.00  0.00     0.163 HD
BRANCH 113 116
ATOM    116  CA  PRO d   3    1464.370 428.056-1477.784  0.00  0.00     0.179 C 
ATOM    117  N   PRO d   3    1463.918 428.465-1476.462  0.00  0.00    -0.337 N 
ATOM    118  C   ASN d   2    1464.440 429.461-1475.828  0.00  0.00     0.243 C 
ATOM    119  CD  PRO d   3    1462.840 427.672-1475.913  0.00  0.00     0.127 C 
ATOM    120  O   ASN d   2    1465.355 430.091-1476.357  0.00  0.00    -0.271 OA
ATOM    121  CG  PRO d   3    1462.383 426.854-1477.123  0.00  0.00     0.022 C 
ATOM    122  CB  PRO d   3    1463.666 426.701-1477.953  0.00  0.00     0.037 C 
BRANCH 118 123
ATOM    123  CA  ASN d   2    1463.909 429.816-1474.459  0.00  0.00     0.185 C 
BRANCH 123 124
ATOM    124  N   ASN d   2    1462.449 429.855-1474.459  0.00  0.00    -0.346 N 
ATOM    125  C   GLU d   1    1461.845 430.641-1475.285  0.00  0.00     0.242 C 
ATOM    126  O   GLU d   1    1462.521 431.340-1476.053  0.00  0.00    -0.271 OA
ATOM    127  H   ASN d   2    1461.921 429.275-1473.823  0.00  0.00     0.163 HD
BRANCH 125 128
ATOM    128  CA  GLU d   1    1460.336 430.681-1475.285  0.00  0.00     0.191 C 
BRANCH 128 129
ATOM    129  N   GLU d   1    1459.777 429.332-1475.285  0.00  0.00    -0.326 NA
ATOM    130  H   GLU d   1    1460.404 428.453-1475.285  0.00  0.00     0.180 HD
ENDBRANCH 128 129
BRANCH 128 131
ATOM    131  CB  GLU d   1    1459.813 431.466-1474.047  0.00  0.00     0.047 C 
BRANCH 131 132
ATOM    132  CG  GLU d   1    1460.288 432.951-1473.937  0.00  0.00     0.116 C 
BRANCH 132 133
ATOM    133  CD  GLU d   1    1459.864 433.755-1472.721  0.00  0.00     0.172 C 
ATOM    134  OE1 GLU d   1    1459.136 433.253-1471.844  0.00  0.00    -0.648 OA
ATOM    135  OE2 GLU d   1    1460.294 434.925-1472.650  0.00  0.00    -0.648 OA
ENDBRANCH 132 133
ENDBRANCH 131 132
ENDBRANCH 128 131
ENDBRANCH 125 128
ENDBRANCH 123 124
BRANCH 123 136
ATOM    136  CB  ASN d   2    1464.401 428.793-1473.395  0.00  0.00     0.137 C 
BRANCH 136 137
ATOM    137  CG  ASN d   2    1463.938 429.017-1471.952  0.00  0.00     0.217 C 
ATOM    138  ND2 ASN d   2    1464.532 429.932-1471.234  0.00  0.00    -0.370 N 
ATOM    139 21HD ASN d   2    1464.051 430.105-1470.347  0.00  0.00     0.159 HD
ATOM    140 22HD ASN d   2    1465.234 430.504-1471.703  0.00  0.00     0.159 HD
ATOM    141  OD1 ASN d   2    1463.017 428.383-1471.458  0.00  0.00    -0.274 OA
ENDBRANCH 136 137
ENDBRANCH 123 136
ENDBRANCH 118 123
ENDBRANCH 113 116
ENDBRANCH 111 112
BRANCH 111 142
ATOM    142  CB  GLU d   4    1460.919 430.929-1479.752  0.00  0.00     0.045 C 
BRANCH 142 143
ATOM    143  CG  GLU d   4    1460.370 431.933-1480.817  0.00  0.00     0.116 C 
BRANCH 143 144
ATOM    144  CD  GLU d   4    1458.944 432.430-1480.673  0.00  0.00     0.172 C 
ATOM    145  OE1 GLU d   4    1458.218 432.031-1479.743  0.00  0.00    -0.648 OA
ATOM    146  OE2 GLU d   4    1458.554 433.259-1481.522  0.00  0.00    -0.648 OA
ENDBRANCH 143 144
ENDBRANCH 142 143
ENDBRANCH 111 142
ENDBRANCH 108 111
ENDBRANCH 106 107
BRANCH 106 147
ATOM    147  CB  SER d   5    1464.515 433.978-1477.209  0.00  0.00     0.199 C 
BRANCH 147 148
ATOM    148  OG  SER d   5    1465.247 433.099-1476.348  0.00  0.00    -0.398 OA
ATOM    149  HG  SER d   5    1464.758 432.274-1476.298  0.00  0.00     0.209 HD
ENDBRANCH 147 148
ENDBRANCH 106 147
ENDBRANCH 103 106
ENDBRANCH 101 102
BRANCH 101 150
ATOM    150  CB  ILE d   6    1468.280 430.427-1478.858  0.00  0.00     0.013 C 
ATOM    151  CG2 ILE d   6    1469.721 430.125-1479.374  0.00  0.00     0.012 C 
BRANCH 150 152
ATOM    152  CG1 ILE d   6    1468.299 430.364-1477.297  0.00  0.00     0.002 C 
ATOM    153  CD1 ILE d   6    1468.569 428.975-1476.682  0.00  0.00     0.005 C 
ENDBRANCH 150 152
ENDBRANCH 101 150
ENDBRANCH  98 101
ENDBRANCH  96  97
BRANCH  96 154
ATOM    154  CB  LEU d   7    1465.419 430.166-1483.478  0.00  0.00     0.038 C 
BRANCH 154 155
ATOM    155  CG  LEU d   7    1465.346 428.686-1483.012  0.00  0.00    -0.020 C 
ATOM    156  CD1 LEU d   7    1464.156 427.981-1483.678  0.00  0.00     0.009 C 
ATOM    157  CD2 LEU d   7    1466.639 427.907-1483.304  0.00  0.00     0.009 C 
ENDBRANCH 154 155
ENDBRANCH  96 154
ENDBRANCH  93  96
ENDBRANCH  91  92
BRANCH  91 158
ATOM    158  CB  ASP d   8    1464.563 435.451-1482.874  0.00  0.00     0.147 C 
BRANCH 158 159
ATOM    159  CG  ASP d   8    1464.344 436.871-1483.415  0.00  0.00     0.175 C 
ATOM    160  OD1 ASP d   8    1464.408 437.071-1484.645  0.00  0.00    -0.648 OA
ATOM    161  OD2 ASP d   8    1464.152 437.797-1482.599  0.00  0.00    -0.648 OA
ENDBRANCH 158 159
ENDBRANCH  91 158
ENDBRANCH  88  91
ENDBRANCH  86  87
BRANCH  86 162
ATOM    162  CB  THR d   9    1469.616 435.722-1480.993  0.00  0.00     0.146 C 
ATOM    163  CG2 THR d   9    1471.007 436.361-1480.791  0.00  0.00     0.042 C 
BRANCH 162 164
ATOM    164  OG1 THR d   9    1468.801 436.320-1479.994  0.00  0.00    -0.393 OA
ATOM    165  1HG THR d   9    1469.216 436.113-1479.152  0.00  0.00     0.210 HD
ENDBRANCH 162 164
ENDBRANCH  86 162
ENDBRANCH   1  86
TORSDOF 67
