@<TRIPOS>MOLECULE
2-4
267 268 16              
SMALL
USER_CHARGES
@<TRIPOS>ATOM
1	   N	198.887	31.862	-170.467	N.3	1	GLU1	-0.516	
2	  CA	199.446	33.211	-170.467	C.3	1	GLU1	0.040	
3	   C	200.955	33.171	-170.467	C.2	1	GLU1	0.537	
4	   O	201.631	33.870	-171.236	O.2	1	GLU1	-0.582	
5	  CB	198.923	33.996	-169.230	C.3	1	GLU1	0.056	
6	  CG	199.398	35.481	-169.119	C.3	1	GLU1	0.014	
7	  CD	198.974	36.285	-167.904	C.2	1	GLU1	0.805	
8	 OE1	198.246	35.783	-167.026	O.co2	1	GLU1	-0.819	
9	 OE2	199.404	37.455	-167.832	O.co2	1	GLU1	-0.819	
10	   H	199.514	30.983	-170.467	 H	1	GLU1	0.294	
11	  HA	199.120	33.729	-171.387	 H	1	GLU1	0.111	
12	 2HB	199.212	33.465	-168.300	 H	1	GLU1	-0.017	
13	 3HB	197.816	33.986	-169.217	 H	1	GLU1	-0.017	
14	 2HG	199.088	36.066	-170.000	 H	1	GLU1	-0.043	
15	 3HG	200.498	35.548	-169.090	 H	1	GLU1	-0.043	
16	   N	201.560	32.385	-169.642	N.am	2	VAL2	-0.416	
17	  CA	203.020	32.346	-169.642	C.3	2	VAL2	-0.087	
18	   C	203.551	31.990	-171.010	C.2	2	VAL2	0.597	
19	   O	204.472	32.624	-171.542	O.2	2	VAL2	-0.568	
20	  CB	203.528	31.316	-168.557	C.3	2	VAL2	0.299	
21	 CG1	205.053	31.016	-168.552	C.3	2	VAL2	-0.319	
22	 CG2	203.188	31.720	-167.102	C.3	2	VAL2	-0.319	
23	   H	201.032	31.805	-169.006	 H	2	VAL2	0.272	
24	  HA	203.403	33.353	-169.398	 H	2	VAL2	0.097	
25	  HB	203.017	30.350	-168.756	 H	2	VAL2	-0.030	
26	1HG1	205.662	31.923	-168.380	 H	2	VAL2	0.079	
27	2HG1	205.333	30.280	-167.774	 H	2	VAL2	0.079	
28	3HG1	205.398	30.568	-169.503	 H	2	VAL2	0.079	
29	1HG2	202.105	31.896	-166.967	 H	2	VAL2	0.079	
30	2HG2	203.460	30.926	-166.380	 H	2	VAL2	0.079	
31	3HG2	203.711	32.643	-166.788	 H	2	VAL2	0.079	
32	   N	203.030	30.995	-171.644	N.am	3	PRO3	-0.255	
33	  CA	203.482	30.586	-172.965	C.3	3	PRO3	-0.027	
34	   C	203.084	31.609	-174.043	C.2	3	PRO3	0.590	
35	   O	203.908	31.992	-174.874	O.2	3	PRO3	-0.575	
36	  CB	202.778	29.231	-173.135	C.3	3	PRO3	-0.007	
37	  CG	201.494	29.384	-172.305	C.3	3	PRO3	0.019	
38	  CD	201.952	30.202	-171.095	C.3	3	PRO3	0.019	
39	  HA	204.568	30.466	-172.979	 H	3	PRO3	0.064	
40	 2HB	203.400	28.450	-172.694	 H	3	PRO3	0.025	
41	 3HB	202.580	28.982	-174.180	 H	3	PRO3	0.025	
42	 2HG	201.066	28.421	-172.014	 H	3	PRO3	0.021	
43	 3HG	200.757	29.954	-172.872	 H	3	PRO3	0.021	
44	 2HD	202.341	29.553	-170.307	 H	3	PRO3	0.039	
45	 3HD	201.155	30.838	-170.702	 H	3	PRO3	0.039	
46	   N	201.880	32.069	-174.075	N.am	4	GLU4	-0.516	
47	  CA	201.520	33.040	-175.105	C.3	4	GLU4	0.040	
48	   C	202.419	34.251	-175.044	C.2	4	GLU4	0.537	
49	   O	202.946	34.730	-176.058	O.2	4	GLU4	-0.582	
50	  CB	200.032	33.459	-174.935	C.3	4	GLU4	0.056	
51	  CG	199.484	34.462	-176.001	C.3	4	GLU4	0.014	
52	  CD	198.057	34.959	-175.858	C.2	4	GLU4	0.805	
53	 OE1	197.331	34.561	-174.927	O.co2	4	GLU4	-0.819	
54	 OE2	197.668	35.788	-176.707	O.co2	4	GLU4	-0.819	
55	   H	201.195	31.763	-173.399	 H	4	GLU4	0.294	
56	  HA	201.651	32.569	-176.096	 H	4	GLU4	0.111	
57	 2HB	199.879	33.899	-173.929	 H	4	GLU4	-0.017	
58	 3HB	199.384	32.561	-174.942	 H	4	GLU4	-0.017	
59	 2HG	199.566	34.047	-177.019	 H	4	GLU4	-0.043	
60	 3HG	200.072	35.394	-176.013	 H	4	GLU4	-0.043	
61	   N	202.646	34.804	-173.901	N.am	5	SER5	-0.416	
62	  CA	203.516	35.975	-173.842	C.3	5	SER5	-0.025	
63	   C	204.875	35.670	-174.428	C.2	5	SER5	0.597	
64	   O	205.422	36.423	-175.232	O.2	5	SER5	-0.568	
65	  CB	203.627	36.508	-172.392	C.3	5	SER5	0.212	
66	  OG	204.358	35.629	-171.531	O.3	5	SER5	-0.655	
67	   H	202.229	34.433	-173.059	 H	5	SER5	0.272	
68	  HA	203.067	36.765	-174.472	 H	5	SER5	0.084	
69	 2HB	202.627	36.702	-171.959	 H	5	SER5	0.035	
70	 3HB	204.132	37.493	-172.394	 H	5	SER5	0.035	
71	  HG	203.870	34.804	-171.480	 H	5	SER5	0.428	
72	   N	205.479	34.587	-174.073	N.am	6	ILE6	-0.416	
73	  CA	206.793	34.292	-174.639	C.3	6	ILE6	-0.060	
74	   C	206.736	34.254	-176.147	C.2	6	ILE6	0.597	
75	   O	207.571	34.841	-176.851	O.2	6	ILE6	-0.568	
76	  CB	207.392	32.956	-174.039	C.3	6	ILE6	0.130	
77	 CG1	207.411	32.894	-172.477	C.3	6	ILE6	-0.043	
78	 CG2	208.834	32.654	-174.553	C.3	6	ILE6	-0.320	
79	 CD1	207.681	31.505	-171.862	C.3	6	ILE6	-0.066	
80	   H	205.051	33.952	-173.414	 H	6	ILE6	0.272	
81	  HA	207.467	35.126	-174.371	 H	6	ILE6	0.087	
82	  HB	206.735	32.130	-174.383	 H	6	ILE6	0.019	
83	2HG1	206.429	33.214	-172.082	 H	6	ILE6	0.024	
84	3HG1	208.127	33.636	-172.073	 H	6	ILE6	0.024	
85	1HG2	208.893	32.560	-175.652	 H	6	ILE6	0.088	
86	2HG2	209.556	33.436	-174.251	 H	6	ILE6	0.088	
87	3HG2	209.224	31.692	-174.174	 H	6	ILE6	0.088	
88	1HD1	206.953	30.750	-172.217	 H	6	ILE6	0.019	
89	2HD1	208.692	31.126	-172.098	 H	6	ILE6	0.019	
90	3HD1	207.605	31.535	-170.759	 H	6	ILE6	0.019	
91	   N	205.790	33.590	-176.721	N.am	7	LEU7	-0.416	
92	  CA	205.736	33.554	-178.179	C.3	7	LEU7	-0.052	
93	   C	205.664	34.949	-178.752	C.2	7	LEU7	0.597	
94	   O	206.384	35.312	-179.694	O.2	7	LEU7	-0.568	
95	  CB	204.533	32.693	-178.660	C.3	7	LEU7	-0.110	
96	  CG	204.460	31.214	-178.193	C.3	7	LEU7	0.353	
97	 CD1	203.270	30.508	-178.859	C.3	7	LEU7	-0.412	
98	 CD2	205.754	30.435	-178.484	C.3	7	LEU7	-0.412	
99	   H	205.098	33.103	-176.169	 H	7	LEU7	0.272	
100	  HA	206.678	33.114	-178.553	 H	7	LEU7	0.092	
101	 2HB	204.510	32.709	-179.767	 H	7	LEU7	0.046	
102	 3HB	203.593	33.196	-178.356	 H	7	LEU7	0.046	
103	  HG	204.290	31.206	-177.096	 H	7	LEU7	-0.036	
104	1HD1	202.313	31.017	-178.636	 H	7	LEU7	0.100	
105	2HD1	203.370	30.467	-179.960	 H	7	LEU7	0.100	
106	3HD1	203.163	29.467	-178.502	 H	7	LEU7	0.100	
107	1HD2	206.029	30.465	-179.554	 H	7	LEU7	0.100	
108	2HD2	206.607	30.846	-177.913	 H	7	LEU7	0.100	
109	3HD2	205.672	29.373	-178.188	 H	7	LEU7	0.100	
110	   N	204.826	35.790	-178.246	N.am	8	ASP8	-0.516	
111	  CA	204.756	37.139	-178.799	C.3	8	ASP8	0.038	
112	   C	206.102	37.819	-178.742	C.2	8	ASP8	0.537	
113	   O	206.575	38.424	-179.716	O.2	8	ASP8	-0.582	
114	  CB	203.677	37.978	-178.058	C.3	8	ASP8	-0.030	
115	  CG	203.459	39.399	-178.599	C.2	8	ASP8	0.799	
116	 OD1	203.523	39.598	-179.829	O.co2	8	ASP8	-0.801	
117	 OD2	203.266	40.325	-177.783	O.co2	8	ASP8	-0.801	
118	   H	204.228	35.519	-177.478	 H	8	ASP8	0.294	
119	  HA	204.473	37.061	-179.866	 H	8	ASP8	0.088	
120	 2HB	203.934	38.061	-176.986	 H	8	ASP8	-0.012	
121	 3HB	202.698	37.473	-178.091	 H	8	ASP8	-0.012	
122	   N	206.782	37.769	-177.646	N.am	9	GLU9	-0.516	
123	  CA	208.084	38.427	-177.591	C.3	9	GLU9	0.040	
124	   C	209.003	37.899	-178.666	C.2	9	GLU9	0.537	
125	   O	209.667	38.654	-179.391	O.2	9	GLU9	-0.582	
126	  CB	208.718	38.219	-176.185	C.3	9	GLU9	0.056	
127	  CG	210.100	38.912	-175.955	C.3	9	GLU9	0.014	
128	  CD	210.801	38.699	-174.627	C.2	9	GLU9	0.805	
129	 OE1	210.280	38.008	-173.731	O.co2	9	GLU9	-0.819	
130	 OE2	211.920	39.237	-174.495	O.co2	9	GLU9	-0.819	
131	   H	206.418	37.283	-176.839	 H	9	GLU9	0.294	
132	  HA	207.942	39.509	-177.766	 H	9	GLU9	0.111	
133	 2HB	208.831	37.135	-175.982	 H	9	GLU9	-0.017	
134	 3HB	208.020	38.573	-175.401	 H	9	GLU9	-0.017	
135	 2HG	210.028	40.003	-176.095	 H	9	GLU9	-0.043	
136	 3HG	210.847	38.567	-176.689	 H	9	GLU9	-0.043	
137	   N	209.100	36.624	-178.836	N.am	10	HIS10	-0.416	
138	  CA	209.988	36.113	-179.876	C.3	10	HIS10	-0.058	
139	   C	209.621	36.677	-181.227	C.2	10	HIS10	0.597	
140	   O	210.474	37.142	-181.998	O.2	10	HIS10	-0.568	
141	  CB	209.824	34.584	-179.871	C.3	10	HIS10	-0.007	
142	  CG	211.110	33.874	-179.562	C.2	10	HIS10	0.187	
143	 CD2	211.490	33.539	-178.269	C.2	10	HIS10	-0.221	
144	 ND1	212.062	33.468	-180.494	N.2	10	HIS10	-0.543	
145	 CE1	212.968	32.910	-179.671	C.2	10	HIS10	0.163	
146	 NE2	212.705	32.907	-178.336	N.pl3	10	HIS10	-0.280	
147	   H	208.569	35.989	-178.257	 H	10	HIS10	0.272	
148	  HA	211.007	36.470	-179.650	 H	10	HIS10	0.136	
149	 2HB	209.459	34.217	-180.851	 H	10	HIS10	0.037	
150	 3HB	209.068	34.247	-179.131	 H	10	HIS10	0.037	
151	 2HD	210.904	33.754	-177.381	 H	10	HIS10	0.186	
152	 1HE	213.860	32.489	-180.117	 H	10	HIS10	0.144	
153	 2HE	213.272	32.530	-177.562	 H	10	HIS10	0.334	
154	   N	208.384	36.676	-181.590	N.am	11	VAL11	-0.416	
155	  CA	208.029	37.222	-182.897	C.3	11	VAL11	-0.087	
156	   C	208.493	38.653	-183.030	C.2	11	VAL11	0.597	
157	   O	209.094	39.058	-184.032	O.2	11	VAL11	-0.568	
158	  CB	206.468	37.115	-183.117	C.3	11	VAL11	0.299	
159	 CG1	205.899	37.819	-184.380	C.3	11	VAL11	-0.319	
160	 CG2	205.943	35.661	-183.190	C.3	11	VAL11	-0.319	
161	   H	207.671	36.303	-180.980	 H	11	VAL11	0.272	
162	  HA	208.549	36.640	-183.679	 H	11	VAL11	0.097	
163	  HB	205.980	37.595	-182.242	 H	11	VAL11	-0.030	
164	1HG1	206.338	37.427	-185.317	 H	11	VAL11	0.079	
165	2HG1	204.801	37.711	-184.462	 H	11	VAL11	0.079	
166	3HG1	206.077	38.911	-184.371	 H	11	VAL11	0.079	
167	1HG2	206.233	35.074	-182.300	 H	11	VAL11	0.079	
168	2HG2	204.838	35.624	-183.233	 H	11	VAL11	0.079	
169	3HG2	206.326	35.120	-184.077	 H	11	VAL11	0.079	
170	   N	208.255	39.478	-182.067	N.am	12	GLN12	-0.416	
171	  CA	208.704	40.861	-182.194	C.3	12	GLN12	-0.003	
172	   C	210.194	40.929	-182.432	C.2	12	GLN12	0.597	
173	   O	210.681	41.638	-183.310	O.2	12	GLN12	-0.568	
174	  CB	208.312	41.629	-180.912	C.3	12	GLN12	-0.004	
175	  CG	208.672	43.151	-180.881	C.3	12	GLN12	-0.064	
176	  CD	208.369	43.964	-179.616	C.2	12	GLN12	0.695	
177	 NE2	207.802	43.388	-178.587	N.pl3	12	GLN12	-0.941	
178	 OE1	208.671	45.145	-179.538	O.2	12	GLN12	-0.609	
179	   H	207.766	39.172	-181.238	 H	12	GLN12	0.272	
180	  HA	208.204	41.318	-183.070	 H	12	GLN12	0.085	
181	 2HB	208.788	41.129	-180.042	 H	12	GLN12	0.017	
182	 3HB	207.222	41.521	-180.749	 H	12	GLN12	0.017	
183	 2HG	208.195	43.671	-181.732	 H	12	GLN12	0.035	
184	 3HG	209.756	43.293	-181.046	 H	12	GLN12	0.035	
185	1HE2	207.694	43.982	-177.764	 H	12	GLN12	0.425	
186	2HE2	207.638	42.384	-178.691	 H	12	GLN12	0.425	
187	   N	210.978	40.223	-181.691	N.am	13	ARG13	-0.348	
188	  CA	212.419	40.289	-181.921	C.3	13	ARG13	-0.264	
189	   C	212.755	39.917	-183.346	C.2	13	ARG13	0.734	
190	   O	213.524	40.589	-184.030	O.2	13	ARG13	-0.589	
191	  CB	213.132	39.350	-180.907	C.3	13	ARG13	-0.001	
192	  CG	214.677	39.503	-180.825	C.3	13	ARG13	0.039	
193	  CD	215.303	38.516	-179.827	C.3	13	ARG13	0.049	
194	  NE	216.781	38.723	-179.776	N.pl3	13	ARG13	-0.530	
195	  CZ	217.629	38.032	-179.021	C.cat	13	ARG13	0.808	
196	 NH1	217.263	37.067	-178.223	N.pl3	13	ARG13	-0.863	
197	 NH2	218.888	38.331	-179.077	N.pl3	13	ARG13	-0.863	
198	   H	210.602	39.633	-180.962	 H	13	ARG13	0.275	
199	  HA	212.743	41.335	-181.762	 H	13	ARG13	0.156	
200	 2HB	212.866	38.299	-181.146	 H	13	ARG13	0.033	
201	 3HB	212.706	39.516	-179.896	 H	13	ARG13	0.033	
202	 2HG	214.924	40.548	-180.546	 H	13	ARG13	0.029	
203	 3HG	215.128	39.347	-181.826	 H	13	ARG13	0.029	
204	 2HD	215.059	37.476	-180.136	 H	13	ARG13	0.069	
205	 3HD	214.847	38.661	-178.825	 H	13	ARG13	0.069	
206	  HE	217.232	39.445	-180.347	 H	13	ARG13	0.346	
207	1HH1	216.258	36.881	-178.227	 H	13	ARG13	0.448	
208	2HH1	217.976	36.584	-177.674	 H	13	ARG13	0.448	
209	1HH2	219.156	39.089	-179.708	 H	13	ARG13	0.448	
210	2HH2	219.523	37.790	-178.488	 H	13	ARG13	0.448	
211	   N	212.220	38.863	-183.860	N.am	14	VAL14	-0.416	
212	  CA	212.545	38.503	-185.238	C.3	14	VAL14	-0.087	
213	   C	212.215	39.633	-186.183	C.2	14	VAL14	0.597	
214	   O	213.009	40.015	-187.053	O.2	14	VAL14	-0.568	
215	  CB	211.773	37.186	-185.645	C.3	14	VAL14	0.299	
216	 CG1	211.863	36.768	-187.138	C.3	14	VAL14	-0.319	
217	 CG2	212.205	35.934	-184.844	C.3	14	VAL14	-0.319	
218	   H	211.585	38.294	-183.319	 H	14	VAL14	0.272	
219	  HA	213.633	38.327	-185.312	 H	14	VAL14	0.097	
220	  HB	210.697	37.357	-185.429	 H	14	VAL14	-0.030	
221	1HG1	212.904	36.591	-187.467	 H	14	VAL14	0.079	
222	2HG1	211.290	35.845	-187.351	 H	14	VAL14	0.079	
223	3HG1	211.434	37.530	-187.817	 H	14	VAL14	0.079	
224	1HG2	212.117	36.092	-183.754	 H	14	VAL14	0.079	
225	2HG2	211.569	35.057	-185.077	 H	14	VAL14	0.079	
226	3HG2	213.253	35.644	-185.050	 H	14	VAL14	0.079	
227	   N	211.070	40.219	-186.082	N.am	15	MET15	-0.416	
228	  CA	210.750	41.312	-186.996	C.3	15	MET15	-0.024	
229	   C	211.780	42.412	-186.908	C.2	15	MET15	0.597	
230	   O	212.283	42.922	-187.920	O.2	15	MET15	-0.568	
231	  CB	209.328	41.857	-186.687	C.3	15	MET15	0.034	
232	  CG	208.166	40.859	-186.879	C.3	15	MET15	0.002	
233	  SD	206.592	41.724	-186.766	S.3	15	MET15	-0.274	
234	  CE	205.511	40.294	-186.629	C.3	15	MET15	-0.054	
235	   H	210.405	39.926	-185.381	 H	15	MET15	0.272	
236	  HA	210.776	40.924	-188.031	 H	15	MET15	0.088	
237	 2HB	209.126	42.736	-187.330	 H	15	MET15	0.024	
238	 3HB	209.292	42.249	-185.651	 H	15	MET15	0.024	
239	 2HG	208.209	40.073	-186.102	 H	15	MET15	0.044	
240	 3HG	208.230	40.343	-187.856	 H	15	MET15	0.044	
241	 1HE	205.655	39.606	-187.482	 H	15	MET15	0.068	
242	 2HE	205.720	39.742	-185.696	 H	15	MET15	0.068	
243	 3HE	204.454	40.609	-186.613	 H	15	MET15	0.068	
244	   N	212.148	42.833	-185.745	N.am	16	ARG16	-0.348	
245	  CA	213.144	43.897	-185.661	C.3	16	ARG16	-0.264	
246	   C	214.415	43.504	-186.377	C.2	16	ARG16	0.734	
247	   O	214.529	42.428	-186.959	O.2	16	ARG16	-0.589	
248	  CB	213.413	44.215	-184.163	C.3	16	ARG16	-0.001	
249	  CG	214.238	45.504	-183.890	C.3	16	ARG16	0.039	
250	  CD	214.487	45.723	-182.389	C.3	16	ARG16	0.049	
251	  NE	215.263	46.982	-182.187	N.pl3	16	ARG16	-0.530	
252	  CZ	215.654	47.465	-181.012	C.cat	16	ARG16	0.808	
253	 NH1	215.406	46.881	-179.873	N.pl3	16	ARG16	-0.863	
254	 NH2	216.317	48.578	-180.993	N.pl3	16	ARG16	-0.863	
255	   H	211.753	42.433	-184.906	 H	16	ARG16	0.275	
256	  HA	212.735	44.789	-186.171	 H	16	ARG16	0.156	
257	 2HB	213.910	43.339	-183.697	 H	16	ARG16	0.033	
258	 3HB	212.444	44.296	-183.630	 H	16	ARG16	0.033	
259	 2HG	213.707	46.375	-184.327	 H	16	ARG16	0.029	
260	 3HG	215.211	45.451	-184.419	 H	16	ARG16	0.029	
261	 2HD	215.036	44.849	-181.975	 H	16	ARG16	0.069	
262	 3HD	213.514	45.766	-181.854	 H	16	ARG16	0.069	
263	  HE	215.541	47.563	-182.985	 H	16	ARG16	0.346	
264	1HH1	214.880	46.007	-179.958	 H	16	ARG16	0.448	
265	2HH1	215.740	47.316	-179.012	 H	16	ARG16	0.448	
266	1HH2	216.503	49.021	-181.895	 H	16	ARG16	0.448	
267	2HH2	216.607	48.933	-180.080	 H	16	ARG16	0.448	
@<TRIPOS>BOND
1 1 2 1
2 1 10 1
3 2 3 1
4 2 5 1
5 2 11 1
6 3 4 2
7 3 16 1
8 5 6 1
9 6 7 1
10 7 8 2
11 7 9 1
12 5 12 1
13 5 13 1
14 6 14 1
15 6 15 1
16 16 17 1
17 16 23 1
18 17 18 1
19 17 20 1
20 17 24 1
21 18 19 2
22 18 32 1
23 20 21 1
24 20 22 1
25 20 25 1
26 21 26 1
27 21 27 1
28 21 28 1
29 22 29 1
30 22 30 1
31 22 31 1
32 32 33 1
33 32 38 1
34 33 34 1
35 33 36 1
36 33 39 1
37 34 35 2
38 34 46 1
39 36 37 1
40 37 38 1
41 36 40 1
42 36 41 1
43 37 42 1
44 37 43 1
45 38 44 1
46 38 45 1
47 46 47 1
48 46 55 1
49 47 48 1
50 47 50 1
51 47 56 1
52 48 49 2
53 48 61 1
54 50 51 1
55 51 52 1
56 52 53 2
57 52 54 1
58 50 57 1
59 50 58 1
60 51 59 1
61 51 60 1
62 61 62 1
63 61 67 1
64 62 63 1
65 62 65 1
66 62 68 1
67 63 64 2
68 63 72 1
69 65 66 1
70 65 69 1
71 65 70 1
72 66 71 1
73 72 73 1
74 72 80 1
75 73 74 1
76 73 76 1
77 73 81 1
78 74 75 2
79 74 91 1
80 76 77 1
81 76 78 1
82 77 79 1
83 76 82 1
84 77 83 1
85 77 84 1
86 78 85 1
87 78 86 1
88 78 87 1
89 79 88 1
90 79 89 1
91 79 90 1
92 91 92 1
93 91 99 1
94 92 93 1
95 92 95 1
96 92 100 1
97 93 94 2
98 93 110 1
99 95 96 1
100 96 97 1
101 96 98 1
102 95 101 1
103 95 102 1
104 96 103 1
105 97 104 1
106 97 105 1
107 97 106 1
108 98 107 1
109 98 108 1
110 98 109 1
111 110 111 1
112 110 118 1
113 111 112 1
114 111 114 1
115 111 119 1
116 112 113 2
117 112 122 1
118 114 115 1
119 115 116 2
120 115 117 1
121 114 120 1
122 114 121 1
123 122 123 1
124 122 131 1
125 123 124 1
126 123 126 1
127 123 132 1
128 124 125 2
129 124 137 1
130 126 127 1
131 127 128 1
132 128 129 2
133 128 130 1
134 126 133 1
135 126 134 1
136 127 135 1
137 127 136 1
138 137 138 1
139 137 147 1
140 138 139 1
141 138 141 1
142 138 148 1
143 139 140 2
144 139 154 1
145 141 142 1
146 142 143 2
147 143 146 1
148 142 144 1
149 144 145 2
150 145 146 1
151 141 149 1
152 141 150 1
153 143 151 1
154 145 152 1
155 146 153 1
156 154 155 1
157 154 161 1
158 155 156 1
159 155 158 1
160 155 162 1
161 156 157 2
162 156 170 1
163 158 159 1
164 158 160 1
165 158 163 1
166 159 164 1
167 159 165 1
168 159 166 1
169 160 167 1
170 160 168 1
171 160 169 1
172 170 171 1
173 170 179 1
174 171 172 1
175 171 174 1
176 171 180 1
177 172 173 2
178 172 187 1
179 174 175 1
180 175 176 1
181 176 177 1
182 176 178 2
183 174 181 1
184 174 182 1
185 175 183 1
186 175 184 1
187 177 185 1
188 177 186 1
189 187 188 1
190 187 198 1
191 188 189 1
192 188 191 1
193 188 199 1
194 189 190 2
195 189 211 1
196 191 192 1
197 192 193 1
198 193 194 1
199 194 195 1
200 195 196 2
201 195 197 1
202 191 200 1
203 191 201 1
204 192 202 1
205 192 203 1
206 193 204 1
207 193 205 1
208 194 206 1
209 196 207 1
210 196 208 1
211 197 209 1
212 197 210 1
213 211 212 1
214 211 218 1
215 212 213 1
216 212 215 1
217 212 219 1
218 213 214 2
219 213 227 1
220 215 216 1
221 215 217 1
222 215 220 1
223 216 221 1
224 216 222 1
225 216 223 1
226 217 224 1
227 217 225 1
228 217 226 1
229 227 228 1
230 227 235 1
231 228 229 1
232 228 231 1
233 228 236 1
234 229 230 2
235 229 244 1
236 231 232 1
237 232 233 1
238 233 234 1
239 231 237 1
240 231 238 1
241 232 239 1
242 232 240 1
243 234 241 1
244 234 242 1
245 234 243 1
246 244 245 1
247 244 255 1
248 245 246 1
249 245 248 1
250 245 256 1
251 246 247 2
252 248 249 1
253 249 250 1
254 250 251 1
255 251 252 1
256 252 253 2
257 252 254 1
258 248 257 1
259 248 258 1
260 249 259 1
261 249 260 1
262 250 261 1
263 250 262 1
264 251 263 1
265 253 264 1
266 253 265 1
267 254 266 1
268 254 267 1
@<TRIPOS>SUBSTRUCTURE
1	GLU1	1	RESIDUE	1 ****	GLU
2	VAL2	16	RESIDUE	1 ****	VAL
3	PRO3	32	RESIDUE	1 ****	PRO
4	GLU4	46	RESIDUE	1 ****	GLU
5	SER5	61	RESIDUE	1 ****	SER
6	ILE6	72	RESIDUE	1 ****	ILE
7	LEU7	91	RESIDUE	1 ****	LEU
8	ASP8	110	RESIDUE	1 ****	ASP
9	GLU9	122	RESIDUE	1 ****	GLU
10	HIS10	137	RESIDUE	1 ****	HIS
11	VAL11	154	RESIDUE	1 ****	VAL
12	GLN12	170	RESIDUE	1 ****	GLN
13	ARG13	187	RESIDUE	1 ****	ARG
14	VAL14	211	RESIDUE	1 ****	VAL
15	MET15	227	RESIDUE	1 ****	MET
16	ARG16	244	RESIDUE	1 ****	ARG
