@<TRIPOS>MOLECULE
1-10
274 277 16              
SMALL
USER_CHARGES
@<TRIPOS>ATOM
1	   N	80.848	4.233	-50.158	N.3	1	TRP1	-0.416	
2	  CA	81.410	5.580	-50.187	C.3	1	TRP1	-0.027	
3	   C	82.920	5.537	-50.186	C.2	1	TRP1	0.597	
4	   O	83.591	6.213	-50.964	O.2	1	TRP1	-0.568	
5	  CB	80.906	6.368	-48.946	C.3	1	TRP1	-0.005	
6	  CG	79.400	6.647	-48.932	C.2	1	TRP1	-0.141	
7	 CD1	78.428	5.881	-48.256	C.2	1	TRP1	-0.164	
8	 CD2	78.703	7.613	-49.628	C.2	1	TRP1	0.124	
9	 CE2	77.323	7.427	-49.365	C.2	1	TRP1	0.138	
10	 CE3	79.139	8.641	-50.503	C.2	1	TRP1	-0.239	
11	 NE1	77.126	6.353	-48.510	N.pl3	1	TRP1	-0.342	
12	 CZ2	76.369	8.276	-49.967	C.2	1	TRP1	-0.260	
13	 CZ3	78.178	9.471	-51.080	C.2	1	TRP1	-0.197	
14	 CH2	76.813	9.294	-50.815	C.2	1	TRP1	-0.113	
15	   H	81.427	3.418	-50.140	 H	1	TRP1	0.272	
16	  HA	81.091	6.086	-51.118	 H	1	TRP1	0.112	
17	 2HB	81.426	7.342	-48.874	 H	1	TRP1	0.034	
18	 3HB	81.190	5.837	-48.016	 H	1	TRP1	0.034	
19	 1HD	78.657	5.009	-47.657	 H	1	TRP1	0.206	
20	 1HE	76.234	5.965	-48.183	 H	1	TRP1	0.341	
21	 3HE	80.189	8.780	-50.719	 H	1	TRP1	0.170	
22	 2HZ	75.316	8.138	-49.771	 H	1	TRP1	0.157	
23	 3HZ	78.494	10.264	-51.743	 H	1	TRP1	0.145	
24	 2HH	76.093	9.955	-51.273	 H	1	TRP1	0.142	
25	   N	83.523	4.768	-49.344	N.am	2	ASN2	-0.416	
26	  CA	84.982	4.727	-49.344	C.3	2	ASN2	0.014	
27	   C	85.513	4.341	-50.704	C.2	2	ASN2	0.597	
28	   O	86.428	4.958	-51.247	O.2	2	ASN2	-0.568	
29	  CB	85.473	3.726	-48.258	C.3	2	ASN2	-0.204	
30	  CG	85.011	3.982	-46.819	C.2	2	ASN2	0.713	
31	 ND2	85.607	4.911	-46.121	N.pl3	2	ASN2	-0.919	
32	 OD1	84.089	3.361	-46.311	O.2	2	ASN2	-0.593	
33	   H	82.994	4.203	-48.695	 H	2	ASN2	0.272	
34	  HA	85.361	5.741	-49.120	 H	2	ASN2	0.105	
35	 2HB	86.577	3.666	-48.260	 H	2	ASN2	0.080	
36	 3HB	85.142	2.703	-48.521	 H	2	ASN2	0.080	
37	1HD2	85.127	5.104	-45.238	 H	2	ASN2	0.420	
38	2HD2	86.309	5.472	-46.603	 H	2	ASN2	0.420	
39	   N	84.989	3.333	-51.317	N.am	3	PRO3	-0.255	
40	  CA	85.440	2.895	-52.629	C.3	3	PRO3	-0.027	
41	   C	85.043	3.895	-53.728	C.2	3	PRO3	0.590	
42	   O	85.867	4.259	-54.568	O.2	3	PRO3	-0.575	
43	  CB	84.734	1.538	-52.769	C.3	3	PRO3	-0.007	
44	  CG	83.451	1.710	-51.942	C.3	3	PRO3	0.019	
45	  CD	83.910	2.554	-50.750	C.3	3	PRO3	0.019	
46	  HA	86.526	2.773	-52.641	 H	3	PRO3	0.064	
47	 2HB	85.355	0.765	-52.312	 H	3	PRO3	0.025	
48	 3HB	84.535	1.267	-53.809	 H	3	PRO3	0.025	
49	 2HG	83.022	0.755	-51.630	 H	3	PRO3	0.021	
50	 3HG	82.714	2.270	-52.521	 H	3	PRO3	0.021	
51	 2HD	84.299	1.921	-49.949	 H	3	PRO3	0.039	
52	 3HD	83.115	3.199	-50.371	 H	3	PRO3	0.039	
53	   N	83.839	4.356	-53.770	N.am	4	GLU4	-0.516	
54	  CA	83.480	5.305	-54.820	C.3	4	GLU4	0.040	
55	   C	84.381	6.516	-54.785	C.2	4	GLU4	0.537	
56	   O	84.908	6.973	-55.810	O.2	4	GLU4	-0.582	
57	  CB	81.993	5.730	-54.658	C.3	4	GLU4	0.056	
58	  CG	81.446	6.711	-55.745	C.3	4	GLU4	0.014	
59	  CD	80.020	7.213	-55.612	C.2	4	GLU4	0.805	
60	 OE1	79.293	6.836	-54.672	O.co2	4	GLU4	-0.819	
61	 OE2	79.631	8.024	-56.478	O.co2	4	GLU4	-0.819	
62	   H	83.155	4.065	-53.086	 H	4	GLU4	0.294	
63	  HA	83.610	4.813	-55.801	 H	4	GLU4	0.111	
64	 2HB	81.841	6.192	-53.661	 H	4	GLU4	-0.017	
65	 3HB	81.344	4.833	-54.645	 H	4	GLU4	-0.017	
66	 2HG	81.526	6.274	-56.754	 H	4	GLU4	-0.043	
67	 3HG	82.035	7.642	-55.777	 H	4	GLU4	-0.043	
68	   N	84.610	7.093	-53.654	N.am	5	SER5	-0.416	
69	  CA	85.481	8.264	-53.622	C.3	5	SER5	-0.025	
70	   C	86.839	7.944	-54.201	C.2	5	SER5	0.597	
71	   O	87.387	8.679	-55.022	O.2	5	SER5	-0.568	
72	  CB	85.594	8.828	-52.183	C.3	5	SER5	0.212	
73	  OG	86.325	7.966	-51.303	O.3	5	SER5	-0.655	
74	   H	84.193	6.741	-52.805	 H	5	SER5	0.272	
75	  HA	85.033	9.041	-54.268	 H	5	SER5	0.084	
76	 2HB	84.595	9.032	-51.754	 H	5	SER5	0.035	
77	 3HB	86.101	9.812	-52.207	 H	5	SER5	0.035	
78	  HG	85.835	7.143	-51.235	 H	5	SER5	0.428	
79	   N	87.443	6.868	-53.824	N.am	6	ILE6	-0.416	
80	  CA	88.755	6.559	-54.384	C.3	6	ILE6	-0.060	
81	   C	88.697	6.489	-55.890	C.2	6	ILE6	0.597	
82	   O	89.533	7.060	-56.607	O.2	6	ILE6	-0.568	
83	  CB	89.353	5.235	-53.755	C.3	6	ILE6	0.130	
84	 CG1	89.373	5.207	-52.193	C.3	6	ILE6	-0.043	
85	 CG2	90.794	4.920	-54.264	C.3	6	ILE6	-0.320	
86	 CD1	89.641	3.831	-51.548	C.3	6	ILE6	-0.066	
87	   H	87.014	6.249	-53.151	 H	6	ILE6	0.272	
88	  HA	89.430	7.398	-54.134	 H	6	ILE6	0.087	
89	  HB	88.694	4.403	-54.081	 H	6	ILE6	0.019	
90	2HG1	88.392	5.537	-51.804	 H	6	ILE6	0.024	
91	3HG1	90.090	5.957	-51.805	 H	6	ILE6	0.024	
92	1HG2	90.852	4.803	-55.361	 H	6	ILE6	0.088	
93	2HG2	91.517	5.708	-53.979	 H	6	ILE6	0.088	
94	3HG2	91.183	3.966	-53.865	 H	6	ILE6	0.088	
95	1HD1	88.912	3.070	-51.886	 H	6	ILE6	0.019	
96	2HD1	90.651	3.446	-51.776	 H	6	ILE6	0.019	
97	3HD1	89.566	3.885	-50.447	 H	6	ILE6	0.019	
98	   N	87.750	5.815	-56.449	N.am	7	LEU7	-0.416	
99	  CA	87.695	5.747	-57.907	C.3	7	LEU7	-0.052	
100	   C	87.624	7.130	-58.509	C.2	7	LEU7	0.597	
101	   O	88.345	7.471	-59.459	O.2	7	LEU7	-0.568	
102	  CB	86.490	4.878	-58.368	C.3	7	LEU7	-0.110	
103	  CG	86.416	3.409	-57.869	C.3	7	LEU7	0.353	
104	 CD1	85.225	2.691	-58.519	C.3	7	LEU7	-0.412	
105	 CD2	87.708	2.622	-58.145	C.3	7	LEU7	-0.412	
106	   H	87.058	5.340	-55.887	 H	7	LEU7	0.272	
107	  HA	88.636	5.298	-58.272	 H	7	LEU7	0.092	
108	 2HB	86.467	4.870	-59.475	 H	7	LEU7	0.046	
109	 3HB	85.551	5.389	-58.074	 H	7	LEU7	0.046	
110	  HG	86.246	3.425	-56.772	 H	7	LEU7	-0.036	
111	1HD1	84.268	3.206	-58.307	 H	7	LEU7	0.100	
112	2HD1	85.323	2.627	-59.619	 H	7	LEU7	0.100	
113	3HD1	85.116	1.658	-58.141	 H	7	LEU7	0.100	
114	1HD2	87.983	2.629	-59.215	 H	7	LEU7	0.100	
115	2HD2	88.562	3.045	-57.583	 H	7	LEU7	0.100	
116	3HD2	87.625	1.567	-57.826	 H	7	LEU7	0.100	
117	   N	86.788	7.982	-58.021	N.am	8	ASP8	-0.516	
118	  CA	86.720	9.320	-58.603	C.3	8	ASP8	0.038	
119	   C	88.067	9.999	-58.561	C.2	8	ASP8	0.537	
120	   O	88.540	10.582	-59.549	O.2	8	ASP8	-0.582	
121	  CB	85.643	10.176	-57.879	C.3	8	ASP8	-0.030	
122	  CG	85.426	11.585	-58.450	C.2	8	ASP8	0.799	
123	 OD1	85.490	11.757	-59.685	O.co2	8	ASP8	-0.801	
124	 OD2	85.235	12.528	-57.655	O.co2	8	ASP8	-0.801	
125	   H	86.190	7.729	-57.247	 H	8	ASP8	0.294	
126	  HA	86.436	9.219	-59.668	 H	8	ASP8	0.088	
127	 2HB	85.901	10.282	-56.810	 H	8	ASP8	-0.012	
128	 3HB	84.663	9.672	-57.901	 H	8	ASP8	-0.012	
129	   N	88.747	9.972	-57.465	N.am	9	GLU9	-0.516	
130	  CA	90.051	10.628	-57.424	C.3	9	GLU9	0.040	
131	   C	90.968	10.076	-58.489	C.2	9	GLU9	0.537	
132	   O	91.633	10.814	-59.231	O.2	9	GLU9	-0.582	
133	  CB	90.685	10.450	-56.015	C.3	9	GLU9	0.056	
134	  CG	92.068	11.145	-55.801	C.3	9	GLU9	0.014	
135	  CD	92.770	10.960	-54.469	C.2	9	GLU9	0.805	
136	 OE1	92.248	10.289	-53.558	O.co2	9	GLU9	-0.819	
137	 OE2	93.890	11.499	-54.349	O.co2	9	GLU9	-0.819	
138	   H	88.383	9.503	-56.648	 H	9	GLU9	0.294	
139	  HA	89.910	11.706	-57.623	 H	9	GLU9	0.111	
140	 2HB	90.796	9.370	-55.789	 H	9	GLU9	-0.017	
141	 3HB	89.988	10.821	-55.238	 H	9	GLU9	-0.017	
142	 2HG	91.998	12.233	-55.964	 H	9	GLU9	-0.043	
143	 3HG	92.814	10.784	-56.528	 H	9	GLU9	-0.043	
144	   N	91.063	8.798	-58.631	N.am	10	HIS10	-0.416	
145	  CA	91.949	8.263	-59.660	C.3	10	HIS10	-0.058	
146	   C	91.583	8.799	-61.023	C.2	10	HIS10	0.597	
147	   O	92.436	9.246	-61.805	O.2	10	HIS10	-0.568	
148	  CB	91.784	6.735	-59.623	C.3	10	HIS10	-0.007	
149	  CG	93.068	6.030	-59.300	C.2	10	HIS10	0.187	
150	 CD2	93.449	5.722	-58.000	C.2	10	HIS10	-0.221	
151	 ND1	94.020	5.603	-60.223	N.2	10	HIS10	-0.543	
152	 CE1	94.926	5.061	-59.389	C.2	10	HIS10	0.163	
153	 NE2	94.663	5.087	-58.054	N.pl3	10	HIS10	-0.280	
154	   H	90.531	8.176	-58.039	 H	10	HIS10	0.272	
155	  HA	92.969	8.624	-59.443	 H	10	HIS10	0.136	
156	 2HB	91.418	6.347	-60.594	 H	10	HIS10	0.037	
157	 3HB	91.028	6.415	-58.875	 H	10	HIS10	0.037	
158	 2HD	92.864	5.957	-57.116	 H	10	HIS10	0.186	
159	 1HE	95.816	4.630	-59.827	 H	10	HIS10	0.144	
160	 2HE	95.230	4.726	-57.273	 H	10	HIS10	0.334	
161	   N	90.345	8.792	-61.386	N.am	11	VAL11	-0.416	
162	  CA	89.990	9.310	-62.704	C.3	11	VAL11	-0.087	
163	   C	90.456	10.737	-62.867	C.2	11	VAL11	0.597	
164	   O	91.057	11.119	-63.879	O.2	11	VAL11	-0.568	
165	  CB	88.429	9.200	-62.921	C.3	11	VAL11	0.299	
166	 CG1	87.861	9.878	-64.198	C.3	11	VAL11	-0.319	
167	 CG2	87.902	7.746	-62.962	C.3	11	VAL11	-0.319	
168	   H	89.632	8.433	-60.767	 H	11	VAL11	0.272	
169	  HA	90.509	8.710	-63.474	 H	11	VAL11	0.097	
170	  HB	87.942	9.700	-62.056	 H	11	VAL11	-0.030	
171	1HG1	88.298	9.465	-65.127	 H	11	VAL11	0.079	
172	2HG1	86.761	9.770	-64.277	 H	11	VAL11	0.079	
173	3HG1	88.040	10.970	-64.212	 H	11	VAL11	0.079	
174	1HG2	88.192	7.177	-62.059	 H	11	VAL11	0.079	
175	2HG2	86.796	7.709	-63.004	 H	11	VAL11	0.079	
176	3HG2	88.283	7.186	-63.837	 H	11	VAL11	0.079	
177	   N	90.220	11.583	-61.923	N.am	12	GLN12	-0.416	
178	  CA	90.671	12.963	-62.080	C.3	12	GLN12	-0.003	
179	   C	92.160	13.023	-62.319	C.2	12	GLN12	0.597	
180	   O	92.648	13.712	-63.213	O.2	12	GLN12	-0.568	
181	  CB	90.281	13.758	-60.814	C.3	12	GLN12	-0.004	
182	  CG	90.643	15.280	-60.815	C.3	12	GLN12	-0.064	
183	  CD	90.342	16.120	-59.568	C.2	12	GLN12	0.695	
184	 NE2	89.774	15.567	-58.527	N.pl3	12	GLN12	-0.941	
185	 OE1	90.645	17.302	-59.516	O.2	12	GLN12	-0.609	
186	   H	89.731	11.296	-61.087	 H	12	GLN12	0.272	
187	  HA	90.171	13.401	-62.964	 H	12	GLN12	0.085	
188	 2HB	90.757	13.276	-59.934	 H	12	GLN12	0.017	
189	 3HB	89.191	13.655	-60.648	 H	12	GLN12	0.017	
190	 2HG	90.166	15.783	-61.677	 H	12	GLN12	0.035	
191	 3HG	91.727	15.417	-60.984	 H	12	GLN12	0.035	
192	1HE2	89.668	16.179	-57.717	 H	12	GLN12	0.425	
193	2HE2	89.610	14.562	-58.609	 H	12	GLN12	0.425	
194	   N	92.944	12.331	-61.564	N.am	13	ARG13	-0.348	
195	  CA	94.385	12.390	-61.796	C.3	13	ARG13	-0.264	
196	   C	94.720	11.988	-63.213	C.2	13	ARG13	0.734	
197	   O	95.489	12.644	-63.912	O.2	13	ARG13	-0.589	
198	  CB	95.097	11.473	-60.763	C.3	13	ARG13	-0.001	
199	  CG	96.642	11.626	-60.685	C.3	13	ARG13	0.039	
200	  CD	97.268	10.659	-59.667	C.3	13	ARG13	0.049	
201	  NE	98.746	10.865	-59.621	N.pl3	13	ARG13	-0.530	
202	  CZ	99.593	10.189	-58.851	C.cat	13	ARG13	0.808	
203	 NH1	99.227	9.242	-58.033	N.pl3	13	ARG13	-0.863	
204	 NH2	100.853	10.485	-58.915	N.pl3	13	ARG13	-0.863	
205	   H	92.568	11.758	-60.823	 H	13	ARG13	0.275	
206	  HA	94.710	13.439	-61.660	 H	13	ARG13	0.156	
207	 2HB	94.830	10.418	-60.979	 H	13	ARG13	0.033	
208	 3HB	94.673	11.661	-59.756	 H	13	ARG13	0.033	
209	 2HG	96.892	12.676	-60.428	 H	13	ARG13	0.029	
210	 3HG	97.093	11.447	-61.683	 H	13	ARG13	0.029	
211	 2HD	97.023	9.613	-59.953	 H	13	ARG13	0.069	
212	 3HD	96.812	10.826	-58.667	 H	13	ARG13	0.069	
213	  HE	99.198	11.574	-60.207	 H	13	ARG13	0.346	
214	1HH1	98.222	9.057	-58.032	 H	13	ARG13	0.448	
215	2HH1	99.940	8.770	-57.475	 H	13	ARG13	0.448	
216	1HH2	101.121	11.229	-59.562	 H	13	ARG13	0.448	
217	2HH2	101.488	9.956	-58.315	 H	13	ARG13	0.448	
218	   N	94.182	10.923	-63.704	N.am	14	VAL14	-0.416	
219	  CA	94.506	10.534	-65.074	C.3	14	VAL14	-0.087	
220	   C	94.177	11.644	-66.044	C.2	14	VAL14	0.597	
221	   O	94.971	12.006	-66.921	O.2	14	VAL14	-0.568	
222	  CB	93.732	9.210	-65.452	C.3	14	VAL14	0.299	
223	 CG1	93.820	8.759	-66.936	C.3	14	VAL14	-0.319	
224	 CG2	94.163	7.974	-64.625	C.3	14	VAL14	-0.319	
225	   H	93.547	10.367	-63.150	 H	14	VAL14	0.272	
226	  HA	95.594	10.355	-65.145	 H	14	VAL14	0.097	
227	  HB	92.656	9.387	-65.240	 H	14	VAL14	-0.030	
228	1HG1	94.861	8.574	-67.262	 H	14	VAL14	0.079	
229	2HG1	93.246	7.832	-67.129	 H	14	VAL14	0.079	
230	3HG1	93.392	9.507	-67.631	 H	14	VAL14	0.079	
231	1HG2	94.076	8.156	-63.538	 H	14	VAL14	0.079	
232	2HG2	93.526	7.094	-64.839	 H	14	VAL14	0.079	
233	3HG2	95.210	7.679	-64.825	 H	14	VAL14	0.079	
234	   N	93.033	12.233	-65.954	N.am	15	MET15	-0.416	
235	  CA	92.714	13.307	-66.891	C.3	15	MET15	-0.024	
236	   C	93.746	14.407	-66.827	C.2	15	MET15	0.597	
237	   O	94.249	14.895	-67.851	O.2	15	MET15	-0.568	
238	  CB	91.294	13.860	-66.593	C.3	15	MET15	0.034	
239	  CG	90.130	12.860	-66.763	C.3	15	MET15	0.002	
240	  SD	88.557	13.730	-66.667	S.3	15	MET15	-0.274	
241	  CE	87.474	12.305	-66.500	C.3	15	MET15	-0.054	
242	   H	92.368	11.956	-65.246	 H	15	MET15	0.272	
243	  HA	92.739	12.897	-67.918	 H	15	MET15	0.088	
244	 2HB	91.092	14.725	-67.254	 H	15	MET15	0.024	
245	 3HB	91.259	14.275	-65.566	 H	15	MET15	0.024	
246	 2HG	90.172	12.091	-65.969	 H	15	MET15	0.044	
247	 3HG	90.192	12.324	-67.728	 H	15	MET15	0.044	
248	 1HE	87.617	11.598	-67.337	 H	15	MET15	0.068	
249	 2HE	87.683	11.772	-65.555	 H	15	MET15	0.068	
250	 3HE	86.417	12.622	-66.489	 H	15	MET15	0.068	
251	   N	94.115	14.852	-65.674	N.am	16	ARG16	-0.348	
252	  CA	95.113	15.916	-65.614	C.3	16	ARG16	-0.264	
253	   C	96.383	15.507	-66.322	C.2	16	ARG16	0.734	
254	   O	96.495	14.418	-66.880	O.2	16	ARG16	-0.589	
255	  CB	95.383	16.266	-64.123	C.3	16	ARG16	-0.001	
256	  CG	96.210	17.560	-63.878	C.3	16	ARG16	0.039	
257	  CD	96.460	17.811	-62.382	C.3	16	ARG16	0.049	
258	  NE	97.238	19.073	-62.208	N.pl3	16	ARG16	-0.530	
259	  CZ	97.630	19.580	-61.043	C.cat	16	ARG16	0.808	
260	 NH1	97.382	19.020	-59.892	N.pl3	16	ARG16	-0.863	
261	 NH2	98.296	20.692	-61.049	N.pl3	16	ARG16	-0.863	
262	   H	93.720	14.471	-64.827	 H	16	ARG16	0.275	
263	  HA	94.705	16.798	-66.143	 H	16	ARG16	0.156	
264	 2HB	95.879	15.400	-63.638	 H	16	ARG16	0.033	
265	 3HB	94.415	16.360	-63.590	 H	16	ARG16	0.033	
266	 2HG	95.681	18.422	-64.334	 H	16	ARG16	0.029	
267	 3HG	97.183	17.494	-64.406	 H	16	ARG16	0.029	
268	 2HD	97.008	16.945	-61.950	 H	16	ARG16	0.069	
269	 3HD	95.488	17.866	-61.847	 H	16	ARG16	0.069	
270	  HE	97.517	19.636	-63.018	 H	16	ARG16	0.346	
271	1HH1	96.856	18.146	-59.958	 H	16	ARG16	0.448	
272	2HH1	97.718	19.474	-59.041	 H	16	ARG16	0.448	
273	1HH2	98.482	21.115	-61.960	 H	16	ARG16	0.448	
274	2HH2	98.587	21.066	-60.144	 H	16	ARG16	0.448	
@<TRIPOS>BOND
1 1 2 1
2 1 15 1
3 2 3 1
4 2 5 1
5 2 16 1
6 3 4 2
7 3 25 1
8 5 6 1
9 6 8 1
10 6 7 2
11 8 10 1
12 8 9 2
13 9 11 1
14 10 13 2
15 7 11 1
16 9 12 1
17 13 14 1
18 12 14 2
19 5 17 1
20 5 18 1
21 7 19 1
22 11 20 1
23 10 21 1
24 12 22 1
25 13 23 1
26 14 24 1
27 25 26 1
28 25 33 1
29 26 27 1
30 26 29 1
31 26 34 1
32 27 28 2
33 27 39 1
34 29 30 1
35 30 31 1
36 30 32 2
37 29 35 1
38 29 36 1
39 31 37 1
40 31 38 1
41 39 40 1
42 39 45 1
43 40 41 1
44 40 43 1
45 40 46 1
46 41 42 2
47 41 53 1
48 43 44 1
49 44 45 1
50 43 47 1
51 43 48 1
52 44 49 1
53 44 50 1
54 45 51 1
55 45 52 1
56 53 54 1
57 53 62 1
58 54 55 1
59 54 57 1
60 54 63 1
61 55 56 2
62 55 68 1
63 57 58 1
64 58 59 1
65 59 60 2
66 59 61 1
67 57 64 1
68 57 65 1
69 58 66 1
70 58 67 1
71 68 69 1
72 68 74 1
73 69 70 1
74 69 72 1
75 69 75 1
76 70 71 2
77 70 79 1
78 72 73 1
79 72 76 1
80 72 77 1
81 73 78 1
82 79 80 1
83 79 87 1
84 80 81 1
85 80 83 1
86 80 88 1
87 81 82 2
88 81 98 1
89 83 84 1
90 83 85 1
91 84 86 1
92 83 89 1
93 84 90 1
94 84 91 1
95 85 92 1
96 85 93 1
97 85 94 1
98 86 95 1
99 86 96 1
100 86 97 1
101 98 99 1
102 98 106 1
103 99 100 1
104 99 102 1
105 99 107 1
106 100 101 2
107 100 117 1
108 102 103 1
109 103 104 1
110 103 105 1
111 102 108 1
112 102 109 1
113 103 110 1
114 104 111 1
115 104 112 1
116 104 113 1
117 105 114 1
118 105 115 1
119 105 116 1
120 117 118 1
121 117 125 1
122 118 119 1
123 118 121 1
124 118 126 1
125 119 120 2
126 119 129 1
127 121 122 1
128 122 123 2
129 122 124 1
130 121 127 1
131 121 128 1
132 129 130 1
133 129 138 1
134 130 131 1
135 130 133 1
136 130 139 1
137 131 132 2
138 131 144 1
139 133 134 1
140 134 135 1
141 135 136 2
142 135 137 1
143 133 140 1
144 133 141 1
145 134 142 1
146 134 143 1
147 144 145 1
148 144 154 1
149 145 146 1
150 145 148 1
151 145 155 1
152 146 147 2
153 146 161 1
154 148 149 1
155 149 150 2
156 150 153 1
157 149 151 1
158 151 152 2
159 152 153 1
160 148 156 1
161 148 157 1
162 150 158 1
163 152 159 1
164 153 160 1
165 161 162 1
166 161 168 1
167 162 163 1
168 162 165 1
169 162 169 1
170 163 164 2
171 163 177 1
172 165 166 1
173 165 167 1
174 165 170 1
175 166 171 1
176 166 172 1
177 166 173 1
178 167 174 1
179 167 175 1
180 167 176 1
181 177 178 1
182 177 186 1
183 178 179 1
184 178 181 1
185 178 187 1
186 179 180 2
187 179 194 1
188 181 182 1
189 182 183 1
190 183 184 1
191 183 185 2
192 181 188 1
193 181 189 1
194 182 190 1
195 182 191 1
196 184 192 1
197 184 193 1
198 194 195 1
199 194 205 1
200 195 196 1
201 195 198 1
202 195 206 1
203 196 197 2
204 196 218 1
205 198 199 1
206 199 200 1
207 200 201 1
208 201 202 1
209 202 203 2
210 202 204 1
211 198 207 1
212 198 208 1
213 199 209 1
214 199 210 1
215 200 211 1
216 200 212 1
217 201 213 1
218 203 214 1
219 203 215 1
220 204 216 1
221 204 217 1
222 218 219 1
223 218 225 1
224 219 220 1
225 219 222 1
226 219 226 1
227 220 221 2
228 220 234 1
229 222 223 1
230 222 224 1
231 222 227 1
232 223 228 1
233 223 229 1
234 223 230 1
235 224 231 1
236 224 232 1
237 224 233 1
238 234 235 1
239 234 242 1
240 235 236 1
241 235 238 1
242 235 243 1
243 236 237 2
244 236 251 1
245 238 239 1
246 239 240 1
247 240 241 1
248 238 244 1
249 238 245 1
250 239 246 1
251 239 247 1
252 241 248 1
253 241 249 1
254 241 250 1
255 251 252 1
256 251 262 1
257 252 253 1
258 252 255 1
259 252 263 1
260 253 254 2
261 255 256 1
262 256 257 1
263 257 258 1
264 258 259 1
265 259 260 2
266 259 261 1
267 255 264 1
268 255 265 1
269 256 266 1
270 256 267 1
271 257 268 1
272 257 269 1
273 258 270 1
274 260 271 1
275 260 272 1
276 261 273 1
277 261 274 1
@<TRIPOS>SUBSTRUCTURE
1	TRP1	1	RESIDUE	1 ****	TRP
2	ASN2	25	RESIDUE	1 ****	ASN
3	PRO3	39	RESIDUE	1 ****	PRO
4	GLU4	53	RESIDUE	1 ****	GLU
5	SER5	68	RESIDUE	1 ****	SER
6	ILE6	79	RESIDUE	1 ****	ILE
7	LEU7	98	RESIDUE	1 ****	LEU
8	ASP8	117	RESIDUE	1 ****	ASP
9	GLU9	129	RESIDUE	1 ****	GLU
10	HIS10	144	RESIDUE	1 ****	HIS
11	VAL11	161	RESIDUE	1 ****	VAL
12	GLN12	177	RESIDUE	1 ****	GLN
13	ARG13	194	RESIDUE	1 ****	ARG
14	VAL14	218	RESIDUE	1 ****	VAL
15	MET15	234	RESIDUE	1 ****	MET
16	ARG16	251	RESIDUE	1 ****	ARG
