@<TRIPOS>MOLECULE
13-14
255 256 16              
SMALL
USER_CHARGES
@<TRIPOS>ATOM
1	   N	2112.363	642.349	-2186.693	N.3	1	GLU1	-0.516	
2	  CA	2112.922	643.698	-2186.693	C.3	1	GLU1	0.040	
3	   C	2114.431	643.658	-2186.693	C.2	1	GLU1	0.537	
4	   O	2115.107	644.357	-2187.462	O.2	1	GLU1	-0.582	
5	  CB	2112.399	644.483	-2185.457	C.3	1	GLU1	0.056	
6	  CG	2112.874	645.968	-2185.345	C.3	1	GLU1	0.014	
7	  CD	2112.450	646.772	-2184.130	C.2	1	GLU1	0.805	
8	 OE1	2111.722	646.270	-2183.252	O.co2	1	GLU1	-0.819	
9	 OE2	2112.880	647.942	-2184.058	O.co2	1	GLU1	-0.819	
10	   H	2112.990	641.470	-2186.693	 H	1	GLU1	0.294	
11	  HA	2112.596	644.216	-2187.614	 H	1	GLU1	0.111	
12	 2HB	2112.688	643.952	-2184.526	 H	1	GLU1	-0.017	
13	 3HB	2111.292	644.473	-2185.443	 H	1	GLU1	-0.017	
14	 2HG	2112.564	646.553	-2186.226	 H	1	GLU1	-0.043	
15	 3HG	2113.974	646.035	-2185.316	 H	1	GLU1	-0.043	
16	   N	2115.035	642.872	-2185.868	N.am	2	ASN2	-0.416	
17	  CA	2116.495	642.833	-2185.868	C.3	2	ASN2	0.014	
18	   C	2117.026	642.478	-2187.237	C.2	2	ASN2	0.597	
19	   O	2117.941	643.108	-2187.765	O.2	2	ASN2	-0.568	
20	  CB	2116.986	641.810	-2184.803	C.3	2	ASN2	-0.204	
21	  CG	2116.523	642.034	-2183.360	C.2	2	ASN2	0.713	
22	 ND2	2117.117	642.949	-2182.642	N.pl3	2	ASN2	-0.919	
23	 OD1	2115.602	641.401	-2182.866	O.2	2	ASN2	-0.593	
24	   H	2114.507	642.293	-2185.232	 H	2	ASN2	0.272	
25	  HA	2116.872	643.843	-2185.623	 H	2	ASN2	0.105	
26	 2HB	2118.091	641.751	-2184.807	 H	2	ASN2	0.080	
27	 3HB	2116.657	640.792	-2185.089	 H	2	ASN2	0.080	
28	1HD2	2116.636	643.122	-2181.756	 H	2	ASN2	0.420	
29	2HD2	2117.819	643.521	-2183.111	 H	2	ASN2	0.420	
30	   N	2116.505	641.483	-2187.871	N.am	3	PRO3	-0.255	
31	  CA	2116.957	641.074	-2189.192	C.3	3	PRO3	-0.027	
32	   C	2116.559	642.097	-2190.269	C.2	3	PRO3	0.590	
33	   O	2117.383	642.480	-2191.101	O.2	3	PRO3	-0.575	
34	  CB	2116.252	639.719	-2189.362	C.3	3	PRO3	-0.007	
35	  CG	2114.969	639.871	-2188.532	C.3	3	PRO3	0.019	
36	  CD	2115.426	640.690	-2187.322	C.3	3	PRO3	0.019	
37	  HA	2118.043	640.954	-2189.206	 H	3	PRO3	0.064	
38	 2HB	2116.875	638.938	-2188.921	 H	3	PRO3	0.025	
39	 3HB	2116.054	639.471	-2190.407	 H	3	PRO3	0.025	
40	 2HG	2114.541	638.909	-2188.241	 H	3	PRO3	0.021	
41	 3HG	2114.232	640.443	-2189.100	 H	3	PRO3	0.021	
42	 2HD	2115.815	640.040	-2186.535	 H	3	PRO3	0.039	
43	 3HD	2114.630	641.326	-2186.929	 H	3	PRO3	0.039	
44	   N	2115.354	642.558	-2190.302	N.am	4	GLU4	-0.516	
45	  CA	2114.995	643.529	-2191.332	C.3	4	GLU4	0.040	
46	   C	2115.894	644.739	-2191.270	C.2	4	GLU4	0.537	
47	   O	2116.421	645.219	-2192.284	O.2	4	GLU4	-0.582	
48	  CB	2113.507	643.948	-2191.162	C.3	4	GLU4	0.056	
49	  CG	2112.959	644.951	-2192.228	C.3	4	GLU4	0.014	
50	  CD	2111.533	645.448	-2192.085	C.2	4	GLU4	0.805	
51	 OE1	2110.806	645.050	-2191.154	O.co2	4	GLU4	-0.819	
52	 OE2	2111.144	646.278	-2192.933	O.co2	4	GLU4	-0.819	
53	   H	2114.670	642.251	-2189.625	 H	4	GLU4	0.294	
54	  HA	2115.127	643.058	-2192.323	 H	4	GLU4	0.111	
55	 2HB	2113.354	644.387	-2190.156	 H	4	GLU4	-0.017	
56	 3HB	2112.859	643.050	-2191.168	 H	4	GLU4	-0.017	
57	 2HG	2113.041	644.537	-2193.246	 H	4	GLU4	-0.043	
58	 3HG	2113.548	645.884	-2192.239	 H	4	GLU4	-0.043	
59	   N	2116.121	645.292	-2190.127	N.am	5	SER5	-0.416	
60	  CA	2116.991	646.463	-2190.068	C.3	5	SER5	-0.025	
61	   C	2118.350	646.157	-2190.653	C.2	5	SER5	0.597	
62	   O	2118.898	646.910	-2191.458	O.2	5	SER5	-0.568	
63	  CB	2117.103	646.995	-2188.618	C.3	5	SER5	0.212	
64	  OG	2117.833	646.115	-2187.757	O.3	5	SER5	-0.655	
65	   H	2115.704	644.920	-2189.286	 H	5	SER5	0.272	
66	  HA	2116.542	647.254	-2190.697	 H	5	SER5	0.084	
67	 2HB	2116.103	647.189	-2188.185	 H	5	SER5	0.035	
68	 3HB	2117.608	647.981	-2188.620	 H	5	SER5	0.035	
69	  HG	2117.344	645.291	-2187.706	 H	5	SER5	0.428	
70	   N	2118.954	645.074	-2190.299	N.am	6	ILE6	-0.416	
71	  CA	2120.268	644.778	-2190.865	C.3	6	ILE6	-0.060	
72	   C	2120.210	644.741	-2192.373	C.2	6	ILE6	0.597	
73	   O	2121.045	645.328	-2193.077	O.2	6	ILE6	-0.568	
74	  CB	2120.867	643.442	-2190.265	C.3	6	ILE6	0.130	
75	 CG1	2120.885	643.379	-2188.704	C.3	6	ILE6	-0.043	
76	 CG2	2122.308	643.139	-2190.780	C.3	6	ILE6	-0.320	
77	 CD1	2121.155	641.990	-2188.089	C.3	6	ILE6	-0.066	
78	   H	2118.525	644.439	-2189.640	 H	6	ILE6	0.272	
79	  HA	2120.942	645.612	-2190.597	 H	6	ILE6	0.087	
80	  HB	2120.208	642.616	-2190.609	 H	6	ILE6	0.019	
81	2HG1	2119.904	643.700	-2188.308	 H	6	ILE6	0.024	
82	3HG1	2121.602	644.121	-2188.299	 H	6	ILE6	0.024	
83	1HG2	2122.367	643.046	-2191.878	 H	6	ILE6	0.088	
84	2HG2	2123.030	643.922	-2190.477	 H	6	ILE6	0.088	
85	3HG2	2122.698	642.177	-2190.401	 H	6	ILE6	0.088	
86	1HD1	2120.426	641.236	-2188.444	 H	6	ILE6	0.019	
87	2HD1	2122.165	641.611	-2188.324	 H	6	ILE6	0.019	
88	3HD1	2121.078	642.020	-2186.986	 H	6	ILE6	0.019	
89	   N	2119.264	644.077	-2192.946	N.am	7	LEU7	-0.416	
90	  CA	2119.209	644.041	-2194.405	C.3	7	LEU7	-0.052	
91	   C	2119.137	645.436	-2194.978	C.2	7	LEU7	0.597	
92	   O	2119.858	645.798	-2195.920	O.2	7	LEU7	-0.568	
93	  CB	2118.006	643.181	-2194.885	C.3	7	LEU7	-0.110	
94	  CG	2117.933	641.702	-2194.419	C.3	7	LEU7	0.353	
95	 CD1	2116.743	640.997	-2195.084	C.3	7	LEU7	-0.412	
96	 CD2	2119.226	640.922	-2194.710	C.3	7	LEU7	-0.412	
97	   H	2118.572	643.591	-2192.395	 H	7	LEU7	0.272	
98	  HA	2120.151	643.601	-2194.779	 H	7	LEU7	0.092	
99	 2HB	2117.983	643.197	-2195.993	 H	7	LEU7	0.046	
100	 3HB	2117.066	643.684	-2194.581	 H	7	LEU7	0.046	
101	  HG	2117.763	641.694	-2193.322	 H	7	LEU7	-0.036	
102	1HD1	2115.786	641.506	-2194.862	 H	7	LEU7	0.100	
103	2HD1	2116.842	640.956	-2196.186	 H	7	LEU7	0.100	
104	3HD1	2116.635	639.955	-2194.728	 H	7	LEU7	0.100	
105	1HD2	2119.501	640.953	-2195.780	 H	7	LEU7	0.100	
106	2HD2	2120.080	641.334	-2194.139	 H	7	LEU7	0.100	
107	3HD2	2119.145	639.860	-2194.414	 H	7	LEU7	0.100	
108	   N	2118.301	646.278	-2194.472	N.am	8	ASP8	-0.516	
109	  CA	2118.231	647.627	-2195.026	C.3	8	ASP8	0.038	
110	   C	2119.578	648.306	-2194.969	C.2	8	ASP8	0.537	
111	   O	2120.051	648.910	-2195.944	O.2	8	ASP8	-0.582	
112	  CB	2117.153	648.467	-2194.285	C.3	8	ASP8	-0.030	
113	  CG	2116.935	649.888	-2194.826	C.2	8	ASP8	0.799	
114	 OD1	2117.000	650.086	-2196.057	O.co2	8	ASP8	-0.801	
115	 OD2	2116.744	650.814	-2194.011	O.co2	8	ASP8	-0.801	
116	   H	2117.703	646.007	-2193.704	 H	8	ASP8	0.294	
117	  HA	2117.948	647.549	-2196.093	 H	8	ASP8	0.088	
118	 2HB	2117.410	648.551	-2193.213	 H	8	ASP8	-0.012	
119	 3HB	2116.174	647.962	-2194.318	 H	8	ASP8	-0.012	
120	   N	2120.258	648.257	-2193.874	N.am	9	GLU9	-0.516	
121	  CA	2121.561	648.914	-2193.819	C.3	9	GLU9	0.040	
122	   C	2122.479	648.385	-2194.895	C.2	9	GLU9	0.537	
123	   O	2123.142	649.138	-2195.621	O.2	9	GLU9	-0.582	
124	  CB	2122.195	648.706	-2192.414	C.3	9	GLU9	0.056	
125	  CG	2123.578	649.398	-2192.185	C.3	9	GLU9	0.014	
126	  CD	2124.280	649.185	-2190.857	C.2	9	GLU9	0.805	
127	 OE1	2123.758	648.495	-2189.960	O.co2	9	GLU9	-0.819	
128	 OE2	2125.399	649.722	-2190.726	O.co2	9	GLU9	-0.819	
129	   H	2119.894	647.771	-2193.067	 H	9	GLU9	0.294	
130	  HA	2121.419	649.995	-2193.995	 H	9	GLU9	0.111	
131	 2HB	2122.307	647.622	-2192.210	 H	9	GLU9	-0.017	
132	 3HB	2121.498	649.060	-2191.630	 H	9	GLU9	-0.017	
133	 2HG	2123.506	650.489	-2192.325	 H	9	GLU9	-0.043	
134	 3HG	2124.324	649.052	-2192.919	 H	9	GLU9	-0.043	
135	   N	2122.574	647.109	-2195.064	N.am	10	HIS10	-0.416	
136	  CA	2123.462	646.597	-2196.104	C.3	10	HIS10	-0.058	
137	   C	2123.095	647.161	-2197.456	C.2	10	HIS10	0.597	
138	   O	2123.948	647.625	-2198.228	O.2	10	HIS10	-0.568	
139	  CB	2123.297	645.068	-2196.099	C.3	10	HIS10	-0.007	
140	  CG	2124.583	644.357	-2195.791	C.2	10	HIS10	0.187	
141	 CD2	2124.964	644.023	-2194.498	C.2	10	HIS10	-0.221	
142	 ND1	2125.534	643.951	-2196.723	N.2	10	HIS10	-0.543	
143	 CE1	2126.440	643.393	-2195.900	C.2	10	HIS10	0.163	
144	 NE2	2126.178	643.391	-2194.565	N.pl3	10	HIS10	-0.280	
145	   H	2122.044	646.475	-2194.485	 H	10	HIS10	0.272	
146	  HA	2124.481	646.954	-2195.880	 H	10	HIS10	0.136	
147	 2HB	2122.931	644.701	-2197.078	 H	10	HIS10	0.037	
148	 3HB	2122.542	644.732	-2195.358	 H	10	HIS10	0.037	
149	 2HD	2124.379	644.239	-2193.609	 H	10	HIS10	0.186	
150	 1HE	2127.331	642.971	-2196.347	 H	10	HIS10	0.144	
151	 2HE	2126.745	643.014	-2193.792	 H	10	HIS10	0.334	
152	   N	2121.857	647.161	-2197.819	N.am	11	VAL11	-0.416	
153	  CA	2121.502	647.706	-2199.126	C.3	11	VAL11	-0.087	
154	   C	2121.967	649.137	-2199.259	C.2	11	VAL11	0.597	
155	   O	2122.568	649.541	-2200.262	O.2	11	VAL11	-0.568	
156	  CB	2119.940	647.600	-2199.345	C.3	11	VAL11	0.299	
157	 CG1	2119.372	648.304	-2200.608	C.3	11	VAL11	-0.319	
158	 CG2	2119.415	646.147	-2199.417	C.3	11	VAL11	-0.319	
159	   H	2121.144	646.789	-2197.208	 H	11	VAL11	0.272	
160	  HA	2122.021	647.123	-2199.908	 H	11	VAL11	0.097	
161	  HB	2119.453	648.081	-2198.470	 H	11	VAL11	-0.030	
162	1HG1	2119.810	647.911	-2201.545	 H	11	VAL11	0.079	
163	2HG1	2118.273	648.197	-2200.690	 H	11	VAL11	0.079	
164	3HG1	2119.551	649.396	-2200.599	 H	11	VAL11	0.079	
165	1HG2	2119.705	645.560	-2198.526	 H	11	VAL11	0.079	
166	2HG2	2118.309	646.110	-2199.459	 H	11	VAL11	0.079	
167	3HG2	2119.797	645.605	-2200.303	 H	11	VAL11	0.079	
168	   N	2121.731	649.963	-2198.297	N.am	12	GLN12	-0.416	
169	  CA	2122.180	651.346	-2198.425	C.3	12	GLN12	-0.003	
170	   C	2123.670	651.412	-2198.663	C.2	12	GLN12	0.597	
171	   O	2124.157	652.120	-2199.542	O.2	12	GLN12	-0.568	
172	  CB	2121.790	652.114	-2197.143	C.3	12	GLN12	-0.004	
173	  CG	2122.151	653.636	-2197.112	C.3	12	GLN12	-0.064	
174	  CD	2121.849	654.450	-2195.848	C.2	12	GLN12	0.695	
175	 NE2	2121.282	653.874	-2194.819	N.pl3	12	GLN12	-0.941	
176	 OE1	2122.152	655.631	-2195.771	O.2	12	GLN12	-0.609	
177	   H	2121.242	649.657	-2197.468	 H	12	GLN12	0.272	
178	  HA	2121.680	651.802	-2199.300	 H	12	GLN12	0.085	
179	 2HB	2122.266	651.614	-2196.273	 H	12	GLN12	0.017	
180	 3HB	2120.699	652.007	-2196.979	 H	12	GLN12	0.017	
181	 2HG	2121.674	654.156	-2197.963	 H	12	GLN12	0.035	
182	 3HG	2123.234	653.777	-2197.278	 H	12	GLN12	0.035	
183	1HE2	2121.176	654.469	-2193.995	 H	12	GLN12	0.425	
184	2HE2	2121.118	652.871	-2194.921	 H	12	GLN12	0.425	
185	   N	2124.454	650.705	-2197.922	N.am	13	THR13	-0.416	
186	  CA	2125.893	650.770	-2198.153	C.3	13	THR13	-0.039	
187	   C	2126.231	650.398	-2199.576	C.2	13	THR13	0.597	
188	   O	2126.993	651.062	-2200.250	O.2	13	THR13	-0.568	
189	  CB	2126.654	649.844	-2197.143	C.3	13	THR13	0.365	
190	 CG2	2128.192	649.804	-2197.277	C.3	13	THR13	-0.244	
191	 OG1	2126.423	650.268	-2195.806	O.3	13	THR13	-0.676	
192	   H	2124.077	650.116	-2197.193	 H	13	THR13	0.272	
193	  HA	2126.225	651.813	-2197.996	 H	13	THR13	0.101	
194	  HB	2126.266	648.809	-2197.259	 H	13	THR13	0.004	
195	 1HG	2126.856	649.620	-2195.242	 H	13	THR13	0.410	
196	1HG2	2128.658	649.149	-2196.518	 H	13	THR13	0.064	
197	2HG2	2128.521	649.411	-2198.256	 H	13	THR13	0.064	
198	3HG2	2128.640	650.810	-2197.163	 H	13	THR13	0.064	
199	   N	2125.696	649.344	-2200.092	N.am	14	VAL14	-0.416	
200	  CA	2126.023	648.984	-2201.469	C.3	14	VAL14	-0.087	
201	   C	2125.695	650.114	-2202.415	C.2	14	VAL14	0.597	
202	   O	2126.490	650.495	-2203.283	O.2	14	VAL14	-0.568	
203	  CB	2125.251	647.668	-2201.877	C.3	14	VAL14	0.299	
204	 CG1	2125.343	647.249	-2203.371	C.3	14	VAL14	-0.319	
205	 CG2	2125.681	646.415	-2201.076	C.3	14	VAL14	-0.319	
206	   H	2125.060	648.775	-2199.551	 H	14	VAL14	0.272	
207	  HA	2127.111	648.807	-2201.541	 H	14	VAL14	0.097	
208	  HB	2124.174	647.839	-2201.663	 H	14	VAL14	-0.030	
209	1HG1	2126.385	647.072	-2203.698	 H	14	VAL14	0.079	
210	2HG1	2124.770	646.326	-2203.584	 H	14	VAL14	0.079	
211	3HG1	2124.915	648.012	-2204.050	 H	14	VAL14	0.079	
212	1HG2	2125.591	646.573	-2199.986	 H	14	VAL14	0.079	
213	2HG2	2125.045	645.539	-2201.310	 H	14	VAL14	0.079	
214	3HG2	2126.729	646.125	-2201.280	 H	14	VAL14	0.079	
215	   N	2124.551	650.701	-2202.315	N.am	15	MET15	-0.416	
216	  CA	2124.232	651.794	-2203.229	C.3	15	MET15	-0.024	
217	   C	2125.263	652.893	-2203.140	C.2	15	MET15	0.597	
218	   O	2125.768	653.403	-2204.151	O.2	15	MET15	-0.568	
219	  CB	2122.811	652.340	-2202.923	C.3	15	MET15	0.034	
220	  CG	2121.649	651.343	-2203.116	C.3	15	MET15	0.002	
221	  SD	2120.075	652.210	-2203.005	S.3	15	MET15	-0.274	
222	  CE	2118.993	650.781	-2202.870	C.3	15	MET15	-0.054	
223	   H	2123.884	650.409	-2201.615	 H	15	MET15	0.272	
224	  HA	2124.260	651.406	-2204.265	 H	15	MET15	0.088	
225	 2HB	2122.610	653.219	-2203.565	 H	15	MET15	0.024	
226	 3HB	2122.774	652.733	-2201.886	 H	15	MET15	0.024	
227	 2HG	2121.690	650.557	-2202.339	 H	15	MET15	0.044	
228	 3HG	2121.713	650.827	-2204.093	 H	15	MET15	0.044	
229	 1HE	2119.137	650.092	-2203.722	 H	15	MET15	0.068	
230	 2HE	2119.200	650.228	-2201.937	 H	15	MET15	0.068	
231	 3HE	2117.935	651.097	-2202.855	 H	15	MET15	0.068	
232	   N	2125.630	653.314	-2201.977	N.am	16	ARG16	-0.348	
233	  CA	2126.627	654.377	-2201.891	C.3	16	ARG16	-0.264	
234	   C	2127.899	653.984	-2202.605	C.2	16	ARG16	0.734	
235	   O	2128.013	652.907	-2203.187	O.2	16	ARG16	-0.589	
236	  CB	2126.894	654.695	-2200.393	C.3	16	ARG16	-0.001	
237	  CG	2127.719	655.984	-2200.118	C.3	16	ARG16	0.039	
238	  CD	2127.967	656.203	-2198.617	C.3	16	ARG16	0.049	
239	  NE	2128.743	657.461	-2198.414	N.pl3	16	ARG16	-0.530	
240	  CZ	2129.132	657.944	-2197.238	C.cat	16	ARG16	0.808	
241	 NH1	2128.882	657.359	-2196.100	N.pl3	16	ARG16	-0.863	
242	 NH2	2129.797	659.056	-2197.218	N.pl3	16	ARG16	-0.863	
243	   H	2125.234	652.914	-2201.138	 H	16	ARG16	0.275	
244	  HA	2126.220	655.270	-2202.402	 H	16	ARG16	0.156	
245	 2HB	2127.389	653.819	-2199.926	 H	16	ARG16	0.033	
246	 3HB	2125.924	654.776	-2199.860	 H	16	ARG16	0.033	
247	 2HG	2127.190	656.855	-2200.556	 H	16	ARG16	0.029	
248	 3HG	2128.694	655.930	-2200.646	 H	16	ARG16	0.029	
249	 2HD	2128.514	655.328	-2198.202	 H	16	ARG16	0.069	
250	 3HD	2126.993	656.246	-2198.083	 H	16	ARG16	0.069	
251	  HE	2129.023	658.042	-2199.211	 H	16	ARG16	0.346	
252	1HH1	2128.356	656.487	-2196.185	 H	16	ARG16	0.448	
253	2HH1	2129.216	657.795	-2195.238	 H	16	ARG16	0.448	
254	1HH2	2129.984	659.499	-2198.120	 H	16	ARG16	0.448	
255	2HH2	2130.085	659.411	-2196.305	 H	16	ARG16	0.448	
@<TRIPOS>BOND
1 1 2 1
2 1 10 1
3 2 3 1
4 2 5 1
5 2 11 1
6 3 4 2
7 3 16 1
8 5 6 1
9 6 7 1
10 7 8 2
11 7 9 1
12 5 12 1
13 5 13 1
14 6 14 1
15 6 15 1
16 16 17 1
17 16 24 1
18 17 18 1
19 17 20 1
20 17 25 1
21 18 19 2
22 18 30 1
23 20 21 1
24 21 22 1
25 21 23 2
26 20 26 1
27 20 27 1
28 22 28 1
29 22 29 1
30 30 31 1
31 30 36 1
32 31 32 1
33 31 34 1
34 31 37 1
35 32 33 2
36 32 44 1
37 34 35 1
38 35 36 1
39 34 38 1
40 34 39 1
41 35 40 1
42 35 41 1
43 36 42 1
44 36 43 1
45 44 45 1
46 44 53 1
47 45 46 1
48 45 48 1
49 45 54 1
50 46 47 2
51 46 59 1
52 48 49 1
53 49 50 1
54 50 51 2
55 50 52 1
56 48 55 1
57 48 56 1
58 49 57 1
59 49 58 1
60 59 60 1
61 59 65 1
62 60 61 1
63 60 63 1
64 60 66 1
65 61 62 2
66 61 70 1
67 63 64 1
68 63 67 1
69 63 68 1
70 64 69 1
71 70 71 1
72 70 78 1
73 71 72 1
74 71 74 1
75 71 79 1
76 72 73 2
77 72 89 1
78 74 75 1
79 74 76 1
80 75 77 1
81 74 80 1
82 75 81 1
83 75 82 1
84 76 83 1
85 76 84 1
86 76 85 1
87 77 86 1
88 77 87 1
89 77 88 1
90 89 90 1
91 89 97 1
92 90 91 1
93 90 93 1
94 90 98 1
95 91 92 2
96 91 108 1
97 93 94 1
98 94 95 1
99 94 96 1
100 93 99 1
101 93 100 1
102 94 101 1
103 95 102 1
104 95 103 1
105 95 104 1
106 96 105 1
107 96 106 1
108 96 107 1
109 108 109 1
110 108 116 1
111 109 110 1
112 109 112 1
113 109 117 1
114 110 111 2
115 110 120 1
116 112 113 1
117 113 114 2
118 113 115 1
119 112 118 1
120 112 119 1
121 120 121 1
122 120 129 1
123 121 122 1
124 121 124 1
125 121 130 1
126 122 123 2
127 122 135 1
128 124 125 1
129 125 126 1
130 126 127 2
131 126 128 1
132 124 131 1
133 124 132 1
134 125 133 1
135 125 134 1
136 135 136 1
137 135 145 1
138 136 137 1
139 136 139 1
140 136 146 1
141 137 138 2
142 137 152 1
143 139 140 1
144 140 141 2
145 141 144 1
146 140 142 1
147 142 143 2
148 143 144 1
149 139 147 1
150 139 148 1
151 141 149 1
152 143 150 1
153 144 151 1
154 152 153 1
155 152 159 1
156 153 154 1
157 153 156 1
158 153 160 1
159 154 155 2
160 154 168 1
161 156 157 1
162 156 158 1
163 156 161 1
164 157 162 1
165 157 163 1
166 157 164 1
167 158 165 1
168 158 166 1
169 158 167 1
170 168 169 1
171 168 177 1
172 169 170 1
173 169 172 1
174 169 178 1
175 170 171 2
176 170 185 1
177 172 173 1
178 173 174 1
179 174 175 1
180 174 176 2
181 172 179 1
182 172 180 1
183 173 181 1
184 173 182 1
185 175 183 1
186 175 184 1
187 185 186 1
188 185 192 1
189 186 187 1
190 186 189 1
191 186 193 1
192 187 188 2
193 187 199 1
194 189 190 1
195 189 191 1
196 189 194 1
197 191 195 1
198 190 196 1
199 190 197 1
200 190 198 1
201 199 200 1
202 199 206 1
203 200 201 1
204 200 203 1
205 200 207 1
206 201 202 2
207 201 215 1
208 203 204 1
209 203 205 1
210 203 208 1
211 204 209 1
212 204 210 1
213 204 211 1
214 205 212 1
215 205 213 1
216 205 214 1
217 215 216 1
218 215 223 1
219 216 217 1
220 216 219 1
221 216 224 1
222 217 218 2
223 217 232 1
224 219 220 1
225 220 221 1
226 221 222 1
227 219 225 1
228 219 226 1
229 220 227 1
230 220 228 1
231 222 229 1
232 222 230 1
233 222 231 1
234 232 233 1
235 232 243 1
236 233 234 1
237 233 236 1
238 233 244 1
239 234 235 2
240 236 237 1
241 237 238 1
242 238 239 1
243 239 240 1
244 240 241 2
245 240 242 1
246 236 245 1
247 236 246 1
248 237 247 1
249 237 248 1
250 238 249 1
251 238 250 1
252 239 251 1
253 241 252 1
254 241 253 1
255 242 254 1
256 242 255 1
@<TRIPOS>SUBSTRUCTURE
1	GLU1	1	RESIDUE	1 ****	GLU
2	ASN2	16	RESIDUE	1 ****	ASN
3	PRO3	30	RESIDUE	1 ****	PRO
4	GLU4	44	RESIDUE	1 ****	GLU
5	SER5	59	RESIDUE	1 ****	SER
6	ILE6	70	RESIDUE	1 ****	ILE
7	LEU7	89	RESIDUE	1 ****	LEU
8	ASP8	108	RESIDUE	1 ****	ASP
9	GLU9	120	RESIDUE	1 ****	GLU
10	HIS10	135	RESIDUE	1 ****	HIS
11	VAL11	152	RESIDUE	1 ****	VAL
12	GLN12	168	RESIDUE	1 ****	GLN
13	THR13	185	RESIDUE	1 ****	THR
14	VAL14	199	RESIDUE	1 ****	VAL
15	MET15	215	RESIDUE	1 ****	MET
16	ARG16	232	RESIDUE	1 ****	ARG
