@<TRIPOS>MOLECULE
2-16
268 269 16              
SMALL
USER_CHARGES
@<TRIPOS>ATOM
1	   N	297.498	63.274	-275.588	N.3	1	GLU1	-0.516	
2	  CA	298.057	64.623	-275.588	C.3	1	GLU1	0.040	
3	   C	299.566	64.583	-275.588	C.2	1	GLU1	0.537	
4	   O	300.241	65.282	-276.357	O.2	1	GLU1	-0.582	
5	  CB	297.534	65.408	-274.351	C.3	1	GLU1	0.056	
6	  CG	298.009	66.893	-274.240	C.3	1	GLU1	0.014	
7	  CD	297.585	67.697	-273.025	C.2	1	GLU1	0.805	
8	 OE1	296.857	67.195	-272.147	O.co2	1	GLU1	-0.819	
9	 OE2	298.015	68.867	-272.953	O.co2	1	GLU1	-0.819	
10	   H	298.125	62.395	-275.588	 H	1	GLU1	0.294	
11	  HA	297.731	65.141	-276.508	 H	1	GLU1	0.111	
12	 2HB	297.823	64.877	-273.421	 H	1	GLU1	-0.017	
13	 3HB	296.427	65.398	-274.338	 H	1	GLU1	-0.017	
14	 2HG	297.699	67.478	-275.121	 H	1	GLU1	-0.043	
15	 3HG	299.109	66.960	-274.211	 H	1	GLU1	-0.043	
16	   N	300.170	63.797	-274.763	N.am	2	GLN2	-0.416	
17	  CA	301.629	63.758	-274.763	C.3	2	GLN2	-0.003	
18	   C	302.163	63.403	-276.130	C.2	2	GLN2	0.597	
19	   O	303.077	64.033	-276.656	O.2	2	GLN2	-0.568	
20	  CB	302.097	62.735	-273.703	C.3	2	GLN2	-0.004	
21	  CG	303.644	62.586	-273.523	C.3	2	GLN2	-0.064	
22	  CD	304.183	61.547	-272.533	C.2	2	GLN2	0.695	
23	 NE2	303.353	60.810	-271.840	N.pl3	2	GLN2	-0.941	
24	 OE1	305.384	61.373	-272.393	O.2	2	GLN2	-0.609	
25	   H	299.642	63.218	-274.127	 H	2	GLN2	0.272	
26	  HA	302.011	64.764	-274.505	 H	2	GLN2	0.085	
27	 2HB	301.667	61.744	-273.956	 H	2	GLN2	0.017	
28	 3HB	301.653	63.005	-272.725	 H	2	GLN2	0.017	
29	 2HG	304.091	63.562	-273.255	 H	2	GLN2	0.035	
30	 3HG	304.119	62.322	-274.485	 H	2	GLN2	0.035	
31	1HE2	303.793	60.099	-271.253	 H	2	GLN2	0.425	
32	2HE2	302.364	60.956	-272.054	 H	2	GLN2	0.425	
33	   N	301.643	62.408	-276.765	N.am	3	PRO3	-0.255	
34	  CA	302.097	61.999	-278.086	C.3	3	PRO3	-0.027	
35	   C	301.701	63.023	-279.164	C.2	3	PRO3	0.590	
36	   O	302.526	63.406	-279.993	O.2	3	PRO3	-0.575	
37	  CB	301.394	60.644	-278.257	C.3	3	PRO3	-0.007	
38	  CG	300.109	60.795	-277.430	C.3	3	PRO3	0.019	
39	  CD	300.564	61.614	-276.219	C.3	3	PRO3	0.019	
40	  HA	303.183	61.879	-278.098	 H	3	PRO3	0.064	
41	 2HB	302.016	59.863	-277.816	 H	3	PRO3	0.025	
42	 3HB	301.198	60.396	-279.303	 H	3	PRO3	0.025	
43	 2HG	299.681	59.833	-277.140	 H	3	PRO3	0.021	
44	 3HG	299.372	61.366	-277.998	 H	3	PRO3	0.021	
45	 2HD	300.952	60.964	-275.431	 H	3	PRO3	0.039	
46	 3HD	299.766	62.249	-275.827	 H	3	PRO3	0.039	
47	   N	300.496	63.482	-279.198	N.am	4	GLU4	-0.516	
48	  CA	300.138	64.453	-280.228	C.3	4	GLU4	0.040	
49	   C	301.037	65.665	-280.165	C.2	4	GLU4	0.537	
50	   O	301.565	66.145	-281.178	O.2	4	GLU4	-0.582	
51	  CB	298.649	64.871	-280.061	C.3	4	GLU4	0.056	
52	  CG	298.103	65.875	-281.128	C.3	4	GLU4	0.014	
53	  CD	296.676	66.371	-280.987	C.2	4	GLU4	0.805	
54	 OE1	295.948	65.972	-280.057	O.co2	4	GLU4	-0.819	
55	 OE2	296.288	67.200	-281.836	O.co2	4	GLU4	-0.819	
56	   H	299.811	63.175	-278.523	 H	4	GLU4	0.294	
57	  HA	300.272	63.983	-281.219	 H	4	GLU4	0.111	
58	 2HB	298.495	65.311	-279.054	 H	4	GLU4	-0.017	
59	 3HB	298.002	63.973	-280.069	 H	4	GLU4	-0.017	
60	 2HG	298.187	65.460	-282.145	 H	4	GLU4	-0.043	
61	 3HG	298.691	66.807	-281.137	 H	4	GLU4	-0.043	
62	   N	301.261	66.217	-279.021	N.am	5	SER5	-0.416	
63	  CA	302.130	67.389	-278.961	C.3	5	SER5	-0.025	
64	   C	303.490	67.084	-279.544	C.2	5	SER5	0.597	
65	   O	304.039	67.838	-280.347	O.2	5	SER5	-0.568	
66	  CB	302.239	67.921	-277.510	C.3	5	SER5	0.212	
67	  OG	302.969	67.042	-276.648	O.3	5	SER5	-0.655	
68	   H	300.843	65.845	-278.181	 H	5	SER5	0.272	
69	  HA	301.682	68.179	-279.591	 H	5	SER5	0.084	
70	 2HB	301.238	68.114	-277.079	 H	5	SER5	0.035	
71	 3HB	302.743	68.907	-277.511	 H	5	SER5	0.035	
72	  HG	302.481	66.216	-276.598	 H	5	SER5	0.428	
73	   N	304.095	66.001	-279.189	N.am	6	ILE6	-0.416	
74	  CA	305.409	65.707	-279.752	C.3	6	ILE6	-0.060	
75	   C	305.355	65.670	-281.260	C.2	6	ILE6	0.597	
76	   O	306.191	66.258	-281.962	O.2	6	ILE6	-0.568	
77	  CB	306.009	64.371	-279.151	C.3	6	ILE6	0.130	
78	 CG1	306.025	64.309	-277.590	C.3	6	ILE6	-0.043	
79	 CG2	307.451	64.070	-279.664	C.3	6	ILE6	-0.320	
80	 CD1	306.294	62.919	-276.975	C.3	6	ILE6	-0.066	
81	   H	303.666	65.366	-278.531	 H	6	ILE6	0.272	
82	  HA	306.083	66.542	-279.483	 H	6	ILE6	0.087	
83	  HB	305.352	63.545	-279.497	 H	6	ILE6	0.019	
84	2HG1	305.042	64.628	-277.196	 H	6	ILE6	0.024	
85	3HG1	306.740	65.051	-277.184	 H	6	ILE6	0.024	
86	1HG2	307.512	63.977	-280.762	 H	6	ILE6	0.088	
87	2HG2	308.172	64.853	-279.360	 H	6	ILE6	0.088	
88	3HG2	307.841	63.108	-279.285	 H	6	ILE6	0.088	
89	1HD1	305.567	62.165	-277.331	 H	6	ILE6	0.019	
90	2HD1	307.306	62.541	-277.209	 H	6	ILE6	0.019	
91	3HD1	306.216	62.949	-275.873	 H	6	ILE6	0.019	
92	   N	304.411	65.006	-281.836	N.am	7	LEU7	-0.416	
93	  CA	304.359	64.970	-283.295	C.3	7	LEU7	-0.052	
94	   C	304.287	66.366	-283.867	C.2	7	LEU7	0.597	
95	   O	305.010	66.729	-284.807	O.2	7	LEU7	-0.568	
96	  CB	303.157	64.110	-283.778	C.3	7	LEU7	-0.110	
97	  CG	303.084	62.630	-283.312	C.3	7	LEU7	0.353	
98	 CD1	301.896	61.924	-283.980	C.3	7	LEU7	-0.412	
99	 CD2	304.379	61.852	-283.601	C.3	7	LEU7	-0.412	
100	   H	303.718	64.518	-281.286	 H	7	LEU7	0.272	
101	  HA	305.302	64.531	-283.667	 H	7	LEU7	0.092	
102	 2HB	303.136	64.126	-284.885	 H	7	LEU7	0.046	
103	 3HB	302.217	64.612	-283.475	 H	7	LEU7	0.046	
104	  HG	302.912	62.622	-282.215	 H	7	LEU7	-0.036	
105	1HD1	300.938	62.433	-283.759	 H	7	LEU7	0.100	
106	2HD1	301.998	61.884	-285.081	 H	7	LEU7	0.100	
107	3HD1	301.789	60.883	-283.624	 H	7	LEU7	0.100	
108	1HD2	304.656	61.882	-284.670	 H	7	LEU7	0.100	
109	2HD2	305.231	62.263	-283.028	 H	7	LEU7	0.100	
110	3HD2	304.297	60.789	-283.305	 H	7	LEU7	0.100	
111	   N	303.449	67.206	-283.362	N.am	8	ASP8	-0.516	
112	  CA	303.379	68.555	-283.915	C.3	8	ASP8	0.038	
113	   C	304.725	69.236	-283.855	C.2	8	ASP8	0.537	
114	   O	305.199	69.842	-284.828	O.2	8	ASP8	-0.582	
115	  CB	302.299	69.394	-283.175	C.3	8	ASP8	-0.030	
116	  CG	302.080	70.814	-283.716	C.2	8	ASP8	0.799	
117	 OD1	302.147	71.014	-284.946	O.co2	8	ASP8	-0.801	
118	 OD2	301.886	71.740	-282.900	O.co2	8	ASP8	-0.801	
119	   H	302.849	66.934	-282.596	 H	8	ASP8	0.294	
120	  HA	303.098	68.478	-284.983	 H	8	ASP8	0.088	
121	 2HB	302.554	69.477	-282.103	 H	8	ASP8	-0.012	
122	 3HB	301.320	68.888	-283.210	 H	8	ASP8	-0.012	
123	   N	305.402	69.186	-282.758	N.am	9	GLU9	-0.516	
124	  CA	306.704	69.844	-282.700	C.3	9	GLU9	0.040	
125	   C	307.625	69.317	-283.774	C.2	9	GLU9	0.537	
126	   O	308.290	70.072	-284.498	O.2	9	GLU9	-0.582	
127	  CB	307.335	69.636	-281.293	C.3	9	GLU9	0.056	
128	  CG	308.717	70.329	-281.061	C.3	9	GLU9	0.014	
129	  CD	309.416	70.116	-279.731	C.2	9	GLU9	0.805	
130	 OE1	308.893	69.424	-278.836	O.co2	9	GLU9	-0.819	
131	 OE2	310.535	70.654	-279.597	O.co2	9	GLU9	-0.819	
132	   H	305.038	68.699	-281.952	 H	9	GLU9	0.294	
133	  HA	306.562	70.926	-282.875	 H	9	GLU9	0.111	
134	 2HB	307.448	68.552	-281.090	 H	9	GLU9	-0.017	
135	 3HB	306.636	69.989	-280.510	 H	9	GLU9	-0.017	
136	 2HG	308.645	71.420	-281.200	 H	9	GLU9	-0.043	
137	 3HG	309.465	69.985	-281.793	 H	9	GLU9	-0.043	
138	   N	307.723	68.042	-283.944	N.am	10	HIS10	-0.416	
139	  CA	308.613	67.532	-284.982	C.3	10	HIS10	-0.058	
140	   C	308.249	68.097	-286.334	C.2	10	HIS10	0.597	
141	   O	309.103	68.562	-287.104	O.2	10	HIS10	-0.568	
142	  CB	308.450	66.003	-284.978	C.3	10	HIS10	-0.007	
143	  CG	309.735	65.293	-284.668	C.2	10	HIS10	0.187	
144	 CD2	310.114	64.958	-283.375	C.2	10	HIS10	-0.221	
145	 ND1	310.689	64.888	-285.599	N.2	10	HIS10	-0.543	
146	 CE1	311.595	64.330	-284.774	C.2	10	HIS10	0.163	
147	 NE2	311.329	64.327	-283.439	N.pl3	10	HIS10	-0.280	
148	   H	307.191	67.406	-283.367	 H	10	HIS10	0.272	
149	  HA	309.631	67.890	-284.755	 H	10	HIS10	0.136	
150	 2HB	308.087	65.636	-285.959	 H	10	HIS10	0.037	
151	 3HB	307.693	65.665	-284.240	 H	10	HIS10	0.037	
152	 2HD	309.526	65.172	-282.487	 H	10	HIS10	0.186	
153	 1HE	312.487	63.910	-285.219	 H	10	HIS10	0.144	
154	 2HE	311.894	63.949	-282.665	 H	10	HIS10	0.334	
155	   N	307.012	68.095	-286.700	N.am	11	VAL11	-0.416	
156	  CA	306.659	68.642	-288.007	C.3	11	VAL11	-0.087	
157	   C	307.123	70.073	-288.138	C.2	11	VAL11	0.597	
158	   O	307.726	70.478	-289.139	O.2	11	VAL11	-0.568	
159	  CB	305.098	68.534	-288.230	C.3	11	VAL11	0.299	
160	 CG1	304.532	69.238	-289.493	C.3	11	VAL11	-0.319	
161	 CG2	304.575	67.080	-288.304	C.3	11	VAL11	-0.319	
162	   H	306.298	67.722	-286.091	 H	11	VAL11	0.272	
163	  HA	307.180	68.060	-288.788	 H	11	VAL11	0.097	
164	  HB	304.609	69.014	-287.355	 H	11	VAL11	-0.030	
165	1HG1	304.973	68.847	-290.430	 H	11	VAL11	0.079	
166	2HG1	303.433	69.131	-289.578	 H	11	VAL11	0.079	
167	3HG1	304.709	70.331	-289.483	 H	11	VAL11	0.079	
168	1HG2	304.863	66.492	-287.413	 H	11	VAL11	0.079	
169	2HG2	303.469	67.042	-288.349	 H	11	VAL11	0.079	
170	3HG2	304.959	66.540	-289.190	 H	11	VAL11	0.079	
171	   N	306.883	70.898	-287.176	N.am	12	GLN12	-0.416	
172	  CA	307.331	72.281	-287.301	C.3	12	GLN12	-0.003	
173	   C	308.822	72.349	-287.536	C.2	12	GLN12	0.597	
174	   O	309.310	73.058	-288.413	O.2	12	GLN12	-0.568	
175	  CB	306.937	73.048	-286.019	C.3	12	GLN12	-0.004	
176	  CG	307.296	74.570	-285.987	C.3	12	GLN12	-0.064	
177	  CD	306.991	75.382	-284.722	C.2	12	GLN12	0.695	
178	 NE2	306.422	74.805	-283.694	N.pl3	12	GLN12	-0.941	
179	 OE1	307.292	76.564	-284.643	O.2	12	GLN12	-0.609	
180	   H	306.393	70.591	-286.348	 H	12	GLN12	0.272	
181	  HA	306.833	72.737	-288.177	 H	12	GLN12	0.085	
182	 2HB	307.412	72.547	-285.149	 H	12	GLN12	0.017	
183	 3HB	305.847	72.940	-285.858	 H	12	GLN12	0.017	
184	 2HG	306.820	75.091	-286.838	 H	12	GLN12	0.035	
185	 3HG	308.380	74.712	-286.150	 H	12	GLN12	0.035	
186	1HE2	306.313	75.399	-282.871	 H	12	GLN12	0.425	
187	2HE2	306.259	73.802	-283.799	 H	12	GLN12	0.425	
188	   N	309.605	71.643	-286.794	N.am	13	ARG13	-0.348	
189	  CA	311.046	71.709	-287.021	C.3	13	ARG13	-0.264	
190	   C	311.385	71.339	-288.446	C.2	13	ARG13	0.734	
191	   O	312.155	72.011	-289.128	O.2	13	ARG13	-0.589	
192	  CB	311.757	70.770	-286.006	C.3	13	ARG13	-0.001	
193	  CG	313.302	70.924	-285.922	C.3	13	ARG13	0.039	
194	  CD	313.927	69.936	-284.923	C.3	13	ARG13	0.049	
195	  NE	315.404	70.144	-284.870	N.pl3	13	ARG13	-0.530	
196	  CZ	316.251	69.453	-284.113	C.cat	13	ARG13	0.808	
197	 NH1	315.885	68.488	-283.317	N.pl3	13	ARG13	-0.863	
198	 NH2	317.511	69.752	-284.167	N.pl3	13	ARG13	-0.863	
199	   H	309.228	71.052	-286.066	 H	13	ARG13	0.275	
200	  HA	311.369	72.755	-286.862	 H	13	ARG13	0.156	
201	 2HB	311.492	69.720	-286.247	 H	13	ARG13	0.033	
202	 3HB	311.330	70.936	-284.997	 H	13	ARG13	0.033	
203	 2HG	313.549	71.969	-285.642	 H	13	ARG13	0.029	
204	 3HG	313.755	70.769	-286.923	 H	13	ARG13	0.029	
205	 2HD	313.684	68.896	-285.233	 H	13	ARG13	0.069	
206	 3HD	313.469	70.081	-283.922	 H	13	ARG13	0.069	
207	  HE	315.856	70.867	-285.439	 H	13	ARG13	0.346	
208	1HH1	314.880	68.301	-283.322	 H	13	ARG13	0.448	
209	2HH1	316.597	68.005	-282.767	 H	13	ARG13	0.448	
210	1HH2	317.779	70.511	-284.797	 H	13	ARG13	0.448	
211	2HH2	318.145	69.211	-283.577	 H	13	ARG13	0.448	
212	   N	310.851	70.284	-288.962	N.am	14	VAL14	-0.416	
213	  CA	311.179	69.926	-290.339	C.3	14	VAL14	-0.087	
214	   C	310.850	71.056	-291.285	C.2	14	VAL14	0.597	
215	   O	311.645	71.438	-292.152	O.2	14	VAL14	-0.568	
216	  CB	310.408	68.608	-290.748	C.3	14	VAL14	0.299	
217	 CG1	310.500	68.191	-292.241	C.3	14	VAL14	-0.319	
218	 CG2	310.839	67.356	-289.947	C.3	14	VAL14	-0.319	
219	   H	310.215	69.715	-288.421	 H	14	VAL14	0.272	
220	  HA	312.267	69.749	-290.411	 H	14	VAL14	0.097	
221	  HB	309.331	68.779	-290.534	 H	14	VAL14	-0.030	
222	1HG1	311.542	68.014	-292.568	 H	14	VAL14	0.079	
223	2HG1	309.928	67.267	-292.456	 H	14	VAL14	0.079	
224	3HG1	310.072	68.953	-292.920	 H	14	VAL14	0.079	
225	1HG2	310.749	67.514	-288.857	 H	14	VAL14	0.079	
226	2HG2	310.204	66.479	-290.181	 H	14	VAL14	0.079	
227	3HG2	311.887	67.067	-290.151	 H	14	VAL14	0.079	
228	   N	309.705	71.641	-291.185	N.am	15	MET15	-0.416	
229	  CA	309.386	72.734	-292.099	C.3	15	MET15	-0.024	
230	   C	310.415	73.834	-292.009	C.2	15	MET15	0.597	
231	   O	310.920	74.346	-293.020	O.2	15	MET15	-0.568	
232	  CB	307.963	73.279	-291.793	C.3	15	MET15	0.034	
233	  CG	306.802	72.280	-291.987	C.3	15	MET15	0.002	
234	  SD	305.228	73.145	-291.876	S.3	15	MET15	-0.274	
235	  CE	304.147	71.715	-291.742	C.3	15	MET15	-0.054	
236	   H	309.038	71.348	-290.485	 H	15	MET15	0.272	
237	  HA	309.414	72.347	-293.135	 H	15	MET15	0.088	
238	 2HB	307.762	74.158	-292.435	 H	15	MET15	0.024	
239	 3HB	307.925	73.671	-290.756	 H	15	MET15	0.024	
240	 2HG	306.844	71.494	-291.210	 H	15	MET15	0.044	
241	 3HG	306.867	71.765	-292.964	 H	15	MET15	0.044	
242	 1HE	304.293	71.027	-292.595	 H	15	MET15	0.068	
243	 2HE	304.354	71.162	-290.809	 H	15	MET15	0.068	
244	 3HE	303.089	72.030	-291.728	 H	15	MET15	0.068	
245	   N	310.781	74.255	-290.845	N.am	16	ARG16	-0.348	
246	  CA	311.777	75.319	-290.759	C.3	16	ARG16	-0.264	
247	   C	313.049	74.927	-291.473	C.2	16	ARG16	0.734	
248	   O	313.165	73.851	-292.054	O.2	16	ARG16	-0.589	
249	  CB	312.043	75.637	-289.260	C.3	16	ARG16	-0.001	
250	  CG	312.867	76.926	-288.985	C.3	16	ARG16	0.039	
251	  CD	313.113	77.145	-287.483	C.3	16	ARG16	0.049	
252	  NE	313.888	78.404	-287.280	N.pl3	16	ARG16	-0.530	
253	  CZ	314.277	78.886	-286.103	C.cat	16	ARG16	0.808	
254	 NH1	314.027	78.301	-284.966	N.pl3	16	ARG16	-0.863	
255	 NH2	314.940	79.999	-286.083	N.pl3	16	ARG16	-0.863	
256	   H	310.385	73.854	-290.007	 H	16	ARG16	0.275	
257	  HA	311.369	76.212	-291.270	 H	16	ARG16	0.156	
258	 2HB	312.539	74.761	-288.793	 H	16	ARG16	0.033	
259	 3HB	311.073	75.717	-288.728	 H	16	ARG16	0.033	
260	 2HG	312.337	77.797	-289.423	 H	16	ARG16	0.029	
261	 3HG	313.841	76.874	-289.512	 H	16	ARG16	0.029	
262	 2HD	313.661	76.270	-287.069	 H	16	ARG16	0.069	
263	 3HD	312.139	77.187	-286.950	 H	16	ARG16	0.069	
264	  HE	314.168	78.986	-288.076	 H	16	ARG16	0.346	
265	1HH1	313.502	77.428	-285.052	 H	16	ARG16	0.448	
266	2HH1	314.359	78.737	-284.104	 H	16	ARG16	0.448	
267	1HH2	315.127	80.443	-286.984	 H	16	ARG16	0.448	
268	2HH2	315.228	80.354	-285.170	 H	16	ARG16	0.448	
@<TRIPOS>BOND
1 1 2 1
2 1 10 1
3 2 3 1
4 2 5 1
5 2 11 1
6 3 4 2
7 3 16 1
8 5 6 1
9 6 7 1
10 7 8 2
11 7 9 1
12 5 12 1
13 5 13 1
14 6 14 1
15 6 15 1
16 16 17 1
17 16 25 1
18 17 18 1
19 17 20 1
20 17 26 1
21 18 19 2
22 18 33 1
23 20 21 1
24 21 22 1
25 22 23 1
26 22 24 2
27 20 27 1
28 20 28 1
29 21 29 1
30 21 30 1
31 23 31 1
32 23 32 1
33 33 34 1
34 33 39 1
35 34 35 1
36 34 37 1
37 34 40 1
38 35 36 2
39 35 47 1
40 37 38 1
41 38 39 1
42 37 41 1
43 37 42 1
44 38 43 1
45 38 44 1
46 39 45 1
47 39 46 1
48 47 48 1
49 47 56 1
50 48 49 1
51 48 51 1
52 48 57 1
53 49 50 2
54 49 62 1
55 51 52 1
56 52 53 1
57 53 54 2
58 53 55 1
59 51 58 1
60 51 59 1
61 52 60 1
62 52 61 1
63 62 63 1
64 62 68 1
65 63 64 1
66 63 66 1
67 63 69 1
68 64 65 2
69 64 73 1
70 66 67 1
71 66 70 1
72 66 71 1
73 67 72 1
74 73 74 1
75 73 81 1
76 74 75 1
77 74 77 1
78 74 82 1
79 75 76 2
80 75 92 1
81 77 78 1
82 77 79 1
83 78 80 1
84 77 83 1
85 78 84 1
86 78 85 1
87 79 86 1
88 79 87 1
89 79 88 1
90 80 89 1
91 80 90 1
92 80 91 1
93 92 93 1
94 92 100 1
95 93 94 1
96 93 96 1
97 93 101 1
98 94 95 2
99 94 111 1
100 96 97 1
101 97 98 1
102 97 99 1
103 96 102 1
104 96 103 1
105 97 104 1
106 98 105 1
107 98 106 1
108 98 107 1
109 99 108 1
110 99 109 1
111 99 110 1
112 111 112 1
113 111 119 1
114 112 113 1
115 112 115 1
116 112 120 1
117 113 114 2
118 113 123 1
119 115 116 1
120 116 117 2
121 116 118 1
122 115 121 1
123 115 122 1
124 123 124 1
125 123 132 1
126 124 125 1
127 124 127 1
128 124 133 1
129 125 126 2
130 125 138 1
131 127 128 1
132 128 129 1
133 129 130 2
134 129 131 1
135 127 134 1
136 127 135 1
137 128 136 1
138 128 137 1
139 138 139 1
140 138 148 1
141 139 140 1
142 139 142 1
143 139 149 1
144 140 141 2
145 140 155 1
146 142 143 1
147 143 144 2
148 144 147 1
149 143 145 1
150 145 146 2
151 146 147 1
152 142 150 1
153 142 151 1
154 144 152 1
155 146 153 1
156 147 154 1
157 155 156 1
158 155 162 1
159 156 157 1
160 156 159 1
161 156 163 1
162 157 158 2
163 157 171 1
164 159 160 1
165 159 161 1
166 159 164 1
167 160 165 1
168 160 166 1
169 160 167 1
170 161 168 1
171 161 169 1
172 161 170 1
173 171 172 1
174 171 180 1
175 172 173 1
176 172 175 1
177 172 181 1
178 173 174 2
179 173 188 1
180 175 176 1
181 176 177 1
182 177 178 1
183 177 179 2
184 175 182 1
185 175 183 1
186 176 184 1
187 176 185 1
188 178 186 1
189 178 187 1
190 188 189 1
191 188 199 1
192 189 190 1
193 189 192 1
194 189 200 1
195 190 191 2
196 190 212 1
197 192 193 1
198 193 194 1
199 194 195 1
200 195 196 1
201 196 197 2
202 196 198 1
203 192 201 1
204 192 202 1
205 193 203 1
206 193 204 1
207 194 205 1
208 194 206 1
209 195 207 1
210 197 208 1
211 197 209 1
212 198 210 1
213 198 211 1
214 212 213 1
215 212 219 1
216 213 214 1
217 213 216 1
218 213 220 1
219 214 215 2
220 214 228 1
221 216 217 1
222 216 218 1
223 216 221 1
224 217 222 1
225 217 223 1
226 217 224 1
227 218 225 1
228 218 226 1
229 218 227 1
230 228 229 1
231 228 236 1
232 229 230 1
233 229 232 1
234 229 237 1
235 230 231 2
236 230 245 1
237 232 233 1
238 233 234 1
239 234 235 1
240 232 238 1
241 232 239 1
242 233 240 1
243 233 241 1
244 235 242 1
245 235 243 1
246 235 244 1
247 245 246 1
248 245 256 1
249 246 247 1
250 246 249 1
251 246 257 1
252 247 248 2
253 249 250 1
254 250 251 1
255 251 252 1
256 252 253 1
257 253 254 2
258 253 255 1
259 249 258 1
260 249 259 1
261 250 260 1
262 250 261 1
263 251 262 1
264 251 263 1
265 252 264 1
266 254 265 1
267 254 266 1
268 255 267 1
269 255 268 1
@<TRIPOS>SUBSTRUCTURE
1	GLU1	1	RESIDUE	1 ****	GLU
2	GLN2	16	RESIDUE	1 ****	GLN
3	PRO3	33	RESIDUE	1 ****	PRO
4	GLU4	47	RESIDUE	1 ****	GLU
5	SER5	62	RESIDUE	1 ****	SER
6	ILE6	73	RESIDUE	1 ****	ILE
7	LEU7	92	RESIDUE	1 ****	LEU
8	ASP8	111	RESIDUE	1 ****	ASP
9	GLU9	123	RESIDUE	1 ****	GLU
10	HIS10	138	RESIDUE	1 ****	HIS
11	VAL11	155	RESIDUE	1 ****	VAL
12	GLN12	171	RESIDUE	1 ****	GLN
13	ARG13	188	RESIDUE	1 ****	ARG
14	VAL14	212	RESIDUE	1 ****	VAL
15	MET15	228	RESIDUE	1 ****	MET
16	ARG16	245	RESIDUE	1 ****	ARG
