@<TRIPOS>MOLECULE
15-2
262 264 16              
SMALL
USER_CHARGES
@<TRIPOS>ATOM
1	   N	2341.403	716.289	-2435.615	N.3	1	GLU1	-0.516	
2	  CA	2341.962	717.638	-2435.615	C.3	1	GLU1	0.040	
3	   C	2343.471	717.598	-2435.615	C.2	1	GLU1	0.537	
4	   O	2344.146	718.297	-2436.384	O.2	1	GLU1	-0.582	
5	  CB	2341.438	718.423	-2434.378	C.3	1	GLU1	0.056	
6	  CG	2341.914	719.908	-2434.267	C.3	1	GLU1	0.014	
7	  CD	2341.490	720.712	-2433.052	C.2	1	GLU1	0.805	
8	 OE1	2340.761	720.210	-2432.174	O.co2	1	GLU1	-0.819	
9	 OE2	2341.920	721.882	-2432.980	O.co2	1	GLU1	-0.819	
10	   H	2342.030	715.410	-2435.615	 H	1	GLU1	0.294	
11	  HA	2341.635	718.156	-2436.535	 H	1	GLU1	0.111	
12	 2HB	2341.728	717.892	-2433.448	 H	1	GLU1	-0.017	
13	 3HB	2340.332	718.413	-2434.365	 H	1	GLU1	-0.017	
14	 2HG	2341.604	720.493	-2435.148	 H	1	GLU1	-0.043	
15	 3HG	2343.014	719.975	-2434.238	 H	1	GLU1	-0.043	
16	   N	2344.075	716.812	-2434.790	N.am	2	ASN2	-0.416	
17	  CA	2345.534	716.773	-2434.790	C.3	2	ASN2	0.014	
18	   C	2346.066	716.417	-2436.158	C.2	2	ASN2	0.597	
19	   O	2346.981	717.048	-2436.687	O.2	2	ASN2	-0.568	
20	  CB	2346.026	715.750	-2433.725	C.3	2	ASN2	-0.204	
21	  CG	2345.563	715.974	-2432.282	C.2	2	ASN2	0.713	
22	 ND2	2346.157	716.889	-2431.564	N.pl3	2	ASN2	-0.919	
23	 OD1	2344.642	715.340	-2431.788	O.2	2	ASN2	-0.593	
24	   H	2343.547	716.232	-2434.154	 H	2	ASN2	0.272	
25	  HA	2345.912	717.783	-2434.544	 H	2	ASN2	0.105	
26	 2HB	2347.130	715.691	-2433.729	 H	2	ASN2	0.080	
27	 3HB	2345.697	714.732	-2434.011	 H	2	ASN2	0.080	
28	1HD2	2345.676	717.062	-2430.677	 H	2	ASN2	0.420	
29	2HD2	2346.859	717.460	-2432.033	 H	2	ASN2	0.420	
30	   N	2345.544	715.423	-2436.793	N.am	3	PRO3	-0.255	
31	  CA	2345.997	715.013	-2438.114	C.3	3	PRO3	-0.027	
32	   C	2345.599	716.037	-2439.191	C.2	3	PRO3	0.590	
33	   O	2346.422	716.420	-2440.022	O.2	3	PRO3	-0.575	
34	  CB	2345.292	713.659	-2438.284	C.3	3	PRO3	-0.007	
35	  CG	2344.009	713.811	-2437.454	C.3	3	PRO3	0.019	
36	  CD	2344.466	714.630	-2436.244	C.3	3	PRO3	0.019	
37	  HA	2347.083	714.893	-2438.127	 H	3	PRO3	0.064	
38	 2HB	2345.915	712.878	-2437.843	 H	3	PRO3	0.025	
39	 3HB	2345.094	713.410	-2439.329	 H	3	PRO3	0.025	
40	 2HG	2343.581	712.849	-2437.163	 H	3	PRO3	0.021	
41	 3HG	2343.271	714.382	-2438.021	 H	3	PRO3	0.021	
42	 2HD	2344.855	713.980	-2435.457	 H	3	PRO3	0.039	
43	 3HD	2343.669	715.266	-2435.851	 H	3	PRO3	0.039	
44	   N	2344.394	716.497	-2439.224	N.am	4	GLU4	-0.516	
45	  CA	2344.035	717.468	-2440.254	C.3	4	GLU4	0.040	
46	   C	2344.934	718.679	-2440.192	C.2	4	GLU4	0.537	
47	   O	2345.461	719.158	-2441.206	O.2	4	GLU4	-0.582	
48	  CB	2342.546	717.887	-2440.084	C.3	4	GLU4	0.056	
49	  CG	2341.999	718.891	-2441.150	C.3	4	GLU4	0.014	
50	  CD	2340.573	719.388	-2441.007	C.2	4	GLU4	0.805	
51	 OE1	2339.846	718.990	-2440.076	O.co2	4	GLU4	-0.819	
52	 OE2	2340.184	720.217	-2441.855	O.co2	4	GLU4	-0.819	
53	   H	2343.709	716.191	-2438.547	 H	4	GLU4	0.294	
54	  HA	2344.167	716.998	-2441.245	 H	4	GLU4	0.111	
55	 2HB	2342.394	718.327	-2439.077	 H	4	GLU4	-0.017	
56	 3HB	2341.898	716.989	-2440.090	 H	4	GLU4	-0.017	
57	 2HG	2342.081	718.476	-2442.168	 H	4	GLU4	-0.043	
58	 3HG	2342.587	719.823	-2441.161	 H	4	GLU4	-0.043	
59	   N	2345.161	719.231	-2439.049	N.am	5	SER5	-0.416	
60	  CA	2346.031	720.403	-2438.990	C.3	5	SER5	-0.025	
61	   C	2347.390	720.096	-2439.575	C.2	5	SER5	0.597	
62	   O	2347.938	720.850	-2440.380	O.2	5	SER5	-0.568	
63	  CB	2346.142	720.935	-2437.540	C.3	5	SER5	0.212	
64	  OG	2346.873	720.055	-2436.678	O.3	5	SER5	-0.655	
65	   H	2344.744	718.860	-2438.208	 H	5	SER5	0.272	
66	  HA	2345.582	721.193	-2439.619	 H	5	SER5	0.084	
67	 2HB	2345.142	721.129	-2437.106	 H	5	SER5	0.035	
68	 3HB	2346.648	721.920	-2437.542	 H	5	SER5	0.035	
69	  HG	2346.384	719.230	-2436.628	 H	5	SER5	0.428	
70	   N	2347.994	719.013	-2439.221	N.am	6	ILE6	-0.416	
71	  CA	2349.307	718.718	-2439.787	C.3	6	ILE6	-0.060	
72	   C	2349.250	718.680	-2441.295	C.2	6	ILE6	0.597	
73	   O	2350.085	719.267	-2441.999	O.2	6	ILE6	-0.568	
74	  CB	2349.906	717.381	-2439.187	C.3	6	ILE6	0.130	
75	 CG1	2349.925	717.319	-2437.626	C.3	6	ILE6	-0.043	
76	 CG2	2351.348	717.079	-2439.702	C.3	6	ILE6	-0.320	
77	 CD1	2350.195	715.930	-2437.010	C.3	6	ILE6	-0.066	
78	   H	2347.565	718.379	-2438.562	 H	6	ILE6	0.272	
79	  HA	2349.982	719.552	-2439.519	 H	6	ILE6	0.087	
80	  HB	2349.248	716.555	-2439.531	 H	6	ILE6	0.019	
81	2HG1	2348.943	717.639	-2437.230	 H	6	ILE6	0.024	
82	3HG1	2350.641	718.061	-2437.221	 H	6	ILE6	0.024	
83	1HG2	2351.407	716.986	-2440.800	 H	6	ILE6	0.088	
84	2HG2	2352.070	717.861	-2439.399	 H	6	ILE6	0.088	
85	3HG2	2351.737	716.117	-2439.323	 H	6	ILE6	0.088	
86	1HD1	2349.466	715.176	-2437.365	 H	6	ILE6	0.019	
87	2HD1	2351.205	715.551	-2437.246	 H	6	ILE6	0.019	
88	3HD1	2350.118	715.960	-2435.908	 H	6	ILE6	0.019	
89	   N	2348.304	718.017	-2441.868	N.am	7	LEU7	-0.416	
90	  CA	2348.249	717.981	-2443.327	C.3	7	LEU7	-0.052	
91	   C	2348.177	719.376	-2443.900	C.2	7	LEU7	0.597	
92	   O	2348.898	719.738	-2444.842	O.2	7	LEU7	-0.568	
93	  CB	2347.046	717.121	-2443.807	C.3	7	LEU7	-0.110	
94	  CG	2346.973	715.641	-2443.341	C.3	7	LEU7	0.353	
95	 CD1	2345.783	714.936	-2444.006	C.3	7	LEU7	-0.412	
96	 CD2	2348.266	714.862	-2443.632	C.3	7	LEU7	-0.412	
97	   H	2347.612	717.530	-2441.317	 H	7	LEU7	0.272	
98	  HA	2349.191	717.540	-2443.701	 H	7	LEU7	0.092	
99	 2HB	2347.023	717.137	-2444.915	 H	7	LEU7	0.046	
100	 3HB	2346.106	717.624	-2443.503	 H	7	LEU7	0.046	
101	  HG	2346.803	715.634	-2442.243	 H	7	LEU7	-0.036	
102	1HD1	2344.825	715.445	-2443.783	 H	7	LEU7	0.100	
103	2HD1	2345.882	714.895	-2445.107	 H	7	LEU7	0.100	
104	3HD1	2345.675	713.895	-2443.650	 H	7	LEU7	0.100	
105	1HD2	2348.541	714.892	-2444.702	 H	7	LEU7	0.100	
106	2HD2	2349.119	715.273	-2443.061	 H	7	LEU7	0.100	
107	3HD2	2348.184	713.800	-2443.336	 H	7	LEU7	0.100	
108	   N	2347.340	720.217	-2443.394	N.am	8	ASP8	-0.516	
109	  CA	2347.271	721.566	-2443.948	C.3	8	ASP8	0.038	
110	   C	2348.618	722.246	-2443.891	C.2	8	ASP8	0.537	
111	   O	2349.091	722.850	-2444.866	O.2	8	ASP8	-0.582	
112	  CB	2346.193	722.406	-2443.207	C.3	8	ASP8	-0.030	
113	  CG	2345.975	723.827	-2443.748	C.2	8	ASP8	0.799	
114	 OD1	2346.039	724.025	-2444.979	O.co2	8	ASP8	-0.801	
115	 OD2	2345.783	724.753	-2442.933	O.co2	8	ASP8	-0.801	
116	   H	2346.742	719.947	-2442.626	 H	8	ASP8	0.294	
117	  HA	2346.988	721.488	-2445.015	 H	8	ASP8	0.088	
118	 2HB	2346.450	722.490	-2442.135	 H	8	ASP8	-0.012	
119	 3HB	2345.214	721.902	-2443.240	 H	8	ASP8	-0.012	
120	   N	2349.298	722.196	-2442.796	N.am	9	GLU9	-0.516	
121	  CA	2350.601	722.853	-2442.741	C.3	9	GLU9	0.040	
122	   C	2351.518	722.324	-2443.817	C.2	9	GLU9	0.537	
123	   O	2352.182	723.078	-2444.543	O.2	9	GLU9	-0.582	
124	  CB	2351.234	722.646	-2441.336	C.3	9	GLU9	0.056	
125	  CG	2352.617	723.338	-2441.107	C.3	9	GLU9	0.014	
126	  CD	2353.319	723.124	-2439.779	C.2	9	GLU9	0.805	
127	 OE1	2352.798	722.434	-2438.882	O.co2	9	GLU9	-0.819	
128	 OE2	2354.439	723.662	-2439.648	O.co2	9	GLU9	-0.819	
129	   H	2348.934	721.710	-2441.989	 H	9	GLU9	0.294	
130	  HA	2350.459	723.935	-2442.917	 H	9	GLU9	0.111	
131	 2HB	2351.347	721.561	-2441.132	 H	9	GLU9	-0.017	
132	 3HB	2350.538	723.000	-2440.552	 H	9	GLU9	-0.017	
133	 2HG	2352.546	724.428	-2441.247	 H	9	GLU9	-0.043	
134	 3HG	2353.364	722.992	-2441.841	 H	9	GLU9	-0.043	
135	   N	2351.614	721.049	-2443.986	N.am	10	HIS10	-0.416	
136	  CA	2352.501	720.537	-2445.026	C.3	10	HIS10	-0.058	
137	   C	2352.135	721.101	-2446.378	C.2	10	HIS10	0.597	
138	   O	2352.987	721.565	-2447.150	O.2	10	HIS10	-0.568	
139	  CB	2352.337	719.008	-2445.021	C.3	10	HIS10	-0.007	
140	  CG	2353.622	718.297	-2444.713	C.2	10	HIS10	0.187	
141	 CD2	2354.004	717.963	-2443.420	C.2	10	HIS10	-0.221	
142	 ND1	2354.574	717.890	-2445.645	N.2	10	HIS10	-0.543	
143	 CE1	2355.480	717.332	-2444.822	C.2	10	HIS10	0.163	
144	 NE2	2355.218	717.330	-2443.487	N.pl3	10	HIS10	-0.280	
145	   H	2351.083	720.414	-2443.407	 H	10	HIS10	0.272	
146	  HA	2353.521	720.894	-2444.802	 H	10	HIS10	0.136	
147	 2HB	2351.971	718.641	-2446.000	 H	10	HIS10	0.037	
148	 3HB	2351.581	718.672	-2444.280	 H	10	HIS10	0.037	
149	 2HD	2353.418	718.178	-2442.531	 H	10	HIS10	0.186	
150	 1HE	2356.371	716.911	-2445.269	 H	10	HIS10	0.144	
151	 2HE	2355.785	716.953	-2442.714	 H	10	HIS10	0.334	
152	   N	2350.897	721.100	-2446.740	N.am	11	VAL11	-0.416	
153	  CA	2350.542	721.646	-2448.048	C.3	11	VAL11	-0.087	
154	   C	2351.007	723.076	-2448.181	C.2	11	VAL11	0.597	
155	   O	2351.608	723.481	-2449.184	O.2	11	VAL11	-0.568	
156	  CB	2348.980	721.540	-2448.267	C.3	11	VAL11	0.299	
157	 CG1	2348.412	722.243	-2449.530	C.3	11	VAL11	-0.319	
158	 CG2	2348.455	720.086	-2448.339	C.3	11	VAL11	-0.319	
159	   H	2350.184	720.728	-2446.130	 H	11	VAL11	0.272	
160	  HA	2351.061	721.063	-2448.830	 H	11	VAL11	0.097	
161	  HB	2348.493	722.021	-2447.392	 H	11	VAL11	-0.030	
162	1HG1	2348.850	721.851	-2450.467	 H	11	VAL11	0.079	
163	2HG1	2347.313	722.137	-2449.612	 H	11	VAL11	0.079	
164	3HG1	2348.591	723.336	-2449.521	 H	11	VAL11	0.079	
165	1HG2	2348.745	719.499	-2447.448	 H	11	VAL11	0.079	
166	2HG2	2347.349	720.050	-2448.381	 H	11	VAL11	0.079	
167	3HG2	2348.836	719.544	-2449.225	 H	11	VAL11	0.079	
168	   N	2350.771	723.902	-2447.219	N.am	12	GLN12	-0.416	
169	  CA	2351.220	725.285	-2447.347	C.3	12	GLN12	-0.003	
170	   C	2352.709	725.352	-2447.585	C.2	12	GLN12	0.597	
171	   O	2353.197	726.059	-2448.464	O.2	12	GLN12	-0.568	
172	  CB	2350.829	726.054	-2446.064	C.3	12	GLN12	-0.004	
173	  CG	2351.191	727.575	-2446.034	C.3	12	GLN12	-0.064	
174	  CD	2350.889	728.389	-2444.770	C.2	12	GLN12	0.695	
175	 NE2	2350.322	727.814	-2443.740	N.pl3	12	GLN12	-0.941	
176	 OE1	2351.192	729.570	-2444.693	O.2	12	GLN12	-0.609	
177	   H	2350.282	723.597	-2446.389	 H	12	GLN12	0.272	
178	  HA	2350.720	725.741	-2448.222	 H	12	GLN12	0.085	
179	 2HB	2351.305	725.553	-2445.195	 H	12	GLN12	0.017	
180	 3HB	2349.739	725.947	-2445.901	 H	12	GLN12	0.017	
181	 2HG	2350.713	728.096	-2446.885	 H	12	GLN12	0.035	
182	 3HG	2352.274	727.717	-2446.200	 H	12	GLN12	0.035	
183	1HE2	2350.216	728.409	-2442.917	 H	12	GLN12	0.425	
184	2HE2	2350.158	726.810	-2443.843	 H	12	GLN12	0.425	
185	   N	2353.494	724.645	-2446.844	N.am	13	ARG13	-0.348	
186	  CA	2354.934	724.710	-2447.075	C.3	13	ARG13	-0.264	
187	   C	2355.270	724.338	-2448.500	C.2	13	ARG13	0.734	
188	   O	2356.039	725.009	-2449.185	O.2	13	ARG13	-0.589	
189	  CB	2355.647	723.772	-2446.061	C.3	13	ARG13	-0.001	
190	  CG	2357.193	723.924	-2445.980	C.3	13	ARG13	0.039	
191	  CD	2357.820	722.937	-2444.982	C.3	13	ARG13	0.049	
192	  NE	2359.297	723.144	-2444.932	N.pl3	13	ARG13	-0.530	
193	  CZ	2360.145	722.453	-2444.177	C.cat	13	ARG13	0.808	
194	 NH1	2359.780	721.489	-2443.378	N.pl3	13	ARG13	-0.863	
195	 NH2	2361.405	722.751	-2444.234	N.pl3	13	ARG13	-0.863	
196	   H	2353.118	724.056	-2446.115	 H	13	ARG13	0.275	
197	  HA	2355.259	725.756	-2446.917	 H	13	ARG13	0.156	
198	 2HB	2355.381	722.721	-2446.299	 H	13	ARG13	0.033	
199	 3HB	2355.223	723.939	-2445.050	 H	13	ARG13	0.033	
200	 2HG	2357.441	724.969	-2445.702	 H	13	ARG13	0.029	
201	 3HG	2357.643	723.767	-2446.982	 H	13	ARG13	0.029	
202	 2HD	2357.575	721.897	-2445.290	 H	13	ARG13	0.069	
203	 3HD	2357.364	723.084	-2443.979	 H	13	ARG13	0.069	
204	  HE	2359.748	723.866	-2445.503	 H	13	ARG13	0.346	
205	1HH1	2358.774	721.303	-2443.381	 H	13	ARG13	0.448	
206	2HH1	2360.493	721.006	-2442.829	 H	13	ARG13	0.448	
207	1HH2	2361.672	723.509	-2444.866	 H	13	ARG13	0.448	
208	2HH2	2362.040	722.210	-2443.645	 H	13	ARG13	0.448	
209	   N	2354.733	723.283	-2449.013	N.am	14	VAL14	-0.416	
210	  CA	2355.058	722.923	-2450.391	C.3	14	VAL14	-0.087	
211	   C	2354.728	724.052	-2451.337	C.2	14	VAL14	0.597	
212	   O	2355.521	724.433	-2452.207	O.2	14	VAL14	-0.568	
213	  CB	2354.285	721.606	-2450.797	C.3	14	VAL14	0.299	
214	 CG1	2354.374	721.186	-2452.290	C.3	14	VAL14	-0.319	
215	 CG2	2354.717	720.354	-2449.996	C.3	14	VAL14	-0.319	
216	   H	2354.098	722.715	-2448.471	 H	14	VAL14	0.272	
217	  HA	2356.146	722.745	-2450.466	 H	14	VAL14	0.097	
218	  HB	2353.209	721.777	-2450.581	 H	14	VAL14	-0.030	
219	1HG1	2355.415	721.009	-2452.619	 H	14	VAL14	0.079	
220	2HG1	2353.800	720.263	-2452.502	 H	14	VAL14	0.079	
221	3HG1	2353.945	721.948	-2452.969	 H	14	VAL14	0.079	
222	1HG2	2354.630	720.513	-2448.905	 H	14	VAL14	0.079	
223	2HG2	2354.080	719.477	-2450.227	 H	14	VAL14	0.079	
224	3HG2	2355.764	720.063	-2450.202	 H	14	VAL14	0.079	
225	   N	2353.583	724.639	-2451.235	N.am	15	PRO15	-0.255	
226	  CA	2353.186	725.735	-2452.106	C.3	15	PRO15	-0.027	
227	   C	2353.980	727.016	-2451.802	C.2	15	PRO15	0.590	
228	   O	2354.482	727.671	-2452.717	O.2	15	PRO15	-0.575	
229	  CB	2351.689	725.867	-2451.784	C.3	15	PRO15	-0.007	
230	  CG	2351.590	725.405	-2450.323	C.3	15	PRO15	0.019	
231	  CD	2352.599	724.256	-2450.247	C.3	15	PRO15	0.019	
232	  HA	2353.338	725.467	-2453.154	 H	15	PRO15	0.064	
233	 2HB	2351.128	725.177	-2452.418	 H	15	PRO15	0.025	
234	 3HB	2351.309	726.880	-2451.936	 H	15	PRO15	0.025	
235	 2HG	2350.581	725.086	-2450.051	 H	15	PRO15	0.021	
236	 3HG	2351.909	726.213	-2449.661	 H	15	PRO15	0.021	
237	 2HD	2352.137	723.310	-2450.539	 H	15	PRO15	0.039	
238	 3HD	2353.049	724.167	-2449.256	 H	15	PRO15	0.039	
239	   N	2354.123	727.408	-2450.582	N.am	16	ARG16	-0.348	
240	  CA	2354.881	728.627	-2450.313	C.3	16	ARG16	-0.264	
241	   C	2356.278	728.529	-2450.879	C.2	16	ARG16	0.734	
242	   O	2356.663	727.539	-2451.496	O.2	16	ARG16	-0.589	
243	  CB	2354.906	728.874	-2448.779	C.3	16	ARG16	-0.001	
244	  CG	2355.431	730.268	-2448.334	C.3	16	ARG16	0.039	
245	  CD	2355.456	730.414	-2446.803	C.3	16	ARG16	0.049	
246	  NE	2355.948	731.775	-2446.437	N.pl3	16	ARG16	-0.530	
247	  CZ	2356.099	732.230	-2445.197	C.cat	16	ARG16	0.808	
248	 NH1	2355.836	731.526	-2444.133	N.pl3	16	ARG16	-0.863	
249	 NH2	2356.531	733.441	-2445.034	N.pl3	16	ARG16	-0.863	
250	   H	2353.716	726.880	-2449.823	 H	16	ARG16	0.275	
251	  HA	2354.371	729.466	-2450.824	 H	16	ARG16	0.156	
252	 2HB	2355.503	728.071	-2448.298	 H	16	ARG16	0.033	
253	 3HB	2353.884	728.735	-2448.371	 H	16	ARG16	0.033	
254	 2HG	2354.800	731.057	-2448.789	 H	16	ARG16	0.029	
255	 3HG	2356.452	730.434	-2448.734	 H	16	ARG16	0.029	
256	 2HD	2356.110	729.626	-2446.369	 H	16	ARG16	0.069	
257	 3HD	2354.437	730.238	-2446.397	 H	16	ARG16	0.069	
258	  HE	2356.202	732.456	-2447.160	 H	16	ARG16	0.346	
259	1HH1	2355.500	730.580	-2444.330	 H	16	ARG16	0.448	
260	2HH1	2355.977	731.948	-2443.214	 H	16	ARG16	0.448	
261	1HH2	2356.733	733.978	-2445.880	 H	16	ARG16	0.448	
262	2HH2	2356.639	733.773	-2444.074	 H	16	ARG16	0.448	
@<TRIPOS>BOND
1 1 2 1
2 1 10 1
3 2 3 1
4 2 5 1
5 2 11 1
6 3 4 2
7 3 16 1
8 5 6 1
9 6 7 1
10 7 8 2
11 7 9 1
12 5 12 1
13 5 13 1
14 6 14 1
15 6 15 1
16 16 17 1
17 16 24 1
18 17 18 1
19 17 20 1
20 17 25 1
21 18 19 2
22 18 30 1
23 20 21 1
24 21 22 1
25 21 23 2
26 20 26 1
27 20 27 1
28 22 28 1
29 22 29 1
30 30 31 1
31 30 36 1
32 31 32 1
33 31 34 1
34 31 37 1
35 32 33 2
36 32 44 1
37 34 35 1
38 35 36 1
39 34 38 1
40 34 39 1
41 35 40 1
42 35 41 1
43 36 42 1
44 36 43 1
45 44 45 1
46 44 53 1
47 45 46 1
48 45 48 1
49 45 54 1
50 46 47 2
51 46 59 1
52 48 49 1
53 49 50 1
54 50 51 2
55 50 52 1
56 48 55 1
57 48 56 1
58 49 57 1
59 49 58 1
60 59 60 1
61 59 65 1
62 60 61 1
63 60 63 1
64 60 66 1
65 61 62 2
66 61 70 1
67 63 64 1
68 63 67 1
69 63 68 1
70 64 69 1
71 70 71 1
72 70 78 1
73 71 72 1
74 71 74 1
75 71 79 1
76 72 73 2
77 72 89 1
78 74 75 1
79 74 76 1
80 75 77 1
81 74 80 1
82 75 81 1
83 75 82 1
84 76 83 1
85 76 84 1
86 76 85 1
87 77 86 1
88 77 87 1
89 77 88 1
90 89 90 1
91 89 97 1
92 90 91 1
93 90 93 1
94 90 98 1
95 91 92 2
96 91 108 1
97 93 94 1
98 94 95 1
99 94 96 1
100 93 99 1
101 93 100 1
102 94 101 1
103 95 102 1
104 95 103 1
105 95 104 1
106 96 105 1
107 96 106 1
108 96 107 1
109 108 109 1
110 108 116 1
111 109 110 1
112 109 112 1
113 109 117 1
114 110 111 2
115 110 120 1
116 112 113 1
117 113 114 2
118 113 115 1
119 112 118 1
120 112 119 1
121 120 121 1
122 120 129 1
123 121 122 1
124 121 124 1
125 121 130 1
126 122 123 2
127 122 135 1
128 124 125 1
129 125 126 1
130 126 127 2
131 126 128 1
132 124 131 1
133 124 132 1
134 125 133 1
135 125 134 1
136 135 136 1
137 135 145 1
138 136 137 1
139 136 139 1
140 136 146 1
141 137 138 2
142 137 152 1
143 139 140 1
144 140 141 2
145 141 144 1
146 140 142 1
147 142 143 2
148 143 144 1
149 139 147 1
150 139 148 1
151 141 149 1
152 143 150 1
153 144 151 1
154 152 153 1
155 152 159 1
156 153 154 1
157 153 156 1
158 153 160 1
159 154 155 2
160 154 168 1
161 156 157 1
162 156 158 1
163 156 161 1
164 157 162 1
165 157 163 1
166 157 164 1
167 158 165 1
168 158 166 1
169 158 167 1
170 168 169 1
171 168 177 1
172 169 170 1
173 169 172 1
174 169 178 1
175 170 171 2
176 170 185 1
177 172 173 1
178 173 174 1
179 174 175 1
180 174 176 2
181 172 179 1
182 172 180 1
183 173 181 1
184 173 182 1
185 175 183 1
186 175 184 1
187 185 186 1
188 185 196 1
189 186 187 1
190 186 189 1
191 186 197 1
192 187 188 2
193 187 209 1
194 189 190 1
195 190 191 1
196 191 192 1
197 192 193 1
198 193 194 2
199 193 195 1
200 189 198 1
201 189 199 1
202 190 200 1
203 190 201 1
204 191 202 1
205 191 203 1
206 192 204 1
207 194 205 1
208 194 206 1
209 195 207 1
210 195 208 1
211 209 210 1
212 209 216 1
213 210 211 1
214 210 213 1
215 210 217 1
216 211 212 2
217 211 225 1
218 213 214 1
219 213 215 1
220 213 218 1
221 214 219 1
222 214 220 1
223 214 221 1
224 215 222 1
225 215 223 1
226 215 224 1
227 225 226 1
228 225 231 1
229 226 227 1
230 226 229 1
231 226 232 1
232 227 228 2
233 227 239 1
234 229 230 1
235 230 231 1
236 229 233 1
237 229 234 1
238 230 235 1
239 230 236 1
240 231 237 1
241 231 238 1
242 239 240 1
243 239 250 1
244 240 241 1
245 240 243 1
246 240 251 1
247 241 242 2
248 243 244 1
249 244 245 1
250 245 246 1
251 246 247 1
252 247 248 2
253 247 249 1
254 243 252 1
255 243 253 1
256 244 254 1
257 244 255 1
258 245 256 1
259 245 257 1
260 246 258 1
261 248 259 1
262 248 260 1
263 249 261 1
264 249 262 1
@<TRIPOS>SUBSTRUCTURE
1	GLU1	1	RESIDUE	1 ****	GLU
2	ASN2	16	RESIDUE	1 ****	ASN
3	PRO3	30	RESIDUE	1 ****	PRO
4	GLU4	44	RESIDUE	1 ****	GLU
5	SER5	59	RESIDUE	1 ****	SER
6	ILE6	70	RESIDUE	1 ****	ILE
7	LEU7	89	RESIDUE	1 ****	LEU
8	ASP8	108	RESIDUE	1 ****	ASP
9	GLU9	120	RESIDUE	1 ****	GLU
10	HIS10	135	RESIDUE	1 ****	HIS
11	VAL11	152	RESIDUE	1 ****	VAL
12	GLN12	168	RESIDUE	1 ****	GLN
13	ARG13	185	RESIDUE	1 ****	ARG
14	VAL14	209	RESIDUE	1 ****	VAL
15	PRO15	225	RESIDUE	1 ****	PRO
16	ARG16	239	RESIDUE	1 ****	ARG
