REMARK WARNING: 32 MAX_TORS EXCEEDED!!!
REMARK  68 active torsions:
REMARK  status: ('A' for Active; 'I' for Inactive)
REMARK    1  A    between atoms: N_1  and  CA_2 
REMARK    2  A    between atoms: CA_2  and  C_3 
REMARK    3  A    between atoms: CA_2  and  CB_5 
REMARK       I    between atoms: C_3  and  N_11 
REMARK    4  A    between atoms: CB_5  and  CG_6 
REMARK    5  A    between atoms: CG_6  and  CD_7 
REMARK    6  A    between atoms: N_11  and  CA_12 
REMARK    7  A    between atoms: CA_12  and  C_13 
REMARK    8  A    between atoms: CA_12  and  CB_15 
REMARK       I    between atoms: C_13  and  N_22 
REMARK    9  A    between atoms: CB_15  and  CG_16 
REMARK       I    between atoms: CG_16  and  ND2_17 
REMARK   10  A    between atoms: CA_23  and  C_24 
REMARK       I    between atoms: C_24  and  N_29 
REMARK   11  A    between atoms: N_29  and  CA_30 
REMARK   12  A    between atoms: CA_30  and  C_31 
REMARK   13  A    between atoms: CA_30  and  CB_33 
REMARK       I    between atoms: C_31  and  N_39 
REMARK   14  A    between atoms: CB_33  and  CG_34 
REMARK   15  A    between atoms: CG_34  and  CD_35 
REMARK   16  A    between atoms: N_39  and  CA_40 
REMARK   17  A    between atoms: CA_40  and  C_41 
REMARK   18  A    between atoms: CA_40  and  CB_43 
REMARK       I    between atoms: C_41  and  N_47 
REMARK   19  A    between atoms: CB_43  and  OG_44 
REMARK   20  A    between atoms: N_47  and  CA_48 
REMARK   21  A    between atoms: CA_48  and  C_49 
REMARK   22  A    between atoms: CA_48  and  CB_51 
REMARK       I    between atoms: C_49  and  N_56 
REMARK   23  A    between atoms: CB_51  and  CG1_52 
REMARK   24  A    between atoms: N_56  and  CA_57 
REMARK   25  A    between atoms: CA_57  and  C_58 
REMARK   26  A    between atoms: CA_57  and  CB_60 
REMARK       I    between atoms: C_58  and  N_65 
REMARK   27  A    between atoms: CB_60  and  CG_61 
REMARK   28  A    between atoms: N_65  and  CA_66 
REMARK   29  A    between atoms: CA_66  and  C_67 
REMARK   30  A    between atoms: CA_66  and  CB_69 
REMARK       I    between atoms: C_67  and  N_76 
REMARK   31  A    between atoms: CB_69  and  CG_70 
REMARK       I    between atoms: CG_70  and  ND2_71 
REMARK   32  A    between atoms: N_76  and  CA_77 
REMARK   33  A    between atoms: CA_77  and  C_78 
REMARK   34  A    between atoms: CA_77  and  CB_80 
REMARK       I    between atoms: C_78  and  N_86 
REMARK   35  A    between atoms: CB_80  and  CG_81 
REMARK   36  A    between atoms: CG_81  and  CD_82 
REMARK   37  A    between atoms: N_86  and  CA_87 
REMARK   38  A    between atoms: CA_87  and  C_88 
REMARK   39  A    between atoms: CA_87  and  CB_90 
REMARK       I    between atoms: C_88  and  N_98 
REMARK   40  A    between atoms: CB_90  and  CG_91 
REMARK   41  A    between atoms: N_98  and  CA_99 
REMARK   42  A    between atoms: CA_99  and  C_100 
REMARK   43  A    between atoms: CA_99  and  CB_102 
REMARK       I    between atoms: C_100  and  N_106 
REMARK   44  A    between atoms: N_106  and  CA_107 
REMARK   45  A    between atoms: CA_107  and  C_108 
REMARK   46  A    between atoms: CA_107  and  CB_110 
REMARK       I    between atoms: C_108  and  N_118 
REMARK   47  A    between atoms: CB_110  and  CG_111 
REMARK   48  A    between atoms: CG_111  and  CD_112 
REMARK       I    between atoms: CD_112  and  NE2_113 
REMARK   49  A    between atoms: N_118  and  CA_119 
REMARK   50  A    between atoms: CA_119  and  C_120 
REMARK   51  A    between atoms: CA_119  and  CB_122 
REMARK       I    between atoms: C_120  and  N_135 
REMARK   52  A    between atoms: CB_122  and  CG_123 
REMARK   53  A    between atoms: CG_123  and  CD_124 
REMARK   54  A    between atoms: CD_124  and  NE_125 
REMARK       I    between atoms: NE_125  and  CZ_126 
REMARK       I    between atoms: CZ_126  and  NH1_127 
REMARK       I    between atoms: CZ_126  and  NH2_128 
REMARK   55  A    between atoms: N_135  and  CA_136 
REMARK   56  A    between atoms: CA_136  and  C_137 
REMARK   57  A    between atoms: CA_136  and  CB_139 
REMARK       I    between atoms: C_137  and  N_143 
REMARK   58  A    between atoms: N_143  and  CA_144 
REMARK   59  A    between atoms: CA_144  and  C_145 
REMARK   60  A    between atoms: CA_144  and  CB_147 
REMARK       I    between atoms: C_145  and  N_152 
REMARK   61  A    between atoms: CB_147  and  CG_148 
REMARK   62  A    between atoms: CG_148  and  SD_149 
REMARK   63  A    between atoms: N_152  and  CA_153 
REMARK   64  A    between atoms: CA_153  and  C_154 
REMARK   65  A    between atoms: CA_153  and  CB_156 
REMARK   66  A    between atoms: CB_156  and  CG_157 
REMARK   67  A    between atoms: CG_157  and  CD_158 
REMARK   68  A    between atoms: CD_158  and  NE_159 
REMARK       I    between atoms: NE_159  and  CZ_160 
REMARK       I    between atoms: CZ_160  and  NH1_161 
ROOT
ATOM      1  C   GLU d   9    1314.173 384.298-1315.130  0.00  0.00     0.241 C 
ATOM      2  O   GLU d   9    1314.839 385.052-1315.855  0.00  0.00    -0.271 OA
ATOM      3  N   HIS d  10    1314.268 383.023-1315.300  0.00  0.00    -0.346 N 
ATOM      4  H   HIS d  10    1313.736 382.388-1314.722  0.00  0.00     0.163 HD
ENDROOT
BRANCH   1   5
ATOM      5  CA  GLU d   9    1313.255 384.827-1314.055  0.00  0.00     0.177 C 
BRANCH   5   6
ATOM      6  N   GLU d   9    1311.952 384.171-1314.111  0.00  0.00    -0.346 N 
ATOM      7  C   ASN d   8    1311.273 384.222-1315.206  0.00  0.00     0.241 C 
ATOM      8  O   ASN d   8    1311.743 384.822-1316.172  0.00  0.00    -0.271 OA
ATOM      9  H   GLU d   9    1311.587 383.685-1313.304  0.00  0.00     0.163 HD
BRANCH   7  10
ATOM     10  CA  ASN d   8    1309.924 383.543-1315.264  0.00  0.00     0.185 C 
BRANCH  10  11
ATOM     11  N   ASN d   8    1309.995 382.194-1314.711  0.00  0.00    -0.346 N 
ATOM     12  C   LEU d   7    1310.832 381.353-1315.218  0.00  0.00     0.241 C 
ATOM     13  O   LEU d   7    1311.552 381.716-1316.160  0.00  0.00    -0.271 OA
ATOM     14  H   ASN d   8    1309.397 381.923-1313.944  0.00  0.00     0.163 HD
BRANCH  12  15
ATOM     15  CA  LEU d   7    1310.904 379.958-1314.646  0.00  0.00     0.177 C 
BRANCH  15  16
ATOM     16  N   LEU d   7    1310.959 379.994-1313.187  0.00  0.00    -0.346 N 
ATOM     17  C   ILE d   6    1311.905 380.657-1312.613  0.00  0.00     0.241 C 
ATOM     18  O   ILE d   6    1312.740 381.245-1313.317  0.00  0.00    -0.271 OA
ATOM     19  H   LEU d   7    1310.267 379.507-1312.636  0.00  0.00     0.163 HD
BRANCH  17  20
ATOM     20  CA  ILE d   6    1311.963 380.695-1311.106  0.00  0.00     0.180 C 
BRANCH  20  21
ATOM     21  N   ILE d   6    1310.650 380.989-1310.539  0.00  0.00    -0.346 N 
ATOM     22  C   SER d   5    1310.045 382.072-1310.893  0.00  0.00     0.243 C 
ATOM     23  O   SER d   5    1310.592 382.826-1311.698  0.00  0.00    -0.271 OA
ATOM     24  H   ILE d   6    1310.221 380.355-1309.880  0.00  0.00     0.163 HD
BRANCH  22  25
ATOM     25  CA  SER d   5    1308.686 382.378-1310.307  0.00  0.00     0.200 C 
BRANCH  25  26
ATOM     26  N   SER d   5    1307.817 381.206-1310.366  0.00  0.00    -0.344 N 
ATOM     27  C   GLU d   4    1307.589 380.654-1311.509  0.00  0.00     0.241 C 
ATOM     28  O   GLU d   4    1308.115 381.133-1312.523  0.00  0.00    -0.271 OA
ATOM     29  H   SER d   5    1307.400 380.835-1309.524  0.00  0.00     0.163 HD
BRANCH  27  30
ATOM     30  CA  GLU d   4    1306.690 379.442-1311.570  0.00  0.00     0.177 C 
BRANCH  30  31
ATOM     31  N   GLU d   4    1307.050 378.471-1310.541  0.00  0.00    -0.346 N 
ATOM     32  C   PRO d   3    1308.255 378.011-1310.508  0.00  0.00     0.241 C 
ATOM     33  O   PRO d   3    1309.078 378.395-1311.340  0.00  0.00    -0.271 OA
ATOM     34  H   GLU d   4    1306.366 378.165-1309.864  0.00  0.00     0.163 HD
BRANCH  32  35
ATOM     35  CA  PRO d   3    1308.653 376.988-1309.431  0.00  0.00     0.179 C 
ATOM     36  N   PRO d   3    1308.201 377.397-1308.110  0.00  0.00    -0.337 N 
ATOM     37  C   ASN d   2    1308.723 378.392-1307.476  0.00  0.00     0.243 C 
ATOM     38  CD  PRO d   3    1307.123 376.604-1307.561  0.00  0.00     0.127 C 
ATOM     39  O   ASN d   2    1309.637 379.023-1308.005  0.00  0.00    -0.271 OA
ATOM     40  CG  PRO d   3    1306.666 375.785-1308.771  0.00  0.00     0.022 C 
ATOM     41  CB  PRO d   3    1307.949 375.633-1309.601  0.00  0.00     0.037 C 
BRANCH  37  42
ATOM     42  CA  ASN d   2    1308.192 378.748-1306.107  0.00  0.00     0.185 C 
BRANCH  42  43
ATOM     43  N   ASN d   2    1306.732 378.786-1306.107  0.00  0.00    -0.346 N 
ATOM     44  C   GLU d   1    1306.128 379.572-1306.932  0.00  0.00     0.242 C 
ATOM     45  O   GLU d   1    1306.803 380.271-1307.701  0.00  0.00    -0.271 OA
ATOM     46  H   ASN d   2    1306.204 378.207-1305.471  0.00  0.00     0.163 HD
BRANCH  44  47
ATOM     47  CA  GLU d   1    1304.619 379.612-1306.932  0.00  0.00     0.191 C 
BRANCH  47  48
ATOM     48  N   GLU d   1    1304.060 378.263-1306.932  0.00  0.00    -0.326 NA
ATOM     49  H   GLU d   1    1304.687 377.384-1306.932  0.00  0.00     0.180 HD
ENDBRANCH  47  48
BRANCH  47  50
ATOM     50  CB  GLU d   1    1304.096 380.397-1305.695  0.00  0.00     0.047 C 
BRANCH  50  51
ATOM     51  CG  GLU d   1    1304.571 381.882-1305.584  0.00  0.00     0.116 C 
BRANCH  51  52
ATOM     52  CD  GLU d   1    1304.147 382.686-1304.369  0.00  0.00     0.172 C 
ATOM     53  OE1 GLU d   1    1303.419 382.184-1303.491  0.00  0.00    -0.648 OA
ATOM     54  OE2 GLU d   1    1304.577 383.856-1304.297  0.00  0.00    -0.648 OA
ENDBRANCH  51  52
ENDBRANCH  50  51
ENDBRANCH  47  50
ENDBRANCH  44  47
ENDBRANCH  42  43
BRANCH  42  55
ATOM     55  CB  ASN d   2    1308.683 377.725-1305.043  0.00  0.00     0.137 C 
BRANCH  55  56
ATOM     56  CG  ASN d   2    1308.221 377.949-1303.599  0.00  0.00     0.217 C 
ATOM     57  ND2 ASN d   2    1308.815 378.864-1302.881  0.00  0.00    -0.370 N 
ATOM     58 21HD ASN d   2    1308.334 379.037-1301.995  0.00  0.00     0.159 HD
ATOM     59 22HD ASN d   2    1309.516 379.435-1303.351  0.00  0.00     0.159 HD
ATOM     60  OD1 ASN d   2    1307.300 377.315-1303.105  0.00  0.00    -0.274 OA
ENDBRANCH  55  56
ENDBRANCH  42  55
ENDBRANCH  37  42
ENDBRANCH  32  35
ENDBRANCH  30  31
BRANCH  30  61
ATOM     61  CB  GLU d   4    1305.202 379.861-1311.400  0.00  0.00     0.045 C 
BRANCH  61  62
ATOM     62  CG  GLU d   4    1304.653 380.865-1312.465  0.00  0.00     0.116 C 
BRANCH  62  63
ATOM     63  CD  GLU d   4    1303.227 381.361-1312.321  0.00  0.00     0.172 C 
ATOM     64  OE1 GLU d   4    1302.501 380.963-1311.390  0.00  0.00    -0.648 OA
ATOM     65  OE2 GLU d   4    1302.837 382.191-1313.169  0.00  0.00    -0.648 OA
ENDBRANCH  62  63
ENDBRANCH  61  62
ENDBRANCH  30  61
ENDBRANCH  27  30
ENDBRANCH  25  26
BRANCH  25  66
ATOM     66  CB  SER d   5    1308.798 382.910-1308.857  0.00  0.00     0.199 C 
BRANCH  66  67
ATOM     67  OG  SER d   5    1309.530 382.030-1307.996  0.00  0.00    -0.398 OA
ATOM     68  HG  SER d   5    1309.041 381.205-1307.945  0.00  0.00     0.209 HD
ENDBRANCH  66  67
ENDBRANCH  25  66
ENDBRANCH  22  25
ENDBRANCH  20  21
BRANCH  20  69
ATOM     69  CB  ILE d   6    1312.562 379.358-1310.506  0.00  0.00     0.013 C 
ATOM     70  CG2 ILE d   6    1314.004 379.057-1311.021  0.00  0.00     0.012 C 
BRANCH  69  71
ATOM     71  CG1 ILE d   6    1312.582 379.296-1308.945  0.00  0.00     0.002 C 
ATOM     72  CD1 ILE d   6    1312.852 377.907-1308.330  0.00  0.00     0.005 C 
ENDBRANCH  69  71
ENDBRANCH  20  69
ENDBRANCH  17  20
ENDBRANCH  15  16
BRANCH  15  73
ATOM     73  CB  LEU d   7    1309.701 379.098-1315.126  0.00  0.00     0.038 C 
BRANCH  73  74
ATOM     74  CG  LEU d   7    1309.629 377.618-1314.660  0.00  0.00    -0.020 C 
ATOM     75  CD1 LEU d   7    1308.439 376.912-1315.325  0.00  0.00     0.009 C 
ATOM     76  CD2 LEU d   7    1310.922 376.839-1314.952  0.00  0.00     0.009 C 
ENDBRANCH  73  74
ENDBRANCH  15  73
ENDBRANCH  12  15
ENDBRANCH  10  11
BRANCH  10  77
ATOM     77  CB  ASN d   8    1308.859 384.368-1314.487  0.00  0.00     0.137 C 
BRANCH  77  78
ATOM     78  CG  ASN d   8    1307.435 383.802-1314.449  0.00  0.00     0.217 C 
ATOM     79  ND2 ASN d   8    1306.670 383.949-1315.497  0.00  0.00    -0.370 N 
ATOM     80 21HD ASN d   8    1305.805 383.408-1315.427  0.00  0.00     0.159 HD
ATOM     81 22HD ASN d   8    1307.093 384.376-1316.321  0.00  0.00     0.159 HD
ATOM     82  OD1 ASN d   8    1307.000 383.200-1313.479  0.00  0.00    -0.274 OA
ENDBRANCH  77  78
ENDBRANCH  10  77
ENDBRANCH   7  10
ENDBRANCH   5   6
BRANCH   5  83
ATOM     83  CB  GLU d   9    1313.888 384.618-1312.649  0.00  0.00     0.045 C 
BRANCH  83  84
ATOM     84  CG  GLU d   9    1315.271 385.308-1312.419  0.00  0.00     0.116 C 
BRANCH  84  85
ATOM     85  CD  GLU d   9    1315.972 385.094-1311.090  0.00  0.00     0.172 C 
ATOM     86  OE1 GLU d   9    1315.449 384.404-1310.194  0.00  0.00    -0.648 OA
ATOM     87  OE2 GLU d   9    1317.092 385.630-1310.958  0.00  0.00    -0.648 OA
ENDBRANCH  84  85
ENDBRANCH  83  84
ENDBRANCH   5  83
ENDBRANCH   1   5
BRANCH   3  88
ATOM     88  CA  HIS d  10    1315.156 382.511-1316.340  0.00  0.00     0.182 C 
BRANCH  88  89
ATOM     89  C   HIS d  10    1314.791 383.076-1317.691  0.00  0.00     0.241 C 
ATOM     90  O   HIS d  10    1315.645 383.540-1318.462  0.00  0.00    -0.271 OA
ATOM     91  N   VAL d  11    1313.553 383.077-1318.055  0.00  0.00    -0.346 N 
ATOM     92  H   VAL d  11    1312.839 382.704-1317.445  0.00  0.00     0.163 HD
BRANCH  91  93
ATOM     93  CA  VAL d  11    1313.200 383.623-1319.362  0.00  0.00     0.180 C 
BRANCH  93  94
ATOM     94  C   VAL d  11    1313.666 385.053-1319.494  0.00  0.00     0.241 C 
ATOM     95  O   VAL d  11    1314.269 385.458-1320.496  0.00  0.00    -0.271 OA
ATOM     96  N   GLN d  12    1313.430 385.879-1318.531  0.00  0.00    -0.346 N 
ATOM     97  H   GLN d  12    1312.940 385.574-1317.703  0.00  0.00     0.163 HD
BRANCH  96  98
ATOM     98  CA  GLN d  12    1313.880 387.262-1318.658  0.00  0.00     0.177 C 
BRANCH  98  99
ATOM     99  C   GLN d  12    1315.370 387.327-1318.894  0.00  0.00     0.241 C 
ATOM    100  O   GLN d  12    1315.859 388.035-1319.772  0.00  0.00    -0.271 OA
ATOM    101  N   ARG d  13    1316.153 386.619-1318.153  0.00  0.00    -0.346 N 
ATOM    102  H   ARG d  13    1315.776 386.030-1317.425  0.00  0.00     0.163 HD
BRANCH 101 103
ATOM    103  CA  ARG d  13    1317.594 386.684-1318.383  0.00  0.00     0.176 C 
BRANCH 103 104
ATOM    104  C   ARG d  13    1317.931 386.312-1319.807  0.00  0.00     0.241 C 
ATOM    105  O   ARG d  13    1318.700 386.983-1320.491  0.00  0.00    -0.271 OA
ATOM    106  N   VAL d  14    1317.393 385.258-1320.323  0.00  0.00    -0.346 N 
ATOM    107  H   VAL d  14    1316.757 384.690-1319.781  0.00  0.00     0.163 HD
BRANCH 106 108
ATOM    108  CA  VAL d  14    1317.719 384.899-1321.700  0.00  0.00     0.180 C 
BRANCH 108 109
ATOM    109  C   VAL d  14    1317.391 386.030-1322.646  0.00  0.00     0.241 C 
ATOM    110  O   VAL d  14    1318.185 386.411-1323.514  0.00  0.00    -0.271 OA
ATOM    111  N   MET d  15    1316.247 386.617-1322.544  0.00  0.00    -0.346 N 
ATOM    112  H   MET d  15    1315.581 386.325-1321.843  0.00  0.00     0.163 HD
BRANCH 111 113
ATOM    113  CA  MET d  15    1315.928 387.710-1323.458  0.00  0.00     0.177 C 
BRANCH 113 114
ATOM    114  C   MET d  15    1316.960 388.809-1323.369  0.00  0.00     0.241 C 
ATOM    115  O   MET d  15    1317.464 389.319-1324.381  0.00  0.00    -0.271 OA
ATOM    116  N   ARG d  16    1317.328 389.229-1322.207  0.00  0.00    -0.347 N 
ATOM    117  H   ARG d  16    1316.932 388.829-1321.368  0.00  0.00     0.163 HD
BRANCH 116 118
ATOM    118  CA  ARG d  16    1318.326 390.292-1322.122  0.00  0.00     0.162 C 
BRANCH 118 119
ATOM    119  C   ARG d  16    1319.596 389.898-1322.837  0.00  0.00     0.219 C 
ATOM    120  O   ARG d  16    1319.709 388.822-1323.419  0.00  0.00    -0.287 OA
ENDBRANCH 118 119
BRANCH 118 121
ATOM    121  CB  ARG d  16    1318.594 390.609-1320.623  0.00  0.00     0.035 C 
BRANCH 121 122
ATOM    122  CG  ARG d  16    1319.420 391.897-1320.349  0.00  0.00     0.023 C 
BRANCH 122 123
ATOM    123  CD  ARG d  16    1319.669 392.116-1318.848  0.00  0.00     0.138 C 
BRANCH 123 124
ATOM    124  NE  ARG d  16    1320.446 393.374-1318.646  0.00  0.00    -0.227 N 
ATOM    125  CZ  ARG d  16    1320.837 393.855-1317.469  0.00  0.00     0.665 C 
ATOM    126  NH1 ARG d  16    1320.588 393.271-1316.331  0.00  0.00    -0.235 N 
ATOM    127  NH2 ARG d  16    1321.502 394.967-1317.450  0.00  0.00    -0.235 N 
ATOM    128 11HH ARG d  16    1320.061 392.398-1316.417  0.00  0.00     0.174 HD
ATOM    129 12HH ARG d  16    1320.922 393.706-1315.470  0.00  0.00     0.174 HD
ATOM    130 21HH ARG d  16    1321.689 395.410-1318.351  0.00  0.00     0.174 HD
ATOM    131 22HH ARG d  16    1321.792 395.321-1316.537  0.00  0.00     0.174 HD
ATOM    132  HE  ARG d  16    1320.726 393.955-1319.442  0.00  0.00     0.177 HD
ENDBRANCH 123 124
ENDBRANCH 122 123
ENDBRANCH 121 122
ENDBRANCH 118 121
ENDBRANCH 116 118
ENDBRANCH 113 114
BRANCH 113 133
ATOM    133  CB  MET d  15    1314.507 388.257-1323.150  0.00  0.00     0.045 C 
BRANCH 133 134
ATOM    134  CG  MET d  15    1313.344 387.261-1323.343  0.00  0.00     0.076 C 
BRANCH 134 135
ATOM    135  SD  MET d  15    1311.771 388.129-1323.229  0.00  0.00    -0.173 SA
ATOM    136  CE  MET d  15    1310.688 386.700-1323.094  0.00  0.00     0.089 C 
ENDBRANCH 134 135
ENDBRANCH 133 134
ENDBRANCH 113 133
ENDBRANCH 111 113
ENDBRANCH 108 109
BRANCH 108 137
ATOM    137  CB  VAL d  14    1316.945 383.583-1322.108  0.00  0.00     0.009 C 
ATOM    138  CG1 VAL d  14    1317.035 383.165-1323.601  0.00  0.00     0.012 C 
ATOM    139  CG2 VAL d  14    1317.375 382.330-1321.308  0.00  0.00     0.012 C 
ENDBRANCH 108 137
ENDBRANCH 106 108
ENDBRANCH 103 104
BRANCH 103 140
ATOM    140  CB  ARG d  13    1318.305 385.743-1317.369  0.00  0.00     0.036 C 
BRANCH 140 141
ATOM    141  CG  ARG d  13    1319.850 385.894-1317.286  0.00  0.00     0.023 C 
BRANCH 141 142
ATOM    142  CD  ARG d  13    1320.475 384.905-1316.289  0.00  0.00     0.138 C 
BRANCH 142 143
ATOM    143  NE  ARG d  13    1321.953 385.111-1316.237  0.00  0.00    -0.227 N 
ATOM    144  CZ  ARG d  13    1322.799 384.418-1315.481  0.00  0.00     0.665 C 
ATOM    145  NH1 ARG d  13    1322.432 383.453-1314.685  0.00  0.00    -0.235 N 
ATOM    146  NH2 ARG d  13    1324.059 384.715-1315.537  0.00  0.00    -0.235 N 
ATOM    147 11HH ARG d  13    1321.427 383.269-1314.689  0.00  0.00     0.174 HD
ATOM    148 12HH ARG d  13    1323.144 382.969-1314.135  0.00  0.00     0.174 HD
ATOM    149 21HH ARG d  13    1324.328 385.473-1316.168  0.00  0.00     0.174 HD
ATOM    150 22HH ARG d  13    1324.693 384.173-1314.948  0.00  0.00     0.174 HD
ATOM    151  HE  ARG d  13    1322.405 385.832-1316.807  0.00  0.00     0.177 HD
ENDBRANCH 142 143
ENDBRANCH 141 142
ENDBRANCH 140 141
ENDBRANCH 103 140
ENDBRANCH 101 103
ENDBRANCH  98  99
BRANCH  98 152
ATOM    152  CB  GLN d  12    1313.489 388.029-1317.375  0.00  0.00     0.044 C 
BRANCH 152 153
ATOM    153  CG  GLN d  12    1313.851 389.551-1317.344  0.00  0.00     0.105 C 
BRANCH 153 154
ATOM    154  CD  GLN d  12    1313.548 390.364-1316.079  0.00  0.00     0.215 C 
ATOM    155  NE2 GLN d  12    1312.980 389.788-1315.050  0.00  0.00    -0.370 N 
ATOM    156 21HE GLN d  12    1312.873 390.383-1314.227  0.00  0.00     0.159 HD
ATOM    157 22HE GLN d  12    1312.815 388.785-1315.154  0.00  0.00     0.159 HD
ATOM    158  OE1 GLN d  12    1313.852 391.545-1316.001  0.00  0.00    -0.274 OA
ENDBRANCH 153 154
ENDBRANCH 152 153
ENDBRANCH  98 152
ENDBRANCH  96  98
ENDBRANCH  93  94
BRANCH  93 159
ATOM    159  CB  VAL d  11    1311.639 383.519-1319.583  0.00  0.00     0.009 C 
ATOM    160  CG1 VAL d  11    1311.072 384.224-1320.845  0.00  0.00     0.012 C 
ATOM    161  CG2 VAL d  11    1311.112 382.065-1319.656  0.00  0.00     0.012 C 
ENDBRANCH  93 159
ENDBRANCH  91  93
ENDBRANCH  88  89
BRANCH  88 162
ATOM    162  CB  HIS d  10    1314.990 380.982-1316.335  0.00  0.00     0.095 C 
BRANCH 162 163
ATOM    163  CG  HIS d  10    1316.275 380.270-1316.026  0.00  0.00     0.053 A 
ATOM    164  CD2 HIS d  10    1316.654 379.934-1314.733  0.00  0.00     0.116 A 
ATOM    165  NE2 HIS d  10    1317.868 379.301-1314.799  0.00  0.00    -0.359 N 
ATOM    166  CE1 HIS d  10    1318.132 379.303-1316.134  0.00  0.00     0.207 A 
ATOM    167  2HE HIS d  10    1318.434 378.922-1314.026  0.00  0.00     0.166 HD
ATOM    168  ND1 HIS d  10    1317.226 379.863-1316.958  0.00  0.00    -0.247 NA
ENDBRANCH 162 163
ENDBRANCH  88 162
ENDBRANCH   3  88
TORSDOF 68
