REMARK WARNING: 32 MAX_TORS EXCEEDED!!!
REMARK  67 active torsions:
REMARK  status: ('A' for Active; 'I' for Inactive)
REMARK    1  A    between atoms: N_1  and  CA_2 
REMARK    2  A    between atoms: CA_2  and  C_3 
REMARK    3  A    between atoms: CA_2  and  CB_5 
REMARK       I    between atoms: C_3  and  N_11 
REMARK    4  A    between atoms: CB_5  and  CG_6 
REMARK    5  A    between atoms: CG_6  and  CD_7 
REMARK    6  A    between atoms: N_11  and  CA_12 
REMARK    7  A    between atoms: CA_12  and  C_13 
REMARK    8  A    between atoms: CA_12  and  CB_15 
REMARK       I    between atoms: C_13  and  N_22 
REMARK    9  A    between atoms: CB_15  and  CG_16 
REMARK       I    between atoms: CG_16  and  ND2_17 
REMARK   10  A    between atoms: CA_23  and  C_24 
REMARK       I    between atoms: C_24  and  N_29 
REMARK   11  A    between atoms: N_29  and  CA_30 
REMARK   12  A    between atoms: CA_30  and  C_31 
REMARK   13  A    between atoms: CA_30  and  CB_33 
REMARK       I    between atoms: C_31  and  N_39 
REMARK   14  A    between atoms: CB_33  and  CG_34 
REMARK   15  A    between atoms: CG_34  and  CD_35 
REMARK   16  A    between atoms: N_39  and  CA_40 
REMARK   17  A    between atoms: CA_40  and  C_41 
REMARK   18  A    between atoms: CA_40  and  CB_43 
REMARK       I    between atoms: C_41  and  N_47 
REMARK   19  A    between atoms: CB_43  and  OG_44 
REMARK   20  A    between atoms: N_47  and  CA_48 
REMARK   21  A    between atoms: CA_48  and  C_49 
REMARK   22  A    between atoms: CA_48  and  CB_51 
REMARK       I    between atoms: C_49  and  N_56 
REMARK   23  A    between atoms: CB_51  and  CG1_52 
REMARK   24  A    between atoms: N_56  and  CA_57 
REMARK   25  A    between atoms: CA_57  and  C_58 
REMARK   26  A    between atoms: CA_57  and  CB_60 
REMARK       I    between atoms: C_58  and  N_65 
REMARK   27  A    between atoms: CB_60  and  CG_61 
REMARK   28  A    between atoms: N_65  and  CA_66 
REMARK   29  A    between atoms: CA_66  and  C_67 
REMARK   30  A    between atoms: CA_66  and  CB_69 
REMARK       I    between atoms: C_67  and  N_74 
REMARK   31  A    between atoms: CB_69  and  CG_70 
REMARK   32  A    between atoms: N_74  and  CA_75 
REMARK   33  A    between atoms: CA_75  and  C_76 
REMARK   34  A    between atoms: CA_75  and  CB_78 
REMARK       I    between atoms: C_76  and  N_84 
REMARK   35  A    between atoms: CB_78  and  CG_79 
REMARK   36  A    between atoms: CG_79  and  CD_80 
REMARK   37  A    between atoms: N_84  and  CA_85 
REMARK   38  A    between atoms: CA_85  and  C_86 
REMARK   39  A    between atoms: CA_85  and  CB_88 
REMARK       I    between atoms: C_86  and  N_96 
REMARK   40  A    between atoms: CB_88  and  CG_89 
REMARK   41  A    between atoms: N_96  and  CA_97 
REMARK   42  A    between atoms: CA_97  and  C_98 
REMARK   43  A    between atoms: CA_97  and  CB_100 
REMARK       I    between atoms: C_98  and  N_104 
REMARK   44  A    between atoms: N_104  and  CA_105 
REMARK   45  A    between atoms: CA_105  and  C_106 
REMARK   46  A    between atoms: CA_105  and  CB_108 
REMARK       I    between atoms: C_106  and  N_112 
REMARK   47  A    between atoms: CB_108  and  OG_109 
REMARK   48  A    between atoms: N_112  and  CA_113 
REMARK   49  A    between atoms: CA_113  and  C_114 
REMARK   50  A    between atoms: CA_113  and  CB_116 
REMARK       I    between atoms: C_114  and  N_129 
REMARK   51  A    between atoms: CB_116  and  CG_117 
REMARK   52  A    between atoms: CG_117  and  CD_118 
REMARK   53  A    between atoms: CD_118  and  NE_119 
REMARK       I    between atoms: NE_119  and  CZ_120 
REMARK       I    between atoms: CZ_120  and  NH1_121 
REMARK       I    between atoms: CZ_120  and  NH2_122 
REMARK   54  A    between atoms: N_129  and  CA_130 
REMARK   55  A    between atoms: CA_130  and  C_131 
REMARK   56  A    between atoms: CA_130  and  CB_133 
REMARK       I    between atoms: C_131  and  N_137 
REMARK   57  A    between atoms: N_137  and  CA_138 
REMARK   58  A    between atoms: CA_138  and  C_139 
REMARK   59  A    between atoms: CA_138  and  CB_141 
REMARK       I    between atoms: C_139  and  N_146 
REMARK   60  A    between atoms: CB_141  and  CG_142 
REMARK   61  A    between atoms: CG_142  and  SD_143 
REMARK   62  A    between atoms: N_146  and  CA_147 
REMARK   63  A    between atoms: CA_147  and  C_148 
REMARK   64  A    between atoms: CA_147  and  CB_150 
REMARK   65  A    between atoms: CB_150  and  CG_151 
REMARK   66  A    between atoms: CG_151  and  CD_152 
REMARK   67  A    between atoms: CD_152  and  NE_153 
REMARK       I    between atoms: NE_153  and  CZ_154 
REMARK       I    between atoms: CZ_154  and  NH1_155 
ROOT
ATOM      1  CA  GLU d   9    1953.115 593.167-2007.604  0.00  0.00     0.177 C 
ENDROOT
BRANCH   1   2
ATOM      2  N   GLU d   9    1951.812 592.509-2007.660  0.00  0.00    -0.346 N 
ATOM      3  C   ASP d   8    1951.132 592.559-2008.755  0.00  0.00     0.241 C 
ATOM      4  O   ASP d   8    1951.605 593.164-2009.729  0.00  0.00    -0.271 OA
ATOM      5  H   GLU d   9    1951.449 592.022-2006.853  0.00  0.00     0.163 HD
BRANCH   3   6
ATOM      6  CA  ASP d   8    1949.786 591.879-2008.812  0.00  0.00     0.186 C 
BRANCH   6   7
ATOM      7  N   ASP d   8    1949.857 590.529-2008.259  0.00  0.00    -0.346 N 
ATOM      8  C   LEU d   7    1950.694 589.689-2008.765  0.00  0.00     0.241 C 
ATOM      9  O   LEU d   7    1951.415 590.052-2009.707  0.00  0.00    -0.271 OA
ATOM     10  H   ASP d   8    1949.259 590.258-2007.492  0.00  0.00     0.163 HD
BRANCH   8  11
ATOM     11  CA  LEU d   7    1950.767 588.294-2008.193  0.00  0.00     0.177 C 
BRANCH  11  12
ATOM     12  N   LEU d   7    1950.822 588.330-2006.734  0.00  0.00    -0.346 N 
ATOM     13  C   ILE d   6    1951.767 588.993-2006.161  0.00  0.00     0.241 C 
ATOM     14  O   ILE d   6    1952.602 589.581-2006.865  0.00  0.00    -0.271 OA
ATOM     15  H   LEU d   7    1950.130 587.843-2006.183  0.00  0.00     0.163 HD
BRANCH  13  16
ATOM     16  CA  ILE d   6    1951.825 589.031-2004.653  0.00  0.00     0.180 C 
BRANCH  16  17
ATOM     17  N   ILE d   6    1950.511 589.326-2004.087  0.00  0.00    -0.346 N 
ATOM     18  C   SER d   5    1949.907 590.409-2004.441  0.00  0.00     0.243 C 
ATOM     19  O   SER d   5    1950.454 591.162-2005.246  0.00  0.00    -0.271 OA
ATOM     20  H   ILE d   6    1950.083 588.691-2003.428  0.00  0.00     0.163 HD
BRANCH  18  21
ATOM     21  CA  SER d   5    1948.548 590.714-2003.855  0.00  0.00     0.200 C 
BRANCH  21  22
ATOM     22  N   SER d   5    1947.678 589.543-2003.914  0.00  0.00    -0.344 N 
ATOM     23  C   GLU d   4    1947.451 588.990-2005.057  0.00  0.00     0.241 C 
ATOM     24  O   GLU d   4    1947.977 589.470-2006.072  0.00  0.00    -0.271 OA
ATOM     25  H   SER d   5    1947.261 589.171-2003.072  0.00  0.00     0.163 HD
BRANCH  23  26
ATOM     26  CA  GLU d   4    1946.552 587.779-2005.118  0.00  0.00     0.177 C 
BRANCH  26  27
ATOM     27  N   GLU d   4    1946.911 586.808-2004.088  0.00  0.00    -0.346 N 
ATOM     28  C   PRO d   3    1948.116 586.348-2004.056  0.00  0.00     0.241 C 
ATOM     29  O   PRO d   3    1948.940 586.731-2004.888  0.00  0.00    -0.271 OA
ATOM     30  H   GLU d   4    1946.227 586.501-2003.412  0.00  0.00     0.163 HD
BRANCH  28  31
ATOM     31  CA  PRO d   3    1948.514 585.325-2002.979  0.00  0.00     0.179 C 
ATOM     32  N   PRO d   3    1948.062 585.734-2001.658  0.00  0.00    -0.337 N 
ATOM     33  C   ASN d   2    1948.584 586.729-2001.024  0.00  0.00     0.243 C 
ATOM     34  CD  PRO d   3    1946.985 584.941-2001.109  0.00  0.00     0.127 C 
ATOM     35  O   ASN d   2    1949.499 587.359-2001.552  0.00  0.00    -0.271 OA
ATOM     36  CG  PRO d   3    1946.527 584.122-2002.318  0.00  0.00     0.022 C 
ATOM     37  CB  PRO d   3    1947.810 583.970-2003.149  0.00  0.00     0.037 C 
BRANCH  33  38
ATOM     38  CA  ASN d   2    1948.053 587.085-1999.655  0.00  0.00     0.185 C 
BRANCH  38  39
ATOM     39  N   ASN d   2    1946.594 587.123-1999.655  0.00  0.00    -0.346 N 
ATOM     40  C   GLU d   1    1945.989 587.909-2000.480  0.00  0.00     0.242 C 
ATOM     41  O   GLU d   1    1946.665 588.608-2001.249  0.00  0.00    -0.271 OA
ATOM     42  H   ASN d   2    1946.065 586.544-1999.019  0.00  0.00     0.163 HD
BRANCH  40  43
ATOM     43  CA  GLU d   1    1944.480 587.949-2000.480  0.00  0.00     0.191 C 
BRANCH  43  44
ATOM     44  N   GLU d   1    1943.921 586.600-2000.480  0.00  0.00    -0.326 NA
ATOM     45  H   GLU d   1    1944.548 585.721-2000.480  0.00  0.00     0.180 HD
ENDBRANCH  43  44
BRANCH  43  46
ATOM     46  CB  GLU d   1    1943.957 588.734-1999.243  0.00  0.00     0.047 C 
BRANCH  46  47
ATOM     47  CG  GLU d   1    1944.432 590.219-1999.132  0.00  0.00     0.116 C 
BRANCH  47  48
ATOM     48  CD  GLU d   1    1944.008 591.023-1997.917  0.00  0.00     0.172 C 
ATOM     49  OE1 GLU d   1    1943.280 590.521-1997.039  0.00  0.00    -0.648 OA
ATOM     50  OE2 GLU d   1    1944.438 592.193-1997.845  0.00  0.00    -0.648 OA
ENDBRANCH  47  48
ENDBRANCH  46  47
ENDBRANCH  43  46
ENDBRANCH  40  43
ENDBRANCH  38  39
BRANCH  38  51
ATOM     51  CB  ASN d   2    1948.545 586.062-1998.591  0.00  0.00     0.137 C 
BRANCH  51  52
ATOM     52  CG  ASN d   2    1948.082 586.286-1997.147  0.00  0.00     0.217 C 
ATOM     53  ND2 ASN d   2    1948.676 587.200-1996.429  0.00  0.00    -0.370 N 
ATOM     54 21HD ASN d   2    1948.195 587.373-1995.543  0.00  0.00     0.159 HD
ATOM     55 22HD ASN d   2    1949.378 587.772-1996.898  0.00  0.00     0.159 HD
ATOM     56  OD1 ASN d   2    1947.161 585.652-1996.653  0.00  0.00    -0.274 OA
ENDBRANCH  51  52
ENDBRANCH  38  51
ENDBRANCH  33  38
ENDBRANCH  28  31
ENDBRANCH  26  27
BRANCH  26  57
ATOM     57  CB  GLU d   4    1945.063 588.198-2004.948  0.00  0.00     0.045 C 
BRANCH  57  58
ATOM     58  CG  GLU d   4    1944.515 589.202-2006.013  0.00  0.00     0.116 C 
BRANCH  58  59
ATOM     59  CD  GLU d   4    1943.089 589.699-2005.870  0.00  0.00     0.172 C 
ATOM     60  OE1 GLU d   4    1942.362 589.300-2004.939  0.00  0.00    -0.648 OA
ATOM     61  OE2 GLU d   4    1942.699 590.528-2006.718  0.00  0.00    -0.648 OA
ENDBRANCH  58  59
ENDBRANCH  57  58
ENDBRANCH  26  57
ENDBRANCH  23  26
ENDBRANCH  21  22
BRANCH  21  62
ATOM     62  CB  SER d   5    1948.659 591.247-2002.405  0.00  0.00     0.199 C 
BRANCH  62  63
ATOM     63  OG  SER d   5    1949.391 590.367-2001.544  0.00  0.00    -0.398 OA
ATOM     64  HG  SER d   5    1948.902 589.542-2001.493  0.00  0.00     0.209 HD
ENDBRANCH  62  63
ENDBRANCH  21  62
ENDBRANCH  18  21
ENDBRANCH  16  17
BRANCH  16  65
ATOM     65  CB  ILE d   6    1952.424 587.695-2004.053  0.00  0.00     0.013 C 
ATOM     66  CG2 ILE d   6    1953.866 587.393-2004.568  0.00  0.00     0.012 C 
BRANCH  65  67
ATOM     67  CG1 ILE d   6    1952.444 587.633-2002.492  0.00  0.00     0.002 C 
ATOM     68  CD1 ILE d   6    1952.714 586.244-2001.877  0.00  0.00     0.005 C 
ENDBRANCH  65  67
ENDBRANCH  16  65
ENDBRANCH  13  16
ENDBRANCH  11  12
BRANCH  11  69
ATOM     69  CB  LEU d   7    1949.564 587.433-2008.673  0.00  0.00     0.038 C 
BRANCH  69  70
ATOM     70  CG  LEU d   7    1949.491 585.954-2008.207  0.00  0.00    -0.020 C 
ATOM     71  CD1 LEU d   7    1948.302 585.248-2008.872  0.00  0.00     0.009 C 
ATOM     72  CD2 LEU d   7    1950.785 585.175-2008.498  0.00  0.00     0.009 C 
ENDBRANCH  69  70
ENDBRANCH  11  69
ENDBRANCH   8  11
ENDBRANCH   6   7
BRANCH   6  73
ATOM     73  CB  ASP d   8    1948.708 592.718-2008.071  0.00  0.00     0.147 C 
BRANCH  73  74
ATOM     74  CG  ASP d   8    1948.489 594.138-2008.611  0.00  0.00     0.175 C 
ATOM     75  OD1 ASP d   8    1948.553 594.338-2009.841  0.00  0.00    -0.648 OA
ATOM     76  OD2 ASP d   8    1948.296 595.064-2007.795  0.00  0.00    -0.648 OA
ENDBRANCH  73  74
ENDBRANCH   6  73
ENDBRANCH   3   6
ENDBRANCH   1   2
BRANCH   1  77
ATOM     77  C   GLU d   9    1954.033 592.640-2008.680  0.00  0.00     0.241 C 
ATOM     78  O   GLU d   9    1954.697 593.395-2009.405  0.00  0.00    -0.271 OA
ATOM     79  N   HIS d  10    1954.130 591.365-2008.850  0.00  0.00    -0.346 N 
ATOM     80  H   HIS d  10    1953.599 590.729-2008.271  0.00  0.00     0.163 HD
BRANCH  79  81
ATOM     81  CA  HIS d  10    1955.018 590.854-2009.890  0.00  0.00     0.182 C 
BRANCH  81  82
ATOM     82  C   HIS d  10    1954.651 591.419-2011.241  0.00  0.00     0.241 C 
ATOM     83  O   HIS d  10    1955.504 591.884-2012.013  0.00  0.00    -0.271 OA
ATOM     84  N   VAL d  11    1953.414 591.418-2011.604  0.00  0.00    -0.346 N 
ATOM     85  H   VAL d  11    1952.701 591.044-2010.994  0.00  0.00     0.163 HD
BRANCH  84  86
ATOM     86  CA  VAL d  11    1953.059 591.964-2012.911  0.00  0.00     0.180 C 
BRANCH  86  87
ATOM     87  C   VAL d  11    1953.523 593.395-2013.043  0.00  0.00     0.241 C 
ATOM     88  O   VAL d  11    1954.124 593.801-2014.046  0.00  0.00    -0.271 OA
ATOM     89  N   SER d  12    1953.285 594.220-2012.081  0.00  0.00    -0.344 N 
ATOM     90  H   SER d  12    1952.796 593.914-2011.251  0.00  0.00     0.163 HD
BRANCH  89  91
ATOM     91  CA  SER d  12    1953.734 595.604-2012.208  0.00  0.00     0.200 C 
BRANCH  91  92
ATOM     92  C   SER d  12    1955.224 595.669-2012.446  0.00  0.00     0.243 C 
ATOM     93  O   SER d  12    1955.714 596.376-2013.326  0.00  0.00    -0.271 OA
ATOM     94  N   ARG d  13    1956.008 594.961-2011.704  0.00  0.00    -0.346 N 
ATOM     95  H   ARG d  13    1955.631 594.372-2010.976  0.00  0.00     0.163 HD
BRANCH  94  96
ATOM     96  CA  ARG d  13    1957.448 595.025-2011.935  0.00  0.00     0.176 C 
BRANCH  96  97
ATOM     97  C   ARG d  13    1957.784 594.652-2013.359  0.00  0.00     0.241 C 
ATOM     98  O   ARG d  13    1958.554 595.322-2014.044  0.00  0.00    -0.271 OA
ATOM     99  N   VAL d  14    1957.247 593.598-2013.873  0.00  0.00    -0.346 N 
ATOM    100  H   VAL d  14    1956.611 593.030-2013.331  0.00  0.00     0.163 HD
BRANCH  99 101
ATOM    101  CA  VAL d  14    1957.571 593.237-2015.250  0.00  0.00     0.180 C 
BRANCH 101 102
ATOM    102  C   VAL d  14    1957.243 594.367-2016.197  0.00  0.00     0.241 C 
ATOM    103  O   VAL d  14    1958.037 594.747-2017.067  0.00  0.00    -0.271 OA
ATOM    104  N   MET d  15    1956.099 594.955-2016.096  0.00  0.00    -0.346 N 
ATOM    105  H   MET d  15    1955.434 594.663-2015.394  0.00  0.00     0.163 HD
BRANCH 104 106
ATOM    106  CA  MET d  15    1955.780 596.047-2017.010  0.00  0.00     0.177 C 
BRANCH 106 107
ATOM    107  C   MET d  15    1956.812 597.145-2016.923  0.00  0.00     0.241 C 
ATOM    108  O   MET d  15    1957.316 597.655-2017.936  0.00  0.00    -0.271 OA
ATOM    109  N   ARG d  16    1957.182 597.567-2015.761  0.00  0.00    -0.347 N 
ATOM    110  H   ARG d  16    1956.786 597.168-2014.921  0.00  0.00     0.163 HD
BRANCH 109 111
ATOM    111  CA  ARG d  16    1958.180 598.629-2015.678  0.00  0.00     0.162 C 
BRANCH 111 112
ATOM    112  C   ARG d  16    1959.450 598.234-2016.394  0.00  0.00     0.219 C 
ATOM    113  O   ARG d  16    1959.562 597.157-2016.975  0.00  0.00    -0.287 OA
ENDBRANCH 111 112
BRANCH 111 114
ATOM    114  CB  ARG d  16    1958.449 598.947-2014.180  0.00  0.00     0.035 C 
BRANCH 114 115
ATOM    115  CG  ARG d  16    1959.277 600.235-2013.908  0.00  0.00     0.023 C 
BRANCH 115 116
ATOM    116  CD  ARG d  16    1959.527 600.455-2012.406  0.00  0.00     0.138 C 
BRANCH 116 117
ATOM    117  NE  ARG d  16    1960.305 601.713-2012.206  0.00  0.00    -0.227 N 
ATOM    118  CZ  ARG d  16    1960.697 602.196-2011.031  0.00  0.00     0.665 C 
ATOM    119  NH1 ARG d  16    1960.448 601.612-2009.892  0.00  0.00    -0.235 N 
ATOM    120  NH2 ARG d  16    1961.363 603.307-2011.013  0.00  0.00    -0.235 N 
ATOM    121 11HH ARG d  16    1959.921 600.740-2009.976  0.00  0.00     0.174 HD
ATOM    122 12HH ARG d  16    1960.783 602.048-2009.031  0.00  0.00     0.174 HD
ATOM    123 21HH ARG d  16    1961.549 603.749-2011.915  0.00  0.00     0.174 HD
ATOM    124 22HH ARG d  16    1961.653 603.662-2010.101  0.00  0.00     0.174 HD
ATOM    125  HE  ARG d  16    1960.584 602.293-2013.004  0.00  0.00     0.177 HD
ENDBRANCH 116 117
ENDBRANCH 115 116
ENDBRANCH 114 115
ENDBRANCH 111 114
ENDBRANCH 109 111
ENDBRANCH 106 107
BRANCH 106 126
ATOM    126  CB  MET d  15    1954.360 596.595-2016.702  0.00  0.00     0.045 C 
BRANCH 126 127
ATOM    127  CG  MET d  15    1953.196 595.599-2016.893  0.00  0.00     0.076 C 
BRANCH 127 128
ATOM    128  SD  MET d  15    1951.624 596.467-2016.779  0.00  0.00    -0.173 SA
ATOM    129  CE  MET d  15    1950.540 595.039-2016.642  0.00  0.00     0.089 C 
ENDBRANCH 127 128
ENDBRANCH 126 127
ENDBRANCH 106 126
ENDBRANCH 104 106
ENDBRANCH 101 102
BRANCH 101 130
ATOM    130  CB  VAL d  14    1956.797 591.921-2015.657  0.00  0.00     0.009 C 
ATOM    131  CG1 VAL d  14    1956.886 591.501-2017.150  0.00  0.00     0.012 C 
ATOM    132  CG2 VAL d  14    1957.227 590.668-2014.855  0.00  0.00     0.012 C 
ENDBRANCH 101 130
ENDBRANCH  99 101
ENDBRANCH  96  97
BRANCH  96 133
ATOM    133  CB  ARG d  13    1958.160 594.085-2010.920  0.00  0.00     0.036 C 
BRANCH 133 134
ATOM    134  CG  ARG d  13    1959.705 594.236-2010.839  0.00  0.00     0.023 C 
BRANCH 134 135
ATOM    135  CD  ARG d  13    1960.330 593.248-2009.840  0.00  0.00     0.138 C 
BRANCH 135 136
ATOM    136  NE  ARG d  13    1961.808 593.453-2009.790  0.00  0.00    -0.227 N 
ATOM    137  CZ  ARG d  13    1962.655 592.760-2009.034  0.00  0.00     0.665 C 
ATOM    138  NH1 ARG d  13    1962.288 591.797-2008.236  0.00  0.00    -0.235 N 
ATOM    139  NH2 ARG d  13    1963.915 593.058-2009.091  0.00  0.00    -0.235 N 
ATOM    140 11HH ARG d  13    1961.282 591.612-2008.239  0.00  0.00     0.174 HD
ATOM    141 12HH ARG d  13    1963.000 591.313-2007.687  0.00  0.00     0.174 HD
ATOM    142 21HH ARG d  13    1964.183 593.815-2009.722  0.00  0.00     0.174 HD
ATOM    143 22HH ARG d  13    1964.549 592.516-2008.501  0.00  0.00     0.174 HD
ATOM    144  HE  ARG d  13    1962.260 594.174-2010.361  0.00  0.00     0.177 HD
ENDBRANCH 135 136
ENDBRANCH 134 135
ENDBRANCH 133 134
ENDBRANCH  96 133
ENDBRANCH  94  96
ENDBRANCH  91  92
BRANCH  91 145
ATOM    145  CB  SER d  12    1953.318 596.435-2010.969  0.00  0.00     0.199 C 
BRANCH 145 146
ATOM    146  OG  SER d  12    1954.032 596.065-2009.785  0.00  0.00    -0.398 OA
ATOM    147  HG  SER d  12    1953.807 595.152-2009.587  0.00  0.00     0.209 HD
ENDBRANCH 145 146
ENDBRANCH  91 145
ENDBRANCH  89  91
ENDBRANCH  86  87
BRANCH  86 148
ATOM    148  CB  VAL d  11    1951.498 591.857-2013.131  0.00  0.00     0.009 C 
ATOM    149  CG1 VAL d  11    1950.929 592.561-2014.394  0.00  0.00     0.012 C 
ATOM    150  CG2 VAL d  11    1950.974 590.403-2013.205  0.00  0.00     0.012 C 
ENDBRANCH  86 148
ENDBRANCH  84  86
ENDBRANCH  81  82
BRANCH  81 151
ATOM    151  CB  HIS d  10    1954.855 589.325-2009.885  0.00  0.00     0.095 C 
BRANCH 151 152
ATOM    152  CG  HIS d  10    1956.140 588.615-2009.578  0.00  0.00     0.053 A 
ATOM    153  CD2 HIS d  10    1956.521 588.280-2008.285  0.00  0.00     0.116 A 
ATOM    154  NE2 HIS d  10    1957.736 587.648-2008.352  0.00  0.00    -0.359 N 
ATOM    155  CE1 HIS d  10    1957.999 587.652-2009.687  0.00  0.00     0.207 A 
ATOM    156  2HE HIS d  10    1958.303 587.271-2007.578  0.00  0.00     0.166 HD
ATOM    157  ND1 HIS d  10    1957.093 588.210-2010.510  0.00  0.00    -0.247 NA
ENDBRANCH 151 152
ENDBRANCH  81 151
ENDBRANCH  79  81
ENDBRANCH   1  77
BRANCH   1 158
ATOM    158  CB  GLU d   9    1953.748 592.959-2006.198  0.00  0.00     0.045 C 
BRANCH 158 159
ATOM    159  CG  GLU d   9    1955.130 593.652-2005.969  0.00  0.00     0.116 C 
BRANCH 159 160
ATOM    160  CD  GLU d   9    1955.832 593.439-2004.641  0.00  0.00     0.172 C 
ATOM    161  OE1 GLU d   9    1955.311 592.747-2003.745  0.00  0.00    -0.648 OA
ATOM    162  OE2 GLU d   9    1956.951 593.977-2004.509  0.00  0.00    -0.648 OA
ENDBRANCH 159 160
ENDBRANCH 158 159
ENDBRANCH   1 158
TORSDOF 67
