@<TRIPOS>MOLECULE
11-8
269 271 16              
SMALL
USER_CHARGES
@<TRIPOS>ATOM
1	   N	1738.748	520.519	-1777.672	N.3	1	GLU1	-0.516	
2	  CA	1739.307	521.868	-1777.672	C.3	1	GLU1	0.040	
3	   C	1740.816	521.828	-1777.672	C.2	1	GLU1	0.537	
4	   O	1741.492	522.527	-1778.441	O.2	1	GLU1	-0.582	
5	  CB	1738.784	522.653	-1776.435	C.3	1	GLU1	0.056	
6	  CG	1739.259	524.138	-1776.324	C.3	1	GLU1	0.014	
7	  CD	1738.835	524.942	-1775.109	C.2	1	GLU1	0.805	
8	 OE1	1738.107	524.440	-1774.231	O.co2	1	GLU1	-0.819	
9	 OE2	1739.265	526.112	-1775.037	O.co2	1	GLU1	-0.819	
10	   H	1739.375	519.640	-1777.672	 H	1	GLU1	0.294	
11	  HA	1738.981	522.386	-1778.592	 H	1	GLU1	0.111	
12	 2HB	1739.073	522.122	-1775.505	 H	1	GLU1	-0.017	
13	 3HB	1737.677	522.643	-1776.422	 H	1	GLU1	-0.017	
14	 2HG	1738.949	524.723	-1777.205	 H	1	GLU1	-0.043	
15	 3HG	1740.359	524.205	-1776.295	 H	1	GLU1	-0.043	
16	   N	1741.420	521.042	-1776.847	N.am	2	ASN2	-0.416	
17	  CA	1742.880	521.004	-1776.847	C.3	2	ASN2	0.014	
18	   C	1743.411	520.648	-1778.215	C.2	2	ASN2	0.597	
19	   O	1744.326	521.278	-1778.744	O.2	2	ASN2	-0.568	
20	  CB	1743.372	519.980	-1775.782	C.3	2	ASN2	-0.204	
21	  CG	1742.908	520.204	-1774.339	C.2	2	ASN2	0.713	
22	 ND2	1743.503	521.119	-1773.621	N.pl3	2	ASN2	-0.919	
23	 OD1	1741.988	519.571	-1773.845	O.2	2	ASN2	-0.593	
24	   H	1740.892	520.463	-1776.210	 H	2	ASN2	0.272	
25	  HA	1743.257	522.014	-1776.602	 H	2	ASN2	0.105	
26	 2HB	1744.476	519.921	-1775.786	 H	2	ASN2	0.080	
27	 3HB	1743.042	518.962	-1776.068	 H	2	ASN2	0.080	
28	1HD2	1743.022	521.292	-1772.734	 H	2	ASN2	0.420	
29	2HD2	1744.204	521.691	-1774.090	 H	2	ASN2	0.420	
30	   N	1742.889	519.653	-1778.849	N.am	3	PRO3	-0.255	
31	  CA	1743.341	519.244	-1780.171	C.3	3	PRO3	-0.027	
32	   C	1742.943	520.267	-1781.248	C.2	3	PRO3	0.590	
33	   O	1743.766	520.650	-1782.079	O.2	3	PRO3	-0.575	
34	  CB	1742.637	517.889	-1780.340	C.3	3	PRO3	-0.007	
35	  CG	1741.354	518.041	-1779.510	C.3	3	PRO3	0.019	
36	  CD	1741.811	518.860	-1778.300	C.3	3	PRO3	0.019	
37	  HA	1744.427	519.124	-1780.185	 H	3	PRO3	0.064	
38	 2HB	1743.260	517.108	-1779.900	 H	3	PRO3	0.025	
39	 3HB	1742.439	517.640	-1781.386	 H	3	PRO3	0.025	
40	 2HG	1740.926	517.079	-1779.219	 H	3	PRO3	0.021	
41	 3HG	1740.616	518.612	-1780.077	 H	3	PRO3	0.021	
42	 2HD	1742.200	518.210	-1777.513	 H	3	PRO3	0.039	
43	 3HD	1741.015	519.496	-1777.907	 H	3	PRO3	0.039	
44	   N	1741.738	520.727	-1781.280	N.am	4	GLU4	-0.516	
45	  CA	1741.379	521.698	-1782.310	C.3	4	GLU4	0.040	
46	   C	1742.277	522.909	-1782.249	C.2	4	GLU4	0.537	
47	   O	1742.804	523.389	-1783.263	O.2	4	GLU4	-0.582	
48	  CB	1739.890	522.117	-1782.140	C.3	4	GLU4	0.056	
49	  CG	1739.342	523.121	-1783.205	C.3	4	GLU4	0.014	
50	  CD	1737.916	523.617	-1783.062	C.2	4	GLU4	0.805	
51	 OE1	1737.189	523.219	-1782.131	O.co2	4	GLU4	-0.819	
52	 OE2	1737.526	524.447	-1783.910	O.co2	4	GLU4	-0.819	
53	   H	1741.054	520.420	-1780.604	 H	4	GLU4	0.294	
54	  HA	1741.510	521.228	-1783.301	 H	4	GLU4	0.111	
55	 2HB	1739.738	522.557	-1781.133	 H	4	GLU4	-0.017	
56	 3HB	1739.242	521.219	-1782.146	 H	4	GLU4	-0.017	
57	 2HG	1739.424	522.706	-1784.223	 H	4	GLU4	-0.043	
58	 3HG	1739.930	524.053	-1783.216	 H	4	GLU4	-0.043	
59	   N	1742.505	523.462	-1781.105	N.am	5	SER5	-0.416	
60	  CA	1743.374	524.633	-1781.047	C.3	5	SER5	-0.025	
61	   C	1744.733	524.328	-1781.633	C.2	5	SER5	0.597	
62	   O	1745.281	525.081	-1782.438	O.2	5	SER5	-0.568	
63	  CB	1743.486	525.166	-1779.597	C.3	5	SER5	0.212	
64	  OG	1744.218	524.286	-1778.735	O.3	5	SER5	-0.655	
65	   H	1742.088	523.090	-1780.264	 H	5	SER5	0.272	
66	  HA	1742.925	525.423	-1781.676	 H	5	SER5	0.084	
67	 2HB	1742.486	525.359	-1779.163	 H	5	SER5	0.035	
68	 3HB	1743.991	526.151	-1779.599	 H	5	SER5	0.035	
69	  HG	1743.729	523.461	-1778.685	 H	5	SER5	0.428	
70	   N	1745.338	523.245	-1781.278	N.am	6	ILE6	-0.416	
71	  CA	1746.651	522.950	-1781.845	C.3	6	ILE6	-0.060	
72	   C	1746.594	522.912	-1783.352	C.2	6	ILE6	0.597	
73	   O	1747.429	523.500	-1784.056	O.2	6	ILE6	-0.568	
74	  CB	1747.251	521.614	-1781.245	C.3	6	ILE6	0.130	
75	 CG1	1747.271	521.552	-1779.684	C.3	6	ILE6	-0.043	
76	 CG2	1748.693	521.312	-1781.760	C.3	6	ILE6	-0.320	
77	 CD1	1747.541	520.163	-1779.069	C.3	6	ILE6	-0.066	
78	   H	1744.910	522.610	-1780.619	 H	6	ILE6	0.272	
79	  HA	1747.325	523.784	-1781.577	 H	6	ILE6	0.087	
80	  HB	1746.593	520.788	-1781.589	 H	6	ILE6	0.019	
81	2HG1	1746.288	521.871	-1779.288	 H	6	ILE6	0.024	
82	3HG1	1747.987	522.294	-1779.279	 H	6	ILE6	0.024	
83	1HG2	1748.751	521.219	-1782.859	 H	6	ILE6	0.088	
84	2HG2	1749.415	522.095	-1781.458	 H	6	ILE6	0.088	
85	3HG2	1749.083	520.350	-1781.381	 H	6	ILE6	0.088	
86	1HD1	1746.813	519.408	-1779.423	 H	6	ILE6	0.019	
87	2HD1	1748.551	519.784	-1779.305	 H	6	ILE6	0.019	
88	3HD1	1747.465	520.192	-1777.966	 H	6	ILE6	0.019	
89	   N	1745.648	522.249	-1783.926	N.am	7	LEU7	-0.416	
90	  CA	1745.593	522.213	-1785.385	C.3	7	LEU7	-0.052	
91	   C	1745.521	523.608	-1785.957	C.2	7	LEU7	0.597	
92	   O	1746.241	523.971	-1786.899	O.2	7	LEU7	-0.568	
93	  CB	1744.390	521.352	-1785.865	C.3	7	LEU7	-0.110	
94	  CG	1744.318	519.873	-1785.399	C.3	7	LEU7	0.353	
95	 CD1	1743.128	519.167	-1786.064	C.3	7	LEU7	-0.412	
96	 CD2	1745.612	519.094	-1785.690	C.3	7	LEU7	-0.412	
97	   H	1744.956	521.762	-1783.375	 H	7	LEU7	0.272	
98	  HA	1746.535	521.773	-1785.759	 H	7	LEU7	0.092	
99	 2HB	1744.367	521.368	-1786.973	 H	7	LEU7	0.046	
100	 3HB	1743.451	521.855	-1785.561	 H	7	LEU7	0.046	
101	  HG	1744.148	519.865	-1784.302	 H	7	LEU7	-0.036	
102	1HD1	1742.171	519.676	-1785.842	 H	7	LEU7	0.100	
103	2HD1	1743.227	519.127	-1787.165	 H	7	LEU7	0.100	
104	3HD1	1743.021	518.126	-1785.708	 H	7	LEU7	0.100	
105	1HD2	1745.887	519.124	-1786.760	 H	7	LEU7	0.100	
106	2HD2	1746.465	519.506	-1785.119	 H	7	LEU7	0.100	
107	3HD2	1745.530	518.032	-1785.394	 H	7	LEU7	0.100	
108	   N	1744.683	524.448	-1785.451	N.am	8	ASP8	-0.516	
109	  CA	1744.613	525.798	-1786.004	C.3	8	ASP8	0.038	
110	   C	1745.959	526.478	-1785.947	C.2	8	ASP8	0.537	
111	   O	1746.432	527.083	-1786.921	O.2	8	ASP8	-0.582	
112	  CB	1743.534	526.637	-1785.262	C.3	8	ASP8	-0.030	
113	  CG	1743.315	528.057	-1785.802	C.2	8	ASP8	0.799	
114	 OD1	1743.379	528.257	-1787.033	O.co2	8	ASP8	-0.801	
115	 OD2	1743.123	528.983	-1784.987	O.co2	8	ASP8	-0.801	
116	   H	1744.085	524.177	-1784.683	 H	8	ASP8	0.294	
117	  HA	1744.330	525.720	-1787.071	 H	8	ASP8	0.088	
118	 2HB	1743.792	526.720	-1784.190	 H	8	ASP8	-0.012	
119	 3HB	1742.555	526.131	-1785.295	 H	8	ASP8	-0.012	
120	   N	1746.639	526.428	-1784.851	N.am	9	GLU9	-0.516	
121	  CA	1747.941	527.086	-1784.796	C.3	9	GLU9	0.040	
122	   C	1748.860	526.559	-1785.872	C.2	9	GLU9	0.537	
123	   O	1749.524	527.314	-1786.597	O.2	9	GLU9	-0.582	
124	  CB	1748.575	526.878	-1783.390	C.3	9	GLU9	0.056	
125	  CG	1749.957	527.571	-1783.161	C.3	9	GLU9	0.014	
126	  CD	1750.659	527.358	-1781.832	C.2	9	GLU9	0.805	
127	 OE1	1750.137	526.666	-1780.936	O.co2	9	GLU9	-0.819	
128	 OE2	1751.778	527.896	-1781.700	O.co2	9	GLU9	-0.819	
129	   H	1746.276	525.941	-1784.045	 H	9	GLU9	0.294	
130	  HA	1747.799	528.168	-1784.971	 H	9	GLU9	0.111	
131	 2HB	1748.688	525.794	-1783.188	 H	9	GLU9	-0.017	
132	 3HB	1747.877	527.231	-1782.606	 H	9	GLU9	-0.017	
133	 2HG	1749.885	528.662	-1783.300	 H	9	GLU9	-0.043	
134	 3HG	1750.704	527.226	-1783.895	 H	9	GLU9	-0.043	
135	   N	1748.957	525.284	-1786.042	N.am	10	HIS10	-0.416	
136	  CA	1749.845	524.773	-1787.082	C.3	10	HIS10	-0.058	
137	   C	1749.478	525.338	-1788.433	C.2	10	HIS10	0.597	
138	   O	1750.331	525.804	-1789.204	O.2	10	HIS10	-0.568	
139	  CB	1749.682	523.244	-1787.078	C.3	10	HIS10	-0.007	
140	  CG	1750.968	522.535	-1786.770	C.2	10	HIS10	0.187	
141	 CD2	1751.349	522.199	-1785.477	C.2	10	HIS10	-0.221	
142	 ND1	1751.920	522.130	-1787.702	N.2	10	HIS10	-0.543	
143	 CE1	1752.827	521.571	-1786.879	C.2	10	HIS10	0.163	
144	 NE2	1752.564	521.568	-1785.544	N.pl3	10	HIS10	-0.280	
145	   H	1748.426	524.648	-1785.463	 H	10	HIS10	0.272	
146	  HA	1750.864	525.131	-1786.856	 H	10	HIS10	0.136	
147	 2HB	1749.317	522.878	-1788.058	 H	10	HIS10	0.037	
148	 3HB	1748.926	522.907	-1786.338	 H	10	HIS10	0.037	
149	 2HD	1750.763	522.414	-1784.588	 H	10	HIS10	0.186	
150	 1HE	1753.718	521.151	-1787.326	 H	10	HIS10	0.144	
151	 2HE	1753.131	521.191	-1784.770	 H	10	HIS10	0.334	
152	   N	1748.240	525.337	-1788.796	N.am	11	PHE11	-0.416	
153	  CA	1747.885	525.883	-1790.103	C.3	11	PHE11	-0.002	
154	   C	1748.349	527.314	-1790.235	C.2	11	PHE11	0.597	
155	   O	1748.962	527.725	-1791.260	O.2	11	PHE11	-0.568	
156	  CB	1746.340	525.834	-1790.301	C.3	11	PHE11	-0.034	
157	  CG	1745.680	524.450	-1790.199	C.2	11	PHE11	0.012	
158	 CD1	1745.256	523.976	-1788.952	C.2	11	PHE11	-0.126	
159	 CD2	1745.554	523.633	-1791.324	C.2	11	PHE11	-0.126	
160	 CE1	1744.731	522.694	-1788.830	C.2	11	PHE11	-0.170	
161	 CE2	1745.018	522.353	-1791.204	C.2	11	PHE11	-0.170	
162	  CZ	1744.610	521.884	-1789.956	C.2	11	PHE11	-0.107	
163	   H	1747.528	524.963	-1788.186	 H	11	PHE11	0.272	
164	  HA	1748.386	525.287	-1790.889	 H	11	PHE11	0.098	
165	 2HB	1746.081	526.273	-1791.285	 H	11	PHE11	0.030	
166	 3HB	1745.850	526.518	-1789.577	 H	11	PHE11	0.030	
167	 1HD	1745.377	524.589	-1788.068	 H	11	PHE11	0.133	
168	 2HD	1745.889	523.982	-1792.292	 H	11	PHE11	0.133	
169	 1HE	1744.436	522.327	-1787.858	 H	11	PHE11	0.143	
170	 2HE	1744.931	521.722	-1792.076	 H	11	PHE11	0.143	
171	  HZ	1744.208	520.887	-1789.858	 H	11	PHE11	0.130	
172	   N	1748.111	528.141	-1789.274	N.am	12	GLN12	-0.416	
173	  CA	1748.559	529.524	-1789.403	C.3	12	GLN12	-0.003	
174	   C	1750.049	529.591	-1789.641	C.2	12	GLN12	0.597	
175	   O	1750.536	530.299	-1790.521	O.2	12	GLN12	-0.568	
176	  CB	1748.168	530.292	-1788.121	C.3	12	GLN12	-0.004	
177	  CG	1748.528	531.814	-1788.091	C.3	12	GLN12	-0.064	
178	  CD	1748.226	532.629	-1786.827	C.2	12	GLN12	0.695	
179	 NE2	1747.659	532.054	-1785.798	N.pl3	12	GLN12	-0.941	
180	 OE1	1748.527	533.810	-1786.751	O.2	12	GLN12	-0.609	
181	   H	1747.623	527.835	-1788.444	 H	12	GLN12	0.272	
182	  HA	1748.060	529.979	-1790.278	 H	12	GLN12	0.085	
183	 2HB	1748.645	529.793	-1787.251	 H	12	GLN12	0.017	
184	 3HB	1747.078	530.185	-1787.957	 H	12	GLN12	0.017	
185	 2HG	1748.050	532.334	-1788.943	 H	12	GLN12	0.035	
186	 3HG	1749.612	531.957	-1788.257	 H	12	GLN12	0.035	
187	1HE2	1747.552	532.649	-1784.975	 H	12	GLN12	0.425	
188	2HE2	1747.496	531.050	-1785.900	 H	12	GLN12	0.425	
189	   N	1750.834	528.886	-1788.900	N.am	13	ARG13	-0.348	
190	  CA	1752.275	528.952	-1789.131	C.3	13	ARG13	-0.264	
191	   C	1752.610	528.579	-1790.556	C.2	13	ARG13	0.734	
192	   O	1753.378	529.250	-1791.241	O.2	13	ARG13	-0.589	
193	  CB	1752.989	528.014	-1788.116	C.3	13	ARG13	-0.001	
194	  CG	1754.534	528.168	-1788.036	C.3	13	ARG13	0.039	
195	  CD	1755.161	527.182	-1787.037	C.3	13	ARG13	0.049	
196	  NE	1756.638	527.390	-1786.987	N.pl3	13	ARG13	-0.530	
197	  CZ	1757.487	526.700	-1786.232	C.cat	13	ARG13	0.808	
198	 NH1	1757.123	525.736	-1785.433	N.pl3	13	ARG13	-0.863	
199	 NH2	1758.746	526.999	-1786.289	N.pl3	13	ARG13	-0.863	
200	   H	1750.459	528.297	-1788.170	 H	13	ARG13	0.275	
201	  HA	1752.598	529.998	-1788.974	 H	13	ARG13	0.156	
202	 2HB	1752.723	526.964	-1788.354	 H	13	ARG13	0.033	
203	 3HB	1752.564	528.182	-1787.105	 H	13	ARG13	0.033	
204	 2HG	1754.781	529.214	-1787.758	 H	13	ARG13	0.029	
205	 3HG	1754.984	528.011	-1789.037	 H	13	ARG13	0.029	
206	 2HD	1754.917	526.141	-1787.345	 H	13	ARG13	0.069	
207	 3HD	1754.705	527.329	-1786.035	 H	13	ARG13	0.069	
208	  HE	1757.089	528.112	-1787.559	 H	13	ARG13	0.346	
209	1HH1	1756.117	525.549	-1785.436	 H	13	ARG13	0.448	
210	2HH1	1757.836	525.254	-1784.884	 H	13	ARG13	0.448	
211	1HH2	1759.013	527.756	-1786.921	 H	13	ARG13	0.448	
212	2HH2	1759.382	526.459	-1785.700	 H	13	ARG13	0.448	
213	   N	1752.074	527.524	-1791.068	N.am	14	VAL14	-0.416	
214	  CA	1752.399	527.163	-1792.446	C.3	14	VAL14	-0.087	
215	   C	1752.068	528.291	-1793.393	C.2	14	VAL14	0.597	
216	   O	1752.861	528.672	-1794.263	O.2	14	VAL14	-0.568	
217	  CB	1751.627	525.845	-1792.850	C.3	14	VAL14	0.299	
218	 CG1	1751.716	525.424	-1794.343	C.3	14	VAL14	-0.319	
219	 CG2	1752.060	524.594	-1792.049	C.3	14	VAL14	-0.319	
220	   H	1751.440	526.955	-1790.526	 H	14	VAL14	0.272	
221	  HA	1753.487	526.986	-1792.521	 H	14	VAL14	0.097	
222	  HB	1750.551	526.016	-1792.634	 H	14	VAL14	-0.030	
223	1HG1	1752.757	525.247	-1794.672	 H	14	VAL14	0.079	
224	2HG1	1751.143	524.501	-1794.555	 H	14	VAL14	0.079	
225	3HG1	1751.286	526.186	-1795.022	 H	14	VAL14	0.079	
226	1HG2	1751.973	524.754	-1790.958	 H	14	VAL14	0.079	
227	2HG2	1751.424	523.717	-1792.279	 H	14	VAL14	0.079	
228	3HG2	1753.107	524.304	-1792.254	 H	14	VAL14	0.079	
229	   N	1750.923	528.877	-1793.292	N.am	15	MET15	-0.416	
230	  CA	1750.602	529.968	-1794.207	C.3	15	MET15	-0.024	
231	   C	1751.632	531.068	-1794.121	C.2	15	MET15	0.597	
232	   O	1752.135	531.578	-1795.134	O.2	15	MET15	-0.568	
233	  CB	1749.181	530.514	-1793.898	C.3	15	MET15	0.034	
234	  CG	1748.019	529.515	-1794.088	C.3	15	MET15	0.002	
235	  SD	1746.445	530.381	-1793.975	S.3	15	MET15	-0.274	
236	  CE	1745.364	528.952	-1793.836	C.3	15	MET15	-0.054	
237	   H	1750.258	528.585	-1792.589	 H	15	MET15	0.272	
238	  HA	1750.628	529.580	-1795.242	 H	15	MET15	0.088	
239	 2HB	1748.978	531.392	-1794.542	 H	15	MET15	0.024	
240	 3HB	1749.145	530.908	-1792.862	 H	15	MET15	0.024	
241	 2HG	1748.062	528.731	-1793.310	 H	15	MET15	0.044	
242	 3HG	1748.082	528.999	-1795.064	 H	15	MET15	0.044	
243	 1HE	1745.508	528.262	-1794.688	 H	15	MET15	0.068	
244	 2HE	1745.574	528.400	-1792.903	 H	15	MET15	0.068	
245	 3HE	1744.306	529.266	-1793.820	 H	15	MET15	0.068	
246	   N	1752.001	531.491	-1792.959	N.am	16	ARG16	-0.348	
247	  CA	1752.997	532.556	-1792.877	C.3	16	ARG16	-0.264	
248	   C	1754.268	532.162	-1793.593	C.2	16	ARG16	0.734	
249	   O	1754.382	531.085	-1794.173	O.2	16	ARG16	-0.589	
250	  CB	1753.266	532.876	-1791.379	C.3	16	ARG16	-0.001	
251	  CG	1754.091	534.166	-1791.109	C.3	16	ARG16	0.039	
252	  CD	1754.341	534.387	-1789.608	C.3	16	ARG16	0.049	
253	  NE	1755.117	535.647	-1789.409	N.pl3	16	ARG16	-0.530	
254	  CZ	1755.508	536.131	-1788.234	C.cat	16	ARG16	0.808	
255	 NH1	1755.261	535.548	-1787.094	N.pl3	16	ARG16	-0.863	
256	 NH2	1756.172	537.244	-1788.217	N.pl3	16	ARG16	-0.863	
257	   H	1751.607	531.092	-1792.119	 H	16	ARG16	0.275	
258	  HA	1752.588	533.448	-1793.388	 H	16	ARG16	0.156	
259	 2HB	1753.764	532.001	-1790.912	 H	16	ARG16	0.033	
260	 3HB	1752.298	532.957	-1790.845	 H	16	ARG16	0.033	
261	 2HG	1753.561	535.036	-1791.547	 H	16	ARG16	0.029	
262	 3HG	1755.065	534.112	-1791.638	 H	16	ARG16	0.029	
263	 2HD	1754.890	533.513	-1789.193	 H	16	ARG16	0.069	
264	 3HD	1753.368	534.431	-1789.072	 H	16	ARG16	0.069	
265	  HE	1755.395	536.227	-1790.207	 H	16	ARG16	0.346	
266	1HH1	1754.735	534.675	-1787.177	 H	16	ARG16	0.448	
267	2HH1	1755.595	535.985	-1786.234	 H	16	ARG16	0.448	
268	1HH2	1756.357	537.685	-1789.120	 H	16	ARG16	0.448	
269	2HH2	1756.462	537.601	-1787.305	 H	16	ARG16	0.448	
@<TRIPOS>BOND
1 1 2 1
2 1 10 1
3 2 3 1
4 2 5 1
5 2 11 1
6 3 4 2
7 3 16 1
8 5 6 1
9 6 7 1
10 7 8 2
11 7 9 1
12 5 12 1
13 5 13 1
14 6 14 1
15 6 15 1
16 16 17 1
17 16 24 1
18 17 18 1
19 17 20 1
20 17 25 1
21 18 19 2
22 18 30 1
23 20 21 1
24 21 22 1
25 21 23 2
26 20 26 1
27 20 27 1
28 22 28 1
29 22 29 1
30 30 31 1
31 30 36 1
32 31 32 1
33 31 34 1
34 31 37 1
35 32 33 2
36 32 44 1
37 34 35 1
38 35 36 1
39 34 38 1
40 34 39 1
41 35 40 1
42 35 41 1
43 36 42 1
44 36 43 1
45 44 45 1
46 44 53 1
47 45 46 1
48 45 48 1
49 45 54 1
50 46 47 2
51 46 59 1
52 48 49 1
53 49 50 1
54 50 51 2
55 50 52 1
56 48 55 1
57 48 56 1
58 49 57 1
59 49 58 1
60 59 60 1
61 59 65 1
62 60 61 1
63 60 63 1
64 60 66 1
65 61 62 2
66 61 70 1
67 63 64 1
68 63 67 1
69 63 68 1
70 64 69 1
71 70 71 1
72 70 78 1
73 71 72 1
74 71 74 1
75 71 79 1
76 72 73 2
77 72 89 1
78 74 75 1
79 74 76 1
80 75 77 1
81 74 80 1
82 75 81 1
83 75 82 1
84 76 83 1
85 76 84 1
86 76 85 1
87 77 86 1
88 77 87 1
89 77 88 1
90 89 90 1
91 89 97 1
92 90 91 1
93 90 93 1
94 90 98 1
95 91 92 2
96 91 108 1
97 93 94 1
98 94 95 1
99 94 96 1
100 93 99 1
101 93 100 1
102 94 101 1
103 95 102 1
104 95 103 1
105 95 104 1
106 96 105 1
107 96 106 1
108 96 107 1
109 108 109 1
110 108 116 1
111 109 110 1
112 109 112 1
113 109 117 1
114 110 111 2
115 110 120 1
116 112 113 1
117 113 114 2
118 113 115 1
119 112 118 1
120 112 119 1
121 120 121 1
122 120 129 1
123 121 122 1
124 121 124 1
125 121 130 1
126 122 123 2
127 122 135 1
128 124 125 1
129 125 126 1
130 126 127 2
131 126 128 1
132 124 131 1
133 124 132 1
134 125 133 1
135 125 134 1
136 135 136 1
137 135 145 1
138 136 137 1
139 136 139 1
140 136 146 1
141 137 138 2
142 137 152 1
143 139 140 1
144 140 141 2
145 141 144 1
146 140 142 1
147 142 143 2
148 143 144 1
149 139 147 1
150 139 148 1
151 141 149 1
152 143 150 1
153 144 151 1
154 152 153 1
155 152 163 1
156 153 154 1
157 153 156 1
158 153 164 1
159 154 155 2
160 154 172 1
161 156 157 1
162 157 158 2
163 157 159 1
164 159 161 2
165 158 160 1
166 161 162 1
167 160 162 2
168 156 165 1
169 156 166 1
170 158 167 1
171 159 168 1
172 160 169 1
173 161 170 1
174 162 171 1
175 172 173 1
176 172 181 1
177 173 174 1
178 173 176 1
179 173 182 1
180 174 175 2
181 174 189 1
182 176 177 1
183 177 178 1
184 178 179 1
185 178 180 2
186 176 183 1
187 176 184 1
188 177 185 1
189 177 186 1
190 179 187 1
191 179 188 1
192 189 190 1
193 189 200 1
194 190 191 1
195 190 193 1
196 190 201 1
197 191 192 2
198 191 213 1
199 193 194 1
200 194 195 1
201 195 196 1
202 196 197 1
203 197 198 2
204 197 199 1
205 193 202 1
206 193 203 1
207 194 204 1
208 194 205 1
209 195 206 1
210 195 207 1
211 196 208 1
212 198 209 1
213 198 210 1
214 199 211 1
215 199 212 1
216 213 214 1
217 213 220 1
218 214 215 1
219 214 217 1
220 214 221 1
221 215 216 2
222 215 229 1
223 217 218 1
224 217 219 1
225 217 222 1
226 218 223 1
227 218 224 1
228 218 225 1
229 219 226 1
230 219 227 1
231 219 228 1
232 229 230 1
233 229 237 1
234 230 231 1
235 230 233 1
236 230 238 1
237 231 232 2
238 231 246 1
239 233 234 1
240 234 235 1
241 235 236 1
242 233 239 1
243 233 240 1
244 234 241 1
245 234 242 1
246 236 243 1
247 236 244 1
248 236 245 1
249 246 247 1
250 246 257 1
251 247 248 1
252 247 250 1
253 247 258 1
254 248 249 2
255 250 251 1
256 251 252 1
257 252 253 1
258 253 254 1
259 254 255 2
260 254 256 1
261 250 259 1
262 250 260 1
263 251 261 1
264 251 262 1
265 252 263 1
266 252 264 1
267 253 265 1
268 255 266 1
269 255 267 1
270 256 268 1
271 256 269 1
@<TRIPOS>SUBSTRUCTURE
1	GLU1	1	RESIDUE	1 ****	GLU
2	ASN2	16	RESIDUE	1 ****	ASN
3	PRO3	30	RESIDUE	1 ****	PRO
4	GLU4	44	RESIDUE	1 ****	GLU
5	SER5	59	RESIDUE	1 ****	SER
6	ILE6	70	RESIDUE	1 ****	ILE
7	LEU7	89	RESIDUE	1 ****	LEU
8	ASP8	108	RESIDUE	1 ****	ASP
9	GLU9	120	RESIDUE	1 ****	GLU
10	HIS10	135	RESIDUE	1 ****	HIS
11	PHE11	152	RESIDUE	1 ****	PHE
12	GLN12	172	RESIDUE	1 ****	GLN
13	ARG13	189	RESIDUE	1 ****	ARG
14	VAL14	213	RESIDUE	1 ****	VAL
15	MET15	229	RESIDUE	1 ****	MET
16	ARG16	246	RESIDUE	1 ****	ARG
