@<TRIPOS>MOLECULE
2-5
268 269 16              
SMALL
USER_CHARGES
@<TRIPOS>ATOM
1	   N	207.132	34.481	-179.304	N.3	1	GLU1	-0.516	
2	  CA	207.691	35.830	-179.304	C.3	1	GLU1	0.040	
3	   C	209.200	35.790	-179.304	C.2	1	GLU1	0.537	
4	   O	209.876	36.489	-180.073	O.2	1	GLU1	-0.582	
5	  CB	207.168	36.615	-178.067	C.3	1	GLU1	0.056	
6	  CG	207.643	38.100	-177.956	C.3	1	GLU1	0.014	
7	  CD	207.219	38.904	-176.741	C.2	1	GLU1	0.805	
8	 OE1	206.491	38.402	-175.863	O.co2	1	GLU1	-0.819	
9	 OE2	207.649	40.074	-176.669	O.co2	1	GLU1	-0.819	
10	   H	207.759	33.602	-179.304	 H	1	GLU1	0.294	
11	  HA	207.365	36.348	-180.224	 H	1	GLU1	0.111	
12	 2HB	207.457	36.084	-177.137	 H	1	GLU1	-0.017	
13	 3HB	206.061	36.605	-178.054	 H	1	GLU1	-0.017	
14	 2HG	207.333	38.685	-178.837	 H	1	GLU1	-0.043	
15	 3HG	208.743	38.167	-177.927	 H	1	GLU1	-0.043	
16	   N	209.804	35.004	-178.479	N.am	2	MET2	-0.416	
17	  CA	211.264	34.965	-178.478	C.3	2	MET2	-0.024	
18	   C	211.797	34.609	-179.845	C.2	2	MET2	0.597	
19	   O	212.721	35.246	-180.375	O.2	2	MET2	-0.568	
20	  CB	211.763	33.955	-177.408	C.3	2	MET2	0.034	
21	  CG	211.399	34.287	-175.945	C.3	2	MET2	0.002	
22	  SD	212.292	33.192	-174.830	S.3	2	MET2	-0.274	
23	  CE	211.382	33.550	-173.321	C.3	2	MET2	-0.054	
24	   H	209.276	34.424	-177.843	 H	2	MET2	0.272	
25	  HA	211.644	35.974	-178.234	 H	2	MET2	0.088	
26	 2HB	212.865	33.872	-177.470	 H	2	MET2	0.024	
27	 3HB	211.389	32.939	-177.646	 H	2	MET2	0.024	
28	 2HG	210.311	34.163	-175.788	 H	2	MET2	0.044	
29	 3HG	211.639	35.337	-175.695	 H	2	MET2	0.044	
30	 1HE	211.398	34.631	-173.096	 H	2	MET2	0.068	
31	 2HE	210.330	33.230	-173.422	 H	2	MET2	0.068	
32	 3HE	211.825	33.011	-172.466	 H	2	MET2	0.068	
33	   N	211.277	33.614	-180.481	N.am	3	PRO3	-0.255	
34	  CA	211.732	33.206	-181.801	C.3	3	PRO3	-0.027	
35	   C	211.336	34.229	-182.879	C.2	3	PRO3	0.590	
36	   O	212.162	34.613	-183.708	O.2	3	PRO3	-0.575	
37	  CB	211.029	31.851	-181.973	C.3	3	PRO3	-0.007	
38	  CG	209.744	32.002	-181.146	C.3	3	PRO3	0.019	
39	  CD	210.198	32.821	-179.935	C.3	3	PRO3	0.019	
40	  HA	212.818	33.086	-181.813	 H	3	PRO3	0.064	
41	 2HB	211.651	31.070	-181.531	 H	3	PRO3	0.025	
42	 3HB	210.833	31.603	-183.019	 H	3	PRO3	0.025	
43	 2HG	209.316	31.040	-180.856	 H	3	PRO3	0.021	
44	 3HG	209.007	32.573	-181.714	 H	3	PRO3	0.021	
45	 2HD	210.586	32.171	-179.146	 H	3	PRO3	0.039	
46	 3HD	209.401	33.456	-179.543	 H	3	PRO3	0.039	
47	   N	210.132	34.689	-182.914	N.am	4	GLU4	-0.516	
48	  CA	209.774	35.660	-183.944	C.3	4	GLU4	0.040	
49	   C	210.672	36.872	-183.880	C.2	4	GLU4	0.537	
50	   O	211.201	37.352	-184.893	O.2	4	GLU4	-0.582	
51	  CB	208.285	36.079	-183.777	C.3	4	GLU4	0.056	
52	  CG	207.739	37.082	-184.843	C.3	4	GLU4	0.014	
53	  CD	206.312	37.579	-184.703	C.2	4	GLU4	0.805	
54	 OE1	205.584	37.180	-183.774	O.co2	4	GLU4	-0.819	
55	 OE2	205.924	38.408	-185.552	O.co2	4	GLU4	-0.819	
56	   H	209.446	34.382	-182.239	 H	4	GLU4	0.294	
57	  HA	209.908	35.190	-184.935	 H	4	GLU4	0.111	
58	 2HB	208.130	36.518	-182.770	 H	4	GLU4	-0.017	
59	 3HB	207.638	35.180	-183.785	 H	4	GLU4	-0.017	
60	 2HG	207.823	36.668	-185.861	 H	4	GLU4	-0.043	
61	 3HG	208.327	38.015	-184.853	 H	4	GLU4	-0.043	
62	   N	210.897	37.424	-182.736	N.am	5	SER5	-0.416	
63	  CA	211.766	38.596	-182.675	C.3	5	SER5	-0.025	
64	   C	213.126	38.291	-183.258	C.2	5	SER5	0.597	
65	   O	213.675	39.045	-184.061	O.2	5	SER5	-0.568	
66	  CB	211.874	39.127	-181.224	C.3	5	SER5	0.212	
67	  OG	212.604	38.248	-180.362	O.3	5	SER5	-0.655	
68	   H	210.478	37.052	-181.896	 H	5	SER5	0.272	
69	  HA	211.318	39.386	-183.305	 H	5	SER5	0.084	
70	 2HB	210.873	39.321	-180.793	 H	5	SER5	0.035	
71	 3HB	212.379	40.113	-181.225	 H	5	SER5	0.035	
72	  HG	212.115	37.423	-180.313	 H	5	SER5	0.428	
73	   N	213.731	37.208	-182.903	N.am	6	ILE6	-0.416	
74	  CA	215.045	36.914	-183.466	C.3	6	ILE6	-0.060	
75	   C	214.991	36.877	-184.974	C.2	6	ILE6	0.597	
76	   O	215.828	37.465	-185.676	O.2	6	ILE6	-0.568	
77	  CB	215.644	35.577	-182.865	C.3	6	ILE6	0.130	
78	 CG1	215.660	35.515	-181.304	C.3	6	ILE6	-0.043	
79	 CG2	217.087	35.277	-183.377	C.3	6	ILE6	-0.320	
80	 CD1	215.929	34.125	-180.689	C.3	6	ILE6	-0.066	
81	   H	213.301	36.573	-182.245	 H	6	ILE6	0.272	
82	  HA	215.718	37.748	-183.196	 H	6	ILE6	0.087	
83	  HB	214.987	34.751	-183.211	 H	6	ILE6	0.019	
84	2HG1	214.677	35.834	-180.911	 H	6	ILE6	0.024	
85	3HG1	216.375	36.257	-180.898	 H	6	ILE6	0.024	
86	1HG2	217.148	35.183	-184.476	 H	6	ILE6	0.088	
87	2HG2	217.808	36.059	-183.073	 H	6	ILE6	0.088	
88	3HG2	217.476	34.314	-182.998	 H	6	ILE6	0.088	
89	1HD1	215.202	33.371	-181.046	 H	6	ILE6	0.019	
90	2HD1	216.940	33.747	-180.923	 H	6	ILE6	0.019	
91	3HD1	215.850	34.155	-179.587	 H	6	ILE6	0.019	
92	   N	214.047	36.213	-185.550	N.am	7	LEU7	-0.416	
93	  CA	213.996	36.178	-187.009	C.3	7	LEU7	-0.052	
94	   C	213.924	37.573	-187.581	C.2	7	LEU7	0.597	
95	   O	214.647	37.937	-188.521	O.2	7	LEU7	-0.568	
96	  CB	212.794	35.317	-187.492	C.3	7	LEU7	-0.110	
97	  CG	212.721	33.837	-187.027	C.3	7	LEU7	0.353	
98	 CD1	211.533	33.131	-187.695	C.3	7	LEU7	-0.412	
99	 CD2	214.015	33.059	-187.316	C.3	7	LEU7	-0.412	
100	   H	213.354	35.725	-185.001	 H	7	LEU7	0.272	
101	  HA	214.938	35.738	-187.381	 H	7	LEU7	0.092	
102	 2HB	212.773	35.334	-188.600	 H	7	LEU7	0.046	
103	 3HB	211.853	35.819	-187.190	 H	7	LEU7	0.046	
104	  HG	212.548	33.829	-185.930	 H	7	LEU7	-0.036	
105	1HD1	210.575	33.640	-187.475	 H	7	LEU7	0.100	
106	2HD1	211.634	33.092	-188.796	 H	7	LEU7	0.100	
107	3HD1	211.425	32.090	-187.340	 H	7	LEU7	0.100	
108	1HD2	214.293	33.090	-188.385	 H	7	LEU7	0.100	
109	2HD2	214.867	33.471	-186.742	 H	7	LEU7	0.100	
110	3HD2	213.934	31.996	-187.020	 H	7	LEU7	0.100	
111	   N	213.085	38.413	-187.076	N.am	8	ASP8	-0.516	
112	  CA	213.015	39.763	-187.629	C.3	8	ASP8	0.038	
113	   C	214.362	40.443	-187.568	C.2	8	ASP8	0.537	
114	   O	214.836	41.049	-188.541	O.2	8	ASP8	-0.582	
115	  CB	211.935	40.601	-186.889	C.3	8	ASP8	-0.030	
116	  CG	211.717	42.022	-187.429	C.2	8	ASP8	0.799	
117	 OD1	211.784	42.222	-188.660	O.co2	8	ASP8	-0.801	
118	 OD2	211.523	42.947	-186.614	O.co2	8	ASP8	-0.801	
119	   H	212.486	38.141	-186.310	 H	8	ASP8	0.294	
120	  HA	212.735	39.685	-188.696	 H	8	ASP8	0.088	
121	 2HB	212.190	40.684	-185.817	 H	8	ASP8	-0.012	
122	 3HB	210.957	40.096	-186.924	 H	8	ASP8	-0.012	
123	   N	215.039	40.393	-186.471	N.am	9	GLU9	-0.516	
124	  CA	216.341	41.051	-186.413	C.3	9	GLU9	0.040	
125	   C	217.262	40.525	-187.487	C.2	9	GLU9	0.537	
126	   O	217.927	41.280	-188.210	O.2	9	GLU9	-0.582	
127	  CB	216.972	40.843	-185.006	C.3	9	GLU9	0.056	
128	  CG	218.353	41.536	-184.773	C.3	9	GLU9	0.014	
129	  CD	219.052	41.323	-183.443	C.2	9	GLU9	0.805	
130	 OE1	218.529	40.631	-182.548	O.co2	9	GLU9	-0.819	
131	 OE2	220.171	41.861	-183.309	O.co2	9	GLU9	-0.819	
132	   H	214.674	39.906	-185.665	 H	9	GLU9	0.294	
133	  HA	216.199	42.133	-186.588	 H	9	GLU9	0.111	
134	 2HB	217.085	39.759	-184.803	 H	9	GLU9	-0.017	
135	 3HB	216.273	41.196	-184.223	 H	9	GLU9	-0.017	
136	 2HG	218.281	42.627	-184.912	 H	9	GLU9	-0.043	
137	 3HG	219.102	41.192	-185.505	 H	9	GLU9	-0.043	
138	   N	217.360	39.250	-187.657	N.am	10	HIS10	-0.416	
139	  CA	218.250	38.739	-188.695	C.3	10	HIS10	-0.058	
140	   C	217.886	39.304	-190.047	C.2	10	HIS10	0.597	
141	   O	218.740	39.770	-190.816	O.2	10	HIS10	-0.568	
142	  CB	218.087	37.210	-188.691	C.3	10	HIS10	-0.007	
143	  CG	219.372	36.501	-188.381	C.2	10	HIS10	0.187	
144	 CD2	219.750	36.165	-187.087	C.2	10	HIS10	-0.221	
145	 ND1	220.327	36.096	-189.311	N.2	10	HIS10	-0.543	
146	 CE1	221.232	35.538	-188.486	C.2	10	HIS10	0.163	
147	 NE2	220.966	35.534	-187.152	N.pl3	10	HIS10	-0.280	
148	   H	216.828	38.614	-187.080	 H	10	HIS10	0.272	
149	  HA	219.268	39.097	-188.467	 H	10	HIS10	0.136	
150	 2HB	217.724	36.844	-189.672	 H	10	HIS10	0.037	
151	 3HB	217.330	36.872	-187.953	 H	10	HIS10	0.037	
152	 2HD	219.163	36.379	-186.200	 H	10	HIS10	0.186	
153	 1HE	222.124	35.117	-188.931	 H	10	HIS10	0.144	
154	 2HE	221.531	35.157	-186.377	 H	10	HIS10	0.334	
155	   N	216.649	39.303	-190.413	N.am	11	VAL11	-0.416	
156	  CA	216.297	39.849	-191.720	C.3	11	VAL11	-0.087	
157	   C	216.761	41.281	-191.851	C.2	11	VAL11	0.597	
158	   O	217.364	41.686	-192.852	O.2	11	VAL11	-0.568	
159	  CB	214.736	39.742	-191.943	C.3	11	VAL11	0.299	
160	 CG1	214.170	40.446	-193.207	C.3	11	VAL11	-0.319	
161	 CG2	214.212	38.288	-192.018	C.3	11	VAL11	-0.319	
162	   H	215.935	38.929	-189.804	 H	11	VAL11	0.272	
163	  HA	216.818	39.268	-192.501	 H	11	VAL11	0.097	
164	  HB	214.246	40.221	-191.069	 H	11	VAL11	-0.030	
165	1HG1	214.611	40.055	-194.143	 H	11	VAL11	0.079	
166	2HG1	213.071	40.339	-193.291	 H	11	VAL11	0.079	
167	3HG1	214.347	41.539	-193.196	 H	11	VAL11	0.079	
168	1HG2	214.501	37.700	-191.127	 H	11	VAL11	0.079	
169	2HG2	213.107	38.250	-192.063	 H	11	VAL11	0.079	
170	3HG2	214.597	37.748	-192.904	 H	11	VAL11	0.079	
171	   N	216.521	42.106	-190.888	N.am	12	GLN12	-0.416	
172	  CA	216.969	43.489	-191.014	C.3	12	GLN12	-0.003	
173	   C	218.459	43.557	-191.248	C.2	12	GLN12	0.597	
174	   O	218.948	44.266	-192.125	O.2	12	GLN12	-0.568	
175	  CB	216.574	44.255	-189.731	C.3	12	GLN12	-0.004	
176	  CG	216.933	45.777	-189.699	C.3	12	GLN12	-0.064	
177	  CD	216.628	46.590	-188.434	C.2	12	GLN12	0.695	
178	 NE2	216.059	46.013	-187.407	N.pl3	12	GLN12	-0.941	
179	 OE1	216.929	47.771	-188.355	O.2	12	GLN12	-0.609	
180	   H	216.030	41.799	-190.061	 H	12	GLN12	0.272	
181	  HA	216.471	43.945	-191.890	 H	12	GLN12	0.085	
182	 2HB	217.049	43.755	-188.861	 H	12	GLN12	0.017	
183	 3HB	215.484	44.147	-189.571	 H	12	GLN12	0.017	
184	 2HG	216.458	46.298	-190.550	 H	12	GLN12	0.035	
185	 3HG	218.017	45.920	-189.862	 H	12	GLN12	0.035	
186	1HE2	215.949	46.607	-186.583	 H	12	GLN12	0.425	
187	2HE2	215.896	45.009	-187.511	 H	12	GLN12	0.425	
188	   N	219.242	42.851	-190.506	N.am	13	ARG13	-0.348	
189	  CA	220.683	42.917	-190.733	C.3	13	ARG13	-0.264	
190	   C	221.023	42.547	-192.157	C.2	13	ARG13	0.734	
191	   O	221.793	43.219	-192.839	O.2	13	ARG13	-0.589	
192	  CB	221.395	41.978	-189.718	C.3	13	ARG13	-0.001	
193	  CG	222.939	42.132	-189.633	C.3	13	ARG13	0.039	
194	  CD	223.565	41.145	-188.635	C.3	13	ARG13	0.049	
195	  NE	225.042	41.353	-188.581	N.pl3	13	ARG13	-0.530	
196	  CZ	225.888	40.661	-187.824	C.cat	13	ARG13	0.808	
197	 NH1	225.522	39.696	-187.028	N.pl3	13	ARG13	-0.863	
198	 NH2	227.148	40.961	-187.878	N.pl3	13	ARG13	-0.863	
199	   H	218.865	42.260	-189.778	 H	13	ARG13	0.275	
200	  HA	221.007	43.963	-190.573	 H	13	ARG13	0.156	
201	 2HB	221.130	40.928	-189.958	 H	13	ARG13	0.033	
202	 3HB	220.967	42.144	-188.708	 H	13	ARG13	0.033	
203	 2HG	223.186	43.177	-189.353	 H	13	ARG13	0.029	
204	 3HG	223.392	41.977	-190.634	 H	13	ARG13	0.029	
205	 2HD	223.322	40.104	-188.945	 H	13	ARG13	0.069	
206	 3HD	223.106	41.289	-187.633	 H	13	ARG13	0.069	
207	  HE	225.494	42.075	-189.150	 H	13	ARG13	0.346	
208	1HH1	224.517	39.509	-187.033	 H	13	ARG13	0.448	
209	2HH1	226.234	39.213	-186.478	 H	13	ARG13	0.448	
210	1HH2	227.416	41.719	-188.508	 H	13	ARG13	0.448	
211	2HH2	227.782	40.420	-187.288	 H	13	ARG13	0.448	
212	   N	220.489	41.492	-192.674	N.am	14	VAL14	-0.416	
213	  CA	220.817	41.134	-194.051	C.3	14	VAL14	-0.087	
214	   C	220.488	42.264	-194.996	C.2	14	VAL14	0.597	
215	   O	221.284	42.647	-195.864	O.2	14	VAL14	-0.568	
216	  CB	220.046	39.817	-194.460	C.3	14	VAL14	0.299	
217	 CG1	220.139	39.399	-195.954	C.3	14	VAL14	-0.319	
218	 CG2	220.477	38.564	-193.659	C.3	14	VAL14	-0.319	
219	   H	219.853	40.923	-192.134	 H	14	VAL14	0.272	
220	  HA	221.905	40.958	-194.123	 H	14	VAL14	0.097	
221	  HB	218.969	39.987	-194.246	 H	14	VAL14	-0.030	
222	1HG1	221.181	39.223	-196.280	 H	14	VAL14	0.079	
223	2HG1	219.567	38.476	-196.168	 H	14	VAL14	0.079	
224	3HG1	219.711	40.162	-196.632	 H	14	VAL14	0.079	
225	1HG2	220.387	38.722	-192.569	 H	14	VAL14	0.079	
226	2HG2	219.842	37.688	-193.894	 H	14	VAL14	0.079	
227	3HG2	221.525	38.275	-193.863	 H	14	VAL14	0.079	
228	   N	219.343	42.849	-194.897	N.am	15	MET15	-0.416	
229	  CA	219.024	43.942	-195.811	C.3	15	MET15	-0.024	
230	   C	220.053	45.043	-195.720	C.2	15	MET15	0.597	
231	   O	220.558	45.554	-196.731	O.2	15	MET15	-0.568	
232	  CB	217.602	44.487	-195.505	C.3	15	MET15	0.034	
233	  CG	216.441	43.488	-195.700	C.3	15	MET15	0.002	
234	  SD	214.866	44.353	-195.589	S.3	15	MET15	-0.274	
235	  CE	213.785	42.923	-195.455	C.3	15	MET15	-0.054	
236	   H	218.677	42.556	-194.197	 H	15	MET15	0.272	
237	  HA	219.052	43.556	-196.847	 H	15	MET15	0.088	
238	 2HB	217.400	45.366	-196.147	 H	15	MET15	0.024	
239	 3HB	217.563	44.879	-194.468	 H	15	MET15	0.024	
240	 2HG	216.482	42.702	-194.922	 H	15	MET15	0.044	
241	 3HG	216.506	42.974	-196.676	 H	15	MET15	0.044	
242	 1HE	213.931	42.235	-196.308	 H	15	MET15	0.068	
243	 2HE	213.993	42.370	-194.522	 H	15	MET15	0.068	
244	 3HE	212.727	43.237	-195.441	 H	15	MET15	0.068	
245	   N	220.419	45.463	-194.557	N.am	16	ARG16	-0.348	
246	  CA	221.415	46.528	-194.470	C.3	16	ARG16	-0.264	
247	   C	222.687	46.136	-195.184	C.2	16	ARG16	0.734	
248	   O	222.803	45.060	-195.765	O.2	16	ARG16	-0.589	
249	  CB	221.680	46.845	-192.971	C.3	16	ARG16	-0.001	
250	  CG	222.504	48.134	-192.696	C.3	16	ARG16	0.039	
251	  CD	222.750	48.353	-191.194	C.3	16	ARG16	0.049	
252	  NE	223.525	49.612	-190.990	N.pl3	16	ARG16	-0.530	
253	  CZ	223.913	50.094	-189.813	C.cat	16	ARG16	0.808	
254	 NH1	223.663	49.509	-188.676	N.pl3	16	ARG16	-0.863	
255	 NH2	224.577	51.207	-189.793	N.pl3	16	ARG16	-0.863	
256	   H	220.023	45.063	-193.719	 H	16	ARG16	0.275	
257	  HA	221.006	47.421	-194.980	 H	16	ARG16	0.156	
258	 2HB	222.177	45.969	-192.504	 H	16	ARG16	0.033	
259	 3HB	220.710	46.925	-192.439	 H	16	ARG16	0.033	
260	 2HG	221.974	49.005	-193.134	 H	16	ARG16	0.029	
261	 3HG	223.479	48.082	-193.222	 H	16	ARG16	0.029	
262	 2HD	223.298	47.478	-190.780	 H	16	ARG16	0.069	
263	 3HD	221.776	48.395	-190.661	 H	16	ARG16	0.069	
264	  HE	223.805	50.194	-191.786	 H	16	ARG16	0.346	
265	1HH1	223.139	48.636	-188.762	 H	16	ARG16	0.448	
266	2HH1	223.996	49.944	-187.814	 H	16	ARG16	0.448	
267	1HH2	224.764	51.651	-190.694	 H	16	ARG16	0.448	
268	2HH2	224.865	51.562	-188.879	 H	16	ARG16	0.448	
@<TRIPOS>BOND
1 1 2 1
2 1 10 1
3 2 3 1
4 2 5 1
5 2 11 1
6 3 4 2
7 3 16 1
8 5 6 1
9 6 7 1
10 7 8 2
11 7 9 1
12 5 12 1
13 5 13 1
14 6 14 1
15 6 15 1
16 16 17 1
17 16 24 1
18 17 18 1
19 17 20 1
20 17 25 1
21 18 19 2
22 18 33 1
23 20 21 1
24 21 22 1
25 22 23 1
26 20 26 1
27 20 27 1
28 21 28 1
29 21 29 1
30 23 30 1
31 23 31 1
32 23 32 1
33 33 34 1
34 33 39 1
35 34 35 1
36 34 37 1
37 34 40 1
38 35 36 2
39 35 47 1
40 37 38 1
41 38 39 1
42 37 41 1
43 37 42 1
44 38 43 1
45 38 44 1
46 39 45 1
47 39 46 1
48 47 48 1
49 47 56 1
50 48 49 1
51 48 51 1
52 48 57 1
53 49 50 2
54 49 62 1
55 51 52 1
56 52 53 1
57 53 54 2
58 53 55 1
59 51 58 1
60 51 59 1
61 52 60 1
62 52 61 1
63 62 63 1
64 62 68 1
65 63 64 1
66 63 66 1
67 63 69 1
68 64 65 2
69 64 73 1
70 66 67 1
71 66 70 1
72 66 71 1
73 67 72 1
74 73 74 1
75 73 81 1
76 74 75 1
77 74 77 1
78 74 82 1
79 75 76 2
80 75 92 1
81 77 78 1
82 77 79 1
83 78 80 1
84 77 83 1
85 78 84 1
86 78 85 1
87 79 86 1
88 79 87 1
89 79 88 1
90 80 89 1
91 80 90 1
92 80 91 1
93 92 93 1
94 92 100 1
95 93 94 1
96 93 96 1
97 93 101 1
98 94 95 2
99 94 111 1
100 96 97 1
101 97 98 1
102 97 99 1
103 96 102 1
104 96 103 1
105 97 104 1
106 98 105 1
107 98 106 1
108 98 107 1
109 99 108 1
110 99 109 1
111 99 110 1
112 111 112 1
113 111 119 1
114 112 113 1
115 112 115 1
116 112 120 1
117 113 114 2
118 113 123 1
119 115 116 1
120 116 117 2
121 116 118 1
122 115 121 1
123 115 122 1
124 123 124 1
125 123 132 1
126 124 125 1
127 124 127 1
128 124 133 1
129 125 126 2
130 125 138 1
131 127 128 1
132 128 129 1
133 129 130 2
134 129 131 1
135 127 134 1
136 127 135 1
137 128 136 1
138 128 137 1
139 138 139 1
140 138 148 1
141 139 140 1
142 139 142 1
143 139 149 1
144 140 141 2
145 140 155 1
146 142 143 1
147 143 144 2
148 144 147 1
149 143 145 1
150 145 146 2
151 146 147 1
152 142 150 1
153 142 151 1
154 144 152 1
155 146 153 1
156 147 154 1
157 155 156 1
158 155 162 1
159 156 157 1
160 156 159 1
161 156 163 1
162 157 158 2
163 157 171 1
164 159 160 1
165 159 161 1
166 159 164 1
167 160 165 1
168 160 166 1
169 160 167 1
170 161 168 1
171 161 169 1
172 161 170 1
173 171 172 1
174 171 180 1
175 172 173 1
176 172 175 1
177 172 181 1
178 173 174 2
179 173 188 1
180 175 176 1
181 176 177 1
182 177 178 1
183 177 179 2
184 175 182 1
185 175 183 1
186 176 184 1
187 176 185 1
188 178 186 1
189 178 187 1
190 188 189 1
191 188 199 1
192 189 190 1
193 189 192 1
194 189 200 1
195 190 191 2
196 190 212 1
197 192 193 1
198 193 194 1
199 194 195 1
200 195 196 1
201 196 197 2
202 196 198 1
203 192 201 1
204 192 202 1
205 193 203 1
206 193 204 1
207 194 205 1
208 194 206 1
209 195 207 1
210 197 208 1
211 197 209 1
212 198 210 1
213 198 211 1
214 212 213 1
215 212 219 1
216 213 214 1
217 213 216 1
218 213 220 1
219 214 215 2
220 214 228 1
221 216 217 1
222 216 218 1
223 216 221 1
224 217 222 1
225 217 223 1
226 217 224 1
227 218 225 1
228 218 226 1
229 218 227 1
230 228 229 1
231 228 236 1
232 229 230 1
233 229 232 1
234 229 237 1
235 230 231 2
236 230 245 1
237 232 233 1
238 233 234 1
239 234 235 1
240 232 238 1
241 232 239 1
242 233 240 1
243 233 241 1
244 235 242 1
245 235 243 1
246 235 244 1
247 245 246 1
248 245 256 1
249 246 247 1
250 246 249 1
251 246 257 1
252 247 248 2
253 249 250 1
254 250 251 1
255 251 252 1
256 252 253 1
257 253 254 2
258 253 255 1
259 249 258 1
260 249 259 1
261 250 260 1
262 250 261 1
263 251 262 1
264 251 263 1
265 252 264 1
266 254 265 1
267 254 266 1
268 255 267 1
269 255 268 1
@<TRIPOS>SUBSTRUCTURE
1	GLU1	1	RESIDUE	1 ****	GLU
2	MET2	16	RESIDUE	1 ****	MET
3	PRO3	33	RESIDUE	1 ****	PRO
4	GLU4	47	RESIDUE	1 ****	GLU
5	SER5	62	RESIDUE	1 ****	SER
6	ILE6	73	RESIDUE	1 ****	ILE
7	LEU7	92	RESIDUE	1 ****	LEU
8	ASP8	111	RESIDUE	1 ****	ASP
9	GLU9	123	RESIDUE	1 ****	GLU
10	HIS10	138	RESIDUE	1 ****	HIS
11	VAL11	155	RESIDUE	1 ****	VAL
12	GLN12	171	RESIDUE	1 ****	GLN
13	ARG13	188	RESIDUE	1 ****	ARG
14	VAL14	212	RESIDUE	1 ****	VAL
15	MET15	228	RESIDUE	1 ****	MET
16	ARG16	245	RESIDUE	1 ****	ARG
