@<TRIPOS>MOLECULE
5-12
265 266 16              
SMALL
USER_CHARGES
@<TRIPOS>ATOM
1	   N	786.723	207.001	-745.934	N.3	1	GLU1	-0.516	
2	  CA	787.282	208.350	-745.934	C.3	1	GLU1	0.040	
3	   C	788.791	208.310	-745.934	C.2	1	GLU1	0.537	
4	   O	789.467	209.009	-746.703	O.2	1	GLU1	-0.582	
5	  CB	786.759	209.135	-744.697	C.3	1	GLU1	0.056	
6	  CG	787.234	210.620	-744.586	C.3	1	GLU1	0.014	
7	  CD	786.810	211.424	-743.371	C.2	1	GLU1	0.805	
8	 OE1	786.082	210.922	-742.493	O.co2	1	GLU1	-0.819	
9	 OE2	787.240	212.594	-743.299	O.co2	1	GLU1	-0.819	
10	   H	787.350	206.122	-745.934	 H	1	GLU1	0.294	
11	  HA	786.956	208.868	-746.854	 H	1	GLU1	0.111	
12	 2HB	787.048	208.604	-743.767	 H	1	GLU1	-0.017	
13	 3HB	785.652	209.125	-744.684	 H	1	GLU1	-0.017	
14	 2HG	786.924	211.205	-745.467	 H	1	GLU1	-0.043	
15	 3HG	788.334	210.687	-744.557	 H	1	GLU1	-0.043	
16	   N	789.396	207.524	-745.109	N.am	2	ASN2	-0.416	
17	  CA	790.855	207.486	-745.109	C.3	2	ASN2	0.014	
18	   C	791.386	207.130	-746.478	C.2	2	ASN2	0.597	
19	   O	792.301	207.761	-747.006	O.2	2	ASN2	-0.568	
20	  CB	791.347	206.463	-744.045	C.3	2	ASN2	-0.204	
21	  CG	790.884	206.686	-742.601	C.2	2	ASN2	0.713	
22	 ND2	791.478	207.601	-741.883	N.pl3	2	ASN2	-0.919	
23	 OD1	789.963	206.053	-742.107	O.2	2	ASN2	-0.593	
24	   H	788.867	206.944	-744.472	 H	2	ASN2	0.272	
25	  HA	791.232	208.496	-744.864	 H	2	ASN2	0.105	
26	 2HB	792.452	206.404	-744.048	 H	2	ASN2	0.080	
27	 3HB	791.018	205.444	-744.330	 H	2	ASN2	0.080	
28	1HD2	790.998	207.774	-740.997	 H	2	ASN2	0.420	
29	2HD2	792.180	208.173	-742.352	 H	2	ASN2	0.420	
30	   N	790.865	206.135	-747.112	N.am	3	PRO3	-0.255	
31	  CA	791.317	205.726	-748.433	C.3	3	PRO3	-0.027	
32	   C	790.919	206.749	-749.510	C.2	3	PRO3	0.590	
33	   O	791.742	207.133	-750.342	O.2	3	PRO3	-0.575	
34	  CB	790.613	204.371	-748.603	C.3	3	PRO3	-0.007	
35	  CG	789.329	204.523	-747.773	C.3	3	PRO3	0.019	
36	  CD	789.787	205.342	-746.563	C.3	3	PRO3	0.019	
37	  HA	792.403	205.606	-748.447	 H	3	PRO3	0.064	
38	 2HB	791.236	203.590	-748.162	 H	3	PRO3	0.025	
39	 3HB	790.415	204.123	-749.648	 H	3	PRO3	0.025	
40	 2HG	788.902	203.561	-747.482	 H	3	PRO3	0.021	
41	 3HG	788.592	205.094	-748.340	 H	3	PRO3	0.021	
42	 2HD	790.176	204.692	-745.775	 H	3	PRO3	0.039	
43	 3HD	788.990	205.978	-746.170	 H	3	PRO3	0.039	
44	   N	789.714	207.209	-749.543	N.am	4	GLU4	-0.516	
45	  CA	789.354	208.180	-750.572	C.3	4	GLU4	0.040	
46	   C	790.253	209.391	-750.511	C.2	4	GLU4	0.537	
47	   O	790.779	209.871	-751.526	O.2	4	GLU4	-0.582	
48	  CB	787.865	208.598	-750.402	C.3	4	GLU4	0.056	
49	  CG	787.317	209.602	-751.468	C.3	4	GLU4	0.014	
50	  CD	785.890	210.098	-751.324	C.2	4	GLU4	0.805	
51	 OE1	785.164	209.700	-750.393	O.co2	4	GLU4	-0.819	
52	 OE2	785.501	210.927	-752.172	O.co2	4	GLU4	-0.819	
53	   H	789.030	206.902	-748.866	 H	4	GLU4	0.294	
54	  HA	789.485	207.710	-751.563	 H	4	GLU4	0.111	
55	 2HB	787.713	209.038	-749.395	 H	4	GLU4	-0.017	
56	 3HB	787.218	207.701	-750.408	 H	4	GLU4	-0.017	
57	 2HG	787.399	209.187	-752.485	 H	4	GLU4	-0.043	
58	 3HG	787.905	210.534	-751.479	 H	4	GLU4	-0.043	
59	   N	790.480	209.944	-749.368	N.am	5	CYS5	-0.416	
60	  CA	791.349	211.116	-749.308	C.3	5	CYS5	0.021	
61	   C	792.708	210.812	-749.893	C.2	5	CYS5	0.597	
62	   O	793.260	211.571	-750.702	O.2	5	CYS5	-0.568	
63	  CB	791.431	211.591	-747.844	C.3	5	CYS5	-0.123	
64	  SG	792.346	213.145	-747.726	S.3	5	CYS5	-0.312	
65	   H	790.063	209.572	-748.527	 H	5	CYS5	0.272	
66	  HA	790.898	211.915	-749.925	 H	5	CYS5	0.112	
67	 2HB	791.914	210.831	-747.197	 H	5	CYS5	0.111	
68	 3HB	790.424	211.757	-747.421	 H	5	CYS5	0.111	
69	  HG	793.465	212.633	-747.219	 H	5	CYS5	0.193	
70	   N	793.313	209.729	-749.539	N.am	6	ILE6	-0.416	
71	  CA	794.627	209.435	-750.104	C.3	6	ILE6	-0.060	
72	   C	794.571	209.398	-751.612	C.2	6	ILE6	0.597	
73	   O	795.406	209.987	-752.315	O.2	6	ILE6	-0.568	
74	  CB	795.227	208.098	-749.504	C.3	6	ILE6	0.130	
75	 CG1	795.245	208.035	-747.943	C.3	6	ILE6	-0.043	
76	 CG2	796.669	207.798	-750.018	C.3	6	ILE6	-0.320	
77	 CD1	795.515	206.646	-747.329	C.3	6	ILE6	-0.066	
78	   H	792.885	209.094	-748.880	 H	6	ILE6	0.272	
79	  HA	795.301	210.269	-749.835	 H	6	ILE6	0.087	
80	  HB	794.570	207.272	-749.849	 H	6	ILE6	0.019	
81	2HG1	794.262	208.354	-747.548	 H	6	ILE6	0.024	
82	3HG1	795.960	208.777	-747.537	 H	6	ILE6	0.024	
83	1HG2	796.729	207.705	-751.117	 H	6	ILE6	0.088	
84	2HG2	797.390	208.580	-749.715	 H	6	ILE6	0.088	
85	3HG2	797.059	206.836	-749.640	 H	6	ILE6	0.088	
86	1HD1	794.787	205.892	-747.685	 H	6	ILE6	0.019	
87	2HD1	796.526	206.268	-747.564	 H	6	ILE6	0.019	
88	3HD1	795.438	206.675	-746.226	 H	6	ILE6	0.019	
89	   N	793.626	208.735	-752.187	N.am	7	LEU7	-0.416	
90	  CA	793.573	208.699	-753.645	C.3	7	LEU7	-0.052	
91	   C	793.500	210.095	-754.217	C.2	7	LEU7	0.597	
92	   O	794.221	210.459	-755.158	O.2	7	LEU7	-0.568	
93	  CB	792.371	207.839	-754.127	C.3	7	LEU7	-0.110	
94	  CG	792.298	206.359	-753.662	C.3	7	LEU7	0.353	
95	 CD1	791.109	205.653	-754.329	C.3	7	LEU7	-0.412	
96	 CD2	793.592	205.581	-753.953	C.3	7	LEU7	-0.412	
97	   H	792.934	208.247	-751.636	 H	7	LEU7	0.272	
98	  HA	794.515	208.260	-754.019	 H	7	LEU7	0.092	
99	 2HB	792.348	207.856	-755.235	 H	7	LEU7	0.046	
100	 3HB	791.430	208.341	-753.824	 H	7	LEU7	0.046	
101	  HG	792.127	206.350	-752.565	 H	7	LEU7	-0.036	
102	1HD1	790.152	206.162	-754.107	 H	7	LEU7	0.100	
103	2HD1	791.209	205.613	-755.430	 H	7	LEU7	0.100	
104	3HD1	791.002	204.612	-753.974	 H	7	LEU7	0.100	
105	1HD2	793.868	205.612	-755.022	 H	7	LEU7	0.100	
106	2HD2	794.445	205.992	-753.381	 H	7	LEU7	0.100	
107	3HD2	793.511	204.518	-753.657	 H	7	LEU7	0.100	
108	   N	792.662	210.935	-753.711	N.am	8	ASP8	-0.516	
109	  CA	792.591	212.285	-754.263	C.3	8	ASP8	0.038	
110	   C	793.937	212.965	-754.205	C.2	8	ASP8	0.537	
111	   O	794.411	213.571	-755.179	O.2	8	ASP8	-0.582	
112	  CB	791.512	213.122	-753.522	C.3	8	ASP8	-0.030	
113	  CG	791.293	214.544	-754.062	C.2	8	ASP8	0.799	
114	 OD1	791.358	214.743	-755.292	O.co2	8	ASP8	-0.801	
115	 OD2	791.099	215.469	-753.246	O.co2	8	ASP8	-0.801	
116	   H	792.064	210.663	-752.944	 H	8	ASP8	0.294	
117	  HA	792.309	212.207	-755.331	 H	8	ASP8	0.088	
118	 2HB	791.768	213.205	-752.450	 H	8	ASP8	-0.012	
119	 3HB	790.533	212.617	-753.556	 H	8	ASP8	-0.012	
120	   N	794.616	212.915	-753.109	N.am	9	GLU9	-0.516	
121	  CA	795.919	213.574	-753.052	C.3	9	GLU9	0.040	
122	   C	796.838	213.047	-754.127	C.2	9	GLU9	0.537	
123	   O	797.502	213.802	-754.852	O.2	9	GLU9	-0.582	
124	  CB	796.551	213.365	-751.646	C.3	9	GLU9	0.056	
125	  CG	797.933	214.058	-751.415	C.3	9	GLU9	0.014	
126	  CD	798.634	213.845	-750.086	C.2	9	GLU9	0.805	
127	 OE1	798.112	213.153	-749.191	O.co2	9	GLU9	-0.819	
128	 OE2	799.753	214.383	-749.953	O.co2	9	GLU9	-0.819	
129	   H	794.253	212.428	-752.302	 H	9	GLU9	0.294	
130	  HA	795.776	214.655	-753.227	 H	9	GLU9	0.111	
131	 2HB	796.665	212.281	-751.443	 H	9	GLU9	-0.017	
132	 3HB	795.853	213.718	-750.862	 H	9	GLU9	-0.017	
133	 2HG	797.861	215.149	-751.554	 H	9	GLU9	-0.043	
134	 3HG	798.681	213.714	-752.149	 H	9	GLU9	-0.043	
135	   N	796.935	211.772	-754.297	N.am	10	HIS10	-0.416	
136	  CA	797.824	211.262	-755.338	C.3	10	HIS10	-0.058	
137	   C	797.458	211.827	-756.689	C.2	10	HIS10	0.597	
138	   O	798.311	212.293	-757.459	O.2	10	HIS10	-0.568	
139	  CB	797.661	209.733	-755.333	C.3	10	HIS10	-0.007	
140	  CG	798.947	209.023	-755.025	C.2	10	HIS10	0.187	
141	 CD2	799.327	208.687	-753.732	C.2	10	HIS10	-0.221	
142	 ND1	799.900	208.618	-755.957	N.2	10	HIS10	-0.543	
143	 CE1	800.806	208.060	-755.133	C.2	10	HIS10	0.163	
144	 NE2	800.542	208.057	-753.798	N.pl3	10	HIS10	-0.280	
145	   H	796.404	211.136	-753.720	 H	10	HIS10	0.272	
146	  HA	798.843	211.620	-755.111	 H	10	HIS10	0.136	
147	 2HB	797.297	209.366	-756.314	 H	10	HIS10	0.037	
148	 3HB	796.905	209.395	-754.594	 H	10	HIS10	0.037	
149	 2HD	798.741	208.902	-752.843	 H	10	HIS10	0.186	
150	 1HE	801.698	207.640	-755.579	 H	10	HIS10	0.144	
151	 2HE	801.109	207.679	-753.024	 H	10	HIS10	0.334	
152	   N	796.221	211.826	-757.053	N.am	11	VAL11	-0.416	
153	  CA	795.867	212.372	-758.359	C.3	11	VAL11	-0.087	
154	   C	796.330	213.803	-758.491	C.2	11	VAL11	0.597	
155	   O	796.932	214.209	-759.493	O.2	11	VAL11	-0.568	
156	  CB	794.306	212.265	-758.580	C.3	11	VAL11	0.299	
157	 CG1	793.738	212.969	-759.843	C.3	11	VAL11	-0.319	
158	 CG2	793.782	210.810	-758.655	C.3	11	VAL11	-0.319	
159	   H	795.508	211.452	-756.443	 H	11	VAL11	0.272	
160	  HA	796.387	211.791	-759.142	 H	11	VAL11	0.097	
161	  HB	793.817	212.744	-757.705	 H	11	VAL11	-0.030	
162	1HG1	794.178	212.578	-760.780	 H	11	VAL11	0.079	
163	2HG1	792.639	212.861	-759.926	 H	11	VAL11	0.079	
164	3HG1	793.915	214.062	-759.833	 H	11	VAL11	0.079	
165	1HG2	794.071	210.223	-757.764	 H	11	VAL11	0.079	
166	2HG2	792.676	210.773	-758.699	 H	11	VAL11	0.079	
167	3HG2	794.165	210.270	-759.541	 H	11	VAL11	0.079	
168	   N	796.092	214.628	-757.528	N.am	12	GLN12	-0.416	
169	  CA	796.540	216.011	-757.654	C.3	12	GLN12	-0.003	
170	   C	798.030	216.080	-757.890	C.2	12	GLN12	0.597	
171	   O	798.517	216.789	-758.768	O.2	12	GLN12	-0.568	
172	  CB	796.147	216.778	-756.371	C.3	12	GLN12	-0.004	
173	  CG	796.507	218.300	-756.339	C.3	12	GLN12	-0.064	
174	  CD	796.203	219.112	-755.073	C.2	12	GLN12	0.695	
175	 NE2	795.635	218.535	-754.045	N.pl3	12	GLN12	-0.941	
176	 OE1	796.504	220.293	-754.995	O.2	12	GLN12	-0.609	
177	   H	795.603	214.321	-756.699	 H	12	GLN12	0.272	
178	  HA	796.041	216.468	-758.529	 H	12	GLN12	0.085	
179	 2HB	796.623	216.277	-755.502	 H	12	GLN12	0.017	
180	 3HB	795.057	216.670	-756.209	 H	12	GLN12	0.017	
181	 2HG	796.030	218.821	-757.189	 H	12	GLN12	0.035	
182	 3HG	797.590	218.443	-756.503	 H	12	GLN12	0.035	
183	1HE2	795.527	219.129	-753.222	 H	12	GLN12	0.425	
184	2HE2	795.472	217.531	-754.150	 H	12	GLN12	0.425	
185	   N	798.814	215.373	-757.149	N.am	13	ARG13	-0.348	
186	  CA	800.255	215.440	-757.378	C.3	13	ARG13	-0.264	
187	   C	800.592	215.069	-758.803	C.2	13	ARG13	0.734	
188	   O	801.361	215.742	-759.486	O.2	13	ARG13	-0.589	
189	  CB	800.967	214.500	-756.364	C.3	13	ARG13	-0.001	
190	  CG	802.512	214.654	-756.282	C.3	13	ARG13	0.039	
191	  CD	803.139	213.666	-755.284	C.3	13	ARG13	0.049	
192	  NE	804.616	213.874	-755.232	N.pl3	13	ARG13	-0.530	
193	  CZ	805.463	213.183	-754.476	C.cat	13	ARG13	0.808	
194	 NH1	805.098	212.217	-753.680	N.pl3	13	ARG13	-0.863	
195	 NH2	806.723	213.482	-754.532	N.pl3	13	ARG13	-0.863	
196	   H	798.438	214.782	-756.421	 H	13	ARG13	0.275	
197	  HA	800.578	216.486	-757.219	 H	13	ARG13	0.156	
198	 2HB	800.702	213.450	-756.605	 H	13	ARG13	0.033	
199	 3HB	800.541	214.666	-755.354	 H	13	ARG13	0.033	
200	 2HG	802.759	215.699	-756.001	 H	13	ARG13	0.029	
201	 3HG	802.964	214.499	-757.283	 H	13	ARG13	0.029	
202	 2HD	802.895	212.626	-755.594	 H	13	ARG13	0.069	
203	 3HD	802.681	213.811	-754.282	 H	13	ARG13	0.069	
204	  HE	805.067	214.597	-755.802	 H	13	ARG13	0.346	
205	1HH1	804.093	212.031	-753.684	 H	13	ARG13	0.448	
206	2HH1	805.811	211.734	-753.131	 H	13	ARG13	0.448	
207	1HH2	806.991	214.241	-755.162	 H	13	ARG13	0.448	
208	2HH2	807.358	212.941	-753.943	 H	13	ARG13	0.448	
209	   N	800.057	214.015	-759.319	N.am	14	VAL14	-0.416	
210	  CA	800.384	213.657	-760.696	C.3	14	VAL14	-0.087	
211	   C	800.054	214.787	-761.642	C.2	14	VAL14	0.597	
212	   O	800.848	215.170	-762.510	O.2	14	VAL14	-0.568	
213	  CB	799.613	212.340	-761.105	C.3	14	VAL14	0.299	
214	 CG1	799.703	211.922	-762.599	C.3	14	VAL14	-0.319	
215	 CG2	800.044	211.087	-760.305	C.3	14	VAL14	-0.319	
216	   H	799.422	213.446	-758.778	 H	14	VAL14	0.272	
217	  HA	801.472	213.481	-760.770	 H	14	VAL14	0.097	
218	  HB	798.536	212.510	-760.890	 H	14	VAL14	-0.030	
219	1HG1	800.745	211.746	-762.927	 H	14	VAL14	0.079	
220	2HG1	799.131	210.999	-762.813	 H	14	VAL14	0.079	
221	3HG1	799.275	212.685	-763.277	 H	14	VAL14	0.079	
222	1HG2	799.956	211.245	-759.215	 H	14	VAL14	0.079	
223	2HG2	799.409	210.211	-760.539	 H	14	VAL14	0.079	
224	3HG2	801.092	210.798	-760.510	 H	14	VAL14	0.079	
225	   N	798.909	215.373	-761.541	N.am	15	MET15	-0.416	
226	  CA	798.589	216.466	-762.454	C.3	15	MET15	-0.024	
227	   C	799.618	217.566	-762.364	C.2	15	MET15	0.597	
228	   O	800.122	218.078	-763.376	O.2	15	MET15	-0.568	
229	  CB	797.167	217.010	-762.146	C.3	15	MET15	0.034	
230	  CG	796.006	216.012	-762.339	C.3	15	MET15	0.002	
231	  SD	794.431	216.877	-762.226	S.3	15	MET15	-0.274	
232	  CE	793.351	215.447	-762.092	C.3	15	MET15	-0.054	
233	   H	798.244	215.079	-760.840	 H	15	MET15	0.272	
234	  HA	798.616	216.079	-763.490	 H	15	MET15	0.088	
235	 2HB	796.965	217.889	-762.788	 H	15	MET15	0.024	
236	 3HB	797.130	217.402	-761.109	 H	15	MET15	0.024	
237	 2HG	796.048	215.226	-761.562	 H	15	MET15	0.044	
238	 3HG	796.070	215.497	-763.316	 H	15	MET15	0.044	
239	 1HE	793.495	214.759	-762.944	 H	15	MET15	0.068	
240	 2HE	793.559	214.893	-761.159	 H	15	MET15	0.068	
241	 3HE	792.293	215.761	-762.076	 H	15	MET15	0.068	
242	   N	799.986	217.987	-761.202	N.am	16	ARG16	-0.348	
243	  CA	800.982	219.051	-761.116	C.3	16	ARG16	-0.264	
244	   C	802.253	218.659	-761.831	C.2	16	ARG16	0.734	
245	   O	802.368	217.583	-762.413	O.2	16	ARG16	-0.589	
246	  CB	801.249	219.368	-759.617	C.3	16	ARG16	-0.001	
247	  CG	802.073	220.657	-759.343	C.3	16	ARG16	0.039	
248	  CD	802.321	220.876	-757.841	C.3	16	ARG16	0.049	
249	  NE	803.096	222.135	-757.639	N.pl3	16	ARG16	-0.530	
250	  CZ	803.486	222.617	-756.462	C.cat	16	ARG16	0.808	
251	 NH1	803.238	222.032	-755.325	N.pl3	16	ARG16	-0.863	
252	 NH2	804.149	223.730	-756.443	N.pl3	16	ARG16	-0.863	
253	   H	799.590	217.586	-760.363	 H	16	ARG16	0.275	
254	  HA	800.573	219.944	-761.626	 H	16	ARG16	0.156	
255	 2HB	801.746	218.492	-759.151	 H	16	ARG16	0.033	
256	 3HB	800.280	219.448	-759.085	 H	16	ARG16	0.033	
257	 2HG	801.543	221.528	-759.780	 H	16	ARG16	0.029	
258	 3HG	803.047	220.605	-759.871	 H	16	ARG16	0.029	
259	 2HD	802.870	220.001	-757.428	 H	16	ARG16	0.069	
260	 3HD	801.348	220.918	-757.307	 H	16	ARG16	0.069	
261	  HE	803.375	222.717	-758.435	 H	16	ARG16	0.346	
262	1HH1	802.713	221.159	-755.410	 H	16	ARG16	0.448	
263	2HH1	803.571	222.467	-754.463	 H	16	ARG16	0.448	
264	1HH2	804.336	224.174	-757.344	 H	16	ARG16	0.448	
265	2HH2	804.439	224.085	-755.530	 H	16	ARG16	0.448	
@<TRIPOS>BOND
1 1 2 1
2 1 10 1
3 2 3 1
4 2 5 1
5 2 11 1
6 3 4 2
7 3 16 1
8 5 6 1
9 6 7 1
10 7 8 2
11 7 9 1
12 5 12 1
13 5 13 1
14 6 14 1
15 6 15 1
16 16 17 1
17 16 24 1
18 17 18 1
19 17 20 1
20 17 25 1
21 18 19 2
22 18 30 1
23 20 21 1
24 21 22 1
25 21 23 2
26 20 26 1
27 20 27 1
28 22 28 1
29 22 29 1
30 30 31 1
31 30 36 1
32 31 32 1
33 31 34 1
34 31 37 1
35 32 33 2
36 32 44 1
37 34 35 1
38 35 36 1
39 34 38 1
40 34 39 1
41 35 40 1
42 35 41 1
43 36 42 1
44 36 43 1
45 44 45 1
46 44 53 1
47 45 46 1
48 45 48 1
49 45 54 1
50 46 47 2
51 46 59 1
52 48 49 1
53 49 50 1
54 50 51 2
55 50 52 1
56 48 55 1
57 48 56 1
58 49 57 1
59 49 58 1
60 59 60 1
61 59 65 1
62 60 61 1
63 60 63 1
64 60 66 1
65 61 62 2
66 61 70 1
67 63 64 1
68 63 67 1
69 63 68 1
70 64 69 1
71 70 71 1
72 70 78 1
73 71 72 1
74 71 74 1
75 71 79 1
76 72 73 2
77 72 89 1
78 74 75 1
79 74 76 1
80 75 77 1
81 74 80 1
82 75 81 1
83 75 82 1
84 76 83 1
85 76 84 1
86 76 85 1
87 77 86 1
88 77 87 1
89 77 88 1
90 89 90 1
91 89 97 1
92 90 91 1
93 90 93 1
94 90 98 1
95 91 92 2
96 91 108 1
97 93 94 1
98 94 95 1
99 94 96 1
100 93 99 1
101 93 100 1
102 94 101 1
103 95 102 1
104 95 103 1
105 95 104 1
106 96 105 1
107 96 106 1
108 96 107 1
109 108 109 1
110 108 116 1
111 109 110 1
112 109 112 1
113 109 117 1
114 110 111 2
115 110 120 1
116 112 113 1
117 113 114 2
118 113 115 1
119 112 118 1
120 112 119 1
121 120 121 1
122 120 129 1
123 121 122 1
124 121 124 1
125 121 130 1
126 122 123 2
127 122 135 1
128 124 125 1
129 125 126 1
130 126 127 2
131 126 128 1
132 124 131 1
133 124 132 1
134 125 133 1
135 125 134 1
136 135 136 1
137 135 145 1
138 136 137 1
139 136 139 1
140 136 146 1
141 137 138 2
142 137 152 1
143 139 140 1
144 140 141 2
145 141 144 1
146 140 142 1
147 142 143 2
148 143 144 1
149 139 147 1
150 139 148 1
151 141 149 1
152 143 150 1
153 144 151 1
154 152 153 1
155 152 159 1
156 153 154 1
157 153 156 1
158 153 160 1
159 154 155 2
160 154 168 1
161 156 157 1
162 156 158 1
163 156 161 1
164 157 162 1
165 157 163 1
166 157 164 1
167 158 165 1
168 158 166 1
169 158 167 1
170 168 169 1
171 168 177 1
172 169 170 1
173 169 172 1
174 169 178 1
175 170 171 2
176 170 185 1
177 172 173 1
178 173 174 1
179 174 175 1
180 174 176 2
181 172 179 1
182 172 180 1
183 173 181 1
184 173 182 1
185 175 183 1
186 175 184 1
187 185 186 1
188 185 196 1
189 186 187 1
190 186 189 1
191 186 197 1
192 187 188 2
193 187 209 1
194 189 190 1
195 190 191 1
196 191 192 1
197 192 193 1
198 193 194 2
199 193 195 1
200 189 198 1
201 189 199 1
202 190 200 1
203 190 201 1
204 191 202 1
205 191 203 1
206 192 204 1
207 194 205 1
208 194 206 1
209 195 207 1
210 195 208 1
211 209 210 1
212 209 216 1
213 210 211 1
214 210 213 1
215 210 217 1
216 211 212 2
217 211 225 1
218 213 214 1
219 213 215 1
220 213 218 1
221 214 219 1
222 214 220 1
223 214 221 1
224 215 222 1
225 215 223 1
226 215 224 1
227 225 226 1
228 225 233 1
229 226 227 1
230 226 229 1
231 226 234 1
232 227 228 2
233 227 242 1
234 229 230 1
235 230 231 1
236 231 232 1
237 229 235 1
238 229 236 1
239 230 237 1
240 230 238 1
241 232 239 1
242 232 240 1
243 232 241 1
244 242 243 1
245 242 253 1
246 243 244 1
247 243 246 1
248 243 254 1
249 244 245 2
250 246 247 1
251 247 248 1
252 248 249 1
253 249 250 1
254 250 251 2
255 250 252 1
256 246 255 1
257 246 256 1
258 247 257 1
259 247 258 1
260 248 259 1
261 248 260 1
262 249 261 1
263 251 262 1
264 251 263 1
265 252 264 1
266 252 265 1
@<TRIPOS>SUBSTRUCTURE
1	GLU1	1	RESIDUE	1 ****	GLU
2	ASN2	16	RESIDUE	1 ****	ASN
3	PRO3	30	RESIDUE	1 ****	PRO
4	GLU4	44	RESIDUE	1 ****	GLU
5	CYS5	59	RESIDUE	1 ****	CYS
6	ILE6	70	RESIDUE	1 ****	ILE
7	LEU7	89	RESIDUE	1 ****	LEU
8	ASP8	108	RESIDUE	1 ****	ASP
9	GLU9	120	RESIDUE	1 ****	GLU
10	HIS10	135	RESIDUE	1 ****	HIS
11	VAL11	152	RESIDUE	1 ****	VAL
12	GLN12	168	RESIDUE	1 ****	GLN
13	ARG13	185	RESIDUE	1 ****	ARG
14	VAL14	209	RESIDUE	1 ****	VAL
15	MET15	225	RESIDUE	1 ****	MET
16	ARG16	242	RESIDUE	1 ****	ARG
