@<TRIPOS>MOLECULE
13-9
262 264 16              
SMALL
USER_CHARGES
@<TRIPOS>ATOM
1	   N	2072.815	628.921	-2142.513	N.3	1	GLU1	-0.516	
2	  CA	2073.374	630.270	-2142.513	C.3	1	GLU1	0.040	
3	   C	2074.883	630.230	-2142.513	C.2	1	GLU1	0.537	
4	   O	2075.559	630.929	-2143.281	O.2	1	GLU1	-0.582	
5	  CB	2072.851	631.055	-2141.276	C.3	1	GLU1	0.056	
6	  CG	2073.326	632.540	-2141.165	C.3	1	GLU1	0.014	
7	  CD	2072.902	633.344	-2139.950	C.2	1	GLU1	0.805	
8	 OE1	2072.174	632.842	-2139.072	O.co2	1	GLU1	-0.819	
9	 OE2	2073.332	634.514	-2139.878	O.co2	1	GLU1	-0.819	
10	   H	2073.442	628.042	-2142.513	 H	1	GLU1	0.294	
11	  HA	2073.048	630.788	-2143.433	 H	1	GLU1	0.111	
12	 2HB	2073.140	630.524	-2140.346	 H	1	GLU1	-0.017	
13	 3HB	2071.744	631.045	-2141.263	 H	1	GLU1	-0.017	
14	 2HG	2073.016	633.125	-2142.046	 H	1	GLU1	-0.043	
15	 3HG	2074.426	632.607	-2141.136	 H	1	GLU1	-0.043	
16	   N	2075.487	629.444	-2141.688	N.am	2	ASN2	-0.416	
17	  CA	2076.947	629.405	-2141.687	C.3	2	ASN2	0.014	
18	   C	2077.478	629.050	-2143.056	C.2	2	ASN2	0.597	
19	   O	2078.393	629.680	-2143.584	O.2	2	ASN2	-0.568	
20	  CB	2077.438	628.382	-2140.623	C.3	2	ASN2	-0.204	
21	  CG	2076.975	628.606	-2139.180	C.2	2	ASN2	0.713	
22	 ND2	2077.569	629.521	-2138.461	N.pl3	2	ASN2	-0.919	
23	 OD1	2076.054	627.973	-2138.686	O.2	2	ASN2	-0.593	
24	   H	2074.959	628.865	-2141.051	 H	2	ASN2	0.272	
25	  HA	2077.324	630.415	-2141.442	 H	2	ASN2	0.105	
26	 2HB	2078.542	628.323	-2140.626	 H	2	ASN2	0.080	
27	 3HB	2077.109	627.364	-2140.909	 H	2	ASN2	0.080	
28	1HD2	2077.088	629.694	-2137.575	 H	2	ASN2	0.420	
29	2HD2	2078.271	630.093	-2138.930	 H	2	ASN2	0.420	
30	   N	2076.957	628.055	-2143.690	N.am	3	PRO3	-0.255	
31	  CA	2077.409	627.646	-2145.011	C.3	3	PRO3	-0.027	
32	   C	2077.011	628.669	-2146.089	C.2	3	PRO3	0.590	
33	   O	2077.834	629.052	-2146.920	O.2	3	PRO3	-0.575	
34	  CB	2076.704	626.291	-2145.181	C.3	3	PRO3	-0.007	
35	  CG	2075.421	626.443	-2144.351	C.3	3	PRO3	0.019	
36	  CD	2075.878	627.262	-2143.141	C.3	3	PRO3	0.019	
37	  HA	2078.495	627.526	-2145.025	 H	3	PRO3	0.064	
38	 2HB	2077.327	625.510	-2144.740	 H	3	PRO3	0.025	
39	 3HB	2076.506	626.043	-2146.227	 H	3	PRO3	0.025	
40	 2HG	2074.993	625.481	-2144.060	 H	3	PRO3	0.021	
41	 3HG	2074.684	627.015	-2144.919	 H	3	PRO3	0.021	
42	 2HD	2076.267	626.612	-2142.354	 H	3	PRO3	0.039	
43	 3HD	2075.082	627.898	-2142.749	 H	3	PRO3	0.039	
44	   N	2075.806	629.130	-2146.121	N.am	4	GLU4	-0.516	
45	  CA	2075.447	630.101	-2147.151	C.3	4	GLU4	0.040	
46	   C	2076.346	631.311	-2147.090	C.2	4	GLU4	0.537	
47	   O	2076.873	631.791	-2148.104	O.2	4	GLU4	-0.582	
48	  CB	2073.958	630.520	-2146.981	C.3	4	GLU4	0.056	
49	  CG	2073.411	631.523	-2148.047	C.3	4	GLU4	0.014	
50	  CD	2071.985	632.020	-2147.904	C.2	4	GLU4	0.805	
51	 OE1	2071.258	631.622	-2146.974	O.co2	4	GLU4	-0.819	
52	 OE2	2071.596	632.850	-2148.753	O.co2	4	GLU4	-0.819	
53	   H	2075.122	628.823	-2145.445	 H	4	GLU4	0.294	
54	  HA	2075.579	629.630	-2148.142	 H	4	GLU4	0.111	
55	 2HB	2073.806	630.959	-2145.975	 H	4	GLU4	-0.017	
56	 3HB	2073.311	629.622	-2146.988	 H	4	GLU4	-0.017	
57	 2HG	2073.493	631.109	-2149.065	 H	4	GLU4	-0.043	
58	 3HG	2074.000	632.456	-2148.058	 H	4	GLU4	-0.043	
59	   N	2076.573	631.864	-2145.946	N.am	5	SER5	-0.416	
60	  CA	2077.443	633.035	-2145.887	C.3	5	SER5	-0.025	
61	   C	2078.802	632.729	-2146.473	C.2	5	SER5	0.597	
62	   O	2079.350	633.482	-2147.277	O.2	5	SER5	-0.568	
63	  CB	2077.554	633.567	-2144.437	C.3	5	SER5	0.212	
64	  OG	2078.285	632.687	-2143.576	O.3	5	SER5	-0.655	
65	   H	2076.156	631.492	-2145.105	 H	5	SER5	0.272	
66	  HA	2076.994	633.826	-2146.517	 H	5	SER5	0.084	
67	 2HB	2076.554	633.761	-2144.004	 H	5	SER5	0.035	
68	 3HB	2078.060	634.553	-2144.439	 H	5	SER5	0.035	
69	  HG	2077.796	631.863	-2143.525	 H	5	SER5	0.428	
70	   N	2079.406	631.646	-2146.118	N.am	6	ILE6	-0.416	
71	  CA	2080.719	631.350	-2146.684	C.3	6	ILE6	-0.060	
72	   C	2080.662	631.313	-2148.192	C.2	6	ILE6	0.597	
73	   O	2081.497	631.900	-2148.896	O.2	6	ILE6	-0.568	
74	  CB	2081.319	630.014	-2146.084	C.3	6	ILE6	0.130	
75	 CG1	2081.337	629.951	-2144.523	C.3	6	ILE6	-0.043	
76	 CG2	2082.760	629.711	-2146.599	C.3	6	ILE6	-0.320	
77	 CD1	2081.607	628.562	-2143.908	C.3	6	ILE6	-0.066	
78	   H	2078.977	631.011	-2145.460	 H	6	ILE6	0.272	
79	  HA	2081.394	632.184	-2146.417	 H	6	ILE6	0.087	
80	  HB	2080.660	629.188	-2146.428	 H	6	ILE6	0.019	
81	2HG1	2080.355	630.272	-2144.127	 H	6	ILE6	0.024	
82	3HG1	2082.053	630.693	-2144.118	 H	6	ILE6	0.024	
83	1HG2	2082.819	629.618	-2147.697	 H	6	ILE6	0.088	
84	2HG2	2083.482	630.494	-2146.296	 H	6	ILE6	0.088	
85	3HG2	2083.149	628.749	-2146.220	 H	6	ILE6	0.088	
86	1HD1	2080.878	627.808	-2144.263	 H	6	ILE6	0.019	
87	2HD1	2082.617	628.183	-2144.144	 H	6	ILE6	0.019	
88	3HD1	2081.530	628.592	-2142.805	 H	6	ILE6	0.019	
89	   N	2079.716	630.649	-2148.766	N.am	7	LEU7	-0.416	
90	  CA	2079.661	630.613	-2150.224	C.3	7	LEU7	-0.052	
91	   C	2079.589	632.008	-2150.797	C.2	7	LEU7	0.597	
92	   O	2080.310	632.370	-2151.740	O.2	7	LEU7	-0.568	
93	  CB	2078.458	629.753	-2150.705	C.3	7	LEU7	-0.110	
94	  CG	2078.385	628.274	-2150.238	C.3	7	LEU7	0.353	
95	 CD1	2077.195	627.568	-2150.903	C.3	7	LEU7	-0.412	
96	 CD2	2079.678	627.494	-2150.530	C.3	7	LEU7	-0.412	
97	   H	2079.024	630.162	-2148.214	 H	7	LEU7	0.272	
98	  HA	2080.603	630.173	-2150.599	 H	7	LEU7	0.092	
99	 2HB	2078.435	629.769	-2151.812	 H	7	LEU7	0.046	
100	 3HB	2077.518	630.256	-2150.401	 H	7	LEU7	0.046	
101	  HG	2078.215	628.266	-2149.141	 H	7	LEU7	-0.036	
102	1HD1	2076.238	628.078	-2150.681	 H	7	LEU7	0.100	
103	2HD1	2077.294	627.528	-2152.005	 H	7	LEU7	0.100	
104	3HD1	2077.087	626.527	-2150.547	 H	7	LEU7	0.100	
105	1HD2	2079.953	627.525	-2151.599	 H	7	LEU7	0.100	
106	2HD2	2080.531	627.906	-2149.958	 H	7	LEU7	0.100	
107	3HD2	2079.596	626.432	-2150.233	 H	7	LEU7	0.100	
108	   N	2078.752	632.850	-2150.291	N.am	8	ASP8	-0.516	
109	  CA	2078.683	634.199	-2150.845	C.3	8	ASP8	0.038	
110	   C	2080.030	634.878	-2150.789	C.2	8	ASP8	0.537	
111	   O	2080.503	635.482	-2151.764	O.2	8	ASP8	-0.582	
112	  CB	2077.605	635.039	-2150.104	C.3	8	ASP8	-0.030	
113	  CG	2077.387	636.459	-2150.646	C.2	8	ASP8	0.799	
114	 OD1	2077.451	636.658	-2151.876	O.co2	8	ASP8	-0.801	
115	 OD2	2077.196	637.386	-2149.831	O.co2	8	ASP8	-0.801	
116	   H	2078.155	632.579	-2149.523	 H	8	ASP8	0.294	
117	  HA	2078.400	634.121	-2151.912	 H	8	ASP8	0.088	
118	 2HB	2077.862	635.123	-2149.032	 H	8	ASP8	-0.012	
119	 3HB	2076.626	634.534	-2150.137	 H	8	ASP8	-0.012	
120	   N	2080.710	634.828	-2149.693	N.am	9	GLU9	-0.516	
121	  CA	2082.013	635.485	-2149.639	C.3	9	GLU9	0.040	
122	   C	2082.930	634.957	-2150.715	C.2	9	GLU9	0.537	
123	   O	2083.594	635.710	-2151.441	O.2	9	GLU9	-0.582	
124	  CB	2082.646	635.278	-2148.233	C.3	9	GLU9	0.056	
125	  CG	2084.030	635.970	-2148.005	C.3	9	GLU9	0.014	
126	  CD	2084.731	635.757	-2146.676	C.2	9	GLU9	0.805	
127	 OE1	2084.210	635.067	-2145.780	O.co2	9	GLU9	-0.819	
128	 OE2	2085.851	636.294	-2146.545	O.co2	9	GLU9	-0.819	
129	   H	2080.346	634.343	-2148.886	 H	9	GLU9	0.294	
130	  HA	2081.871	636.567	-2149.814	 H	9	GLU9	0.111	
131	 2HB	2082.759	634.194	-2148.030	 H	9	GLU9	-0.017	
132	 3HB	2081.950	635.632	-2147.449	 H	9	GLU9	-0.017	
133	 2HG	2083.958	637.061	-2148.145	 H	9	GLU9	-0.043	
134	 3HG	2084.776	635.624	-2148.739	 H	9	GLU9	-0.043	
135	   N	2083.026	633.681	-2150.883	N.am	10	HIS10	-0.416	
136	  CA	2083.914	633.169	-2151.924	C.3	10	HIS10	-0.058	
137	   C	2083.547	633.733	-2153.275	C.2	10	HIS10	0.597	
138	   O	2084.399	634.197	-2154.047	O.2	10	HIS10	-0.568	
139	  CB	2083.749	631.640	-2151.918	C.3	10	HIS10	-0.007	
140	  CG	2085.034	630.929	-2151.610	C.2	10	HIS10	0.187	
141	 CD2	2085.416	630.595	-2150.318	C.2	10	HIS10	-0.221	
142	 ND1	2085.986	630.523	-2152.543	N.2	10	HIS10	-0.543	
143	 CE1	2086.892	629.965	-2151.719	C.2	10	HIS10	0.163	
144	 NE2	2086.630	629.963	-2150.384	N.pl3	10	HIS10	-0.280	
145	   H	2082.496	633.047	-2150.304	 H	10	HIS10	0.272	
146	  HA	2084.933	633.526	-2151.699	 H	10	HIS10	0.136	
147	 2HB	2083.383	631.273	-2152.898	 H	10	HIS10	0.037	
148	 3HB	2082.993	631.304	-2151.177	 H	10	HIS10	0.037	
149	 2HD	2084.831	630.811	-2149.428	 H	10	HIS10	0.186	
150	 1HE	2087.783	629.543	-2152.167	 H	10	HIS10	0.144	
151	 2HE	2087.197	629.586	-2149.611	 H	10	HIS10	0.334	
152	   N	2082.309	633.733	-2153.638	N.am	11	VAL11	-0.416	
153	  CA	2081.954	634.278	-2154.945	C.3	11	VAL11	-0.087	
154	   C	2082.419	635.709	-2155.078	C.2	11	VAL11	0.597	
155	   O	2083.020	636.113	-2156.082	O.2	11	VAL11	-0.568	
156	  CB	2080.392	634.172	-2155.164	C.3	11	VAL11	0.299	
157	 CG1	2079.824	634.876	-2156.427	C.3	11	VAL11	-0.319	
158	 CG2	2079.867	632.719	-2155.236	C.3	11	VAL11	-0.319	
159	   H	2081.596	633.361	-2153.027	 H	11	VAL11	0.272	
160	  HA	2082.473	633.695	-2155.727	 H	11	VAL11	0.097	
161	  HB	2079.905	634.653	-2154.289	 H	11	VAL11	-0.030	
162	1HG1	2080.262	634.483	-2157.364	 H	11	VAL11	0.079	
163	2HG1	2078.725	634.769	-2156.509	 H	11	VAL11	0.079	
164	3HG1	2080.003	635.968	-2156.418	 H	11	VAL11	0.079	
165	1HG2	2080.157	632.132	-2154.345	 H	11	VAL11	0.079	
166	2HG2	2078.761	632.682	-2155.279	 H	11	VAL11	0.079	
167	3HG2	2080.249	632.177	-2156.122	 H	11	VAL11	0.079	
168	   N	2082.183	636.535	-2154.116	N.am	12	GLN12	-0.416	
169	  CA	2082.632	637.918	-2154.244	C.3	12	GLN12	-0.003	
170	   C	2084.122	637.984	-2154.482	C.2	12	GLN12	0.597	
171	   O	2084.609	638.692	-2155.362	O.2	12	GLN12	-0.568	
172	  CB	2082.241	638.686	-2152.962	C.3	12	GLN12	-0.004	
173	  CG	2082.603	640.208	-2152.932	C.3	12	GLN12	-0.064	
174	  CD	2082.301	641.022	-2151.667	C.2	12	GLN12	0.695	
175	 NE2	2081.734	640.446	-2150.638	N.pl3	12	GLN12	-0.941	
176	 OE1	2082.604	642.203	-2151.590	O.2	12	GLN12	-0.609	
177	   H	2081.694	636.229	-2153.287	 H	12	GLN12	0.272	
178	  HA	2082.132	638.374	-2155.119	 H	12	GLN12	0.085	
179	 2HB	2082.718	638.186	-2152.092	 H	12	GLN12	0.017	
180	 3HB	2081.151	638.579	-2152.798	 H	12	GLN12	0.017	
181	 2HG	2082.125	640.728	-2153.782	 H	12	GLN12	0.035	
182	 3HG	2083.686	640.349	-2153.098	 H	12	GLN12	0.035	
183	1HE2	2081.628	641.041	-2149.815	 H	12	GLN12	0.425	
184	2HE2	2081.570	639.443	-2150.741	 H	12	GLN12	0.425	
185	   N	2084.906	637.277	-2153.741	N.am	13	TYR13	-0.416	
186	  CA	2086.346	637.342	-2153.972	C.3	13	TYR13	-0.001	
187	   C	2086.683	636.970	-2155.396	C.2	13	TYR13	0.597	
188	   O	2087.455	637.643	-2156.083	O.2	13	TYR13	-0.568	
189	  CB	2087.104	636.363	-2153.028	C.3	13	TYR13	-0.015	
190	  CG	2086.969	636.616	-2151.522	C.2	13	TYR13	-0.001	
191	 CD1	2087.707	637.629	-2150.901	C.2	13	TYR13	-0.191	
192	 CD2	2086.095	635.834	-2150.762	C.2	13	TYR13	-0.191	
193	 CE1	2087.564	637.859	-2149.535	C.2	13	TYR13	-0.234	
194	 CE2	2085.954	636.065	-2149.397	C.2	13	TYR13	-0.234	
195	  CZ	2086.689	637.078	-2148.784	C.2	13	TYR13	0.323	
196	  OH	2086.551	637.309	-2147.445	O.3	13	TYR13	-0.558	
197	   H	2084.530	636.688	-2153.012	 H	13	TYR13	0.272	
198	  HA	2086.691	638.379	-2153.801	 H	13	TYR13	0.088	
199	 2HB	2088.185	636.373	-2153.272	 H	13	TYR13	0.030	
200	 3HB	2086.799	635.321	-2153.258	 H	13	TYR13	0.030	
201	 1HD	2088.384	638.245	-2151.477	 H	13	TYR13	0.170	
202	 2HD	2085.513	635.054	-2151.233	 H	13	TYR13	0.170	
203	 1HE	2088.127	638.645	-2149.054	 H	13	TYR13	0.166	
204	 2HE	2085.271	635.459	-2148.823	 H	13	TYR13	0.166	
205	  HH	2085.912	636.685	-2147.094	 H	13	TYR13	0.399	
206	   N	2086.146	635.915	-2155.910	N.am	14	VAL14	-0.416	
207	  CA	2086.471	635.555	-2157.287	C.3	14	VAL14	-0.087	
208	   C	2086.142	636.685	-2158.234	C.2	14	VAL14	0.597	
209	   O	2086.937	637.066	-2159.103	O.2	14	VAL14	-0.568	
210	  CB	2085.698	634.238	-2157.694	C.3	14	VAL14	0.299	
211	 CG1	2085.788	633.819	-2159.187	C.3	14	VAL14	-0.319	
212	 CG2	2086.130	632.986	-2156.892	C.3	14	VAL14	-0.319	
213	   H	2085.511	635.347	-2155.368	 H	14	VAL14	0.272	
214	  HA	2087.560	635.378	-2157.362	 H	14	VAL14	0.097	
215	  HB	2084.622	634.410	-2157.478	 H	14	VAL14	-0.030	
216	1HG1	2086.829	633.641	-2159.515	 H	14	VAL14	0.079	
217	2HG1	2085.215	632.896	-2159.399	 H	14	VAL14	0.079	
218	3HG1	2085.360	634.581	-2159.865	 H	14	VAL14	0.079	
219	1HG2	2086.042	633.146	-2155.802	 H	14	VAL14	0.079	
220	2HG2	2085.493	632.110	-2157.125	 H	14	VAL14	0.079	
221	3HG2	2087.177	632.696	-2157.097	 H	14	VAL14	0.079	
222	   N	2084.998	637.271	-2158.133	N.am	15	MET15	-0.416	
223	  CA	2084.678	638.363	-2159.047	C.3	15	MET15	-0.024	
224	   C	2085.709	639.463	-2158.960	C.2	15	MET15	0.597	
225	   O	2086.212	639.973	-2159.972	O.2	15	MET15	-0.568	
226	  CB	2083.257	638.910	-2158.740	C.3	15	MET15	0.034	
227	  CG	2082.094	637.912	-2158.931	C.3	15	MET15	0.002	
228	  SD	2080.521	638.778	-2158.818	S.3	15	MET15	-0.274	
229	  CE	2079.439	637.349	-2158.681	C.3	15	MET15	-0.054	
230	   H	2084.333	636.979	-2157.431	 H	15	MET15	0.272	
231	  HA	2084.705	637.976	-2160.083	 H	15	MET15	0.088	
232	 2HB	2083.055	639.788	-2159.382	 H	15	MET15	0.024	
233	 3HB	2083.221	639.303	-2157.703	 H	15	MET15	0.024	
234	 2HG	2082.137	637.127	-2158.153	 H	15	MET15	0.044	
235	 3HG	2082.158	637.396	-2159.907	 H	15	MET15	0.044	
236	 1HE	2079.583	636.660	-2159.533	 H	15	MET15	0.068	
237	 2HE	2079.648	636.797	-2157.748	 H	15	MET15	0.068	
238	 3HE	2078.382	637.665	-2158.665	 H	15	MET15	0.068	
239	   N	2086.077	639.885	-2157.798	N.am	16	ARG16	-0.348	
240	  CA	2087.074	640.948	-2157.714	C.3	16	ARG16	-0.264	
241	   C	2088.345	640.554	-2158.429	C.2	16	ARG16	0.734	
242	   O	2088.458	639.477	-2159.010	O.2	16	ARG16	-0.589	
243	  CB	2087.343	641.266	-2156.216	C.3	16	ARG16	-0.001	
244	  CG	2088.169	642.555	-2155.943	C.3	16	ARG16	0.039	
245	  CD	2088.418	642.775	-2154.442	C.3	16	ARG16	0.049	
246	  NE	2089.195	644.033	-2154.241	N.pl3	16	ARG16	-0.530	
247	  CZ	2089.586	644.516	-2153.066	C.cat	16	ARG16	0.808	
248	 NH1	2089.337	643.932	-2151.927	N.pl3	16	ARG16	-0.863	
249	 NH2	2090.250	645.628	-2153.048	N.pl3	16	ARG16	-0.863	
250	   H	2085.682	639.485	-2156.958	 H	16	ARG16	0.275	
251	  HA	2086.666	641.841	-2158.224	 H	16	ARG16	0.156	
252	 2HB	2087.839	640.390	-2155.749	 H	16	ARG16	0.033	
253	 3HB	2086.374	641.348	-2155.683	 H	16	ARG16	0.033	
254	 2HG	2087.639	643.426	-2156.381	 H	16	ARG16	0.029	
255	 3HG	2089.143	642.501	-2156.472	 H	16	ARG16	0.029	
256	 2HD	2088.966	641.900	-2154.028	 H	16	ARG16	0.069	
257	 3HD	2087.445	642.818	-2153.907	 H	16	ARG16	0.069	
258	  HE	2089.474	644.614	-2155.039	 H	16	ARG16	0.346	
259	1HH1	2088.811	643.060	-2152.011	 H	16	ARG16	0.448	
260	2HH1	2089.672	644.368	-2151.066	 H	16	ARG16	0.448	
261	1HH2	2090.437	646.071	-2153.949	 H	16	ARG16	0.448	
262	2HH2	2090.541	645.984	-2152.135	 H	16	ARG16	0.448	
@<TRIPOS>BOND
1 1 2 1
2 1 10 1
3 2 3 1
4 2 5 1
5 2 11 1
6 3 4 2
7 3 16 1
8 5 6 1
9 6 7 1
10 7 8 2
11 7 9 1
12 5 12 1
13 5 13 1
14 6 14 1
15 6 15 1
16 16 17 1
17 16 24 1
18 17 18 1
19 17 20 1
20 17 25 1
21 18 19 2
22 18 30 1
23 20 21 1
24 21 22 1
25 21 23 2
26 20 26 1
27 20 27 1
28 22 28 1
29 22 29 1
30 30 31 1
31 30 36 1
32 31 32 1
33 31 34 1
34 31 37 1
35 32 33 2
36 32 44 1
37 34 35 1
38 35 36 1
39 34 38 1
40 34 39 1
41 35 40 1
42 35 41 1
43 36 42 1
44 36 43 1
45 44 45 1
46 44 53 1
47 45 46 1
48 45 48 1
49 45 54 1
50 46 47 2
51 46 59 1
52 48 49 1
53 49 50 1
54 50 51 2
55 50 52 1
56 48 55 1
57 48 56 1
58 49 57 1
59 49 58 1
60 59 60 1
61 59 65 1
62 60 61 1
63 60 63 1
64 60 66 1
65 61 62 2
66 61 70 1
67 63 64 1
68 63 67 1
69 63 68 1
70 64 69 1
71 70 71 1
72 70 78 1
73 71 72 1
74 71 74 1
75 71 79 1
76 72 73 2
77 72 89 1
78 74 75 1
79 74 76 1
80 75 77 1
81 74 80 1
82 75 81 1
83 75 82 1
84 76 83 1
85 76 84 1
86 76 85 1
87 77 86 1
88 77 87 1
89 77 88 1
90 89 90 1
91 89 97 1
92 90 91 1
93 90 93 1
94 90 98 1
95 91 92 2
96 91 108 1
97 93 94 1
98 94 95 1
99 94 96 1
100 93 99 1
101 93 100 1
102 94 101 1
103 95 102 1
104 95 103 1
105 95 104 1
106 96 105 1
107 96 106 1
108 96 107 1
109 108 109 1
110 108 116 1
111 109 110 1
112 109 112 1
113 109 117 1
114 110 111 2
115 110 120 1
116 112 113 1
117 113 114 2
118 113 115 1
119 112 118 1
120 112 119 1
121 120 121 1
122 120 129 1
123 121 122 1
124 121 124 1
125 121 130 1
126 122 123 2
127 122 135 1
128 124 125 1
129 125 126 1
130 126 127 2
131 126 128 1
132 124 131 1
133 124 132 1
134 125 133 1
135 125 134 1
136 135 136 1
137 135 145 1
138 136 137 1
139 136 139 1
140 136 146 1
141 137 138 2
142 137 152 1
143 139 140 1
144 140 141 2
145 141 144 1
146 140 142 1
147 142 143 2
148 143 144 1
149 139 147 1
150 139 148 1
151 141 149 1
152 143 150 1
153 144 151 1
154 152 153 1
155 152 159 1
156 153 154 1
157 153 156 1
158 153 160 1
159 154 155 2
160 154 168 1
161 156 157 1
162 156 158 1
163 156 161 1
164 157 162 1
165 157 163 1
166 157 164 1
167 158 165 1
168 158 166 1
169 158 167 1
170 168 169 1
171 168 177 1
172 169 170 1
173 169 172 1
174 169 178 1
175 170 171 2
176 170 185 1
177 172 173 1
178 173 174 1
179 174 175 1
180 174 176 2
181 172 179 1
182 172 180 1
183 173 181 1
184 173 182 1
185 175 183 1
186 175 184 1
187 185 186 1
188 185 197 1
189 186 187 1
190 186 189 1
191 186 198 1
192 187 188 2
193 187 206 1
194 189 190 1
195 190 191 2
196 190 192 1
197 192 194 2
198 191 193 1
199 194 195 1
200 193 195 2
201 195 196 1
202 189 199 1
203 189 200 1
204 191 201 1
205 192 202 1
206 193 203 1
207 194 204 1
208 196 205 1
209 206 207 1
210 206 213 1
211 207 208 1
212 207 210 1
213 207 214 1
214 208 209 2
215 208 222 1
216 210 211 1
217 210 212 1
218 210 215 1
219 211 216 1
220 211 217 1
221 211 218 1
222 212 219 1
223 212 220 1
224 212 221 1
225 222 223 1
226 222 230 1
227 223 224 1
228 223 226 1
229 223 231 1
230 224 225 2
231 224 239 1
232 226 227 1
233 227 228 1
234 228 229 1
235 226 232 1
236 226 233 1
237 227 234 1
238 227 235 1
239 229 236 1
240 229 237 1
241 229 238 1
242 239 240 1
243 239 250 1
244 240 241 1
245 240 243 1
246 240 251 1
247 241 242 2
248 243 244 1
249 244 245 1
250 245 246 1
251 246 247 1
252 247 248 2
253 247 249 1
254 243 252 1
255 243 253 1
256 244 254 1
257 244 255 1
258 245 256 1
259 245 257 1
260 246 258 1
261 248 259 1
262 248 260 1
263 249 261 1
264 249 262 1
@<TRIPOS>SUBSTRUCTURE
1	GLU1	1	RESIDUE	1 ****	GLU
2	ASN2	16	RESIDUE	1 ****	ASN
3	PRO3	30	RESIDUE	1 ****	PRO
4	GLU4	44	RESIDUE	1 ****	GLU
5	SER5	59	RESIDUE	1 ****	SER
6	ILE6	70	RESIDUE	1 ****	ILE
7	LEU7	89	RESIDUE	1 ****	LEU
8	ASP8	108	RESIDUE	1 ****	ASP
9	GLU9	120	RESIDUE	1 ****	GLU
10	HIS10	135	RESIDUE	1 ****	HIS
11	VAL11	152	RESIDUE	1 ****	VAL
12	GLN12	168	RESIDUE	1 ****	GLN
13	TYR13	185	RESIDUE	1 ****	TYR
14	VAL14	206	RESIDUE	1 ****	VAL
15	MET15	222	RESIDUE	1 ****	MET
16	ARG16	239	RESIDUE	1 ****	ARG
