@<TRIPOS>MOLECULE
3-5
268 268 16              
SMALL
USER_CHARGES
@<TRIPOS>ATOM
1	   N	376.901	86.386	-351.432	N.3	1	GLU1	-0.516	
2	  CA	377.460	87.735	-351.432	C.3	1	GLU1	0.040	
3	   C	378.969	87.695	-351.432	C.2	1	GLU1	0.537	
4	   O	379.645	88.394	-352.201	O.2	1	GLU1	-0.582	
5	  CB	376.937	88.520	-350.195	C.3	1	GLU1	0.056	
6	  CG	377.412	90.005	-350.084	C.3	1	GLU1	0.014	
7	  CD	376.988	90.809	-348.869	C.2	1	GLU1	0.805	
8	 OE1	376.260	90.307	-347.991	O.co2	1	GLU1	-0.819	
9	 OE2	377.418	91.979	-348.797	O.co2	1	GLU1	-0.819	
10	   H	377.528	85.507	-351.432	 H	1	GLU1	0.294	
11	  HA	377.134	88.253	-352.352	 H	1	GLU1	0.111	
12	 2HB	377.226	87.989	-349.265	 H	1	GLU1	-0.017	
13	 3HB	375.830	88.510	-350.182	 H	1	GLU1	-0.017	
14	 2HG	377.102	90.590	-350.965	 H	1	GLU1	-0.043	
15	 3HG	378.512	90.072	-350.055	 H	1	GLU1	-0.043	
16	   N	379.574	86.909	-350.607	N.am	2	ASN2	-0.416	
17	  CA	381.033	86.870	-350.607	C.3	2	ASN2	0.014	
18	   C	381.564	86.515	-351.976	C.2	2	ASN2	0.597	
19	   O	382.479	87.145	-352.505	O.2	2	ASN2	-0.568	
20	  CB	381.525	85.847	-349.543	C.3	2	ASN2	-0.204	
21	  CG	381.062	86.071	-348.100	C.2	2	ASN2	0.713	
22	 ND2	381.657	86.986	-347.381	N.pl3	2	ASN2	-0.919	
23	 OD1	380.142	85.437	-347.605	O.2	2	ASN2	-0.593	
24	   H	379.046	86.329	-349.971	 H	2	ASN2	0.272	
25	  HA	381.410	87.880	-350.362	 H	2	ASN2	0.105	
26	 2HB	382.630	85.788	-349.547	 H	2	ASN2	0.080	
27	 3HB	381.196	84.829	-349.829	 H	2	ASN2	0.080	
28	1HD2	381.176	87.159	-346.495	 H	2	ASN2	0.420	
29	2HD2	382.358	87.558	-347.851	 H	2	ASN2	0.420	
30	   N	381.043	85.520	-352.610	N.am	3	MET3	-0.416	
31	  CA	381.555	85.175	-353.933	C.3	3	MET3	-0.024	
32	   C	381.462	86.352	-354.874	C.2	3	MET3	0.597	
33	   O	382.413	86.694	-355.594	O.2	3	MET3	-0.568	
34	  CB	380.781	83.952	-354.496	C.3	3	MET3	0.034	
35	  CG	380.914	82.641	-353.693	C.3	3	MET3	0.002	
36	  SD	380.207	81.276	-354.629	S.3	3	MET3	-0.274	
37	  CE	380.157	80.050	-353.316	C.3	3	MET3	-0.054	
38	   H	380.291	84.987	-352.197	 H	3	MET3	0.272	
39	  HA	382.627	84.918	-353.840	 H	3	MET3	0.088	
40	 2HB	381.120	83.749	-355.530	 H	3	MET3	0.024	
41	 3HB	379.705	84.201	-354.595	 H	3	MET3	0.024	
42	 2HG	380.386	82.734	-352.725	 H	3	MET3	0.044	
43	 3HG	381.970	82.413	-353.458	 H	3	MET3	0.044	
44	 1HE	381.159	79.901	-352.875	 H	3	MET3	0.068	
45	 2HE	379.468	80.371	-352.515	 H	3	MET3	0.068	
46	 3HE	379.803	79.080	-353.706	 H	3	MET3	0.068	
47	   N	380.361	87.023	-354.930	N.am	4	GLU4	-0.516	
48	  CA	380.271	88.161	-355.840	C.3	4	GLU4	0.040	
49	   C	381.352	89.173	-355.548	C.2	4	GLU4	0.537	
50	   O	382.047	89.671	-356.446	O.2	4	GLU4	-0.582	
51	  CB	378.866	88.817	-355.723	C.3	4	GLU4	0.056	
52	  CG	378.600	90.026	-356.678	C.3	4	GLU4	0.014	
53	  CD	377.271	90.750	-356.573	C.2	4	GLU4	0.805	
54	 OE1	376.402	90.379	-355.761	O.co2	4	GLU4	-0.819	
55	 OE2	377.111	91.733	-357.325	O.co2	4	GLU4	-0.819	
56	   H	379.573	86.764	-354.354	 H	4	GLU4	0.294	
57	  HA	380.416	87.799	-356.875	 H	4	GLU4	0.111	
58	 2HB	378.694	89.151	-354.680	 H	4	GLU4	-0.017	
59	 3HB	378.079	88.058	-355.900	 H	4	GLU4	-0.017	
60	 2HG	378.708	89.731	-357.735	 H	4	GLU4	-0.043	
61	 3HG	379.336	90.831	-356.519	 H	4	GLU4	-0.043	
62	   N	381.559	89.532	-354.326	N.am	5	SER5	-0.416	
63	  CA	382.605	90.511	-354.044	C.3	5	SER5	-0.025	
64	   C	383.942	90.040	-354.566	C.2	5	SER5	0.597	
65	   O	384.684	90.775	-355.218	O.2	5	SER5	-0.568	
66	  CB	382.665	90.833	-352.530	C.3	5	SER5	0.212	
67	  OG	383.151	89.738	-351.747	O.3	5	SER5	-0.655	
68	   H	381.007	89.142	-353.577	 H	5	SER5	0.272	
69	  HA	382.358	91.440	-354.590	 H	5	SER5	0.084	
70	 2HB	381.676	91.150	-352.149	 H	5	SER5	0.035	
71	 3HB	383.328	91.704	-352.361	 H	5	SER5	0.035	
72	  HG	382.528	89.015	-351.846	 H	5	SER5	0.428	
73	   N	384.318	88.830	-354.321	N.am	6	ILE6	-0.416	
74	  CA	385.611	88.375	-354.825	C.3	6	ILE6	-0.060	
75	   C	385.693	88.533	-356.323	C.2	6	ILE6	0.597	
76	   O	386.679	89.042	-356.877	O.2	6	ILE6	-0.568	
77	  CB	385.915	86.889	-354.372	C.3	6	ILE6	0.130	
78	 CG1	385.774	86.635	-352.837	C.3	6	ILE6	-0.043	
79	 CG2	387.328	86.398	-354.817	C.3	6	ILE6	-0.320	
80	 CD1	385.745	85.155	-352.400	C.3	6	ILE6	-0.066	
81	   H	383.727	88.208	-353.788	 H	6	ILE6	0.272	
82	  HA	386.387	89.035	-354.397	 H	6	ILE6	0.087	
83	  HB	385.164	86.244	-354.873	 H	6	ILE6	0.019	
84	2HG1	384.827	87.075	-352.473	 H	6	ILE6	0.024	
85	3HG1	386.563	87.180	-352.283	 H	6	ILE6	0.024	
86	1HG2	387.475	86.431	-355.911	 H	6	ILE6	0.088	
87	2HG2	388.139	86.995	-354.358	 H	6	ILE6	0.088	
88	3HG2	387.511	85.343	-354.546	 H	6	ILE6	0.088	
89	1HD1	384.937	84.593	-352.907	 H	6	ILE6	0.019	
90	2HD1	386.695	84.632	-352.611	 H	6	ILE6	0.019	
91	3HD1	385.570	85.063	-351.312	 H	6	ILE6	0.019	
92	   N	384.708	88.126	-357.050	N.am	7	LEU7	-0.416	
93	  CA	384.788	88.279	-358.500	C.3	7	LEU7	-0.052	
94	   C	385.008	89.724	-358.879	C.2	7	LEU7	0.597	
95	   O	385.866	90.064	-359.707	O.2	7	LEU7	-0.568	
96	  CB	383.508	87.715	-359.180	C.3	7	LEU7	-0.110	
97	  CG	383.142	86.227	-358.928	C.3	7	LEU7	0.353	
98	 CD1	381.919	85.834	-359.769	C.3	7	LEU7	-0.412	
99	 CD2	384.307	85.269	-359.228	C.3	7	LEU7	-0.412	
100	   H	383.894	87.708	-356.623	 H	7	LEU7	0.272	
101	  HA	385.673	87.726	-358.861	 H	7	LEU7	0.092	
102	 2HB	383.594	87.870	-360.274	 H	7	LEU7	0.046	
103	 3HB	382.642	88.338	-358.879	 H	7	LEU7	0.046	
104	  HG	382.869	86.116	-357.858	 H	7	LEU7	-0.036	
105	1HD1	381.045	86.476	-359.549	 H	7	LEU7	0.100	
106	2HD1	382.116	85.911	-360.855	 H	7	LEU7	0.100	
107	3HD1	381.604	84.794	-359.568	 H	7	LEU7	0.100	
108	1HD2	384.685	85.380	-360.261	 H	7	LEU7	0.100	
109	2HD2	385.159	85.447	-358.546	 H	7	LEU7	0.100	
110	3HD2	384.019	84.211	-359.088	 H	7	LEU7	0.100	
111	   N	384.280	90.633	-358.325	N.am	8	ASP8	-0.516	
112	  CA	384.492	92.031	-358.691	C.3	8	ASP8	0.038	
113	   C	385.922	92.445	-358.443	C.2	8	ASP8	0.537	
114	   O	386.582	93.070	-359.288	O.2	8	ASP8	-0.582	
115	  CB	383.505	92.953	-357.922	C.3	8	ASP8	-0.030	
116	  CG	383.582	94.445	-358.277	C.2	8	ASP8	0.799	
117	 OD1	383.797	94.779	-359.460	O.co2	8	ASP8	-0.801	
118	 OD2	383.472	95.284	-357.358	O.co2	8	ASP8	-0.801	
119	   H	383.574	90.382	-357.647	 H	8	ASP8	0.294	
120	  HA	384.304	92.136	-359.776	 H	8	ASP8	0.088	
121	 2HB	383.669	92.857	-356.833	 H	8	ASP8	-0.012	
122	 3HB	382.462	92.641	-358.095	 H	8	ASP8	-0.012	
123	   N	386.476	92.140	-357.318	N.am	9	GLU9	-0.516	
124	  CA	387.859	92.540	-357.078	C.3	9	GLU9	0.040	
125	   C	388.774	91.991	-358.146	C.2	9	GLU9	0.537	
126	   O	389.622	92.697	-358.711	O.2	9	GLU9	-0.582	
127	  CB	388.311	92.051	-355.672	C.3	9	GLU9	0.056	
128	  CG	389.762	92.450	-355.249	C.3	9	GLU9	0.014	
129	  CD	390.287	91.953	-353.915	C.2	9	GLU9	0.805	
130	 OE1	389.572	91.262	-353.163	O.co2	9	GLU9	-0.819	
131	 OE2	391.463	92.260	-353.630	O.co2	9	GLU9	-0.819	
132	   H	385.959	91.632	-356.614	 H	9	GLU9	0.294	
133	  HA	387.919	93.643	-357.113	 H	9	GLU9	0.111	
134	 2HB	388.219	90.947	-355.612	 H	9	GLU9	-0.017	
135	 3HB	387.611	92.426	-354.900	 H	9	GLU9	-0.017	
136	 2HG	389.889	93.544	-355.243	 H	9	GLU9	-0.043	
137	 3HG	390.506	92.069	-355.967	 H	9	GLU9	-0.043	
138	   N	388.669	90.750	-358.482	N.am	10	HIS10	-0.416	
139	  CA	389.554	90.219	-359.515	C.3	10	HIS10	-0.058	
140	   C	389.419	91.001	-360.799	C.2	10	HIS10	0.597	
141	   O	390.408	91.396	-361.435	O.2	10	HIS10	-0.568	
142	  CB	389.134	88.755	-359.732	C.3	10	HIS10	-0.007	
143	  CG	390.246	87.793	-359.432	C.2	10	HIS10	0.187	
144	 CD2	390.439	87.239	-358.173	C.2	10	HIS10	-0.221	
145	 ND1	391.201	87.340	-360.339	N.2	10	HIS10	-0.543	
146	 CE1	391.917	86.531	-359.536	C.2	10	HIS10	0.163	
147	 NE2	391.530	86.412	-358.237	N.pl3	10	HIS10	-0.280	
148	   H	387.986	90.155	-358.037	 H	10	HIS10	0.272	
149	  HA	390.592	90.356	-359.169	 H	10	HIS10	0.136	
150	 2HB	388.808	88.583	-360.777	 H	10	HIS10	0.037	
151	 3HB	388.265	88.472	-359.103	 H	10	HIS10	0.037	
152	 2HD	389.815	87.445	-357.308	 H	10	HIS10	0.186	
153	 1HE	392.763	86.014	-359.970	 H	10	HIS10	0.144	
154	 2HE	391.948	85.847	-357.483	 H	10	HIS10	0.334	
155	   N	388.240	91.268	-361.248	N.am	11	VAL11	-0.416	
156	  CA	388.109	92.024	-362.490	C.3	11	VAL11	-0.087	
157	   C	388.819	93.353	-362.390	C.2	11	VAL11	0.597	
158	   O	389.573	93.763	-363.281	O.2	11	VAL11	-0.568	
159	  CB	386.581	92.228	-362.835	C.3	11	VAL11	0.299	
160	 CG1	386.263	93.172	-364.027	C.3	11	VAL11	-0.319	
161	 CG2	385.828	90.912	-363.146	C.3	11	VAL11	-0.319	
162	   H	387.419	90.957	-360.748	 H	11	VAL11	0.272	
163	  HA	388.595	91.458	-363.305	 H	11	VAL11	0.097	
164	  HB	386.099	92.678	-361.940	 H	11	VAL11	-0.030	
165	1HG1	386.717	92.826	-364.975	 H	11	VAL11	0.079	
166	2HG1	385.175	93.276	-364.203	 H	11	VAL11	0.079	
167	3HG1	386.621	94.205	-363.855	 H	11	VAL11	0.079	
168	1HG2	385.927	90.178	-362.325	 H	11	VAL11	0.079	
169	2HG2	384.741	91.081	-363.274	 H	11	VAL11	0.079	
170	3HG2	386.196	90.424	-364.068	 H	11	VAL11	0.079	
171	   N	388.633	94.084	-361.343	N.am	12	GLN12	-0.416	
172	  CA	389.319	95.369	-361.246	C.3	12	GLN12	-0.003	
173	   C	390.815	95.195	-361.363	C.2	12	GLN12	0.597	
174	   O	391.497	95.907	-362.098	O.2	12	GLN12	-0.568	
175	  CB	388.942	96.031	-359.902	C.3	12	GLN12	-0.004	
176	  CG	389.549	97.448	-359.636	C.3	12	GLN12	-0.064	
177	  CD	389.269	98.141	-358.297	C.2	12	GLN12	0.695	
178	 NE2	388.516	97.555	-357.401	N.pl3	12	GLN12	-0.941	
179	 OE1	389.757	99.230	-358.036	O.2	12	GLN12	-0.609	
180	   H	388.023	93.772	-360.602	 H	12	GLN12	0.272	
181	  HA	388.990	96.011	-362.084	 H	12	GLN12	0.085	
182	 2HB	389.241	95.351	-359.077	 H	12	GLN12	0.017	
183	 3HB	387.839	96.103	-359.835	 H	12	GLN12	0.017	
184	 2HG	389.251	98.146	-360.440	 H	12	GLN12	0.035	
185	 3HG	390.652	97.412	-359.701	 H	12	GLN12	0.035	
186	1HE2	388.433	98.053	-356.514	 H	12	GLN12	0.425	
187	2HE2	388.196	96.617	-357.653	 H	12	GLN12	0.425	
188	   N	391.394	94.274	-360.671	N.am	13	ARG13	-0.348	
189	  CA	392.840	94.107	-360.785	C.3	13	ARG13	-0.264	
190	   C	393.244	93.858	-362.219	C.2	13	ARG13	0.734	
191	   O	394.177	94.459	-362.746	O.2	13	ARG13	-0.589	
192	  CB	393.284	92.938	-359.860	C.3	13	ARG13	-0.001	
193	  CG	394.818	92.799	-359.646	C.3	13	ARG13	0.039	
194	  CD	395.170	91.600	-358.750	C.3	13	ARG13	0.049	
195	  NE	396.649	91.530	-358.564	N.pl3	13	ARG13	-0.530	
196	  CZ	397.292	90.610	-357.851	C.cat	13	ARG13	0.808	
197	 NH1	396.694	89.637	-357.223	N.pl3	13	ARG13	-0.863	
198	 NH2	398.583	90.682	-357.774	N.pl3	13	ARG13	-0.863	
199	   H	390.856	93.676	-360.060	 H	13	ARG13	0.275	
200	  HA	393.320	95.050	-360.461	 H	13	ARG13	0.156	
201	 2HB	392.868	91.990	-360.260	 H	13	ARG13	0.033	
202	 3HB	392.798	93.053	-358.870	 H	13	ARG13	0.033	
203	 2HG	395.210	93.740	-359.208	 H	13	ARG13	0.029	
204	 3HG	395.329	92.688	-360.624	 H	13	ARG13	0.029	
205	 2HD	394.784	90.667	-359.217	 H	13	ARG13	0.069	
206	 3HD	394.650	91.702	-357.773	 H	13	ARG13	0.069	
207	  HE	397.269	92.224	-358.996	 H	13	ARG13	0.346	
208	1HH1	395.677	89.637	-357.325	 H	13	ARG13	0.448	
209	2HH1	397.259	88.970	-356.695	 H	13	ARG13	0.448	
210	1HH2	399.034	91.451	-358.274	 H	13	ARG13	0.448	
211	2HH2	399.058	89.967	-357.221	 H	13	ARG13	0.448	
212	   N	392.589	92.989	-362.911	N.am	14	VAL14	-0.416	
213	  CA	392.980	92.748	-364.297	C.3	14	VAL14	-0.087	
214	   C	392.938	94.026	-365.100	C.2	14	VAL14	0.597	
215	   O	393.864	94.362	-365.849	O.2	14	VAL14	-0.568	
216	  CB	392.039	91.651	-364.937	C.3	14	VAL14	0.299	
217	 CG1	392.199	91.410	-366.463	C.3	14	VAL14	-0.319	
218	 CG2	392.174	90.254	-364.287	C.3	14	VAL14	-0.319	
219	   H	391.819	92.482	-362.500	 H	14	VAL14	0.272	
220	  HA	394.025	92.389	-364.316	 H	14	VAL14	0.097	
221	  HB	390.991	91.986	-364.778	 H	14	VAL14	-0.030	
222	1HG1	393.222	91.090	-366.736	 H	14	VAL14	0.079	
223	2HG1	391.501	90.638	-366.842	 H	14	VAL14	0.079	
224	3HG1	391.972	92.314	-367.060	 H	14	VAL14	0.079	
225	1HG2	392.011	90.290	-363.194	 H	14	VAL14	0.079	
226	2HG2	391.425	89.541	-364.683	 H	14	VAL14	0.079	
227	3HG2	393.173	89.807	-364.453	 H	14	VAL14	0.079	
228	   N	391.904	94.792	-365.003	N.am	15	MET15	-0.416	
229	  CA	391.862	96.028	-365.779	C.3	15	MET15	-0.024	
230	   C	393.050	96.905	-365.466	C.2	15	MET15	0.597	
231	   O	393.726	97.437	-366.359	O.2	15	MET15	-0.568	
232	  CB	390.530	96.778	-365.502	C.3	15	MET15	0.034	
233	  CG	389.240	96.037	-365.914	C.3	15	MET15	0.002	
234	  SD	387.831	97.152	-365.797	S.3	15	MET15	-0.274	
235	  CE	386.516	95.934	-365.937	C.3	15	MET15	-0.054	
236	   H	391.135	94.540	-364.399	 H	15	MET15	0.272	
237	  HA	391.921	95.772	-366.853	 H	15	MET15	0.088	
238	 2HB	390.542	97.751	-366.031	 H	15	MET15	0.024	
239	 3HB	390.462	97.041	-364.427	 H	15	MET15	0.024	
240	 2HG	389.075	95.167	-365.250	 H	15	MET15	0.044	
241	 3HG	389.308	95.642	-366.944	 H	15	MET15	0.044	
242	 1HE	386.623	95.341	-366.863	 H	15	MET15	0.068	
243	 2HE	386.538	95.243	-365.076	 H	15	MET15	0.068	
244	 3HE	385.530	96.430	-365.955	 H	15	MET15	0.068	
245	   N	393.371	97.107	-364.233	N.am	16	ARG16	-0.348	
246	  CA	394.520	97.956	-363.931	C.3	16	ARG16	-0.264	
247	   C	395.769	97.431	-364.600	C.2	16	ARG16	0.734	
248	   O	395.755	96.431	-365.314	O.2	16	ARG16	-0.589	
249	  CB	394.694	98.034	-362.388	C.3	16	ARG16	-0.001	
250	  CG	395.695	99.110	-361.881	C.3	16	ARG16	0.039	
251	  CD	395.833	99.096	-360.350	C.3	16	ARG16	0.049	
252	  NE	396.788	100.160	-359.922	N.pl3	16	ARG16	-0.530	
253	  CZ	397.140	100.416	-358.665	C.cat	16	ARG16	0.808	
254	 NH1	396.689	99.751	-357.639	N.pl3	16	ARG16	-0.863	
255	 NH2	397.978	101.381	-358.446	N.pl3	16	ARG16	-0.863	
256	   H	392.836	96.685	-363.488	 H	16	ARG16	0.275	
257	  HA	394.319	98.963	-364.342	 H	16	ARG16	0.156	
258	 2HB	394.989	97.033	-362.011	 H	16	ARG16	0.033	
259	 3HB	393.706	98.222	-361.920	 H	16	ARG16	0.033	
260	 2HG	395.364	100.109	-362.232	 H	16	ARG16	0.029	
261	 3HG	396.692	98.948	-362.340	 H	16	ARG16	0.029	
262	 2HD	396.184	98.093	-360.022	 H	16	ARG16	0.069	
263	 3HD	394.834	99.247	-359.886	 H	16	ARG16	0.069	
264	  HE	397.235	100.775	-360.609	 H	16	ARG16	0.346	
265	1HH1	396.034	99.004	-357.881	 H	16	ARG16	0.448	
266	2HH1	397.008	100.011	-356.704	 H	16	ARG16	0.448	
267	1HH2	398.321	101.890	-359.262	 H	16	ARG16	0.448	
268	2HH2	398.235	101.563	-357.474	 H	16	ARG16	0.448	
@<TRIPOS>BOND
1 1 2 1
2 1 10 1
3 2 3 1
4 2 5 1
5 2 11 1
6 3 4 2
7 3 16 1
8 5 6 1
9 6 7 1
10 7 8 2
11 7 9 1
12 5 12 1
13 5 13 1
14 6 14 1
15 6 15 1
16 16 17 1
17 16 24 1
18 17 18 1
19 17 20 1
20 17 25 1
21 18 19 2
22 18 30 1
23 20 21 1
24 21 22 1
25 21 23 2
26 20 26 1
27 20 27 1
28 22 28 1
29 22 29 1
30 30 31 1
31 30 38 1
32 31 32 1
33 31 34 1
34 31 39 1
35 32 33 2
36 32 47 1
37 34 35 1
38 35 36 1
39 36 37 1
40 34 40 1
41 34 41 1
42 35 42 1
43 35 43 1
44 37 44 1
45 37 45 1
46 37 46 1
47 47 48 1
48 47 56 1
49 48 49 1
50 48 51 1
51 48 57 1
52 49 50 2
53 49 62 1
54 51 52 1
55 52 53 1
56 53 54 2
57 53 55 1
58 51 58 1
59 51 59 1
60 52 60 1
61 52 61 1
62 62 63 1
63 62 68 1
64 63 64 1
65 63 66 1
66 63 69 1
67 64 65 2
68 64 73 1
69 66 67 1
70 66 70 1
71 66 71 1
72 67 72 1
73 73 74 1
74 73 81 1
75 74 75 1
76 74 77 1
77 74 82 1
78 75 76 2
79 75 92 1
80 77 78 1
81 77 79 1
82 78 80 1
83 77 83 1
84 78 84 1
85 78 85 1
86 79 86 1
87 79 87 1
88 79 88 1
89 80 89 1
90 80 90 1
91 80 91 1
92 92 93 1
93 92 100 1
94 93 94 1
95 93 96 1
96 93 101 1
97 94 95 2
98 94 111 1
99 96 97 1
100 97 98 1
101 97 99 1
102 96 102 1
103 96 103 1
104 97 104 1
105 98 105 1
106 98 106 1
107 98 107 1
108 99 108 1
109 99 109 1
110 99 110 1
111 111 112 1
112 111 119 1
113 112 113 1
114 112 115 1
115 112 120 1
116 113 114 2
117 113 123 1
118 115 116 1
119 116 117 2
120 116 118 1
121 115 121 1
122 115 122 1
123 123 124 1
124 123 132 1
125 124 125 1
126 124 127 1
127 124 133 1
128 125 126 2
129 125 138 1
130 127 128 1
131 128 129 1
132 129 130 2
133 129 131 1
134 127 134 1
135 127 135 1
136 128 136 1
137 128 137 1
138 138 139 1
139 138 148 1
140 139 140 1
141 139 142 1
142 139 149 1
143 140 141 2
144 140 155 1
145 142 143 1
146 143 144 2
147 144 147 1
148 143 145 1
149 145 146 2
150 146 147 1
151 142 150 1
152 142 151 1
153 144 152 1
154 146 153 1
155 147 154 1
156 155 156 1
157 155 162 1
158 156 157 1
159 156 159 1
160 156 163 1
161 157 158 2
162 157 171 1
163 159 160 1
164 159 161 1
165 159 164 1
166 160 165 1
167 160 166 1
168 160 167 1
169 161 168 1
170 161 169 1
171 161 170 1
172 171 172 1
173 171 180 1
174 172 173 1
175 172 175 1
176 172 181 1
177 173 174 2
178 173 188 1
179 175 176 1
180 176 177 1
181 177 178 1
182 177 179 2
183 175 182 1
184 175 183 1
185 176 184 1
186 176 185 1
187 178 186 1
188 178 187 1
189 188 189 1
190 188 199 1
191 189 190 1
192 189 192 1
193 189 200 1
194 190 191 2
195 190 212 1
196 192 193 1
197 193 194 1
198 194 195 1
199 195 196 1
200 196 197 2
201 196 198 1
202 192 201 1
203 192 202 1
204 193 203 1
205 193 204 1
206 194 205 1
207 194 206 1
208 195 207 1
209 197 208 1
210 197 209 1
211 198 210 1
212 198 211 1
213 212 213 1
214 212 219 1
215 213 214 1
216 213 216 1
217 213 220 1
218 214 215 2
219 214 228 1
220 216 217 1
221 216 218 1
222 216 221 1
223 217 222 1
224 217 223 1
225 217 224 1
226 218 225 1
227 218 226 1
228 218 227 1
229 228 229 1
230 228 236 1
231 229 230 1
232 229 232 1
233 229 237 1
234 230 231 2
235 230 245 1
236 232 233 1
237 233 234 1
238 234 235 1
239 232 238 1
240 232 239 1
241 233 240 1
242 233 241 1
243 235 242 1
244 235 243 1
245 235 244 1
246 245 246 1
247 245 256 1
248 246 247 1
249 246 249 1
250 246 257 1
251 247 248 2
252 249 250 1
253 250 251 1
254 251 252 1
255 252 253 1
256 253 254 2
257 253 255 1
258 249 258 1
259 249 259 1
260 250 260 1
261 250 261 1
262 251 262 1
263 251 263 1
264 252 264 1
265 254 265 1
266 254 266 1
267 255 267 1
268 255 268 1
@<TRIPOS>SUBSTRUCTURE
1	GLU1	1	RESIDUE	1 ****	GLU
2	ASN2	16	RESIDUE	1 ****	ASN
3	MET3	30	RESIDUE	1 ****	MET
4	GLU4	47	RESIDUE	1 ****	GLU
5	SER5	62	RESIDUE	1 ****	SER
6	ILE6	73	RESIDUE	1 ****	ILE
7	LEU7	92	RESIDUE	1 ****	LEU
8	ASP8	111	RESIDUE	1 ****	ASP
9	GLU9	123	RESIDUE	1 ****	GLU
10	HIS10	138	RESIDUE	1 ****	HIS
11	VAL11	155	RESIDUE	1 ****	VAL
12	GLN12	171	RESIDUE	1 ****	GLN
13	ARG13	188	RESIDUE	1 ****	ARG
14	VAL14	212	RESIDUE	1 ****	VAL
15	MET15	228	RESIDUE	1 ****	MET
16	ARG16	245	RESIDUE	1 ****	ARG
