REMARK WARNING: 32 MAX_TORS EXCEEDED!!!
REMARK  67 active torsions:
REMARK  status: ('A' for Active; 'I' for Inactive)
REMARK    1  A    between atoms: N_1  and  CA_2 
REMARK    2  A    between atoms: CA_2  and  C_3 
REMARK    3  A    between atoms: CA_2  and  CB_5 
REMARK       I    between atoms: C_3  and  N_11 
REMARK    4  A    between atoms: CB_5  and  CG_6 
REMARK    5  A    between atoms: CG_6  and  CD_7 
REMARK    6  A    between atoms: N_11  and  CA_12 
REMARK    7  A    between atoms: CA_12  and  C_13 
REMARK    8  A    between atoms: CA_12  and  CB_15 
REMARK       I    between atoms: C_13  and  N_22 
REMARK    9  A    between atoms: CB_15  and  CG_16 
REMARK       I    between atoms: CG_16  and  ND2_17 
REMARK   10  A    between atoms: CA_23  and  C_24 
REMARK       I    between atoms: C_24  and  N_29 
REMARK   11  A    between atoms: N_29  and  CA_30 
REMARK   12  A    between atoms: CA_30  and  C_31 
REMARK   13  A    between atoms: CA_30  and  CB_33 
REMARK       I    between atoms: C_31  and  N_39 
REMARK   14  A    between atoms: CB_33  and  CG_34 
REMARK   15  A    between atoms: CG_34  and  CD_35 
REMARK   16  A    between atoms: N_39  and  CA_40 
REMARK   17  A    between atoms: CA_40  and  C_41 
REMARK   18  A    between atoms: CA_40  and  CB_43 
REMARK       I    between atoms: C_41  and  N_47 
REMARK   19  A    between atoms: CB_43  and  OG_44 
REMARK   20  A    between atoms: N_47  and  CA_48 
REMARK   21  A    between atoms: CA_48  and  C_49 
REMARK   22  A    between atoms: CA_48  and  CB_51 
REMARK       I    between atoms: C_49  and  N_56 
REMARK   23  A    between atoms: CB_51  and  CG1_52 
REMARK   24  A    between atoms: N_56  and  CA_57 
REMARK   25  A    between atoms: CA_57  and  C_58 
REMARK   26  A    between atoms: CA_57  and  CB_60 
REMARK       I    between atoms: C_58  and  N_65 
REMARK   27  A    between atoms: CB_60  and  CG_61 
REMARK   28  A    between atoms: N_65  and  CA_66 
REMARK   29  A    between atoms: CA_66  and  C_67 
REMARK   30  A    between atoms: CA_66  and  CB_69 
REMARK       I    between atoms: C_67  and  N_74 
REMARK   31  A    between atoms: CB_69  and  CG_70 
REMARK   32  A    between atoms: N_74  and  CA_75 
REMARK   33  A    between atoms: CA_75  and  C_76 
REMARK   34  A    between atoms: CA_75  and  CB_78 
REMARK       I    between atoms: C_76  and  N_85 
REMARK   35  A    between atoms: CB_78  and  CG_79 
REMARK       I    between atoms: CG_79  and  ND2_80 
REMARK   36  A    between atoms: N_85  and  CA_86 
REMARK   37  A    between atoms: CA_86  and  C_87 
REMARK   38  A    between atoms: CA_86  and  CB_89 
REMARK       I    between atoms: C_87  and  N_97 
REMARK   39  A    between atoms: CB_89  and  CG_90 
REMARK   40  A    between atoms: N_97  and  CA_98 
REMARK   41  A    between atoms: CA_98  and  C_99 
REMARK   42  A    between atoms: CA_98  and  CB_101 
REMARK       I    between atoms: C_99  and  N_105 
REMARK   43  A    between atoms: N_105  and  CA_106 
REMARK   44  A    between atoms: CA_106  and  C_107 
REMARK   45  A    between atoms: CA_106  and  CB_109 
REMARK       I    between atoms: C_107  and  N_117 
REMARK   46  A    between atoms: CB_109  and  CG_110 
REMARK   47  A    between atoms: CG_110  and  CD_111 
REMARK       I    between atoms: CD_111  and  NE2_112 
REMARK   48  A    between atoms: N_117  and  CA_118 
REMARK   49  A    between atoms: CA_118  and  C_119 
REMARK   50  A    between atoms: CA_118  and  CB_121 
REMARK       I    between atoms: C_119  and  N_134 
REMARK   51  A    between atoms: CB_121  and  CG_122 
REMARK   52  A    between atoms: CG_122  and  CD_123 
REMARK   53  A    between atoms: CD_123  and  NE_124 
REMARK       I    between atoms: NE_124  and  CZ_125 
REMARK       I    between atoms: CZ_125  and  NH1_126 
REMARK       I    between atoms: CZ_125  and  NH2_127 
REMARK   54  A    between atoms: N_134  and  CA_135 
REMARK   55  A    between atoms: CA_135  and  C_136 
REMARK   56  A    between atoms: CA_135  and  CB_138 
REMARK       I    between atoms: C_136  and  N_142 
REMARK   57  A    between atoms: N_142  and  CA_143 
REMARK   58  A    between atoms: CA_143  and  C_144 
REMARK   59  A    between atoms: CA_143  and  CB_146 
REMARK       I    between atoms: C_144  and  N_151 
REMARK   60  A    between atoms: CB_146  and  CG_147 
REMARK   61  A    between atoms: CG_147  and  SD_148 
REMARK   62  A    between atoms: N_151  and  CA_152 
REMARK   63  A    between atoms: CA_152  and  C_153 
REMARK   64  A    between atoms: CA_152  and  CB_155 
REMARK   65  A    between atoms: CB_155  and  CG_156 
REMARK   66  A    between atoms: CG_156  and  CD_157 
REMARK   67  A    between atoms: CD_157  and  NE_158 
REMARK       I    between atoms: NE_158  and  CZ_159 
REMARK       I    between atoms: CZ_159  and  NH1_160 
ROOT
ATOM      1  C   ASN d   9    1478.112 438.044-1492.403  0.00  0.00     0.241 C 
ATOM      2  O   ASN d   9    1478.771 438.793-1493.123  0.00  0.00    -0.271 OA
ATOM      3  N   HIS d  10    1478.208 436.769-1492.572  0.00  0.00    -0.346 N 
ATOM      4  H   HIS d  10    1477.678 436.134-1491.993  0.00  0.00     0.163 HD
ENDROOT
BRANCH   1   5
ATOM      5  CA  ASN d   9    1477.194 438.573-1491.326  0.00  0.00     0.185 C 
BRANCH   5   6
ATOM      6  N   ASN d   9    1475.892 437.915-1491.381  0.00  0.00    -0.346 N 
ATOM      7  C   ASP d   8    1475.212 437.965-1492.476  0.00  0.00     0.241 C 
ATOM      8  O   ASP d   8    1475.685 438.570-1493.450  0.00  0.00    -0.271 OA
ATOM      9  H   ASN d   9    1475.529 437.428-1490.574  0.00  0.00     0.163 HD
BRANCH   7  10
ATOM     10  CA  ASP d   8    1473.866 437.285-1492.533  0.00  0.00     0.186 C 
BRANCH  10  11
ATOM     11  N   ASP d   8    1473.936 435.935-1491.980  0.00  0.00    -0.346 N 
ATOM     12  C   LEU d   7    1474.773 435.095-1492.487  0.00  0.00     0.241 C 
ATOM     13  O   LEU d   7    1475.494 435.458-1493.429  0.00  0.00    -0.271 OA
ATOM     14  H   ASP d   8    1473.338 435.664-1491.213  0.00  0.00     0.163 HD
BRANCH  12  15
ATOM     15  CA  LEU d   7    1474.846 433.700-1491.915  0.00  0.00     0.177 C 
BRANCH  15  16
ATOM     16  N   LEU d   7    1474.901 433.735-1490.456  0.00  0.00    -0.346 N 
ATOM     17  C   ILE d   6    1475.847 434.399-1489.883  0.00  0.00     0.241 C 
ATOM     18  O   ILE d   6    1476.682 434.987-1490.587  0.00  0.00    -0.271 OA
ATOM     19  H   LEU d   7    1474.209 433.248-1489.905  0.00  0.00     0.163 HD
BRANCH  17  20
ATOM     20  CA  ILE d   6    1475.904 434.436-1488.375  0.00  0.00     0.180 C 
BRANCH  20  21
ATOM     21  N   ILE d   6    1474.591 434.731-1487.808  0.00  0.00    -0.346 N 
ATOM     22  C   SER d   5    1473.986 435.814-1488.162  0.00  0.00     0.243 C 
ATOM     23  O   SER d   5    1474.533 436.568-1488.967  0.00  0.00    -0.271 OA
ATOM     24  H   ILE d   6    1474.163 434.096-1487.149  0.00  0.00     0.163 HD
BRANCH  22  25
ATOM     25  CA  SER d   5    1472.627 436.119-1487.577  0.00  0.00     0.200 C 
BRANCH  25  26
ATOM     26  N   SER d   5    1471.758 434.948-1487.635  0.00  0.00    -0.344 N 
ATOM     27  C   GLU d   4    1471.531 434.395-1488.778  0.00  0.00     0.241 C 
ATOM     28  O   GLU d   4    1472.057 434.875-1489.793  0.00  0.00    -0.271 OA
ATOM     29  H   SER d   5    1471.341 434.576-1486.793  0.00  0.00     0.163 HD
BRANCH  27  30
ATOM     30  CA  GLU d   4    1470.632 433.184-1488.839  0.00  0.00     0.177 C 
BRANCH  30  31
ATOM     31  N   GLU d   4    1470.991 432.213-1487.810  0.00  0.00    -0.346 N 
ATOM     32  C   PRO d   3    1472.196 431.753-1487.777  0.00  0.00     0.241 C 
ATOM     33  O   PRO d   3    1473.019 432.136-1488.609  0.00  0.00    -0.271 OA
ATOM     34  H   GLU d   4    1470.307 431.906-1487.133  0.00  0.00     0.163 HD
BRANCH  32  35
ATOM     35  CA  PRO d   3    1472.594 430.730-1486.701  0.00  0.00     0.179 C 
ATOM     36  N   PRO d   3    1472.143 431.139-1485.379  0.00  0.00    -0.337 N 
ATOM     37  C   ASN d   2    1472.664 432.134-1484.745  0.00  0.00     0.243 C 
ATOM     38  CD  PRO d   3    1471.065 430.346-1484.830  0.00  0.00     0.127 C 
ATOM     39  O   ASN d   2    1473.579 432.764-1485.274  0.00  0.00    -0.271 OA
ATOM     40  CG  PRO d   3    1470.607 429.527-1486.040  0.00  0.00     0.022 C 
ATOM     41  CB  PRO d   3    1471.890 429.375-1486.870  0.00  0.00     0.037 C 
BRANCH  37  42
ATOM     42  CA  ASN d   2    1472.133 432.489-1483.376  0.00  0.00     0.185 C 
BRANCH  42  43
ATOM     43  N   ASN d   2    1470.674 432.528-1483.376  0.00  0.00    -0.346 N 
ATOM     44  C   GLU d   1    1470.069 433.314-1484.201  0.00  0.00     0.242 C 
ATOM     45  O   GLU d   1    1470.745 434.013-1484.970  0.00  0.00    -0.271 OA
ATOM     46  H   ASN d   2    1470.146 431.948-1482.740  0.00  0.00     0.163 HD
BRANCH  44  47
ATOM     47  CA  GLU d   1    1468.560 433.354-1484.201  0.00  0.00     0.191 C 
BRANCH  47  48
ATOM     48  N   GLU d   1    1468.001 432.005-1484.201  0.00  0.00    -0.326 NA
ATOM     49  H   GLU d   1    1468.628 431.126-1484.201  0.00  0.00     0.180 HD
ENDBRANCH  47  48
BRANCH  47  50
ATOM     50  CB  GLU d   1    1468.037 434.139-1482.964  0.00  0.00     0.047 C 
BRANCH  50  51
ATOM     51  CG  GLU d   1    1468.512 435.624-1482.853  0.00  0.00     0.116 C 
BRANCH  51  52
ATOM     52  CD  GLU d   1    1468.088 436.428-1481.638  0.00  0.00     0.172 C 
ATOM     53  OE1 GLU d   1    1467.360 435.926-1480.760  0.00  0.00    -0.648 OA
ATOM     54  OE2 GLU d   1    1468.518 437.598-1481.566  0.00  0.00    -0.648 OA
ENDBRANCH  51  52
ENDBRANCH  50  51
ENDBRANCH  47  50
ENDBRANCH  44  47
ENDBRANCH  42  43
BRANCH  42  55
ATOM     55  CB  ASN d   2    1472.625 431.466-1482.312  0.00  0.00     0.137 C 
BRANCH  55  56
ATOM     56  CG  ASN d   2    1472.162 431.690-1480.869  0.00  0.00     0.217 C 
ATOM     57  ND2 ASN d   2    1472.756 432.605-1480.150  0.00  0.00    -0.370 N 
ATOM     58 21HD ASN d   2    1472.276 432.778-1479.264  0.00  0.00     0.159 HD
ATOM     59 22HD ASN d   2    1473.458 433.177-1480.620  0.00  0.00     0.159 HD
ATOM     60  OD1 ASN d   2    1471.241 431.056-1480.374  0.00  0.00    -0.274 OA
ENDBRANCH  55  56
ENDBRANCH  42  55
ENDBRANCH  37  42
ENDBRANCH  32  35
ENDBRANCH  30  31
BRANCH  30  61
ATOM     61  CB  GLU d   4    1469.143 433.603-1488.669  0.00  0.00     0.045 C 
BRANCH  61  62
ATOM     62  CG  GLU d   4    1468.595 434.606-1489.734  0.00  0.00     0.116 C 
BRANCH  62  63
ATOM     63  CD  GLU d   4    1467.168 435.103-1489.590  0.00  0.00     0.172 C 
ATOM     64  OE1 GLU d   4    1466.442 434.704-1488.659  0.00  0.00    -0.648 OA
ATOM     65  OE2 GLU d   4    1466.778 435.932-1490.439  0.00  0.00    -0.648 OA
ENDBRANCH  62  63
ENDBRANCH  61  62
ENDBRANCH  30  61
ENDBRANCH  27  30
ENDBRANCH  25  26
BRANCH  25  66
ATOM     66  CB  SER d   5    1472.739 436.651-1486.126  0.00  0.00     0.199 C 
BRANCH  66  67
ATOM     67  OG  SER d   5    1473.471 435.772-1485.265  0.00  0.00    -0.398 OA
ATOM     68  HG  SER d   5    1472.982 434.947-1485.214  0.00  0.00     0.209 HD
ENDBRANCH  66  67
ENDBRANCH  25  66
ENDBRANCH  22  25
ENDBRANCH  20  21
BRANCH  20  69
ATOM     69  CB  ILE d   6    1476.504 433.100-1487.775  0.00  0.00     0.013 C 
ATOM     70  CG2 ILE d   6    1477.945 432.799-1488.290  0.00  0.00     0.012 C 
BRANCH  69  71
ATOM     71  CG1 ILE d   6    1476.524 433.038-1486.214  0.00  0.00     0.002 C 
ATOM     72  CD1 ILE d   6    1476.794 431.648-1485.599  0.00  0.00     0.005 C 
ENDBRANCH  69  71
ENDBRANCH  20  69
ENDBRANCH  17  20
ENDBRANCH  15  16
BRANCH  15  73
ATOM     73  CB  LEU d   7    1473.643 432.839-1492.395  0.00  0.00     0.038 C 
BRANCH  73  74
ATOM     74  CG  LEU d   7    1473.570 431.360-1491.929  0.00  0.00    -0.020 C 
ATOM     75  CD1 LEU d   7    1472.380 430.654-1492.594  0.00  0.00     0.009 C 
ATOM     76  CD2 LEU d   7    1474.864 430.581-1492.221  0.00  0.00     0.009 C 
ENDBRANCH  73  74
ENDBRANCH  15  73
ENDBRANCH  12  15
ENDBRANCH  10  11
BRANCH  10  77
ATOM     77  CB  ASP d   8    1472.787 438.124-1491.791  0.00  0.00     0.147 C 
BRANCH  77  78
ATOM     78  CG  ASP d   8    1472.568 439.545-1492.331  0.00  0.00     0.175 C 
ATOM     79  OD1 ASP d   8    1472.632 439.744-1493.562  0.00  0.00    -0.648 OA
ATOM     80  OD2 ASP d   8    1472.376 440.470-1491.516  0.00  0.00    -0.648 OA
ENDBRANCH  77  78
ENDBRANCH  10  77
ENDBRANCH   7  10
ENDBRANCH   5   6
BRANCH   5  81
ATOM     81  CB  ASN d   9    1477.821 438.365-1489.917  0.00  0.00     0.137 C 
BRANCH  81  82
ATOM     82  CG  ASN d   9    1477.002 438.846-1488.715  0.00  0.00     0.217 C 
ATOM     83  ND2 ASN d   9    1476.985 440.121-1488.433  0.00  0.00    -0.370 N 
ATOM     84 21HD ASN d   9    1476.293 440.353-1487.715  0.00  0.00     0.159 HD
ATOM     85 22HD ASN d   9    1477.467 440.744-1489.081  0.00  0.00     0.159 HD
ATOM     86  OD1 ASN d   9    1476.347 438.079-1488.024  0.00  0.00    -0.274 OA
ENDBRANCH  81  82
ENDBRANCH   5  81
ENDBRANCH   1   5
BRANCH   3  87
ATOM     87  CA  HIS d  10    1479.096 436.257-1493.613  0.00  0.00     0.182 C 
BRANCH  87  88
ATOM     88  C   HIS d  10    1478.728 436.822-1494.964  0.00  0.00     0.241 C 
ATOM     89  O   HIS d  10    1479.581 437.286-1495.736  0.00  0.00    -0.271 OA
ATOM     90  N   VAL d  11    1477.490 436.821-1495.326  0.00  0.00    -0.346 N 
ATOM     91  H   VAL d  11    1476.778 436.449-1494.715  0.00  0.00     0.163 HD
BRANCH  90  92
ATOM     92  CA  VAL d  11    1477.135 437.367-1496.633  0.00  0.00     0.180 C 
BRANCH  92  93
ATOM     93  C   VAL d  11    1477.599 438.798-1496.766  0.00  0.00     0.241 C 
ATOM     94  O   VAL d  11    1478.200 439.202-1497.769  0.00  0.00    -0.271 OA
ATOM     95  N   GLN d  12    1477.363 439.624-1495.804  0.00  0.00    -0.346 N 
ATOM     96  H   GLN d  12    1476.874 439.318-1494.974  0.00  0.00     0.163 HD
BRANCH  95  97
ATOM     97  CA  GLN d  12    1477.812 441.007-1495.932  0.00  0.00     0.177 C 
BRANCH  97  98
ATOM     98  C   GLN d  12    1479.301 441.074-1496.170  0.00  0.00     0.241 C 
ATOM     99  O   GLN d  12    1479.788 441.781-1497.049  0.00  0.00    -0.271 OA
ATOM    100  N   ARG d  13    1480.086 440.367-1495.429  0.00  0.00    -0.346 N 
ATOM    101  H   ARG d  13    1479.710 439.777-1494.700  0.00  0.00     0.163 HD
BRANCH 100 102
ATOM    102  CA  ARG d  13    1481.526 440.432-1495.661  0.00  0.00     0.176 C 
BRANCH 102 103
ATOM    103  C   ARG d  13    1481.862 440.060-1497.086  0.00  0.00     0.241 C 
ATOM    104  O   ARG d  13    1482.630 440.731-1497.771  0.00  0.00    -0.271 OA
ATOM    105  N   VAL d  14    1481.325 439.006-1497.599  0.00  0.00    -0.346 N 
ATOM    106  H   VAL d  14    1480.690 438.437-1497.057  0.00  0.00     0.163 HD
BRANCH 105 107
ATOM    107  CA  VAL d  14    1481.649 438.646-1498.977  0.00  0.00     0.180 C 
BRANCH 107 108
ATOM    108  C   VAL d  14    1481.318 439.776-1499.923  0.00  0.00     0.241 C 
ATOM    109  O   VAL d  14    1482.111 440.157-1500.793  0.00  0.00    -0.271 OA
ATOM    110  N   MET d  15    1480.174 440.362-1499.820  0.00  0.00    -0.346 N 
ATOM    111  H   MET d  15    1479.509 440.069-1499.118  0.00  0.00     0.163 HD
BRANCH 110 112
ATOM    112  CA  MET d  15    1479.853 441.454-1500.734  0.00  0.00     0.177 C 
BRANCH 112 113
ATOM    113  C   MET d  15    1480.884 442.554-1500.647  0.00  0.00     0.241 C 
ATOM    114  O   MET d  15    1481.386 443.064-1501.660  0.00  0.00    -0.271 OA
ATOM    115  N   ARG d  16    1481.253 442.975-1499.485  0.00  0.00    -0.347 N 
ATOM    116  H   ARG d  16    1480.859 442.575-1498.646  0.00  0.00     0.163 HD
BRANCH 115 117
ATOM    117  CA  ARG d  16    1482.250 444.039-1499.402  0.00  0.00     0.162 C 
BRANCH 117 118
ATOM    118  C   ARG d  16    1483.520 443.645-1500.119  0.00  0.00     0.219 C 
ATOM    119  O   ARG d  16    1483.633 442.569-1500.701  0.00  0.00    -0.287 OA
ENDBRANCH 117 118
BRANCH 117 120
ATOM    120  CB  ARG d  16    1482.520 444.357-1497.904  0.00  0.00     0.035 C 
BRANCH 120 121
ATOM    121  CG  ARG d  16    1483.346 445.646-1497.632  0.00  0.00     0.023 C 
BRANCH 121 122
ATOM    122  CD  ARG d  16    1483.596 445.865-1496.131  0.00  0.00     0.138 C 
BRANCH 122 123
ATOM    123  NE  ARG d  16    1484.373 447.124-1495.931  0.00  0.00    -0.227 N 
ATOM    124  CZ  ARG d  16    1484.765 447.606-1494.756  0.00  0.00     0.665 C 
ATOM    125  NH1 ARG d  16    1484.518 447.022-1493.617  0.00  0.00    -0.235 N 
ATOM    126  NH2 ARG d  16    1485.429 448.719-1494.738  0.00  0.00    -0.235 N 
ATOM    127 11HH ARG d  16    1483.992 446.150-1493.701  0.00  0.00     0.174 HD
ATOM    128 12HH ARG d  16    1484.853 447.458-1492.756  0.00  0.00     0.174 HD
ATOM    129 21HH ARG d  16    1485.614 449.162-1495.640  0.00  0.00     0.174 HD
ATOM    130 22HH ARG d  16    1485.720 449.074-1493.826  0.00  0.00     0.174 HD
ATOM    131  HE  ARG d  16    1484.651 447.705-1496.729  0.00  0.00     0.177 HD
ENDBRANCH 122 123
ENDBRANCH 121 122
ENDBRANCH 120 121
ENDBRANCH 117 120
ENDBRANCH 115 117
ENDBRANCH 112 113
BRANCH 112 132
ATOM    132  CB  MET d  15    1478.432 442.000-1500.425  0.00  0.00     0.045 C 
BRANCH 132 133
ATOM    133  CG  MET d  15    1477.269 441.003-1500.615  0.00  0.00     0.076 C 
BRANCH 133 134
ATOM    134  SD  MET d  15    1475.696 441.869-1500.500  0.00  0.00    -0.173 SA
ATOM    135  CE  MET d  15    1474.614 440.440-1500.363  0.00  0.00     0.089 C 
ENDBRANCH 133 134
ENDBRANCH 132 133
ENDBRANCH 112 132
ENDBRANCH 110 112
ENDBRANCH 107 108
BRANCH 107 136
ATOM    136  CB  VAL d  14    1480.876 437.329-1499.383  0.00  0.00     0.009 C 
ATOM    137  CG1 VAL d  14    1480.964 436.910-1500.877  0.00  0.00     0.012 C 
ATOM    138  CG2 VAL d  14    1481.308 436.077-1498.583  0.00  0.00     0.012 C 
ENDBRANCH 107 136
ENDBRANCH 105 107
ENDBRANCH 102 103
BRANCH 102 139
ATOM    139  CB  ARG d  13    1482.240 439.494-1494.647  0.00  0.00     0.036 C 
BRANCH 139 140
ATOM    140  CG  ARG d  13    1483.785 439.647-1494.567  0.00  0.00     0.023 C 
BRANCH 140 141
ATOM    141  CD  ARG d  13    1484.413 438.659-1493.569  0.00  0.00     0.138 C 
BRANCH 141 142
ATOM    142  NE  ARG d  13    1485.890 438.866-1493.519  0.00  0.00    -0.227 N 
ATOM    143  CZ  ARG d  13    1486.738 438.175-1492.764  0.00  0.00     0.665 C 
ATOM    144  NH1 ARG d  13    1486.373 437.211-1491.966  0.00  0.00    -0.235 N 
ATOM    145  NH2 ARG d  13    1487.998 438.474-1492.822  0.00  0.00    -0.235 N 
ATOM    146 11HH ARG d  13    1485.368 437.025-1491.969  0.00  0.00     0.174 HD
ATOM    147 12HH ARG d  13    1487.087 436.728-1491.418  0.00  0.00     0.174 HD
ATOM    148 21HH ARG d  13    1488.265 439.231-1493.453  0.00  0.00     0.174 HD
ATOM    149 22HH ARG d  13    1488.633 437.932-1492.233  0.00  0.00     0.174 HD
ATOM    150  HE  ARG d  13    1486.341 439.588-1494.090  0.00  0.00     0.177 HD
ENDBRANCH 141 142
ENDBRANCH 140 141
ENDBRANCH 139 140
ENDBRANCH 102 139
ENDBRANCH 100 102
ENDBRANCH  97  98
BRANCH  97 151
ATOM    151  CB  GLN d  12    1477.422 441.774-1494.649  0.00  0.00     0.044 C 
BRANCH 151 152
ATOM    152  CG  GLN d  12    1477.782 443.296-1494.618  0.00  0.00     0.105 C 
BRANCH 152 153
ATOM    153  CD  GLN d  12    1477.480 444.110-1493.354  0.00  0.00     0.215 C 
ATOM    154  NE2 GLN d  12    1476.913 443.534-1492.324  0.00  0.00    -0.370 N 
ATOM    155 21HE GLN d  12    1476.807 444.129-1491.501  0.00  0.00     0.159 HD
ATOM    156 22HE GLN d  12    1476.750 442.531-1492.428  0.00  0.00     0.159 HD
ATOM    157  OE1 GLN d  12    1477.782 445.291-1493.277  0.00  0.00    -0.274 OA
ENDBRANCH 152 153
ENDBRANCH 151 152
ENDBRANCH  97 151
ENDBRANCH  95  97
ENDBRANCH  92  93
BRANCH  92 158
ATOM    158  CB  VAL d  11    1475.573 437.261-1496.852  0.00  0.00     0.009 C 
ATOM    159  CG1 VAL d  11    1475.004 437.965-1498.114  0.00  0.00     0.012 C 
ATOM    160  CG2 VAL d  11    1475.048 435.807-1496.924  0.00  0.00     0.012 C 
ENDBRANCH  92 158
ENDBRANCH  90  92
ENDBRANCH  87  88
BRANCH  87 161
ATOM    161  CB  HIS d  10    1478.931 434.729-1493.608  0.00  0.00     0.095 C 
BRANCH 161 162
ATOM    162  CG  HIS d  10    1480.217 434.018-1493.300  0.00  0.00     0.053 A 
ATOM    163  CD2 HIS d  10    1480.598 433.683-1492.008  0.00  0.00     0.116 A 
ATOM    164  NE2 HIS d  10    1481.813 433.051-1492.075  0.00  0.00    -0.359 N 
ATOM    165  CE1 HIS d  10    1482.075 433.053-1493.410  0.00  0.00     0.207 A 
ATOM    166  2HE HIS d  10    1482.380 432.674-1491.302  0.00  0.00     0.166 HD
ATOM    167  ND1 HIS d  10    1481.168 433.612-1494.233  0.00  0.00    -0.247 NA
ENDBRANCH 161 162
ENDBRANCH  87 161
ENDBRANCH   3  87
TORSDOF 67
