@<TRIPOS>MOLECULE
2-17
263 264 16              
SMALL
USER_CHARGES
@<TRIPOS>ATOM
1	   N	305.767	65.845	-284.371	N.3	1	GLU1	-0.516	
2	  CA	306.326	67.194	-284.371	C.3	1	GLU1	0.040	
3	   C	307.835	67.154	-284.371	C.2	1	GLU1	0.537	
4	   O	308.511	67.853	-285.140	O.2	1	GLU1	-0.582	
5	  CB	305.803	67.979	-283.134	C.3	1	GLU1	0.056	
6	  CG	306.278	69.464	-283.023	C.3	1	GLU1	0.014	
7	  CD	305.854	70.268	-281.808	C.2	1	GLU1	0.805	
8	 OE1	305.126	69.766	-280.930	O.co2	1	GLU1	-0.819	
9	 OE2	306.284	71.438	-281.736	O.co2	1	GLU1	-0.819	
10	   H	306.394	64.966	-284.371	 H	1	GLU1	0.294	
11	  HA	306.000	67.712	-285.291	 H	1	GLU1	0.111	
12	 2HB	306.092	67.448	-282.204	 H	1	GLU1	-0.017	
13	 3HB	304.696	67.969	-283.121	 H	1	GLU1	-0.017	
14	 2HG	305.968	70.049	-283.904	 H	1	GLU1	-0.043	
15	 3HG	307.378	69.531	-282.994	 H	1	GLU1	-0.043	
16	   N	308.440	66.368	-283.546	N.am	2	ASP2	-0.516	
17	  CA	309.900	66.329	-283.546	C.3	2	ASP2	0.038	
18	   C	310.432	65.974	-284.913	C.2	2	ASP2	0.537	
19	   O	311.355	66.610	-285.444	O.2	2	ASP2	-0.582	
20	  CB	310.419	65.334	-282.471	C.3	2	ASP2	-0.030	
21	  CG	311.946	65.257	-282.324	C.2	2	ASP2	0.799	
22	 OD1	312.621	66.301	-282.443	O.co2	2	ASP2	-0.801	
23	 OD2	312.473	64.141	-282.135	O.co2	2	ASP2	-0.801	
24	   H	307.912	65.788	-282.910	 H	2	ASP2	0.294	
25	  HA	310.273	67.342	-283.301	 H	2	ASP2	0.088	
26	 2HB	310.051	64.315	-282.690	 H	2	ASP2	-0.012	
27	 3HB	310.019	65.589	-281.476	 H	2	ASP2	-0.012	
28	   N	309.912	64.979	-285.548	N.am	3	PRO3	-0.255	
29	  CA	310.365	64.570	-286.869	C.3	3	PRO3	-0.027	
30	   C	309.968	65.593	-287.946	C.2	3	PRO3	0.590	
31	   O	310.793	65.977	-288.776	O.2	3	PRO3	-0.575	
32	  CB	309.662	63.215	-287.039	C.3	3	PRO3	-0.007	
33	  CG	308.378	63.367	-286.211	C.3	3	PRO3	0.019	
34	  CD	308.833	64.185	-285.000	C.3	3	PRO3	0.019	
35	  HA	311.451	64.450	-286.881	 H	3	PRO3	0.064	
36	 2HB	310.284	62.434	-286.598	 H	3	PRO3	0.025	
37	 3HB	309.465	62.966	-288.085	 H	3	PRO3	0.025	
38	 2HG	307.950	62.404	-285.920	 H	3	PRO3	0.021	
39	 3HG	307.640	63.937	-286.779	 H	3	PRO3	0.021	
40	 2HD	309.222	63.536	-284.212	 H	3	PRO3	0.039	
41	 3HD	308.036	64.821	-284.608	 H	3	PRO3	0.039	
42	   N	308.764	66.053	-287.980	N.am	4	GLU4	-0.516	
43	  CA	308.405	67.024	-289.010	C.3	4	GLU4	0.040	
44	   C	309.303	68.235	-288.947	C.2	4	GLU4	0.537	
45	   O	309.831	68.715	-289.961	O.2	4	GLU4	-0.582	
46	  CB	306.916	67.442	-288.842	C.3	4	GLU4	0.056	
47	  CG	306.369	68.445	-289.908	C.3	4	GLU4	0.014	
48	  CD	304.942	68.942	-289.766	C.2	4	GLU4	0.805	
49	 OE1	304.215	68.543	-288.836	O.co2	4	GLU4	-0.819	
50	 OE2	304.553	69.771	-290.615	O.co2	4	GLU4	-0.819	
51	   H	308.079	65.746	-287.304	 H	4	GLU4	0.294	
52	  HA	308.537	66.553	-290.001	 H	4	GLU4	0.111	
53	 2HB	306.762	67.882	-287.835	 H	4	GLU4	-0.017	
54	 3HB	306.269	66.544	-288.849	 H	4	GLU4	-0.017	
55	 2HG	306.452	68.031	-290.926	 H	4	GLU4	-0.043	
56	 3HG	306.957	69.378	-289.918	 H	4	GLU4	-0.043	
57	   N	309.529	68.788	-287.804	N.am	5	SER5	-0.416	
58	  CA	310.398	69.960	-287.744	C.3	5	SER5	-0.025	
59	   C	311.758	69.655	-288.328	C.2	5	SER5	0.597	
60	   O	312.306	70.408	-289.132	O.2	5	SER5	-0.568	
61	  CB	310.507	70.492	-286.293	C.3	5	SER5	0.212	
62	  OG	311.238	69.613	-285.432	O.3	5	SER5	-0.655	
63	   H	309.111	68.416	-286.963	 H	5	SER5	0.272	
64	  HA	309.949	70.750	-288.374	 H	5	SER5	0.084	
65	 2HB	309.507	70.685	-285.862	 H	5	SER5	0.035	
66	 3HB	311.012	71.478	-286.295	 H	5	SER5	0.035	
67	  HG	310.750	68.788	-285.382	 H	5	SER5	0.428	
68	   N	312.362	68.572	-287.973	N.am	6	ILE6	-0.416	
69	  CA	313.677	68.277	-288.538	C.3	6	ILE6	-0.060	
70	   C	313.621	68.240	-290.046	C.2	6	ILE6	0.597	
71	   O	314.457	68.828	-290.748	O.2	6	ILE6	-0.568	
72	  CB	314.276	66.941	-287.937	C.3	6	ILE6	0.130	
73	 CG1	314.293	66.879	-286.376	C.3	6	ILE6	-0.043	
74	 CG2	315.718	66.640	-288.450	C.3	6	ILE6	-0.320	
75	 CD1	314.563	65.490	-285.761	C.3	6	ILE6	-0.066	
76	   H	311.934	67.937	-287.315	 H	6	ILE6	0.272	
77	  HA	314.350	69.112	-288.269	 H	6	ILE6	0.087	
78	  HB	313.619	66.115	-288.282	 H	6	ILE6	0.019	
79	2HG1	313.311	67.199	-285.981	 H	6	ILE6	0.024	
80	3HG1	315.008	67.622	-285.970	 H	6	ILE6	0.024	
81	1HG2	315.778	66.547	-289.549	 H	6	ILE6	0.088	
82	2HG2	316.440	67.423	-288.147	 H	6	ILE6	0.088	
83	3HG2	316.108	65.678	-288.071	 H	6	ILE6	0.088	
84	1HD1	313.836	64.736	-286.116	 H	6	ILE6	0.019	
85	2HD1	315.574	65.112	-285.995	 H	6	ILE6	0.019	
86	3HD1	314.485	65.520	-284.658	 H	6	ILE6	0.019	
87	   N	312.677	67.576	-290.621	N.am	7	LEU7	-0.416	
88	  CA	312.624	67.540	-292.079	C.3	7	LEU7	-0.052	
89	   C	312.551	68.935	-292.652	C.2	7	LEU7	0.597	
90	   O	313.273	69.298	-293.592	O.2	7	LEU7	-0.568	
91	  CB	311.422	66.679	-292.561	C.3	7	LEU7	-0.110	
92	  CG	311.349	65.200	-292.095	C.3	7	LEU7	0.353	
93	 CD1	310.160	64.493	-292.762	C.3	7	LEU7	-0.412	
94	 CD2	312.643	64.421	-292.385	C.3	7	LEU7	-0.412	
95	   H	311.984	67.088	-290.070	 H	7	LEU7	0.272	
96	  HA	313.566	67.100	-292.452	 H	7	LEU7	0.092	
97	 2HB	311.400	66.695	-293.669	 H	7	LEU7	0.046	
98	 3HB	310.481	67.181	-292.258	 H	7	LEU7	0.046	
99	  HG	311.178	65.192	-290.998	 H	7	LEU7	-0.036	
100	1HD1	309.203	65.002	-292.541	 H	7	LEU7	0.100	
101	2HD1	310.261	64.453	-293.863	 H	7	LEU7	0.100	
102	3HD1	310.053	63.452	-292.406	 H	7	LEU7	0.100	
103	1HD2	312.920	64.452	-293.454	 H	7	LEU7	0.100	
104	2HD2	313.496	64.833	-291.812	 H	7	LEU7	0.100	
105	3HD2	312.562	63.359	-292.089	 H	7	LEU7	0.100	
106	   N	311.713	69.775	-292.146	N.am	8	ASP8	-0.516	
107	  CA	311.643	71.125	-292.700	C.3	8	ASP8	0.038	
108	   C	312.989	71.805	-292.640	C.2	8	ASP8	0.537	
109	   O	313.463	72.411	-293.614	O.2	8	ASP8	-0.582	
110	  CB	310.563	71.963	-291.959	C.3	8	ASP8	-0.030	
111	  CG	310.344	73.384	-292.500	C.2	8	ASP8	0.799	
112	 OD1	310.410	73.583	-293.730	O.co2	8	ASP8	-0.801	
113	 OD2	310.151	74.310	-291.684	O.co2	8	ASP8	-0.801	
114	   H	311.114	69.504	-291.380	 H	8	ASP8	0.294	
115	  HA	311.361	71.047	-293.767	 H	8	ASP8	0.088	
116	 2HB	310.819	72.047	-290.887	 H	8	ASP8	-0.012	
117	 3HB	309.585	71.458	-291.993	 H	8	ASP8	-0.012	
118	   N	313.667	71.756	-291.544	N.am	9	GLU9	-0.516	
119	  CA	314.970	72.414	-291.487	C.3	9	GLU9	0.040	
120	   C	315.889	71.887	-292.562	C.2	9	GLU9	0.537	
121	   O	316.554	72.642	-293.286	O.2	9	GLU9	-0.582	
122	  CB	315.601	72.206	-290.081	C.3	9	GLU9	0.056	
123	  CG	316.983	72.899	-289.849	C.3	9	GLU9	0.014	
124	  CD	317.683	72.686	-288.520	C.2	9	GLU9	0.805	
125	 OE1	317.161	71.995	-287.625	O.co2	9	GLU9	-0.819	
126	 OE2	318.802	73.225	-288.387	O.co2	9	GLU9	-0.819	
127	   H	313.303	71.269	-290.738	 H	9	GLU9	0.294	
128	  HA	314.827	73.496	-291.662	 H	9	GLU9	0.111	
129	 2HB	315.715	71.122	-289.878	 H	9	GLU9	-0.017	
130	 3HB	314.903	72.559	-289.297	 H	9	GLU9	-0.017	
131	 2HG	316.911	73.990	-289.989	 H	9	GLU9	-0.043	
132	 3HG	317.731	72.555	-290.582	 H	9	GLU9	-0.043	
133	   N	315.987	70.612	-292.731	N.am	10	HIS10	-0.416	
134	  CA	316.877	70.101	-293.771	C.3	10	HIS10	-0.058	
135	   C	316.511	70.666	-295.122	C.2	10	HIS10	0.597	
136	   O	317.365	71.132	-295.892	O.2	10	HIS10	-0.568	
137	  CB	316.713	68.572	-293.766	C.3	10	HIS10	-0.007	
138	  CG	317.999	67.863	-293.457	C.2	10	HIS10	0.187	
139	 CD2	318.378	67.527	-292.164	C.2	10	HIS10	-0.221	
140	 ND1	318.953	67.458	-294.388	N.2	10	HIS10	-0.543	
141	 CE1	319.858	66.900	-293.563	C.2	10	HIS10	0.163	
142	 NE2	319.594	66.896	-292.229	N.pl3	10	HIS10	-0.280	
143	   H	315.456	69.976	-292.154	 H	10	HIS10	0.272	
144	  HA	317.895	70.459	-293.544	 H	10	HIS10	0.136	
145	 2HB	316.350	68.205	-294.747	 H	10	HIS10	0.037	
146	 3HB	315.957	68.235	-293.028	 H	10	HIS10	0.037	
147	 2HD	317.791	67.742	-291.275	 H	10	HIS10	0.186	
148	 1HE	320.750	66.479	-294.009	 H	10	HIS10	0.144	
149	 2HE	320.159	66.519	-291.455	 H	10	HIS10	0.334	
150	   N	315.274	70.665	-295.487	N.am	11	VAL11	-0.416	
151	  CA	314.921	71.211	-296.794	C.3	11	VAL11	-0.087	
152	   C	315.385	72.642	-296.925	C.2	11	VAL11	0.597	
153	   O	315.987	73.048	-297.927	O.2	11	VAL11	-0.568	
154	  CB	313.360	71.103	-297.016	C.3	11	VAL11	0.299	
155	 CG1	312.793	71.808	-298.279	C.3	11	VAL11	-0.319	
156	 CG2	312.836	69.649	-297.090	C.3	11	VAL11	-0.319	
157	   H	314.560	70.291	-294.877	 H	11	VAL11	0.272	
158	  HA	315.442	70.629	-297.576	 H	11	VAL11	0.097	
159	  HB	312.871	71.583	-296.141	 H	11	VAL11	-0.030	
160	1HG1	313.233	71.416	-299.216	 H	11	VAL11	0.079	
161	2HG1	311.694	71.700	-298.363	 H	11	VAL11	0.079	
162	3HG1	312.970	72.900	-298.269	 H	11	VAL11	0.079	
163	1HG2	313.125	69.062	-296.199	 H	11	VAL11	0.079	
164	2HG2	311.730	69.612	-297.134	 H	11	VAL11	0.079	
165	3HG2	313.220	69.109	-297.976	 H	11	VAL11	0.079	
166	   N	315.146	73.467	-295.963	N.am	12	GLN12	-0.416	
167	  CA	315.593	74.850	-296.089	C.3	12	GLN12	-0.003	
168	   C	317.084	74.919	-296.325	C.2	12	GLN12	0.597	
169	   O	317.572	75.627	-297.202	O.2	12	GLN12	-0.568	
170	  CB	315.200	75.617	-294.807	C.3	12	GLN12	-0.004	
171	  CG	315.560	77.139	-294.775	C.3	12	GLN12	-0.064	
172	  CD	315.255	77.952	-293.510	C.2	12	GLN12	0.695	
173	 NE2	314.686	77.375	-292.482	N.pl3	12	GLN12	-0.941	
174	 OE1	315.556	79.133	-293.432	O.2	12	GLN12	-0.609	
175	   H	314.656	73.160	-295.135	 H	12	GLN12	0.272	
176	  HA	315.095	75.307	-296.965	 H	12	GLN12	0.085	
177	 2HB	315.675	75.117	-293.937	 H	12	GLN12	0.017	
178	 3HB	314.110	75.509	-294.645	 H	12	GLN12	0.017	
179	 2HG	315.083	77.660	-295.626	 H	12	GLN12	0.035	
180	 3HG	316.643	77.282	-294.939	 H	12	GLN12	0.035	
181	1HE2	314.578	77.969	-291.659	 H	12	GLN12	0.425	
182	2HE2	314.524	76.371	-292.586	 H	12	GLN12	0.425	
183	   N	317.868	74.212	-295.583	N.am	13	ARG13	-0.348	
184	  CA	319.308	74.279	-295.811	C.3	13	ARG13	-0.264	
185	   C	319.647	73.908	-297.236	C.2	13	ARG13	0.734	
186	   O	320.416	74.580	-297.919	O.2	13	ARG13	-0.589	
187	  CB	320.021	73.340	-294.797	C.3	13	ARG13	-0.001	
188	  CG	321.565	73.494	-294.713	C.3	13	ARG13	0.039	
189	  CD	322.191	72.506	-293.715	C.3	13	ARG13	0.049	
190	  NE	323.668	72.714	-293.662	N.pl3	13	ARG13	-0.530	
191	  CZ	324.516	72.023	-292.906	C.cat	13	ARG13	0.808	
192	 NH1	324.150	71.058	-292.110	N.pl3	13	ARG13	-0.863	
193	 NH2	325.775	72.323	-292.961	N.pl3	13	ARG13	-0.863	
194	   H	317.491	73.622	-294.855	 H	13	ARG13	0.275	
195	  HA	319.632	75.325	-295.652	 H	13	ARG13	0.156	
196	 2HB	319.755	72.289	-295.037	 H	13	ARG13	0.033	
197	 3HB	319.594	73.506	-293.787	 H	13	ARG13	0.033	
198	 2HG	321.812	74.539	-294.433	 H	13	ARG13	0.029	
199	 3HG	322.017	73.338	-295.714	 H	13	ARG13	0.029	
200	 2HD	321.948	71.466	-294.025	 H	13	ARG13	0.069	
201	 3HD	321.733	72.651	-292.713	 H	13	ARG13	0.069	
202	  HE	324.120	73.437	-294.232	 H	13	ARG13	0.346	
203	1HH1	323.145	70.871	-292.114	 H	13	ARG13	0.448	
204	2HH1	324.862	70.575	-291.560	 H	13	ARG13	0.448	
205	1HH2	326.043	73.081	-293.591	 H	13	ARG13	0.448	
206	2HH2	326.410	71.781	-292.371	 H	13	ARG13	0.448	
207	   N	319.112	72.853	-297.752	N.am	14	VAL14	-0.416	
208	  CA	319.439	72.495	-299.129	C.3	14	VAL14	-0.087	
209	   C	319.110	73.625	-300.074	C.2	14	VAL14	0.597	
210	   O	319.904	74.007	-300.943	O.2	14	VAL14	-0.568	
211	  CB	318.668	71.177	-299.537	C.3	14	VAL14	0.299	
212	 CG1	318.760	70.760	-301.031	C.3	14	VAL14	-0.319	
213	 CG2	319.100	69.925	-298.737	C.3	14	VAL14	-0.319	
214	   H	318.477	72.284	-297.211	 H	14	VAL14	0.272	
215	  HA	320.528	72.319	-299.202	 H	14	VAL14	0.097	
216	  HB	317.591	71.348	-299.323	 H	14	VAL14	-0.030	
217	1HG1	319.802	70.583	-301.358	 H	14	VAL14	0.079	
218	2HG1	318.188	69.836	-301.245	 H	14	VAL14	0.079	
219	3HG1	318.331	71.522	-301.709	 H	14	VAL14	0.079	
220	1HG2	319.011	70.083	-297.646	 H	14	VAL14	0.079	
221	2HG2	318.465	69.048	-298.970	 H	14	VAL14	0.079	
222	3HG2	320.148	69.636	-298.941	 H	14	VAL14	0.079	
223	   N	317.965	74.210	-299.974	N.am	15	MET15	-0.416	
224	  CA	317.645	75.303	-300.888	C.3	15	MET15	-0.024	
225	   C	318.674	76.403	-300.798	C.2	15	MET15	0.597	
226	   O	319.178	76.915	-301.810	O.2	15	MET15	-0.568	
227	  CB	316.223	75.848	-300.581	C.3	15	MET15	0.034	
228	  CG	315.062	74.849	-300.775	C.3	15	MET15	0.002	
229	  SD	313.487	75.714	-300.662	S.3	15	MET15	-0.274	
230	  CE	312.406	74.284	-300.528	C.3	15	MET15	-0.054	
231	   H	317.299	73.917	-299.274	 H	15	MET15	0.272	
232	  HA	317.673	74.916	-301.924	 H	15	MET15	0.088	
233	 2HB	316.021	76.726	-301.223	 H	15	MET15	0.024	
234	 3HB	316.186	76.240	-299.545	 H	15	MET15	0.024	
235	 2HG	315.104	74.063	-299.997	 H	15	MET15	0.044	
236	 3HG	315.126	74.334	-301.751	 H	15	MET15	0.044	
237	 1HE	312.552	73.596	-301.380	 H	15	MET15	0.068	
238	 2HE	312.615	73.731	-299.595	 H	15	MET15	0.068	
239	 3HE	311.349	74.598	-300.513	 H	15	MET15	0.068	
240	   N	319.041	76.824	-299.635	N.am	16	ARG16	-0.348	
241	  CA	320.037	77.889	-299.550	C.3	16	ARG16	-0.264	
242	   C	321.309	77.497	-300.265	C.2	16	ARG16	0.734	
243	   O	321.424	76.421	-300.846	O.2	16	ARG16	-0.589	
244	  CB	320.304	78.206	-298.051	C.3	16	ARG16	-0.001	
245	  CG	321.128	79.495	-297.777	C.3	16	ARG16	0.039	
246	  CD	321.375	79.714	-296.275	C.3	16	ARG16	0.049	
247	  NE	322.150	80.974	-296.072	N.pl3	16	ARG16	-0.530	
248	  CZ	322.540	81.456	-294.896	C.cat	16	ARG16	0.808	
249	 NH1	322.291	80.871	-293.758	N.pl3	16	ARG16	-0.863	
250	 NH2	323.203	82.569	-294.876	N.pl3	16	ARG16	-0.863	
251	   H	318.646	76.424	-298.797	 H	16	ARG16	0.275	
252	  HA	319.628	78.781	-300.060	 H	16	ARG16	0.156	
253	 2HB	320.801	77.330	-297.584	 H	16	ARG16	0.033	
254	 3HB	319.334	78.286	-297.519	 H	16	ARG16	0.033	
255	 2HG	320.598	80.366	-298.214	 H	16	ARG16	0.029	
256	 3HG	322.102	79.443	-298.304	 H	16	ARG16	0.029	
257	 2HD	321.924	78.840	-295.861	 H	16	ARG16	0.069	
258	 3HD	320.402	79.756	-295.741	 H	16	ARG16	0.069	
259	  HE	322.430	81.555	-296.869	 H	16	ARG16	0.346	
260	1HH1	321.766	79.998	-293.844	 H	16	ARG16	0.448	
261	2HH1	322.624	81.306	-292.896	 H	16	ARG16	0.448	
262	1HH2	323.390	83.012	-295.778	 H	16	ARG16	0.448	
263	2HH2	323.492	82.924	-293.963	 H	16	ARG16	0.448	
@<TRIPOS>BOND
1 1 2 1
2 1 10 1
3 2 3 1
4 2 5 1
5 2 11 1
6 3 4 2
7 3 16 1
8 5 6 1
9 6 7 1
10 7 8 2
11 7 9 1
12 5 12 1
13 5 13 1
14 6 14 1
15 6 15 1
16 16 17 1
17 16 24 1
18 17 18 1
19 17 20 1
20 17 25 1
21 18 19 2
22 18 28 1
23 20 21 1
24 21 22 2
25 21 23 1
26 20 26 1
27 20 27 1
28 28 29 1
29 28 34 1
30 29 30 1
31 29 32 1
32 29 35 1
33 30 31 2
34 30 42 1
35 32 33 1
36 33 34 1
37 32 36 1
38 32 37 1
39 33 38 1
40 33 39 1
41 34 40 1
42 34 41 1
43 42 43 1
44 42 51 1
45 43 44 1
46 43 46 1
47 43 52 1
48 44 45 2
49 44 57 1
50 46 47 1
51 47 48 1
52 48 49 2
53 48 50 1
54 46 53 1
55 46 54 1
56 47 55 1
57 47 56 1
58 57 58 1
59 57 63 1
60 58 59 1
61 58 61 1
62 58 64 1
63 59 60 2
64 59 68 1
65 61 62 1
66 61 65 1
67 61 66 1
68 62 67 1
69 68 69 1
70 68 76 1
71 69 70 1
72 69 72 1
73 69 77 1
74 70 71 2
75 70 87 1
76 72 73 1
77 72 74 1
78 73 75 1
79 72 78 1
80 73 79 1
81 73 80 1
82 74 81 1
83 74 82 1
84 74 83 1
85 75 84 1
86 75 85 1
87 75 86 1
88 87 88 1
89 87 95 1
90 88 89 1
91 88 91 1
92 88 96 1
93 89 90 2
94 89 106 1
95 91 92 1
96 92 93 1
97 92 94 1
98 91 97 1
99 91 98 1
100 92 99 1
101 93 100 1
102 93 101 1
103 93 102 1
104 94 103 1
105 94 104 1
106 94 105 1
107 106 107 1
108 106 114 1
109 107 108 1
110 107 110 1
111 107 115 1
112 108 109 2
113 108 118 1
114 110 111 1
115 111 112 2
116 111 113 1
117 110 116 1
118 110 117 1
119 118 119 1
120 118 127 1
121 119 120 1
122 119 122 1
123 119 128 1
124 120 121 2
125 120 133 1
126 122 123 1
127 123 124 1
128 124 125 2
129 124 126 1
130 122 129 1
131 122 130 1
132 123 131 1
133 123 132 1
134 133 134 1
135 133 143 1
136 134 135 1
137 134 137 1
138 134 144 1
139 135 136 2
140 135 150 1
141 137 138 1
142 138 139 2
143 139 142 1
144 138 140 1
145 140 141 2
146 141 142 1
147 137 145 1
148 137 146 1
149 139 147 1
150 141 148 1
151 142 149 1
152 150 151 1
153 150 157 1
154 151 152 1
155 151 154 1
156 151 158 1
157 152 153 2
158 152 166 1
159 154 155 1
160 154 156 1
161 154 159 1
162 155 160 1
163 155 161 1
164 155 162 1
165 156 163 1
166 156 164 1
167 156 165 1
168 166 167 1
169 166 175 1
170 167 168 1
171 167 170 1
172 167 176 1
173 168 169 2
174 168 183 1
175 170 171 1
176 171 172 1
177 172 173 1
178 172 174 2
179 170 177 1
180 170 178 1
181 171 179 1
182 171 180 1
183 173 181 1
184 173 182 1
185 183 184 1
186 183 194 1
187 184 185 1
188 184 187 1
189 184 195 1
190 185 186 2
191 185 207 1
192 187 188 1
193 188 189 1
194 189 190 1
195 190 191 1
196 191 192 2
197 191 193 1
198 187 196 1
199 187 197 1
200 188 198 1
201 188 199 1
202 189 200 1
203 189 201 1
204 190 202 1
205 192 203 1
206 192 204 1
207 193 205 1
208 193 206 1
209 207 208 1
210 207 214 1
211 208 209 1
212 208 211 1
213 208 215 1
214 209 210 2
215 209 223 1
216 211 212 1
217 211 213 1
218 211 216 1
219 212 217 1
220 212 218 1
221 212 219 1
222 213 220 1
223 213 221 1
224 213 222 1
225 223 224 1
226 223 231 1
227 224 225 1
228 224 227 1
229 224 232 1
230 225 226 2
231 225 240 1
232 227 228 1
233 228 229 1
234 229 230 1
235 227 233 1
236 227 234 1
237 228 235 1
238 228 236 1
239 230 237 1
240 230 238 1
241 230 239 1
242 240 241 1
243 240 251 1
244 241 242 1
245 241 244 1
246 241 252 1
247 242 243 2
248 244 245 1
249 245 246 1
250 246 247 1
251 247 248 1
252 248 249 2
253 248 250 1
254 244 253 1
255 244 254 1
256 245 255 1
257 245 256 1
258 246 257 1
259 246 258 1
260 247 259 1
261 249 260 1
262 249 261 1
263 250 262 1
264 250 263 1
@<TRIPOS>SUBSTRUCTURE
1	GLU1	1	RESIDUE	1 ****	GLU
2	ASP2	16	RESIDUE	1 ****	ASP
3	PRO3	28	RESIDUE	1 ****	PRO
4	GLU4	42	RESIDUE	1 ****	GLU
5	SER5	57	RESIDUE	1 ****	SER
6	ILE6	68	RESIDUE	1 ****	ILE
7	LEU7	87	RESIDUE	1 ****	LEU
8	ASP8	106	RESIDUE	1 ****	ASP
9	GLU9	118	RESIDUE	1 ****	GLU
10	HIS10	133	RESIDUE	1 ****	HIS
11	VAL11	150	RESIDUE	1 ****	VAL
12	GLN12	166	RESIDUE	1 ****	GLN
13	ARG13	183	RESIDUE	1 ****	ARG
14	VAL14	207	RESIDUE	1 ****	VAL
15	MET15	223	RESIDUE	1 ****	MET
16	ARG16	240	RESIDUE	1 ****	ARG
