@<TRIPOS>MOLECULE
7-17
258 259 16              
SMALL
USER_CHARGES
@<TRIPOS>ATOM
1	   N	1157.135	329.467	-1147.210	N.3	1	GLU1	-0.516	
2	  CA	1157.694	330.816	-1147.210	C.3	1	GLU1	0.040	
3	   C	1159.203	330.776	-1147.210	C.2	1	GLU1	0.537	
4	   O	1159.879	331.475	-1147.979	O.2	1	GLU1	-0.582	
5	  CB	1157.171	331.601	-1145.973	C.3	1	GLU1	0.056	
6	  CG	1157.646	333.086	-1145.862	C.3	1	GLU1	0.014	
7	  CD	1157.222	333.890	-1144.647	C.2	1	GLU1	0.805	
8	 OE1	1156.494	333.388	-1143.769	O.co2	1	GLU1	-0.819	
9	 OE2	1157.652	335.060	-1144.575	O.co2	1	GLU1	-0.819	
10	   H	1157.762	328.588	-1147.210	 H	1	GLU1	0.294	
11	  HA	1157.368	331.334	-1148.130	 H	1	GLU1	0.111	
12	 2HB	1157.460	331.070	-1145.043	 H	1	GLU1	-0.017	
13	 3HB	1156.064	331.591	-1145.960	 H	1	GLU1	-0.017	
14	 2HG	1157.336	333.671	-1146.743	 H	1	GLU1	-0.043	
15	 3HG	1158.746	333.153	-1145.833	 H	1	GLU1	-0.043	
16	   N	1159.807	329.990	-1146.385	N.am	2	ASN2	-0.416	
17	  CA	1161.267	329.951	-1146.385	C.3	2	ASN2	0.014	
18	   C	1161.798	329.596	-1147.754	C.2	2	ASN2	0.597	
19	   O	1162.712	330.226	-1148.282	O.2	2	ASN2	-0.568	
20	  CB	1161.759	328.928	-1145.321	C.3	2	ASN2	-0.204	
21	  CG	1161.296	329.152	-1143.877	C.2	2	ASN2	0.713	
22	 ND2	1161.890	330.067	-1143.159	N.pl3	2	ASN2	-0.919	
23	 OD1	1160.375	328.518	-1143.383	O.2	2	ASN2	-0.593	
24	   H	1159.279	329.410	-1145.749	 H	2	ASN2	0.272	
25	  HA	1161.644	330.961	-1146.140	 H	2	ASN2	0.105	
26	 2HB	1162.863	328.869	-1145.324	 H	2	ASN2	0.080	
27	 3HB	1161.430	327.910	-1145.606	 H	2	ASN2	0.080	
28	1HD2	1161.409	330.240	-1142.273	 H	2	ASN2	0.420	
29	2HD2	1162.591	330.639	-1143.629	 H	2	ASN2	0.420	
30	   N	1161.276	328.601	-1148.388	N.am	3	PRO3	-0.255	
31	  CA	1161.728	328.191	-1149.709	C.3	3	PRO3	-0.027	
32	   C	1161.330	329.215	-1150.786	C.2	3	PRO3	0.590	
33	   O	1162.153	329.598	-1151.618	O.2	3	PRO3	-0.575	
34	  CB	1161.024	326.837	-1149.879	C.3	3	PRO3	-0.007	
35	  CG	1159.741	326.989	-1149.048	C.3	3	PRO3	0.019	
36	  CD	1160.198	327.807	-1147.839	C.3	3	PRO3	0.019	
37	  HA	1162.814	328.071	-1149.723	 H	3	PRO3	0.064	
38	 2HB	1161.647	326.055	-1149.438	 H	3	PRO3	0.025	
39	 3HB	1160.826	326.588	-1150.924	 H	3	PRO3	0.025	
40	 2HG	1159.313	326.026	-1148.757	 H	3	PRO3	0.021	
41	 3HG	1159.003	327.560	-1149.616	 H	3	PRO3	0.021	
42	 2HD	1160.588	327.158	-1147.051	 H	3	PRO3	0.039	
43	 3HD	1159.402	328.443	-1147.446	 H	3	PRO3	0.039	
44	   N	1160.125	329.675	-1150.818	N.am	4	GLU4	-0.516	
45	  CA	1159.765	330.646	-1151.848	C.3	4	GLU4	0.040	
46	   C	1160.664	331.857	-1151.787	C.2	4	GLU4	0.537	
47	   O	1161.190	332.337	-1152.801	O.2	4	GLU4	-0.582	
48	  CB	1158.277	331.064	-1151.677	C.3	4	GLU4	0.056	
49	  CG	1157.728	332.068	-1152.743	C.3	4	GLU4	0.014	
50	  CD	1156.302	332.565	-1152.599	C.2	4	GLU4	0.805	
51	 OE1	1155.576	332.166	-1151.668	O.co2	4	GLU4	-0.819	
52	 OE2	1155.912	333.394	-1153.447	O.co2	4	GLU4	-0.819	
53	   H	1159.441	329.368	-1150.142	 H	4	GLU4	0.294	
54	  HA	1159.896	330.175	-1152.839	 H	4	GLU4	0.111	
55	 2HB	1158.124	331.504	-1150.671	 H	4	GLU4	-0.017	
56	 3HB	1157.629	330.167	-1151.684	 H	4	GLU4	-0.017	
57	 2HG	1157.810	331.653	-1153.761	 H	4	GLU4	-0.043	
58	 3HG	1158.316	333.000	-1152.754	 H	4	GLU4	-0.043	
59	   N	1160.892	332.410	-1150.644	N.am	5	SER5	-0.416	
60	  CA	1161.761	333.581	-1150.585	C.3	5	SER5	-0.025	
61	   C	1163.120	333.276	-1151.171	C.2	5	SER5	0.597	
62	   O	1163.667	334.029	-1151.976	O.2	5	SER5	-0.568	
63	  CB	1161.873	334.113	-1149.135	C.3	5	SER5	0.212	
64	  OG	1162.605	333.234	-1148.274	O.3	5	SER5	-0.655	
65	   H	1160.475	332.038	-1149.802	 H	5	SER5	0.272	
66	  HA	1161.312	334.371	-1151.214	 H	5	SER5	0.084	
67	 2HB	1160.873	334.307	-1148.701	 H	5	SER5	0.035	
68	 3HB	1162.378	335.099	-1149.137	 H	5	SER5	0.035	
69	  HG	1162.116	332.409	-1148.223	 H	5	SER5	0.428	
70	   N	1163.725	332.193	-1150.817	N.am	6	ILE6	-0.416	
71	  CA	1165.038	331.898	-1151.384	C.3	6	ILE6	-0.060	
72	   C	1164.980	331.861	-1152.891	C.2	6	ILE6	0.597	
73	   O	1165.815	332.448	-1153.595	O.2	6	ILE6	-0.568	
74	  CB	1165.637	330.562	-1150.784	C.3	6	ILE6	0.130	
75	 CG1	1165.657	330.499	-1149.223	C.3	6	ILE6	-0.043	
76	 CG2	1167.079	330.260	-1151.299	C.3	6	ILE6	-0.320	
77	 CD1	1165.927	329.110	-1148.608	C.3	6	ILE6	-0.066	
78	   H	1163.296	331.558	-1150.158	 H	6	ILE6	0.272	
79	  HA	1165.712	332.732	-1151.116	 H	6	ILE6	0.087	
80	  HB	1164.980	329.736	-1151.128	 H	6	ILE6	0.019	
81	2HG1	1164.675	330.819	-1148.827	 H	6	ILE6	0.024	
82	3HG1	1166.373	331.241	-1148.818	 H	6	ILE6	0.024	
83	1HG2	1167.138	330.167	-1152.398	 H	6	ILE6	0.088	
84	2HG2	1167.801	331.043	-1150.997	 H	6	ILE6	0.088	
85	3HG2	1167.469	329.298	-1150.921	 H	6	ILE6	0.088	
86	1HD1	1165.199	328.356	-1148.963	 H	6	ILE6	0.019	
87	2HD1	1166.938	328.732	-1148.844	 H	6	ILE6	0.019	
88	3HD1	1165.851	329.140	-1147.505	 H	6	ILE6	0.019	
89	   N	1164.034	331.197	-1153.465	N.am	7	ASP7	-0.516	
90	  CA	1163.979	331.161	-1154.924	C.3	7	ASP7	0.038	
91	   C	1163.906	332.555	-1155.498	C.2	7	ASP7	0.537	
92	   O	1164.627	332.916	-1156.441	O.2	7	ASP7	-0.582	
93	  CB	1162.778	330.299	-1155.404	C.3	7	ASP7	-0.030	
94	  CG	1162.655	330.125	-1156.925	C.2	7	ASP7	0.799	
95	 OD1	1163.692	330.006	-1157.609	O.co2	7	ASP7	-0.801	
96	 OD2	1161.517	330.154	-1157.438	O.co2	7	ASP7	-0.801	
97	   H	1163.343	330.710	-1152.913	 H	7	ASP7	0.294	
98	  HA	1164.915	330.702	-1155.294	 H	7	ASP7	0.088	
99	 2HB	1161.830	330.734	-1155.036	 H	7	ASP7	-0.012	
100	 3HB	1162.827	329.286	-1154.973	 H	7	ASP7	-0.012	
101	   N	1163.069	333.397	-1154.993	N.am	8	ASP8	-0.516	
102	  CA	1162.999	334.746	-1155.548	C.3	8	ASP8	0.038	
103	   C	1164.346	335.425	-1155.492	C.2	8	ASP8	0.537	
104	   O	1164.818	336.029	-1156.468	O.2	8	ASP8	-0.582	
105	  CB	1161.921	335.586	-1154.807	C.3	8	ASP8	-0.030	
106	  CG	1161.703	337.006	-1155.350	C.2	8	ASP8	0.799	
107	 OD1	1161.766	337.203	-1156.581	O.co2	8	ASP8	-0.801	
108	 OD2	1161.511	337.933	-1154.536	O.co2	8	ASP8	-0.801	
109	   H	1162.472	333.127	-1154.224	 H	8	ASP8	0.294	
110	  HA	1162.716	334.666	-1156.615	 H	8	ASP8	0.088	
111	 2HB	1162.179	335.671	-1153.736	 H	8	ASP8	-0.012	
112	 3HB	1160.942	335.081	-1154.839	 H	8	ASP8	-0.012	
113	   N	1165.026	335.377	-1154.397	N.am	9	GLU9	-0.516	
114	  CA	1166.328	336.034	-1154.343	C.3	9	GLU9	0.040	
115	   C	1167.246	335.505	-1155.418	C.2	9	GLU9	0.537	
116	   O	1167.910	336.259	-1156.145	O.2	9	GLU9	-0.582	
117	  CB	1166.962	335.829	-1152.938	C.3	9	GLU9	0.056	
118	  CG	1168.345	336.521	-1152.710	C.3	9	GLU9	0.014	
119	  CD	1169.047	336.310	-1151.381	C.2	9	GLU9	0.805	
120	 OE1	1168.526	335.620	-1150.484	O.co2	9	GLU9	-0.819	
121	 OE2	1170.167	336.847	-1151.251	O.co2	9	GLU9	-0.819	
122	   H	1164.662	334.892	-1153.589	 H	9	GLU9	0.294	
123	  HA	1166.186	337.116	-1154.520	 H	9	GLU9	0.111	
124	 2HB	1167.075	334.744	-1152.733	 H	9	GLU9	-0.017	
125	 3HB	1166.266	336.183	-1152.154	 H	9	GLU9	-0.017	
126	 2HG	1168.273	337.612	-1152.851	 H	9	GLU9	-0.043	
127	 3HG	1169.092	336.175	-1153.443	 H	9	GLU9	-0.043	
128	   N	1167.343	334.230	-1155.586	N.am	10	HIS10	-0.416	
129	  CA	1168.230	333.717	-1156.626	C.3	10	HIS10	-0.058	
130	   C	1167.863	334.280	-1157.978	C.2	10	HIS10	0.597	
131	   O	1168.716	334.743	-1158.750	O.2	10	HIS10	-0.568	
132	  CB	1168.066	332.188	-1156.619	C.3	10	HIS10	-0.007	
133	  CG	1169.352	331.478	-1156.310	C.2	10	HIS10	0.187	
134	 CD2	1169.733	331.145	-1155.017	C.2	10	HIS10	-0.221	
135	 ND1	1170.303	331.071	-1157.242	N.2	10	HIS10	-0.543	
136	 CE1	1171.210	330.514	-1156.418	C.2	10	HIS10	0.163	
137	 NE2	1170.948	330.513	-1155.083	N.pl3	10	HIS10	-0.280	
138	   H	1166.812	333.595	-1155.007	 H	10	HIS10	0.272	
139	  HA	1169.249	334.074	-1156.402	 H	10	HIS10	0.136	
140	 2HB	1167.701	331.820	-1157.598	 H	10	HIS10	0.037	
141	 3HB	1167.311	331.852	-1155.878	 H	10	HIS10	0.037	
142	 2HD	1169.147	331.361	-1154.128	 H	10	HIS10	0.186	
143	 1HE	1172.101	330.092	-1156.865	 H	10	HIS10	0.144	
144	 2HE	1171.515	330.137	-1154.310	 H	10	HIS10	0.334	
145	   N	1166.625	334.278	-1158.341	N.am	11	VAL11	-0.416	
146	  CA	1166.270	334.823	-1159.648	C.3	11	VAL11	-0.087	
147	   C	1166.734	336.253	-1159.782	C.2	11	VAL11	0.597	
148	   O	1167.335	336.657	-1160.786	O.2	11	VAL11	-0.568	
149	  CB	1164.709	334.716	-1159.867	C.3	11	VAL11	0.299	
150	 CG1	1164.140	335.419	-1161.130	C.3	11	VAL11	-0.319	
151	 CG2	1164.184	333.262	-1159.938	C.3	11	VAL11	-0.319	
152	   H	1165.912	333.906	-1157.729	 H	11	VAL11	0.272	
153	  HA	1166.789	334.239	-1160.430	 H	11	VAL11	0.097	
154	  HB	1164.221	335.197	-1158.992	 H	11	VAL11	-0.030	
155	1HG1	1164.578	335.025	-1162.067	 H	11	VAL11	0.079	
156	2HG1	1163.041	335.311	-1161.212	 H	11	VAL11	0.079	
157	3HG1	1164.318	336.511	-1161.122	 H	11	VAL11	0.079	
158	1HG2	1164.474	332.676	-1159.047	 H	11	VAL11	0.079	
159	2HG2	1163.078	333.225	-1159.980	 H	11	VAL11	0.079	
160	3HG2	1164.565	332.720	-1160.824	 H	11	VAL11	0.079	
161	   N	1166.498	337.080	-1158.821	N.am	12	GLN12	-0.416	
162	  CA	1166.946	338.463	-1158.950	C.3	12	GLN12	-0.003	
163	   C	1168.436	338.530	-1159.188	C.2	12	GLN12	0.597	
164	   O	1168.923	339.237	-1160.068	O.2	12	GLN12	-0.568	
165	  CB	1166.556	339.232	-1157.668	C.3	12	GLN12	-0.004	
166	  CG	1166.916	340.754	-1157.639	C.3	12	GLN12	-0.064	
167	  CD	1166.614	341.569	-1156.375	C.2	12	GLN12	0.695	
168	 NE2	1166.047	340.994	-1155.345	N.pl3	12	GLN12	-0.941	
169	 OE1	1166.916	342.750	-1156.299	O.2	12	GLN12	-0.609	
170	   H	1166.009	336.775	-1157.992	 H	12	GLN12	0.272	
171	  HA	1166.447	338.918	-1159.826	 H	12	GLN12	0.085	
172	 2HB	1167.032	338.733	-1156.798	 H	12	GLN12	0.017	
173	 3HB	1165.465	339.125	-1157.505	 H	12	GLN12	0.017	
174	 2HG	1166.438	341.274	-1158.490	 H	12	GLN12	0.035	
175	 3HG	1168.000	340.896	-1157.805	 H	12	GLN12	0.035	
176	1HE2	1165.940	341.589	-1154.523	 H	12	GLN12	0.425	
177	2HE2	1165.883	339.990	-1155.448	 H	12	GLN12	0.425	
178	   N	1169.221	337.824	-1158.447	N.am	13	ARG13	-0.348	
179	  CA	1170.661	337.890	-1158.678	C.3	13	ARG13	-0.264	
180	   C	1170.997	337.516	-1160.103	C.2	13	ARG13	0.734	
181	   O	1171.765	338.187	-1160.788	O.2	13	ARG13	-0.589	
182	  CB	1171.375	336.952	-1157.663	C.3	13	ARG13	-0.001	
183	  CG	1172.920	337.105	-1157.583	C.3	13	ARG13	0.039	
184	  CD	1173.547	336.119	-1156.584	C.3	13	ARG13	0.049	
185	  NE	1175.024	336.326	-1156.534	N.pl3	13	ARG13	-0.530	
186	  CZ	1175.873	335.635	-1155.779	C.cat	13	ARG13	0.808	
187	 NH1	1175.508	334.672	-1154.980	N.pl3	13	ARG13	-0.863	
188	 NH2	1177.132	335.934	-1155.836	N.pl3	13	ARG13	-0.863	
189	   H	1168.845	337.235	-1157.718	 H	13	ARG13	0.275	
190	  HA	1170.986	338.936	-1158.521	 H	13	ARG13	0.156	
191	 2HB	1171.108	335.901	-1157.901	 H	13	ARG13	0.033	
192	 3HB	1170.950	337.119	-1156.653	 H	13	ARG13	0.033	
193	 2HG	1173.168	338.150	-1157.305	 H	13	ARG13	0.029	
194	 3HG	1173.370	336.948	-1158.584	 H	13	ARG13	0.029	
195	 2HD	1173.303	335.078	-1156.892	 H	13	ARG13	0.069	
196	 3HD	1173.091	336.265	-1155.582	 H	13	ARG13	0.069	
197	  HE	1175.475	337.047	-1157.106	 H	13	ARG13	0.346	
198	1HH1	1174.502	334.485	-1154.983	 H	13	ARG13	0.448	
199	2HH1	1176.221	334.189	-1154.431	 H	13	ARG13	0.448	
200	1HH2	1177.399	336.691	-1156.468	 H	13	ARG13	0.448	
201	2HH2	1177.767	335.393	-1155.247	 H	13	ARG13	0.448	
202	   N	1170.460	336.461	-1160.615	N.am	14	VAL14	-0.416	
203	  CA	1170.784	336.100	-1161.992	C.3	14	VAL14	-0.087	
204	   C	1170.454	337.229	-1162.939	C.2	14	VAL14	0.597	
205	   O	1171.247	337.609	-1163.810	O.2	14	VAL14	-0.568	
206	  CB	1170.012	334.783	-1162.397	C.3	14	VAL14	0.299	
207	 CG1	1170.100	334.362	-1163.890	C.3	14	VAL14	-0.319	
208	 CG2	1170.444	333.531	-1161.596	C.3	14	VAL14	-0.319	
209	   H	1169.826	335.893	-1160.073	 H	14	VAL14	0.272	
210	  HA	1171.873	335.923	-1162.068	 H	14	VAL14	0.097	
211	  HB	1168.935	334.954	-1162.181	 H	14	VAL14	-0.030	
212	1HG1	1171.141	334.185	-1164.219	 H	14	VAL14	0.079	
213	2HG1	1169.527	333.439	-1164.102	 H	14	VAL14	0.079	
214	3HG1	1169.671	335.124	-1164.569	 H	14	VAL14	0.079	
215	1HG2	1170.357	333.691	-1160.505	 H	14	VAL14	0.079	
216	2HG2	1169.808	332.655	-1161.826	 H	14	VAL14	0.079	
217	3HG2	1171.491	333.241	-1161.801	 H	14	VAL14	0.079	
218	   N	1169.309	337.815	-1162.838	N.am	15	MET15	-0.416	
219	  CA	1168.989	338.907	-1163.753	C.3	15	MET15	-0.024	
220	   C	1170.019	340.006	-1163.667	C.2	15	MET15	0.597	
221	   O	1170.521	340.516	-1164.680	O.2	15	MET15	-0.568	
222	  CB	1167.568	339.453	-1163.444	C.3	15	MET15	0.034	
223	  CG	1166.405	338.455	-1163.634	C.3	15	MET15	0.002	
224	  SD	1164.832	339.321	-1163.520	S.3	15	MET15	-0.274	
225	  CE	1163.750	337.892	-1163.381	C.3	15	MET15	-0.054	
226	   H	1168.645	337.523	-1162.136	 H	15	MET15	0.272	
227	  HA	1169.014	338.518	-1164.788	 H	15	MET15	0.088	
228	 2HB	1167.365	340.331	-1164.087	 H	15	MET15	0.024	
229	 3HB	1167.532	339.847	-1162.408	 H	15	MET15	0.024	
230	 2HG	1166.449	337.670	-1162.855	 H	15	MET15	0.044	
231	 3HG	1166.468	337.938	-1164.609	 H	15	MET15	0.044	
232	 1HE	1163.893	337.202	-1164.232	 H	15	MET15	0.068	
233	 2HE	1163.960	337.340	-1162.447	 H	15	MET15	0.068	
234	 3HE	1162.693	338.207	-1163.364	 H	15	MET15	0.068	
235	   N	1170.388	340.429	-1162.505	N.am	16	ARG16	-0.348	
236	  CA	1171.385	341.493	-1162.423	C.3	16	ARG16	-0.264	
237	   C	1172.655	341.099	-1163.140	C.2	16	ARG16	0.734	
238	   O	1172.769	340.022	-1163.720	O.2	16	ARG16	-0.589	
239	  CB	1171.655	341.812	-1160.925	C.3	16	ARG16	-0.001	
240	  CG	1172.480	343.101	-1160.654	C.3	16	ARG16	0.039	
241	  CD	1172.731	343.322	-1159.153	C.3	16	ARG16	0.049	
242	  NE	1173.507	344.581	-1158.954	N.pl3	16	ARG16	-0.530	
243	  CZ	1173.899	345.064	-1157.779	C.cat	16	ARG16	0.808	
244	 NH1	1173.652	344.481	-1156.640	N.pl3	16	ARG16	-0.863	
245	 NH2	1174.563	346.177	-1157.762	N.pl3	16	ARG16	-0.863	
246	   H	1169.994	340.030	-1161.666	 H	16	ARG16	0.275	
247	  HA	1170.976	342.385	-1162.934	 H	16	ARG16	0.156	
248	 2HB	1172.152	340.936	-1160.458	 H	16	ARG16	0.033	
249	 3HB	1170.686	341.894	-1160.391	 H	16	ARG16	0.033	
250	 2HG	1171.950	343.972	-1161.092	 H	16	ARG16	0.029	
251	 3HG	1173.453	343.048	-1161.183	 H	16	ARG16	0.029	
252	 2HD	1173.279	342.447	-1158.739	 H	16	ARG16	0.069	
253	 3HD	1171.758	343.365	-1158.618	 H	16	ARG16	0.069	
254	  HE	1173.785	345.161	-1159.752	 H	16	ARG16	0.346	
255	1HH1	1173.126	343.608	-1156.723	 H	16	ARG16	0.448	
256	2HH1	1173.987	344.917	-1155.779	 H	16	ARG16	0.448	
257	1HH2	1174.748	346.619	-1158.664	 H	16	ARG16	0.448	
258	2HH2	1174.854	346.533	-1156.850	 H	16	ARG16	0.448	
@<TRIPOS>BOND
1 1 2 1
2 1 10 1
3 2 3 1
4 2 5 1
5 2 11 1
6 3 4 2
7 3 16 1
8 5 6 1
9 6 7 1
10 7 8 2
11 7 9 1
12 5 12 1
13 5 13 1
14 6 14 1
15 6 15 1
16 16 17 1
17 16 24 1
18 17 18 1
19 17 20 1
20 17 25 1
21 18 19 2
22 18 30 1
23 20 21 1
24 21 22 1
25 21 23 2
26 20 26 1
27 20 27 1
28 22 28 1
29 22 29 1
30 30 31 1
31 30 36 1
32 31 32 1
33 31 34 1
34 31 37 1
35 32 33 2
36 32 44 1
37 34 35 1
38 35 36 1
39 34 38 1
40 34 39 1
41 35 40 1
42 35 41 1
43 36 42 1
44 36 43 1
45 44 45 1
46 44 53 1
47 45 46 1
48 45 48 1
49 45 54 1
50 46 47 2
51 46 59 1
52 48 49 1
53 49 50 1
54 50 51 2
55 50 52 1
56 48 55 1
57 48 56 1
58 49 57 1
59 49 58 1
60 59 60 1
61 59 65 1
62 60 61 1
63 60 63 1
64 60 66 1
65 61 62 2
66 61 70 1
67 63 64 1
68 63 67 1
69 63 68 1
70 64 69 1
71 70 71 1
72 70 78 1
73 71 72 1
74 71 74 1
75 71 79 1
76 72 73 2
77 72 89 1
78 74 75 1
79 74 76 1
80 75 77 1
81 74 80 1
82 75 81 1
83 75 82 1
84 76 83 1
85 76 84 1
86 76 85 1
87 77 86 1
88 77 87 1
89 77 88 1
90 89 90 1
91 89 97 1
92 90 91 1
93 90 93 1
94 90 98 1
95 91 92 2
96 91 101 1
97 93 94 1
98 94 95 2
99 94 96 1
100 93 99 1
101 93 100 1
102 101 102 1
103 101 109 1
104 102 103 1
105 102 105 1
106 102 110 1
107 103 104 2
108 103 113 1
109 105 106 1
110 106 107 2
111 106 108 1
112 105 111 1
113 105 112 1
114 113 114 1
115 113 122 1
116 114 115 1
117 114 117 1
118 114 123 1
119 115 116 2
120 115 128 1
121 117 118 1
122 118 119 1
123 119 120 2
124 119 121 1
125 117 124 1
126 117 125 1
127 118 126 1
128 118 127 1
129 128 129 1
130 128 138 1
131 129 130 1
132 129 132 1
133 129 139 1
134 130 131 2
135 130 145 1
136 132 133 1
137 133 134 2
138 134 137 1
139 133 135 1
140 135 136 2
141 136 137 1
142 132 140 1
143 132 141 1
144 134 142 1
145 136 143 1
146 137 144 1
147 145 146 1
148 145 152 1
149 146 147 1
150 146 149 1
151 146 153 1
152 147 148 2
153 147 161 1
154 149 150 1
155 149 151 1
156 149 154 1
157 150 155 1
158 150 156 1
159 150 157 1
160 151 158 1
161 151 159 1
162 151 160 1
163 161 162 1
164 161 170 1
165 162 163 1
166 162 165 1
167 162 171 1
168 163 164 2
169 163 178 1
170 165 166 1
171 166 167 1
172 167 168 1
173 167 169 2
174 165 172 1
175 165 173 1
176 166 174 1
177 166 175 1
178 168 176 1
179 168 177 1
180 178 179 1
181 178 189 1
182 179 180 1
183 179 182 1
184 179 190 1
185 180 181 2
186 180 202 1
187 182 183 1
188 183 184 1
189 184 185 1
190 185 186 1
191 186 187 2
192 186 188 1
193 182 191 1
194 182 192 1
195 183 193 1
196 183 194 1
197 184 195 1
198 184 196 1
199 185 197 1
200 187 198 1
201 187 199 1
202 188 200 1
203 188 201 1
204 202 203 1
205 202 209 1
206 203 204 1
207 203 206 1
208 203 210 1
209 204 205 2
210 204 218 1
211 206 207 1
212 206 208 1
213 206 211 1
214 207 212 1
215 207 213 1
216 207 214 1
217 208 215 1
218 208 216 1
219 208 217 1
220 218 219 1
221 218 226 1
222 219 220 1
223 219 222 1
224 219 227 1
225 220 221 2
226 220 235 1
227 222 223 1
228 223 224 1
229 224 225 1
230 222 228 1
231 222 229 1
232 223 230 1
233 223 231 1
234 225 232 1
235 225 233 1
236 225 234 1
237 235 236 1
238 235 246 1
239 236 237 1
240 236 239 1
241 236 247 1
242 237 238 2
243 239 240 1
244 240 241 1
245 241 242 1
246 242 243 1
247 243 244 2
248 243 245 1
249 239 248 1
250 239 249 1
251 240 250 1
252 240 251 1
253 241 252 1
254 241 253 1
255 242 254 1
256 244 255 1
257 244 256 1
258 245 257 1
259 245 258 1
@<TRIPOS>SUBSTRUCTURE
1	GLU1	1	RESIDUE	1 ****	GLU
2	ASN2	16	RESIDUE	1 ****	ASN
3	PRO3	30	RESIDUE	1 ****	PRO
4	GLU4	44	RESIDUE	1 ****	GLU
5	SER5	59	RESIDUE	1 ****	SER
6	ILE6	70	RESIDUE	1 ****	ILE
7	ASP7	89	RESIDUE	1 ****	ASP
8	ASP8	101	RESIDUE	1 ****	ASP
9	GLU9	113	RESIDUE	1 ****	GLU
10	HIS10	128	RESIDUE	1 ****	HIS
11	VAL11	145	RESIDUE	1 ****	VAL
12	GLN12	161	RESIDUE	1 ****	GLN
13	ARG13	178	RESIDUE	1 ****	ARG
14	VAL14	202	RESIDUE	1 ****	VAL
15	MET15	218	RESIDUE	1 ****	MET
16	ARG16	235	RESIDUE	1 ****	ARG
