REMARK WARNING: 32 MAX_TORS EXCEEDED!!!
REMARK  70 active torsions:
REMARK  status: ('A' for Active; 'I' for Inactive)
REMARK    1  A    between atoms: N_1  and  CA_2 
REMARK    2  A    between atoms: CA_2  and  C_3 
REMARK    3  A    between atoms: CA_2  and  CB_5 
REMARK       I    between atoms: C_3  and  N_11 
REMARK    4  A    between atoms: CB_5  and  CG_6 
REMARK    5  A    between atoms: CG_6  and  CD_7 
REMARK    6  A    between atoms: N_11  and  CA_12 
REMARK    7  A    between atoms: CA_12  and  C_13 
REMARK    8  A    between atoms: CA_12  and  CB_15 
REMARK       I    between atoms: C_13  and  N_22 
REMARK    9  A    between atoms: CB_15  and  CG_16 
REMARK       I    between atoms: CG_16  and  ND2_17 
REMARK   10  A    between atoms: CA_23  and  C_24 
REMARK       I    between atoms: C_24  and  N_29 
REMARK   11  A    between atoms: N_29  and  CA_30 
REMARK   12  A    between atoms: CA_30  and  C_31 
REMARK   13  A    between atoms: CA_30  and  CB_33 
REMARK       I    between atoms: C_31  and  N_39 
REMARK   14  A    between atoms: CB_33  and  CG_34 
REMARK   15  A    between atoms: CG_34  and  CD_35 
REMARK   16  A    between atoms: N_39  and  CA_40 
REMARK   17  A    between atoms: CA_40  and  C_41 
REMARK   18  A    between atoms: CA_40  and  CB_43 
REMARK       I    between atoms: C_41  and  N_47 
REMARK   19  A    between atoms: CB_43  and  OG_44 
REMARK   20  A    between atoms: N_47  and  CA_48 
REMARK   21  A    between atoms: CA_48  and  C_49 
REMARK   22  A    between atoms: CA_48  and  CB_51 
REMARK       I    between atoms: C_49  and  N_56 
REMARK   23  A    between atoms: CB_51  and  CG1_52 
REMARK   24  A    between atoms: N_56  and  CA_57 
REMARK   25  A    between atoms: CA_57  and  C_58 
REMARK   26  A    between atoms: CA_57  and  CB_60 
REMARK       I    between atoms: C_58  and  N_73 
REMARK   27  A    between atoms: CB_60  and  CG_61 
REMARK   28  A    between atoms: CG_61  and  CD_62 
REMARK   29  A    between atoms: CD_62  and  NE_63 
REMARK       I    between atoms: NE_63  and  CZ_64 
REMARK       I    between atoms: CZ_64  and  NH1_65 
REMARK       I    between atoms: CZ_64  and  NH2_66 
REMARK   30  A    between atoms: N_73  and  CA_74 
REMARK   31  A    between atoms: CA_74  and  C_75 
REMARK   32  A    between atoms: CA_74  and  CB_77 
REMARK       I    between atoms: C_75  and  N_82 
REMARK   33  A    between atoms: CB_77  and  CG_78 
REMARK   34  A    between atoms: N_82  and  CA_83 
REMARK   35  A    between atoms: CA_83  and  C_84 
REMARK   36  A    between atoms: CA_83  and  CB_86 
REMARK       I    between atoms: C_84  and  N_92 
REMARK   37  A    between atoms: CB_86  and  CG_87 
REMARK   38  A    between atoms: CG_87  and  CD_88 
REMARK   39  A    between atoms: N_92  and  CA_93 
REMARK   40  A    between atoms: CA_93  and  C_94 
REMARK   41  A    between atoms: CA_93  and  CB_96 
REMARK       I    between atoms: C_94  and  N_104 
REMARK   42  A    between atoms: CB_96  and  CG_97 
REMARK   43  A    between atoms: N_104  and  CA_105 
REMARK   44  A    between atoms: CA_105  and  C_106 
REMARK   45  A    between atoms: CA_105  and  CB_108 
REMARK       I    between atoms: C_106  and  N_112 
REMARK   46  A    between atoms: N_112  and  CA_113 
REMARK   47  A    between atoms: CA_113  and  C_114 
REMARK   48  A    between atoms: CA_113  and  CB_116 
REMARK       I    between atoms: C_114  and  N_124 
REMARK   49  A    between atoms: CB_116  and  CG_117 
REMARK   50  A    between atoms: CG_117  and  CD_118 
REMARK       I    between atoms: CD_118  and  NE2_119 
REMARK   51  A    between atoms: N_124  and  CA_125 
REMARK   52  A    between atoms: CA_125  and  C_126 
REMARK   53  A    between atoms: CA_125  and  CB_128 
REMARK       I    between atoms: C_126  and  N_141 
REMARK   54  A    between atoms: CB_128  and  CG_129 
REMARK   55  A    between atoms: CG_129  and  CD_130 
REMARK   56  A    between atoms: CD_130  and  NE_131 
REMARK       I    between atoms: NE_131  and  CZ_132 
REMARK       I    between atoms: CZ_132  and  NH1_133 
REMARK       I    between atoms: CZ_132  and  NH2_134 
REMARK   57  A    between atoms: N_141  and  CA_142 
REMARK   58  A    between atoms: CA_142  and  C_143 
REMARK   59  A    between atoms: CA_142  and  CB_145 
REMARK       I    between atoms: C_143  and  N_149 
REMARK   60  A    between atoms: N_149  and  CA_150 
REMARK   61  A    between atoms: CA_150  and  C_151 
REMARK   62  A    between atoms: CA_150  and  CB_153 
REMARK       I    between atoms: C_151  and  N_158 
REMARK   63  A    between atoms: CB_153  and  CG_154 
REMARK   64  A    between atoms: CG_154  and  SD_155 
REMARK   65  A    between atoms: N_158  and  CA_159 
REMARK   66  A    between atoms: CA_159  and  C_160 
REMARK   67  A    between atoms: CA_159  and  CB_162 
REMARK   68  A    between atoms: CB_162  and  CG_163 
REMARK   69  A    between atoms: CG_163  and  CD_164 
REMARK   70  A    between atoms: CD_164  and  NE_165 
REMARK       I    between atoms: NE_165  and  CZ_166 
REMARK       I    between atoms: CZ_166  and  NH1_167 
ROOT
ATOM      1  CA  GLU d   9    1191.088 344.361-1181.246  0.00  0.00     0.177 C 
ENDROOT
BRANCH   1   2
ATOM      2  N   GLU d   9    1189.786 343.703-1181.301  0.00  0.00    -0.346 N 
ATOM      3  C   ASP d   8    1189.106 343.753-1182.396  0.00  0.00     0.241 C 
ATOM      4  O   ASP d   8    1189.578 344.358-1183.371  0.00  0.00    -0.271 OA
ATOM      5  H   GLU d   9    1189.422 343.217-1180.494  0.00  0.00     0.163 HD
BRANCH   3   6
ATOM      6  CA  ASP d   8    1187.759 343.074-1182.453  0.00  0.00     0.186 C 
BRANCH   6   7
ATOM      7  N   ASP d   8    1187.829 341.724-1181.900  0.00  0.00    -0.346 N 
ATOM      8  C   ARG d   7    1188.666 340.883-1182.407  0.00  0.00     0.241 C 
ATOM      9  O   ARG d   7    1189.380 341.243-1183.340  0.00  0.00    -0.271 OA
ATOM     10  H   ASP d   8    1187.231 341.453-1181.133  0.00  0.00     0.163 HD
BRANCH   8  11
ATOM     11  CA  ARG d   7    1188.739 339.487-1181.835  0.00  0.00     0.176 C 
BRANCH  11  12
ATOM     12  N   ARG d   7    1188.794 339.523-1180.376  0.00  0.00    -0.346 N 
ATOM     13  C   ILE d   6    1189.740 340.187-1179.802  0.00  0.00     0.241 C 
ATOM     14  O   ILE d   6    1190.575 340.775-1180.506  0.00  0.00    -0.271 OA
ATOM     15  H   ARG d   7    1188.102 339.036-1179.825  0.00  0.00     0.163 HD
BRANCH  13  16
ATOM     16  CA  ILE d   6    1189.797 340.224-1178.295  0.00  0.00     0.180 C 
BRANCH  16  17
ATOM     17  N   ILE d   6    1188.484 340.519-1177.728  0.00  0.00    -0.346 N 
ATOM     18  C   SER d   5    1187.879 341.602-1178.082  0.00  0.00     0.243 C 
ATOM     19  O   SER d   5    1188.426 342.355-1178.887  0.00  0.00    -0.271 OA
ATOM     20  H   ILE d   6    1188.056 339.884-1177.069  0.00  0.00     0.163 HD
BRANCH  18  21
ATOM     21  CA  SER d   5    1186.521 341.907-1177.496  0.00  0.00     0.200 C 
BRANCH  21  22
ATOM     22  N   SER d   5    1185.651 340.736-1177.555  0.00  0.00    -0.344 N 
ATOM     23  C   GLU d   4    1185.424 340.183-1178.698  0.00  0.00     0.241 C 
ATOM     24  O   GLU d   4    1185.950 340.663-1179.712  0.00  0.00    -0.271 OA
ATOM     25  H   SER d   5    1185.234 340.364-1176.713  0.00  0.00     0.163 HD
BRANCH  23  26
ATOM     26  CA  GLU d   4    1184.525 338.972-1178.759  0.00  0.00     0.177 C 
BRANCH  26  27
ATOM     27  N   GLU d   4    1184.885 338.001-1177.729  0.00  0.00    -0.346 N 
ATOM     28  C   PRO d   3    1186.089 337.541-1177.697  0.00  0.00     0.241 C 
ATOM     29  O   PRO d   3    1186.912 337.924-1178.529  0.00  0.00    -0.271 OA
ATOM     30  H   GLU d   4    1184.200 337.694-1177.053  0.00  0.00     0.163 HD
BRANCH  28  31
ATOM     31  CA  PRO d   3    1186.487 336.517-1176.620  0.00  0.00     0.179 C 
ATOM     32  N   PRO d   3    1186.036 336.927-1175.299  0.00  0.00    -0.337 N 
ATOM     33  C   ASN d   2    1186.557 337.922-1174.665  0.00  0.00     0.243 C 
ATOM     34  CD  PRO d   3    1184.958 336.134-1174.750  0.00  0.00     0.127 C 
ATOM     35  O   ASN d   2    1187.472 338.552-1175.193  0.00  0.00    -0.271 OA
ATOM     36  CG  PRO d   3    1184.500 335.315-1175.959  0.00  0.00     0.022 C 
ATOM     37  CB  PRO d   3    1185.783 335.163-1176.790  0.00  0.00     0.037 C 
BRANCH  33  38
ATOM     38  CA  ASN d   2    1186.026 338.277-1173.296  0.00  0.00     0.185 C 
BRANCH  38  39
ATOM     39  N   ASN d   2    1184.567 338.316-1173.296  0.00  0.00    -0.346 N 
ATOM     40  C   GLU d   1    1183.962 339.102-1174.121  0.00  0.00     0.242 C 
ATOM     41  O   GLU d   1    1184.638 339.801-1174.890  0.00  0.00    -0.271 OA
ATOM     42  H   ASN d   2    1184.039 337.736-1172.660  0.00  0.00     0.163 HD
BRANCH  40  43
ATOM     43  CA  GLU d   1    1182.453 339.142-1174.121  0.00  0.00     0.191 C 
BRANCH  43  44
ATOM     44  N   GLU d   1    1181.894 337.793-1174.121  0.00  0.00    -0.326 NA
ATOM     45  H   GLU d   1    1182.521 336.914-1174.121  0.00  0.00     0.180 HD
ENDBRANCH  43  44
BRANCH  43  46
ATOM     46  CB  GLU d   1    1181.930 339.927-1172.884  0.00  0.00     0.047 C 
BRANCH  46  47
ATOM     47  CG  GLU d   1    1182.405 341.412-1172.773  0.00  0.00     0.116 C 
BRANCH  47  48
ATOM     48  CD  GLU d   1    1181.981 342.216-1171.558  0.00  0.00     0.172 C 
ATOM     49  OE1 GLU d   1    1181.253 341.714-1170.680  0.00  0.00    -0.648 OA
ATOM     50  OE2 GLU d   1    1182.411 343.386-1171.486  0.00  0.00    -0.648 OA
ENDBRANCH  47  48
ENDBRANCH  46  47
ENDBRANCH  43  46
ENDBRANCH  40  43
ENDBRANCH  38  39
BRANCH  38  51
ATOM     51  CB  ASN d   2    1186.518 337.254-1172.232  0.00  0.00     0.137 C 
BRANCH  51  52
ATOM     52  CG  ASN d   2    1186.055 337.478-1170.788  0.00  0.00     0.217 C 
ATOM     53  ND2 ASN d   2    1186.649 338.393-1170.070  0.00  0.00    -0.370 N 
ATOM     54 21HD ASN d   2    1186.169 338.566-1169.184  0.00  0.00     0.159 HD
ATOM     55 22HD ASN d   2    1187.351 338.965-1170.540  0.00  0.00     0.159 HD
ATOM     56  OD1 ASN d   2    1185.134 336.844-1170.294  0.00  0.00    -0.274 OA
ENDBRANCH  51  52
ENDBRANCH  38  51
ENDBRANCH  33  38
ENDBRANCH  28  31
ENDBRANCH  26  27
BRANCH  26  57
ATOM     57  CB  GLU d   4    1183.036 339.391-1178.589  0.00  0.00     0.045 C 
BRANCH  57  58
ATOM     58  CG  GLU d   4    1182.488 340.394-1179.654  0.00  0.00     0.116 C 
BRANCH  58  59
ATOM     59  CD  GLU d   4    1181.061 340.891-1179.510  0.00  0.00     0.172 C 
ATOM     60  OE1 GLU d   4    1180.335 340.492-1178.579  0.00  0.00    -0.648 OA
ATOM     61  OE2 GLU d   4    1180.672 341.720-1180.358  0.00  0.00    -0.648 OA
ENDBRANCH  58  59
ENDBRANCH  57  58
ENDBRANCH  26  57
ENDBRANCH  23  26
ENDBRANCH  21  22
BRANCH  21  62
ATOM     62  CB  SER d   5    1186.632 342.439-1176.046  0.00  0.00     0.199 C 
BRANCH  62  63
ATOM     63  OG  SER d   5    1187.364 341.560-1175.185  0.00  0.00    -0.398 OA
ATOM     64  HG  SER d   5    1186.875 340.735-1175.134  0.00  0.00     0.209 HD
ENDBRANCH  62  63
ENDBRANCH  21  62
ENDBRANCH  18  21
ENDBRANCH  16  17
BRANCH  16  65
ATOM     65  CB  ILE d   6    1190.397 338.888-1177.695  0.00  0.00     0.013 C 
ATOM     66  CG2 ILE d   6    1191.838 338.587-1178.210  0.00  0.00     0.012 C 
BRANCH  65  67
ATOM     67  CG1 ILE d   6    1190.417 338.826-1176.134  0.00  0.00     0.002 C 
ATOM     68  CD1 ILE d   6    1190.687 337.436-1175.519  0.00  0.00     0.005 C 
ENDBRANCH  65  67
ENDBRANCH  16  65
ENDBRANCH  13  16
ENDBRANCH  11  12
BRANCH  11  69
ATOM     69  CB  ARG d   7    1187.515 338.632-1182.269  0.00  0.00     0.036 C 
BRANCH  69  70
ATOM     70  CG  ARG d   7    1187.460 338.260-1183.777  0.00  0.00     0.023 C 
BRANCH  70  71
ATOM     71  CD  ARG d   7    1186.203 337.447-1184.127  0.00  0.00     0.138 C 
BRANCH  71  72
ATOM     72  NE  ARG d   7    1186.216 337.101-1185.579  0.00  0.00    -0.227 N 
ATOM     73  CZ  ARG d   7    1185.274 336.410-1186.213  0.00  0.00     0.665 C 
ATOM     74  NH1 ARG d   7    1184.203 335.947-1185.631  0.00  0.00    -0.235 N 
ATOM     75  NH2 ARG d   7    1185.426 336.180-1187.479  0.00  0.00    -0.235 N 
ATOM     76 11HH ARG d   7    1184.143 336.164-1184.633  0.00  0.00     0.174 HD
ATOM     77 12HH ARG d   7    1183.526 335.424-1186.188  0.00  0.00     0.174 HD
ATOM     78 21HH ARG d   7    1186.270 336.551-1187.918  0.00  0.00     0.174 HD
ATOM     79 22HH ARG d   7    1184.692 335.646-1187.948  0.00  0.00     0.174 HD
ATOM     80  HE  ARG d   7    1186.990 337.393-1186.183  0.00  0.00     0.177 HD
ENDBRANCH  71  72
ENDBRANCH  70  71
ENDBRANCH  69  70
ENDBRANCH  11  69
ENDBRANCH   8  11
ENDBRANCH   6   7
BRANCH   6  81
ATOM     81  CB  ASP d   8    1186.681 343.913-1181.712  0.00  0.00     0.147 C 
BRANCH  81  82
ATOM     82  CG  ASP d   8    1186.462 345.334-1182.252  0.00  0.00     0.175 C 
ATOM     83  OD1 ASP d   8    1186.526 345.533-1183.482  0.00  0.00    -0.648 OA
ATOM     84  OD2 ASP d   8    1186.270 346.259-1181.436  0.00  0.00    -0.648 OA
ENDBRANCH  81  82
ENDBRANCH   6  81
ENDBRANCH   3   6
ENDBRANCH   1   2
BRANCH   1  85
ATOM     85  C   GLU d   9    1192.006 343.833-1182.322  0.00  0.00     0.241 C 
ATOM     86  O   GLU d   9    1192.670 344.588-1183.047  0.00  0.00    -0.271 OA
ATOM     87  N   HIS d  10    1192.103 342.558-1182.492  0.00  0.00    -0.346 N 
ATOM     88  H   HIS d  10    1191.572 341.923-1181.913  0.00  0.00     0.163 HD
BRANCH  87  89
ATOM     89  CA  HIS d  10    1192.990 342.047-1183.532  0.00  0.00     0.182 C 
BRANCH  89  90
ATOM     90  C   HIS d  10    1192.624 342.611-1184.883  0.00  0.00     0.241 C 
ATOM     91  O   HIS d  10    1193.476 343.076-1185.655  0.00  0.00    -0.271 OA
ATOM     92  N   VAL d  11    1191.386 342.610-1185.246  0.00  0.00    -0.346 N 
ATOM     93  H   VAL d  11    1190.673 342.238-1184.636  0.00  0.00     0.163 HD
BRANCH  92  94
ATOM     94  CA  VAL d  11    1191.031 343.157-1186.553  0.00  0.00     0.180 C 
BRANCH  94  95
ATOM     95  C   VAL d  11    1191.495 344.587-1186.685  0.00  0.00     0.241 C 
ATOM     96  O   VAL d  11    1192.096 344.992-1187.688  0.00  0.00    -0.271 OA
ATOM     97  N   GLN d  12    1191.258 345.413-1185.723  0.00  0.00    -0.346 N 
ATOM     98  H   GLN d  12    1190.769 345.107-1184.894  0.00  0.00     0.163 HD
BRANCH  97  99
ATOM     99  CA  GLN d  12    1191.707 346.796-1185.850  0.00  0.00     0.177 C 
BRANCH  99 100
ATOM    100  C   GLN d  12    1193.197 346.863-1186.087  0.00  0.00     0.241 C 
ATOM    101  O   GLN d  12    1193.684 347.572-1186.965  0.00  0.00    -0.271 OA
ATOM    102  N   ARG d  13    1193.981 346.156-1185.346  0.00  0.00    -0.346 N 
ATOM    103  H   ARG d  13    1193.605 345.566-1184.618  0.00  0.00     0.163 HD
BRANCH 102 104
ATOM    104  CA  ARG d  13    1195.422 346.221-1185.577  0.00  0.00     0.176 C 
BRANCH 104 105
ATOM    105  C   ARG d  13    1195.758 345.851-1187.002  0.00  0.00     0.241 C 
ATOM    106  O   ARG d  13    1196.527 346.522-1187.686  0.00  0.00    -0.271 OA
ATOM    107  N   VAL d  14    1195.222 344.796-1187.517  0.00  0.00    -0.346 N 
ATOM    108  H   VAL d  14    1194.587 344.228-1186.975  0.00  0.00     0.163 HD
BRANCH 107 109
ATOM    109  CA  VAL d  14    1195.547 344.437-1188.894  0.00  0.00     0.180 C 
BRANCH 109 110
ATOM    110  C   VAL d  14    1195.217 345.568-1189.840  0.00  0.00     0.241 C 
ATOM    111  O   VAL d  14    1196.011 345.949-1190.709  0.00  0.00    -0.271 OA
ATOM    112  N   MET d  15    1194.072 346.154-1189.738  0.00  0.00    -0.346 N 
ATOM    113  H   MET d  15    1193.407 345.861-1189.036  0.00  0.00     0.163 HD
BRANCH 112 114
ATOM    114  CA  MET d  15    1193.752 347.247-1190.651  0.00  0.00     0.177 C 
BRANCH 114 115
ATOM    115  C   MET d  15    1194.782 348.346-1190.563  0.00  0.00     0.241 C 
ATOM    116  O   MET d  15    1195.285 348.858-1191.575  0.00  0.00    -0.271 OA
ATOM    117  N   ARG d  16    1195.151 348.767-1189.401  0.00  0.00    -0.347 N 
ATOM    118  H   ARG d  16    1194.756 348.367-1188.562  0.00  0.00     0.163 HD
BRANCH 117 119
ATOM    119  CA  ARG d  16    1196.148 349.831-1189.316  0.00  0.00     0.162 C 
BRANCH 119 120
ATOM    120  C   ARG d  16    1197.418 349.438-1190.033  0.00  0.00     0.219 C 
ATOM    121  O   ARG d  16    1197.532 348.362-1190.615  0.00  0.00    -0.287 OA
ENDBRANCH 119 120
BRANCH 119 122
ATOM    122  CB  ARG d  16    1196.417 350.148-1187.818  0.00  0.00     0.035 C 
BRANCH 122 123
ATOM    123  CG  ARG d  16    1197.242 351.436-1187.544  0.00  0.00     0.023 C 
BRANCH 123 124
ATOM    124  CD  ARG d  16    1197.492 351.655-1186.043  0.00  0.00     0.138 C 
BRANCH 124 125
ATOM    125  NE  ARG d  16    1198.269 352.914-1185.841  0.00  0.00    -0.227 N 
ATOM    126  CZ  ARG d  16    1198.660 353.395-1184.666  0.00  0.00     0.665 C 
ATOM    127  NH1 ARG d  16    1198.412 352.810-1183.527  0.00  0.00    -0.235 N 
ATOM    128  NH2 ARG d  16    1199.324 354.508-1184.646  0.00  0.00    -0.235 N 
ATOM    129 11HH ARG d  16    1197.886 351.937-1183.612  0.00  0.00     0.174 HD
ATOM    130 12HH ARG d  16    1198.747 353.245-1182.666  0.00  0.00     0.174 HD
ATOM    131 21HH ARG d  16    1199.510 354.951-1185.548  0.00  0.00     0.174 HD
ATOM    132 22HH ARG d  16    1199.615 354.862-1183.734  0.00  0.00     0.174 HD
ATOM    133  HE  ARG d  16    1198.547 353.495-1186.638  0.00  0.00     0.177 HD
ENDBRANCH 124 125
ENDBRANCH 123 124
ENDBRANCH 122 123
ENDBRANCH 119 122
ENDBRANCH 117 119
ENDBRANCH 114 115
BRANCH 114 134
ATOM    134  CB  MET d  15    1192.331 347.793-1190.342  0.00  0.00     0.045 C 
BRANCH 134 135
ATOM    135  CG  MET d  15    1191.169 346.795-1190.534  0.00  0.00     0.076 C 
BRANCH 135 136
ATOM    136  SD  MET d  15    1189.595 347.661-1190.420  0.00  0.00    -0.173 SA
ATOM    137  CE  MET d  15    1188.513 346.232-1190.284  0.00  0.00     0.089 C 
ENDBRANCH 135 136
ENDBRANCH 134 135
ENDBRANCH 114 134
ENDBRANCH 112 114
ENDBRANCH 109 110
BRANCH 109 138
ATOM    138  CB  VAL d  14    1194.774 343.120-1189.302  0.00  0.00     0.009 C 
ATOM    139  CG1 VAL d  14    1194.863 342.703-1190.795  0.00  0.00     0.012 C 
ATOM    140  CG2 VAL d  14    1195.205 341.868-1188.502  0.00  0.00     0.012 C 
ENDBRANCH 109 138
ENDBRANCH 107 109
ENDBRANCH 104 105
BRANCH 104 141
ATOM    141  CB  ARG d  13    1196.135 345.282-1184.563  0.00  0.00     0.036 C 
BRANCH 141 142
ATOM    142  CG  ARG d  13    1197.680 345.435-1184.482  0.00  0.00     0.023 C 
BRANCH 142 143
ATOM    143  CD  ARG d  13    1198.306 344.447-1183.484  0.00  0.00     0.138 C 
BRANCH 143 144
ATOM    144  NE  ARG d  13    1199.783 344.654-1183.433  0.00  0.00    -0.227 N 
ATOM    145  CZ  ARG d  13    1200.631 343.962-1182.678  0.00  0.00     0.665 C 
ATOM    146  NH1 ARG d  13    1200.266 342.997-1181.881  0.00  0.00    -0.235 N 
ATOM    147  NH2 ARG d  13    1201.891 344.261-1182.735  0.00  0.00    -0.235 N 
ATOM    148 11HH ARG d  13    1199.260 342.811-1181.885  0.00  0.00     0.174 HD
ATOM    149 12HH ARG d  13    1200.979 342.514-1181.333  0.00  0.00     0.174 HD
ATOM    150 21HH ARG d  13    1202.158 345.019-1183.365  0.00  0.00     0.174 HD
ATOM    151 22HH ARG d  13    1202.526 343.719-1182.146  0.00  0.00     0.174 HD
ATOM    152  HE  ARG d  13    1200.235 345.376-1184.004  0.00  0.00     0.177 HD
ENDBRANCH 143 144
ENDBRANCH 142 143
ENDBRANCH 141 142
ENDBRANCH 104 141
ENDBRANCH 102 104
ENDBRANCH  99 100
BRANCH  99 153
ATOM    153  CB  GLN d  12    1191.316 347.563-1184.567  0.00  0.00     0.044 C 
BRANCH 153 154
ATOM    154  CG  GLN d  12    1191.677 349.085-1184.535  0.00  0.00     0.105 C 
BRANCH 154 155
ATOM    155  CD  GLN d  12    1191.374 349.898-1183.271  0.00  0.00     0.215 C 
ATOM    156  NE2 GLN d  12    1190.807 349.321-1182.242  0.00  0.00    -0.370 N 
ATOM    157 21HE GLN d  12    1190.700 349.916-1181.418  0.00  0.00     0.159 HD
ATOM    158 22HE GLN d  12    1190.643 348.318-1182.345  0.00  0.00     0.159 HD
ATOM    159  OE1 GLN d  12    1191.676 351.079-1183.193  0.00  0.00    -0.274 OA
ENDBRANCH 154 155
ENDBRANCH 153 154
ENDBRANCH  99 153
ENDBRANCH  97  99
ENDBRANCH  94  95
BRANCH  94 160
ATOM    160  CB  VAL d  11    1189.470 343.050-1186.773  0.00  0.00     0.009 C 
ATOM    161  CG1 VAL d  11    1188.901 343.754-1188.035  0.00  0.00     0.012 C 
ATOM    162  CG2 VAL d  11    1188.945 341.596-1186.846  0.00  0.00     0.012 C 
ENDBRANCH  94 160
ENDBRANCH  92  94
ENDBRANCH  89  90
BRANCH  89 163
ATOM    163  CB  HIS d  10    1192.826 340.518-1183.527  0.00  0.00     0.095 C 
BRANCH 163 164
ATOM    164  CG  HIS d  10    1194.112 339.807-1183.219  0.00  0.00     0.053 A 
ATOM    165  CD2 HIS d  10    1194.493 339.472-1181.927  0.00  0.00     0.116 A 
ATOM    166  NE2 HIS d  10    1195.708 338.840-1181.994  0.00  0.00    -0.359 N 
ATOM    167  CE1 HIS d  10    1195.970 338.843-1183.329  0.00  0.00     0.207 A 
ATOM    168  2HE HIS d  10    1196.275 338.463-1181.221  0.00  0.00     0.166 HD
ATOM    169  ND1 HIS d  10    1195.064 339.402-1184.152  0.00  0.00    -0.247 NA
ENDBRANCH 163 164
ENDBRANCH  89 163
ENDBRANCH  87  89
ENDBRANCH   1  85
BRANCH   1 170
ATOM    170  CB  GLU d   9    1191.722 344.153-1179.841  0.00  0.00     0.045 C 
BRANCH 170 171
ATOM    171  CG  GLU d   9    1193.105 344.845-1179.611  0.00  0.00     0.116 C 
BRANCH 171 172
ATOM    172  CD  GLU d   9    1193.807 344.632-1178.283  0.00  0.00     0.172 C 
ATOM    173  OE1 GLU d   9    1193.285 343.941-1177.387  0.00  0.00    -0.648 OA
ATOM    174  OE2 GLU d   9    1194.926 345.170-1178.152  0.00  0.00    -0.648 OA
ENDBRANCH 171 172
ENDBRANCH 170 171
ENDBRANCH   1 170
TORSDOF 70
