REMARK WARNING: 32 MAX_TORS EXCEEDED!!!
REMARK  68 active torsions:
REMARK  status: ('A' for Active; 'I' for Inactive)
REMARK    1  A    between atoms: N_1  and  CA_2 
REMARK    2  A    between atoms: CA_2  and  C_3 
REMARK    3  A    between atoms: CA_2  and  CB_5 
REMARK       I    between atoms: C_3  and  N_11 
REMARK    4  A    between atoms: CB_5  and  CG_6 
REMARK    5  A    between atoms: CG_6  and  CD_7 
REMARK    6  A    between atoms: N_11  and  CA_12 
REMARK    7  A    between atoms: CA_12  and  C_13 
REMARK    8  A    between atoms: CA_12  and  CB_15 
REMARK       I    between atoms: C_13  and  N_22 
REMARK    9  A    between atoms: CB_15  and  CG_16 
REMARK       I    between atoms: CG_16  and  ND2_17 
REMARK   10  A    between atoms: CA_23  and  C_24 
REMARK       I    between atoms: C_24  and  N_29 
REMARK   11  A    between atoms: N_29  and  CA_30 
REMARK   12  A    between atoms: CA_30  and  C_31 
REMARK   13  A    between atoms: CA_30  and  CB_33 
REMARK       I    between atoms: C_31  and  N_39 
REMARK   14  A    between atoms: CB_33  and  CG_34 
REMARK   15  A    between atoms: CG_34  and  CD_35 
REMARK   16  A    between atoms: N_39  and  CA_40 
REMARK   17  A    between atoms: CA_40  and  C_41 
REMARK   18  A    between atoms: CA_40  and  CB_43 
REMARK       I    between atoms: C_41  and  N_47 
REMARK   19  A    between atoms: CB_43  and  OG_44 
REMARK   20  A    between atoms: N_47  and  CA_48 
REMARK   21  A    between atoms: CA_48  and  C_49 
REMARK   22  A    between atoms: CA_48  and  CB_51 
REMARK       I    between atoms: C_49  and  N_56 
REMARK   23  A    between atoms: CB_51  and  CG1_52 
REMARK   24  A    between atoms: N_56  and  CA_57 
REMARK   25  A    between atoms: CA_57  and  C_58 
REMARK   26  A    between atoms: CA_57  and  CB_60 
REMARK       I    between atoms: C_58  and  N_65 
REMARK   27  A    between atoms: CB_60  and  CG_61 
REMARK   28  A    between atoms: N_65  and  CA_66 
REMARK   29  A    between atoms: CA_66  and  C_67 
REMARK   30  A    between atoms: CA_66  and  CB_69 
REMARK       I    between atoms: C_67  and  N_74 
REMARK   31  A    between atoms: CB_69  and  CG_70 
REMARK   32  A    between atoms: N_74  and  CA_75 
REMARK   33  A    between atoms: CA_75  and  C_76 
REMARK   34  A    between atoms: CA_75  and  CB_78 
REMARK       I    between atoms: C_76  and  N_86 
REMARK   35  A    between atoms: CB_78  and  CG_79 
REMARK   36  A    between atoms: CG_79  and  CD_80 
REMARK       I    between atoms: CD_80  and  NE2_81 
REMARK   37  A    between atoms: N_86  and  CA_87 
REMARK   38  A    between atoms: CA_87  and  C_88 
REMARK   39  A    between atoms: CA_87  and  CB_90 
REMARK       I    between atoms: C_88  and  N_98 
REMARK   40  A    between atoms: CB_90  and  CG_91 
REMARK   41  A    between atoms: N_98  and  CA_99 
REMARK   42  A    between atoms: CA_99  and  C_100 
REMARK   43  A    between atoms: CA_99  and  CB_102 
REMARK       I    between atoms: C_100  and  N_106 
REMARK   44  A    between atoms: N_106  and  CA_107 
REMARK   45  A    between atoms: CA_107  and  C_108 
REMARK   46  A    between atoms: CA_107  and  CB_110 
REMARK       I    between atoms: C_108  and  N_118 
REMARK   47  A    between atoms: CB_110  and  CG_111 
REMARK   48  A    between atoms: CG_111  and  CD_112 
REMARK       I    between atoms: CD_112  and  NE2_113 
REMARK   49  A    between atoms: N_118  and  CA_119 
REMARK   50  A    between atoms: CA_119  and  C_120 
REMARK   51  A    between atoms: CA_119  and  CB_122 
REMARK       I    between atoms: C_120  and  N_135 
REMARK   52  A    between atoms: CB_122  and  CG_123 
REMARK   53  A    between atoms: CG_123  and  CD_124 
REMARK   54  A    between atoms: CD_124  and  NE_125 
REMARK       I    between atoms: NE_125  and  CZ_126 
REMARK       I    between atoms: CZ_126  and  NH1_127 
REMARK       I    between atoms: CZ_126  and  NH2_128 
REMARK   55  A    between atoms: N_135  and  CA_136 
REMARK   56  A    between atoms: CA_136  and  C_137 
REMARK   57  A    between atoms: CA_136  and  CB_139 
REMARK       I    between atoms: C_137  and  N_143 
REMARK   58  A    between atoms: N_143  and  CA_144 
REMARK   59  A    between atoms: CA_144  and  C_145 
REMARK   60  A    between atoms: CA_144  and  CB_147 
REMARK       I    between atoms: C_145  and  N_152 
REMARK   61  A    between atoms: CB_147  and  CG_148 
REMARK   62  A    between atoms: CG_148  and  SD_149 
REMARK   63  A    between atoms: N_152  and  CA_153 
REMARK   64  A    between atoms: CA_153  and  C_154 
REMARK   65  A    between atoms: CA_153  and  CB_156 
REMARK   66  A    between atoms: CB_156  and  CG_157 
REMARK   67  A    between atoms: CG_157  and  CD_158 
REMARK   68  A    between atoms: CD_158  and  NE_159 
REMARK       I    between atoms: NE_159  and  CZ_160 
REMARK       I    between atoms: CZ_160  and  NH1_161 
ROOT
ATOM      1  C   GLN d   9    1486.302 440.724-1501.306  0.00  0.00     0.241 C 
ATOM      2  O   GLN d   9    1486.961 441.474-1502.024  0.00  0.00    -0.271 OA
ATOM      3  N   HIS d  10    1486.401 439.449-1501.477  0.00  0.00    -0.346 N 
ATOM      4  H   HIS d  10    1485.870 438.812-1500.900  0.00  0.00     0.163 HD
ENDROOT
BRANCH   1   5
ATOM      5  CA  GLN d   9    1485.383 441.251-1500.230  0.00  0.00     0.177 C 
BRANCH   5   6
ATOM      6  N   GLN d   9    1484.081 440.593-1500.286  0.00  0.00    -0.346 N 
ATOM      7  C   ASP d   8    1483.401 440.643-1501.381  0.00  0.00     0.241 C 
ATOM      8  O   ASP d   8    1483.874 441.249-1502.355  0.00  0.00    -0.271 OA
ATOM      9  H   GLN d   9    1483.717 440.107-1499.479  0.00  0.00     0.163 HD
BRANCH   7  10
ATOM     10  CA  ASP d   8    1482.054 439.963-1501.438  0.00  0.00     0.186 C 
BRANCH  10  11
ATOM     11  N   ASP d   8    1482.125 438.614-1500.885  0.00  0.00    -0.346 N 
ATOM     12  C   LEU d   7    1482.962 437.773-1501.392  0.00  0.00     0.241 C 
ATOM     13  O   LEU d   7    1483.682 438.136-1502.334  0.00  0.00    -0.271 OA
ATOM     14  H   ASP d   8    1481.527 438.342-1500.118  0.00  0.00     0.163 HD
BRANCH  12  15
ATOM     15  CA  LEU d   7    1483.035 436.378-1500.820  0.00  0.00     0.177 C 
BRANCH  15  16
ATOM     16  N   LEU d   7    1483.090 436.414-1499.361  0.00  0.00    -0.346 N 
ATOM     17  C   ILE d   6    1484.036 437.077-1498.788  0.00  0.00     0.241 C 
ATOM     18  O   ILE d   6    1484.870 437.665-1499.492  0.00  0.00    -0.271 OA
ATOM     19  H   LEU d   7    1482.398 435.926-1498.810  0.00  0.00     0.163 HD
BRANCH  17  20
ATOM     20  CA  ILE d   6    1484.093 437.115-1497.280  0.00  0.00     0.180 C 
BRANCH  20  21
ATOM     21  N   ILE d   6    1482.780 437.409-1496.713  0.00  0.00    -0.346 N 
ATOM     22  C   SER d   5    1482.175 438.492-1497.067  0.00  0.00     0.243 C 
ATOM     23  O   SER d   5    1482.722 439.246-1497.872  0.00  0.00    -0.271 OA
ATOM     24  H   ILE d   6    1482.351 436.775-1496.054  0.00  0.00     0.163 HD
BRANCH  22  25
ATOM     25  CA  SER d   5    1480.816 438.798-1496.482  0.00  0.00     0.200 C 
BRANCH  25  26
ATOM     26  N   SER d   5    1479.947 437.626-1496.540  0.00  0.00    -0.344 N 
ATOM     27  C   GLU d   4    1479.719 437.074-1497.683  0.00  0.00     0.241 C 
ATOM     28  O   GLU d   4    1480.245 437.553-1498.698  0.00  0.00    -0.271 OA
ATOM     29  H   SER d   5    1479.530 437.255-1495.698  0.00  0.00     0.163 HD
BRANCH  27  30
ATOM     30  CA  GLU d   4    1478.820 435.862-1497.744  0.00  0.00     0.177 C 
BRANCH  30  31
ATOM     31  N   GLU d   4    1479.180 434.891-1496.715  0.00  0.00    -0.346 N 
ATOM     32  C   PRO d   3    1480.385 434.431-1496.682  0.00  0.00     0.241 C 
ATOM     33  O   PRO d   3    1481.208 434.814-1497.514  0.00  0.00    -0.271 OA
ATOM     34  H   GLU d   4    1478.496 434.585-1496.038  0.00  0.00     0.163 HD
BRANCH  32  35
ATOM     35  CA  PRO d   3    1480.783 433.408-1495.606  0.00  0.00     0.179 C 
ATOM     36  N   PRO d   3    1480.331 433.817-1494.284  0.00  0.00    -0.337 N 
ATOM     37  C   ASN d   2    1480.853 434.812-1493.650  0.00  0.00     0.243 C 
ATOM     38  CD  PRO d   3    1479.253 433.024-1493.735  0.00  0.00     0.127 C 
ATOM     39  O   ASN d   2    1481.768 435.443-1494.179  0.00  0.00    -0.271 OA
ATOM     40  CG  PRO d   3    1478.796 432.205-1494.945  0.00  0.00     0.022 C 
ATOM     41  CB  PRO d   3    1480.079 432.053-1495.775  0.00  0.00     0.037 C 
BRANCH  37  42
ATOM     42  CA  ASN d   2    1480.322 435.168-1492.281  0.00  0.00     0.185 C 
BRANCH  42  43
ATOM     43  N   ASN d   2    1478.862 435.206-1492.281  0.00  0.00    -0.346 N 
ATOM     44  C   GLU d   1    1478.258 435.992-1493.106  0.00  0.00     0.242 C 
ATOM     45  O   GLU d   1    1478.934 436.691-1493.875  0.00  0.00    -0.271 OA
ATOM     46  H   ASN d   2    1478.334 434.627-1491.645  0.00  0.00     0.163 HD
BRANCH  44  47
ATOM     47  CA  GLU d   1    1476.749 436.032-1493.106  0.00  0.00     0.191 C 
BRANCH  47  48
ATOM     48  N   GLU d   1    1476.190 434.683-1493.106  0.00  0.00    -0.326 NA
ATOM     49  H   GLU d   1    1476.817 433.804-1493.106  0.00  0.00     0.180 HD
ENDBRANCH  47  48
BRANCH  47  50
ATOM     50  CB  GLU d   1    1476.226 436.817-1491.869  0.00  0.00     0.047 C 
BRANCH  50  51
ATOM     51  CG  GLU d   1    1476.701 438.302-1491.758  0.00  0.00     0.116 C 
BRANCH  51  52
ATOM     52  CD  GLU d   1    1476.277 439.106-1490.543  0.00  0.00     0.172 C 
ATOM     53  OE1 GLU d   1    1475.549 438.604-1489.665  0.00  0.00    -0.648 OA
ATOM     54  OE2 GLU d   1    1476.707 440.276-1490.471  0.00  0.00    -0.648 OA
ENDBRANCH  51  52
ENDBRANCH  50  51
ENDBRANCH  47  50
ENDBRANCH  44  47
ENDBRANCH  42  43
BRANCH  42  55
ATOM     55  CB  ASN d   2    1480.814 434.145-1491.217  0.00  0.00     0.137 C 
BRANCH  55  56
ATOM     56  CG  ASN d   2    1480.351 434.369-1489.774  0.00  0.00     0.217 C 
ATOM     57  ND2 ASN d   2    1480.945 435.284-1489.055  0.00  0.00    -0.370 N 
ATOM     58 21HD ASN d   2    1480.464 435.457-1488.169  0.00  0.00     0.159 HD
ATOM     59 22HD ASN d   2    1481.647 435.855-1489.525  0.00  0.00     0.159 HD
ATOM     60  OD1 ASN d   2    1479.430 433.735-1489.279  0.00  0.00    -0.274 OA
ENDBRANCH  55  56
ENDBRANCH  42  55
ENDBRANCH  37  42
ENDBRANCH  32  35
ENDBRANCH  30  31
BRANCH  30  61
ATOM     61  CB  GLU d   4    1477.332 436.281-1497.574  0.00  0.00     0.045 C 
BRANCH  61  62
ATOM     62  CG  GLU d   4    1476.783 437.285-1498.639  0.00  0.00     0.116 C 
BRANCH  62  63
ATOM     63  CD  GLU d   4    1475.357 437.781-1498.495  0.00  0.00     0.172 C 
ATOM     64  OE1 GLU d   4    1474.631 437.383-1497.564  0.00  0.00    -0.648 OA
ATOM     65  OE2 GLU d   4    1474.967 438.610-1499.344  0.00  0.00    -0.648 OA
ENDBRANCH  62  63
ENDBRANCH  61  62
ENDBRANCH  30  61
ENDBRANCH  27  30
ENDBRANCH  25  26
BRANCH  25  66
ATOM     66  CB  SER d   5    1480.928 439.330-1495.031  0.00  0.00     0.199 C 
BRANCH  66  67
ATOM     67  OG  SER d   5    1481.660 438.450-1494.170  0.00  0.00    -0.398 OA
ATOM     68  HG  SER d   5    1481.171 437.625-1494.120  0.00  0.00     0.209 HD
ENDBRANCH  66  67
ENDBRANCH  25  66
ENDBRANCH  22  25
ENDBRANCH  20  21
BRANCH  20  69
ATOM     69  CB  ILE d   6    1484.693 435.778-1496.680  0.00  0.00     0.013 C 
ATOM     70  CG2 ILE d   6    1486.134 435.477-1497.195  0.00  0.00     0.012 C 
BRANCH  69  71
ATOM     71  CG1 ILE d   6    1484.712 435.716-1495.119  0.00  0.00     0.002 C 
ATOM     72  CD1 ILE d   6    1484.982 434.327-1494.504  0.00  0.00     0.005 C 
ENDBRANCH  69  71
ENDBRANCH  20  69
ENDBRANCH  17  20
ENDBRANCH  15  16
BRANCH  15  73
ATOM     73  CB  LEU d   7    1481.832 435.518-1501.300  0.00  0.00     0.038 C 
BRANCH  73  74
ATOM     74  CG  LEU d   7    1481.759 434.038-1500.834  0.00  0.00    -0.020 C 
ATOM     75  CD1 LEU d   7    1480.569 433.332-1501.500  0.00  0.00     0.009 C 
ATOM     76  CD2 LEU d   7    1483.052 433.259-1501.126  0.00  0.00     0.009 C 
ENDBRANCH  73  74
ENDBRANCH  15  73
ENDBRANCH  12  15
ENDBRANCH  10  11
BRANCH  10  77
ATOM     77  CB  ASP d   8    1480.976 440.802-1500.696  0.00  0.00     0.147 C 
BRANCH  77  78
ATOM     78  CG  ASP d   8    1480.757 442.223-1501.236  0.00  0.00     0.175 C 
ATOM     79  OD1 ASP d   8    1480.821 442.422-1502.467  0.00  0.00    -0.648 OA
ATOM     80  OD2 ASP d   8    1480.565 443.149-1500.421  0.00  0.00    -0.648 OA
ENDBRANCH  77  78
ENDBRANCH  10  77
ENDBRANCH   7  10
ENDBRANCH   5   6
BRANCH   5  81
ATOM     81  CB  GLN d   9    1485.990 441.030-1498.826  0.00  0.00     0.044 C 
BRANCH  81  82
ATOM     82  CG  GLN d   9    1487.375 441.704-1498.559  0.00  0.00     0.105 C 
BRANCH  82  83
ATOM     83  CD  GLN d   9    1488.068 441.479-1497.209  0.00  0.00     0.215 C 
ATOM     84  NE2 GLN d   9    1487.491 440.743-1496.293  0.00  0.00    -0.370 N 
ATOM     85 21HE GLN d   9    1488.047 440.590-1495.450  0.00  0.00     0.159 HD
ATOM     86 22HE GLN d   9    1486.606 440.318-1496.575  0.00  0.00     0.159 HD
ATOM     87  OE1 GLN d   9    1489.168 441.956-1496.977  0.00  0.00    -0.274 OA
ENDBRANCH  82  83
ENDBRANCH  81  82
ENDBRANCH   5  81
ENDBRANCH   1   5
BRANCH   3  88
ATOM     88  CA  HIS d  10    1487.290 438.940-1502.517  0.00  0.00     0.182 C 
BRANCH  88  89
ATOM     89  C   HIS d  10    1486.923 439.506-1503.868  0.00  0.00     0.241 C 
ATOM     90  O   HIS d  10    1487.776 439.972-1504.638  0.00  0.00    -0.271 OA
ATOM     91  N   VAL d  11    1485.686 439.504-1504.232  0.00  0.00    -0.346 N 
ATOM     92  H   VAL d  11    1484.973 439.129-1503.622  0.00  0.00     0.163 HD
BRANCH  91  93
ATOM     93  CA  VAL d  11    1485.331 440.051-1505.538  0.00  0.00     0.180 C 
BRANCH  93  94
ATOM     94  C   VAL d  11    1485.794 441.482-1505.668  0.00  0.00     0.241 C 
ATOM     95  O   VAL d  11    1486.395 441.889-1506.671  0.00  0.00    -0.271 OA
ATOM     96  N   GLN d  12    1485.555 442.307-1504.705  0.00  0.00    -0.346 N 
ATOM     97  H   GLN d  12    1485.066 441.999-1503.877  0.00  0.00     0.163 HD
BRANCH  96  98
ATOM     98  CA  GLN d  12    1486.002 443.690-1504.831  0.00  0.00     0.177 C 
BRANCH  98  99
ATOM     99  C   GLN d  12    1487.492 443.760-1505.067  0.00  0.00     0.241 C 
ATOM    100  O   GLN d  12    1487.979 444.470-1505.945  0.00  0.00    -0.271 OA
ATOM    101  N   ARG d  13    1488.277 443.053-1504.327  0.00  0.00    -0.346 N 
ATOM    102  H   ARG d  13    1487.901 442.462-1503.599  0.00  0.00     0.163 HD
BRANCH 101 103
ATOM    103  CA  ARG d  13    1489.717 443.121-1504.556  0.00  0.00     0.176 C 
BRANCH 103 104
ATOM    104  C   ARG d  13    1490.055 442.752-1505.982  0.00  0.00     0.241 C 
ATOM    105  O   ARG d  13    1490.823 443.425-1506.664  0.00  0.00    -0.271 OA
ATOM    106  N   VAL d  14    1489.520 441.697-1506.498  0.00  0.00    -0.346 N 
ATOM    107  H   VAL d  14    1488.886 441.127-1505.957  0.00  0.00     0.163 HD
BRANCH 106 108
ATOM    108  CA  VAL d  14    1489.847 441.340-1507.875  0.00  0.00     0.180 C 
BRANCH 108 109
ATOM    109  C   VAL d  14    1489.516 442.470-1508.820  0.00  0.00     0.241 C 
ATOM    110  O   VAL d  14    1490.310 442.853-1509.688  0.00  0.00    -0.271 OA
ATOM    111  N   MET d  15    1488.370 443.055-1508.719  0.00  0.00    -0.346 N 
ATOM    112  H   MET d  15    1487.705 442.761-1508.018  0.00  0.00     0.163 HD
BRANCH 111 113
ATOM    113  CA  MET d  15    1488.050 444.148-1509.632  0.00  0.00     0.177 C 
BRANCH 113 114
ATOM    114  C   MET d  15    1489.079 445.249-1509.542  0.00  0.00     0.241 C 
ATOM    115  O   MET d  15    1489.582 445.761-1510.554  0.00  0.00    -0.271 OA
ATOM    116  N   ARG d  16    1489.446 445.669-1508.379  0.00  0.00    -0.347 N 
ATOM    117  H   ARG d  16    1489.051 445.268-1507.540  0.00  0.00     0.163 HD
BRANCH 116 118
ATOM    118  CA  ARG d  16    1490.441 446.734-1508.293  0.00  0.00     0.162 C 
BRANCH 118 119
ATOM    119  C   ARG d  16    1491.713 446.343-1509.009  0.00  0.00     0.219 C 
ATOM    120  O   ARG d  16    1491.828 445.267-1509.591  0.00  0.00    -0.287 OA
ENDBRANCH 118 119
BRANCH 118 121
ATOM    121  CB  ARG d  16    1490.709 447.051-1506.795  0.00  0.00     0.035 C 
BRANCH 121 122
ATOM    122  CG  ARG d  16    1491.532 448.341-1506.520  0.00  0.00     0.023 C 
BRANCH 122 123
ATOM    123  CD  ARG d  16    1491.780 448.559-1505.018  0.00  0.00     0.138 C 
BRANCH 123 124
ATOM    124  NE  ARG d  16    1492.555 449.819-1504.816  0.00  0.00    -0.227 N 
ATOM    125  CZ  ARG d  16    1492.945 450.300-1503.639  0.00  0.00     0.665 C 
ATOM    126  NH1 ARG d  16    1492.697 449.715-1502.501  0.00  0.00    -0.235 N 
ATOM    127  NH2 ARG d  16    1493.608 451.414-1503.619  0.00  0.00    -0.235 N 
ATOM    128 11HH ARG d  16    1492.172 448.841-1502.587  0.00  0.00     0.174 HD
ATOM    129 12HH ARG d  16    1493.030 450.150-1501.640  0.00  0.00     0.174 HD
ATOM    130 21HH ARG d  16    1493.794 451.858-1504.521  0.00  0.00     0.174 HD
ATOM    131 22HH ARG d  16    1493.897 451.768-1502.706  0.00  0.00     0.174 HD
ATOM    132  HE  ARG d  16    1492.834 450.400-1505.612  0.00  0.00     0.177 HD
ENDBRANCH 123 124
ENDBRANCH 122 123
ENDBRANCH 121 122
ENDBRANCH 118 121
ENDBRANCH 116 118
ENDBRANCH 113 114
BRANCH 113 133
ATOM    133  CB  MET d  15    1486.627 444.692-1509.323  0.00  0.00     0.045 C 
BRANCH 133 134
ATOM    134  CG  MET d  15    1485.467 443.693-1509.517  0.00  0.00     0.076 C 
BRANCH 134 135
ATOM    135  SD  MET d  15    1483.892 444.557-1509.404  0.00  0.00    -0.173 SA
ATOM    136  CE  MET d  15    1482.812 443.126-1509.269  0.00  0.00     0.089 C 
ENDBRANCH 134 135
ENDBRANCH 133 134
ENDBRANCH 113 133
ENDBRANCH 111 113
ENDBRANCH 108 109
BRANCH 108 137
ATOM    137  CB  VAL d  14    1489.076 440.022-1508.284  0.00  0.00     0.009 C 
ATOM    138  CG1 VAL d  14    1489.167 439.606-1509.778  0.00  0.00     0.012 C 
ATOM    139  CG2 VAL d  14    1489.509 438.769-1507.485  0.00  0.00     0.012 C 
ENDBRANCH 108 137
ENDBRANCH 106 108
ENDBRANCH 103 104
BRANCH 103 140
ATOM    140  CB  ARG d  13    1490.431 442.182-1503.543  0.00  0.00     0.036 C 
BRANCH 140 141
ATOM    141  CG  ARG d  13    1491.976 442.337-1503.461  0.00  0.00     0.023 C 
BRANCH 141 142
ATOM    142  CD  ARG d  13    1492.603 441.349-1502.464  0.00  0.00     0.138 C 
BRANCH 142 143
ATOM    143  NE  ARG d  13    1494.080 441.558-1502.412  0.00  0.00    -0.227 N 
ATOM    144  CZ  ARG d  13    1494.928 440.866-1501.657  0.00  0.00     0.665 C 
ATOM    145  NH1 ARG d  13    1494.564 439.900-1500.861  0.00  0.00    -0.235 N 
ATOM    146  NH2 ARG d  13    1496.188 441.167-1501.713  0.00  0.00    -0.235 N 
ATOM    147 11HH ARG d  13    1493.559 439.713-1500.865  0.00  0.00     0.174 HD
ATOM    148 12HH ARG d  13    1495.277 439.418-1500.312  0.00  0.00     0.174 HD
ATOM    149 21HH ARG d  13    1496.455 441.926-1502.343  0.00  0.00     0.174 HD
ATOM    150 22HH ARG d  13    1496.823 440.626-1501.124  0.00  0.00     0.174 HD
ATOM    151  HE  ARG d  13    1494.531 442.281-1502.982  0.00  0.00     0.177 HD
ENDBRANCH 142 143
ENDBRANCH 141 142
ENDBRANCH 140 141
ENDBRANCH 103 140
ENDBRANCH 101 103
ENDBRANCH  98  99
BRANCH  98 152
ATOM    152  CB  GLN d  12    1485.609 444.456-1503.547  0.00  0.00     0.044 C 
BRANCH 152 153
ATOM    153  CG  GLN d  12    1485.967 445.978-1503.514  0.00  0.00     0.105 C 
BRANCH 153 154
ATOM    154  CD  GLN d  12    1485.663 446.790-1502.249  0.00  0.00     0.215 C 
ATOM    155  NE2 GLN d  12    1485.096 446.211-1501.221  0.00  0.00    -0.370 N 
ATOM    156 21HE GLN d  12    1484.988 446.805-1500.397  0.00  0.00     0.159 HD
ATOM    157 22HE GLN d  12    1484.934 445.208-1501.326  0.00  0.00     0.159 HD
ATOM    158  OE1 GLN d  12    1485.963 447.971-1502.170  0.00  0.00    -0.274 OA
ENDBRANCH 153 154
ENDBRANCH 152 153
ENDBRANCH  98 152
ENDBRANCH  96  98
ENDBRANCH  93  94
BRANCH  93 159
ATOM    159  CB  VAL d  11    1483.770 439.943-1505.759  0.00  0.00     0.009 C 
ATOM    160  CG1 VAL d  11    1483.201 440.648-1507.021  0.00  0.00     0.012 C 
ATOM    161  CG2 VAL d  11    1483.247 438.488-1505.834  0.00  0.00     0.012 C 
ENDBRANCH  93 159
ENDBRANCH  91  93
ENDBRANCH  88  89
BRANCH  88 162
ATOM    162  CB  HIS d  10    1487.128 437.411-1502.514  0.00  0.00     0.095 C 
BRANCH 162 163
ATOM    163  CG  HIS d  10    1488.414 436.702-1502.206  0.00  0.00     0.053 A 
ATOM    164  CD2 HIS d  10    1488.794 436.365-1500.913  0.00  0.00     0.116 A 
ATOM    165  NE2 HIS d  10    1490.010 435.735-1500.980  0.00  0.00    -0.359 N 
ATOM    166  CE1 HIS d  10    1490.274 435.740-1502.315  0.00  0.00     0.207 A 
ATOM    167  2HE HIS d  10    1490.576 435.357-1500.206  0.00  0.00     0.166 HD
ATOM    168  ND1 HIS d  10    1489.367 436.298-1503.138  0.00  0.00    -0.247 NA
ENDBRANCH 162 163
ENDBRANCH  88 162
ENDBRANCH   3  88
TORSDOF 68
