@<TRIPOS>MOLECULE
13-7
260 261 16              
SMALL
USER_CHARGES
@<TRIPOS>ATOM
1	   N	2056.906	623.517	-2124.835	N.3	1	GLU1	-0.516	
2	  CA	2057.465	624.866	-2124.835	C.3	1	GLU1	0.040	
3	   C	2058.974	624.826	-2124.835	C.2	1	GLU1	0.537	
4	   O	2059.649	625.525	-2125.604	O.2	1	GLU1	-0.582	
5	  CB	2056.941	625.651	-2123.598	C.3	1	GLU1	0.056	
6	  CG	2057.417	627.135	-2123.487	C.3	1	GLU1	0.014	
7	  CD	2056.992	627.940	-2122.272	C.2	1	GLU1	0.805	
8	 OE1	2056.264	627.438	-2121.394	O.co2	1	GLU1	-0.819	
9	 OE2	2057.423	629.109	-2122.200	O.co2	1	GLU1	-0.819	
10	   H	2057.532	622.638	-2124.835	 H	1	GLU1	0.294	
11	  HA	2057.138	625.384	-2125.755	 H	1	GLU1	0.111	
12	 2HB	2057.230	625.120	-2122.668	 H	1	GLU1	-0.017	
13	 3HB	2055.834	625.641	-2123.585	 H	1	GLU1	-0.017	
14	 2HG	2057.106	627.721	-2124.368	 H	1	GLU1	-0.043	
15	 3HG	2058.517	627.203	-2123.458	 H	1	GLU1	-0.043	
16	   N	2059.578	624.040	-2124.010	N.am	2	ASN2	-0.416	
17	  CA	2061.037	624.001	-2124.010	C.3	2	ASN2	0.014	
18	   C	2061.569	623.645	-2125.378	C.2	2	ASN2	0.597	
19	   O	2062.484	624.275	-2125.906	O.2	2	ASN2	-0.568	
20	  CB	2061.529	622.978	-2122.945	C.3	2	ASN2	-0.204	
21	  CG	2061.066	623.202	-2121.502	C.2	2	ASN2	0.713	
22	 ND2	2061.660	624.116	-2120.783	N.pl3	2	ASN2	-0.919	
23	 OD1	2060.145	622.568	-2121.008	O.2	2	ASN2	-0.593	
24	   H	2059.050	623.460	-2123.373	 H	2	ASN2	0.272	
25	  HA	2061.415	625.010	-2123.764	 H	2	ASN2	0.105	
26	 2HB	2062.633	622.919	-2122.948	 H	2	ASN2	0.080	
27	 3HB	2061.200	621.959	-2123.231	 H	2	ASN2	0.080	
28	1HD2	2061.179	624.290	-2119.897	 H	2	ASN2	0.420	
29	2HD2	2062.362	624.688	-2121.252	 H	2	ASN2	0.420	
30	   N	2061.047	622.650	-2126.012	N.am	3	PRO3	-0.255	
31	  CA	2061.500	622.241	-2127.334	C.3	3	PRO3	-0.027	
32	   C	2061.102	623.265	-2128.411	C.2	3	PRO3	0.590	
33	   O	2061.925	623.648	-2129.242	O.2	3	PRO3	-0.575	
34	  CB	2060.795	620.886	-2127.503	C.3	3	PRO3	-0.007	
35	  CG	2059.511	621.039	-2126.674	C.3	3	PRO3	0.019	
36	  CD	2059.969	621.857	-2125.464	C.3	3	PRO3	0.019	
37	  HA	2062.585	622.121	-2127.347	 H	3	PRO3	0.064	
38	 2HB	2061.418	620.105	-2127.062	 H	3	PRO3	0.025	
39	 3HB	2060.597	620.638	-2128.549	 H	3	PRO3	0.025	
40	 2HG	2059.084	620.077	-2126.383	 H	3	PRO3	0.021	
41	 3HG	2058.774	621.610	-2127.241	 H	3	PRO3	0.021	
42	 2HD	2060.358	621.208	-2124.676	 H	3	PRO3	0.039	
43	 3HD	2059.172	622.493	-2125.071	 H	3	PRO3	0.039	
44	   N	2059.897	623.725	-2128.444	N.am	4	GLU4	-0.516	
45	  CA	2059.538	624.696	-2129.473	C.3	4	GLU4	0.040	
46	   C	2060.437	625.906	-2129.412	C.2	4	GLU4	0.537	
47	   O	2060.964	626.386	-2130.426	O.2	4	GLU4	-0.582	
48	  CB	2058.049	625.115	-2129.304	C.3	4	GLU4	0.056	
49	  CG	2057.502	626.119	-2130.369	C.3	4	GLU4	0.014	
50	  CD	2056.075	626.616	-2130.226	C.2	4	GLU4	0.805	
51	 OE1	2055.349	626.217	-2129.296	O.co2	4	GLU4	-0.819	
52	 OE2	2055.687	627.445	-2131.075	O.co2	4	GLU4	-0.819	
53	   H	2059.212	623.418	-2127.767	 H	4	GLU4	0.294	
54	  HA	2059.669	624.225	-2130.465	 H	4	GLU4	0.111	
55	 2HB	2057.896	625.555	-2128.297	 H	4	GLU4	-0.017	
56	 3HB	2057.401	624.217	-2129.310	 H	4	GLU4	-0.017	
57	 2HG	2057.584	625.704	-2131.387	 H	4	GLU4	-0.043	
58	 3HG	2058.090	627.051	-2130.380	 H	4	GLU4	-0.043	
59	   N	2060.664	626.459	-2128.269	N.am	5	SER5	-0.416	
60	  CA	2061.534	627.630	-2128.210	C.3	5	SER5	-0.025	
61	   C	2062.893	627.324	-2128.795	C.2	5	SER5	0.597	
62	   O	2063.441	628.078	-2129.600	O.2	5	SER5	-0.568	
63	  CB	2061.645	628.162	-2126.759	C.3	5	SER5	0.212	
64	  OG	2062.376	627.283	-2125.898	O.3	5	SER5	-0.655	
65	   H	2060.247	626.088	-2127.427	 H	5	SER5	0.272	
66	  HA	2061.085	628.421	-2128.839	 H	5	SER5	0.084	
67	 2HB	2060.645	628.356	-2126.326	 H	5	SER5	0.035	
68	 3HB	2062.151	629.148	-2126.761	 H	5	SER5	0.035	
69	  HG	2061.887	626.458	-2125.847	 H	5	SER5	0.428	
70	   N	2063.497	626.241	-2128.441	N.am	6	ILE6	-0.416	
71	  CA	2064.810	625.945	-2129.007	C.3	6	ILE6	-0.060	
72	   C	2064.753	625.908	-2130.514	C.2	6	ILE6	0.597	
73	   O	2065.588	626.495	-2131.218	O.2	6	ILE6	-0.568	
74	  CB	2065.409	624.609	-2128.406	C.3	6	ILE6	0.130	
75	 CG1	2065.428	624.547	-2126.845	C.3	6	ILE6	-0.043	
76	 CG2	2066.851	624.307	-2128.921	C.3	6	ILE6	-0.320	
77	 CD1	2065.698	623.157	-2126.230	C.3	6	ILE6	-0.066	
78	   H	2063.068	625.607	-2127.782	 H	6	ILE6	0.272	
79	  HA	2065.485	626.779	-2128.739	 H	6	ILE6	0.087	
80	  HB	2064.751	623.783	-2128.751	 H	6	ILE6	0.019	
81	2HG1	2064.446	624.867	-2126.450	 H	6	ILE6	0.024	
82	3HG1	2066.144	625.289	-2126.440	 H	6	ILE6	0.024	
83	1HG2	2066.910	624.213	-2130.020	 H	6	ILE6	0.088	
84	2HG2	2067.573	625.089	-2128.619	 H	6	ILE6	0.088	
85	3HG2	2067.240	623.345	-2128.542	 H	6	ILE6	0.088	
86	1HD1	2064.969	622.404	-2126.585	 H	6	ILE6	0.019	
87	2HD1	2066.708	622.779	-2126.466	 H	6	ILE6	0.019	
88	3HD1	2065.621	623.188	-2125.128	 H	6	ILE6	0.019	
89	   N	2063.807	625.245	-2131.088	N.am	7	LEU7	-0.416	
90	  CA	2063.752	625.208	-2132.546	C.3	7	LEU7	-0.052	
91	   C	2063.680	626.604	-2133.119	C.2	7	LEU7	0.597	
92	   O	2064.401	626.965	-2134.062	O.2	7	LEU7	-0.568	
93	  CB	2062.549	624.349	-2133.027	C.3	7	LEU7	-0.110	
94	  CG	2062.476	622.869	-2132.560	C.3	7	LEU7	0.353	
95	 CD1	2061.286	622.164	-2133.226	C.3	7	LEU7	-0.412	
96	 CD2	2063.769	622.090	-2132.852	C.3	7	LEU7	-0.412	
97	   H	2063.115	624.758	-2130.537	 H	7	LEU7	0.272	
98	  HA	2064.694	624.768	-2132.921	 H	7	LEU7	0.092	
99	 2HB	2062.526	624.364	-2134.135	 H	7	LEU7	0.046	
100	 3HB	2061.609	624.851	-2132.723	 H	7	LEU7	0.046	
101	  HG	2062.306	622.861	-2131.463	 H	7	LEU7	-0.036	
102	1HD1	2060.328	622.673	-2133.003	 H	7	LEU7	0.100	
103	2HD1	2061.385	622.123	-2134.327	 H	7	LEU7	0.100	
104	3HD1	2061.178	621.123	-2132.870	 H	7	LEU7	0.100	
105	1HD2	2064.044	622.120	-2133.922	 H	7	LEU7	0.100	
106	2HD2	2064.622	622.501	-2132.280	 H	7	LEU7	0.100	
107	3HD2	2063.687	621.027	-2132.556	 H	7	LEU7	0.100	
108	   N	2062.843	627.445	-2132.614	N.am	8	ASP8	-0.516	
109	  CA	2062.773	628.794	-2133.167	C.3	8	ASP8	0.038	
110	   C	2064.121	629.473	-2133.111	C.2	8	ASP8	0.537	
111	   O	2064.594	630.077	-2134.086	O.2	8	ASP8	-0.582	
112	  CB	2061.696	629.634	-2132.427	C.3	8	ASP8	-0.030	
113	  CG	2061.478	631.055	-2132.968	C.2	8	ASP8	0.799	
114	 OD1	2061.542	631.253	-2134.199	O.co2	8	ASP8	-0.801	
115	 OD2	2061.286	631.981	-2132.153	O.co2	8	ASP8	-0.801	
116	   H	2062.245	627.175	-2131.846	 H	8	ASP8	0.294	
117	  HA	2062.490	628.716	-2134.235	 H	8	ASP8	0.088	
118	 2HB	2061.953	629.718	-2131.355	 H	8	ASP8	-0.012	
119	 3HB	2060.717	629.129	-2132.459	 H	8	ASP8	-0.012	
120	   N	2064.801	629.424	-2132.016	N.am	9	GLU9	-0.516	
121	  CA	2066.104	630.081	-2131.961	C.3	9	GLU9	0.040	
122	   C	2067.021	629.552	-2133.037	C.2	9	GLU9	0.537	
123	   O	2067.685	630.306	-2133.763	O.2	9	GLU9	-0.582	
124	  CB	2066.737	629.873	-2130.556	C.3	9	GLU9	0.056	
125	  CG	2068.120	630.565	-2130.327	C.3	9	GLU9	0.014	
126	  CD	2068.822	630.352	-2128.999	C.2	9	GLU9	0.805	
127	 OE1	2068.301	629.662	-2128.102	O.co2	9	GLU9	-0.819	
128	 OE2	2069.942	630.890	-2128.867	O.co2	9	GLU9	-0.819	
129	   H	2064.437	628.938	-2131.208	 H	9	GLU9	0.294	
130	  HA	2065.962	631.163	-2132.137	 H	9	GLU9	0.111	
131	 2HB	2066.850	628.789	-2130.352	 H	9	GLU9	-0.017	
132	 3HB	2066.041	630.227	-2129.771	 H	9	GLU9	-0.017	
133	 2HG	2068.049	631.656	-2130.467	 H	9	GLU9	-0.043	
134	 3HG	2068.867	630.219	-2131.061	 H	9	GLU9	-0.043	
135	   N	2067.117	628.277	-2133.206	N.am	10	HIS10	-0.416	
136	  CA	2068.004	627.764	-2134.246	C.3	10	HIS10	-0.058	
137	   C	2067.637	628.329	-2135.597	C.2	10	HIS10	0.597	
138	   O	2068.490	628.793	-2136.370	O.2	10	HIS10	-0.568	
139	  CB	2067.840	626.236	-2134.240	C.3	10	HIS10	-0.007	
140	  CG	2069.125	625.525	-2133.932	C.2	10	HIS10	0.187	
141	 CD2	2069.507	625.190	-2132.640	C.2	10	HIS10	-0.221	
142	 ND1	2070.077	625.118	-2134.865	N.2	10	HIS10	-0.543	
143	 CE1	2070.983	624.560	-2134.042	C.2	10	HIS10	0.163	
144	 NE2	2070.721	624.558	-2132.707	N.pl3	10	HIS10	-0.280	
145	   H	2066.586	627.642	-2132.627	 H	10	HIS10	0.272	
146	  HA	2069.024	628.122	-2134.022	 H	10	HIS10	0.136	
147	 2HB	2067.474	625.868	-2135.220	 H	10	HIS10	0.037	
148	 3HB	2067.084	625.899	-2133.500	 H	10	HIS10	0.037	
149	 2HD	2068.921	625.406	-2131.751	 H	10	HIS10	0.186	
150	 1HE	2071.874	624.138	-2134.489	 H	10	HIS10	0.144	
151	 2HE	2071.288	624.181	-2131.933	 H	10	HIS10	0.334	
152	   N	2066.400	628.328	-2135.960	N.am	11	VAL11	-0.416	
153	  CA	2066.044	628.874	-2137.267	C.3	11	VAL11	-0.087	
154	   C	2066.510	630.304	-2137.401	C.2	11	VAL11	0.597	
155	   O	2067.111	630.708	-2138.404	O.2	11	VAL11	-0.568	
156	  CB	2064.483	628.768	-2137.486	C.3	11	VAL11	0.299	
157	 CG1	2063.915	629.471	-2138.749	C.3	11	VAL11	-0.319	
158	 CG2	2063.958	627.314	-2137.558	C.3	11	VAL11	-0.319	
159	   H	2065.687	627.956	-2135.349	 H	11	VAL11	0.272	
160	  HA	2066.564	628.290	-2138.050	 H	11	VAL11	0.097	
161	  HB	2063.996	629.249	-2136.611	 H	11	VAL11	-0.030	
162	1HG1	2064.353	629.079	-2139.686	 H	11	VAL11	0.079	
163	2HG1	2062.816	629.364	-2138.831	 H	11	VAL11	0.079	
164	3HG1	2064.094	630.563	-2138.741	 H	11	VAL11	0.079	
165	1HG2	2064.248	626.727	-2136.667	 H	11	VAL11	0.079	
166	2HG2	2062.852	627.277	-2137.601	 H	11	VAL11	0.079	
167	3HG2	2064.339	626.772	-2138.445	 H	11	VAL11	0.079	
168	   N	2066.273	631.130	-2136.438	N.am	12	GLN12	-0.416	
169	  CA	2066.723	632.513	-2136.566	C.3	12	GLN12	-0.003	
170	   C	2068.212	632.579	-2136.805	C.2	12	GLN12	0.597	
171	   O	2068.700	633.287	-2137.684	O.2	12	GLN12	-0.568	
172	  CB	2066.332	633.281	-2135.284	C.3	12	GLN12	-0.004	
173	  CG	2066.694	634.803	-2135.254	C.3	12	GLN12	-0.064	
174	  CD	2066.392	635.617	-2133.990	C.2	12	GLN12	0.695	
175	 NE2	2065.825	635.042	-2132.960	N.pl3	12	GLN12	-0.941	
176	 OE1	2066.695	636.798	-2133.913	O.2	12	GLN12	-0.609	
177	   H	2065.785	630.825	-2135.609	 H	12	GLN12	0.272	
178	  HA	2066.223	632.969	-2137.442	 H	12	GLN12	0.085	
179	 2HB	2066.808	632.781	-2134.415	 H	12	GLN12	0.017	
180	 3HB	2065.242	633.175	-2135.121	 H	12	GLN12	0.017	
181	 2HG	2066.216	635.324	-2136.105	 H	12	GLN12	0.035	
182	 3HG	2067.777	634.944	-2135.420	 H	12	GLN12	0.035	
183	1HE2	2065.719	635.636	-2132.137	 H	12	GLN12	0.425	
184	2HE2	2065.661	634.038	-2133.063	 H	12	GLN12	0.425	
185	   N	2068.997	631.872	-2136.064	N.am	13	LEU13	-0.416	
186	  CA	2070.437	631.937	-2136.295	C.3	13	LEU13	-0.052	
187	   C	2070.772	631.565	-2137.720	C.2	13	LEU13	0.597	
188	   O	2071.548	632.242	-2138.411	O.2	13	LEU13	-0.568	
189	  CB	2071.194	631.023	-2135.290	C.3	13	LEU13	-0.110	
190	  CG	2070.993	631.284	-2133.772	C.3	13	LEU13	0.353	
191	 CD1	2071.904	630.358	-2132.953	C.3	13	LEU13	-0.412	
192	 CD2	2071.256	632.748	-2133.381	C.3	13	LEU13	-0.412	
193	   H	2068.621	631.283	-2135.335	 H	13	LEU13	0.272	
194	  HA	2070.765	632.984	-2136.163	 H	13	LEU13	0.092	
195	 2HB	2072.278	631.079	-2135.511	 H	13	LEU13	0.046	
196	 3HB	2070.923	629.968	-2135.496	 H	13	LEU13	0.046	
197	  HG	2069.941	631.040	-2133.516	 H	13	LEU13	-0.036	
198	1HD1	2071.714	629.291	-2133.177	 H	13	LEU13	0.100	
199	2HD1	2072.977	630.546	-2133.147	 H	13	LEU13	0.100	
200	3HD1	2071.742	630.486	-2131.867	 H	13	LEU13	0.100	
201	1HD2	2072.265	633.086	-2133.677	 H	13	LEU13	0.100	
202	2HD2	2070.527	633.428	-2133.860	 H	13	LEU13	0.100	
203	3HD2	2071.153	632.909	-2132.292	 H	13	LEU13	0.100	
204	   N	2070.235	630.511	-2138.233	N.am	14	VAL14	-0.416	
205	  CA	2070.559	630.150	-2139.610	C.3	14	VAL14	-0.087	
206	   C	2070.229	631.279	-2140.557	C.2	14	VAL14	0.597	
207	   O	2071.022	631.659	-2141.427	O.2	14	VAL14	-0.568	
208	  CB	2069.785	628.833	-2140.016	C.3	14	VAL14	0.299	
209	 CG1	2069.873	628.413	-2141.509	C.3	14	VAL14	-0.319	
210	 CG2	2070.217	627.581	-2139.214	C.3	14	VAL14	-0.319	
211	   H	2069.600	629.943	-2137.690	 H	14	VAL14	0.272	
212	  HA	2071.647	629.972	-2139.686	 H	14	VAL14	0.097	
213	  HB	2068.709	629.005	-2139.799	 H	14	VAL14	-0.030	
214	1HG1	2070.914	628.235	-2141.838	 H	14	VAL14	0.079	
215	2HG1	2069.300	627.490	-2141.720	 H	14	VAL14	0.079	
216	3HG1	2069.444	629.175	-2142.188	 H	14	VAL14	0.079	
217	1HG2	2070.130	627.741	-2138.124	 H	14	VAL14	0.079	
218	2HG2	2069.580	626.705	-2139.445	 H	14	VAL14	0.079	
219	3HG2	2071.264	627.290	-2139.421	 H	14	VAL14	0.079	
220	   N	2069.084	631.865	-2140.455	N.am	15	MET15	-0.416	
221	  CA	2068.764	632.957	-2141.370	C.3	15	MET15	-0.024	
222	   C	2069.794	634.057	-2141.284	C.2	15	MET15	0.597	
223	   O	2070.296	634.566	-2142.298	O.2	15	MET15	-0.568	
224	  CB	2067.343	633.504	-2141.061	C.3	15	MET15	0.034	
225	  CG	2066.180	632.506	-2141.250	C.3	15	MET15	0.002	
226	  SD	2064.607	633.372	-2141.136	S.3	15	MET15	-0.274	
227	  CE	2063.525	631.943	-2140.997	C.3	15	MET15	-0.054	
228	   H	2068.420	631.573	-2139.753	 H	15	MET15	0.272	
229	  HA	2068.789	632.569	-2142.405	 H	15	MET15	0.088	
230	 2HB	2067.140	634.382	-2141.704	 H	15	MET15	0.024	
231	 3HB	2067.308	633.897	-2140.025	 H	15	MET15	0.024	
232	 2HG	2066.223	631.721	-2140.472	 H	15	MET15	0.044	
233	 3HG	2066.243	631.989	-2142.226	 H	15	MET15	0.044	
234	 1HE	2063.668	631.254	-2141.849	 H	15	MET15	0.068	
235	 2HE	2063.735	631.392	-2140.064	 H	15	MET15	0.068	
236	 3HE	2062.468	632.259	-2140.980	 H	15	MET15	0.068	
237	   N	2070.164	634.480	-2140.123	N.am	16	ARG16	-0.348	
238	  CA	2071.161	635.543	-2140.041	C.3	16	ARG16	-0.264	
239	   C	2072.431	635.149	-2140.758	C.2	16	ARG16	0.734	
240	   O	2072.544	634.071	-2141.338	O.2	16	ARG16	-0.589	
241	  CB	2071.432	635.863	-2138.544	C.3	16	ARG16	-0.001	
242	  CG	2072.258	637.152	-2138.273	C.3	16	ARG16	0.039	
243	  CD	2072.509	637.373	-2136.773	C.3	16	ARG16	0.049	
244	  NE	2073.286	638.632	-2136.574	N.pl3	16	ARG16	-0.530	
245	  CZ	2073.679	639.116	-2135.400	C.cat	16	ARG16	0.808	
246	 NH1	2073.432	638.533	-2134.260	N.pl3	16	ARG16	-0.863	
247	 NH2	2074.343	640.228	-2135.383	N.pl3	16	ARG16	-0.863	
248	   H	2069.770	634.081	-2139.282	 H	16	ARG16	0.275	
249	  HA	2070.752	636.436	-2140.552	 H	16	ARG16	0.156	
250	 2HB	2071.929	634.987	-2138.077	 H	16	ARG16	0.033	
251	 3HB	2070.464	635.945	-2138.009	 H	16	ARG16	0.033	
252	 2HG	2071.728	638.023	-2138.711	 H	16	ARG16	0.029	
253	 3HG	2073.231	637.098	-2138.803	 H	16	ARG16	0.029	
254	 2HD	2073.058	636.499	-2136.359	 H	16	ARG16	0.069	
255	 3HD	2071.537	637.417	-2136.237	 H	16	ARG16	0.069	
256	  HE	2073.564	639.212	-2137.372	 H	16	ARG16	0.346	
257	1HH1	2072.906	637.660	-2134.343	 H	16	ARG16	0.448	
258	2HH1	2073.767	638.970	-2133.400	 H	16	ARG16	0.448	
259	1HH2	2074.528	640.670	-2136.286	 H	16	ARG16	0.448	
260	2HH2	2074.634	640.585	-2134.472	 H	16	ARG16	0.448	
@<TRIPOS>BOND
1 1 2 1
2 1 10 1
3 2 3 1
4 2 5 1
5 2 11 1
6 3 4 2
7 3 16 1
8 5 6 1
9 6 7 1
10 7 8 2
11 7 9 1
12 5 12 1
13 5 13 1
14 6 14 1
15 6 15 1
16 16 17 1
17 16 24 1
18 17 18 1
19 17 20 1
20 17 25 1
21 18 19 2
22 18 30 1
23 20 21 1
24 21 22 1
25 21 23 2
26 20 26 1
27 20 27 1
28 22 28 1
29 22 29 1
30 30 31 1
31 30 36 1
32 31 32 1
33 31 34 1
34 31 37 1
35 32 33 2
36 32 44 1
37 34 35 1
38 35 36 1
39 34 38 1
40 34 39 1
41 35 40 1
42 35 41 1
43 36 42 1
44 36 43 1
45 44 45 1
46 44 53 1
47 45 46 1
48 45 48 1
49 45 54 1
50 46 47 2
51 46 59 1
52 48 49 1
53 49 50 1
54 50 51 2
55 50 52 1
56 48 55 1
57 48 56 1
58 49 57 1
59 49 58 1
60 59 60 1
61 59 65 1
62 60 61 1
63 60 63 1
64 60 66 1
65 61 62 2
66 61 70 1
67 63 64 1
68 63 67 1
69 63 68 1
70 64 69 1
71 70 71 1
72 70 78 1
73 71 72 1
74 71 74 1
75 71 79 1
76 72 73 2
77 72 89 1
78 74 75 1
79 74 76 1
80 75 77 1
81 74 80 1
82 75 81 1
83 75 82 1
84 76 83 1
85 76 84 1
86 76 85 1
87 77 86 1
88 77 87 1
89 77 88 1
90 89 90 1
91 89 97 1
92 90 91 1
93 90 93 1
94 90 98 1
95 91 92 2
96 91 108 1
97 93 94 1
98 94 95 1
99 94 96 1
100 93 99 1
101 93 100 1
102 94 101 1
103 95 102 1
104 95 103 1
105 95 104 1
106 96 105 1
107 96 106 1
108 96 107 1
109 108 109 1
110 108 116 1
111 109 110 1
112 109 112 1
113 109 117 1
114 110 111 2
115 110 120 1
116 112 113 1
117 113 114 2
118 113 115 1
119 112 118 1
120 112 119 1
121 120 121 1
122 120 129 1
123 121 122 1
124 121 124 1
125 121 130 1
126 122 123 2
127 122 135 1
128 124 125 1
129 125 126 1
130 126 127 2
131 126 128 1
132 124 131 1
133 124 132 1
134 125 133 1
135 125 134 1
136 135 136 1
137 135 145 1
138 136 137 1
139 136 139 1
140 136 146 1
141 137 138 2
142 137 152 1
143 139 140 1
144 140 141 2
145 141 144 1
146 140 142 1
147 142 143 2
148 143 144 1
149 139 147 1
150 139 148 1
151 141 149 1
152 143 150 1
153 144 151 1
154 152 153 1
155 152 159 1
156 153 154 1
157 153 156 1
158 153 160 1
159 154 155 2
160 154 168 1
161 156 157 1
162 156 158 1
163 156 161 1
164 157 162 1
165 157 163 1
166 157 164 1
167 158 165 1
168 158 166 1
169 158 167 1
170 168 169 1
171 168 177 1
172 169 170 1
173 169 172 1
174 169 178 1
175 170 171 2
176 170 185 1
177 172 173 1
178 173 174 1
179 174 175 1
180 174 176 2
181 172 179 1
182 172 180 1
183 173 181 1
184 173 182 1
185 175 183 1
186 175 184 1
187 185 186 1
188 185 193 1
189 186 187 1
190 186 189 1
191 186 194 1
192 187 188 2
193 187 204 1
194 189 190 1
195 190 191 1
196 190 192 1
197 189 195 1
198 189 196 1
199 190 197 1
200 191 198 1
201 191 199 1
202 191 200 1
203 192 201 1
204 192 202 1
205 192 203 1
206 204 205 1
207 204 211 1
208 205 206 1
209 205 208 1
210 205 212 1
211 206 207 2
212 206 220 1
213 208 209 1
214 208 210 1
215 208 213 1
216 209 214 1
217 209 215 1
218 209 216 1
219 210 217 1
220 210 218 1
221 210 219 1
222 220 221 1
223 220 228 1
224 221 222 1
225 221 224 1
226 221 229 1
227 222 223 2
228 222 237 1
229 224 225 1
230 225 226 1
231 226 227 1
232 224 230 1
233 224 231 1
234 225 232 1
235 225 233 1
236 227 234 1
237 227 235 1
238 227 236 1
239 237 238 1
240 237 248 1
241 238 239 1
242 238 241 1
243 238 249 1
244 239 240 2
245 241 242 1
246 242 243 1
247 243 244 1
248 244 245 1
249 245 246 2
250 245 247 1
251 241 250 1
252 241 251 1
253 242 252 1
254 242 253 1
255 243 254 1
256 243 255 1
257 244 256 1
258 246 257 1
259 246 258 1
260 247 259 1
261 247 260 1
@<TRIPOS>SUBSTRUCTURE
1	GLU1	1	RESIDUE	1 ****	GLU
2	ASN2	16	RESIDUE	1 ****	ASN
3	PRO3	30	RESIDUE	1 ****	PRO
4	GLU4	44	RESIDUE	1 ****	GLU
5	SER5	59	RESIDUE	1 ****	SER
6	ILE6	70	RESIDUE	1 ****	ILE
7	LEU7	89	RESIDUE	1 ****	LEU
8	ASP8	108	RESIDUE	1 ****	ASP
9	GLU9	120	RESIDUE	1 ****	GLU
10	HIS10	135	RESIDUE	1 ****	HIS
11	VAL11	152	RESIDUE	1 ****	VAL
12	GLN12	168	RESIDUE	1 ****	GLN
13	LEU13	185	RESIDUE	1 ****	LEU
14	VAL14	204	RESIDUE	1 ****	VAL
15	MET15	220	RESIDUE	1 ****	MET
16	ARG16	237	RESIDUE	1 ****	ARG
