@<TRIPOS>MOLECULE
11-17
261 262 16              
SMALL
USER_CHARGES
@<TRIPOS>ATOM
1	   N	1812.872	544.234	-1857.850	N.3	1	GLU1	-0.516	
2	  CA	1813.431	545.583	-1857.850	C.3	1	GLU1	0.040	
3	   C	1814.940	545.543	-1857.850	C.2	1	GLU1	0.537	
4	   O	1815.616	546.242	-1858.619	O.2	1	GLU1	-0.582	
5	  CB	1812.908	546.368	-1856.613	C.3	1	GLU1	0.056	
6	  CG	1813.383	547.853	-1856.502	C.3	1	GLU1	0.014	
7	  CD	1812.959	548.657	-1855.287	C.2	1	GLU1	0.805	
8	 OE1	1812.231	548.155	-1854.409	O.co2	1	GLU1	-0.819	
9	 OE2	1813.389	549.827	-1855.215	O.co2	1	GLU1	-0.819	
10	   H	1813.499	543.355	-1857.850	 H	1	GLU1	0.294	
11	  HA	1813.105	546.101	-1858.770	 H	1	GLU1	0.111	
12	 2HB	1813.197	545.837	-1855.683	 H	1	GLU1	-0.017	
13	 3HB	1811.801	546.358	-1856.600	 H	1	GLU1	-0.017	
14	 2HG	1813.073	548.438	-1857.383	 H	1	GLU1	-0.043	
15	 3HG	1814.483	547.920	-1856.473	 H	1	GLU1	-0.043	
16	   N	1815.544	544.757	-1857.025	N.am	2	ASN2	-0.416	
17	  CA	1817.004	544.719	-1857.025	C.3	2	ASN2	0.014	
18	   C	1817.535	544.363	-1858.394	C.2	2	ASN2	0.597	
19	   O	1818.450	544.993	-1858.922	O.2	2	ASN2	-0.568	
20	  CB	1817.496	543.695	-1855.961	C.3	2	ASN2	-0.204	
21	  CG	1817.032	543.919	-1854.517	C.2	2	ASN2	0.713	
22	 ND2	1817.627	544.834	-1853.799	N.pl3	2	ASN2	-0.919	
23	 OD1	1816.112	543.286	-1854.023	O.2	2	ASN2	-0.593	
24	   H	1815.016	544.178	-1856.388	 H	2	ASN2	0.272	
25	  HA	1817.381	545.729	-1856.780	 H	2	ASN2	0.105	
26	 2HB	1818.600	543.636	-1855.964	 H	2	ASN2	0.080	
27	 3HB	1817.167	542.677	-1856.246	 H	2	ASN2	0.080	
28	1HD2	1817.146	545.007	-1852.912	 H	2	ASN2	0.420	
29	2HD2	1818.329	545.406	-1854.268	 H	2	ASN2	0.420	
30	   N	1817.013	543.368	-1859.028	N.am	3	PRO3	-0.255	
31	  CA	1817.465	542.959	-1860.349	C.3	3	PRO3	-0.027	
32	   C	1817.067	543.982	-1861.426	C.2	3	PRO3	0.590	
33	   O	1817.890	544.365	-1862.258	O.2	3	PRO3	-0.575	
34	  CB	1816.761	541.604	-1860.518	C.3	3	PRO3	-0.007	
35	  CG	1815.478	541.756	-1859.688	C.3	3	PRO3	0.019	
36	  CD	1815.935	542.575	-1858.478	C.3	3	PRO3	0.019	
37	  HA	1818.551	542.839	-1860.363	 H	3	PRO3	0.064	
38	 2HB	1817.384	540.823	-1860.078	 H	3	PRO3	0.025	
39	 3HB	1816.563	541.355	-1861.564	 H	3	PRO3	0.025	
40	 2HG	1815.050	540.794	-1859.397	 H	3	PRO3	0.021	
41	 3HG	1814.740	542.327	-1860.255	 H	3	PRO3	0.021	
42	 2HD	1816.325	541.925	-1857.691	 H	3	PRO3	0.039	
43	 3HD	1815.139	543.211	-1858.085	 H	3	PRO3	0.039	
44	   N	1815.862	544.442	-1861.458	N.am	4	GLU4	-0.516	
45	  CA	1815.503	545.413	-1862.488	C.3	4	GLU4	0.040	
46	   C	1816.402	546.624	-1862.427	C.2	4	GLU4	0.537	
47	   O	1816.928	547.104	-1863.441	O.2	4	GLU4	-0.582	
48	  CB	1814.014	545.832	-1862.318	C.3	4	GLU4	0.056	
49	  CG	1813.466	546.836	-1863.383	C.3	4	GLU4	0.014	
50	  CD	1812.040	547.333	-1863.240	C.2	4	GLU4	0.805	
51	 OE1	1811.313	546.934	-1862.309	O.co2	4	GLU4	-0.819	
52	 OE2	1811.650	548.162	-1864.088	O.co2	4	GLU4	-0.819	
53	   H	1815.178	544.135	-1860.782	 H	4	GLU4	0.294	
54	  HA	1815.634	544.943	-1863.479	 H	4	GLU4	0.111	
55	 2HB	1813.862	546.272	-1861.311	 H	4	GLU4	-0.017	
56	 3HB	1813.366	544.934	-1862.324	 H	4	GLU4	-0.017	
57	 2HG	1813.548	546.421	-1864.401	 H	4	GLU4	-0.043	
58	 3HG	1814.054	547.768	-1863.394	 H	4	GLU4	-0.043	
59	   N	1816.629	547.177	-1861.284	N.am	5	SER5	-0.416	
60	  CA	1817.499	548.348	-1861.225	C.3	5	SER5	-0.025	
61	   C	1818.857	548.043	-1861.811	C.2	5	SER5	0.597	
62	   O	1819.405	548.796	-1862.616	O.2	5	SER5	-0.568	
63	  CB	1817.610	548.881	-1859.775	C.3	5	SER5	0.212	
64	  OG	1818.342	548.001	-1858.914	O.3	5	SER5	-0.655	
65	   H	1816.212	546.805	-1860.442	 H	5	SER5	0.272	
66	  HA	1817.049	549.138	-1861.854	 H	5	SER5	0.084	
67	 2HB	1816.610	549.074	-1859.341	 H	5	SER5	0.035	
68	 3HB	1818.115	549.866	-1859.777	 H	5	SER5	0.035	
69	  HG	1817.853	547.176	-1858.863	 H	5	SER5	0.428	
70	   N	1819.462	546.960	-1861.457	N.am	6	ILE6	-0.416	
71	  CA	1820.775	546.665	-1862.023	C.3	6	ILE6	-0.060	
72	   C	1820.718	546.627	-1863.531	C.2	6	ILE6	0.597	
73	   O	1821.553	547.215	-1864.234	O.2	6	ILE6	-0.568	
74	  CB	1821.375	545.329	-1861.423	C.3	6	ILE6	0.130	
75	 CG1	1821.395	545.267	-1859.862	C.3	6	ILE6	-0.043	
76	 CG2	1822.817	545.027	-1861.938	C.3	6	ILE6	-0.320	
77	 CD1	1821.665	543.878	-1859.247	C.3	6	ILE6	-0.066	
78	   H	1819.034	546.325	-1860.797	 H	6	ILE6	0.272	
79	  HA	1821.449	547.499	-1861.755	 H	6	ILE6	0.087	
80	  HB	1820.718	544.503	-1861.767	 H	6	ILE6	0.019	
81	2HG1	1820.413	545.586	-1859.466	 H	6	ILE6	0.024	
82	3HG1	1822.111	546.009	-1859.457	 H	6	ILE6	0.024	
83	1HG2	1822.875	544.934	-1863.037	 H	6	ILE6	0.088	
84	2HG2	1823.539	545.810	-1861.636	 H	6	ILE6	0.088	
85	3HG2	1823.207	544.065	-1861.559	 H	6	ILE6	0.088	
86	1HD1	1820.937	543.123	-1859.601	 H	6	ILE6	0.019	
87	2HD1	1822.676	543.499	-1859.483	 H	6	ILE6	0.019	
88	3HD1	1821.589	543.907	-1858.144	 H	6	ILE6	0.019	
89	   N	1819.772	545.964	-1864.104	N.am	7	LEU7	-0.416	
90	  CA	1819.718	545.928	-1865.563	C.3	7	LEU7	-0.052	
91	   C	1819.645	547.323	-1866.135	C.2	7	LEU7	0.597	
92	   O	1820.366	547.686	-1867.077	O.2	7	LEU7	-0.568	
93	  CB	1818.515	545.067	-1866.043	C.3	7	LEU7	-0.110	
94	  CG	1818.442	543.588	-1865.577	C.3	7	LEU7	0.353	
95	 CD1	1817.252	542.882	-1866.242	C.3	7	LEU7	-0.412	
96	 CD2	1819.736	542.809	-1865.868	C.3	7	LEU7	-0.412	
97	   H	1819.081	545.477	-1863.553	 H	7	LEU7	0.272	
98	  HA	1820.659	545.488	-1865.937	 H	7	LEU7	0.092	
99	 2HB	1818.491	545.083	-1867.151	 H	7	LEU7	0.046	
100	 3HB	1817.575	545.570	-1865.739	 H	7	LEU7	0.046	
101	  HG	1818.272	543.580	-1864.480	 H	7	LEU7	-0.036	
102	1HD1	1816.295	543.391	-1866.020	 H	7	LEU7	0.100	
103	2HD1	1817.352	542.842	-1867.344	 H	7	LEU7	0.100	
104	3HD1	1817.146	541.841	-1865.886	 H	7	LEU7	0.100	
105	1HD2	1820.011	542.839	-1866.938	 H	7	LEU7	0.100	
106	2HD2	1820.589	543.221	-1865.297	 H	7	LEU7	0.100	
107	3HD2	1819.655	541.747	-1865.572	 H	7	LEU7	0.100	
108	   N	1818.807	548.163	-1865.629	N.am	8	ASP8	-0.516	
109	  CA	1818.737	549.513	-1866.182	C.3	8	ASP8	0.038	
110	   C	1820.083	550.193	-1866.125	C.2	8	ASP8	0.537	
111	   O	1820.556	550.799	-1867.099	O.2	8	ASP8	-0.582	
112	  CB	1817.658	550.352	-1865.440	C.3	8	ASP8	-0.030	
113	  CG	1817.439	551.772	-1865.981	C.2	8	ASP8	0.799	
114	 OD1	1817.504	551.972	-1867.211	O.co2	8	ASP8	-0.801	
115	 OD2	1817.247	552.698	-1865.165	O.co2	8	ASP8	-0.801	
116	   H	1818.209	547.892	-1864.862	 H	8	ASP8	0.294	
117	  HA	1818.454	549.435	-1867.249	 H	8	ASP8	0.088	
118	 2HB	1817.916	550.435	-1864.368	 H	8	ASP8	-0.012	
119	 3HB	1816.680	549.846	-1865.473	 H	8	ASP8	-0.012	
120	   N	1820.763	550.143	-1865.030	N.am	9	GLU9	-0.516	
121	  CA	1822.066	550.801	-1864.974	C.3	9	GLU9	0.040	
122	   C	1822.984	550.274	-1866.050	C.2	9	GLU9	0.537	
123	   O	1823.647	551.029	-1866.776	O.2	9	GLU9	-0.582	
124	  CB	1822.699	550.594	-1863.569	C.3	9	GLU9	0.056	
125	  CG	1824.082	551.287	-1863.340	C.3	9	GLU9	0.014	
126	  CD	1824.784	551.073	-1862.012	C.2	9	GLU9	0.805	
127	 OE1	1824.263	550.382	-1861.115	O.co2	9	GLU9	-0.819	
128	 OE2	1825.903	551.612	-1861.880	O.co2	9	GLU9	-0.819	
129	   H	1820.400	549.656	-1864.223	 H	9	GLU9	0.294	
130	  HA	1821.923	551.883	-1865.150	 H	9	GLU9	0.111	
131	 2HB	1822.813	549.509	-1863.366	 H	9	GLU9	-0.017	
132	 3HB	1822.002	550.947	-1862.785	 H	9	GLU9	-0.017	
133	 2HG	1824.009	552.377	-1863.479	 H	9	GLU9	-0.043	
134	 3HG	1824.828	550.942	-1864.074	 H	9	GLU9	-0.043	
135	   N	1823.081	548.999	-1866.220	N.am	10	HIS10	-0.416	
136	  CA	1823.969	548.488	-1867.261	C.3	10	HIS10	-0.058	
137	   C	1823.602	549.053	-1868.612	C.2	10	HIS10	0.597	
138	   O	1824.454	549.518	-1869.383	O.2	10	HIS10	-0.568	
139	  CB	1823.806	546.959	-1867.256	C.3	10	HIS10	-0.007	
140	  CG	1825.092	546.250	-1866.948	C.2	10	HIS10	0.187	
141	 CD2	1825.473	545.914	-1865.656	C.2	10	HIS10	-0.221	
142	 ND1	1826.044	545.845	-1867.881	N.2	10	HIS10	-0.543	
143	 CE1	1826.951	545.287	-1867.058	C.2	10	HIS10	0.163	
144	 NE2	1826.688	545.283	-1865.723	N.pl3	10	HIS10	-0.280	
145	   H	1822.551	548.363	-1865.642	 H	10	HIS10	0.272	
146	  HA	1824.988	548.846	-1867.036	 H	10	HIS10	0.136	
147	 2HB	1823.441	546.593	-1868.236	 H	10	HIS10	0.037	
148	 3HB	1823.050	546.622	-1866.516	 H	10	HIS10	0.037	
149	 2HD	1824.888	546.129	-1864.767	 H	10	HIS10	0.186	
150	 1HE	1827.842	544.866	-1867.505	 H	10	HIS10	0.144	
151	 2HE	1827.255	544.906	-1864.950	 H	10	HIS10	0.334	
152	   N	1822.364	549.052	-1868.974	N.am	11	ASP11	-0.516	
153	  CA	1822.008	549.598	-1870.281	C.3	11	ASP11	0.038	
154	   C	1822.471	551.028	-1870.414	C.2	11	ASP11	0.537	
155	   O	1823.073	551.433	-1871.421	O.2	11	ASP11	-0.582	
156	  CB	1820.477	549.484	-1870.522	C.3	11	ASP11	-0.030	
157	  CG	1819.987	549.962	-1871.897	C.2	11	ASP11	0.799	
158	 OD1	1820.694	549.746	-1872.903	O.co2	11	ASP11	-0.801	
159	 OD2	1818.913	550.596	-1871.962	O.co2	11	ASP11	-0.801	
160	   H	1821.651	548.678	-1868.364	 H	11	ASP11	0.294	
161	  HA	1822.534	549.009	-1871.057	 H	11	ASP11	0.088	
162	 2HB	1819.929	550.058	-1869.752	 H	11	ASP11	-0.012	
163	 3HB	1820.140	548.441	-1870.412	 H	11	ASP11	-0.012	
164	   N	1822.234	551.855	-1869.453	N.am	12	GLN12	-0.416	
165	  CA	1822.681	553.238	-1869.582	C.3	12	GLN12	-0.003	
166	   C	1824.171	553.306	-1869.820	C.2	12	GLN12	0.597	
167	   O	1824.658	554.013	-1870.699	O.2	12	GLN12	-0.568	
168	  CB	1822.291	554.007	-1868.299	C.3	12	GLN12	-0.004	
169	  CG	1822.650	555.529	-1868.270	C.3	12	GLN12	-0.064	
170	  CD	1822.348	556.343	-1867.006	C.2	12	GLN12	0.695	
171	 NE2	1821.782	555.767	-1865.976	N.pl3	12	GLN12	-0.941	
172	 OE1	1822.649	557.524	-1866.930	O.2	12	GLN12	-0.609	
173	   H	1821.746	551.549	-1868.623	 H	12	GLN12	0.272	
174	  HA	1822.181	553.693	-1870.457	 H	12	GLN12	0.085	
175	 2HB	1822.768	553.507	-1867.430	 H	12	GLN12	0.017	
176	 3HB	1821.201	553.898	-1868.135	 H	12	GLN12	0.017	
177	 2HG	1822.172	556.048	-1869.121	 H	12	GLN12	0.035	
178	 3HG	1823.734	555.671	-1868.436	 H	12	GLN12	0.035	
179	1HE2	1821.675	556.362	-1865.153	 H	12	GLN12	0.425	
180	2HE2	1821.619	554.764	-1866.078	 H	12	GLN12	0.425	
181	   N	1824.957	552.600	-1869.079	N.am	13	ARG13	-0.348	
182	  CA	1826.397	552.666	-1869.311	C.3	13	ARG13	-0.264	
183	   C	1826.733	552.294	-1870.735	C.2	13	ARG13	0.734	
184	   O	1827.500	552.965	-1871.420	O.2	13	ARG13	-0.589	
185	  CB	1827.111	551.729	-1868.296	C.3	13	ARG13	-0.001	
186	  CG	1828.656	551.883	-1868.216	C.3	13	ARG13	0.039	
187	  CD	1829.284	550.896	-1867.217	C.3	13	ARG13	0.049	
188	  NE	1830.761	551.105	-1867.168	N.pl3	13	ARG13	-0.530	
189	  CZ	1831.610	550.414	-1866.412	C.cat	13	ARG13	0.808	
190	 NH1	1831.246	549.450	-1865.614	N.pl3	13	ARG13	-0.863	
191	 NH2	1832.869	550.714	-1866.470	N.pl3	13	ARG13	-0.863	
192	   H	1824.581	552.011	-1868.350	 H	13	ARG13	0.275	
193	  HA	1826.721	553.713	-1869.153	 H	13	ARG13	0.156	
194	 2HB	1826.845	550.678	-1868.534	 H	13	ARG13	0.033	
195	 3HB	1826.686	551.896	-1867.285	 H	13	ARG13	0.033	
196	 2HG	1828.903	552.928	-1867.938	 H	13	ARG13	0.029	
197	 3HG	1829.106	551.726	-1869.217	 H	13	ARG13	0.029	
198	 2HD	1829.040	549.856	-1867.526	 H	13	ARG13	0.069	
199	 3HD	1828.828	551.043	-1866.215	 H	13	ARG13	0.069	
200	  HE	1831.211	551.827	-1867.740	 H	13	ARG13	0.346	
201	1HH1	1830.240	549.264	-1865.616	 H	13	ARG13	0.448	
202	2HH1	1831.959	548.968	-1865.065	 H	13	ARG13	0.448	
203	1HH2	1833.136	551.471	-1867.102	 H	13	ARG13	0.448	
204	2HH2	1833.505	550.173	-1865.881	 H	13	ARG13	0.448	
205	   N	1826.197	551.239	-1871.249	N.am	14	VAL14	-0.416	
206	  CA	1826.521	550.878	-1872.626	C.3	14	VAL14	-0.087	
207	   C	1826.190	552.008	-1873.573	C.2	14	VAL14	0.597	
208	   O	1826.983	552.388	-1874.443	O.2	14	VAL14	-0.568	
209	  CB	1825.749	549.561	-1873.032	C.3	14	VAL14	0.299	
210	 CG1	1825.838	549.141	-1874.525	C.3	14	VAL14	-0.319	
211	 CG2	1826.182	548.309	-1872.230	C.3	14	VAL14	-0.319	
212	   H	1825.562	550.670	-1870.706	 H	14	VAL14	0.272	
213	  HA	1827.610	550.702	-1872.701	 H	14	VAL14	0.097	
214	  HB	1824.673	549.731	-1872.815	 H	14	VAL14	-0.030	
215	1HG1	1826.879	548.965	-1874.854	 H	14	VAL14	0.079	
216	2HG1	1825.266	548.218	-1874.737	 H	14	VAL14	0.079	
217	3HG1	1825.408	549.903	-1875.203	 H	14	VAL14	0.079	
218	1HG2	1826.096	548.469	-1871.140	 H	14	VAL14	0.079	
219	2HG2	1825.547	547.432	-1872.462	 H	14	VAL14	0.079	
220	3HG2	1827.230	548.020	-1872.436	 H	14	VAL14	0.079	
221	   N	1825.045	552.593	-1873.471	N.am	15	MET15	-0.416	
222	  CA	1824.724	553.685	-1874.386	C.3	15	MET15	-0.024	
223	   C	1825.754	554.785	-1874.299	C.2	15	MET15	0.597	
224	   O	1826.256	555.295	-1875.312	O.2	15	MET15	-0.568	
225	  CB	1823.302	554.230	-1874.077	C.3	15	MET15	0.034	
226	  CG	1822.141	553.231	-1874.267	C.3	15	MET15	0.002	
227	  SD	1820.567	554.097	-1874.153	S.3	15	MET15	-0.274	
228	  CE	1819.486	552.667	-1874.015	C.3	15	MET15	-0.054	
229	   H	1824.380	552.300	-1872.769	 H	15	MET15	0.272	
230	  HA	1824.750	553.296	-1875.421	 H	15	MET15	0.088	
231	 2HB	1823.099	555.108	-1874.720	 H	15	MET15	0.024	
232	 3HB	1823.267	554.623	-1873.041	 H	15	MET15	0.024	
233	 2HG	1822.184	552.446	-1873.489	 H	15	MET15	0.044	
234	 3HG	1822.204	552.715	-1875.243	 H	15	MET15	0.044	
235	 1HE	1819.630	551.978	-1874.867	 H	15	MET15	0.068	
236	 2HE	1819.696	552.115	-1873.082	 H	15	MET15	0.068	
237	 3HE	1818.428	552.981	-1873.998	 H	15	MET15	0.068	
238	   N	1826.122	555.207	-1873.137	N.am	16	ARG16	-0.348	
239	  CA	1827.119	556.272	-1873.055	C.3	16	ARG16	-0.264	
240	   C	1828.389	555.879	-1873.771	C.2	16	ARG16	0.734	
241	   O	1828.503	554.802	-1874.351	O.2	16	ARG16	-0.589	
242	  CB	1827.388	556.591	-1871.557	C.3	16	ARG16	-0.001	
243	  CG	1828.212	557.881	-1871.285	C.3	16	ARG16	0.039	
244	  CD	1828.462	558.102	-1869.784	C.3	16	ARG16	0.049	
245	  NE	1829.238	559.361	-1869.585	N.pl3	16	ARG16	-0.530	
246	  CZ	1829.629	559.844	-1868.410	C.cat	16	ARG16	0.808	
247	 NH1	1829.382	559.261	-1867.270	N.pl3	16	ARG16	-0.863	
248	 NH2	1830.293	560.957	-1868.392	N.pl3	16	ARG16	-0.863	
249	   H	1825.728	554.808	-1872.298	 H	16	ARG16	0.275	
250	  HA	1826.709	557.164	-1873.565	 H	16	ARG16	0.156	
251	 2HB	1827.885	555.716	-1871.090	 H	16	ARG16	0.033	
252	 3HB	1826.419	556.672	-1871.023	 H	16	ARG16	0.033	
253	 2HG	1827.682	558.751	-1871.723	 H	16	ARG16	0.029	
254	 3HG	1829.186	557.828	-1871.814	 H	16	ARG16	0.029	
255	 2HD	1829.012	557.227	-1869.370	 H	16	ARG16	0.069	
256	 3HD	1827.490	558.144	-1869.249	 H	16	ARG16	0.069	
257	  HE	1829.516	559.941	-1870.382	 H	16	ARG16	0.346	
258	1HH1	1828.857	558.388	-1867.354	 H	16	ARG16	0.448	
259	2HH1	1829.717	559.698	-1866.410	 H	16	ARG16	0.448	
260	1HH2	1830.478	561.400	-1869.295	 H	16	ARG16	0.448	
261	2HH2	1830.583	561.313	-1867.480	 H	16	ARG16	0.448	
@<TRIPOS>BOND
1 1 2 1
2 1 10 1
3 2 3 1
4 2 5 1
5 2 11 1
6 3 4 2
7 3 16 1
8 5 6 1
9 6 7 1
10 7 8 2
11 7 9 1
12 5 12 1
13 5 13 1
14 6 14 1
15 6 15 1
16 16 17 1
17 16 24 1
18 17 18 1
19 17 20 1
20 17 25 1
21 18 19 2
22 18 30 1
23 20 21 1
24 21 22 1
25 21 23 2
26 20 26 1
27 20 27 1
28 22 28 1
29 22 29 1
30 30 31 1
31 30 36 1
32 31 32 1
33 31 34 1
34 31 37 1
35 32 33 2
36 32 44 1
37 34 35 1
38 35 36 1
39 34 38 1
40 34 39 1
41 35 40 1
42 35 41 1
43 36 42 1
44 36 43 1
45 44 45 1
46 44 53 1
47 45 46 1
48 45 48 1
49 45 54 1
50 46 47 2
51 46 59 1
52 48 49 1
53 49 50 1
54 50 51 2
55 50 52 1
56 48 55 1
57 48 56 1
58 49 57 1
59 49 58 1
60 59 60 1
61 59 65 1
62 60 61 1
63 60 63 1
64 60 66 1
65 61 62 2
66 61 70 1
67 63 64 1
68 63 67 1
69 63 68 1
70 64 69 1
71 70 71 1
72 70 78 1
73 71 72 1
74 71 74 1
75 71 79 1
76 72 73 2
77 72 89 1
78 74 75 1
79 74 76 1
80 75 77 1
81 74 80 1
82 75 81 1
83 75 82 1
84 76 83 1
85 76 84 1
86 76 85 1
87 77 86 1
88 77 87 1
89 77 88 1
90 89 90 1
91 89 97 1
92 90 91 1
93 90 93 1
94 90 98 1
95 91 92 2
96 91 108 1
97 93 94 1
98 94 95 1
99 94 96 1
100 93 99 1
101 93 100 1
102 94 101 1
103 95 102 1
104 95 103 1
105 95 104 1
106 96 105 1
107 96 106 1
108 96 107 1
109 108 109 1
110 108 116 1
111 109 110 1
112 109 112 1
113 109 117 1
114 110 111 2
115 110 120 1
116 112 113 1
117 113 114 2
118 113 115 1
119 112 118 1
120 112 119 1
121 120 121 1
122 120 129 1
123 121 122 1
124 121 124 1
125 121 130 1
126 122 123 2
127 122 135 1
128 124 125 1
129 125 126 1
130 126 127 2
131 126 128 1
132 124 131 1
133 124 132 1
134 125 133 1
135 125 134 1
136 135 136 1
137 135 145 1
138 136 137 1
139 136 139 1
140 136 146 1
141 137 138 2
142 137 152 1
143 139 140 1
144 140 141 2
145 141 144 1
146 140 142 1
147 142 143 2
148 143 144 1
149 139 147 1
150 139 148 1
151 141 149 1
152 143 150 1
153 144 151 1
154 152 153 1
155 152 160 1
156 153 154 1
157 153 156 1
158 153 161 1
159 154 155 2
160 154 164 1
161 156 157 1
162 157 158 2
163 157 159 1
164 156 162 1
165 156 163 1
166 164 165 1
167 164 173 1
168 165 166 1
169 165 168 1
170 165 174 1
171 166 167 2
172 166 181 1
173 168 169 1
174 169 170 1
175 170 171 1
176 170 172 2
177 168 175 1
178 168 176 1
179 169 177 1
180 169 178 1
181 171 179 1
182 171 180 1
183 181 182 1
184 181 192 1
185 182 183 1
186 182 185 1
187 182 193 1
188 183 184 2
189 183 205 1
190 185 186 1
191 186 187 1
192 187 188 1
193 188 189 1
194 189 190 2
195 189 191 1
196 185 194 1
197 185 195 1
198 186 196 1
199 186 197 1
200 187 198 1
201 187 199 1
202 188 200 1
203 190 201 1
204 190 202 1
205 191 203 1
206 191 204 1
207 205 206 1
208 205 212 1
209 206 207 1
210 206 209 1
211 206 213 1
212 207 208 2
213 207 221 1
214 209 210 1
215 209 211 1
216 209 214 1
217 210 215 1
218 210 216 1
219 210 217 1
220 211 218 1
221 211 219 1
222 211 220 1
223 221 222 1
224 221 229 1
225 222 223 1
226 222 225 1
227 222 230 1
228 223 224 2
229 223 238 1
230 225 226 1
231 226 227 1
232 227 228 1
233 225 231 1
234 225 232 1
235 226 233 1
236 226 234 1
237 228 235 1
238 228 236 1
239 228 237 1
240 238 239 1
241 238 249 1
242 239 240 1
243 239 242 1
244 239 250 1
245 240 241 2
246 242 243 1
247 243 244 1
248 244 245 1
249 245 246 1
250 246 247 2
251 246 248 1
252 242 251 1
253 242 252 1
254 243 253 1
255 243 254 1
256 244 255 1
257 244 256 1
258 245 257 1
259 247 258 1
260 247 259 1
261 248 260 1
262 248 261 1
@<TRIPOS>SUBSTRUCTURE
1	GLU1	1	RESIDUE	1 ****	GLU
2	ASN2	16	RESIDUE	1 ****	ASN
3	PRO3	30	RESIDUE	1 ****	PRO
4	GLU4	44	RESIDUE	1 ****	GLU
5	SER5	59	RESIDUE	1 ****	SER
6	ILE6	70	RESIDUE	1 ****	ILE
7	LEU7	89	RESIDUE	1 ****	LEU
8	ASP8	108	RESIDUE	1 ****	ASP
9	GLU9	120	RESIDUE	1 ****	GLU
10	HIS10	135	RESIDUE	1 ****	HIS
11	ASP11	152	RESIDUE	1 ****	ASP
12	GLN12	164	RESIDUE	1 ****	GLN
13	ARG13	181	RESIDUE	1 ****	ARG
14	VAL14	205	RESIDUE	1 ****	VAL
15	MET15	221	RESIDUE	1 ****	MET
16	ARG16	238	RESIDUE	1 ****	ARG
