REMARK WARNING: 32 MAX_TORS EXCEEDED!!!
REMARK  69 active torsions:
REMARK  status: ('A' for Active; 'I' for Inactive)
REMARK    1  A    between atoms: N_1  and  CA_2 
REMARK    2  A    between atoms: CA_2  and  C_3 
REMARK    3  A    between atoms: CA_2  and  CB_5 
REMARK       I    between atoms: C_3  and  N_11 
REMARK    4  A    between atoms: CB_5  and  CG_6 
REMARK    5  A    between atoms: CG_6  and  CD_7 
REMARK    6  A    between atoms: N_11  and  CA_12 
REMARK    7  A    between atoms: CA_12  and  C_13 
REMARK    8  A    between atoms: CA_12  and  CB_15 
REMARK       I    between atoms: C_13  and  N_22 
REMARK    9  A    between atoms: CB_15  and  CG_16 
REMARK       I    between atoms: CG_16  and  ND2_17 
REMARK   10  A    between atoms: CA_23  and  C_24 
REMARK       I    between atoms: C_24  and  N_29 
REMARK   11  A    between atoms: N_29  and  CA_30 
REMARK   12  A    between atoms: CA_30  and  C_31 
REMARK   13  A    between atoms: CA_30  and  CB_33 
REMARK       I    between atoms: C_31  and  N_39 
REMARK   14  A    between atoms: CB_33  and  CG_34 
REMARK   15  A    between atoms: CG_34  and  CD_35 
REMARK   16  A    between atoms: N_39  and  CA_40 
REMARK   17  A    between atoms: CA_40  and  C_41 
REMARK   18  A    between atoms: CA_40  and  CB_43 
REMARK       I    between atoms: C_41  and  N_47 
REMARK   19  A    between atoms: CB_43  and  OG_44 
REMARK   20  A    between atoms: N_47  and  CA_48 
REMARK   21  A    between atoms: CA_48  and  C_49 
REMARK   22  A    between atoms: CA_48  and  CB_51 
REMARK       I    between atoms: C_49  and  N_56 
REMARK   23  A    between atoms: CB_51  and  CG1_52 
REMARK   24  A    between atoms: N_56  and  CA_57 
REMARK   25  A    between atoms: CA_57  and  C_58 
REMARK   26  A    between atoms: CA_57  and  CB_60 
REMARK       I    between atoms: C_58  and  N_65 
REMARK   27  A    between atoms: CB_60  and  CG_61 
REMARK   28  A    between atoms: N_65  and  CA_66 
REMARK   29  A    between atoms: CA_66  and  C_67 
REMARK   30  A    between atoms: CA_66  and  CB_69 
REMARK       I    between atoms: C_67  and  N_74 
REMARK   31  A    between atoms: CB_69  and  CG_70 
REMARK   32  A    between atoms: N_74  and  CA_75 
REMARK   33  A    between atoms: CA_75  and  C_76 
REMARK   34  A    between atoms: CA_75  and  CB_78 
REMARK       I    between atoms: C_76  and  N_84 
REMARK   35  A    between atoms: CB_78  and  CG_79 
REMARK   36  A    between atoms: CG_79  and  CD_80 
REMARK   37  A    between atoms: N_84  and  CA_85 
REMARK   38  A    between atoms: CA_85  and  C_86 
REMARK   39  A    between atoms: CA_85  and  CB_88 
REMARK       I    between atoms: C_86  and  N_96 
REMARK   40  A    between atoms: CB_88  and  CG_89 
REMARK   41  A    between atoms: N_96  and  CA_97 
REMARK   42  A    between atoms: CA_97  and  C_98 
REMARK   43  A    between atoms: CA_97  and  CB_100 
REMARK       I    between atoms: C_98  and  N_105 
REMARK   44  A    between atoms: CB_100  and  CG_101 
REMARK   45  A    between atoms: N_105  and  CA_106 
REMARK   46  A    between atoms: CA_106  and  C_107 
REMARK   47  A    between atoms: CA_106  and  CB_109 
REMARK       I    between atoms: C_107  and  N_117 
REMARK   48  A    between atoms: CB_109  and  CG_110 
REMARK   49  A    between atoms: CG_110  and  CD_111 
REMARK       I    between atoms: CD_111  and  NE2_112 
REMARK   50  A    between atoms: N_117  and  CA_118 
REMARK   51  A    between atoms: CA_118  and  C_119 
REMARK   52  A    between atoms: CA_118  and  CB_121 
REMARK       I    between atoms: C_119  and  N_134 
REMARK   53  A    between atoms: CB_121  and  CG_122 
REMARK   54  A    between atoms: CG_122  and  CD_123 
REMARK   55  A    between atoms: CD_123  and  NE_124 
REMARK       I    between atoms: NE_124  and  CZ_125 
REMARK       I    between atoms: CZ_125  and  NH1_126 
REMARK       I    between atoms: CZ_125  and  NH2_127 
REMARK   56  A    between atoms: N_134  and  CA_135 
REMARK   57  A    between atoms: CA_135  and  C_136 
REMARK   58  A    between atoms: CA_135  and  CB_138 
REMARK       I    between atoms: C_136  and  N_142 
REMARK   59  A    between atoms: N_142  and  CA_143 
REMARK   60  A    between atoms: CA_143  and  C_144 
REMARK   61  A    between atoms: CA_143  and  CB_146 
REMARK       I    between atoms: C_144  and  N_151 
REMARK   62  A    between atoms: CB_146  and  CG_147 
REMARK   63  A    between atoms: CG_147  and  SD_148 
REMARK   64  A    between atoms: N_151  and  CA_152 
REMARK   65  A    between atoms: CA_152  and  C_153 
REMARK   66  A    between atoms: CA_152  and  CB_155 
REMARK   67  A    between atoms: CB_155  and  CG_156 
REMARK   68  A    between atoms: CG_156  and  CD_157 
REMARK   69  A    between atoms: CD_157  and  NE_158 
REMARK       I    between atoms: NE_158  and  CZ_159 
REMARK       I    between atoms: CZ_159  and  NH1_160 
ROOT
ATOM      1  C   GLU d   9    1822.984 550.274-1866.050  0.00  0.00     0.241 C 
ATOM      2  O   GLU d   9    1823.647 551.029-1866.776  0.00  0.00    -0.271 OA
ATOM      3  N   HIS d  10    1823.081 548.999-1866.220  0.00  0.00    -0.346 N 
ATOM      4  H   HIS d  10    1822.551 548.363-1865.642  0.00  0.00     0.163 HD
ENDROOT
BRANCH   3   5
ATOM      5  CA  HIS d  10    1823.969 548.488-1867.261  0.00  0.00     0.182 C 
BRANCH   5   6
ATOM      6  C   HIS d  10    1823.602 549.053-1868.612  0.00  0.00     0.241 C 
ATOM      7  O   HIS d  10    1824.454 549.518-1869.383  0.00  0.00    -0.271 OA
ATOM      8  N   ASP d  11    1822.364 549.052-1868.974  0.00  0.00    -0.345 N 
ATOM      9  H   ASP d  11    1821.651 548.678-1868.364  0.00  0.00     0.163 HD
BRANCH   8  10
ATOM     10  CA  ASP d  11    1822.008 549.598-1870.281  0.00  0.00     0.186 C 
BRANCH  10  11
ATOM     11  C   ASP d  11    1822.471 551.028-1870.414  0.00  0.00     0.241 C 
ATOM     12  O   ASP d  11    1823.073 551.433-1871.421  0.00  0.00    -0.271 OA
ATOM     13  N   GLN d  12    1822.234 551.855-1869.453  0.00  0.00    -0.346 N 
ATOM     14  H   GLN d  12    1821.746 551.549-1868.623  0.00  0.00     0.163 HD
BRANCH  13  15
ATOM     15  CA  GLN d  12    1822.681 553.238-1869.582  0.00  0.00     0.177 C 
BRANCH  15  16
ATOM     16  C   GLN d  12    1824.171 553.306-1869.820  0.00  0.00     0.241 C 
ATOM     17  O   GLN d  12    1824.658 554.013-1870.699  0.00  0.00    -0.271 OA
ATOM     18  N   ARG d  13    1824.957 552.600-1869.079  0.00  0.00    -0.346 N 
ATOM     19  H   ARG d  13    1824.581 552.011-1868.350  0.00  0.00     0.163 HD
BRANCH  18  20
ATOM     20  CA  ARG d  13    1826.397 552.666-1869.311  0.00  0.00     0.176 C 
BRANCH  20  21
ATOM     21  C   ARG d  13    1826.733 552.294-1870.735  0.00  0.00     0.241 C 
ATOM     22  O   ARG d  13    1827.500 552.965-1871.420  0.00  0.00    -0.271 OA
ATOM     23  N   VAL d  14    1826.197 551.239-1871.249  0.00  0.00    -0.346 N 
ATOM     24  H   VAL d  14    1825.562 550.670-1870.706  0.00  0.00     0.163 HD
BRANCH  23  25
ATOM     25  CA  VAL d  14    1826.521 550.878-1872.626  0.00  0.00     0.180 C 
BRANCH  25  26
ATOM     26  C   VAL d  14    1826.190 552.008-1873.573  0.00  0.00     0.241 C 
ATOM     27  O   VAL d  14    1826.983 552.388-1874.443  0.00  0.00    -0.271 OA
ATOM     28  N   MET d  15    1825.045 552.593-1873.471  0.00  0.00    -0.346 N 
ATOM     29  H   MET d  15    1824.380 552.300-1872.769  0.00  0.00     0.163 HD
BRANCH  28  30
ATOM     30  CA  MET d  15    1824.724 553.685-1874.386  0.00  0.00     0.177 C 
BRANCH  30  31
ATOM     31  C   MET d  15    1825.754 554.785-1874.299  0.00  0.00     0.241 C 
ATOM     32  O   MET d  15    1826.256 555.295-1875.312  0.00  0.00    -0.271 OA
ATOM     33  N   ARG d  16    1826.122 555.207-1873.137  0.00  0.00    -0.347 N 
ATOM     34  H   ARG d  16    1825.728 554.808-1872.298  0.00  0.00     0.163 HD
BRANCH  33  35
ATOM     35  CA  ARG d  16    1827.119 556.272-1873.055  0.00  0.00     0.162 C 
BRANCH  35  36
ATOM     36  C   ARG d  16    1828.389 555.879-1873.771  0.00  0.00     0.219 C 
ATOM     37  O   ARG d  16    1828.503 554.802-1874.351  0.00  0.00    -0.287 OA
ENDBRANCH  35  36
BRANCH  35  38
ATOM     38  CB  ARG d  16    1827.388 556.591-1871.557  0.00  0.00     0.035 C 
BRANCH  38  39
ATOM     39  CG  ARG d  16    1828.212 557.881-1871.285  0.00  0.00     0.023 C 
BRANCH  39  40
ATOM     40  CD  ARG d  16    1828.462 558.102-1869.784  0.00  0.00     0.138 C 
BRANCH  40  41
ATOM     41  NE  ARG d  16    1829.238 559.361-1869.585  0.00  0.00    -0.227 N 
ATOM     42  CZ  ARG d  16    1829.629 559.844-1868.410  0.00  0.00     0.665 C 
ATOM     43  NH1 ARG d  16    1829.382 559.261-1867.270  0.00  0.00    -0.235 N 
ATOM     44  NH2 ARG d  16    1830.293 560.957-1868.392  0.00  0.00    -0.235 N 
ATOM     45 11HH ARG d  16    1828.857 558.388-1867.354  0.00  0.00     0.174 HD
ATOM     46 12HH ARG d  16    1829.717 559.698-1866.410  0.00  0.00     0.174 HD
ATOM     47 21HH ARG d  16    1830.478 561.400-1869.295  0.00  0.00     0.174 HD
ATOM     48 22HH ARG d  16    1830.583 561.313-1867.480  0.00  0.00     0.174 HD
ATOM     49  HE  ARG d  16    1829.516 559.941-1870.382  0.00  0.00     0.177 HD
ENDBRANCH  40  41
ENDBRANCH  39  40
ENDBRANCH  38  39
ENDBRANCH  35  38
ENDBRANCH  33  35
ENDBRANCH  30  31
BRANCH  30  50
ATOM     50  CB  MET d  15    1823.302 554.230-1874.077  0.00  0.00     0.045 C 
BRANCH  50  51
ATOM     51  CG  MET d  15    1822.141 553.231-1874.267  0.00  0.00     0.076 C 
BRANCH  51  52
ATOM     52  SD  MET d  15    1820.567 554.097-1874.153  0.00  0.00    -0.173 SA
ATOM     53  CE  MET d  15    1819.486 552.667-1874.015  0.00  0.00     0.089 C 
ENDBRANCH  51  52
ENDBRANCH  50  51
ENDBRANCH  30  50
ENDBRANCH  28  30
ENDBRANCH  25  26
BRANCH  25  54
ATOM     54  CB  VAL d  14    1825.749 549.561-1873.032  0.00  0.00     0.009 C 
ATOM     55  CG1 VAL d  14    1825.838 549.141-1874.525  0.00  0.00     0.012 C 
ATOM     56  CG2 VAL d  14    1826.182 548.309-1872.230  0.00  0.00     0.012 C 
ENDBRANCH  25  54
ENDBRANCH  23  25
ENDBRANCH  20  21
BRANCH  20  57
ATOM     57  CB  ARG d  13    1827.111 551.729-1868.296  0.00  0.00     0.036 C 
BRANCH  57  58
ATOM     58  CG  ARG d  13    1828.656 551.883-1868.216  0.00  0.00     0.023 C 
BRANCH  58  59
ATOM     59  CD  ARG d  13    1829.284 550.896-1867.217  0.00  0.00     0.138 C 
BRANCH  59  60
ATOM     60  NE  ARG d  13    1830.761 551.105-1867.168  0.00  0.00    -0.227 N 
ATOM     61  CZ  ARG d  13    1831.610 550.414-1866.412  0.00  0.00     0.665 C 
ATOM     62  NH1 ARG d  13    1831.246 549.450-1865.614  0.00  0.00    -0.235 N 
ATOM     63  NH2 ARG d  13    1832.869 550.714-1866.470  0.00  0.00    -0.235 N 
ATOM     64 11HH ARG d  13    1830.240 549.264-1865.616  0.00  0.00     0.174 HD
ATOM     65 12HH ARG d  13    1831.959 548.968-1865.065  0.00  0.00     0.174 HD
ATOM     66 21HH ARG d  13    1833.136 551.471-1867.102  0.00  0.00     0.174 HD
ATOM     67 22HH ARG d  13    1833.505 550.173-1865.881  0.00  0.00     0.174 HD
ATOM     68  HE  ARG d  13    1831.211 551.827-1867.740  0.00  0.00     0.177 HD
ENDBRANCH  59  60
ENDBRANCH  58  59
ENDBRANCH  57  58
ENDBRANCH  20  57
ENDBRANCH  18  20
ENDBRANCH  15  16
BRANCH  15  69
ATOM     69  CB  GLN d  12    1822.291 554.007-1868.299  0.00  0.00     0.044 C 
BRANCH  69  70
ATOM     70  CG  GLN d  12    1822.650 555.529-1868.270  0.00  0.00     0.105 C 
BRANCH  70  71
ATOM     71  CD  GLN d  12    1822.348 556.343-1867.006  0.00  0.00     0.215 C 
ATOM     72  NE2 GLN d  12    1821.782 555.767-1865.976  0.00  0.00    -0.370 N 
ATOM     73 21HE GLN d  12    1821.675 556.362-1865.153  0.00  0.00     0.159 HD
ATOM     74 22HE GLN d  12    1821.619 554.764-1866.078  0.00  0.00     0.159 HD
ATOM     75  OE1 GLN d  12    1822.649 557.524-1866.930  0.00  0.00    -0.274 OA
ENDBRANCH  70  71
ENDBRANCH  69  70
ENDBRANCH  15  69
ENDBRANCH  13  15
ENDBRANCH  10  11
BRANCH  10  76
ATOM     76  CB  ASP d  11    1820.477 549.484-1870.522  0.00  0.00     0.147 C 
BRANCH  76  77
ATOM     77  CG  ASP d  11    1819.987 549.962-1871.897  0.00  0.00     0.175 C 
ATOM     78  OD1 ASP d  11    1820.694 549.746-1872.903  0.00  0.00    -0.648 OA
ATOM     79  OD2 ASP d  11    1818.913 550.596-1871.962  0.00  0.00    -0.648 OA
ENDBRANCH  76  77
ENDBRANCH  10  76
ENDBRANCH   8  10
ENDBRANCH   5   6
BRANCH   5  80
ATOM     80  CB  HIS d  10    1823.806 546.959-1867.256  0.00  0.00     0.095 C 
BRANCH  80  81
ATOM     81  CG  HIS d  10    1825.092 546.250-1866.948  0.00  0.00     0.053 A 
ATOM     82  CD2 HIS d  10    1825.473 545.914-1865.656  0.00  0.00     0.116 A 
ATOM     83  NE2 HIS d  10    1826.688 545.283-1865.723  0.00  0.00    -0.359 N 
ATOM     84  CE1 HIS d  10    1826.951 545.287-1867.058  0.00  0.00     0.207 A 
ATOM     85  2HE HIS d  10    1827.255 544.906-1864.950  0.00  0.00     0.166 HD
ATOM     86  ND1 HIS d  10    1826.044 545.845-1867.881  0.00  0.00    -0.247 NA
ENDBRANCH  80  81
ENDBRANCH   5  80
ENDBRANCH   3   5
BRANCH   1  87
ATOM     87  CA  GLU d   9    1822.066 550.801-1864.974  0.00  0.00     0.177 C 
BRANCH  87  88
ATOM     88  N   GLU d   9    1820.763 550.143-1865.030  0.00  0.00    -0.346 N 
ATOM     89  C   ASP d   8    1820.083 550.193-1866.125  0.00  0.00     0.241 C 
ATOM     90  O   ASP d   8    1820.556 550.799-1867.099  0.00  0.00    -0.271 OA
ATOM     91  H   GLU d   9    1820.400 549.656-1864.223  0.00  0.00     0.163 HD
BRANCH  89  92
ATOM     92  CA  ASP d   8    1818.737 549.513-1866.182  0.00  0.00     0.186 C 
BRANCH  92  93
ATOM     93  N   ASP d   8    1818.807 548.163-1865.629  0.00  0.00    -0.346 N 
ATOM     94  C   LEU d   7    1819.645 547.323-1866.135  0.00  0.00     0.241 C 
ATOM     95  O   LEU d   7    1820.366 547.686-1867.077  0.00  0.00    -0.271 OA
ATOM     96  H   ASP d   8    1818.209 547.892-1864.862  0.00  0.00     0.163 HD
BRANCH  94  97
ATOM     97  CA  LEU d   7    1819.718 545.928-1865.563  0.00  0.00     0.177 C 
BRANCH  97  98
ATOM     98  N   LEU d   7    1819.772 545.964-1864.104  0.00  0.00    -0.346 N 
ATOM     99  C   ILE d   6    1820.718 546.627-1863.531  0.00  0.00     0.241 C 
ATOM    100  O   ILE d   6    1821.553 547.215-1864.234  0.00  0.00    -0.271 OA
ATOM    101  H   LEU d   7    1819.081 545.477-1863.553  0.00  0.00     0.163 HD
BRANCH  99 102
ATOM    102  CA  ILE d   6    1820.775 546.665-1862.023  0.00  0.00     0.180 C 
BRANCH 102 103
ATOM    103  N   ILE d   6    1819.462 546.960-1861.457  0.00  0.00    -0.346 N 
ATOM    104  C   SER d   5    1818.857 548.043-1861.811  0.00  0.00     0.243 C 
ATOM    105  O   SER d   5    1819.405 548.796-1862.616  0.00  0.00    -0.271 OA
ATOM    106  H   ILE d   6    1819.034 546.325-1860.797  0.00  0.00     0.163 HD
BRANCH 104 107
ATOM    107  CA  SER d   5    1817.499 548.348-1861.225  0.00  0.00     0.200 C 
BRANCH 107 108
ATOM    108  N   SER d   5    1816.629 547.177-1861.284  0.00  0.00    -0.344 N 
ATOM    109  C   GLU d   4    1816.402 546.624-1862.427  0.00  0.00     0.241 C 
ATOM    110  O   GLU d   4    1816.928 547.104-1863.441  0.00  0.00    -0.271 OA
ATOM    111  H   SER d   5    1816.212 546.805-1860.442  0.00  0.00     0.163 HD
BRANCH 109 112
ATOM    112  CA  GLU d   4    1815.503 545.413-1862.488  0.00  0.00     0.177 C 
BRANCH 112 113
ATOM    113  N   GLU d   4    1815.862 544.442-1861.458  0.00  0.00    -0.346 N 
ATOM    114  C   PRO d   3    1817.067 543.982-1861.426  0.00  0.00     0.241 C 
ATOM    115  O   PRO d   3    1817.890 544.365-1862.258  0.00  0.00    -0.271 OA
ATOM    116  H   GLU d   4    1815.178 544.135-1860.782  0.00  0.00     0.163 HD
BRANCH 114 117
ATOM    117  CA  PRO d   3    1817.465 542.959-1860.349  0.00  0.00     0.179 C 
ATOM    118  N   PRO d   3    1817.013 543.368-1859.028  0.00  0.00    -0.337 N 
ATOM    119  C   ASN d   2    1817.535 544.363-1858.394  0.00  0.00     0.243 C 
ATOM    120  CD  PRO d   3    1815.935 542.575-1858.478  0.00  0.00     0.127 C 
ATOM    121  O   ASN d   2    1818.450 544.993-1858.922  0.00  0.00    -0.271 OA
ATOM    122  CG  PRO d   3    1815.478 541.756-1859.688  0.00  0.00     0.022 C 
ATOM    123  CB  PRO d   3    1816.761 541.604-1860.518  0.00  0.00     0.037 C 
BRANCH 119 124
ATOM    124  CA  ASN d   2    1817.004 544.719-1857.025  0.00  0.00     0.185 C 
BRANCH 124 125
ATOM    125  N   ASN d   2    1815.544 544.757-1857.025  0.00  0.00    -0.346 N 
ATOM    126  C   GLU d   1    1814.940 545.543-1857.850  0.00  0.00     0.242 C 
ATOM    127  O   GLU d   1    1815.616 546.242-1858.619  0.00  0.00    -0.271 OA
ATOM    128  H   ASN d   2    1815.016 544.178-1856.388  0.00  0.00     0.163 HD
BRANCH 126 129
ATOM    129  CA  GLU d   1    1813.431 545.583-1857.850  0.00  0.00     0.191 C 
BRANCH 129 130
ATOM    130  N   GLU d   1    1812.872 544.234-1857.850  0.00  0.00    -0.326 NA
ATOM    131  H   GLU d   1    1813.499 543.355-1857.850  0.00  0.00     0.180 HD
ENDBRANCH 129 130
BRANCH 129 132
ATOM    132  CB  GLU d   1    1812.908 546.368-1856.613  0.00  0.00     0.047 C 
BRANCH 132 133
ATOM    133  CG  GLU d   1    1813.383 547.853-1856.502  0.00  0.00     0.116 C 
BRANCH 133 134
ATOM    134  CD  GLU d   1    1812.959 548.657-1855.287  0.00  0.00     0.172 C 
ATOM    135  OE1 GLU d   1    1812.231 548.155-1854.409  0.00  0.00    -0.648 OA
ATOM    136  OE2 GLU d   1    1813.389 549.827-1855.215  0.00  0.00    -0.648 OA
ENDBRANCH 133 134
ENDBRANCH 132 133
ENDBRANCH 129 132
ENDBRANCH 126 129
ENDBRANCH 124 125
BRANCH 124 137
ATOM    137  CB  ASN d   2    1817.496 543.695-1855.961  0.00  0.00     0.137 C 
BRANCH 137 138
ATOM    138  CG  ASN d   2    1817.032 543.919-1854.517  0.00  0.00     0.217 C 
ATOM    139  ND2 ASN d   2    1817.627 544.834-1853.799  0.00  0.00    -0.370 N 
ATOM    140 21HD ASN d   2    1817.146 545.007-1852.912  0.00  0.00     0.159 HD
ATOM    141 22HD ASN d   2    1818.329 545.406-1854.268  0.00  0.00     0.159 HD
ATOM    142  OD1 ASN d   2    1816.112 543.286-1854.023  0.00  0.00    -0.274 OA
ENDBRANCH 137 138
ENDBRANCH 124 137
ENDBRANCH 119 124
ENDBRANCH 114 117
ENDBRANCH 112 113
BRANCH 112 143
ATOM    143  CB  GLU d   4    1814.014 545.832-1862.318  0.00  0.00     0.045 C 
BRANCH 143 144
ATOM    144  CG  GLU d   4    1813.466 546.836-1863.383  0.00  0.00     0.116 C 
BRANCH 144 145
ATOM    145  CD  GLU d   4    1812.040 547.333-1863.240  0.00  0.00     0.172 C 
ATOM    146  OE1 GLU d   4    1811.313 546.934-1862.309  0.00  0.00    -0.648 OA
ATOM    147  OE2 GLU d   4    1811.650 548.162-1864.088  0.00  0.00    -0.648 OA
ENDBRANCH 144 145
ENDBRANCH 143 144
ENDBRANCH 112 143
ENDBRANCH 109 112
ENDBRANCH 107 108
BRANCH 107 148
ATOM    148  CB  SER d   5    1817.610 548.881-1859.775  0.00  0.00     0.199 C 
BRANCH 148 149
ATOM    149  OG  SER d   5    1818.342 548.001-1858.914  0.00  0.00    -0.398 OA
ATOM    150  HG  SER d   5    1817.853 547.176-1858.863  0.00  0.00     0.209 HD
ENDBRANCH 148 149
ENDBRANCH 107 148
ENDBRANCH 104 107
ENDBRANCH 102 103
BRANCH 102 151
ATOM    151  CB  ILE d   6    1821.375 545.329-1861.423  0.00  0.00     0.013 C 
ATOM    152  CG2 ILE d   6    1822.817 545.027-1861.938  0.00  0.00     0.012 C 
BRANCH 151 153
ATOM    153  CG1 ILE d   6    1821.395 545.267-1859.862  0.00  0.00     0.002 C 
ATOM    154  CD1 ILE d   6    1821.665 543.878-1859.247  0.00  0.00     0.005 C 
ENDBRANCH 151 153
ENDBRANCH 102 151
ENDBRANCH  99 102
ENDBRANCH  97  98
BRANCH  97 155
ATOM    155  CB  LEU d   7    1818.515 545.067-1866.043  0.00  0.00     0.038 C 
BRANCH 155 156
ATOM    156  CG  LEU d   7    1818.442 543.588-1865.577  0.00  0.00    -0.020 C 
ATOM    157  CD1 LEU d   7    1817.252 542.882-1866.242  0.00  0.00     0.009 C 
ATOM    158  CD2 LEU d   7    1819.736 542.809-1865.868  0.00  0.00     0.009 C 
ENDBRANCH 155 156
ENDBRANCH  97 155
ENDBRANCH  94  97
ENDBRANCH  92  93
BRANCH  92 159
ATOM    159  CB  ASP d   8    1817.658 550.352-1865.440  0.00  0.00     0.147 C 
BRANCH 159 160
ATOM    160  CG  ASP d   8    1817.439 551.772-1865.981  0.00  0.00     0.175 C 
ATOM    161  OD1 ASP d   8    1817.504 551.972-1867.211  0.00  0.00    -0.648 OA
ATOM    162  OD2 ASP d   8    1817.247 552.698-1865.165  0.00  0.00    -0.648 OA
ENDBRANCH 159 160
ENDBRANCH  92 159
ENDBRANCH  89  92
ENDBRANCH  87  88
BRANCH  87 163
ATOM    163  CB  GLU d   9    1822.699 550.594-1863.569  0.00  0.00     0.045 C 
BRANCH 163 164
ATOM    164  CG  GLU d   9    1824.082 551.287-1863.340  0.00  0.00     0.116 C 
BRANCH 164 165
ATOM    165  CD  GLU d   9    1824.784 551.073-1862.012  0.00  0.00     0.172 C 
ATOM    166  OE1 GLU d   9    1824.263 550.382-1861.115  0.00  0.00    -0.648 OA
ATOM    167  OE2 GLU d   9    1825.903 551.612-1861.880  0.00  0.00    -0.648 OA
ENDBRANCH 164 165
ENDBRANCH 163 164
ENDBRANCH  87 163
ENDBRANCH   1  87
TORSDOF 69
