@<TRIPOS>MOLECULE
1-7
269 270 16              
SMALL
USER_CHARGES
@<TRIPOS>ATOM
1	   N	53.216	9.782	-33.827	N.3	1	LEU1	-0.416	
2	  CA	53.784	11.127	-33.827	C.3	1	LEU1	-0.052	
3	   C	55.293	11.076	-33.827	C.2	1	LEU1	0.597	
4	   O	55.975	11.770	-34.596	O.2	1	LEU1	-0.568	
5	  CB	53.256	11.943	-32.613	C.3	1	LEU1	-0.110	
6	  CG	51.721	12.128	-32.469	C.3	1	LEU1	0.353	
7	 CD1	51.409	13.049	-31.281	C.3	1	LEU1	-0.412	
8	 CD2	51.068	12.688	-33.744	C.3	1	LEU1	-0.412	
9	   H	53.805	8.943	-33.827	 H	1	LEU1	0.272	
10	  HA	53.491	11.630	-34.766	 H	1	LEU1	0.092	
11	 2HB	53.726	12.946	-32.633	 H	1	LEU1	0.046	
12	 3HB	53.635	11.478	-31.681	 H	1	LEU1	0.046	
13	  HG	51.272	11.135	-32.257	 H	1	LEU1	-0.036	
14	1HD1	51.828	12.656	-30.335	 H	1	LEU1	0.100	
15	2HD1	51.819	14.067	-31.421	 H	1	LEU1	0.100	
16	3HD1	50.320	13.155	-31.123	 H	1	LEU1	0.100	
17	1HD2	51.521	13.645	-34.061	 H	1	LEU1	0.100	
18	2HD2	51.167	11.981	-34.589	 H	1	LEU1	0.100	
19	3HD2	49.983	12.857	-33.613	 H	1	LEU1	0.100	
20	   N	55.892	10.286	-33.002	N.am	2	ASN2	-0.416	
21	  CA	57.351	10.236	-33.002	C.3	2	ASN2	0.014	
22	   C	57.880	9.877	-34.370	C.2	2	ASN2	0.597	
23	   O	58.799	10.501	-34.899	O.2	2	ASN2	-0.568	
24	  CB	57.836	9.210	-31.937	C.3	2	ASN2	-0.204	
25	  CG	57.374	9.437	-30.494	C.2	2	ASN2	0.713	
26	 ND2	57.975	10.348	-29.776	N.pl3	2	ASN2	-0.919	
27	 OD1	56.449	8.810	-30.000	O.2	2	ASN2	-0.593	
28	   H	55.360	9.710	-32.366	 H	2	ASN2	0.272	
29	  HA	57.736	11.244	-32.757	 H	2	ASN2	0.105	
30	 2HB	58.939	9.143	-31.941	 H	2	ASN2	0.080	
31	 3HB	57.499	8.194	-32.223	 H	2	ASN2	0.080	
32	1HD2	57.495	10.524	-28.889	 H	2	ASN2	0.420	
33	2HD2	58.681	10.914	-30.245	 H	2	ASN2	0.420	
34	   N	57.351	8.886	-35.004	N.am	3	PRO3	-0.255	
35	  CA	57.800	8.473	-36.326	C.3	3	PRO3	-0.027	
36	   C	57.409	9.500	-37.403	C.2	3	PRO3	0.590	
37	   O	58.235	9.877	-38.234	O.2	3	PRO3	-0.575	
38	  CB	57.086	7.124	-36.495	C.3	3	PRO3	-0.007	
39	  CG	55.804	7.285	-35.665	C.3	3	PRO3	0.019	
40	  CD	56.267	8.101	-34.456	C.3	3	PRO3	0.019	
41	  HA	58.885	8.345	-36.340	 H	3	PRO3	0.064	
42	 2HB	57.703	6.338	-36.055	 H	3	PRO3	0.025	
43	 3HB	56.886	6.877	-37.541	 H	3	PRO3	0.025	
44	 2HG	55.369	6.326	-35.374	 H	3	PRO3	0.021	
45	 3HG	55.070	7.861	-36.233	 H	3	PRO3	0.021	
46	 2HD	56.652	7.448	-33.668	 H	3	PRO3	0.039	
47	 3HD	55.475	8.742	-34.062	 H	3	PRO3	0.039	
48	   N	56.208	9.968	-37.435	N.am	4	GLU4	-0.516	
49	  CA	55.855	10.942	-38.465	C.3	4	GLU4	0.040	
50	   C	56.763	12.146	-38.404	C.2	4	GLU4	0.537	
51	   O	57.293	12.622	-39.418	O.2	4	GLU4	-0.582	
52	  CB	54.370	11.371	-38.295	C.3	4	GLU4	0.056	
53	  CG	53.829	12.379	-39.360	C.3	4	GLU4	0.014	
54	  CD	52.406	12.886	-39.217	C.2	4	GLU4	0.805	
55	 OE1	51.677	12.493	-38.286	O.co2	4	GLU4	-0.819	
56	 OE2	52.023	13.718	-40.065	O.co2	4	GLU4	-0.819	
57	   H	55.522	9.666	-36.759	 H	4	GLU4	0.294	
58	  HA	55.983	10.470	-39.456	 H	4	GLU4	0.111	
59	 2HB	54.221	11.812	-37.288	 H	4	GLU4	-0.017	
60	 3HB	53.716	10.478	-38.301	 H	4	GLU4	-0.017	
61	 2HG	53.908	11.963	-40.378	 H	4	GLU4	-0.043	
62	 3HG	54.424	13.307	-39.372	 H	4	GLU4	-0.043	
63	   N	56.994	12.698	-37.261	N.am	5	SER5	-0.416	
64	  CA	57.872	13.863	-37.202	C.3	5	SER5	-0.025	
65	   C	59.229	13.547	-37.788	C.2	5	SER5	0.597	
66	   O	59.782	14.297	-38.592	O.2	5	SER5	-0.568	
67	  CB	57.988	14.394	-35.752	C.3	5	SER5	0.212	
68	  OG	58.713	13.510	-34.891	O.3	5	SER5	-0.655	
69	   H	56.575	12.329	-36.419	 H	5	SER5	0.272	
70	  HA	57.429	14.656	-37.831	 H	5	SER5	0.084	
71	 2HB	56.989	14.595	-35.318	 H	5	SER5	0.035	
72	 3HB	58.500	15.376	-35.754	 H	5	SER5	0.035	
73	  HG	58.218	12.688	-34.840	 H	5	SER5	0.428	
74	   N	59.826	12.460	-37.433	N.am	6	ILE6	-0.416	
75	  CA	61.137	12.156	-38.000	C.3	6	ILE6	-0.060	
76	   C	61.080	12.118	-39.507	C.2	6	ILE6	0.597	
77	   O	61.918	12.700	-40.211	O.2	6	ILE6	-0.568	
78	  CB	61.727	10.815	-37.400	C.3	6	ILE6	0.130	
79	 CG1	61.746	10.753	-35.839	C.3	6	ILE6	-0.043	
80	 CG2	63.166	10.503	-37.915	C.3	6	ILE6	-0.320	
81	 CD1	62.006	9.362	-35.224	C.3	6	ILE6	-0.066	
82	   H	59.393	11.829	-36.775	 H	6	ILE6	0.272	
83	  HA	61.817	12.985	-37.732	 H	6	ILE6	0.087	
84	  HB	61.063	9.994	-37.744	 H	6	ILE6	0.019	
85	2HG1	60.766	11.080	-35.443	 H	6	ILE6	0.024	
86	3HG1	62.467	11.490	-35.434	 H	6	ILE6	0.024	
87	1HG2	63.224	10.409	-39.013	 H	6	ILE6	0.088	
88	2HG2	63.894	11.280	-37.613	 H	6	ILE6	0.088	
89	3HG2	63.549	9.538	-37.536	 H	6	ILE6	0.088	
90	1HD1	61.272	8.613	-35.578	 H	6	ILE6	0.019	
91	2HD1	63.014	8.976	-35.459	 H	6	ILE6	0.019	
92	3HD1	61.930	9.392	-34.121	 H	6	ILE6	0.019	
93	   N	60.129	11.462	-40.081	N.am	7	LEU7	-0.416	
94	  CA	60.074	11.426	-41.540	C.3	7	LEU7	-0.052	
95	   C	60.011	12.822	-42.112	C.2	7	LEU7	0.597	
96	   O	60.735	13.179	-43.054	O.2	7	LEU7	-0.568	
97	  CB	58.865	10.574	-42.020	C.3	7	LEU7	-0.110	
98	  CG	58.781	9.096	-41.554	C.3	7	LEU7	0.353	
99	 CD1	57.586	8.398	-42.219	C.3	7	LEU7	-0.412	
100	 CD2	60.069	8.307	-41.845	C.3	7	LEU7	-0.412	
101	   H	59.433	10.979	-39.530	 H	7	LEU7	0.272	
102	  HA	61.012	10.979	-41.914	 H	7	LEU7	0.092	
103	 2HB	58.842	10.591	-43.128	 H	7	LEU7	0.046	
104	 3HB	57.929	11.084	-41.716	 H	7	LEU7	0.046	
105	  HG	58.611	9.089	-40.457	 H	7	LEU7	-0.036	
106	1HD1	56.633	8.914	-41.997	 H	7	LEU7	0.100	
107	2HD1	57.685	8.357	-43.320	 H	7	LEU7	0.100	
108	3HD1	57.472	7.358	-41.863	 H	7	LEU7	0.100	
109	1HD2	60.345	8.335	-42.915	 H	7	LEU7	0.100	
110	2HD2	60.926	8.713	-41.274	 H	7	LEU7	0.100	
111	3HD2	59.980	7.245	-41.549	 H	7	LEU7	0.100	
112	   N	59.180	13.668	-41.606	N.am	8	ASP8	-0.516	
113	  CA	59.119	15.018	-42.159	C.3	8	ASP8	0.038	
114	   C	60.471	15.689	-42.102	C.2	8	ASP8	0.537	
115	   O	60.948	16.290	-43.076	O.2	8	ASP8	-0.582	
116	  CB	58.047	15.865	-41.417	C.3	8	ASP8	-0.030	
117	  CG	57.838	17.287	-41.958	C.2	8	ASP8	0.799	
118	 OD1	57.904	17.486	-43.188	O.co2	8	ASP8	-0.801	
119	 OD2	57.653	18.214	-41.142	O.co2	8	ASP8	-0.801	
120	   H	58.580	13.401	-40.838	 H	8	ASP8	0.294	
121	  HA	58.836	14.943	-43.226	 H	8	ASP8	0.088	
122	 2HB	58.305	15.946	-40.345	 H	8	ASP8	-0.012	
123	 3HB	57.065	15.367	-41.450	 H	8	ASP8	-0.012	
124	   N	61.150	15.634	-41.006	N.am	9	GLU9	-0.516	
125	  CA	62.457	16.282	-40.951	C.3	9	GLU9	0.040	
126	   C	63.372	15.748	-42.027	C.2	9	GLU9	0.537	
127	   O	64.041	16.498	-42.752	O.2	9	GLU9	-0.582	
128	  CB	63.089	16.070	-39.546	C.3	9	GLU9	0.056	
129	  CG	64.477	16.752	-39.316	C.3	9	GLU9	0.014	
130	  CD	65.177	16.534	-37.988	C.2	9	GLU9	0.805	
131	 OE1	64.651	15.847	-37.092	O.co2	9	GLU9	-0.819	
132	 OE2	66.300	17.064	-37.856	O.co2	9	GLU9	-0.819	
133	   H	60.783	15.150	-40.199	 H	9	GLU9	0.294	
134	  HA	62.323	17.365	-41.126	 H	9	GLU9	0.111	
135	 2HB	63.195	14.985	-39.342	 H	9	GLU9	-0.017	
136	 3HB	62.395	16.428	-38.761	 H	9	GLU9	-0.017	
137	 2HG	64.413	17.844	-39.456	 H	9	GLU9	-0.043	
138	 3HG	65.221	16.402	-40.050	 H	9	GLU9	-0.043	
139	   N	63.459	14.472	-42.196	N.am	10	HIS10	-0.416	
140	  CA	64.344	13.955	-43.237	C.3	10	HIS10	-0.058	
141	   C	63.981	14.522	-44.588	C.2	10	HIS10	0.597	
142	   O	64.837	14.981	-45.360	O.2	10	HIS10	-0.568	
143	  CB	64.169	12.427	-43.232	C.3	10	HIS10	-0.007	
144	  CG	65.450	11.708	-42.924	C.2	10	HIS10	0.187	
145	 CD2	65.828	11.370	-41.631	C.2	10	HIS10	-0.221	
146	 ND1	66.399	11.296	-43.856	N.2	10	HIS10	-0.543	
147	 CE1	67.301	10.731	-43.033	C.2	10	HIS10	0.163	
148	 NE2	67.039	10.730	-41.698	N.pl3	10	HIS10	-0.280	
149	   H	62.924	13.841	-41.618	 H	10	HIS10	0.272	
150	  HA	65.365	14.305	-43.012	 H	10	HIS10	0.136	
151	 2HB	63.801	12.063	-44.212	 H	10	HIS10	0.037	
152	 3HB	63.411	12.095	-42.492	 H	10	HIS10	0.037	
153	 2HD	65.244	11.589	-40.742	 H	10	HIS10	0.186	
154	 1HE	68.189	10.304	-43.480	 H	10	HIS10	0.144	
155	 2HE	67.603	10.348	-40.925	 H	10	HIS10	0.334	
156	   N	62.743	14.530	-44.951	N.am	11	VAL11	-0.416	
157	  CA	62.392	15.078	-46.258	C.3	11	VAL11	-0.087	
158	   C	62.866	16.506	-46.390	C.2	11	VAL11	0.597	
159	   O	63.470	16.907	-47.393	O.2	11	VAL11	-0.568	
160	  CB	60.830	14.983	-46.477	C.3	11	VAL11	0.299	
161	 CG1	60.266	15.691	-47.740	C.3	11	VAL11	-0.319	
162	 CG2	60.295	13.532	-46.551	C.3	11	VAL11	-0.319	
163	   H	62.028	14.162	-44.341	 H	11	VAL11	0.272	
164	  HA	62.908	14.493	-47.040	 H	11	VAL11	0.097	
165	  HB	60.346	15.466	-45.602	 H	11	VAL11	-0.030	
166	1HG1	60.702	15.296	-48.677	 H	11	VAL11	0.079	
167	2HG1	59.167	15.591	-47.822	 H	11	VAL11	0.079	
168	3HG1	60.452	16.782	-47.731	 H	11	VAL11	0.079	
169	1HG2	60.581	12.943	-45.660	 H	11	VAL11	0.079	
170	2HG2	59.189	13.503	-46.593	 H	11	VAL11	0.079	
171	3HG2	60.673	12.989	-47.437	 H	11	VAL11	0.079	
172	   N	62.635	17.333	-45.428	N.am	12	GLN12	-0.416	
173	  CA	63.093	18.713	-45.554	C.3	12	GLN12	-0.003	
174	   C	64.583	18.770	-45.792	C.2	12	GLN12	0.597	
175	   O	65.076	19.475	-46.671	O.2	12	GLN12	-0.568	
176	  CB	62.707	19.483	-44.272	C.3	12	GLN12	-0.004	
177	  CG	63.078	21.002	-44.240	C.3	12	GLN12	-0.064	
178	  CD	62.781	21.817	-42.975	C.2	12	GLN12	0.695	
179	 NE2	62.210	21.245	-41.947	N.pl3	12	GLN12	-0.941	
180	 OE1	63.091	22.996	-42.898	O.2	12	GLN12	-0.609	
181	   H	62.144	17.030	-44.599	 H	12	GLN12	0.272	
182	  HA	62.597	19.173	-46.429	 H	12	GLN12	0.085	
183	 2HB	63.180	18.979	-43.402	 H	12	GLN12	0.017	
184	 3HB	61.616	19.383	-44.109	 H	12	GLN12	0.017	
185	 2HG	62.604	21.526	-45.091	 H	12	GLN12	0.035	
186	 3HG	64.163	21.137	-44.406	 H	12	GLN12	0.035	
187	1HE2	62.107	21.840	-41.123	 H	12	GLN12	0.425	
188	2HE2	62.040	20.243	-42.050	 H	12	GLN12	0.425	
189	   N	65.363	18.058	-45.051	N.am	13	ARG13	-0.348	
190	  CA	66.804	18.114	-45.282	C.3	13	ARG13	-0.264	
191	   C	67.137	17.740	-46.707	C.2	13	ARG13	0.734	
192	   O	67.911	18.406	-47.391	O.2	13	ARG13	-0.589	
193	  CB	67.510	17.170	-44.268	C.3	13	ARG13	-0.001	
194	  CG	69.056	17.312	-44.187	C.3	13	ARG13	0.039	
195	  CD	69.676	16.320	-43.189	C.3	13	ARG13	0.049	
196	  NE	71.155	16.517	-43.139	N.pl3	13	ARG13	-0.530	
197	  CZ	71.998	15.819	-42.383	C.cat	13	ARG13	0.808	
198	 NH1	71.626	14.857	-41.586	N.pl3	13	ARG13	-0.863	
199	 NH2	73.260	16.109	-42.440	N.pl3	13	ARG13	-0.863	
200	   H	64.983	17.470	-44.323	 H	13	ARG13	0.275	
201	  HA	67.135	19.157	-45.123	 H	13	ARG13	0.156	
202	 2HB	67.237	16.121	-44.507	 H	13	ARG13	0.033	
203	 3HB	67.086	17.339	-43.257	 H	13	ARG13	0.033	
204	 2HG	69.312	18.355	-43.907	 H	13	ARG13	0.029	
205	 3HG	69.506	17.153	-45.188	 H	13	ARG13	0.029	
206	 2HD	69.425	15.281	-43.499	 H	13	ARG13	0.069	
207	 3HD	69.221	16.468	-42.187	 H	13	ARG13	0.069	
208	  HE	71.611	17.236	-43.709	 H	13	ARG13	0.346	
209	1HH1	70.620	14.678	-41.589	 H	13	ARG13	0.448	
210	2HH1	72.336	14.369	-41.037	 H	13	ARG13	0.448	
211	1HH2	73.533	16.865	-43.071	 H	13	ARG13	0.448	
212	2HH2	73.891	15.564	-41.851	 H	13	ARG13	0.448	
213	   N	66.594	16.689	-47.222	N.am	14	VAL14	-0.416	
214	  CA	66.917	16.328	-48.599	C.3	14	VAL14	-0.087	
215	   C	66.594	17.460	-49.545	C.2	14	VAL14	0.597	
216	   O	67.391	17.836	-50.414	O.2	14	VAL14	-0.568	
217	  CB	66.135	15.016	-49.006	C.3	14	VAL14	0.299	
218	 CG1	66.221	14.598	-50.500	C.3	14	VAL14	-0.319	
219	 CG2	66.558	13.761	-48.206	C.3	14	VAL14	-0.319	
220	   H	65.955	16.125	-46.680	 H	14	VAL14	0.272	
221	  HA	68.004	16.144	-48.674	 H	14	VAL14	0.097	
222	  HB	65.060	15.195	-48.790	 H	14	VAL14	-0.030	
223	1HG1	67.262	14.414	-50.829	 H	14	VAL14	0.079	
224	2HG1	65.642	13.679	-50.713	 H	14	VAL14	0.079	
225	3HG1	65.798	15.363	-51.178	 H	14	VAL14	0.079	
226	1HG2	66.472	13.920	-47.116	 H	14	VAL14	0.079	
227	2HG2	65.916	12.889	-48.439	 H	14	VAL14	0.079	
228	3HG2	67.604	13.464	-48.412	 H	14	VAL14	0.079	
229	   N	65.454	18.054	-49.443	N.am	15	MET15	-0.416	
230	  CA	65.141	19.149	-50.356	C.3	15	MET15	-0.024	
231	   C	66.179	20.242	-50.268	C.2	15	MET15	0.597	
232	   O	66.685	20.749	-51.281	O.2	15	MET15	-0.568	
233	  CB	63.723	19.705	-50.047	C.3	15	MET15	0.034	
234	  CG	62.554	18.715	-50.239	C.3	15	MET15	0.002	
235	  SD	60.987	19.592	-50.125	S.3	15	MET15	-0.274	
236	  CE	59.895	18.169	-49.989	C.3	15	MET15	-0.054	
237	   H	64.787	17.766	-48.741	 H	15	MET15	0.272	
238	  HA	65.164	18.762	-51.392	 H	15	MET15	0.088	
239	 2HB	63.527	20.585	-50.689	 H	15	MET15	0.024	
240	 3HB	63.690	20.097	-49.011	 H	15	MET15	0.024	
241	 2HG	62.592	17.928	-49.462	 H	15	MET15	0.044	
242	 3HG	62.614	18.199	-51.216	 H	15	MET15	0.044	
243	 1HE	60.034	17.480	-50.841	 H	15	MET15	0.068	
244	 2HE	60.101	17.615	-49.056	 H	15	MET15	0.068	
245	 3HE	58.840	18.492	-49.972	 H	15	MET15	0.068	
246	   N	66.550	20.660	-49.106	N.am	16	ARG16	-0.348	
247	  CA	67.554	21.717	-49.022	C.3	16	ARG16	-0.264	
248	   C	68.822	21.316	-49.738	C.2	16	ARG16	0.734	
249	   O	68.928	20.239	-50.320	O.2	16	ARG16	-0.589	
250	  CB	67.825	22.033	-47.524	C.3	16	ARG16	-0.001	
251	  CG	68.659	23.316	-47.251	C.3	16	ARG16	0.039	
252	  CD	68.910	23.534	-45.749	C.3	16	ARG16	0.049	
253	  NE	69.695	24.787	-45.548	N.pl3	16	ARG16	-0.530	
254	  CZ	70.090	25.267	-44.372	C.cat	16	ARG16	0.808	
255	 NH1	69.838	24.684	-43.234	N.pl3	16	ARG16	-0.863	
256	 NH2	70.761	26.374	-44.354	N.pl3	16	ARG16	-0.863	
257	   H	66.153	20.263	-48.267	 H	16	ARG16	0.275	
258	  HA	67.151	22.613	-49.532	 H	16	ARG16	0.156	
259	 2HB	68.316	21.153	-47.057	 H	16	ARG16	0.033	
260	 3HB	66.857	22.121	-46.990	 H	16	ARG16	0.033	
261	 2HG	68.135	24.191	-47.688	 H	16	ARG16	0.029	
262	 3HG	69.633	23.257	-47.779	 H	16	ARG16	0.029	
263	 2HD	69.453	22.655	-45.336	 H	16	ARG16	0.069	
264	 3HD	67.938	23.583	-45.214	 H	16	ARG16	0.069	
265	  HE	69.978	25.366	-46.345	 H	16	ARG16	0.346	
266	1HH1	69.306	23.814	-43.319	 H	16	ARG16	0.448	
267	2HH1	70.175	25.117	-42.373	 H	16	ARG16	0.448	
268	1HH2	70.950	26.816	-45.255	 H	16	ARG16	0.448	
269	2HH2	71.054	26.727	-43.441	 H	16	ARG16	0.448	
@<TRIPOS>BOND
1 1 2 1
2 1 9 1
3 2 3 1
4 2 5 1
5 2 10 1
6 3 4 2
7 3 20 1
8 5 6 1
9 6 7 1
10 6 8 1
11 5 11 1
12 5 12 1
13 6 13 1
14 7 14 1
15 7 15 1
16 7 16 1
17 8 17 1
18 8 18 1
19 8 19 1
20 20 21 1
21 20 28 1
22 21 22 1
23 21 24 1
24 21 29 1
25 22 23 2
26 22 34 1
27 24 25 1
28 25 26 1
29 25 27 2
30 24 30 1
31 24 31 1
32 26 32 1
33 26 33 1
34 34 35 1
35 34 40 1
36 35 36 1
37 35 38 1
38 35 41 1
39 36 37 2
40 36 48 1
41 38 39 1
42 39 40 1
43 38 42 1
44 38 43 1
45 39 44 1
46 39 45 1
47 40 46 1
48 40 47 1
49 48 49 1
50 48 57 1
51 49 50 1
52 49 52 1
53 49 58 1
54 50 51 2
55 50 63 1
56 52 53 1
57 53 54 1
58 54 55 2
59 54 56 1
60 52 59 1
61 52 60 1
62 53 61 1
63 53 62 1
64 63 64 1
65 63 69 1
66 64 65 1
67 64 67 1
68 64 70 1
69 65 66 2
70 65 74 1
71 67 68 1
72 67 71 1
73 67 72 1
74 68 73 1
75 74 75 1
76 74 82 1
77 75 76 1
78 75 78 1
79 75 83 1
80 76 77 2
81 76 93 1
82 78 79 1
83 78 80 1
84 79 81 1
85 78 84 1
86 79 85 1
87 79 86 1
88 80 87 1
89 80 88 1
90 80 89 1
91 81 90 1
92 81 91 1
93 81 92 1
94 93 94 1
95 93 101 1
96 94 95 1
97 94 97 1
98 94 102 1
99 95 96 2
100 95 112 1
101 97 98 1
102 98 99 1
103 98 100 1
104 97 103 1
105 97 104 1
106 98 105 1
107 99 106 1
108 99 107 1
109 99 108 1
110 100 109 1
111 100 110 1
112 100 111 1
113 112 113 1
114 112 120 1
115 113 114 1
116 113 116 1
117 113 121 1
118 114 115 2
119 114 124 1
120 116 117 1
121 117 118 2
122 117 119 1
123 116 122 1
124 116 123 1
125 124 125 1
126 124 133 1
127 125 126 1
128 125 128 1
129 125 134 1
130 126 127 2
131 126 139 1
132 128 129 1
133 129 130 1
134 130 131 2
135 130 132 1
136 128 135 1
137 128 136 1
138 129 137 1
139 129 138 1
140 139 140 1
141 139 149 1
142 140 141 1
143 140 143 1
144 140 150 1
145 141 142 2
146 141 156 1
147 143 144 1
148 144 145 2
149 145 148 1
150 144 146 1
151 146 147 2
152 147 148 1
153 143 151 1
154 143 152 1
155 145 153 1
156 147 154 1
157 148 155 1
158 156 157 1
159 156 163 1
160 157 158 1
161 157 160 1
162 157 164 1
163 158 159 2
164 158 172 1
165 160 161 1
166 160 162 1
167 160 165 1
168 161 166 1
169 161 167 1
170 161 168 1
171 162 169 1
172 162 170 1
173 162 171 1
174 172 173 1
175 172 181 1
176 173 174 1
177 173 176 1
178 173 182 1
179 174 175 2
180 174 189 1
181 176 177 1
182 177 178 1
183 178 179 1
184 178 180 2
185 176 183 1
186 176 184 1
187 177 185 1
188 177 186 1
189 179 187 1
190 179 188 1
191 189 190 1
192 189 200 1
193 190 191 1
194 190 193 1
195 190 201 1
196 191 192 2
197 191 213 1
198 193 194 1
199 194 195 1
200 195 196 1
201 196 197 1
202 197 198 2
203 197 199 1
204 193 202 1
205 193 203 1
206 194 204 1
207 194 205 1
208 195 206 1
209 195 207 1
210 196 208 1
211 198 209 1
212 198 210 1
213 199 211 1
214 199 212 1
215 213 214 1
216 213 220 1
217 214 215 1
218 214 217 1
219 214 221 1
220 215 216 2
221 215 229 1
222 217 218 1
223 217 219 1
224 217 222 1
225 218 223 1
226 218 224 1
227 218 225 1
228 219 226 1
229 219 227 1
230 219 228 1
231 229 230 1
232 229 237 1
233 230 231 1
234 230 233 1
235 230 238 1
236 231 232 2
237 231 246 1
238 233 234 1
239 234 235 1
240 235 236 1
241 233 239 1
242 233 240 1
243 234 241 1
244 234 242 1
245 236 243 1
246 236 244 1
247 236 245 1
248 246 247 1
249 246 257 1
250 247 248 1
251 247 250 1
252 247 258 1
253 248 249 2
254 250 251 1
255 251 252 1
256 252 253 1
257 253 254 1
258 254 255 2
259 254 256 1
260 250 259 1
261 250 260 1
262 251 261 1
263 251 262 1
264 252 263 1
265 252 264 1
266 253 265 1
267 255 266 1
268 255 267 1
269 256 268 1
270 256 269 1
@<TRIPOS>SUBSTRUCTURE
1	LEU1	1	RESIDUE	1 ****	LEU
2	ASN2	20	RESIDUE	1 ****	ASN
3	PRO3	34	RESIDUE	1 ****	PRO
4	GLU4	48	RESIDUE	1 ****	GLU
5	SER5	63	RESIDUE	1 ****	SER
6	ILE6	74	RESIDUE	1 ****	ILE
7	LEU7	93	RESIDUE	1 ****	LEU
8	ASP8	112	RESIDUE	1 ****	ASP
9	GLU9	124	RESIDUE	1 ****	GLU
10	HIS10	139	RESIDUE	1 ****	HIS
11	VAL11	156	RESIDUE	1 ****	VAL
12	GLN12	172	RESIDUE	1 ****	GLN
13	ARG13	189	RESIDUE	1 ****	ARG
14	VAL14	213	RESIDUE	1 ****	VAL
15	MET15	229	RESIDUE	1 ****	MET
16	ARG16	246	RESIDUE	1 ****	ARG
