@<TRIPOS>MOLECULE
11-7
268 269 16              
SMALL
USER_CHARGES
@<TRIPOS>ATOM
1	   N	1730.528	517.896	-1768.723	N.3	1	GLU1	-0.516	
2	  CA	1731.087	519.245	-1768.723	C.3	1	GLU1	0.040	
3	   C	1732.596	519.205	-1768.723	C.2	1	GLU1	0.537	
4	   O	1733.272	519.904	-1769.491	O.2	1	GLU1	-0.582	
5	  CB	1730.564	520.030	-1767.485	C.3	1	GLU1	0.056	
6	  CG	1731.039	521.515	-1767.375	C.3	1	GLU1	0.014	
7	  CD	1730.615	522.319	-1766.159	C.2	1	GLU1	0.805	
8	 OE1	1729.887	521.817	-1765.281	O.co2	1	GLU1	-0.819	
9	 OE2	1731.045	523.489	-1766.088	O.co2	1	GLU1	-0.819	
10	   H	1731.155	517.017	-1768.723	 H	1	GLU1	0.294	
11	  HA	1730.761	519.763	-1769.642	 H	1	GLU1	0.111	
12	 2HB	1730.853	519.499	-1766.556	 H	1	GLU1	-0.017	
13	 3HB	1729.457	520.020	-1767.473	 H	1	GLU1	-0.017	
14	 2HG	1730.729	522.100	-1768.255	 H	1	GLU1	-0.043	
15	 3HG	1732.139	521.582	-1767.345	 H	1	GLU1	-0.043	
16	   N	1733.200	518.419	-1767.897	N.am	2	ASN2	-0.416	
17	  CA	1734.660	518.380	-1767.897	C.3	2	ASN2	0.014	
18	   C	1735.191	518.025	-1769.266	C.2	2	ASN2	0.597	
19	   O	1736.106	518.655	-1769.795	O.2	2	ASN2	-0.568	
20	  CB	1735.152	517.357	-1766.833	C.3	2	ASN2	-0.204	
21	  CG	1734.688	517.581	-1765.390	C.2	2	ASN2	0.713	
22	 ND2	1735.283	518.496	-1764.672	N.pl3	2	ASN2	-0.919	
23	 OD1	1733.768	516.947	-1764.896	O.2	2	ASN2	-0.593	
24	   H	1732.672	517.839	-1767.261	 H	2	ASN2	0.272	
25	  HA	1735.037	519.390	-1767.652	 H	2	ASN2	0.105	
26	 2HB	1736.256	517.298	-1766.837	 H	2	ASN2	0.080	
27	 3HB	1734.823	516.339	-1767.119	 H	2	ASN2	0.080	
28	1HD2	1734.802	518.669	-1763.785	 H	2	ASN2	0.420	
29	2HD2	1735.984	519.068	-1765.141	 H	2	ASN2	0.420	
30	   N	1734.669	517.030	-1769.900	N.am	3	PRO3	-0.255	
31	  CA	1735.121	516.620	-1771.222	C.3	3	PRO3	-0.027	
32	   C	1734.723	517.644	-1772.298	C.2	3	PRO3	0.590	
33	   O	1735.546	518.027	-1773.130	O.2	3	PRO3	-0.575	
34	  CB	1734.417	515.266	-1771.391	C.3	3	PRO3	-0.007	
35	  CG	1733.134	515.418	-1770.561	C.3	3	PRO3	0.019	
36	  CD	1733.591	516.237	-1769.351	C.3	3	PRO3	0.019	
37	  HA	1736.207	516.500	-1771.235	 H	3	PRO3	0.064	
38	 2HB	1735.040	514.484	-1770.950	 H	3	PRO3	0.025	
39	 3HB	1734.219	515.017	-1772.436	 H	3	PRO3	0.025	
40	 2HG	1732.706	514.455	-1770.270	 H	3	PRO3	0.021	
41	 3HG	1732.396	515.989	-1771.128	 H	3	PRO3	0.021	
42	 2HD	1733.980	515.587	-1768.563	 H	3	PRO3	0.039	
43	 3HD	1732.795	516.872	-1768.958	 H	3	PRO3	0.039	
44	   N	1733.518	518.104	-1772.331	N.am	4	GLU4	-0.516	
45	  CA	1733.159	519.075	-1773.360	C.3	4	GLU4	0.040	
46	   C	1734.057	520.286	-1773.299	C.2	4	GLU4	0.537	
47	   O	1734.584	520.765	-1774.314	O.2	4	GLU4	-0.582	
48	  CB	1731.670	519.493	-1773.190	C.3	4	GLU4	0.056	
49	  CG	1731.122	520.497	-1774.256	C.3	4	GLU4	0.014	
50	  CD	1729.696	520.994	-1774.112	C.2	4	GLU4	0.805	
51	 OE1	1728.969	520.596	-1773.181	O.co2	4	GLU4	-0.819	
52	 OE2	1729.306	521.823	-1774.960	O.co2	4	GLU4	-0.819	
53	   H	1732.834	517.797	-1771.654	 H	4	GLU4	0.294	
54	  HA	1733.290	518.604	-1774.352	 H	4	GLU4	0.111	
55	 2HB	1731.518	519.933	-1772.183	 H	4	GLU4	-0.017	
56	 3HB	1731.022	518.596	-1773.196	 H	4	GLU4	-0.017	
57	 2HG	1731.204	520.082	-1775.273	 H	4	GLU4	-0.043	
58	 3HG	1731.710	521.429	-1774.267	 H	4	GLU4	-0.043	
59	   N	1734.285	520.839	-1772.156	N.am	5	SER5	-0.416	
60	  CA	1735.154	522.010	-1772.098	C.3	5	SER5	-0.025	
61	   C	1736.513	521.704	-1772.683	C.2	5	SER5	0.597	
62	   O	1737.061	522.458	-1773.488	O.2	5	SER5	-0.568	
63	  CB	1735.266	522.542	-1770.647	C.3	5	SER5	0.212	
64	  OG	1735.998	521.663	-1769.786	O.3	5	SER5	-0.655	
65	   H	1733.868	520.467	-1771.315	 H	5	SER5	0.272	
66	  HA	1734.705	522.800	-1772.727	 H	5	SER5	0.084	
67	 2HB	1734.266	522.736	-1770.214	 H	5	SER5	0.035	
68	 3HB	1735.771	523.528	-1770.650	 H	5	SER5	0.035	
69	  HG	1735.509	520.838	-1769.735	 H	5	SER5	0.428	
70	   N	1737.118	520.621	-1772.329	N.am	6	ILE6	-0.416	
71	  CA	1738.431	520.327	-1772.895	C.3	6	ILE6	-0.060	
72	   C	1738.374	520.289	-1774.403	C.2	6	ILE6	0.597	
73	   O	1739.209	520.877	-1775.107	O.2	6	ILE6	-0.568	
74	  CB	1739.031	518.990	-1772.295	C.3	6	ILE6	0.130	
75	 CG1	1739.051	518.928	-1770.734	C.3	6	ILE6	-0.043	
76	 CG2	1740.473	518.689	-1772.811	C.3	6	ILE6	-0.320	
77	 CD1	1739.321	517.539	-1770.119	C.3	6	ILE6	-0.066	
78	   H	1736.690	519.987	-1771.670	 H	6	ILE6	0.272	
79	  HA	1739.105	521.161	-1772.627	 H	6	ILE6	0.087	
80	  HB	1738.373	518.164	-1772.639	 H	6	ILE6	0.019	
81	2HG1	1738.068	519.248	-1770.338	 H	6	ILE6	0.024	
82	3HG1	1739.767	519.670	-1770.330	 H	6	ILE6	0.024	
83	1HG2	1740.531	518.595	-1773.909	 H	6	ILE6	0.088	
84	2HG2	1741.195	519.471	-1772.508	 H	6	ILE6	0.088	
85	3HG2	1740.863	517.727	-1772.432	 H	6	ILE6	0.088	
86	1HD1	1738.593	516.785	-1770.474	 H	6	ILE6	0.019	
87	2HD1	1740.331	517.160	-1770.355	 H	6	ILE6	0.019	
88	3HD1	1739.245	517.569	-1769.017	 H	6	ILE6	0.019	
89	   N	1737.428	519.625	-1774.977	N.am	7	LEU7	-0.416	
90	  CA	1737.373	519.589	-1776.435	C.3	7	LEU7	-0.052	
91	   C	1737.301	520.985	-1777.008	C.2	7	LEU7	0.597	
92	   O	1738.021	521.348	-1777.950	O.2	7	LEU7	-0.568	
93	  CB	1736.170	518.729	-1776.916	C.3	7	LEU7	-0.110	
94	  CG	1736.098	517.250	-1776.449	C.3	7	LEU7	0.353	
95	 CD1	1734.908	516.544	-1777.115	C.3	7	LEU7	-0.412	
96	 CD2	1737.392	516.471	-1776.741	C.3	7	LEU7	-0.412	
97	   H	1736.736	519.138	-1774.425	 H	7	LEU7	0.272	
98	  HA	1738.315	519.150	-1776.809	 H	7	LEU7	0.092	
99	 2HB	1736.147	518.745	-1778.023	 H	7	LEU7	0.046	
100	 3HB	1735.231	519.232	-1776.611	 H	7	LEU7	0.046	
101	  HG	1735.928	517.241	-1775.352	 H	7	LEU7	-0.036	
102	1HD1	1733.951	517.052	-1776.892	 H	7	LEU7	0.100	
103	2HD1	1735.007	516.503	-1778.216	 H	7	LEU7	0.100	
104	3HD1	1734.802	515.502	-1776.759	 H	7	LEU7	0.100	
105	1HD2	1737.667	516.501	-1777.811	 H	7	LEU7	0.100	
106	2HD2	1738.245	516.882	-1776.170	 H	7	LEU7	0.100	
107	3HD2	1737.310	515.408	-1776.445	 H	7	LEU7	0.100	
108	   N	1736.463	521.825	-1776.501	N.am	8	ASP8	-0.516	
109	  CA	1736.393	523.174	-1777.055	C.3	8	ASP8	0.038	
110	   C	1737.739	523.855	-1776.997	C.2	8	ASP8	0.537	
111	   O	1738.212	524.460	-1777.972	O.2	8	ASP8	-0.582	
112	  CB	1735.314	524.013	-1776.313	C.3	8	ASP8	-0.030	
113	  CG	1735.095	525.434	-1776.853	C.2	8	ASP8	0.799	
114	 OD1	1735.159	525.633	-1778.084	O.co2	8	ASP8	-0.801	
115	 OD2	1734.903	526.360	-1776.037	O.co2	8	ASP8	-0.801	
116	   H	1735.865	521.554	-1775.734	 H	8	ASP8	0.294	
117	  HA	1736.110	523.097	-1778.122	 H	8	ASP8	0.088	
118	 2HB	1735.572	524.096	-1775.241	 H	8	ASP8	-0.012	
119	 3HB	1734.335	523.508	-1776.346	 H	8	ASP8	-0.012	
120	   N	1738.419	523.805	-1775.902	N.am	9	GLU9	-0.516	
121	  CA	1739.721	524.463	-1775.846	C.3	9	GLU9	0.040	
122	   C	1740.640	523.936	-1776.922	C.2	9	GLU9	0.537	
123	   O	1741.304	524.691	-1777.647	O.2	9	GLU9	-0.582	
124	  CB	1740.355	524.255	-1774.441	C.3	9	GLU9	0.056	
125	  CG	1741.737	524.948	-1774.211	C.3	9	GLU9	0.014	
126	  CD	1742.439	524.734	-1772.883	C.2	9	GLU9	0.805	
127	 OE1	1741.917	524.043	-1771.987	O.co2	9	GLU9	-0.819	
128	 OE2	1743.558	525.272	-1772.751	O.co2	9	GLU9	-0.819	
129	   H	1738.056	523.318	-1775.095	 H	9	GLU9	0.294	
130	  HA	1739.579	525.544	-1776.021	 H	9	GLU9	0.111	
131	 2HB	1740.468	523.170	-1774.238	 H	9	GLU9	-0.017	
132	 3HB	1739.657	524.608	-1773.657	 H	9	GLU9	-0.017	
133	 2HG	1741.665	526.038	-1774.351	 H	9	GLU9	-0.043	
134	 3HG	1742.484	524.603	-1774.945	 H	9	GLU9	-0.043	
135	   N	1740.737	522.661	-1777.092	N.am	10	HIS10	-0.416	
136	  CA	1741.625	522.150	-1778.132	C.3	10	HIS10	-0.058	
137	   C	1741.258	522.715	-1779.484	C.2	10	HIS10	0.597	
138	   O	1742.111	523.180	-1780.255	O.2	10	HIS10	-0.568	
139	  CB	1741.462	520.621	-1778.128	C.3	10	HIS10	-0.007	
140	  CG	1742.748	519.911	-1777.820	C.2	10	HIS10	0.187	
141	 CD2	1743.129	519.576	-1776.527	C.2	10	HIS10	-0.221	
142	 ND1	1743.700	519.506	-1778.753	N.2	10	HIS10	-0.543	
143	 CE1	1744.607	518.948	-1777.929	C.2	10	HIS10	0.163	
144	 NE2	1744.344	518.945	-1776.594	N.pl3	10	HIS10	-0.280	
145	   H	1740.206	522.025	-1776.514	 H	10	HIS10	0.272	
146	  HA	1742.644	522.508	-1777.907	 H	10	HIS10	0.136	
147	 2HB	1741.097	520.254	-1779.108	 H	10	HIS10	0.037	
148	 3HB	1740.706	520.283	-1777.388	 H	10	HIS10	0.037	
149	 2HD	1742.543	519.790	-1775.638	 H	10	HIS10	0.186	
150	 1HE	1745.498	518.528	-1778.376	 H	10	HIS10	0.144	
151	 2HE	1744.911	518.567	-1775.821	 H	10	HIS10	0.334	
152	   N	1740.021	522.713	-1779.847	N.am	11	LEU11	-0.416	
153	  CA	1739.666	523.260	-1781.153	C.3	11	LEU11	-0.052	
154	   C	1740.130	524.691	-1781.285	C.2	11	LEU11	0.597	
155	   O	1740.733	525.097	-1782.289	O.2	11	LEU11	-0.568	
156	  CB	1738.134	523.149	-1781.394	C.3	11	LEU11	-0.110	
157	  CG	1737.484	521.740	-1781.330	C.3	11	LEU11	0.353	
158	 CD1	1735.997	521.826	-1781.703	C.3	11	LEU11	-0.412	
159	 CD2	1738.188	520.720	-1782.241	C.3	11	LEU11	-0.412	
160	   H	1739.308	522.340	-1779.236	 H	11	LEU11	0.272	
161	  HA	1740.204	522.687	-1781.930	 H	11	LEU11	0.092	
162	 2HB	1737.900	523.594	-1782.381	 H	11	LEU11	0.046	
163	 3HB	1737.612	523.801	-1780.666	 H	11	LEU11	0.046	
164	  HG	1737.552	521.376	-1780.284	 H	11	LEU11	-0.036	
165	1HD1	1735.447	522.521	-1781.041	 H	11	LEU11	0.100	
166	2HD1	1735.845	522.176	-1782.742	 H	11	LEU11	0.100	
167	3HD1	1735.497	520.844	-1781.614	 H	11	LEU11	0.100	
168	1HD2	1738.227	521.054	-1783.293	 H	11	LEU11	0.100	
169	2HD2	1739.229	520.541	-1781.913	 H	11	LEU11	0.100	
170	3HD2	1737.688	519.733	-1782.220	 H	11	LEU11	0.100	
171	   N	1739.892	525.516	-1780.322	N.am	12	GLN12	-0.416	
172	  CA	1740.340	526.899	-1780.448	C.3	12	GLN12	-0.003	
173	   C	1741.831	526.967	-1780.685	C.2	12	GLN12	0.597	
174	   O	1742.318	527.676	-1781.563	O.2	12	GLN12	-0.568	
175	  CB	1739.949	527.666	-1779.165	C.3	12	GLN12	-0.004	
176	  CG	1740.309	529.187	-1779.133	C.3	12	GLN12	-0.064	
177	  CD	1740.005	530.000	-1777.868	C.2	12	GLN12	0.695	
178	 NE2	1739.438	529.423	-1776.839	N.pl3	12	GLN12	-0.941	
179	 OE1	1740.307	531.181	-1777.789	O.2	12	GLN12	-0.609	
180	   H	1739.403	525.209	-1779.493	 H	12	GLN12	0.272	
181	  HA	1739.841	527.356	-1781.323	 H	12	GLN12	0.085	
182	 2HB	1740.424	527.165	-1778.296	 H	12	GLN12	0.017	
183	 3HB	1738.859	527.558	-1779.002	 H	12	GLN12	0.017	
184	 2HG	1739.832	529.708	-1779.983	 H	12	GLN12	0.035	
185	 3HG	1741.392	529.330	-1779.298	 H	12	GLN12	0.035	
186	1HE2	1739.330	530.017	-1776.015	 H	12	GLN12	0.425	
187	2HE2	1739.275	528.419	-1776.943	 H	12	GLN12	0.425	
188	   N	1742.615	526.260	-1779.944	N.am	13	ARG13	-0.348	
189	  CA	1744.055	526.326	-1780.174	C.3	13	ARG13	-0.264	
190	   C	1744.392	525.955	-1781.599	C.2	13	ARG13	0.734	
191	   O	1745.161	526.628	-1782.283	O.2	13	ARG13	-0.589	
192	  CB	1744.768	525.386	-1779.161	C.3	13	ARG13	-0.001	
193	  CG	1746.313	525.540	-1779.079	C.3	13	ARG13	0.039	
194	  CD	1746.940	524.552	-1778.081	C.3	13	ARG13	0.049	
195	  NE	1748.417	524.759	-1778.030	N.pl3	13	ARG13	-0.530	
196	  CZ	1749.265	524.067	-1777.275	C.cat	13	ARG13	0.808	
197	 NH1	1748.900	523.102	-1776.478	N.pl3	13	ARG13	-0.863	
198	 NH2	1750.524	524.367	-1777.331	N.pl3	13	ARG13	-0.863	
199	   H	1742.239	525.669	-1779.216	 H	13	ARG13	0.275	
200	  HA	1744.379	527.372	-1780.015	 H	13	ARG13	0.156	
201	 2HB	1744.502	524.336	-1779.401	 H	13	ARG13	0.033	
202	 3HB	1744.343	525.552	-1778.150	 H	13	ARG13	0.033	
203	 2HG	1746.561	526.584	-1778.798	 H	13	ARG13	0.029	
204	 3HG	1746.764	525.385	-1780.080	 H	13	ARG13	0.029	
205	 2HD	1746.696	523.512	-1778.391	 H	13	ARG13	0.069	
206	 3HD	1746.483	524.697	-1777.079	 H	13	ARG13	0.069	
207	  HE	1748.868	525.482	-1778.600	 H	13	ARG13	0.346	
208	1HH1	1747.894	522.916	-1776.482	 H	13	ARG13	0.448	
209	2HH1	1749.613	522.619	-1775.930	 H	13	ARG13	0.448	
210	1HH2	1750.792	525.125	-1777.961	 H	13	ARG13	0.448	
211	2HH2	1751.159	523.825	-1776.742	 H	13	ARG13	0.448	
212	   N	1743.857	524.901	-1782.115	N.am	14	VAL14	-0.416	
213	  CA	1744.182	524.543	-1783.492	C.3	14	VAL14	-0.087	
214	   C	1743.852	525.673	-1784.437	C.2	14	VAL14	0.597	
215	   O	1744.646	526.055	-1785.306	O.2	14	VAL14	-0.568	
216	  CB	1743.410	523.226	-1783.900	C.3	14	VAL14	0.299	
217	 CG1	1743.500	522.808	-1785.394	C.3	14	VAL14	-0.319	
218	 CG2	1743.842	521.973	-1783.100	C.3	14	VAL14	-0.319	
219	   H	1743.222	524.332	-1781.573	 H	14	VAL14	0.272	
220	  HA	1745.270	524.366	-1783.567	 H	14	VAL14	0.097	
221	  HB	1742.334	523.397	-1783.684	 H	14	VAL14	-0.030	
222	1HG1	1744.541	522.632	-1785.722	 H	14	VAL14	0.079	
223	2HG1	1742.927	521.885	-1785.607	 H	14	VAL14	0.079	
224	3HG1	1743.071	523.571	-1786.072	 H	14	VAL14	0.079	
225	1HG2	1743.754	522.131	-1782.010	 H	14	VAL14	0.079	
226	2HG2	1743.206	521.097	-1783.333	 H	14	VAL14	0.079	
227	3HG2	1744.890	521.684	-1783.306	 H	14	VAL14	0.079	
228	   N	1742.707	526.259	-1784.336	N.am	15	MET15	-0.416	
229	  CA	1742.387	527.352	-1785.249	C.3	15	MET15	-0.024	
230	   C	1743.417	528.452	-1785.160	C.2	15	MET15	0.597	
231	   O	1743.920	528.963	-1786.172	O.2	15	MET15	-0.568	
232	  CB	1740.965	527.897	-1784.941	C.3	15	MET15	0.034	
233	  CG	1739.803	526.899	-1785.134	C.3	15	MET15	0.002	
234	  SD	1738.229	527.765	-1785.020	S.3	15	MET15	-0.274	
235	  CE	1737.148	526.335	-1784.885	C.3	15	MET15	-0.054	
236	   H	1742.042	525.965	-1783.635	 H	15	MET15	0.272	
237	  HA	1742.413	526.965	-1786.285	 H	15	MET15	0.088	
238	 2HB	1740.763	528.776	-1785.583	 H	15	MET15	0.024	
239	 3HB	1740.929	528.289	-1783.904	 H	15	MET15	0.024	
240	 2HG	1739.846	526.113	-1784.356	 H	15	MET15	0.044	
241	 3HG	1739.867	526.384	-1786.110	 H	15	MET15	0.044	
242	 1HE	1737.293	525.647	-1785.737	 H	15	MET15	0.068	
243	 2HE	1737.357	525.782	-1783.952	 H	15	MET15	0.068	
244	 3HE	1736.091	526.650	-1784.869	 H	15	MET15	0.068	
245	   N	1743.785	528.872	-1783.997	N.am	16	ARG16	-0.348	
246	  CA	1744.781	529.936	-1783.912	C.3	16	ARG16	-0.264	
247	   C	1746.052	529.544	-1784.628	C.2	16	ARG16	0.734	
248	   O	1746.167	528.468	-1785.210	O.2	16	ARG16	-0.589	
249	  CB	1745.049	530.253	-1782.414	C.3	16	ARG16	-0.001	
250	  CG	1745.874	531.542	-1782.140	C.3	16	ARG16	0.039	
251	  CD	1746.123	531.761	-1780.638	C.3	16	ARG16	0.049	
252	  NE	1746.899	533.020	-1780.436	N.pl3	16	ARG16	-0.530	
253	  CZ	1747.289	533.501	-1779.260	C.cat	16	ARG16	0.808	
254	 NH1	1747.041	532.917	-1778.122	N.pl3	16	ARG16	-0.863	
255	 NH2	1747.953	534.614	-1779.240	N.pl3	16	ARG16	-0.863	
256	   H	1743.390	528.472	-1783.158	 H	16	ARG16	0.275	
257	  HA	1744.372	530.829	-1784.422	 H	16	ARG16	0.156	
258	 2HB	1745.546	529.377	-1781.948	 H	16	ARG16	0.033	
259	 3HB	1744.080	530.334	-1781.880	 H	16	ARG16	0.033	
260	 2HG	1745.344	532.413	-1782.577	 H	16	ARG16	0.029	
261	 3HG	1746.848	531.490	-1782.668	 H	16	ARG16	0.029	
262	 2HD	1746.672	530.886	-1780.225	 H	16	ARG16	0.069	
263	 3HD	1745.150	531.803	-1780.103	 H	16	ARG16	0.069	
264	  HE	1747.178	533.601	-1781.233	 H	16	ARG16	0.346	
265	1HH1	1746.516	532.043	-1778.207	 H	16	ARG16	0.448	
266	2HH1	1747.375	533.352	-1777.260	 H	16	ARG16	0.448	
267	1HH2	1748.139	535.058	-1780.142	 H	16	ARG16	0.448	
268	2HH2	1748.243	534.969	-1778.328	 H	16	ARG16	0.448	
@<TRIPOS>BOND
1 1 2 1
2 1 10 1
3 2 3 1
4 2 5 1
5 2 11 1
6 3 4 2
7 3 16 1
8 5 6 1
9 6 7 1
10 7 8 2
11 7 9 1
12 5 12 1
13 5 13 1
14 6 14 1
15 6 15 1
16 16 17 1
17 16 24 1
18 17 18 1
19 17 20 1
20 17 25 1
21 18 19 2
22 18 30 1
23 20 21 1
24 21 22 1
25 21 23 2
26 20 26 1
27 20 27 1
28 22 28 1
29 22 29 1
30 30 31 1
31 30 36 1
32 31 32 1
33 31 34 1
34 31 37 1
35 32 33 2
36 32 44 1
37 34 35 1
38 35 36 1
39 34 38 1
40 34 39 1
41 35 40 1
42 35 41 1
43 36 42 1
44 36 43 1
45 44 45 1
46 44 53 1
47 45 46 1
48 45 48 1
49 45 54 1
50 46 47 2
51 46 59 1
52 48 49 1
53 49 50 1
54 50 51 2
55 50 52 1
56 48 55 1
57 48 56 1
58 49 57 1
59 49 58 1
60 59 60 1
61 59 65 1
62 60 61 1
63 60 63 1
64 60 66 1
65 61 62 2
66 61 70 1
67 63 64 1
68 63 67 1
69 63 68 1
70 64 69 1
71 70 71 1
72 70 78 1
73 71 72 1
74 71 74 1
75 71 79 1
76 72 73 2
77 72 89 1
78 74 75 1
79 74 76 1
80 75 77 1
81 74 80 1
82 75 81 1
83 75 82 1
84 76 83 1
85 76 84 1
86 76 85 1
87 77 86 1
88 77 87 1
89 77 88 1
90 89 90 1
91 89 97 1
92 90 91 1
93 90 93 1
94 90 98 1
95 91 92 2
96 91 108 1
97 93 94 1
98 94 95 1
99 94 96 1
100 93 99 1
101 93 100 1
102 94 101 1
103 95 102 1
104 95 103 1
105 95 104 1
106 96 105 1
107 96 106 1
108 96 107 1
109 108 109 1
110 108 116 1
111 109 110 1
112 109 112 1
113 109 117 1
114 110 111 2
115 110 120 1
116 112 113 1
117 113 114 2
118 113 115 1
119 112 118 1
120 112 119 1
121 120 121 1
122 120 129 1
123 121 122 1
124 121 124 1
125 121 130 1
126 122 123 2
127 122 135 1
128 124 125 1
129 125 126 1
130 126 127 2
131 126 128 1
132 124 131 1
133 124 132 1
134 125 133 1
135 125 134 1
136 135 136 1
137 135 145 1
138 136 137 1
139 136 139 1
140 136 146 1
141 137 138 2
142 137 152 1
143 139 140 1
144 140 141 2
145 141 144 1
146 140 142 1
147 142 143 2
148 143 144 1
149 139 147 1
150 139 148 1
151 141 149 1
152 143 150 1
153 144 151 1
154 152 153 1
155 152 160 1
156 153 154 1
157 153 156 1
158 153 161 1
159 154 155 2
160 154 171 1
161 156 157 1
162 157 158 1
163 157 159 1
164 156 162 1
165 156 163 1
166 157 164 1
167 158 165 1
168 158 166 1
169 158 167 1
170 159 168 1
171 159 169 1
172 159 170 1
173 171 172 1
174 171 180 1
175 172 173 1
176 172 175 1
177 172 181 1
178 173 174 2
179 173 188 1
180 175 176 1
181 176 177 1
182 177 178 1
183 177 179 2
184 175 182 1
185 175 183 1
186 176 184 1
187 176 185 1
188 178 186 1
189 178 187 1
190 188 189 1
191 188 199 1
192 189 190 1
193 189 192 1
194 189 200 1
195 190 191 2
196 190 212 1
197 192 193 1
198 193 194 1
199 194 195 1
200 195 196 1
201 196 197 2
202 196 198 1
203 192 201 1
204 192 202 1
205 193 203 1
206 193 204 1
207 194 205 1
208 194 206 1
209 195 207 1
210 197 208 1
211 197 209 1
212 198 210 1
213 198 211 1
214 212 213 1
215 212 219 1
216 213 214 1
217 213 216 1
218 213 220 1
219 214 215 2
220 214 228 1
221 216 217 1
222 216 218 1
223 216 221 1
224 217 222 1
225 217 223 1
226 217 224 1
227 218 225 1
228 218 226 1
229 218 227 1
230 228 229 1
231 228 236 1
232 229 230 1
233 229 232 1
234 229 237 1
235 230 231 2
236 230 245 1
237 232 233 1
238 233 234 1
239 234 235 1
240 232 238 1
241 232 239 1
242 233 240 1
243 233 241 1
244 235 242 1
245 235 243 1
246 235 244 1
247 245 246 1
248 245 256 1
249 246 247 1
250 246 249 1
251 246 257 1
252 247 248 2
253 249 250 1
254 250 251 1
255 251 252 1
256 252 253 1
257 253 254 2
258 253 255 1
259 249 258 1
260 249 259 1
261 250 260 1
262 250 261 1
263 251 262 1
264 251 263 1
265 252 264 1
266 254 265 1
267 254 266 1
268 255 267 1
269 255 268 1
@<TRIPOS>SUBSTRUCTURE
1	GLU1	1	RESIDUE	1 ****	GLU
2	ASN2	16	RESIDUE	1 ****	ASN
3	PRO3	30	RESIDUE	1 ****	PRO
4	GLU4	44	RESIDUE	1 ****	GLU
5	SER5	59	RESIDUE	1 ****	SER
6	ILE6	70	RESIDUE	1 ****	ILE
7	LEU7	89	RESIDUE	1 ****	LEU
8	ASP8	108	RESIDUE	1 ****	ASP
9	GLU9	120	RESIDUE	1 ****	GLU
10	HIS10	135	RESIDUE	1 ****	HIS
11	LEU11	152	RESIDUE	1 ****	LEU
12	GLN12	171	RESIDUE	1 ****	GLN
13	ARG13	188	RESIDUE	1 ****	ARG
14	VAL14	212	RESIDUE	1 ****	VAL
15	MET15	228	RESIDUE	1 ****	MET
16	ARG16	245	RESIDUE	1 ****	ARG
