@<TRIPOS>MOLECULE
4-13
261 262 16              
SMALL
USER_CHARGES
@<TRIPOS>ATOM
1	   N	630.863	156.224	-579.676	N.3	1	GLU1	-0.516	
2	  CA	631.422	157.573	-579.676	C.3	1	GLU1	0.040	
3	   C	632.931	157.533	-579.676	C.2	1	GLU1	0.537	
4	   O	633.607	158.232	-580.445	O.2	1	GLU1	-0.582	
5	  CB	630.899	158.358	-578.439	C.3	1	GLU1	0.056	
6	  CG	631.374	159.843	-578.328	C.3	1	GLU1	0.014	
7	  CD	630.950	160.647	-577.113	C.2	1	GLU1	0.805	
8	 OE1	630.222	160.145	-576.235	O.co2	1	GLU1	-0.819	
9	 OE2	631.380	161.817	-577.041	O.co2	1	GLU1	-0.819	
10	   H	631.490	155.345	-579.676	 H	1	GLU1	0.294	
11	  HA	631.096	158.091	-580.596	 H	1	GLU1	0.111	
12	 2HB	631.188	157.827	-577.509	 H	1	GLU1	-0.017	
13	 3HB	629.792	158.348	-578.426	 H	1	GLU1	-0.017	
14	 2HG	631.064	160.428	-579.209	 H	1	GLU1	-0.043	
15	 3HG	632.474	159.910	-578.299	 H	1	GLU1	-0.043	
16	   N	633.535	156.747	-578.851	N.am	2	ASN2	-0.416	
17	  CA	634.995	156.709	-578.851	C.3	2	ASN2	0.014	
18	   C	635.526	156.353	-580.220	C.2	2	ASN2	0.597	
19	   O	636.441	156.984	-580.748	O.2	2	ASN2	-0.568	
20	  CB	635.487	155.686	-577.787	C.3	2	ASN2	-0.204	
21	  CG	635.024	155.909	-576.343	C.2	2	ASN2	0.713	
22	 ND2	635.618	156.824	-575.625	N.pl3	2	ASN2	-0.919	
23	 OD1	634.103	155.276	-575.849	O.2	2	ASN2	-0.593	
24	   H	633.007	156.167	-578.214	 H	2	ASN2	0.272	
25	  HA	635.372	157.719	-578.606	 H	2	ASN2	0.105	
26	 2HB	636.591	155.627	-577.790	 H	2	ASN2	0.080	
27	 3HB	635.158	154.667	-578.073	 H	2	ASN2	0.080	
28	1HD2	635.137	156.997	-574.739	 H	2	ASN2	0.420	
29	2HD2	636.320	157.396	-576.094	 H	2	ASN2	0.420	
30	   N	635.005	155.358	-580.854	N.am	3	PRO3	-0.255	
31	  CA	635.457	154.949	-582.175	C.3	3	PRO3	-0.027	
32	   C	635.058	155.972	-583.252	C.2	3	PRO3	0.590	
33	   O	635.882	156.356	-584.084	O.2	3	PRO3	-0.575	
34	  CB	634.753	153.594	-582.345	C.3	3	PRO3	-0.007	
35	  CG	633.469	153.746	-581.515	C.3	3	PRO3	0.019	
36	  CD	633.927	154.565	-580.305	C.3	3	PRO3	0.019	
37	  HA	636.542	154.829	-582.189	 H	3	PRO3	0.064	
38	 2HB	635.376	152.813	-581.904	 H	3	PRO3	0.025	
39	 3HB	634.555	153.346	-583.390	 H	3	PRO3	0.025	
40	 2HG	633.042	152.784	-581.224	 H	3	PRO3	0.021	
41	 3HG	632.732	154.317	-582.082	 H	3	PRO3	0.021	
42	 2HD	634.316	153.915	-579.517	 H	3	PRO3	0.039	
43	 3HD	633.130	155.201	-579.912	 H	3	PRO3	0.039	
44	   N	633.854	156.432	-583.285	N.am	4	SER4	-0.416	
45	  CA	633.495	157.403	-584.314	C.3	4	SER4	-0.025	
46	   C	634.395	158.615	-584.253	C.2	4	SER4	0.597	
47	   O	634.918	159.090	-585.260	O.2	4	SER4	-0.568	
48	  CB	632.001	157.797	-584.204	C.3	4	SER4	0.212	
49	  OG	631.715	158.576	-583.037	O.3	4	SER4	-0.655	
50	   H	633.169	156.126	-582.608	 H	4	SER4	0.272	
51	  HA	633.660	156.931	-585.301	 H	4	SER4	0.084	
52	 2HB	631.349	156.903	-584.220	 H	4	SER4	0.035	
53	 3HB	631.703	158.383	-585.096	 H	4	SER4	0.035	
54	  HG	631.908	158.029	-582.272	 H	4	SER4	0.428	
55	   N	634.622	159.168	-583.109	N.am	5	SER5	-0.416	
56	  CA	635.492	160.338	-583.051	C.3	5	SER5	-0.025	
57	   C	636.851	160.032	-583.636	C.2	5	SER5	0.597	
58	   O	637.399	160.785	-584.441	O.2	5	SER5	-0.568	
59	  CB	635.604	160.871	-581.601	C.3	5	SER5	0.212	
60	  OG	636.334	159.992	-580.739	O.3	5	SER5	-0.655	
61	   H	634.205	158.796	-582.268	 H	5	SER5	0.272	
62	  HA	635.044	161.129	-583.681	 H	5	SER5	0.084	
63	 2HB	634.604	161.065	-581.168	 H	5	SER5	0.035	
64	 3HB	636.109	161.856	-581.603	 H	5	SER5	0.035	
65	  HG	635.845	159.167	-580.688	 H	5	SER5	0.428	
66	   N	637.455	158.949	-583.281	N.am	6	ILE6	-0.416	
67	  CA	638.769	158.653	-583.847	C.3	6	ILE6	-0.060	
68	   C	638.712	158.615	-585.355	C.2	6	ILE6	0.597	
69	   O	639.548	159.202	-586.058	O.2	6	ILE6	-0.568	
70	  CB	639.368	157.317	-583.246	C.3	6	ILE6	0.130	
71	 CG1	639.386	157.255	-581.685	C.3	6	ILE6	-0.043	
72	 CG2	640.809	157.014	-583.761	C.3	6	ILE6	-0.320	
73	 CD1	639.655	155.866	-581.070	C.3	6	ILE6	-0.066	
74	   H	637.026	158.315	-582.622	 H	6	ILE6	0.272	
75	  HA	639.443	159.487	-583.579	 H	6	ILE6	0.087	
76	  HB	638.710	156.491	-583.590	 H	6	ILE6	0.019	
77	2HG1	638.404	157.576	-581.290	 H	6	ILE6	0.024	
78	3HG1	640.102	157.997	-581.280	 H	6	ILE6	0.024	
79	1HG2	640.868	156.921	-584.859	 H	6	ILE6	0.088	
80	2HG2	641.531	157.797	-583.458	 H	6	ILE6	0.088	
81	3HG2	641.199	156.052	-583.382	 H	6	ILE6	0.088	
82	1HD1	638.927	155.112	-581.424	 H	6	ILE6	0.019	
83	2HD1	640.666	155.487	-581.305	 H	6	ILE6	0.019	
84	3HD1	639.579	155.896	-579.967	 H	6	ILE6	0.019	
85	   N	637.766	157.952	-585.929	N.am	7	LEU7	-0.416	
86	  CA	637.712	157.916	-587.387	C.3	7	LEU7	-0.052	
87	   C	637.641	159.311	-587.960	C.2	7	LEU7	0.597	
88	   O	638.362	159.673	-588.901	O.2	7	LEU7	-0.568	
89	  CB	636.509	157.056	-587.868	C.3	7	LEU7	-0.110	
90	  CG	636.435	155.577	-587.401	C.3	7	LEU7	0.353	
91	 CD1	635.245	154.871	-588.067	C.3	7	LEU7	-0.412	
92	 CD2	637.729	154.797	-587.692	C.3	7	LEU7	-0.412	
93	   H	637.074	157.465	-585.377	 H	7	LEU7	0.272	
94	  HA	638.654	157.475	-587.761	 H	7	LEU7	0.092	
95	 2HB	636.486	157.072	-588.975	 H	7	LEU7	0.046	
96	 3HB	635.569	157.559	-587.564	 H	7	LEU7	0.046	
97	  HG	636.265	155.569	-586.304	 H	7	LEU7	-0.036	
98	1HD1	634.288	155.381	-587.845	 H	7	LEU7	0.100	
99	2HD1	635.345	154.830	-589.168	 H	7	LEU7	0.100	
100	3HD1	635.138	153.830	-587.711	 H	7	LEU7	0.100	
101	1HD2	638.004	154.827	-588.762	 H	7	LEU7	0.100	
102	2HD2	638.582	155.208	-587.120	 H	7	LEU7	0.100	
103	3HD2	637.647	153.734	-587.396	 H	7	LEU7	0.100	
104	   N	636.803	160.152	-587.454	N.am	8	ASP8	-0.516	
105	  CA	636.734	161.501	-588.008	C.3	8	ASP8	0.038	
106	   C	638.081	162.181	-587.950	C.2	8	ASP8	0.537	
107	   O	638.554	162.786	-588.924	O.2	8	ASP8	-0.582	
108	  CB	635.656	162.341	-587.266	C.3	8	ASP8	-0.030	
109	  CG	635.438	163.762	-587.807	C.2	8	ASP8	0.799	
110	 OD1	635.503	163.961	-589.038	O.co2	8	ASP8	-0.801	
111	 OD2	635.246	164.688	-586.992	O.co2	8	ASP8	-0.801	
112	   H	636.205	159.881	-586.687	 H	8	ASP8	0.294	
113	  HA	636.451	161.424	-589.075	 H	8	ASP8	0.088	
114	 2HB	635.912	162.424	-586.194	 H	8	ASP8	-0.012	
115	 3HB	634.676	161.836	-587.300	 H	8	ASP8	-0.012	
116	   N	638.760	162.131	-586.854	N.am	9	GLU9	-0.516	
117	  CA	640.063	162.788	-586.798	C.3	9	GLU9	0.040	
118	   C	640.981	162.260	-587.873	C.2	9	GLU9	0.537	
119	   O	641.646	163.014	-588.598	O.2	9	GLU9	-0.582	
120	  CB	640.695	162.580	-585.392	C.3	9	GLU9	0.056	
121	  CG	642.078	163.271	-585.162	C.3	9	GLU9	0.014	
122	  CD	642.779	163.058	-583.833	C.2	9	GLU9	0.805	
123	 OE1	642.257	162.367	-582.937	O.co2	9	GLU9	-0.819	
124	 OE2	643.898	163.595	-583.701	O.co2	9	GLU9	-0.819	
125	   H	638.396	161.644	-586.047	 H	9	GLU9	0.294	
126	  HA	639.921	163.869	-586.973	 H	9	GLU9	0.111	
127	 2HB	640.808	161.495	-585.189	 H	9	GLU9	-0.017	
128	 3HB	639.998	162.933	-584.608	 H	9	GLU9	-0.017	
129	 2HG	642.007	164.362	-585.302	 H	9	GLU9	-0.043	
130	 3HG	642.825	162.926	-585.896	 H	9	GLU9	-0.043	
131	   N	641.077	160.984	-588.043	N.am	10	HIS10	-0.416	
132	  CA	641.966	160.473	-589.083	C.3	10	HIS10	-0.058	
133	   C	641.600	161.037	-590.434	C.2	10	HIS10	0.597	
134	   O	642.453	161.502	-591.205	O.2	10	HIS10	-0.568	
135	  CB	641.802	158.944	-589.078	C.3	10	HIS10	-0.007	
136	  CG	643.087	158.233	-588.769	C.2	10	HIS10	0.187	
137	 CD2	643.467	157.898	-587.476	C.2	10	HIS10	-0.221	
138	 ND1	644.039	157.827	-589.701	N.2	10	HIS10	-0.543	
139	 CE1	644.945	157.269	-588.877	C.2	10	HIS10	0.163	
140	 NE2	644.682	157.266	-587.542	N.pl3	10	HIS10	-0.280	
141	   H	640.546	160.349	-587.464	 H	10	HIS10	0.272	
142	  HA	642.985	160.830	-588.857	 H	10	HIS10	0.136	
143	 2HB	641.437	158.577	-590.058	 H	10	HIS10	0.037	
144	 3HB	641.045	158.607	-588.338	 H	10	HIS10	0.037	
145	 2HD	642.881	158.113	-586.587	 H	10	HIS10	0.186	
146	 1HE	645.836	156.848	-589.324	 H	10	HIS10	0.144	
147	 2HE	645.248	156.889	-586.769	 H	10	HIS10	0.334	
148	   N	640.362	161.037	-590.798	N.am	11	VAL11	-0.416	
149	  CA	640.008	161.583	-592.105	C.3	11	VAL11	-0.087	
150	   C	640.473	163.013	-592.237	C.2	11	VAL11	0.597	
151	   O	641.074	163.418	-593.239	O.2	11	VAL11	-0.568	
152	  CB	638.447	161.477	-592.325	C.3	11	VAL11	0.299	
153	 CG1	637.879	162.181	-593.588	C.3	11	VAL11	-0.319	
154	 CG2	637.922	160.023	-592.398	C.3	11	VAL11	-0.319	
155	   H	639.649	160.664	-590.187	 H	11	VAL11	0.272	
156	  HA	640.528	161.000	-592.887	 H	11	VAL11	0.097	
157	  HB	637.959	161.957	-591.450	 H	11	VAL11	-0.030	
158	1HG1	638.318	161.789	-594.525	 H	11	VAL11	0.079	
159	2HG1	636.780	162.074	-593.670	 H	11	VAL11	0.079	
160	3HG1	638.057	163.273	-593.578	 H	11	VAL11	0.079	
161	1HG2	638.211	159.435	-591.507	 H	11	VAL11	0.079	
162	2HG2	636.816	159.986	-592.441	 H	11	VAL11	0.079	
163	3HG2	638.304	159.482	-593.285	 H	11	VAL11	0.079	
164	   N	640.235	163.839	-591.275	N.am	12	GLN12	-0.416	
165	  CA	640.684	165.222	-591.401	C.3	12	GLN12	-0.003	
166	   C	642.174	165.289	-591.638	C.2	12	GLN12	0.597	
167	   O	642.662	165.997	-592.517	O.2	12	GLN12	-0.568	
168	  CB	640.293	165.989	-590.119	C.3	12	GLN12	-0.004	
169	  CG	640.653	167.511	-590.087	C.3	12	GLN12	-0.064	
170	  CD	640.350	168.325	-588.823	C.2	12	GLN12	0.695	
171	 NE2	639.782	167.748	-587.794	N.pl3	12	GLN12	-0.941	
172	 OE1	640.652	169.506	-588.745	O.2	12	GLN12	-0.609	
173	   H	639.746	163.533	-590.446	 H	12	GLN12	0.272	
174	  HA	640.185	165.678	-592.277	 H	12	GLN12	0.085	
175	 2HB	640.768	165.489	-589.249	 H	12	GLN12	0.017	
176	 3HB	639.202	165.882	-589.956	 H	12	GLN12	0.017	
177	 2HG	640.176	168.032	-590.938	 H	12	GLN12	0.035	
178	 3HG	641.737	167.653	-590.252	 H	12	GLN12	0.035	
179	1HE2	639.675	168.343	-586.971	 H	12	GLN12	0.425	
180	2HE2	639.619	166.745	-587.898	 H	12	GLN12	0.425	
181	   N	642.958	164.582	-590.897	N.am	13	ARG13	-0.348	
182	  CA	644.399	164.648	-591.127	C.3	13	ARG13	-0.264	
183	   C	644.736	164.276	-592.552	C.2	13	ARG13	0.734	
184	   O	645.505	164.948	-593.236	O.2	13	ARG13	-0.589	
185	  CB	645.111	163.708	-590.113	C.3	13	ARG13	-0.001	
186	  CG	646.656	163.861	-590.031	C.3	13	ARG13	0.039	
187	  CD	647.282	162.873	-589.033	C.3	13	ARG13	0.049	
188	  NE	648.760	163.080	-588.981	N.pl3	13	ARG13	-0.530	
189	  CZ	649.607	162.388	-588.226	C.cat	13	ARG13	0.808	
190	 NH1	649.241	161.424	-587.429	N.pl3	13	ARG13	-0.863	
191	 NH2	650.866	162.687	-588.282	N.pl3	13	ARG13	-0.863	
192	   H	642.582	163.992	-590.169	 H	13	ARG13	0.275	
193	  HA	644.723	165.693	-590.968	 H	13	ARG13	0.156	
194	 2HB	644.845	162.658	-590.352	 H	13	ARG13	0.033	
195	 3HB	644.685	163.875	-589.102	 H	13	ARG13	0.033	
196	 2HG	646.904	164.906	-589.751	 H	13	ARG13	0.029	
197	 3HG	647.107	163.705	-591.032	 H	13	ARG13	0.029	
198	 2HD	647.038	161.833	-589.342	 H	13	ARG13	0.069	
199	 3HD	646.825	163.019	-588.030	 H	13	ARG13	0.069	
200	  HE	649.211	163.802	-589.552	 H	13	ARG13	0.346	
201	1HH1	648.236	161.238	-587.432	 H	13	ARG13	0.448	
202	2HH1	649.954	160.941	-586.880	 H	13	ARG13	0.448	
203	1HH2	651.135	163.445	-588.913	 H	13	ARG13	0.448	
204	2HH2	651.501	162.145	-587.693	 H	13	ARG13	0.448	
205	   N	644.199	163.222	-593.067	N.am	14	VAL14	-0.416	
206	  CA	644.525	162.862	-594.444	C.3	14	VAL14	-0.087	
207	   C	644.196	163.993	-595.390	C.2	14	VAL14	0.597	
208	   O	644.990	164.374	-596.259	O.2	14	VAL14	-0.568	
209	  CB	643.753	161.545	-594.851	C.3	14	VAL14	0.299	
210	 CG1	643.842	161.127	-596.345	C.3	14	VAL14	-0.319	
211	 CG2	644.184	160.293	-594.051	C.3	14	VAL14	-0.319	
212	   H	643.564	162.653	-592.525	 H	14	VAL14	0.272	
213	  HA	645.613	162.685	-594.518	 H	14	VAL14	0.097	
214	  HB	642.676	161.717	-594.636	 H	14	VAL14	-0.030	
215	1HG1	644.884	160.950	-596.673	 H	14	VAL14	0.079	
216	2HG1	643.269	160.204	-596.558	 H	14	VAL14	0.079	
217	3HG1	643.414	161.890	-597.023	 H	14	VAL14	0.079	
218	1HG2	644.096	160.452	-592.960	 H	14	VAL14	0.079	
219	2HG2	643.548	159.417	-594.283	 H	14	VAL14	0.079	
220	3HG2	645.232	160.003	-594.256	 H	14	VAL14	0.079	
221	   N	643.051	164.579	-595.288	N.am	15	MET15	-0.416	
222	  CA	642.731	165.671	-596.202	C.3	15	MET15	-0.024	
223	   C	643.762	166.771	-596.114	C.2	15	MET15	0.597	
224	   O	644.265	167.282	-597.126	O.2	15	MET15	-0.568	
225	  CB	641.310	166.218	-595.894	C.3	15	MET15	0.034	
226	  CG	640.148	165.220	-596.086	C.3	15	MET15	0.002	
227	  SD	638.574	166.086	-595.973	S.3	15	MET15	-0.274	
228	  CE	637.492	164.657	-595.837	C.3	15	MET15	-0.054	
229	   H	642.386	164.286	-594.587	 H	15	MET15	0.272	
230	  HA	642.758	165.284	-597.238	 H	15	MET15	0.088	
231	 2HB	641.108	167.096	-596.536	 H	15	MET15	0.024	
232	 3HB	641.274	166.610	-594.858	 H	15	MET15	0.024	
233	 2HG	640.190	164.434	-595.309	 H	15	MET15	0.044	
234	 3HG	640.211	164.704	-597.062	 H	15	MET15	0.044	
235	 1HE	637.636	163.968	-596.689	 H	15	MET15	0.068	
236	 2HE	637.701	164.104	-594.904	 H	15	MET15	0.068	
237	 3HE	636.435	164.972	-595.821	 H	15	MET15	0.068	
238	   N	644.130	167.192	-594.951	N.am	16	ARG16	-0.348	
239	  CA	645.127	168.256	-594.867	C.3	16	ARG16	-0.264	
240	   C	646.398	167.863	-595.582	C.2	16	ARG16	0.734	
241	   O	646.512	166.786	-596.164	O.2	16	ARG16	-0.589	
242	  CB	645.395	168.573	-593.368	C.3	16	ARG16	-0.001	
243	  CG	646.220	169.862	-593.095	C.3	16	ARG16	0.039	
244	  CD	646.469	170.081	-591.594	C.3	16	ARG16	0.049	
245	  NE	647.246	171.340	-591.392	N.pl3	16	ARG16	-0.530	
246	  CZ	647.636	171.822	-590.216	C.cat	16	ARG16	0.808	
247	 NH1	647.388	171.238	-589.078	N.pl3	16	ARG16	-0.863	
248	 NH2	648.301	172.934	-590.197	N.pl3	16	ARG16	-0.863	
249	   H	643.735	166.792	-594.112	 H	16	ARG16	0.275	
250	  HA	644.718	169.149	-595.377	 H	16	ARG16	0.156	
251	 2HB	645.891	167.697	-592.902	 H	16	ARG16	0.033	
252	 3HB	644.426	168.654	-592.835	 H	16	ARG16	0.033	
253	 2HG	645.690	170.733	-593.532	 H	16	ARG16	0.029	
254	 3HG	647.194	169.809	-593.623	 H	16	ARG16	0.029	
255	 2HD	647.018	169.206	-591.180	 H	16	ARG16	0.069	
256	 3HD	645.496	170.124	-591.059	 H	16	ARG16	0.069	
257	  HE	647.525	171.921	-592.189	 H	16	ARG16	0.346	
258	1HH1	646.862	170.365	-589.163	 H	16	ARG16	0.448	
259	2HH1	647.722	171.673	-588.217	 H	16	ARG16	0.448	
260	1HH2	648.487	173.378	-591.099	 H	16	ARG16	0.448	
261	2HH2	648.590	173.289	-589.284	 H	16	ARG16	0.448	
@<TRIPOS>BOND
1 1 2 1
2 1 10 1
3 2 3 1
4 2 5 1
5 2 11 1
6 3 4 2
7 3 16 1
8 5 6 1
9 6 7 1
10 7 8 2
11 7 9 1
12 5 12 1
13 5 13 1
14 6 14 1
15 6 15 1
16 16 17 1
17 16 24 1
18 17 18 1
19 17 20 1
20 17 25 1
21 18 19 2
22 18 30 1
23 20 21 1
24 21 22 1
25 21 23 2
26 20 26 1
27 20 27 1
28 22 28 1
29 22 29 1
30 30 31 1
31 30 36 1
32 31 32 1
33 31 34 1
34 31 37 1
35 32 33 2
36 32 44 1
37 34 35 1
38 35 36 1
39 34 38 1
40 34 39 1
41 35 40 1
42 35 41 1
43 36 42 1
44 36 43 1
45 44 45 1
46 44 50 1
47 45 46 1
48 45 48 1
49 45 51 1
50 46 47 2
51 46 55 1
52 48 49 1
53 48 52 1
54 48 53 1
55 49 54 1
56 55 56 1
57 55 61 1
58 56 57 1
59 56 59 1
60 56 62 1
61 57 58 2
62 57 66 1
63 59 60 1
64 59 63 1
65 59 64 1
66 60 65 1
67 66 67 1
68 66 74 1
69 67 68 1
70 67 70 1
71 67 75 1
72 68 69 2
73 68 85 1
74 70 71 1
75 70 72 1
76 71 73 1
77 70 76 1
78 71 77 1
79 71 78 1
80 72 79 1
81 72 80 1
82 72 81 1
83 73 82 1
84 73 83 1
85 73 84 1
86 85 86 1
87 85 93 1
88 86 87 1
89 86 89 1
90 86 94 1
91 87 88 2
92 87 104 1
93 89 90 1
94 90 91 1
95 90 92 1
96 89 95 1
97 89 96 1
98 90 97 1
99 91 98 1
100 91 99 1
101 91 100 1
102 92 101 1
103 92 102 1
104 92 103 1
105 104 105 1
106 104 112 1
107 105 106 1
108 105 108 1
109 105 113 1
110 106 107 2
111 106 116 1
112 108 109 1
113 109 110 2
114 109 111 1
115 108 114 1
116 108 115 1
117 116 117 1
118 116 125 1
119 117 118 1
120 117 120 1
121 117 126 1
122 118 119 2
123 118 131 1
124 120 121 1
125 121 122 1
126 122 123 2
127 122 124 1
128 120 127 1
129 120 128 1
130 121 129 1
131 121 130 1
132 131 132 1
133 131 141 1
134 132 133 1
135 132 135 1
136 132 142 1
137 133 134 2
138 133 148 1
139 135 136 1
140 136 137 2
141 137 140 1
142 136 138 1
143 138 139 2
144 139 140 1
145 135 143 1
146 135 144 1
147 137 145 1
148 139 146 1
149 140 147 1
150 148 149 1
151 148 155 1
152 149 150 1
153 149 152 1
154 149 156 1
155 150 151 2
156 150 164 1
157 152 153 1
158 152 154 1
159 152 157 1
160 153 158 1
161 153 159 1
162 153 160 1
163 154 161 1
164 154 162 1
165 154 163 1
166 164 165 1
167 164 173 1
168 165 166 1
169 165 168 1
170 165 174 1
171 166 167 2
172 166 181 1
173 168 169 1
174 169 170 1
175 170 171 1
176 170 172 2
177 168 175 1
178 168 176 1
179 169 177 1
180 169 178 1
181 171 179 1
182 171 180 1
183 181 182 1
184 181 192 1
185 182 183 1
186 182 185 1
187 182 193 1
188 183 184 2
189 183 205 1
190 185 186 1
191 186 187 1
192 187 188 1
193 188 189 1
194 189 190 2
195 189 191 1
196 185 194 1
197 185 195 1
198 186 196 1
199 186 197 1
200 187 198 1
201 187 199 1
202 188 200 1
203 190 201 1
204 190 202 1
205 191 203 1
206 191 204 1
207 205 206 1
208 205 212 1
209 206 207 1
210 206 209 1
211 206 213 1
212 207 208 2
213 207 221 1
214 209 210 1
215 209 211 1
216 209 214 1
217 210 215 1
218 210 216 1
219 210 217 1
220 211 218 1
221 211 219 1
222 211 220 1
223 221 222 1
224 221 229 1
225 222 223 1
226 222 225 1
227 222 230 1
228 223 224 2
229 223 238 1
230 225 226 1
231 226 227 1
232 227 228 1
233 225 231 1
234 225 232 1
235 226 233 1
236 226 234 1
237 228 235 1
238 228 236 1
239 228 237 1
240 238 239 1
241 238 249 1
242 239 240 1
243 239 242 1
244 239 250 1
245 240 241 2
246 242 243 1
247 243 244 1
248 244 245 1
249 245 246 1
250 246 247 2
251 246 248 1
252 242 251 1
253 242 252 1
254 243 253 1
255 243 254 1
256 244 255 1
257 244 256 1
258 245 257 1
259 247 258 1
260 247 259 1
261 248 260 1
262 248 261 1
@<TRIPOS>SUBSTRUCTURE
1	GLU1	1	RESIDUE	1 ****	GLU
2	ASN2	16	RESIDUE	1 ****	ASN
3	PRO3	30	RESIDUE	1 ****	PRO
4	SER4	44	RESIDUE	1 ****	SER
5	SER5	55	RESIDUE	1 ****	SER
6	ILE6	66	RESIDUE	1 ****	ILE
7	LEU7	85	RESIDUE	1 ****	LEU
8	ASP8	104	RESIDUE	1 ****	ASP
9	GLU9	116	RESIDUE	1 ****	GLU
10	HIS10	131	RESIDUE	1 ****	HIS
11	VAL11	148	RESIDUE	1 ****	VAL
12	GLN12	164	RESIDUE	1 ****	GLN
13	ARG13	181	RESIDUE	1 ****	ARG
14	VAL14	205	RESIDUE	1 ****	VAL
15	MET15	221	RESIDUE	1 ****	MET
16	ARG16	238	RESIDUE	1 ****	ARG
