REMARK WARNING: 32 MAX_TORS EXCEEDED!!!
REMARK  69 active torsions:
REMARK  status: ('A' for Active; 'I' for Inactive)
REMARK    1  A    between atoms: N_1  and  CA_2 
REMARK    2  A    between atoms: CA_2  and  C_3 
REMARK    3  A    between atoms: CA_2  and  CB_5 
REMARK       I    between atoms: C_3  and  N_11 
REMARK    4  A    between atoms: CB_5  and  CG_6 
REMARK    5  A    between atoms: CG_6  and  CD_7 
REMARK    6  A    between atoms: N_11  and  CA_12 
REMARK    7  A    between atoms: CA_12  and  C_13 
REMARK    8  A    between atoms: CA_12  and  CB_15 
REMARK       I    between atoms: C_13  and  N_22 
REMARK    9  A    between atoms: CB_15  and  CG_16 
REMARK       I    between atoms: CG_16  and  ND2_17 
REMARK   10  A    between atoms: CA_23  and  C_24 
REMARK       I    between atoms: C_24  and  N_29 
REMARK   11  A    between atoms: N_29  and  CA_30 
REMARK   12  A    between atoms: CA_30  and  C_31 
REMARK   13  A    between atoms: CA_30  and  CB_33 
REMARK       I    between atoms: C_31  and  N_39 
REMARK   14  A    between atoms: CB_33  and  CG_34 
REMARK   15  A    between atoms: CG_34  and  CD_35 
REMARK   16  A    between atoms: N_39  and  CA_40 
REMARK   17  A    between atoms: CA_40  and  C_41 
REMARK   18  A    between atoms: CA_40  and  CB_43 
REMARK       I    between atoms: C_41  and  N_47 
REMARK   19  A    between atoms: CB_43  and  OG_44 
REMARK   20  A    between atoms: N_47  and  CA_48 
REMARK   21  A    between atoms: CA_48  and  C_49 
REMARK   22  A    between atoms: CA_48  and  CB_51 
REMARK       I    between atoms: C_49  and  N_57 
REMARK   23  A    between atoms: CB_51  and  CG_52 
REMARK   24  A    between atoms: CG_52  and  CD_53 
REMARK   25  A    between atoms: N_57  and  CA_58 
REMARK   26  A    between atoms: CA_58  and  C_59 
REMARK   27  A    between atoms: CA_58  and  CB_61 
REMARK       I    between atoms: C_59  and  N_66 
REMARK   28  A    between atoms: CB_61  and  CG_62 
REMARK   29  A    between atoms: N_66  and  CA_67 
REMARK   30  A    between atoms: CA_67  and  C_68 
REMARK   31  A    between atoms: CA_67  and  CB_70 
REMARK       I    between atoms: C_68  and  N_75 
REMARK   32  A    between atoms: CB_70  and  CG_71 
REMARK   33  A    between atoms: N_75  and  CA_76 
REMARK   34  A    between atoms: CA_76  and  C_77 
REMARK   35  A    between atoms: CA_76  and  CB_79 
REMARK       I    between atoms: C_77  and  N_85 
REMARK   36  A    between atoms: CB_79  and  CG_80 
REMARK   37  A    between atoms: CG_80  and  CD_81 
REMARK   38  A    between atoms: N_85  and  CA_86 
REMARK   39  A    between atoms: CA_86  and  C_87 
REMARK   40  A    between atoms: CA_86  and  CB_89 
REMARK       I    between atoms: C_87  and  N_97 
REMARK   41  A    between atoms: CB_89  and  CG_90 
REMARK   42  A    between atoms: N_97  and  CA_98 
REMARK   43  A    between atoms: CA_98  and  C_99 
REMARK   44  A    between atoms: CA_98  and  CB_101 
REMARK       I    between atoms: C_99  and  N_105 
REMARK   45  A    between atoms: N_105  and  CA_106 
REMARK   46  A    between atoms: CA_106  and  C_107 
REMARK   47  A    between atoms: CA_106  and  CB_109 
REMARK       I    between atoms: C_107  and  N_117 
REMARK   48  A    between atoms: CB_109  and  CG_110 
REMARK   49  A    between atoms: CG_110  and  CD_111 
REMARK       I    between atoms: CD_111  and  NE2_112 
REMARK   50  A    between atoms: N_117  and  CA_118 
REMARK   51  A    between atoms: CA_118  and  C_119 
REMARK   52  A    between atoms: CA_118  and  CB_121 
REMARK       I    between atoms: C_119  and  N_134 
REMARK   53  A    between atoms: CB_121  and  CG_122 
REMARK   54  A    between atoms: CG_122  and  CD_123 
REMARK   55  A    between atoms: CD_123  and  NE_124 
REMARK       I    between atoms: NE_124  and  CZ_125 
REMARK       I    between atoms: CZ_125  and  NH1_126 
REMARK       I    between atoms: CZ_125  and  NH2_127 
REMARK   56  A    between atoms: N_134  and  CA_135 
REMARK   57  A    between atoms: CA_135  and  C_136 
REMARK   58  A    between atoms: CA_135  and  CB_138 
REMARK       I    between atoms: C_136  and  N_142 
REMARK   59  A    between atoms: N_142  and  CA_143 
REMARK   60  A    between atoms: CA_143  and  C_144 
REMARK   61  A    between atoms: CA_143  and  CB_146 
REMARK       I    between atoms: C_144  and  N_151 
REMARK   62  A    between atoms: CB_146  and  CG_147 
REMARK   63  A    between atoms: CG_147  and  SD_148 
REMARK   64  A    between atoms: N_151  and  CA_152 
REMARK   65  A    between atoms: CA_152  and  C_153 
REMARK   66  A    between atoms: CA_152  and  CB_155 
REMARK   67  A    between atoms: CB_155  and  CG_156 
REMARK   68  A    between atoms: CG_156  and  CD_157 
REMARK   69  A    between atoms: CD_157  and  NE_158 
REMARK       I    between atoms: NE_158  and  CZ_159 
REMARK       I    between atoms: CZ_159  and  NH1_160 
ROOT
ATOM      1  C   GLU d   9    1010.706 283.170-985.928  0.00  0.00     0.241 C 
ATOM      2  O   GLU d   9    1011.370 283.925-986.653  0.00  0.00    -0.271 OA
ATOM      3  N   HIS d  10    1010.803 281.895-986.097  0.00  0.00    -0.346 N 
ATOM      4  H   HIS d  10    1010.272 281.259-985.519  0.00  0.00     0.163 HD
ENDROOT
BRANCH   1   5
ATOM      5  CA  GLU d   9    1009.788 283.698-984.852  0.00  0.00     0.177 C 
BRANCH   5   6
ATOM      6  N   GLU d   9    1008.485 283.040-984.907  0.00  0.00    -0.346 N 
ATOM      7  C   ASP d   8    1007.805 283.090-986.002  0.00  0.00     0.241 C 
ATOM      8  O   ASP d   8    1008.278 283.695-986.977  0.00  0.00    -0.271 OA
ATOM      9  H   GLU d   9    1008.122 282.553-984.100  0.00  0.00     0.163 HD
BRANCH   7  10
ATOM     10  CA  ASP d   8    1006.459 282.410-986.059  0.00  0.00     0.186 C 
BRANCH  10  11
ATOM     11  N   ASP d   8    1006.530 281.060-985.505  0.00  0.00    -0.346 N 
ATOM     12  C   LEU d   7    1007.367 280.220-986.012  0.00  0.00     0.241 C 
ATOM     13  O   LEU d   7    1008.087 280.582-986.954  0.00  0.00    -0.271 OA
ATOM     14  H   ASP d   8    1005.932 280.789-984.738  0.00  0.00     0.163 HD
BRANCH  12  15
ATOM     15  CA  LEU d   7    1007.440 278.824-985.439  0.00  0.00     0.177 C 
BRANCH  15  16
ATOM     16  N   LEU d   7    1007.495 278.861-983.981  0.00  0.00    -0.346 N 
ATOM     17  C   GLU d   6    1008.441 279.525-983.407  0.00  0.00     0.241 C 
ATOM     18  O   GLU d   6    1009.275 280.112-984.112  0.00  0.00    -0.271 OA
ATOM     19  H   LEU d   7    1006.803 278.374-983.429  0.00  0.00     0.163 HD
BRANCH  17  20
ATOM     20  CA  GLU d   6    1008.498 279.562-981.899  0.00  0.00     0.177 C 
BRANCH  20  21
ATOM     21  N   GLU d   6    1007.185 279.857-981.333  0.00  0.00    -0.346 N 
ATOM     22  C   SER d   5    1006.580 280.940-981.687  0.00  0.00     0.243 C 
ATOM     23  O   SER d   5    1007.127 281.694-982.492  0.00  0.00    -0.271 OA
ATOM     24  H   GLU d   6    1006.756 279.223-980.674  0.00  0.00     0.163 HD
BRANCH  22  25
ATOM     25  CA  SER d   5    1005.221 281.245-981.102  0.00  0.00     0.200 C 
BRANCH  25  26
ATOM     26  N   SER d   5    1004.351 280.074-981.161  0.00  0.00    -0.344 N 
ATOM     27  C   GLU d   4    1004.124 279.521-982.304  0.00  0.00     0.241 C 
ATOM     28  O   GLU d   4    1004.651 280.001-983.318  0.00  0.00    -0.271 OA
ATOM     29  H   SER d   5    1003.934 279.702-980.319  0.00  0.00     0.163 HD
BRANCH  27  30
ATOM     30  CA  GLU d   4    1003.225 278.310-982.365  0.00  0.00     0.177 C 
BRANCH  30  31
ATOM     31  N   GLU d   4    1003.585 277.339-981.335  0.00  0.00    -0.346 N 
ATOM     32  C   PRO d   3    1004.790 276.879-981.303  0.00  0.00     0.241 C 
ATOM     33  O   PRO d   3    1005.613 277.262-982.134  0.00  0.00    -0.271 OA
ATOM     34  H   GLU d   4    1002.901 277.032-980.659  0.00  0.00     0.163 HD
BRANCH  32  35
ATOM     35  CA  PRO d   3    1005.188 275.856-980.226  0.00  0.00     0.179 C 
ATOM     36  N   PRO d   3    1004.736 276.265-978.904  0.00  0.00    -0.337 N 
ATOM     37  C   ASN d   2    1005.258 277.260-978.270  0.00  0.00     0.243 C 
ATOM     38  CD  PRO d   3    1003.658 275.472-978.356  0.00  0.00     0.127 C 
ATOM     39  O   ASN d   2    1006.173 277.891-978.799  0.00  0.00    -0.271 OA
ATOM     40  CG  PRO d   3    1003.201 274.653-979.565  0.00  0.00     0.022 C 
ATOM     41  CB  PRO d   3    1004.484 274.501-980.396  0.00  0.00     0.037 C 
BRANCH  37  42
ATOM     42  CA  ASN d   2    1004.726 277.616-976.902  0.00  0.00     0.185 C 
BRANCH  42  43
ATOM     43  N   ASN d   2    1003.267 277.654-976.902  0.00  0.00    -0.346 N 
ATOM     44  C   GLU d   1    1002.662 278.440-977.727  0.00  0.00     0.242 C 
ATOM     45  O   GLU d   1    1003.338 279.139-978.496  0.00  0.00    -0.271 OA
ATOM     46  H   ASN d   2    1002.739 277.075-976.265  0.00  0.00     0.163 HD
BRANCH  44  47
ATOM     47  CA  GLU d   1    1001.154 278.480-977.727  0.00  0.00     0.191 C 
BRANCH  47  48
ATOM     48  N   GLU d   1    1000.594 277.131-977.727  0.00  0.00    -0.326 NA
ATOM     49  H   GLU d   1    1001.221 276.252-977.727  0.00  0.00     0.180 HD
ENDBRANCH  47  48
BRANCH  47  50
ATOM     50  CB  GLU d   1    1000.630 279.265-976.490  0.00  0.00     0.047 C 
BRANCH  50  51
ATOM     51  CG  GLU d   1    1001.105 280.750-976.379  0.00  0.00     0.116 C 
BRANCH  51  52
ATOM     52  CD  GLU d   1    1000.681 281.554-975.164  0.00  0.00     0.172 C 
ATOM     53  OE1 GLU d   1     999.953 281.052-974.286  0.00  0.00    -0.648 OA
ATOM     54  OE2 GLU d   1    1001.112 282.724-975.092  0.00  0.00    -0.648 OA
ENDBRANCH  51  52
ENDBRANCH  50  51
ENDBRANCH  47  50
ENDBRANCH  44  47
ENDBRANCH  42  43
BRANCH  42  55
ATOM     55  CB  ASN d   2    1005.219 276.593-975.838  0.00  0.00     0.137 C 
BRANCH  55  56
ATOM     56  CG  ASN d   2    1004.755 276.817-974.394  0.00  0.00     0.217 C 
ATOM     57  ND2 ASN d   2    1005.350 277.732-973.676  0.00  0.00    -0.370 N 
ATOM     58 21HD ASN d   2    1004.869 277.905-972.789  0.00  0.00     0.159 HD
ATOM     59 22HD ASN d   2    1006.051 278.303-974.145  0.00  0.00     0.159 HD
ATOM     60  OD1 ASN d   2    1003.835 276.183-973.900  0.00  0.00    -0.274 OA
ENDBRANCH  55  56
ENDBRANCH  42  55
ENDBRANCH  37  42
ENDBRANCH  32  35
ENDBRANCH  30  31
BRANCH  30  61
ATOM     61  CB  GLU d   4    1001.737 278.729-982.195  0.00  0.00     0.045 C 
BRANCH  61  62
ATOM     62  CG  GLU d   4    1001.189 279.732-983.260  0.00  0.00     0.116 C 
BRANCH  62  63
ATOM     63  CD  GLU d   4     999.762 280.229-983.117  0.00  0.00     0.172 C 
ATOM     64  OE1 GLU d   4     999.036 279.830-982.186  0.00  0.00    -0.648 OA
ATOM     65  OE2 GLU d   4     999.372 281.058-983.965  0.00  0.00    -0.648 OA
ENDBRANCH  62  63
ENDBRANCH  61  62
ENDBRANCH  30  61
ENDBRANCH  27  30
ENDBRANCH  25  26
BRANCH  25  66
ATOM     66  CB  SER d   5    1005.332 281.778-979.651  0.00  0.00     0.199 C 
BRANCH  66  67
ATOM     67  OG  SER d   5    1006.064 280.898-978.790  0.00  0.00    -0.398 OA
ATOM     68  HG  SER d   5    1005.575 280.073-978.740  0.00  0.00     0.209 HD
ENDBRANCH  66  67
ENDBRANCH  25  66
ENDBRANCH  22  25
ENDBRANCH  20  21
BRANCH  20  69
ATOM     69  CB  GLU d   6    1009.018 278.207-981.341  0.00  0.00     0.045 C 
BRANCH  69  70
ATOM     70  CG  GLU d   6    1010.443 277.778-981.820  0.00  0.00     0.116 C 
BRANCH  70  71
ATOM     71  CD  GLU d   6    1010.985 276.437-981.362  0.00  0.00     0.172 C 
ATOM     72  OE1 GLU d   6    1010.322 275.704-980.603  0.00  0.00    -0.648 OA
ATOM     73  OE2 GLU d   6    1012.110 276.112-981.796  0.00  0.00    -0.648 OA
ENDBRANCH  70  71
ENDBRANCH  69  70
ENDBRANCH  20  69
ENDBRANCH  17  20
ENDBRANCH  15  16
BRANCH  15  74
ATOM     74  CB  LEU d   7    1006.237 277.964-985.919  0.00  0.00     0.038 C 
BRANCH  74  75
ATOM     75  CG  LEU d   7    1006.164 276.485-985.452  0.00  0.00    -0.020 C 
ATOM     76  CD1 LEU d   7    1004.974 275.779-986.117  0.00  0.00     0.009 C 
ATOM     77  CD2 LEU d   7    1007.458 275.706-985.744  0.00  0.00     0.009 C 
ENDBRANCH  74  75
ENDBRANCH  15  74
ENDBRANCH  12  15
ENDBRANCH  10  11
BRANCH  10  78
ATOM     78  CB  ASP d   8    1005.381 283.249-985.317  0.00  0.00     0.147 C 
BRANCH  78  79
ATOM     79  CG  ASP d   8    1005.162 284.669-985.858  0.00  0.00     0.175 C 
ATOM     80  OD1 ASP d   8    1005.225 284.868-987.088  0.00  0.00    -0.648 OA
ATOM     81  OD2 ASP d   8    1004.970 285.595-985.042  0.00  0.00    -0.648 OA
ENDBRANCH  78  79
ENDBRANCH  10  78
ENDBRANCH   7  10
ENDBRANCH   5   6
BRANCH   5  82
ATOM     82  CB  GLU d   9    1010.422 283.490-983.447  0.00  0.00     0.045 C 
BRANCH  82  83
ATOM     83  CG  GLU d   9    1011.804 284.183-983.217  0.00  0.00     0.116 C 
BRANCH  83  84
ATOM     84  CD  GLU d   9    1012.507 283.969-981.889  0.00  0.00     0.172 C 
ATOM     85  OE1 GLU d   9    1011.985 283.278-980.993  0.00  0.00    -0.648 OA
ATOM     86  OE2 GLU d   9    1013.626 284.507-981.758  0.00  0.00    -0.648 OA
ENDBRANCH  83  84
ENDBRANCH  82  83
ENDBRANCH   5  82
ENDBRANCH   1   5
BRANCH   3  87
ATOM     87  CA  HIS d  10    1011.691 281.384-987.138  0.00  0.00     0.182 C 
BRANCH  87  88
ATOM     88  C   HIS d  10    1011.324 281.948-988.489  0.00  0.00     0.241 C 
ATOM     89  O   HIS d  10    1012.176 282.413-989.261  0.00  0.00    -0.271 OA
ATOM     90  N   VAL d  11    1010.086 281.947-988.852  0.00  0.00    -0.346 N 
ATOM     91  H   VAL d  11    1009.373 281.574-988.241  0.00  0.00     0.163 HD
BRANCH  90  92
ATOM     92  CA  VAL d  11    1009.731 282.493-990.158  0.00  0.00     0.180 C 
BRANCH  92  93
ATOM     93  C   VAL d  11    1010.195 283.923-990.291  0.00  0.00     0.241 C 
ATOM     94  O   VAL d  11    1010.796 284.329-991.294  0.00  0.00    -0.271 OA
ATOM     95  N   GLN d  12    1009.957 284.749-989.329  0.00  0.00    -0.346 N 
ATOM     96  H   GLN d  12    1009.469 284.443-988.500  0.00  0.00     0.163 HD
BRANCH  95  97
ATOM     97  CA  GLN d  12    1010.405 286.132-989.456  0.00  0.00     0.177 C 
BRANCH  97  98
ATOM     98  C   GLN d  12    1011.895 286.200-989.694  0.00  0.00     0.241 C 
ATOM     99  O   GLN d  12    1012.382 286.909-990.572  0.00  0.00    -0.271 OA
ATOM    100  N   ARG d  13    1012.680 285.493-988.953  0.00  0.00    -0.346 N 
ATOM    101  H   ARG d  13    1012.304 284.904-988.224  0.00  0.00     0.163 HD
BRANCH 100 102
ATOM    102  CA  ARG d  13    1014.120 285.560-989.184  0.00  0.00     0.176 C 
BRANCH 102 103
ATOM    103  C   ARG d  13    1014.457 285.189-990.609  0.00  0.00     0.241 C 
ATOM    104  O   ARG d  13    1015.225 285.860-991.293  0.00  0.00    -0.271 OA
ATOM    105  N   VAL d  14    1013.921 284.134-991.123  0.00  0.00    -0.346 N 
ATOM    106  H   VAL d  14    1013.286 283.565-990.581  0.00  0.00     0.163 HD
BRANCH 105 107
ATOM    107  CA  VAL d  14    1014.246 283.775-992.500  0.00  0.00     0.180 C 
BRANCH 107 108
ATOM    108  C   VAL d  14    1013.916 284.905-993.446  0.00  0.00     0.241 C 
ATOM    109  O   VAL d  14    1014.709 285.286-994.316  0.00  0.00    -0.271 OA
ATOM    110  N   MET d  15    1012.771 285.490-993.344  0.00  0.00    -0.346 N 
ATOM    111  H   MET d  15    1012.106 285.197-992.643  0.00  0.00     0.163 HD
BRANCH 110 112
ATOM    112  CA  MET d  15    1012.450 286.583-994.258  0.00  0.00     0.177 C 
BRANCH 112 113
ATOM    113  C   MET d  15    1013.480 287.683-994.170  0.00  0.00     0.241 C 
ATOM    114  O   MET d  15    1013.982 288.194-995.183  0.00  0.00    -0.271 OA
ATOM    115  N   ARG d  16    1013.848 288.104-993.008  0.00  0.00    -0.347 N 
ATOM    116  H   ARG d  16    1013.454 287.704-992.169  0.00  0.00     0.163 HD
BRANCH 115 117
ATOM    117  CA  ARG d  16    1014.845 289.168-992.924  0.00  0.00     0.162 C 
BRANCH 117 118
ATOM    118  C   ARG d  16    1016.115 288.776-993.641  0.00  0.00     0.219 C 
ATOM    119  O   ARG d  16    1016.229 287.699-994.222  0.00  0.00    -0.287 OA
ENDBRANCH 117 118
BRANCH 117 120
ATOM    120  CB  ARG d  16    1015.114 289.486-991.426  0.00  0.00     0.035 C 
BRANCH 120 121
ATOM    121  CG  ARG d  16    1015.939 290.776-991.154  0.00  0.00     0.023 C 
BRANCH 121 122
ATOM    122  CD  ARG d  16    1016.188 290.995-989.652  0.00  0.00     0.138 C 
BRANCH 122 123
ATOM    123  NE  ARG d  16    1016.964 292.254-989.452  0.00  0.00    -0.227 N 
ATOM    124  CZ  ARG d  16    1017.355 292.737-988.276  0.00  0.00     0.665 C 
ATOM    125  NH1 ARG d  16    1017.108 292.153-987.137  0.00  0.00    -0.235 N 
ATOM    126  NH2 ARG d  16    1018.019 293.850-988.258  0.00  0.00    -0.235 N 
ATOM    127 11HH ARG d  16    1016.583 291.279-987.222  0.00  0.00     0.174 HD
ATOM    128 12HH ARG d  16    1017.442 292.588-986.276  0.00  0.00     0.174 HD
ATOM    129 21HH ARG d  16    1018.205 294.293-989.160  0.00  0.00     0.174 HD
ATOM    130 22HH ARG d  16    1018.309 294.205-987.345  0.00  0.00     0.174 HD
ATOM    131  HE  ARG d  16    1017.243 292.835-990.249  0.00  0.00     0.177 HD
ENDBRANCH 122 123
ENDBRANCH 121 122
ENDBRANCH 120 121
ENDBRANCH 117 120
ENDBRANCH 115 117
ENDBRANCH 112 113
BRANCH 112 132
ATOM    132  CB  MET d  15    1011.028 287.128-993.949  0.00  0.00     0.045 C 
BRANCH 132 133
ATOM    133  CG  MET d  15    1009.867 286.130-994.141  0.00  0.00     0.076 C 
BRANCH 133 134
ATOM    134  SD  MET d  15    1008.292 286.995-994.027  0.00  0.00    -0.173 SA
ATOM    135  CE  MET d  15    1007.212 285.565-993.890  0.00  0.00     0.089 C 
ENDBRANCH 133 134
ENDBRANCH 132 133
ENDBRANCH 112 132
ENDBRANCH 110 112
ENDBRANCH 107 108
BRANCH 107 136
ATOM    136  CB  VAL d  14    1013.474 282.457-992.908  0.00  0.00     0.009 C 
ATOM    137  CG1 VAL d  14    1013.563 282.039-994.401  0.00  0.00     0.012 C 
ATOM    138  CG2 VAL d  14    1013.906 281.205-992.107  0.00  0.00     0.012 C 
ENDBRANCH 107 136
ENDBRANCH 105 107
ENDBRANCH 102 103
BRANCH 102 139
ATOM    139  CB  ARG d  13    1014.834 284.621-988.170  0.00  0.00     0.036 C 
BRANCH 139 140
ATOM    140  CG  ARG d  13    1016.379 284.775-988.088  0.00  0.00     0.023 C 
BRANCH 140 141
ATOM    141  CD  ARG d  13    1017.006 283.787-987.091  0.00  0.00     0.138 C 
BRANCH 141 142
ATOM    142  NE  ARG d  13    1018.483 283.995-987.040  0.00  0.00    -0.227 N 
ATOM    143  CZ  ARG d  13    1019.331 283.303-986.285  0.00  0.00     0.665 C 
ATOM    144  NH1 ARG d  13    1018.967 282.339-985.488  0.00  0.00    -0.235 N 
ATOM    145  NH2 ARG d  13    1020.591 283.603-986.342  0.00  0.00    -0.235 N 
ATOM    146 11HH ARG d  13    1017.961 282.152-985.491  0.00  0.00     0.174 HD
ATOM    147 12HH ARG d  13    1019.680 281.856-984.939  0.00  0.00     0.174 HD
ATOM    148 21HH ARG d  13    1020.858 284.361-986.973  0.00  0.00     0.174 HD
ATOM    149 22HH ARG d  13    1021.226 283.062-985.753  0.00  0.00     0.174 HD
ATOM    150  HE  ARG d  13    1018.934 284.717-987.611  0.00  0.00     0.177 HD
ENDBRANCH 141 142
ENDBRANCH 140 141
ENDBRANCH 139 140
ENDBRANCH 102 139
ENDBRANCH 100 102
ENDBRANCH  97  98
BRANCH  97 151
ATOM    151  CB  GLN d  12    1010.014 286.900-988.173  0.00  0.00     0.044 C 
BRANCH 151 152
ATOM    152  CG  GLN d  12    1010.374 288.422-988.142  0.00  0.00     0.105 C 
BRANCH 152 153
ATOM    153  CD  GLN d  12    1010.071 289.235-986.877  0.00  0.00     0.215 C 
ATOM    154  NE2 GLN d  12    1009.504 288.658-985.848  0.00  0.00    -0.370 N 
ATOM    155 21HE GLN d  12    1009.397 289.253-985.025  0.00  0.00     0.159 HD
ATOM    156 22HE GLN d  12    1009.341 287.655-985.952  0.00  0.00     0.159 HD
ATOM    157  OE1 GLN d  12    1010.373 290.416-986.800  0.00  0.00    -0.274 OA
ENDBRANCH 152 153
ENDBRANCH 151 152
ENDBRANCH  97 151
ENDBRANCH  95  97
ENDBRANCH  92  93
BRANCH  92 158
ATOM    158  CB  VAL d  11    1008.169 282.386-990.378  0.00  0.00     0.009 C 
ATOM    159  CG1 VAL d  11    1007.600 283.089-991.640  0.00  0.00     0.012 C 
ATOM    160  CG2 VAL d  11    1007.645 280.931-990.451  0.00  0.00     0.012 C 
ENDBRANCH  92 158
ENDBRANCH  90  92
ENDBRANCH  87  88
BRANCH  87 161
ATOM    161  CB  HIS d  10    1011.527 279.855-987.133  0.00  0.00     0.095 C 
BRANCH 161 162
ATOM    162  CG  HIS d  10    1012.813 279.145-986.824  0.00  0.00     0.053 A 
ATOM    163  CD2 HIS d  10    1013.194 278.810-985.532  0.00  0.00     0.116 A 
ATOM    164  NE2 HIS d  10    1014.409 278.178-985.599  0.00  0.00    -0.359 N 
ATOM    165  CE1 HIS d  10    1014.671 278.181-986.934  0.00  0.00     0.207 A 
ATOM    166  2HE HIS d  10    1014.976 277.801-984.825  0.00  0.00     0.166 HD
ATOM    167  ND1 HIS d  10    1013.765 278.739-987.757  0.00  0.00    -0.247 NA
ENDBRANCH 161 162
ENDBRANCH  87 161
ENDBRANCH   3  87
TORSDOF 69
