@<TRIPOS>MOLECULE
16-3
248 249 16              
SMALL
USER_CHARGES
@<TRIPOS>ATOM
1	   N	2514.257	771.882	-2622.176	N.3	1	GLU1	-0.516	
2	  CA	2514.816	773.231	-2622.176	C.3	1	GLU1	0.040	
3	   C	2516.325	773.191	-2622.176	C.2	1	GLU1	0.537	
4	   O	2517.001	773.890	-2622.945	O.2	1	GLU1	-0.582	
5	  CB	2514.293	774.016	-2620.939	C.3	1	GLU1	0.056	
6	  CG	2514.768	775.501	-2620.828	C.3	1	GLU1	0.014	
7	  CD	2514.344	776.305	-2619.613	C.2	1	GLU1	0.805	
8	 OE1	2513.616	775.803	-2618.735	O.co2	1	GLU1	-0.819	
9	 OE2	2514.774	777.475	-2619.541	O.co2	1	GLU1	-0.819	
10	   H	2514.884	771.003	-2622.176	 H	1	GLU1	0.294	
11	  HA	2514.490	773.749	-2623.096	 H	1	GLU1	0.111	
12	 2HB	2514.582	773.485	-2620.009	 H	1	GLU1	-0.017	
13	 3HB	2513.186	774.006	-2620.926	 H	1	GLU1	-0.017	
14	 2HG	2514.458	776.086	-2621.709	 H	1	GLU1	-0.043	
15	 3HG	2515.868	775.568	-2620.799	 H	1	GLU1	-0.043	
16	   N	2516.930	772.405	-2621.351	N.am	2	ASN2	-0.416	
17	  CA	2518.389	772.366	-2621.351	C.3	2	ASN2	0.014	
18	   C	2518.920	772.010	-2622.719	C.2	2	ASN2	0.597	
19	   O	2519.835	772.641	-2623.247	O.2	2	ASN2	-0.568	
20	  CB	2518.881	771.343	-2620.286	C.3	2	ASN2	-0.204	
21	  CG	2518.417	771.567	-2618.843	C.2	2	ASN2	0.713	
22	 ND2	2519.011	772.482	-2618.125	N.pl3	2	ASN2	-0.919	
23	 OD1	2517.496	770.934	-2618.349	O.2	2	ASN2	-0.593	
24	   H	2516.401	771.826	-2620.714	 H	2	ASN2	0.272	
25	  HA	2518.767	773.376	-2621.105	 H	2	ASN2	0.105	
26	 2HB	2519.985	771.284	-2620.289	 H	2	ASN2	0.080	
27	 3HB	2518.552	770.325	-2620.572	 H	2	ASN2	0.080	
28	1HD2	2518.530	772.655	-2617.238	 H	2	ASN2	0.420	
29	2HD2	2519.713	773.053	-2618.594	 H	2	ASN2	0.420	
30	   N	2518.399	771.016	-2623.354	N.am	3	PRO3	-0.255	
31	  CA	2518.851	770.606	-2624.675	C.3	3	PRO3	-0.027	
32	   C	2518.453	771.630	-2625.752	C.2	3	PRO3	0.590	
33	   O	2519.277	772.013	-2626.583	O.2	3	PRO3	-0.575	
34	  CB	2518.147	769.252	-2624.844	C.3	3	PRO3	-0.007	
35	  CG	2516.863	769.404	-2624.015	C.3	3	PRO3	0.019	
36	  CD	2517.321	770.223	-2622.805	C.3	3	PRO3	0.019	
37	  HA	2519.937	770.486	-2624.688	 H	3	PRO3	0.064	
38	 2HB	2518.770	768.471	-2624.404	 H	3	PRO3	0.025	
39	 3HB	2517.949	769.003	-2625.890	 H	3	PRO3	0.025	
40	 2HG	2516.435	768.442	-2623.724	 H	3	PRO3	0.021	
41	 3HG	2516.126	769.975	-2624.582	 H	3	PRO3	0.021	
42	 2HD	2517.709	769.573	-2622.017	 H	3	PRO3	0.039	
43	 3HD	2516.524	770.859	-2622.412	 H	3	PRO3	0.039	
44	   N	2517.249	772.090	-2625.785	N.am	4	GLU4	-0.516	
45	  CA	2516.889	773.061	-2626.814	C.3	4	GLU4	0.040	
46	   C	2517.789	774.272	-2626.753	C.2	4	GLU4	0.537	
47	   O	2518.315	774.751	-2627.767	O.2	4	GLU4	-0.582	
48	  CB	2515.401	773.480	-2626.645	C.3	4	GLU4	0.056	
49	  CG	2514.854	774.484	-2627.710	C.3	4	GLU4	0.014	
50	  CD	2513.427	774.981	-2627.567	C.2	4	GLU4	0.805	
51	 OE1	2512.700	774.583	-2626.637	O.co2	4	GLU4	-0.819	
52	 OE2	2513.038	775.810	-2628.416	O.co2	4	GLU4	-0.819	
53	   H	2516.564	771.784	-2625.108	 H	4	GLU4	0.294	
54	  HA	2517.021	772.591	-2627.806	 H	4	GLU4	0.111	
55	 2HB	2515.248	773.920	-2625.638	 H	4	GLU4	-0.017	
56	 3HB	2514.753	772.583	-2626.651	 H	4	GLU4	-0.017	
57	 2HG	2514.935	774.069	-2628.729	 H	4	GLU4	-0.043	
58	 3HG	2515.442	775.416	-2627.721	 H	4	GLU4	-0.043	
59	   N	2518.016	774.825	-2625.610	N.am	5	SER5	-0.416	
60	  CA	2518.885	775.996	-2625.551	C.3	5	SER5	-0.025	
61	   C	2520.244	775.690	-2626.136	C.2	5	SER5	0.597	
62	   O	2520.792	776.443	-2626.941	O.2	5	SER5	-0.568	
63	  CB	2518.997	776.528	-2624.100	C.3	5	SER5	0.212	
64	  OG	2519.728	775.648	-2623.239	O.3	5	SER5	-0.655	
65	   H	2517.598	774.453	-2624.768	 H	5	SER5	0.272	
66	  HA	2518.437	776.786	-2626.180	 H	5	SER5	0.084	
67	 2HB	2517.997	776.722	-2623.667	 H	5	SER5	0.035	
68	 3HB	2519.502	777.513	-2624.102	 H	5	SER5	0.035	
69	  HG	2519.239	774.823	-2623.188	 H	5	SER5	0.428	
70	   N	2520.849	774.606	-2625.782	N.am	6	ILE6	-0.416	
71	  CA	2522.162	774.311	-2626.348	C.3	6	ILE6	-0.060	
72	   C	2522.105	774.273	-2627.855	C.2	6	ILE6	0.597	
73	   O	2522.939	774.860	-2628.559	O.2	6	ILE6	-0.568	
74	  CB	2522.761	772.974	-2625.747	C.3	6	ILE6	0.130	
75	 CG1	2522.780	772.912	-2624.187	C.3	6	ILE6	-0.043	
76	 CG2	2524.202	772.672	-2626.262	C.3	6	ILE6	-0.320	
77	 CD1	2523.049	771.523	-2623.571	C.3	6	ILE6	-0.066	
78	   H	2520.420	773.972	-2625.123	 H	6	ILE6	0.272	
79	  HA	2522.836	775.145	-2626.080	 H	6	ILE6	0.087	
80	  HB	2522.103	772.149	-2626.092	 H	6	ILE6	0.019	
81	2HG1	2521.798	773.232	-2623.791	 H	6	ILE6	0.024	
82	3HG1	2523.496	773.654	-2623.781	 H	6	ILE6	0.024	
83	1HG2	2524.261	772.579	-2627.361	 H	6	ILE6	0.088	
84	2HG2	2524.925	773.454	-2625.960	 H	6	ILE6	0.088	
85	3HG2	2524.592	771.710	-2625.884	 H	6	ILE6	0.088	
86	1HD1	2522.321	770.769	-2623.926	 H	6	ILE6	0.019	
87	2HD1	2524.060	771.144	-2623.807	 H	6	ILE6	0.019	
88	3HD1	2522.973	771.553	-2622.469	 H	6	ILE6	0.019	
89	   N	2521.159	773.610	-2628.429	N.am	7	LEU7	-0.416	
90	  CA	2521.104	773.574	-2629.887	C.3	7	LEU7	-0.052	
91	   C	2521.032	774.969	-2630.460	C.2	7	LEU7	0.597	
92	   O	2521.753	775.331	-2631.403	O.2	7	LEU7	-0.568	
93	  CB	2519.900	772.714	-2630.368	C.3	7	LEU7	-0.110	
94	  CG	2519.827	771.235	-2629.901	C.3	7	LEU7	0.353	
95	 CD1	2518.637	770.529	-2630.567	C.3	7	LEU7	-0.412	
96	 CD2	2521.121	770.455	-2630.193	C.3	7	LEU7	-0.412	
97	   H	2520.467	773.123	-2627.878	 H	7	LEU7	0.272	
98	  HA	2522.045	773.134	-2630.262	 H	7	LEU7	0.092	
99	 2HB	2519.877	772.730	-2631.476	 H	7	LEU7	0.046	
100	 3HB	2518.961	773.217	-2630.064	 H	7	LEU7	0.046	
101	  HG	2519.657	771.227	-2628.804	 H	7	LEU7	-0.036	
102	1HD1	2517.680	771.038	-2630.344	 H	7	LEU7	0.100	
103	2HD1	2518.736	770.489	-2631.668	 H	7	LEU7	0.100	
104	3HD1	2518.530	769.488	-2630.211	 H	7	LEU7	0.100	
105	1HD2	2521.396	770.485	-2631.263	 H	7	LEU7	0.100	
106	2HD2	2521.974	770.866	-2629.621	 H	7	LEU7	0.100	
107	3HD2	2521.039	769.393	-2629.897	 H	7	LEU7	0.100	
108	   N	2520.195	775.810	-2629.955	N.am	8	ASP8	-0.516	
109	  CA	2520.125	777.160	-2630.509	C.3	8	ASP8	0.038	
110	   C	2521.472	777.839	-2630.452	C.2	8	ASP8	0.537	
111	   O	2521.945	778.443	-2631.427	O.2	8	ASP8	-0.582	
112	  CB	2519.047	778.000	-2629.768	C.3	8	ASP8	-0.030	
113	  CG	2518.829	779.420	-2630.309	C.2	8	ASP8	0.799	
114	 OD1	2518.894	779.618	-2631.540	O.co2	8	ASP8	-0.801	
115	 OD2	2518.638	780.347	-2629.494	O.co2	8	ASP8	-0.801	
116	   H	2519.597	775.540	-2629.187	 H	8	ASP8	0.294	
117	  HA	2519.842	777.081	-2631.576	 H	8	ASP8	0.088	
118	 2HB	2519.305	778.083	-2628.696	 H	8	ASP8	-0.012	
119	 3HB	2518.068	777.495	-2629.800	 H	8	ASP8	-0.012	
120	   N	2522.152	777.789	-2629.357	N.am	9	GLU9	-0.516	
121	  CA	2523.455	778.446	-2629.302	C.3	9	GLU9	0.040	
122	   C	2524.373	777.918	-2630.378	C.2	9	GLU9	0.537	
123	   O	2525.037	778.671	-2631.104	O.2	9	GLU9	-0.582	
124	  CB	2524.089	778.239	-2627.897	C.3	9	GLU9	0.056	
125	  CG	2525.472	778.931	-2627.668	C.3	9	GLU9	0.014	
126	  CD	2526.174	778.718	-2626.340	C.2	9	GLU9	0.805	
127	 OE1	2525.652	778.027	-2625.443	O.co2	9	GLU9	-0.819	
128	 OE2	2527.293	779.255	-2626.208	O.co2	9	GLU9	-0.819	
129	   H	2521.789	777.303	-2628.549	 H	9	GLU9	0.294	
130	  HA	2523.313	779.528	-2629.478	 H	9	GLU9	0.111	
131	 2HB	2524.201	777.154	-2627.693	 H	9	GLU9	-0.017	
132	 3HB	2523.392	778.593	-2627.112	 H	9	GLU9	-0.017	
133	 2HG	2525.400	780.021	-2627.808	 H	9	GLU9	-0.043	
134	 3HG	2526.218	778.585	-2628.402	 H	9	GLU9	-0.043	
135	   N	2524.469	776.642	-2630.547	N.am	10	HIS10	-0.416	
136	  CA	2525.356	776.130	-2631.587	C.3	10	HIS10	-0.058	
137	   C	2524.989	776.694	-2632.938	C.2	10	HIS10	0.597	
138	   O	2525.842	777.158	-2633.711	O.2	10	HIS10	-0.568	
139	  CB	2525.191	774.601	-2631.582	C.3	10	HIS10	-0.007	
140	  CG	2526.477	773.890	-2631.273	C.2	10	HIS10	0.187	
141	 CD2	2526.858	773.556	-2629.981	C.2	10	HIS10	-0.221	
142	 ND1	2527.428	773.484	-2632.206	N.2	10	HIS10	-0.543	
143	 CE1	2528.335	772.926	-2631.383	C.2	10	HIS10	0.163	
144	 NE2	2528.073	772.923	-2630.048	N.pl3	10	HIS10	-0.280	
145	   H	2523.938	776.007	-2629.968	 H	10	HIS10	0.272	
146	  HA	2526.375	776.487	-2631.363	 H	10	HIS10	0.136	
147	 2HB	2524.825	774.234	-2632.561	 H	10	HIS10	0.037	
148	 3HB	2524.436	774.265	-2630.841	 H	10	HIS10	0.037	
149	 2HD	2526.273	773.771	-2629.092	 H	10	HIS10	0.186	
150	 1HE	2529.225	772.504	-2631.830	 H	10	HIS10	0.144	
151	 2HE	2528.639	772.546	-2629.274	 H	10	HIS10	0.334	
152	   N	2523.751	776.694	-2633.301	N.am	11	VAL11	-0.416	
153	  CA	2523.396	777.239	-2634.608	C.3	11	VAL11	-0.087	
154	   C	2523.861	778.669	-2634.742	C.2	11	VAL11	0.597	
155	   O	2524.462	779.074	-2635.745	O.2	11	VAL11	-0.568	
156	  CB	2521.835	777.133	-2634.827	C.3	11	VAL11	0.299	
157	 CG1	2521.266	777.837	-2636.090	C.3	11	VAL11	-0.319	
158	 CG2	2521.310	775.679	-2634.899	C.3	11	VAL11	-0.319	
159	   H	2523.038	776.321	-2632.690	 H	11	VAL11	0.272	
160	  HA	2523.915	776.656	-2635.391	 H	11	VAL11	0.097	
161	  HB	2521.348	777.614	-2633.952	 H	11	VAL11	-0.030	
162	1HG1	2521.705	777.444	-2637.027	 H	11	VAL11	0.079	
163	2HG1	2520.167	777.730	-2636.172	 H	11	VAL11	0.079	
164	3HG1	2521.445	778.929	-2636.082	 H	11	VAL11	0.079	
165	1HG2	2521.599	775.092	-2634.009	 H	11	VAL11	0.079	
166	2HG2	2520.204	775.643	-2634.942	 H	11	VAL11	0.079	
167	3HG2	2521.691	775.138	-2635.786	 H	11	VAL11	0.079	
168	   N	2523.625	779.496	-2633.780	N.am	12	GLN12	-0.416	
169	  CA	2524.074	780.878	-2633.907	C.3	12	GLN12	-0.003	
170	   C	2525.564	780.945	-2634.146	C.2	12	GLN12	0.597	
171	   O	2526.051	781.652	-2635.025	O.2	12	GLN12	-0.568	
172	  CB	2523.684	781.647	-2632.625	C.3	12	GLN12	-0.004	
173	  CG	2524.045	783.168	-2632.595	C.3	12	GLN12	-0.064	
174	  CD	2523.744	783.983	-2631.331	C.2	12	GLN12	0.695	
175	 NE2	2523.177	783.407	-2630.301	N.pl3	12	GLN12	-0.941	
176	 OE1	2524.046	785.163	-2631.254	O.2	12	GLN12	-0.609	
177	   H	2523.136	779.190	-2632.950	 H	12	GLN12	0.272	
178	  HA	2523.575	781.334	-2634.783	 H	12	GLN12	0.085	
179	 2HB	2524.160	781.147	-2631.756	 H	12	GLN12	0.017	
180	 3HB	2522.594	781.540	-2632.462	 H	12	GLN12	0.017	
181	 2HG	2523.568	783.689	-2633.446	 H	12	GLN12	0.035	
182	 3HG	2525.129	783.310	-2632.761	 H	12	GLN12	0.035	
183	1HE2	2523.070	784.002	-2629.478	 H	12	GLN12	0.425	
184	2HE2	2523.012	782.404	-2630.404	 H	12	GLN12	0.425	
185	   N	2526.349	780.238	-2633.405	N.am	13	ARG13	-0.348	
186	  CA	2527.789	780.303	-2633.636	C.3	13	ARG13	-0.264	
187	   C	2528.125	779.931	-2635.061	C.2	13	ARG13	0.734	
188	   O	2528.893	780.602	-2635.745	O.2	13	ARG13	-0.589	
189	  CB	2528.502	779.365	-2632.621	C.3	13	ARG13	-0.001	
190	  CG	2530.047	779.518	-2632.541	C.3	13	ARG13	0.039	
191	  CD	2530.674	778.530	-2631.543	C.3	13	ARG13	0.049	
192	  NE	2532.151	778.737	-2631.493	N.pl3	13	ARG13	-0.530	
193	  CZ	2533.000	778.046	-2630.737	C.cat	13	ARG13	0.808	
194	 NH1	2532.635	777.082	-2629.939	N.pl3	13	ARG13	-0.863	
195	 NH2	2534.259	778.344	-2630.795	N.pl3	13	ARG13	-0.863	
196	   H	2525.972	779.649	-2632.676	 H	13	ARG13	0.275	
197	  HA	2528.114	781.349	-2633.478	 H	13	ARG13	0.156	
198	 2HB	2528.236	778.314	-2632.860	 H	13	ARG13	0.033	
199	 3HB	2528.077	779.532	-2631.611	 H	13	ARG13	0.033	
200	 2HG	2530.296	780.562	-2632.262	 H	13	ARG13	0.029	
201	 3HG	2530.498	779.360	-2633.542	 H	13	ARG13	0.029	
202	 2HD	2530.429	777.490	-2631.851	 H	13	ARG13	0.069	
203	 3HD	2530.218	778.677	-2630.540	 H	13	ARG13	0.069	
204	  HE	2532.603	779.459	-2632.064	 H	13	ARG13	0.346	
205	1HH1	2531.629	776.896	-2629.942	 H	13	ARG13	0.448	
206	2HH1	2533.348	776.599	-2629.390	 H	13	ARG13	0.448	
207	1HH2	2534.527	779.102	-2631.427	 H	13	ARG13	0.448	
208	2HH2	2534.895	777.803	-2630.206	 H	13	ARG13	0.448	
209	   N	2527.588	778.876	-2635.574	N.am	14	VAL14	-0.416	
210	  CA	2527.912	778.516	-2636.952	C.3	14	VAL14	-0.087	
211	   C	2527.583	779.646	-2637.898	C.2	14	VAL14	0.597	
212	   O	2528.375	780.027	-2638.767	O.2	14	VAL14	-0.568	
213	  CB	2527.139	777.199	-2637.358	C.3	14	VAL14	0.299	
214	 CG1	2527.228	776.779	-2638.851	C.3	14	VAL14	-0.319	
215	 CG2	2527.571	775.947	-2636.557	C.3	14	VAL14	-0.319	
216	   H	2526.953	778.308	-2635.032	 H	14	VAL14	0.272	
217	  HA	2529.000	778.338	-2637.027	 H	14	VAL14	0.097	
218	  HB	2526.063	777.370	-2637.141	 H	14	VAL14	-0.030	
219	1HG1	2528.269	776.602	-2639.180	 H	14	VAL14	0.079	
220	2HG1	2526.655	775.856	-2639.063	 H	14	VAL14	0.079	
221	3HG1	2526.799	777.542	-2639.529	 H	14	VAL14	0.079	
222	1HG2	2527.484	776.106	-2635.466	 H	14	VAL14	0.079	
223	2HG2	2526.935	775.070	-2636.788	 H	14	VAL14	0.079	
224	3HG2	2528.619	775.656	-2636.762	 H	14	VAL14	0.079	
225	   N	2526.438	780.232	-2637.796	N.am	15	MET15	-0.416	
226	  CA	2526.117	781.324	-2638.710	C.3	15	MET15	-0.024	
227	   C	2527.148	782.424	-2638.623	C.2	15	MET15	0.597	
228	   O	2527.650	782.934	-2639.635	O.2	15	MET15	-0.568	
229	  CB	2524.696	781.870	-2638.401	C.3	15	MET15	0.034	
230	  CG	2523.534	780.872	-2638.592	C.3	15	MET15	0.002	
231	  SD	2521.960	781.738	-2638.478	S.3	15	MET15	-0.274	
232	  CE	2520.879	780.309	-2638.340	C.3	15	MET15	-0.054	
233	   H	2525.773	779.939	-2637.094	 H	15	MET15	0.272	
234	  HA	2526.143	780.936	-2639.745	 H	15	MET15	0.088	
235	 2HB	2524.494	782.749	-2639.043	 H	15	MET15	0.024	
236	 3HB	2524.661	782.263	-2637.365	 H	15	MET15	0.024	
237	 2HG	2523.577	780.086	-2637.814	 H	15	MET15	0.044	
238	 3HG	2523.596	780.357	-2639.568	 H	15	MET15	0.044	
239	 1HE	2521.022	779.620	-2639.192	 H	15	MET15	0.068	
240	 2HE	2521.088	779.756	-2637.407	 H	15	MET15	0.068	
241	 3HE	2519.822	780.624	-2638.323	 H	15	MET15	0.068	
242	   N	2527.517	782.845	-2637.460	N.am	16	GLY16	-0.416	
243	  CA	2528.513	783.909	-2637.377	C.3	16	GLY16	-0.025	
244	   C	2529.783	783.518	-2638.092	C.2	16	GLY16	0.597	
245	   O	2529.906	782.427	-2638.657	O.2	16	GLY16	-0.568	
246	   H	2527.122	782.446	-2636.621	 H	16	GLY16	0.272	
247	 3HA	2528.725	784.084	-2636.364	 H	16	GLY16	0.070	
248	  HA	2528.113	784.816	-2637.868	 H	16	GLY16	0.070	
@<TRIPOS>BOND
1 1 2 1
2 1 10 1
3 2 3 1
4 2 5 1
5 2 11 1
6 3 4 2
7 3 16 1
8 5 6 1
9 6 7 1
10 7 8 2
11 7 9 1
12 5 12 1
13 5 13 1
14 6 14 1
15 6 15 1
16 16 17 1
17 16 24 1
18 17 18 1
19 17 20 1
20 17 25 1
21 18 19 2
22 18 30 1
23 20 21 1
24 21 22 1
25 21 23 2
26 20 26 1
27 20 27 1
28 22 28 1
29 22 29 1
30 30 31 1
31 30 36 1
32 31 32 1
33 31 34 1
34 31 37 1
35 32 33 2
36 32 44 1
37 34 35 1
38 35 36 1
39 34 38 1
40 34 39 1
41 35 40 1
42 35 41 1
43 36 42 1
44 36 43 1
45 44 45 1
46 44 53 1
47 45 46 1
48 45 48 1
49 45 54 1
50 46 47 2
51 46 59 1
52 48 49 1
53 49 50 1
54 50 51 2
55 50 52 1
56 48 55 1
57 48 56 1
58 49 57 1
59 49 58 1
60 59 60 1
61 59 65 1
62 60 61 1
63 60 63 1
64 60 66 1
65 61 62 2
66 61 70 1
67 63 64 1
68 63 67 1
69 63 68 1
70 64 69 1
71 70 71 1
72 70 78 1
73 71 72 1
74 71 74 1
75 71 79 1
76 72 73 2
77 72 89 1
78 74 75 1
79 74 76 1
80 75 77 1
81 74 80 1
82 75 81 1
83 75 82 1
84 76 83 1
85 76 84 1
86 76 85 1
87 77 86 1
88 77 87 1
89 77 88 1
90 89 90 1
91 89 97 1
92 90 91 1
93 90 93 1
94 90 98 1
95 91 92 2
96 91 108 1
97 93 94 1
98 94 95 1
99 94 96 1
100 93 99 1
101 93 100 1
102 94 101 1
103 95 102 1
104 95 103 1
105 95 104 1
106 96 105 1
107 96 106 1
108 96 107 1
109 108 109 1
110 108 116 1
111 109 110 1
112 109 112 1
113 109 117 1
114 110 111 2
115 110 120 1
116 112 113 1
117 113 114 2
118 113 115 1
119 112 118 1
120 112 119 1
121 120 121 1
122 120 129 1
123 121 122 1
124 121 124 1
125 121 130 1
126 122 123 2
127 122 135 1
128 124 125 1
129 125 126 1
130 126 127 2
131 126 128 1
132 124 131 1
133 124 132 1
134 125 133 1
135 125 134 1
136 135 136 1
137 135 145 1
138 136 137 1
139 136 139 1
140 136 146 1
141 137 138 2
142 137 152 1
143 139 140 1
144 140 141 2
145 141 144 1
146 140 142 1
147 142 143 2
148 143 144 1
149 139 147 1
150 139 148 1
151 141 149 1
152 143 150 1
153 144 151 1
154 152 153 1
155 152 159 1
156 153 154 1
157 153 156 1
158 153 160 1
159 154 155 2
160 154 168 1
161 156 157 1
162 156 158 1
163 156 161 1
164 157 162 1
165 157 163 1
166 157 164 1
167 158 165 1
168 158 166 1
169 158 167 1
170 168 169 1
171 168 177 1
172 169 170 1
173 169 172 1
174 169 178 1
175 170 171 2
176 170 185 1
177 172 173 1
178 173 174 1
179 174 175 1
180 174 176 2
181 172 179 1
182 172 180 1
183 173 181 1
184 173 182 1
185 175 183 1
186 175 184 1
187 185 186 1
188 185 196 1
189 186 187 1
190 186 189 1
191 186 197 1
192 187 188 2
193 187 209 1
194 189 190 1
195 190 191 1
196 191 192 1
197 192 193 1
198 193 194 2
199 193 195 1
200 189 198 1
201 189 199 1
202 190 200 1
203 190 201 1
204 191 202 1
205 191 203 1
206 192 204 1
207 194 205 1
208 194 206 1
209 195 207 1
210 195 208 1
211 209 210 1
212 209 216 1
213 210 211 1
214 210 213 1
215 210 217 1
216 211 212 2
217 211 225 1
218 213 214 1
219 213 215 1
220 213 218 1
221 214 219 1
222 214 220 1
223 214 221 1
224 215 222 1
225 215 223 1
226 215 224 1
227 225 226 1
228 225 233 1
229 226 227 1
230 226 229 1
231 226 234 1
232 227 228 2
233 227 242 1
234 229 230 1
235 230 231 1
236 231 232 1
237 229 235 1
238 229 236 1
239 230 237 1
240 230 238 1
241 232 239 1
242 232 240 1
243 232 241 1
244 242 243 1
245 242 246 1
246 243 244 1
247 243 247 1
248 243 248 1
249 244 245 2
@<TRIPOS>SUBSTRUCTURE
1	GLU1	1	RESIDUE	1 ****	GLU
2	ASN2	16	RESIDUE	1 ****	ASN
3	PRO3	30	RESIDUE	1 ****	PRO
4	GLU4	44	RESIDUE	1 ****	GLU
5	SER5	59	RESIDUE	1 ****	SER
6	ILE6	70	RESIDUE	1 ****	ILE
7	LEU7	89	RESIDUE	1 ****	LEU
8	ASP8	108	RESIDUE	1 ****	ASP
9	GLU9	120	RESIDUE	1 ****	GLU
10	HIS10	135	RESIDUE	1 ****	HIS
11	VAL11	152	RESIDUE	1 ****	VAL
12	GLN12	168	RESIDUE	1 ****	GLN
13	ARG13	185	RESIDUE	1 ****	ARG
14	VAL14	209	RESIDUE	1 ****	VAL
15	MET15	225	RESIDUE	1 ****	MET
16	GLY16	242	RESIDUE	1 ****	GLY
