REMARK WARNING: 32 MAX_TORS EXCEEDED!!!
REMARK  72 active torsions:
REMARK  status: ('A' for Active; 'I' for Inactive)
REMARK    1  A    between atoms: N_1  and  CA_2 
REMARK    2  A    between atoms: CA_2  and  C_3 
REMARK    3  A    between atoms: CA_2  and  CB_5 
REMARK       I    between atoms: C_3  and  N_11 
REMARK    4  A    between atoms: CB_5  and  CG_6 
REMARK    5  A    between atoms: CG_6  and  CD_7 
REMARK    6  A    between atoms: N_11  and  CA_12 
REMARK    7  A    between atoms: CA_12  and  C_13 
REMARK    8  A    between atoms: CA_12  and  CB_15 
REMARK       I    between atoms: C_13  and  N_22 
REMARK    9  A    between atoms: CB_15  and  CG_16 
REMARK       I    between atoms: CG_16  and  ND2_17 
REMARK   10  A    between atoms: CA_23  and  C_24 
REMARK       I    between atoms: C_24  and  N_29 
REMARK   11  A    between atoms: N_29  and  CA_30 
REMARK   12  A    between atoms: CA_30  and  C_31 
REMARK   13  A    between atoms: CA_30  and  CB_33 
REMARK       I    between atoms: C_31  and  N_39 
REMARK   14  A    between atoms: CB_33  and  CG_34 
REMARK   15  A    between atoms: CG_34  and  CD_35 
REMARK   16  A    between atoms: N_39  and  CA_40 
REMARK   17  A    between atoms: CA_40  and  C_41 
REMARK   18  A    between atoms: CA_40  and  CB_43 
REMARK       I    between atoms: C_41  and  N_47 
REMARK   19  A    between atoms: CB_43  and  OG_44 
REMARK   20  A    between atoms: N_47  and  CA_48 
REMARK   21  A    between atoms: CA_48  and  C_49 
REMARK   22  A    between atoms: CA_48  and  CB_51 
REMARK       I    between atoms: C_49  and  N_56 
REMARK   23  A    between atoms: CB_51  and  CG1_52 
REMARK   24  A    between atoms: N_56  and  CA_57 
REMARK   25  A    between atoms: CA_57  and  C_58 
REMARK   26  A    between atoms: CA_57  and  CB_60 
REMARK       I    between atoms: C_58  and  N_65 
REMARK   27  A    between atoms: CB_60  and  CG_61 
REMARK   28  A    between atoms: N_65  and  CA_66 
REMARK   29  A    between atoms: CA_66  and  C_67 
REMARK   30  A    between atoms: CA_66  and  CB_69 
REMARK       I    between atoms: C_67  and  N_74 
REMARK   31  A    between atoms: CB_69  and  CG_70 
REMARK   32  A    between atoms: N_74  and  CA_75 
REMARK   33  A    between atoms: CA_75  and  C_76 
REMARK   34  A    between atoms: CA_75  and  CB_78 
REMARK       I    between atoms: C_76  and  N_84 
REMARK   35  A    between atoms: CB_78  and  CG_79 
REMARK   36  A    between atoms: CG_79  and  CD_80 
REMARK   37  A    between atoms: N_84  and  CA_85 
REMARK   38  A    between atoms: CA_85  and  C_86 
REMARK   39  A    between atoms: CA_85  and  CB_88 
REMARK       I    between atoms: C_86  and  N_96 
REMARK   40  A    between atoms: CB_88  and  CG_89 
REMARK   41  A    between atoms: N_96  and  CA_97 
REMARK   42  A    between atoms: CA_97  and  C_98 
REMARK   43  A    between atoms: CA_97  and  CB_100 
REMARK       I    between atoms: C_98  and  N_109 
REMARK   44  A    between atoms: CB_100  and  CG_101 
REMARK   45  A    between atoms: CG_101  and  CD_102 
REMARK   46  A    between atoms: CD_102  and  CE_103 
REMARK   47  A    between atoms: CE_103  and  NZ_104 
REMARK   48  A    between atoms: N_109  and  CA_110 
REMARK   49  A    between atoms: CA_110  and  C_111 
REMARK   50  A    between atoms: CA_110  and  CB_113 
REMARK       I    between atoms: C_111  and  N_121 
REMARK   51  A    between atoms: CB_113  and  CG_114 
REMARK   52  A    between atoms: CG_114  and  CD_115 
REMARK       I    between atoms: CD_115  and  NE2_116 
REMARK   53  A    between atoms: N_121  and  CA_122 
REMARK   54  A    between atoms: CA_122  and  C_123 
REMARK   55  A    between atoms: CA_122  and  CB_125 
REMARK       I    between atoms: C_123  and  N_138 
REMARK   56  A    between atoms: CB_125  and  CG_126 
REMARK   57  A    between atoms: CG_126  and  CD_127 
REMARK   58  A    between atoms: CD_127  and  NE_128 
REMARK       I    between atoms: NE_128  and  CZ_129 
REMARK       I    between atoms: CZ_129  and  NH1_130 
REMARK       I    between atoms: CZ_129  and  NH2_131 
REMARK   59  A    between atoms: N_138  and  CA_139 
REMARK   60  A    between atoms: CA_139  and  C_140 
REMARK   61  A    between atoms: CA_139  and  CB_142 
REMARK       I    between atoms: C_140  and  N_146 
REMARK   62  A    between atoms: N_146  and  CA_147 
REMARK   63  A    between atoms: CA_147  and  C_148 
REMARK   64  A    between atoms: CA_147  and  CB_150 
REMARK       I    between atoms: C_148  and  N_155 
REMARK   65  A    between atoms: CB_150  and  CG_151 
REMARK   66  A    between atoms: CG_151  and  SD_152 
REMARK   67  A    between atoms: N_155  and  CA_156 
REMARK   68  A    between atoms: CA_156  and  C_157 
REMARK   69  A    between atoms: CA_156  and  CB_159 
REMARK   70  A    between atoms: CB_159  and  CG_160 
REMARK   71  A    between atoms: CG_160  and  CD_161 
REMARK   72  A    between atoms: CD_161  and  NE_162 
REMARK       I    between atoms: NE_162  and  CZ_163 
REMARK       I    between atoms: CZ_163  and  NH1_164 
ROOT
ATOM      1  CA  HIS d  10    1840.493 553.878-1884.981  0.00  0.00     0.182 C 
ENDROOT
BRANCH   1   2
ATOM      2  N   HIS d  10    1839.605 554.388-1883.941  0.00  0.00    -0.346 N 
ATOM      3  C   GLU d   9    1839.507 555.663-1883.771  0.00  0.00     0.241 C 
ATOM      4  O   GLU d   9    1840.171 556.418-1884.496  0.00  0.00    -0.271 OA
ATOM      5  H   HIS d  10    1839.074 553.752-1883.362  0.00  0.00     0.163 HD
BRANCH   3   6
ATOM      6  CA  GLU d   9    1838.589 556.190-1882.695  0.00  0.00     0.177 C 
BRANCH   6   7
ATOM      7  N   GLU d   9    1837.287 555.532-1882.750  0.00  0.00    -0.346 N 
ATOM      8  C   ASP d   8    1836.607 555.582-1883.845  0.00  0.00     0.241 C 
ATOM      9  O   ASP d   8    1837.079 556.188-1884.820  0.00  0.00    -0.271 OA
ATOM     10  H   GLU d   9    1836.924 555.046-1881.943  0.00  0.00     0.163 HD
BRANCH   8  11
ATOM     11  CA  ASP d   8    1835.260 554.902-1883.903  0.00  0.00     0.186 C 
BRANCH  11  12
ATOM     12  N   ASP d   8    1835.331 553.553-1883.349  0.00  0.00    -0.346 N 
ATOM     13  C   LEU d   7    1836.169 552.712-1883.856  0.00  0.00     0.241 C 
ATOM     14  O   LEU d   7    1836.889 553.075-1884.798  0.00  0.00    -0.271 OA
ATOM     15  H   ASP d   8    1834.733 553.281-1882.582  0.00  0.00     0.163 HD
BRANCH  13  16
ATOM     16  CA  LEU d   7    1836.241 551.317-1883.283  0.00  0.00     0.177 C 
BRANCH  16  17
ATOM     17  N   LEU d   7    1836.296 551.353-1881.825  0.00  0.00    -0.346 N 
ATOM     18  C   ILE d   6    1837.242 552.017-1881.251  0.00  0.00     0.241 C 
ATOM     19  O   ILE d   6    1838.077 552.605-1881.955  0.00  0.00    -0.271 OA
ATOM     20  H   LEU d   7    1835.604 550.866-1881.273  0.00  0.00     0.163 HD
BRANCH  18  21
ATOM     21  CA  ILE d   6    1837.299 552.054-1879.743  0.00  0.00     0.180 C 
BRANCH  21  22
ATOM     22  N   ILE d   6    1835.986 552.349-1879.177  0.00  0.00    -0.346 N 
ATOM     23  C   SER d   5    1835.381 553.432-1879.531  0.00  0.00     0.243 C 
ATOM     24  O   SER d   5    1835.928 554.185-1880.336  0.00  0.00    -0.271 OA
ATOM     25  H   ILE d   6    1835.558 551.715-1878.518  0.00  0.00     0.163 HD
BRANCH  23  26
ATOM     26  CA  SER d   5    1834.022 553.737-1878.946  0.00  0.00     0.200 C 
BRANCH  26  27
ATOM     27  N   SER d   5    1833.153 552.566-1879.004  0.00  0.00    -0.344 N 
ATOM     28  C   GLU d   4    1832.925 552.013-1880.147  0.00  0.00     0.241 C 
ATOM     29  O   GLU d   4    1833.452 552.493-1881.162  0.00  0.00    -0.271 OA
ATOM     30  H   SER d   5    1832.736 552.195-1878.163  0.00  0.00     0.163 HD
BRANCH  28  31
ATOM     31  CA  GLU d   4    1832.026 550.802-1880.208  0.00  0.00     0.177 C 
BRANCH  31  32
ATOM     32  N   GLU d   4    1832.386 549.831-1879.179  0.00  0.00    -0.346 N 
ATOM     33  C   PRO d   3    1833.591 549.371-1879.146  0.00  0.00     0.241 C 
ATOM     34  O   PRO d   3    1834.414 549.754-1879.978  0.00  0.00    -0.271 OA
ATOM     35  H   GLU d   4    1831.702 549.525-1878.502  0.00  0.00     0.163 HD
BRANCH  33  36
ATOM     36  CA  PRO d   3    1833.989 548.348-1878.070  0.00  0.00     0.179 C 
ATOM     37  N   PRO d   3    1833.537 548.757-1876.748  0.00  0.00    -0.337 N 
ATOM     38  C   ASN d   2    1834.059 549.752-1876.114  0.00  0.00     0.243 C 
ATOM     39  CD  PRO d   3    1832.459 547.964-1876.199  0.00  0.00     0.127 C 
ATOM     40  O   ASN d   2    1834.974 550.383-1876.643  0.00  0.00    -0.271 OA
ATOM     41  CG  PRO d   3    1832.001 547.145-1877.409  0.00  0.00     0.022 C 
ATOM     42  CB  PRO d   3    1833.285 546.993-1878.239  0.00  0.00     0.037 C 
BRANCH  38  43
ATOM     43  CA  ASN d   2    1833.527 550.108-1874.745  0.00  0.00     0.185 C 
BRANCH  43  44
ATOM     44  N   ASN d   2    1832.068 550.146-1874.745  0.00  0.00    -0.346 N 
ATOM     45  C   GLU d   1    1831.464 550.932-1875.571  0.00  0.00     0.242 C 
ATOM     46  O   GLU d   1    1832.139 551.631-1876.339  0.00  0.00    -0.271 OA
ATOM     47  H   ASN d   2    1831.540 549.567-1874.109  0.00  0.00     0.163 HD
BRANCH  45  48
ATOM     48  CA  GLU d   1    1829.954 550.972-1875.571  0.00  0.00     0.191 C 
BRANCH  48  49
ATOM     49  N   GLU d   1    1829.396 549.623-1875.571  0.00  0.00    -0.326 NA
ATOM     50  H   GLU d   1    1830.022 548.744-1875.571  0.00  0.00     0.180 HD
ENDBRANCH  48  49
BRANCH  48  51
ATOM     51  CB  GLU d   1    1829.432 551.757-1874.333  0.00  0.00     0.047 C 
BRANCH  51  52
ATOM     52  CG  GLU d   1    1829.906 553.242-1874.223  0.00  0.00     0.116 C 
BRANCH  52  53
ATOM     53  CD  GLU d   1    1829.483 554.046-1873.007  0.00  0.00     0.172 C 
ATOM     54  OE1 GLU d   1    1828.755 553.544-1872.130  0.00  0.00    -0.648 OA
ATOM     55  OE2 GLU d   1    1829.912 555.216-1872.936  0.00  0.00    -0.648 OA
ENDBRANCH  52  53
ENDBRANCH  51  52
ENDBRANCH  48  51
ENDBRANCH  45  48
ENDBRANCH  43  44
BRANCH  43  56
ATOM     56  CB  ASN d   2    1834.019 549.085-1873.681  0.00  0.00     0.137 C 
BRANCH  56  57
ATOM     57  CG  ASN d   2    1833.556 549.309-1872.238  0.00  0.00     0.217 C 
ATOM     58  ND2 ASN d   2    1834.151 550.224-1871.520  0.00  0.00    -0.370 N 
ATOM     59 21HD ASN d   2    1833.670 550.397-1870.633  0.00  0.00     0.159 HD
ATOM     60 22HD ASN d   2    1834.852 550.795-1871.989  0.00  0.00     0.159 HD
ATOM     61  OD1 ASN d   2    1832.635 548.675-1871.744  0.00  0.00    -0.274 OA
ENDBRANCH  56  57
ENDBRANCH  43  56
ENDBRANCH  38  43
ENDBRANCH  33  36
ENDBRANCH  31  32
BRANCH  31  62
ATOM     62  CB  GLU d   4    1830.538 551.221-1880.038  0.00  0.00     0.045 C 
BRANCH  62  63
ATOM     63  CG  GLU d   4    1829.990 552.225-1881.104  0.00  0.00     0.116 C 
BRANCH  63  64
ATOM     64  CD  GLU d   4    1828.563 552.722-1880.960  0.00  0.00     0.172 C 
ATOM     65  OE1 GLU d   4    1827.837 552.323-1880.029  0.00  0.00    -0.648 OA
ATOM     66  OE2 GLU d   4    1828.174 553.551-1881.808  0.00  0.00    -0.648 OA
ENDBRANCH  63  64
ENDBRANCH  62  63
ENDBRANCH  31  62
ENDBRANCH  28  31
ENDBRANCH  26  27
BRANCH  26  67
ATOM     67  CB  SER d   5    1834.134 554.270-1877.495  0.00  0.00     0.199 C 
BRANCH  67  68
ATOM     68  OG  SER d   5    1834.865 553.391-1876.634  0.00  0.00    -0.398 OA
ATOM     69  HG  SER d   5    1834.377 552.566-1876.583  0.00  0.00     0.209 HD
ENDBRANCH  67  68
ENDBRANCH  26  67
ENDBRANCH  23  26
ENDBRANCH  21  22
BRANCH  21  70
ATOM     70  CB  ILE d   6    1837.899 550.718-1879.143  0.00  0.00     0.013 C 
ATOM     71  CG2 ILE d   6    1839.340 550.416-1879.659  0.00  0.00     0.012 C 
BRANCH  70  72
ATOM     72  CG1 ILE d   6    1837.919 550.656-1877.582  0.00  0.00     0.002 C 
ATOM     73  CD1 ILE d   6    1838.188 549.267-1876.967  0.00  0.00     0.005 C 
ENDBRANCH  70  72
ENDBRANCH  21  70
ENDBRANCH  18  21
ENDBRANCH  16  17
BRANCH  16  74
ATOM     74  CB  LEU d   7    1835.038 550.456-1883.764  0.00  0.00     0.038 C 
BRANCH  74  75
ATOM     75  CG  LEU d   7    1834.966 548.977-1883.297  0.00  0.00    -0.020 C 
ATOM     76  CD1 LEU d   7    1833.776 548.271-1883.963  0.00  0.00     0.009 C 
ATOM     77  CD2 LEU d   7    1836.260 548.198-1883.589  0.00  0.00     0.009 C 
ENDBRANCH  74  75
ENDBRANCH  16  74
ENDBRANCH  13  16
ENDBRANCH  11  12
BRANCH  11  78
ATOM     78  CB  ASP d   8    1834.182 555.741-1883.161  0.00  0.00     0.147 C 
BRANCH  78  79
ATOM     79  CG  ASP d   8    1833.963 557.162-1883.701  0.00  0.00     0.175 C 
ATOM     80  OD1 ASP d   8    1834.027 557.361-1884.932  0.00  0.00    -0.648 OA
ATOM     81  OD2 ASP d   8    1833.771 558.087-1882.885  0.00  0.00    -0.648 OA
ENDBRANCH  78  79
ENDBRANCH  11  78
ENDBRANCH   8  11
ENDBRANCH   6   7
BRANCH   6  82
ATOM     82  CB  GLU d   9    1839.223 555.983-1881.289  0.00  0.00     0.045 C 
BRANCH  82  83
ATOM     83  CG  GLU d   9    1840.605 556.676-1881.060  0.00  0.00     0.116 C 
BRANCH  83  84
ATOM     84  CD  GLU d   9    1841.307 556.463-1879.732  0.00  0.00     0.172 C 
ATOM     85  OE1 GLU d   9    1840.786 555.771-1878.836  0.00  0.00    -0.648 OA
ATOM     86  OE2 GLU d   9    1842.426 557.001-1879.600  0.00  0.00    -0.648 OA
ENDBRANCH  83  84
ENDBRANCH  82  83
ENDBRANCH   6  82
ENDBRANCH   3   6
ENDBRANCH   1   2
BRANCH   1  87
ATOM     87  C   HIS d  10    1840.125 554.442-1886.332  0.00  0.00     0.241 C 
ATOM     88  O   HIS d  10    1840.977 554.908-1887.104  0.00  0.00    -0.271 OA
ATOM     89  N   LYS d  11    1838.887 554.441-1886.695  0.00  0.00    -0.346 N 
ATOM     90  H   LYS d  11    1838.175 554.067-1886.084  0.00  0.00     0.163 HD
BRANCH  89  91
ATOM     91  CA  LYS d  11    1838.531 554.987-1888.001  0.00  0.00     0.176 C 
BRANCH  91  92
ATOM     92  C   LYS d  11    1838.995 556.418-1888.134  0.00  0.00     0.241 C 
ATOM     93  O   LYS d  11    1839.595 556.824-1889.139  0.00  0.00    -0.271 OA
ATOM     94  N   GLN d  12    1838.758 557.244-1887.172  0.00  0.00    -0.346 N 
ATOM     95  H   GLN d  12    1838.270 556.938-1886.342  0.00  0.00     0.163 HD
BRANCH  94  96
ATOM     96  CA  GLN d  12    1839.205 558.627-1887.299  0.00  0.00     0.177 C 
BRANCH  96  97
ATOM     97  C   GLN d  12    1840.695 558.696-1887.538  0.00  0.00     0.241 C 
ATOM     98  O   GLN d  12    1841.181 559.404-1888.417  0.00  0.00    -0.271 OA
ATOM     99  N   ARG d  13    1841.480 557.990-1886.798  0.00  0.00    -0.346 N 
ATOM    100  H   ARG d  13    1841.105 557.399-1886.069  0.00  0.00     0.163 HD
BRANCH  99 101
ATOM    101  CA  ARG d  13    1842.920 558.056-1887.029  0.00  0.00     0.176 C 
BRANCH 101 102
ATOM    102  C   ARG d  13    1843.256 557.685-1888.455  0.00  0.00     0.241 C 
ATOM    103  O   ARG d  13    1844.024 558.357-1889.139  0.00  0.00    -0.271 OA
ATOM    104  N   VAL d  14    1842.721 556.630-1888.969  0.00  0.00    -0.346 N 
ATOM    105  H   VAL d  14    1842.086 556.061-1888.427  0.00  0.00     0.163 HD
BRANCH 104 106
ATOM    106  CA  VAL d  14    1843.045 556.271-1890.346  0.00  0.00     0.180 C 
BRANCH 106 107
ATOM    107  C   VAL d  14    1842.714 557.401-1891.292  0.00  0.00     0.241 C 
ATOM    108  O   VAL d  14    1843.506 557.782-1892.162  0.00  0.00    -0.271 OA
ATOM    109  N   MET d  15    1841.568 557.985-1891.190  0.00  0.00    -0.346 N 
ATOM    110  H   MET d  15    1840.904 557.692-1890.488  0.00  0.00     0.163 HD
BRANCH 109 111
ATOM    111  CA  MET d  15    1841.247 559.078-1892.104  0.00  0.00     0.177 C 
BRANCH 111 112
ATOM    112  C   MET d  15    1842.276 560.179-1892.016  0.00  0.00     0.241 C 
ATOM    113  O   MET d  15    1842.778 560.690-1893.029  0.00  0.00    -0.271 OA
ATOM    114  N   ARG d  16    1842.645 560.600-1890.854  0.00  0.00    -0.347 N 
ATOM    115  H   ARG d  16    1842.251 560.200-1890.015  0.00  0.00     0.163 HD
BRANCH 114 116
ATOM    116  CA  ARG d  16    1843.641 561.665-1890.771  0.00  0.00     0.162 C 
BRANCH 116 117
ATOM    117  C   ARG d  16    1844.911 561.273-1891.488  0.00  0.00     0.219 C 
ATOM    118  O   ARG d  16    1845.026 560.197-1892.069  0.00  0.00    -0.287 OA
ENDBRANCH 116 117
BRANCH 116 119
ATOM    119  CB  ARG d  16    1843.910 561.983-1889.273  0.00  0.00     0.035 C 
BRANCH 119 120
ATOM    120  CG  ARG d  16    1844.734 563.273-1889.001  0.00  0.00     0.023 C 
BRANCH 120 121
ATOM    121  CD  ARG d  16    1844.985 563.492-1887.500  0.00  0.00     0.138 C 
BRANCH 121 122
ATOM    122  NE  ARG d  16    1845.760 564.752-1887.299  0.00  0.00    -0.227 N 
ATOM    123  CZ  ARG d  16    1846.151 565.235-1886.124  0.00  0.00     0.665 C 
ATOM    124  NH1 ARG d  16    1845.905 564.650-1884.985  0.00  0.00    -0.235 N 
ATOM    125  NH2 ARG d  16    1846.814 566.348-1886.106  0.00  0.00    -0.235 N 
ATOM    126 11HH ARG d  16    1845.380 563.777-1885.069  0.00  0.00     0.174 HD
ATOM    127 12HH ARG d  16    1846.239 565.086-1884.124  0.00  0.00     0.174 HD
ATOM    128 21HH ARG d  16    1846.999 566.791-1887.008  0.00  0.00     0.174 HD
ATOM    129 22HH ARG d  16    1847.105 566.703-1885.193  0.00  0.00     0.174 HD
ATOM    130  HE  ARG d  16    1846.037 565.333-1888.097  0.00  0.00     0.177 HD
ENDBRANCH 121 122
ENDBRANCH 120 121
ENDBRANCH 119 120
ENDBRANCH 116 119
ENDBRANCH 114 116
ENDBRANCH 111 112
BRANCH 111 131
ATOM    131  CB  MET d  15    1839.825 559.622-1891.794  0.00  0.00     0.045 C 
BRANCH 131 132
ATOM    132  CG  MET d  15    1838.664 558.623-1891.985  0.00  0.00     0.076 C 
BRANCH 132 133
ATOM    133  SD  MET d  15    1837.089 559.488-1891.870  0.00  0.00    -0.173 SA
ATOM    134  CE  MET d  15    1836.009 558.057-1891.733  0.00  0.00     0.089 C 
ENDBRANCH 132 133
ENDBRANCH 131 132
ENDBRANCH 111 131
ENDBRANCH 109 111
ENDBRANCH 106 107
BRANCH 106 135
ATOM    135  CB  VAL d  14    1842.274 554.953-1890.753  0.00  0.00     0.009 C 
ATOM    136  CG1 VAL d  14    1842.362 554.535-1892.246  0.00  0.00     0.012 C 
ATOM    137  CG2 VAL d  14    1842.707 553.701-1889.953  0.00  0.00     0.012 C 
ENDBRANCH 106 135
ENDBRANCH 104 106
ENDBRANCH 101 102
BRANCH 101 138
ATOM    138  CB  ARG d  13    1843.635 557.118-1886.016  0.00  0.00     0.036 C 
BRANCH 138 139
ATOM    139  CG  ARG d  13    1845.180 557.273-1885.936  0.00  0.00     0.023 C 
BRANCH 139 140
ATOM    140  CD  ARG d  13    1845.809 556.286-1884.938  0.00  0.00     0.138 C 
BRANCH 140 141
ATOM    141  NE  ARG d  13    1847.286 556.494-1884.889  0.00  0.00    -0.227 N 
ATOM    142  CZ  ARG d  13    1848.135 555.803-1884.134  0.00  0.00     0.665 C 
ATOM    143  NH1 ARG d  13    1847.771 554.839-1883.337  0.00  0.00    -0.235 N 
ATOM    144  NH2 ARG d  13    1849.394 556.103-1884.192  0.00  0.00    -0.235 N 
ATOM    145 11HH ARG d  13    1846.766 554.652-1883.339  0.00  0.00     0.174 HD
ATOM    146 12HH ARG d  13    1848.485 554.357-1882.788  0.00  0.00     0.174 HD
ATOM    147 21HH ARG d  13    1849.661 556.861-1884.824  0.00  0.00     0.174 HD
ATOM    148 22HH ARG d  13    1850.030 555.563-1883.604  0.00  0.00     0.174 HD
ATOM    149  HE  ARG d  13    1847.736 557.217-1885.460  0.00  0.00     0.177 HD
ENDBRANCH 140 141
ENDBRANCH 139 140
ENDBRANCH 138 139
ENDBRANCH 101 138
ENDBRANCH  99 101
ENDBRANCH  96  97
BRANCH  96 150
ATOM    150  CB  GLN d  12    1838.814 559.395-1886.016  0.00  0.00     0.044 C 
BRANCH 150 151
ATOM    151  CG  GLN d  12    1839.174 560.917-1885.986  0.00  0.00     0.105 C 
BRANCH 151 152
ATOM    152  CD  GLN d  12    1838.871 561.730-1884.721  0.00  0.00     0.215 C 
ATOM    153  NE2 GLN d  12    1838.305 561.153-1883.692  0.00  0.00    -0.370 N 
ATOM    154 21HE GLN d  12    1838.198 561.748-1882.868  0.00  0.00     0.159 HD
ATOM    155 22HE GLN d  12    1838.143 560.150-1883.795  0.00  0.00     0.159 HD
ATOM    156  OE1 GLN d  12    1839.172 562.911-1884.644  0.00  0.00    -0.274 OA
ENDBRANCH 151 152
ENDBRANCH 150 151
ENDBRANCH  96 150
ENDBRANCH  94  96
ENDBRANCH  91  92
BRANCH  91 157
ATOM    157  CB  LYS d  11    1836.995 554.879-1888.206  0.00  0.00     0.035 C 
BRANCH 157 158
ATOM    158  CG  LYS d  11    1836.523 555.364-1889.599  0.00  0.00     0.004 C 
BRANCH 158 159
ATOM    159  CD  LYS d  11    1835.007 555.334-1889.812  0.00  0.00     0.027 C 
BRANCH 159 160
ATOM    160  CE  LYS d  11    1834.680 555.906-1891.198  0.00  0.00     0.229 C 
BRANCH 160 161
ATOM    161  NZ  LYS d  11    1833.245 555.720-1891.478  0.00  0.00    -0.079 N 
ATOM    162  3HZ LYS d  11    1833.146 554.785-1891.845  0.00  0.00     0.274 HD
ATOM    163  1HZ LYS d  11    1832.690 555.852-1890.624  0.00  0.00     0.274 HD
ATOM    164  2HZ LYS d  11    1832.903 556.415-1892.150  0.00  0.00     0.274 HD
ENDBRANCH 160 161
ENDBRANCH 159 160
ENDBRANCH 158 159
ENDBRANCH 157 158
ENDBRANCH  91 157
ENDBRANCH  89  91
ENDBRANCH   1  87
BRANCH   1 165
ATOM    165  CB  HIS d  10    1840.329 552.349-1884.977  0.00  0.00     0.095 C 
BRANCH 165 166
ATOM    166  CG  HIS d  10    1841.615 551.639-1884.669  0.00  0.00     0.053 A 
ATOM    167  CD2 HIS d  10    1841.997 551.303-1883.377  0.00  0.00     0.116 A 
ATOM    168  NE2 HIS d  10    1843.212 550.672-1883.444  0.00  0.00    -0.359 N 
ATOM    169  CE1 HIS d  10    1843.474 550.676-1884.779  0.00  0.00     0.207 A 
ATOM    170  2HE HIS d  10    1843.779 550.295-1882.671  0.00  0.00     0.166 HD
ATOM    171  ND1 HIS d  10    1842.568 551.234-1885.602  0.00  0.00    -0.247 NA
ENDBRANCH 165 166
ENDBRANCH   1 165
TORSDOF 72
