REMARK WARNING: 32 MAX_TORS EXCEEDED!!!
REMARK  68 active torsions:
REMARK  status: ('A' for Active; 'I' for Inactive)
REMARK    1  A    between atoms: N_1  and  CA_2 
REMARK    2  A    between atoms: CA_2  and  C_3 
REMARK    3  A    between atoms: CA_2  and  CB_5 
REMARK       I    between atoms: C_3  and  N_11 
REMARK    4  A    between atoms: CB_5  and  CG_6 
REMARK    5  A    between atoms: CG_6  and  CD_7 
REMARK    6  A    between atoms: N_11  and  CA_12 
REMARK    7  A    between atoms: CA_12  and  C_13 
REMARK    8  A    between atoms: CA_12  and  CB_15 
REMARK       I    between atoms: C_13  and  N_22 
REMARK    9  A    between atoms: CB_15  and  CG_16 
REMARK       I    between atoms: CG_16  and  ND2_17 
REMARK   10  A    between atoms: CA_23  and  C_24 
REMARK       I    between atoms: C_24  and  N_29 
REMARK   11  A    between atoms: N_29  and  CA_30 
REMARK   12  A    between atoms: CA_30  and  C_31 
REMARK   13  A    between atoms: CA_30  and  CB_33 
REMARK       I    between atoms: C_31  and  N_39 
REMARK   14  A    between atoms: CB_33  and  CG_34 
REMARK   15  A    between atoms: CG_34  and  CD_35 
REMARK   16  A    between atoms: N_39  and  CA_40 
REMARK   17  A    between atoms: CA_40  and  C_41 
REMARK   18  A    between atoms: CA_40  and  CB_43 
REMARK       I    between atoms: C_41  and  N_47 
REMARK   19  A    between atoms: CB_43  and  OG_44 
REMARK   20  A    between atoms: N_47  and  CA_48 
REMARK   21  A    between atoms: CA_48  and  C_49 
REMARK   22  A    between atoms: CA_48  and  CB_51 
REMARK       I    between atoms: C_49  and  N_56 
REMARK   23  A    between atoms: CB_51  and  CG1_52 
REMARK   24  A    between atoms: N_56  and  CA_57 
REMARK   25  A    between atoms: CA_57  and  C_58 
REMARK   26  A    between atoms: CA_57  and  CB_60 
REMARK       I    between atoms: C_58  and  N_65 
REMARK   27  A    between atoms: CB_60  and  CG_61 
REMARK   28  A    between atoms: N_65  and  CA_66 
REMARK   29  A    between atoms: CA_66  and  C_67 
REMARK   30  A    between atoms: CA_66  and  CB_69 
REMARK       I    between atoms: C_67  and  N_74 
REMARK   31  A    between atoms: CB_69  and  CG_70 
REMARK   32  A    between atoms: N_74  and  CA_75 
REMARK   33  A    between atoms: CA_75  and  C_76 
REMARK   34  A    between atoms: CA_75  and  CB_78 
REMARK       I    between atoms: C_76  and  N_84 
REMARK   35  A    between atoms: CB_78  and  CG_79 
REMARK   36  A    between atoms: CG_79  and  CD_80 
REMARK   37  A    between atoms: N_84  and  CA_85 
REMARK   38  A    between atoms: CA_85  and  C_86 
REMARK   39  A    between atoms: CA_85  and  CB_88 
REMARK       I    between atoms: C_86  and  N_96 
REMARK   40  A    between atoms: CB_88  and  CG_89 
REMARK   41  A    between atoms: N_96  and  CA_97 
REMARK   42  A    between atoms: CA_97  and  C_98 
REMARK   43  A    between atoms: CA_97  and  CB_100 
REMARK       I    between atoms: C_98  and  N_104 
REMARK   44  A    between atoms: N_104  and  CA_105 
REMARK   45  A    between atoms: CA_105  and  C_106 
REMARK   46  A    between atoms: CA_105  and  CB_108 
REMARK       I    between atoms: C_106  and  N_116 
REMARK   47  A    between atoms: CB_108  and  CG_109 
REMARK   48  A    between atoms: CG_109  and  CD_110 
REMARK       I    between atoms: CD_110  and  NE2_111 
REMARK   49  A    between atoms: N_116  and  CA_117 
REMARK   50  A    between atoms: CA_117  and  C_118 
REMARK   51  A    between atoms: CA_117  and  CB_120 
REMARK       I    between atoms: C_118  and  N_133 
REMARK   52  A    between atoms: CB_120  and  CG_121 
REMARK   53  A    between atoms: CG_121  and  CD_122 
REMARK   54  A    between atoms: CD_122  and  NE_123 
REMARK       I    between atoms: NE_123  and  CZ_124 
REMARK       I    between atoms: CZ_124  and  NH1_125 
REMARK       I    between atoms: CZ_124  and  NH2_126 
REMARK   55  A    between atoms: N_133  and  CA_134 
REMARK   56  A    between atoms: CA_134  and  C_135 
REMARK   57  A    between atoms: CA_134  and  CB_137 
REMARK       I    between atoms: C_135  and  N_141 
REMARK   58  A    between atoms: N_141  and  CA_142 
REMARK   59  A    between atoms: CA_142  and  C_143 
REMARK   60  A    between atoms: CA_142  and  CB_145 
REMARK       I    between atoms: C_143  and  N_151 
REMARK   61  A    between atoms: CB_145  and  CG_146 
REMARK   62  A    between atoms: CG_146  and  CD_147 
REMARK   63  A    between atoms: N_151  and  CA_152 
REMARK   64  A    between atoms: CA_152  and  C_153 
REMARK   65  A    between atoms: CA_152  and  CB_155 
REMARK   66  A    between atoms: CB_155  and  CG_156 
REMARK   67  A    between atoms: CG_156  and  CD_157 
REMARK   68  A    between atoms: CD_157  and  NE_158 
REMARK       I    between atoms: NE_158  and  CZ_159 
REMARK       I    between atoms: CZ_159  and  NH1_160 
ROOT
ATOM      1  C   GLU d   9    2483.877 765.019-2585.716  0.00  0.00     0.241 C 
ATOM      2  O   GLU d   9    2484.541 765.773-2586.442  0.00  0.00    -0.271 OA
ATOM      3  N   HIS d  10    2483.973 763.744-2585.885  0.00  0.00    -0.346 N 
ATOM      4  H   HIS d  10    2483.442 763.109-2585.306  0.00  0.00     0.163 HD
ENDROOT
BRANCH   3   5
ATOM      5  CA  HIS d  10    2484.860 763.232-2586.925  0.00  0.00     0.182 C 
BRANCH   5   6
ATOM      6  C   HIS d  10    2484.493 763.796-2588.277  0.00  0.00     0.241 C 
ATOM      7  O   HIS d  10    2485.346 764.260-2589.049  0.00  0.00    -0.271 OA
ATOM      8  N   VAL d  11    2483.255 763.795-2588.639  0.00  0.00    -0.346 N 
ATOM      9  H   VAL d  11    2482.542 763.423-2588.029  0.00  0.00     0.163 HD
BRANCH   8  10
ATOM     10  CA  VAL d  11    2482.900 764.341-2589.947  0.00  0.00     0.180 C 
BRANCH  10  11
ATOM     11  C   VAL d  11    2483.365 765.771-2590.080  0.00  0.00     0.241 C 
ATOM     12  O   VAL d  11    2483.967 766.176-2591.083  0.00  0.00    -0.271 OA
ATOM     13  N   GLN d  12    2483.129 766.597-2589.118  0.00  0.00    -0.346 N 
ATOM     14  H   GLN d  12    2482.640 766.292-2588.288  0.00  0.00     0.163 HD
BRANCH  13  15
ATOM     15  CA  GLN d  12    2483.578 767.980-2589.246  0.00  0.00     0.177 C 
BRANCH  15  16
ATOM     16  C   GLN d  12    2485.068 768.047-2589.484  0.00  0.00     0.241 C 
ATOM     17  O   GLN d  12    2485.555 768.754-2590.363  0.00  0.00    -0.271 OA
ATOM     18  N   ARG d  13    2485.853 767.340-2588.743  0.00  0.00    -0.346 N 
ATOM     19  H   ARG d  13    2485.476 766.751-2588.014  0.00  0.00     0.163 HD
BRANCH  18  20
ATOM     20  CA  ARG d  13    2487.293 767.405-2588.974  0.00  0.00     0.176 C 
BRANCH  20  21
ATOM     21  C   ARG d  13    2487.629 767.033-2590.399  0.00  0.00     0.241 C 
ATOM     22  O   ARG d  13    2488.397 767.704-2591.083  0.00  0.00    -0.271 OA
ATOM     23  N   VAL d  14    2487.092 765.978-2590.912  0.00  0.00    -0.346 N 
ATOM     24  H   VAL d  14    2486.457 765.410-2590.370  0.00  0.00     0.163 HD
BRANCH  23  25
ATOM     25  CA  VAL d  14    2487.417 765.618-2592.290  0.00  0.00     0.180 C 
BRANCH  25  26
ATOM     26  C   VAL d  14    2487.087 766.747-2593.236  0.00  0.00     0.241 C 
ATOM     27  O   VAL d  14    2487.880 767.128-2594.106  0.00  0.00    -0.271 OA
ATOM     28  N   GLU d  15    2485.942 767.334-2593.134  0.00  0.00    -0.346 N 
ATOM     29  H   GLU d  15    2485.277 767.041-2592.432  0.00  0.00     0.163 HD
BRANCH  28  30
ATOM     30  CA  GLU d  15    2485.622 768.426-2594.048  0.00  0.00     0.177 C 
BRANCH  30  31
ATOM     31  C   GLU d  15    2486.654 769.524-2593.960  0.00  0.00     0.241 C 
ATOM     32  O   GLU d  15    2487.159 770.035-2594.970  0.00  0.00    -0.271 OA
ATOM     33  N   ARG d  16    2487.022 769.944-2592.797  0.00  0.00    -0.347 N 
ATOM     34  H   ARG d  16    2486.626 769.544-2591.958  0.00  0.00     0.163 HD
BRANCH  33  35
ATOM     35  CA  ARG d  16    2488.020 771.006-2592.711  0.00  0.00     0.162 C 
BRANCH  35  36
ATOM     36  C   ARG d  16    2489.291 770.612-2593.426  0.00  0.00     0.219 C 
ATOM     37  O   ARG d  16    2489.404 769.536-2594.008  0.00  0.00    -0.287 OA
ENDBRANCH  35  36
BRANCH  35  38
ATOM     38  CB  ARG d  16    2488.288 771.323-2591.212  0.00  0.00     0.035 C 
BRANCH  38  39
ATOM     39  CG  ARG d  16    2489.115 772.611-2590.938  0.00  0.00     0.023 C 
BRANCH  39  40
ATOM     40  CD  ARG d  16    2489.363 772.829-2589.436  0.00  0.00     0.138 C 
BRANCH  40  41
ATOM     41  NE  ARG d  16    2490.140 774.086-2589.233  0.00  0.00    -0.227 N 
ATOM     42  CZ  ARG d  16    2490.531 774.567-2588.057  0.00  0.00     0.665 C 
ATOM     43  NH1 ARG d  16    2490.281 773.983-2586.919  0.00  0.00    -0.235 N 
ATOM     44  NH2 ARG d  16    2491.196 775.679-2588.037  0.00  0.00    -0.235 N 
ATOM     45 11HH ARG d  16    2489.754 773.111-2587.004  0.00  0.00     0.174 HD
ATOM     46 12HH ARG d  16    2490.615 774.417-2586.057  0.00  0.00     0.174 HD
ATOM     47 21HH ARG d  16    2491.384 776.123-2588.938  0.00  0.00     0.174 HD
ATOM     48 22HH ARG d  16    2491.486 776.033-2587.124  0.00  0.00     0.174 HD
ATOM     49  HE  ARG d  16    2490.421 774.668-2590.030  0.00  0.00     0.177 HD
ENDBRANCH  40  41
ENDBRANCH  39  40
ENDBRANCH  38  39
ENDBRANCH  35  38
ENDBRANCH  33  35
ENDBRANCH  30  31
BRANCH  30  50
ATOM     50  CB  GLU d  15    2484.206 768.984-2593.726  0.00  0.00     0.045 C 
BRANCH  50  51
ATOM     51  CG  GLU d  15    2483.701 770.132-2594.658  0.00  0.00     0.116 C 
BRANCH  51  52
ATOM     52  CD  GLU d  15    2482.353 770.762-2594.361  0.00  0.00     0.172 C 
ATOM     53  OE1 GLU d  15    2481.654 770.361-2593.411  0.00  0.00    -0.648 OA
ATOM     54  OE2 GLU d  15    2482.001 771.701-2595.104  0.00  0.00    -0.648 OA
ENDBRANCH  51  52
ENDBRANCH  50  51
ENDBRANCH  30  50
ENDBRANCH  28  30
ENDBRANCH  25  26
BRANCH  25  55
ATOM     55  CB  VAL d  14    2486.644 764.301-2592.696  0.00  0.00     0.009 C 
ATOM     56  CG1 VAL d  14    2486.732 763.881-2594.189  0.00  0.00     0.012 C 
ATOM     57  CG2 VAL d  14    2487.075 763.049-2591.895  0.00  0.00     0.012 C 
ENDBRANCH  25  55
ENDBRANCH  23  25
ENDBRANCH  20  21
BRANCH  20  58
ATOM     58  CB  ARG d  13    2488.006 766.467-2587.959  0.00  0.00     0.036 C 
BRANCH  58  59
ATOM     59  CG  ARG d  13    2489.551 766.619-2587.879  0.00  0.00     0.023 C 
BRANCH  59  60
ATOM     60  CD  ARG d  13    2490.178 765.632-2586.881  0.00  0.00     0.138 C 
BRANCH  60  61
ATOM     61  NE  ARG d  13    2491.655 765.839-2586.831  0.00  0.00    -0.227 N 
ATOM     62  CZ  ARG d  13    2492.504 765.148-2586.075  0.00  0.00     0.665 C 
ATOM     63  NH1 ARG d  13    2492.139 764.184-2585.277  0.00  0.00    -0.235 N 
ATOM     64  NH2 ARG d  13    2493.763 765.446-2586.133  0.00  0.00    -0.235 N 
ATOM     65 11HH ARG d  13    2491.133 763.998-2585.280  0.00  0.00     0.174 HD
ATOM     66 12HH ARG d  13    2492.852 763.701-2584.728  0.00  0.00     0.174 HD
ATOM     67 21HH ARG d  13    2494.031 766.204-2586.765  0.00  0.00     0.174 HD
ATOM     68 22HH ARG d  13    2494.399 764.905-2585.544  0.00  0.00     0.174 HD
ATOM     69  HE  ARG d  13    2492.107 766.561-2587.402  0.00  0.00     0.177 HD
ENDBRANCH  60  61
ENDBRANCH  59  60
ENDBRANCH  58  59
ENDBRANCH  20  58
ENDBRANCH  18  20
ENDBRANCH  15  16
BRANCH  15  70
ATOM     70  CB  GLN d  12    2483.188 768.749-2587.963  0.00  0.00     0.044 C 
BRANCH  70  71
ATOM     71  CG  GLN d  12    2483.549 770.270-2587.933  0.00  0.00     0.105 C 
BRANCH  71  72
ATOM     72  CD  GLN d  12    2483.248 771.084-2586.669  0.00  0.00     0.215 C 
ATOM     73  NE2 GLN d  12    2482.681 770.509-2585.639  0.00  0.00    -0.370 N 
ATOM     74 21HE GLN d  12    2482.574 771.104-2584.816  0.00  0.00     0.159 HD
ATOM     75 22HE GLN d  12    2482.516 769.505-2585.742  0.00  0.00     0.159 HD
ATOM     76  OE1 GLN d  12    2483.550 772.265-2586.592  0.00  0.00    -0.274 OA
ENDBRANCH  71  72
ENDBRANCH  70  71
ENDBRANCH  15  70
ENDBRANCH  13  15
ENDBRANCH  10  11
BRANCH  10  77
ATOM     77  CB  VAL d  11    2481.339 764.235-2590.166  0.00  0.00     0.009 C 
ATOM     78  CG1 VAL d  11    2480.771 764.938-2591.428  0.00  0.00     0.012 C 
ATOM     79  CG2 VAL d  11    2480.814 762.781-2590.238  0.00  0.00     0.012 C 
ENDBRANCH  10  77
ENDBRANCH   8  10
ENDBRANCH   5   6
BRANCH   5  80
ATOM     80  CB  HIS d  10    2484.696 761.703-2586.920  0.00  0.00     0.095 C 
BRANCH  80  81
ATOM     81  CG  HIS d  10    2485.981 760.992-2586.612  0.00  0.00     0.053 A 
ATOM     82  CD2 HIS d  10    2486.362 760.658-2585.319  0.00  0.00     0.116 A 
ATOM     83  NE2 HIS d  10    2487.577 760.025-2585.386  0.00  0.00    -0.359 N 
ATOM     84  CE1 HIS d  10    2487.839 760.027-2586.721  0.00  0.00     0.207 A 
ATOM     85  2HE HIS d  10    2488.144 759.648-2584.613  0.00  0.00     0.166 HD
ATOM     86  ND1 HIS d  10    2486.932 760.585-2587.544  0.00  0.00    -0.247 NA
ENDBRANCH  80  81
ENDBRANCH   5  80
ENDBRANCH   3   5
BRANCH   1  87
ATOM     87  CA  GLU d   9    2482.959 765.548-2584.640  0.00  0.00     0.177 C 
BRANCH  87  88
ATOM     88  N   GLU d   9    2481.656 764.891-2584.695  0.00  0.00    -0.346 N 
ATOM     89  C   ASP d   8    2480.976 764.941-2585.790  0.00  0.00     0.241 C 
ATOM     90  O   ASP d   8    2481.449 765.545-2586.765  0.00  0.00    -0.271 OA
ATOM     91  H   GLU d   9    2481.293 764.405-2583.887  0.00  0.00     0.163 HD
BRANCH  89  92
ATOM     92  CA  ASP d   8    2479.629 764.261-2585.847  0.00  0.00     0.186 C 
BRANCH  92  93
ATOM     93  N   ASP d   8    2479.699 762.912-2585.293  0.00  0.00    -0.346 N 
ATOM     94  C   LEU d   7    2480.536 762.071-2585.799  0.00  0.00     0.241 C 
ATOM     95  O   LEU d   7    2481.257 762.433-2586.741  0.00  0.00    -0.271 OA
ATOM     96  H   ASP d   8    2479.101 762.642-2584.525  0.00  0.00     0.163 HD
BRANCH  94  97
ATOM     97  CA  LEU d   7    2480.608 760.676-2585.226  0.00  0.00     0.177 C 
BRANCH  97  98
ATOM     98  N   LEU d   7    2480.663 760.712-2583.767  0.00  0.00    -0.346 N 
ATOM     99  C   ILE d   6    2481.609 761.375-2583.194  0.00  0.00     0.241 C 
ATOM    100  O   ILE d   6    2482.444 761.962-2583.897  0.00  0.00    -0.271 OA
ATOM    101  H   LEU d   7    2479.971 760.225-2583.216  0.00  0.00     0.163 HD
BRANCH  99 102
ATOM    102  CA  ILE d   6    2481.666 761.413-2581.686  0.00  0.00     0.180 C 
BRANCH 102 103
ATOM    103  N   ILE d   6    2480.353 761.708-2581.120  0.00  0.00    -0.346 N 
ATOM    104  C   SER d   5    2479.749 762.791-2581.474  0.00  0.00     0.243 C 
ATOM    105  O   SER d   5    2480.296 763.545-2582.279  0.00  0.00    -0.271 OA
ATOM    106  H   ILE d   6    2479.924 761.074-2580.461  0.00  0.00     0.163 HD
BRANCH 104 107
ATOM    107  CA  SER d   5    2478.390 763.098-2580.889  0.00  0.00     0.200 C 
BRANCH 107 108
ATOM    108  N   SER d   5    2477.520 761.926-2580.948  0.00  0.00    -0.344 N 
ATOM    109  C   GLU d   4    2477.293 761.374-2582.091  0.00  0.00     0.241 C 
ATOM    110  O   GLU d   4    2477.820 761.853-2583.105  0.00  0.00    -0.271 OA
ATOM    111  H   SER d   5    2477.102 761.555-2580.106  0.00  0.00     0.163 HD
BRANCH 109 112
ATOM    112  CA  GLU d   4    2476.394 760.163-2582.153  0.00  0.00     0.177 C 
BRANCH 112 113
ATOM    113  N   GLU d   4    2476.753 759.192-2581.123  0.00  0.00    -0.346 N 
ATOM    114  C   PRO d   3    2477.958 758.732-2581.090  0.00  0.00     0.241 C 
ATOM    115  O   PRO d   3    2478.781 759.115-2581.921  0.00  0.00    -0.271 OA
ATOM    116  H   GLU d   4    2476.068 758.886-2580.446  0.00  0.00     0.163 HD
BRANCH 114 117
ATOM    117  CA  PRO d   3    2478.355 757.708-2580.013  0.00  0.00     0.179 C 
ATOM    118  N   PRO d   3    2477.903 758.118-2578.692  0.00  0.00    -0.337 N 
ATOM    119  C   ASN d   2    2478.425 759.112-2578.057  0.00  0.00     0.243 C 
ATOM    120  CD  PRO d   3    2476.825 757.325-2578.143  0.00  0.00     0.127 C 
ATOM    121  O   ASN d   2    2479.340 759.743-2578.585  0.00  0.00    -0.271 OA
ATOM    122  CG  PRO d   3    2476.367 756.506-2579.353  0.00  0.00     0.022 C 
ATOM    123  CB  PRO d   3    2477.651 756.354-2580.183  0.00  0.00     0.037 C 
BRANCH 119 124
ATOM    124  CA  ASN d   2    2477.893 759.468-2576.689  0.00  0.00     0.185 C 
BRANCH 124 125
ATOM    125  N   ASN d   2    2476.434 759.507-2576.689  0.00  0.00    -0.346 N 
ATOM    126  C   GLU d   1    2475.829 760.293-2577.514  0.00  0.00     0.242 C 
ATOM    127  O   GLU d   1    2476.505 760.992-2578.283  0.00  0.00    -0.271 OA
ATOM    128  H   ASN d   2    2475.906 758.927-2576.052  0.00  0.00     0.163 HD
BRANCH 126 129
ATOM    129  CA  GLU d   1    2474.320 760.333-2577.514  0.00  0.00     0.191 C 
BRANCH 129 130
ATOM    130  N   GLU d   1    2473.761 758.984-2577.514  0.00  0.00    -0.326 NA
ATOM    131  H   GLU d   1    2474.388 758.105-2577.514  0.00  0.00     0.180 HD
ENDBRANCH 129 130
BRANCH 129 132
ATOM    132  CB  GLU d   1    2473.797 761.118-2576.277  0.00  0.00     0.047 C 
BRANCH 132 133
ATOM    133  CG  GLU d   1    2474.272 762.603-2576.166  0.00  0.00     0.116 C 
BRANCH 133 134
ATOM    134  CD  GLU d   1    2473.848 763.407-2574.951  0.00  0.00     0.172 C 
ATOM    135  OE1 GLU d   1    2473.120 762.905-2574.073  0.00  0.00    -0.648 OA
ATOM    136  OE2 GLU d   1    2474.278 764.577-2574.879  0.00  0.00    -0.648 OA
ENDBRANCH 133 134
ENDBRANCH 132 133
ENDBRANCH 129 132
ENDBRANCH 126 129
ENDBRANCH 124 125
BRANCH 124 137
ATOM    137  CB  ASN d   2    2478.385 758.445-2575.624  0.00  0.00     0.137 C 
BRANCH 137 138
ATOM    138  CG  ASN d   2    2477.921 758.669-2574.181  0.00  0.00     0.217 C 
ATOM    139  ND2 ASN d   2    2478.515 759.584-2573.463  0.00  0.00    -0.370 N 
ATOM    140 21HD ASN d   2    2478.034 759.757-2572.576  0.00  0.00     0.159 HD
ATOM    141 22HD ASN d   2    2479.217 760.155-2573.932  0.00  0.00     0.159 HD
ATOM    142  OD1 ASN d   2    2477.000 758.035-2573.687  0.00  0.00    -0.274 OA
ENDBRANCH 137 138
ENDBRANCH 124 137
ENDBRANCH 119 124
ENDBRANCH 114 117
ENDBRANCH 112 113
BRANCH 112 143
ATOM    143  CB  GLU d   4    2474.905 760.582-2581.983  0.00  0.00     0.045 C 
BRANCH 143 144
ATOM    144  CG  GLU d   4    2474.358 761.586-2583.049  0.00  0.00     0.116 C 
BRANCH 144 145
ATOM    145  CD  GLU d   4    2472.931 762.083-2582.906  0.00  0.00     0.172 C 
ATOM    146  OE1 GLU d   4    2472.204 761.685-2581.975  0.00  0.00    -0.648 OA
ATOM    147  OE2 GLU d   4    2472.542 762.912-2583.754  0.00  0.00    -0.648 OA
ENDBRANCH 144 145
ENDBRANCH 143 144
ENDBRANCH 112 143
ENDBRANCH 109 112
ENDBRANCH 107 108
BRANCH 107 148
ATOM    148  CB  SER d   5    2478.501 763.630-2579.438  0.00  0.00     0.199 C 
BRANCH 148 149
ATOM    149  OG  SER d   5    2479.232 762.750-2578.577  0.00  0.00    -0.398 OA
ATOM    150  HG  SER d   5    2478.743 761.925-2578.527  0.00  0.00     0.209 HD
ENDBRANCH 148 149
ENDBRANCH 107 148
ENDBRANCH 104 107
ENDBRANCH 102 103
BRANCH 102 151
ATOM    151  CB  ILE d   6    2482.265 760.076-2581.085  0.00  0.00     0.013 C 
ATOM    152  CG2 ILE d   6    2483.706 759.774-2581.601  0.00  0.00     0.012 C 
BRANCH 151 153
ATOM    153  CG1 ILE d   6    2482.284 760.014-2579.525  0.00  0.00     0.002 C 
ATOM    154  CD1 ILE d   6    2482.553 758.625-2578.909  0.00  0.00     0.005 C 
ENDBRANCH 151 153
ENDBRANCH 102 151
ENDBRANCH  99 102
ENDBRANCH  97  98
BRANCH  97 155
ATOM    155  CB  LEU d   7    2479.405 759.816-2585.706  0.00  0.00     0.038 C 
BRANCH 155 156
ATOM    156  CG  LEU d   7    2479.331 758.336-2585.240  0.00  0.00    -0.020 C 
ATOM    157  CD1 LEU d   7    2478.141 757.631-2585.905  0.00  0.00     0.009 C 
ATOM    158  CD2 LEU d   7    2480.625 757.557-2585.531  0.00  0.00     0.009 C 
ENDBRANCH 155 156
ENDBRANCH  97 155
ENDBRANCH  94  97
ENDBRANCH  92  93
BRANCH  92 159
ATOM    159  CB  ASP d   8    2478.552 765.102-2585.106  0.00  0.00     0.147 C 
BRANCH 159 160
ATOM    160  CG  ASP d   8    2478.333 766.522-2585.647  0.00  0.00     0.175 C 
ATOM    161  OD1 ASP d   8    2478.398 766.720-2586.878  0.00  0.00    -0.648 OA
ATOM    162  OD2 ASP d   8    2478.142 767.448-2584.832  0.00  0.00    -0.648 OA
ENDBRANCH 159 160
ENDBRANCH  92 159
ENDBRANCH  89  92
ENDBRANCH  87  88
BRANCH  87 163
ATOM    163  CB  GLU d   9    2483.593 765.341-2583.235  0.00  0.00     0.045 C 
BRANCH 163 164
ATOM    164  CG  GLU d   9    2484.976 766.033-2583.006  0.00  0.00     0.116 C 
BRANCH 164 165
ATOM    165  CD  GLU d   9    2485.678 765.819-2581.678  0.00  0.00     0.172 C 
ATOM    166  OE1 GLU d   9    2485.156 765.129-2580.781  0.00  0.00    -0.648 OA
ATOM    167  OE2 GLU d   9    2486.797 766.357-2581.547  0.00  0.00    -0.648 OA
ENDBRANCH 164 165
ENDBRANCH 163 164
ENDBRANCH  87 163
ENDBRANCH   1  87
TORSDOF 68
