REMARK WARNING: 32 MAX_TORS EXCEEDED!!!
REMARK  68 active torsions:
REMARK  status: ('A' for Active; 'I' for Inactive)
REMARK    1  A    between atoms: N_1  and  CA_2 
REMARK    2  A    between atoms: CA_2  and  C_3 
REMARK    3  A    between atoms: CA_2  and  CB_5 
REMARK       I    between atoms: C_3  and  N_11 
REMARK    4  A    between atoms: CB_5  and  CG_6 
REMARK    5  A    between atoms: CG_6  and  CD_7 
REMARK    6  A    between atoms: N_11  and  CA_12 
REMARK    7  A    between atoms: CA_12  and  C_13 
REMARK    8  A    between atoms: CA_12  and  CB_15 
REMARK       I    between atoms: C_13  and  N_22 
REMARK    9  A    between atoms: CB_15  and  CG_16 
REMARK       I    between atoms: CG_16  and  ND2_17 
REMARK   10  A    between atoms: CA_23  and  C_24 
REMARK       I    between atoms: C_24  and  N_29 
REMARK   11  A    between atoms: N_29  and  CA_30 
REMARK   12  A    between atoms: CA_30  and  C_31 
REMARK   13  A    between atoms: CA_30  and  CB_33 
REMARK       I    between atoms: C_31  and  N_39 
REMARK   14  A    between atoms: CB_33  and  CG_34 
REMARK   15  A    between atoms: CG_34  and  CD_35 
REMARK   16  A    between atoms: N_39  and  CA_40 
REMARK   17  A    between atoms: CA_40  and  C_41 
REMARK   18  A    between atoms: CA_40  and  CB_43 
REMARK       I    between atoms: C_41  and  N_47 
REMARK   19  A    between atoms: CB_43  and  OG_44 
REMARK   20  A    between atoms: N_47  and  CA_48 
REMARK   21  A    between atoms: CA_48  and  C_49 
REMARK   22  A    between atoms: CA_48  and  CB_51 
REMARK       I    between atoms: C_49  and  N_56 
REMARK   23  A    between atoms: CB_51  and  CG1_52 
REMARK   24  A    between atoms: N_56  and  CA_57 
REMARK   25  A    between atoms: CA_57  and  C_58 
REMARK   26  A    between atoms: CA_57  and  CB_60 
REMARK       I    between atoms: C_58  and  N_65 
REMARK   27  A    between atoms: CB_60  and  CG_61 
REMARK   28  A    between atoms: N_65  and  CA_66 
REMARK   29  A    between atoms: CA_66  and  C_67 
REMARK   30  A    between atoms: CA_66  and  CB_69 
REMARK       I    between atoms: C_67  and  N_74 
REMARK   31  A    between atoms: CB_69  and  CG1_70 
REMARK   32  A    between atoms: N_74  and  CA_75 
REMARK   33  A    between atoms: CA_75  and  C_76 
REMARK   34  A    between atoms: CA_75  and  CB_78 
REMARK       I    between atoms: C_76  and  N_84 
REMARK   35  A    between atoms: CB_78  and  CG_79 
REMARK   36  A    between atoms: CG_79  and  CD_80 
REMARK   37  A    between atoms: N_84  and  CA_85 
REMARK   38  A    between atoms: CA_85  and  C_86 
REMARK   39  A    between atoms: CA_85  and  CB_88 
REMARK       I    between atoms: C_86  and  N_96 
REMARK   40  A    between atoms: CB_88  and  CG_89 
REMARK   41  A    between atoms: N_96  and  CA_97 
REMARK   42  A    between atoms: CA_97  and  C_98 
REMARK   43  A    between atoms: CA_97  and  CB_100 
REMARK       I    between atoms: C_98  and  N_104 
REMARK   44  A    between atoms: N_104  and  CA_105 
REMARK   45  A    between atoms: CA_105  and  C_106 
REMARK   46  A    between atoms: CA_105  and  CB_108 
REMARK       I    between atoms: C_106  and  N_116 
REMARK   47  A    between atoms: CB_108  and  CG_109 
REMARK   48  A    between atoms: CG_109  and  CD_110 
REMARK       I    between atoms: CD_110  and  NE2_111 
REMARK   49  A    between atoms: N_116  and  CA_117 
REMARK   50  A    between atoms: CA_117  and  C_118 
REMARK   51  A    between atoms: CA_117  and  CB_120 
REMARK       I    between atoms: C_118  and  N_133 
REMARK   52  A    between atoms: CB_120  and  CG_121 
REMARK   53  A    between atoms: CG_121  and  CD_122 
REMARK   54  A    between atoms: CD_122  and  NE_123 
REMARK       I    between atoms: NE_123  and  CZ_124 
REMARK       I    between atoms: CZ_124  and  NH1_125 
REMARK       I    between atoms: CZ_124  and  NH2_126 
REMARK   55  A    between atoms: N_133  and  CA_134 
REMARK   56  A    between atoms: CA_134  and  C_135 
REMARK   57  A    between atoms: CA_134  and  CB_137 
REMARK       I    between atoms: C_135  and  N_141 
REMARK   58  A    between atoms: N_141  and  CA_142 
REMARK   59  A    between atoms: CA_142  and  C_143 
REMARK   60  A    between atoms: CA_142  and  CB_145 
REMARK       I    between atoms: C_143  and  N_150 
REMARK   61  A    between atoms: CB_145  and  CG_146 
REMARK   62  A    between atoms: CG_146  and  SD_147 
REMARK   63  A    between atoms: N_150  and  CA_151 
REMARK   64  A    between atoms: CA_151  and  C_152 
REMARK   65  A    between atoms: CA_151  and  CB_154 
REMARK   66  A    between atoms: CB_154  and  CG_155 
REMARK   67  A    between atoms: CG_155  and  CD_156 
REMARK   68  A    between atoms: CD_156  and  NE_157 
REMARK       I    between atoms: NE_157  and  CZ_158 
REMARK       I    between atoms: CZ_158  and  NH1_159 
ROOT
ATOM      1  C   GLU d   9    1241.211 360.244-1235.039  0.00  0.00     0.241 C 
ATOM      2  O   GLU d   9    1241.875 360.998-1235.764  0.00  0.00    -0.271 OA
ATOM      3  N   HIS d  10    1241.307 358.969-1235.208  0.00  0.00    -0.346 N 
ATOM      4  H   HIS d  10    1240.776 358.334-1234.630  0.00  0.00     0.163 HD
ENDROOT
BRANCH   1   5
ATOM      5  CA  GLU d   9    1240.293 360.772-1233.963  0.00  0.00     0.177 C 
BRANCH   5   6
ATOM      6  N   GLU d   9    1238.990 360.115-1234.018  0.00  0.00    -0.346 N 
ATOM      7  C   ILE d   8    1238.310 360.165-1235.114  0.00  0.00     0.241 C 
ATOM      8  O   ILE d   8    1238.783 360.770-1236.088  0.00  0.00    -0.271 OA
ATOM      9  H   GLU d   9    1238.626 359.629-1233.212  0.00  0.00     0.163 HD
BRANCH   7  10
ATOM     10  CA  ILE d   8    1236.964 359.486-1235.172  0.00  0.00     0.180 C 
BRANCH  10  11
ATOM     11  N   ILE d   8    1237.034 358.137-1234.618  0.00  0.00    -0.346 N 
ATOM     12  C   LEU d   7    1237.871 357.296-1235.125  0.00  0.00     0.241 C 
ATOM     13  O   LEU d   7    1238.592 357.660-1236.067  0.00  0.00    -0.271 OA
ATOM     14  H   ILE d   8    1236.436 357.866-1233.851  0.00  0.00     0.163 HD
BRANCH  12  15
ATOM     15  CA  LEU d   7    1237.944 355.901-1234.553  0.00  0.00     0.177 C 
BRANCH  15  16
ATOM     16  N   LEU d   7    1237.999 355.937-1233.094  0.00  0.00    -0.346 N 
ATOM     17  C   ILE d   6    1238.945 356.600-1232.521  0.00  0.00     0.241 C 
ATOM     18  O   ILE d   6    1239.780 357.188-1233.224  0.00  0.00    -0.271 OA
ATOM     19  H   LEU d   7    1237.307 355.450-1232.543  0.00  0.00     0.163 HD
BRANCH  17  20
ATOM     20  CA  ILE d   6    1239.002 356.638-1231.013  0.00  0.00     0.180 C 
BRANCH  20  21
ATOM     21  N   ILE d   6    1237.689 356.932-1230.446  0.00  0.00    -0.346 N 
ATOM     22  C   SER d   5    1237.084 358.015-1230.800  0.00  0.00     0.243 C 
ATOM     23  O   SER d   5    1237.631 358.769-1231.605  0.00  0.00    -0.271 OA
ATOM     24  H   ILE d   6    1237.261 356.298-1229.787  0.00  0.00     0.163 HD
BRANCH  22  25
ATOM     25  CA  SER d   5    1235.725 358.321-1230.214  0.00  0.00     0.200 C 
BRANCH  25  26
ATOM     26  N   SER d   5    1234.856 357.150-1230.273  0.00  0.00    -0.344 N 
ATOM     27  C   GLU d   4    1234.629 356.597-1231.416  0.00  0.00     0.241 C 
ATOM     28  O   GLU d   4    1235.155 357.076-1232.431  0.00  0.00    -0.271 OA
ATOM     29  H   SER d   5    1234.439 356.778-1229.431  0.00  0.00     0.163 HD
BRANCH  27  30
ATOM     30  CA  GLU d   4    1233.730 355.386-1231.477  0.00  0.00     0.177 C 
BRANCH  30  31
ATOM     31  N   GLU d   4    1234.089 354.415-1230.448  0.00  0.00    -0.346 N 
ATOM     32  C   PRO d   3    1235.294 353.954-1230.415  0.00  0.00     0.241 C 
ATOM     33  O   PRO d   3    1236.117 354.338-1231.247  0.00  0.00    -0.271 OA
ATOM     34  H   GLU d   4    1233.405 354.108-1229.771  0.00  0.00     0.163 HD
BRANCH  32  35
ATOM     35  CA  PRO d   3    1235.692 352.931-1229.339  0.00  0.00     0.179 C 
ATOM     36  N   PRO d   3    1235.241 353.340-1228.017  0.00  0.00    -0.337 N 
ATOM     37  C   ASN d   2    1235.762 354.335-1227.383  0.00  0.00     0.243 C 
ATOM     38  CD  PRO d   3    1234.163 352.547-1227.468  0.00  0.00     0.127 C 
ATOM     39  O   ASN d   2    1236.677 354.966-1227.912  0.00  0.00    -0.271 OA
ATOM     40  CG  PRO d   3    1233.705 351.728-1228.678  0.00  0.00     0.022 C 
ATOM     41  CB  PRO d   3    1234.988 351.576-1229.508  0.00  0.00     0.037 C 
BRANCH  37  42
ATOM     42  CA  ASN d   2    1235.231 354.691-1226.014  0.00  0.00     0.185 C 
BRANCH  42  43
ATOM     43  N   ASN d   2    1233.772 354.730-1226.014  0.00  0.00    -0.346 N 
ATOM     44  C   GLU d   1    1233.167 355.515-1226.839  0.00  0.00     0.242 C 
ATOM     45  O   GLU d   1    1233.843 356.214-1227.608  0.00  0.00    -0.271 OA
ATOM     46  H   ASN d   2    1233.244 354.150-1225.378  0.00  0.00     0.163 HD
BRANCH  44  47
ATOM     47  CA  GLU d   1    1231.658 355.555-1226.839  0.00  0.00     0.191 C 
BRANCH  47  48
ATOM     48  N   GLU d   1    1231.099 354.206-1226.839  0.00  0.00    -0.326 NA
ATOM     49  H   GLU d   1    1231.726 353.327-1226.839  0.00  0.00     0.180 HD
ENDBRANCH  47  48
BRANCH  47  50
ATOM     50  CB  GLU d   1    1231.135 356.340-1225.602  0.00  0.00     0.047 C 
BRANCH  50  51
ATOM     51  CG  GLU d   1    1231.610 357.825-1225.491  0.00  0.00     0.116 C 
BRANCH  51  52
ATOM     52  CD  GLU d   1    1231.186 358.629-1224.276  0.00  0.00     0.172 C 
ATOM     53  OE1 GLU d   1    1230.458 358.127-1223.398  0.00  0.00    -0.648 OA
ATOM     54  OE2 GLU d   1    1231.616 359.799-1224.204  0.00  0.00    -0.648 OA
ENDBRANCH  51  52
ENDBRANCH  50  51
ENDBRANCH  47  50
ENDBRANCH  44  47
ENDBRANCH  42  43
BRANCH  42  55
ATOM     55  CB  ASN d   2    1235.723 353.668-1224.950  0.00  0.00     0.137 C 
BRANCH  55  56
ATOM     56  CG  ASN d   2    1235.260 353.892-1223.506  0.00  0.00     0.217 C 
ATOM     57  ND2 ASN d   2    1235.854 354.807-1222.788  0.00  0.00    -0.370 N 
ATOM     58 21HD ASN d   2    1235.374 354.980-1221.902  0.00  0.00     0.159 HD
ATOM     59 22HD ASN d   2    1236.556 355.378-1223.258  0.00  0.00     0.159 HD
ATOM     60  OD1 ASN d   2    1234.339 353.258-1223.012  0.00  0.00    -0.274 OA
ENDBRANCH  55  56
ENDBRANCH  42  55
ENDBRANCH  37  42
ENDBRANCH  32  35
ENDBRANCH  30  31
BRANCH  30  61
ATOM     61  CB  GLU d   4    1232.241 355.804-1231.307  0.00  0.00     0.045 C 
BRANCH  61  62
ATOM     62  CG  GLU d   4    1231.693 356.808-1232.372  0.00  0.00     0.116 C 
BRANCH  62  63
ATOM     63  CD  GLU d   4    1230.266 357.304-1232.228  0.00  0.00     0.172 C 
ATOM     64  OE1 GLU d   4    1229.540 356.906-1231.297  0.00  0.00    -0.648 OA
ATOM     65  OE2 GLU d   4    1229.876 358.134-1233.077  0.00  0.00    -0.648 OA
ENDBRANCH  62  63
ENDBRANCH  61  62
ENDBRANCH  30  61
ENDBRANCH  27  30
ENDBRANCH  25  26
BRANCH  25  66
ATOM     66  CB  SER d   5    1235.837 358.853-1228.764  0.00  0.00     0.199 C 
BRANCH  66  67
ATOM     67  OG  SER d   5    1236.569 357.974-1227.903  0.00  0.00    -0.398 OA
ATOM     68  HG  SER d   5    1236.080 357.149-1227.852  0.00  0.00     0.209 HD
ENDBRANCH  66  67
ENDBRANCH  25  66
ENDBRANCH  22  25
ENDBRANCH  20  21
BRANCH  20  69
ATOM     69  CB  ILE d   6    1239.602 355.301-1230.413  0.00  0.00     0.013 C 
ATOM     70  CG2 ILE d   6    1241.043 355.000-1230.928  0.00  0.00     0.012 C 
BRANCH  69  71
ATOM     71  CG1 ILE d   6    1239.622 355.239-1228.852  0.00  0.00     0.002 C 
ATOM     72  CD1 ILE d   6    1239.892 353.850-1228.237  0.00  0.00     0.005 C 
ENDBRANCH  69  71
ENDBRANCH  20  69
ENDBRANCH  17  20
ENDBRANCH  15  16
BRANCH  15  73
ATOM     73  CB  LEU d   7    1236.741 355.041-1235.033  0.00  0.00     0.038 C 
BRANCH  73  74
ATOM     74  CG  LEU d   7    1236.668 353.561-1234.567  0.00  0.00    -0.020 C 
ATOM     75  CD1 LEU d   7    1235.478 352.856-1235.232  0.00  0.00     0.009 C 
ATOM     76  CD2 LEU d   7    1237.962 352.782-1234.859  0.00  0.00     0.009 C 
ENDBRANCH  73  74
ENDBRANCH  15  73
ENDBRANCH  12  15
ENDBRANCH  10  11
BRANCH  10  77
ATOM     77  CB  ILE d   8    1235.841 360.344-1234.458  0.00  0.00     0.013 C 
ATOM     78  CG2 ILE d   8    1235.675 361.764-1235.082  0.00  0.00     0.012 C 
BRANCH  77  79
ATOM     79  CG1 ILE d   8    1234.434 359.667-1234.413  0.00  0.00     0.002 C 
ATOM     80  CD1 ILE d   8    1233.406 360.312-1233.459  0.00  0.00     0.005 C 
ENDBRANCH  77  79
ENDBRANCH  10  77
ENDBRANCH   7  10
ENDBRANCH   5   6
BRANCH   5  81
ATOM     81  CB  GLU d   9    1240.926 360.564-1232.557  0.00  0.00     0.045 C 
BRANCH  81  82
ATOM     82  CG  GLU d   9    1242.309 361.256-1232.328  0.00  0.00     0.116 C 
BRANCH  82  83
ATOM     83  CD  GLU d   9    1243.010 361.042-1230.999  0.00  0.00     0.172 C 
ATOM     84  OE1 GLU d   9    1242.489 360.352-1230.103  0.00  0.00    -0.648 OA
ATOM     85  OE2 GLU d   9    1244.130 361.580-1230.867  0.00  0.00    -0.648 OA
ENDBRANCH  82  83
ENDBRANCH  81  82
ENDBRANCH   5  81
ENDBRANCH   1   5
BRANCH   3  86
ATOM     86  CA  HIS d  10    1242.195 358.457-1236.248  0.00  0.00     0.182 C 
BRANCH  86  87
ATOM     87  C   HIS d  10    1241.828 359.022-1237.600  0.00  0.00     0.241 C 
ATOM     88  O   HIS d  10    1242.681 359.486-1238.371  0.00  0.00    -0.271 OA
ATOM     89  N   VAL d  11    1240.591 359.021-1237.963  0.00  0.00    -0.346 N 
ATOM     90  H   VAL d  11    1239.877 358.648-1237.352  0.00  0.00     0.163 HD
BRANCH  89  91
ATOM     91  CA  VAL d  11    1240.236 359.567-1239.270  0.00  0.00     0.180 C 
BRANCH  91  92
ATOM     92  C   VAL d  11    1240.701 360.997-1239.402  0.00  0.00     0.241 C 
ATOM     93  O   VAL d  11    1241.302 361.402-1240.406  0.00  0.00    -0.271 OA
ATOM     94  N   GLN d  12    1240.464 361.824-1238.440  0.00  0.00    -0.346 N 
ATOM     95  H   GLN d  12    1239.974 361.518-1237.611  0.00  0.00     0.163 HD
BRANCH  94  96
ATOM     96  CA  GLN d  12    1240.912 363.206-1238.568  0.00  0.00     0.177 C 
BRANCH  96  97
ATOM     97  C   GLN d  12    1242.402 363.274-1238.805  0.00  0.00     0.241 C 
ATOM     98  O   GLN d  12    1242.890 363.982-1239.684  0.00  0.00    -0.271 OA
ATOM     99  N   ARG d  13    1243.187 362.567-1238.064  0.00  0.00    -0.346 N 
ATOM    100  H   ARG d  13    1242.810 361.977-1237.336  0.00  0.00     0.163 HD
BRANCH  99 101
ATOM    101  CA  ARG d  13    1244.627 362.632-1238.295  0.00  0.00     0.176 C 
BRANCH 101 102
ATOM    102  C   ARG d  13    1244.963 362.261-1239.720  0.00  0.00     0.241 C 
ATOM    103  O   ARG d  13    1245.732 362.932-1240.404  0.00  0.00    -0.271 OA
ATOM    104  N   VAL d  14    1244.427 361.206-1240.234  0.00  0.00    -0.346 N 
ATOM    105  H   VAL d  14    1243.792 360.638-1239.692  0.00  0.00     0.163 HD
BRANCH 104 106
ATOM    106  CA  VAL d  14    1244.752 360.847-1241.612  0.00  0.00     0.180 C 
BRANCH 106 107
ATOM    107  C   VAL d  14    1244.422 361.977-1242.557  0.00  0.00     0.241 C 
ATOM    108  O   VAL d  14    1245.216 362.358-1243.427  0.00  0.00    -0.271 OA
ATOM    109  N   MET d  15    1243.277 362.562-1242.456  0.00  0.00    -0.346 N 
ATOM    110  H   MET d  15    1242.612 362.270-1241.755  0.00  0.00     0.163 HD
BRANCH 109 111
ATOM    111  CA  MET d  15    1242.957 363.655-1243.370  0.00  0.00     0.177 C 
BRANCH 111 112
ATOM    112  C   MET d  15    1243.988 364.755-1243.282  0.00  0.00     0.241 C 
ATOM    113  O   MET d  15    1244.490 365.265-1244.295  0.00  0.00    -0.271 OA
ATOM    114  N   ARG d  16    1244.356 365.176-1242.120  0.00  0.00    -0.347 N 
ATOM    115  H   ARG d  16    1243.961 364.776-1241.281  0.00  0.00     0.163 HD
BRANCH 114 116
ATOM    116  CA  ARG d  16    1245.353 366.240-1242.037  0.00  0.00     0.162 C 
BRANCH 116 117
ATOM    117  C   ARG d  16    1246.623 365.847-1242.753  0.00  0.00     0.219 C 
ATOM    118  O   ARG d  16    1246.737 364.771-1243.334  0.00  0.00    -0.287 OA
ENDBRANCH 116 117
BRANCH 116 119
ATOM    119  CB  ARG d  16    1245.622 366.558-1240.538  0.00  0.00     0.035 C 
BRANCH 119 120
ATOM    120  CG  ARG d  16    1246.447 367.847-1240.266  0.00  0.00     0.023 C 
BRANCH 120 121
ATOM    121  CD  ARG d  16    1246.696 368.067-1238.765  0.00  0.00     0.138 C 
BRANCH 121 122
ATOM    122  NE  ARG d  16    1247.473 369.326-1238.564  0.00  0.00    -0.227 N 
ATOM    123  CZ  ARG d  16    1247.864 369.809-1237.388  0.00  0.00     0.665 C 
ATOM    124  NH1 ARG d  16    1247.616 369.225-1236.250  0.00  0.00    -0.235 N 
ATOM    125  NH2 ARG d  16    1248.528 370.921-1237.370  0.00  0.00    -0.235 N 
ATOM    126 11HH ARG d  16    1247.090 368.352-1236.334  0.00  0.00     0.174 HD
ATOM    127 12HH ARG d  16    1247.950 369.660-1235.389  0.00  0.00     0.174 HD
ATOM    128 21HH ARG d  16    1248.713 371.364-1238.272  0.00  0.00     0.174 HD
ATOM    129 22HH ARG d  16    1248.818 371.277-1236.458  0.00  0.00     0.174 HD
ATOM    130  HE  ARG d  16    1247.751 369.907-1239.361  0.00  0.00     0.177 HD
ENDBRANCH 121 122
ENDBRANCH 120 121
ENDBRANCH 119 120
ENDBRANCH 116 119
ENDBRANCH 114 116
ENDBRANCH 111 112
BRANCH 111 131
ATOM    131  CB  MET d  15    1241.536 364.201-1243.062  0.00  0.00     0.045 C 
BRANCH 131 132
ATOM    132  CG  MET d  15    1240.374 363.203-1243.253  0.00  0.00     0.076 C 
BRANCH 132 133
ATOM    133  SD  MET d  15    1238.800 364.069-1243.139  0.00  0.00    -0.173 SA
ATOM    134  CE  MET d  15    1237.719 362.639-1243.003  0.00  0.00     0.089 C 
ENDBRANCH 132 133
ENDBRANCH 131 132
ENDBRANCH 111 131
ENDBRANCH 109 111
ENDBRANCH 106 107
BRANCH 106 135
ATOM    135  CB  VAL d  14    1243.980 359.529-1242.018  0.00  0.00     0.009 C 
ATOM    136  CG1 VAL d  14    1244.069 359.111-1243.512  0.00  0.00     0.012 C 
ATOM    137  CG2 VAL d  14    1244.411 358.277-1241.218  0.00  0.00     0.012 C 
ENDBRANCH 106 135
ENDBRANCH 104 106
ENDBRANCH 101 102
BRANCH 101 138
ATOM    138  CB  ARG d  13    1245.340 361.693-1237.281  0.00  0.00     0.036 C 
BRANCH 138 139
ATOM    139  CG  ARG d  13    1246.885 361.846-1237.200  0.00  0.00     0.023 C 
BRANCH 139 140
ATOM    140  CD  ARG d  13    1247.512 360.859-1236.202  0.00  0.00     0.138 C 
BRANCH 140 141
ATOM    141  NE  ARG d  13    1248.989 361.066-1236.151  0.00  0.00    -0.227 N 
ATOM    142  CZ  ARG d  13    1249.837 360.374-1235.396  0.00  0.00     0.665 C 
ATOM    143  NH1 ARG d  13    1249.471 359.410-1234.599  0.00  0.00    -0.235 N 
ATOM    144  NH2 ARG d  13    1251.096 360.673-1235.453  0.00  0.00    -0.235 N 
ATOM    145 11HH ARG d  13    1248.466 359.224-1234.602  0.00  0.00     0.174 HD
ATOM    146 12HH ARG d  13    1250.185 358.926-1234.050  0.00  0.00     0.174 HD
ATOM    147 21HH ARG d  13    1251.364 361.430-1236.084  0.00  0.00     0.174 HD
ATOM    148 22HH ARG d  13    1251.731 360.131-1234.864  0.00  0.00     0.174 HD
ATOM    149  HE  ARG d  13    1249.440 361.788-1236.722  0.00  0.00     0.177 HD
ENDBRANCH 140 141
ENDBRANCH 139 140
ENDBRANCH 138 139
ENDBRANCH 101 138
ENDBRANCH  99 101
ENDBRANCH  96  97
BRANCH  96 150
ATOM    150  CB  GLN d  12    1240.521 363.974-1237.285  0.00  0.00     0.044 C 
BRANCH 150 151
ATOM    151  CG  GLN d  12    1240.882 365.496-1237.255  0.00  0.00     0.105 C 
BRANCH 151 152
ATOM    152  CD  GLN d  12    1240.579 366.310-1235.990  0.00  0.00     0.215 C 
ATOM    153  NE2 GLN d  12    1240.012 365.734-1234.961  0.00  0.00    -0.370 N 
ATOM    154 21HE GLN d  12    1239.905 366.328-1234.138  0.00  0.00     0.159 HD
ATOM    155 22HE GLN d  12    1239.848 364.730-1235.064  0.00  0.00     0.159 HD
ATOM    156  OE1 GLN d  12    1240.881 367.491-1235.913  0.00  0.00    -0.274 OA
ENDBRANCH 151 152
ENDBRANCH 150 151
ENDBRANCH  96 150
ENDBRANCH  94  96
ENDBRANCH  91  92
BRANCH  91 157
ATOM    157  CB  VAL d  11    1238.675 359.461-1239.489  0.00  0.00     0.009 C 
ATOM    158  CG1 VAL d  11    1238.106 360.164-1240.752  0.00  0.00     0.012 C 
ATOM    159  CG2 VAL d  11    1238.150 358.007-1239.562  0.00  0.00     0.012 C 
ENDBRANCH  91 157
ENDBRANCH  89  91
ENDBRANCH  86  87
BRANCH  86 160
ATOM    160  CB  HIS d  10    1242.031 356.928-1236.243  0.00  0.00     0.095 C 
BRANCH 160 161
ATOM    161  CG  HIS d  10    1243.316 356.218-1235.935  0.00  0.00     0.053 A 
ATOM    162  CD2 HIS d  10    1243.697 355.883-1234.642  0.00  0.00     0.116 A 
ATOM    163  NE2 HIS d  10    1244.911 355.251-1234.709  0.00  0.00    -0.359 N 
ATOM    164  CE1 HIS d  10    1245.174 355.253-1236.044  0.00  0.00     0.207 A 
ATOM    165  2HE HIS d  10    1245.478 354.873-1233.936  0.00  0.00     0.166 HD
ATOM    166  ND1 HIS d  10    1244.268 355.812-1236.867  0.00  0.00    -0.247 NA
ENDBRANCH 160 161
ENDBRANCH  86 160
ENDBRANCH   3  86
TORSDOF 68
