@<TRIPOS>MOLECULE
1-11
267 269 16              
SMALL
USER_CHARGES
@<TRIPOS>ATOM
1	   N	89.660	6.645	-59.013	N.3	1	HIS1	-0.416	
2	  CA	90.214	7.964	-58.720	C.3	1	HIS1	-0.058	
3	   C	91.723	7.937	-58.751	C.2	1	HIS1	0.597	
4	   O	92.384	8.796	-59.354	O.2	1	HIS1	-0.568	
5	  CB	89.713	8.341	-57.316	C.3	1	HIS1	-0.007	
6	  CG	88.881	9.590	-57.324	C.2	1	HIS1	0.187	
7	 CD2	87.502	9.572	-57.486	C.2	1	HIS1	-0.221	
8	 ND1	89.359	10.890	-57.175	N.2	1	HIS1	-0.543	
9	 CE1	88.203	11.573	-57.266	C.2	1	HIS1	0.163	
10	 NE2	87.054	10.867	-57.448	N.pl3	1	HIS1	-0.280	
11	   H	90.291	5.793	-59.218	 H	1	HIS1	0.272	
12	  HA	89.894	8.647	-59.525	 H	1	HIS1	0.136	
13	 2HB	90.559	8.500	-56.618	 H	1	HIS1	0.037	
14	 3HB	89.103	7.534	-56.859	 H	1	HIS1	0.037	
15	 2HD	86.910	8.671	-57.618	 H	1	HIS1	0.186	
16	 1HE	88.250	12.651	-57.186	 H	1	HIS1	0.144	
17	 2HE	86.087	11.211	-57.538	 H	1	HIS1	0.334	
18	   N	92.344	6.992	-58.131	N.am	2	ASN2	-0.416	
19	  CA	93.804	6.966	-58.161	C.3	2	ASN2	0.014	
20	   C	94.314	6.929	-59.582	C.2	2	ASN2	0.597	
21	   O	95.218	7.669	-59.970	O.2	2	ASN2	-0.568	
22	  CB	94.318	5.735	-57.360	C.3	2	ASN2	-0.204	
23	  CG	93.877	5.627	-55.896	C.2	2	ASN2	0.713	
24	 ND2	94.478	6.364	-55.001	N.pl3	2	ASN2	-0.919	
25	 OD1	92.967	4.892	-55.543	O.2	2	ASN2	-0.593	
26	   H	91.829	6.281	-57.633	 H	2	ASN2	0.272	
27	  HA	94.180	7.899	-57.702	 H	2	ASN2	0.105	
28	 2HB	95.422	5.687	-57.393	 H	2	ASN2	0.080	
29	 3HB	93.989	4.804	-57.861	 H	2	ASN2	0.080	
30	1HD2	94.011	6.331	-54.091	 H	2	ASN2	0.420	
31	2HD2	95.170	7.031	-55.341	 H	2	ASN2	0.420	
32	   N	93.787	6.097	-60.415	N.am	3	PRO3	-0.255	
33	  CA	94.220	5.997	-61.801	C.3	3	PRO3	-0.027	
34	   C	93.799	7.231	-62.616	C.2	3	PRO3	0.590	
35	   O	94.607	7.797	-63.353	O.2	3	PRO3	-0.575	
36	  CB	93.519	4.708	-62.258	C.3	3	PRO3	-0.007	
37	  CG	92.249	4.661	-61.396	C.3	3	PRO3	0.019	
38	  CD	92.722	5.192	-60.041	C.3	3	PRO3	0.019	
39	  HA	95.306	5.892	-61.857	 H	3	PRO3	0.064	
40	 2HB	94.153	3.853	-62.012	 H	3	PRO3	0.025	
41	 3HB	93.305	4.698	-63.330	 H	3	PRO3	0.025	
42	 2HG	91.830	3.654	-61.321	 H	3	PRO3	0.021	
43	 3HG	91.499	5.338	-61.811	 H	3	PRO3	0.021	
44	 2HD	93.127	4.387	-59.424	 H	3	PRO3	0.039	
45	 3HD	91.929	5.718	-59.504	 H	3	PRO3	0.039	
46	   N	92.592	7.677	-62.527	N.am	4	GLU4	-0.516	
47	  CA	92.211	8.851	-63.308	C.3	4	GLU4	0.040	
48	   C	93.106	10.025	-62.992	C.2	4	GLU4	0.537	
49	   O	93.613	10.723	-63.881	O.2	4	GLU4	-0.582	
50	  CB	90.724	9.208	-63.027	C.3	4	GLU4	0.056	
51	  CG	90.154	10.420	-63.833	C.3	4	GLU4	0.014	
52	  CD	88.728	10.861	-63.562	C.2	4	GLU4	0.805	
53	 OE1	88.018	10.258	-62.733	O.co2	4	GLU4	-0.819	
54	 OE2	88.320	11.855	-64.197	O.co2	4	GLU4	-0.819	
55	   H	91.921	7.222	-61.926	 H	4	GLU4	0.294	
56	  HA	92.329	8.614	-64.382	 H	4	GLU4	0.111	
57	 2HB	90.586	9.411	-61.945	 H	4	GLU4	-0.017	
58	 3HB	90.080	8.329	-63.224	 H	4	GLU4	-0.017	
59	 2HG	90.221	10.244	-64.919	 H	4	GLU4	-0.043	
60	 3HG	90.737	11.336	-63.645	 H	4	GLU4	-0.043	
61	   N	93.349	10.310	-61.757	N.am	5	SER5	-0.416	
62	  CA	94.214	11.446	-61.451	C.3	5	SER5	-0.025	
63	   C	95.564	11.290	-62.110	C.2	5	SER5	0.597	
64	   O	96.095	12.209	-62.735	O.2	5	SER5	-0.568	
65	  CB	94.346	11.642	-59.920	C.3	5	SER5	0.212	
66	  OG	95.096	10.599	-59.288	O.3	5	SER5	-0.655	
67	   H	92.947	9.757	-61.014	 H	5	SER5	0.272	
68	  HA	93.750	12.353	-61.881	 H	5	SER5	0.084	
69	 2HB	93.352	11.726	-59.440	 H	5	SER5	0.035	
70	 3HB	94.847	12.607	-59.710	 H	5	SER5	0.035	
71	  HG	94.612	9.779	-59.416	 H	5	SER5	0.428	
72	   N	96.180	10.160	-62.016	N.am	6	ILE6	-0.416	
73	  CA	97.485	10.010	-62.653	C.3	6	ILE6	-0.060	
74	   C	97.404	10.310	-64.130	C.2	6	ILE6	0.597	
75	   O	98.224	11.047	-64.697	O.2	6	ILE6	-0.568	
76	  CB	98.101	8.579	-62.376	C.3	6	ILE6	0.130	
77	 CG1	98.146	8.170	-60.868	C.3	6	ILE6	-0.043	
78	 CG2	99.535	8.412	-62.967	C.3	6	ILE6	-0.320	
79	 CD1	98.432	6.681	-60.583	C.3	6	ILE6	-0.066	
80	   H	95.765	9.391	-61.509	 H	6	ILE6	0.272	
81	  HA	98.159	10.769	-62.216	 H	6	ILE6	0.087	
82	  HB	97.441	7.845	-62.886	 H	6	ILE6	0.019	
83	2HG1	97.169	8.385	-60.397	 H	6	ILE6	0.024	
84	3HG1	98.864	8.809	-60.319	 H	6	ILE6	0.024	
85	1HG2	99.576	8.566	-64.059	 H	6	ILE6	0.088	
86	2HG2	100.258	9.113	-62.508	 H	6	ILE6	0.088	
87	3HG2	99.936	7.392	-62.818	 H	6	ILE6	0.088	
88	1HD1	97.702	6.019	-61.087	 H	6	ILE6	0.019	
89	2HD1	99.441	6.372	-60.913	 H	6	ILE6	0.019	
90	3HD1	98.374	6.463	-59.501	 H	6	ILE6	0.019	
91	   N	96.452	9.783	-64.824	N.am	7	LEU7	-0.416	
92	  CA	96.373	10.073	-66.252	C.3	7	LEU7	-0.052	
93	   C	96.285	11.561	-66.498	C.2	7	LEU7	0.597	
94	   O	96.989	12.131	-67.345	O.2	7	LEU7	-0.568	
95	  CB	95.167	9.332	-66.895	C.3	7	LEU7	-0.110	
96	  CG	95.109	7.785	-66.770	C.3	7	LEU7	0.353	
97	 CD1	93.912	7.236	-67.559	C.3	7	LEU7	-0.412	
98	 CD2	96.401	7.102	-67.247	C.3	7	LEU7	-0.412	
99	   H	95.771	9.180	-64.385	 H	7	LEU7	0.272	
100	  HA	97.311	9.736	-66.729	 H	7	LEU7	0.092	
101	 2HB	95.126	9.595	-67.971	 H	7	LEU7	0.046	
102	 3HB	94.230	9.747	-66.473	 H	7	LEU7	0.046	
103	  HG	94.957	7.531	-65.700	 H	7	LEU7	-0.036	
104	1HD1	92.956	7.675	-67.214	 H	7	LEU7	0.100	
105	2HD1	93.993	7.444	-68.643	 H	7	LEU7	0.100	
106	3HD1	93.816	6.141	-67.443	 H	7	LEU7	0.100	
107	1HD2	96.659	7.373	-68.287	 H	7	LEU7	0.100	
108	2HD2	97.262	7.382	-66.611	 H	7	LEU7	0.100	
109	3HD2	96.330	5.999	-67.195	 H	7	LEU7	0.100	
110	   N	95.452	12.260	-65.804	N.am	8	ASP8	-0.516	
111	  CA	95.366	13.698	-66.041	C.3	8	ASP8	0.038	
112	   C	96.710	14.359	-65.853	C.2	8	ASP8	0.537	
113	   O	97.164	15.171	-66.674	O.2	8	ASP8	-0.582	
114	  CB	94.296	14.341	-65.114	C.3	8	ASP8	-0.030	
115	  CG	94.062	15.845	-65.320	C.2	8	ASP8	0.799	
116	 OD1	94.105	16.315	-66.476	O.co2	8	ASP8	-0.801	
117	 OD2	93.878	16.564	-64.316	O.co2	8	ASP8	-0.801	
118	   H	94.868	11.819	-65.108	 H	8	ASP8	0.294	
119	  HA	95.066	13.858	-67.094	 H	8	ASP8	0.088	
120	 2HB	94.570	14.185	-64.055	 H	8	ASP8	-0.012	
121	 3HB	93.319	13.848	-65.245	 H	8	ASP8	-0.012	
122	   N	97.408	14.072	-64.806	N.am	9	GLU9	-0.516	
123	  CA	98.708	14.711	-64.625	C.3	9	GLU9	0.040	
124	   C	99.611	14.445	-65.804	C.2	9	GLU9	0.537	
125	   O	100.260	15.348	-66.352	O.2	9	GLU9	-0.582	
126	  CB	99.365	14.200	-63.310	C.3	9	GLU9	0.056	
127	  CG	100.748	14.835	-62.952	C.3	9	GLU9	0.014	
128	  CD	101.472	14.337	-61.716	C.2	9	GLU9	0.805	
129	 OE1	100.969	13.458	-60.989	O.co2	9	GLU9	-0.819	
130	 OE2	102.591	14.841	-61.484	O.co2	9	GLU9	-0.819	
131	   H	97.060	13.414	-64.123	 H	9	GLU9	0.294	
132	  HA	98.558	15.804	-64.551	 H	9	GLU9	0.111	
133	 2HB	99.487	13.099	-63.356	 H	9	GLU9	-0.017	
134	 3HB	98.679	14.363	-62.457	 H	9	GLU9	-0.017	
135	 2HG	100.668	15.929	-62.844	 H	9	GLU9	-0.043	
136	 3HG	101.484	14.669	-63.756	 H	9	GLU9	-0.043	
137	   N	99.711	13.241	-66.256	N.am	10	HIS10	-0.416	
138	  CA	100.585	12.982	-67.397	C.3	10	HIS10	-0.058	
139	   C	100.193	13.831	-68.582	C.2	10	HIS10	0.597	
140	   O	101.031	14.464	-69.243	O.2	10	HIS10	-0.568	
141	  CB	100.429	11.490	-67.732	C.3	10	HIS10	-0.007	
142	  CG	101.722	10.739	-67.609	C.2	10	HIS10	0.187	
143	 CD2	102.126	10.127	-66.430	C.2	10	HIS10	-0.221	
144	 ND1	102.661	10.560	-68.623	N.2	10	HIS10	-0.543	
145	 CE1	103.584	9.840	-67.958	C.2	10	HIS10	0.163	
146	 NE2	103.343	9.537	-66.654	N.pl3	10	HIS10	-0.280	
147	   H	99.193	12.488	-65.827	 H	10	HIS10	0.272	
148	  HA	101.606	13.289	-67.113	 H	10	HIS10	0.136	
149	 2HB	100.049	11.348	-68.763	 H	10	HIS10	0.037	
150	 3HB	99.687	10.989	-67.075	 H	10	HIS10	0.037	
151	 2HD	101.554	10.133	-65.507	 H	10	HIS10	0.186	
152	 1HE	104.469	9.537	-68.501	 H	10	HIS10	0.144	
153	 2HE	103.924	9.001	-65.993	 H	10	HIS10	0.334	
154	   N	98.950	13.901	-68.918	N.am	11	VAL11	-0.416	
155	  CA	98.571	14.722	-70.065	C.3	11	VAL11	-0.087	
156	   C	99.026	16.150	-69.881	C.2	11	VAL11	0.597	
157	   O	99.609	16.774	-70.776	O.2	11	VAL11	-0.568	
158	  CB	97.007	14.654	-70.280	C.3	11	VAL11	0.299	
159	 CG1	96.415	15.618	-71.345	C.3	11	VAL11	-0.319	
160	 CG2	96.489	13.249	-70.668	C.3	11	VAL11	-0.319	
161	   H	98.249	13.395	-68.396	 H	11	VAL11	0.272	
162	  HA	99.081	14.334	-70.965	 H	11	VAL11	0.097	
163	  HB	96.531	14.922	-69.312	 H	11	VAL11	-0.030	
164	1HG1	96.840	15.449	-72.352	 H	11	VAL11	0.079	
165	2HG1	95.315	15.522	-71.432	 H	11	VAL11	0.079	
166	3HG1	96.587	16.682	-71.094	 H	11	VAL11	0.079	
167	1HG2	96.796	12.480	-69.936	 H	11	VAL11	0.079	
168	2HG2	95.382	13.213	-70.702	 H	11	VAL11	0.079	
169	3HG2	96.859	12.923	-71.659	 H	11	VAL11	0.079	
170	   N	98.800	16.738	-68.755	N.am	12	GLN12	-0.416	
171	  CA	99.240	18.118	-68.576	C.3	12	GLN12	-0.003	
172	   C	100.725	18.250	-68.815	C.2	12	GLN12	0.597	
173	   O	101.195	19.140	-69.519	O.2	12	GLN12	-0.568	
174	  CB	98.866	18.576	-67.149	C.3	12	GLN12	-0.004	
175	  CG	99.219	20.056	-66.783	C.3	12	GLN12	-0.064	
176	  CD	98.933	20.563	-65.365	C.2	12	GLN12	0.695	
177	 NE2	98.385	19.767	-64.482	N.pl3	12	GLN12	-0.941	
178	 OE1	99.230	21.700	-65.029	O.2	12	GLN12	-0.609	
179	   H	98.327	16.250	-68.008	 H	12	GLN12	0.272	
180	  HA	98.724	18.754	-69.320	 H	12	GLN12	0.085	
181	 2HB	99.358	17.898	-66.420	 H	12	GLN12	0.017	
182	 3HB	97.779	18.426	-66.998	 H	12	GLN12	0.017	
183	 2HG	98.725	20.749	-67.489	 H	12	GLN12	0.035	
184	 3HG	100.299	20.240	-66.929	 H	12	GLN12	0.035	
185	1HE2	98.288	20.161	-63.545	 H	12	GLN12	0.425	
186	2HE2	98.225	18.810	-64.805	 H	12	GLN12	0.425	
187	   N	101.525	17.402	-68.262	N.am	13	ARG13	-0.348	
188	  CA	102.961	17.530	-68.493	C.3	13	ARG13	-0.264	
189	   C	103.276	17.489	-69.970	C.2	13	ARG13	0.734	
190	   O	104.030	18.303	-70.498	O.2	13	ARG13	-0.589	
191	  CB	103.696	16.394	-67.725	C.3	13	ARG13	-0.001	
192	  CG	105.241	16.538	-67.635	C.3	13	ARG13	0.039	
193	  CD	105.889	15.358	-66.892	C.3	13	ARG13	0.049	
194	  NE	107.366	15.561	-66.818	N.pl3	13	ARG13	-0.530	
195	  CZ	108.229	14.725	-66.249	C.cat	13	ARG13	0.808	
196	 NH1	107.882	13.604	-65.682	N.pl3	13	ARG13	-0.863	
197	 NH2	109.486	15.040	-66.256	N.pl3	13	ARG13	-0.863	
198	   H	101.164	16.661	-67.678	 H	13	ARG13	0.275	
199	  HA	103.283	18.517	-68.110	 H	13	ARG13	0.156	
200	 2HB	103.431	15.421	-68.189	 H	13	ARG13	0.033	
201	 3HB	103.286	16.327	-66.697	 H	13	ARG13	0.033	
202	 2HG	105.488	17.496	-67.132	 H	13	ARG13	0.029	
203	 3HG	105.676	16.614	-68.652	 H	13	ARG13	0.029	
204	 2HD	105.645	14.411	-67.422	 H	13	ARG13	0.069	
205	 3HD	105.448	15.272	-65.876	 H	13	ARG13	0.069	
206	  HE	107.804	16.396	-67.220	 H	13	ARG13	0.346	
207	1HH1	106.877	13.415	-65.712	 H	13	ARG13	0.448	
208	2HH1	108.606	13.017	-65.266	 H	13	ARG13	0.448	
209	1HH2	109.740	15.922	-66.706	 H	13	ARG13	0.448	
210	2HH2	110.133	14.387	-65.813	 H	13	ARG13	0.448	
211	   N	102.737	16.572	-70.699	N.am	14	VAL14	-0.416	
212	  CA	103.042	16.532	-72.127	C.3	14	VAL14	-0.087	
213	   C	102.691	17.842	-72.791	C.2	14	VAL14	0.597	
214	   O	103.468	18.415	-73.565	O.2	14	VAL14	-0.568	
215	  CB	102.270	15.333	-72.806	C.3	14	VAL14	0.299	
216	 CG1	102.337	15.259	-74.357	C.3	14	VAL14	-0.319	
217	 CG2	102.721	13.937	-72.313	C.3	14	VAL14	-0.319	
218	   H	102.114	15.891	-70.289	 H	14	VAL14	0.272	
219	  HA	104.130	16.386	-72.255	 H	14	VAL14	0.097	
220	  HB	101.196	15.442	-72.542	 H	14	VAL14	-0.030	
221	1HG1	103.373	15.169	-74.732	 H	14	VAL14	0.079	
222	2HG1	101.765	14.402	-74.762	 H	14	VAL14	0.079	
223	3HG1	101.893	16.150	-74.841	 H	14	VAL14	0.079	
224	1HG2	102.650	13.847	-71.213	 H	14	VAL14	0.079	
225	2HG2	102.086	13.129	-72.726	 H	14	VAL14	0.079	
226	3HG2	103.766	13.709	-72.593	 H	14	VAL14	0.079	
227	   N	101.545	18.380	-72.544	N.am	15	MET15	-0.416	
228	  CA	101.204	19.647	-73.185	C.3	15	MET15	-0.024	
229	   C	102.230	20.708	-72.869	C.2	15	MET15	0.597	
230	   O	102.714	21.436	-73.749	O.2	15	MET15	-0.568	
231	  CB	99.785	20.098	-72.742	C.3	15	MET15	0.034	
232	  CG	98.625	19.158	-73.135	C.3	15	MET15	0.002	
233	  SD	97.049	19.963	-72.807	S.3	15	MET15	-0.274	
234	  CE	95.978	18.530	-72.977	C.3	15	MET15	-0.054	
235	   H	100.893	17.933	-71.916	 H	15	MET15	0.272	
236	  HA	101.215	19.501	-74.282	 H	15	MET15	0.088	
237	 2HB	99.568	21.096	-73.168	 H	15	MET15	0.024	
238	 3HB	99.765	20.248	-71.643	 H	15	MET15	0.024	
239	 2HG	98.685	18.219	-72.553	 H	15	MET15	0.044	
240	 3HG	98.675	18.874	-74.202	 H	15	MET15	0.044	
241	 1HE	96.111	18.051	-73.964	 H	15	MET15	0.068	
242	 2HE	96.205	17.784	-72.195	 H	15	MET15	0.068	
243	 3HE	94.919	18.824	-72.875	 H	15	MET15	0.068	
244	   N	102.616	20.862	-71.648	N.am	16	ARG16	-0.348	
245	  CA	103.608	21.889	-71.343	C.3	16	ARG16	-0.264	
246	   C	104.869	21.677	-72.147	C.2	16	ARG16	0.734	
247	   O	104.979	20.758	-72.956	O.2	16	ARG16	-0.589	
248	  CB	103.900	21.866	-69.815	C.3	16	ARG16	-0.001	
249	  CG	104.723	23.068	-69.273	C.3	16	ARG16	0.039	
250	  CD	104.995	22.949	-67.765	C.3	16	ARG16	0.049	
251	  NE	105.768	24.137	-67.299	N.pl3	16	ARG16	-0.530	
252	  CZ	106.176	24.348	-66.051	C.cat	16	ARG16	0.808	
253	 NH1	105.950	23.522	-65.068	N.pl3	16	ARG16	-0.863	
254	 NH2	106.835	25.434	-65.794	N.pl3	16	ARG16	-0.863	
255	   H	102.237	20.281	-70.913	 H	16	ARG16	0.275	
256	  HA	103.186	22.869	-71.634	 H	16	ARG16	0.156	
257	 2HB	104.408	20.912	-69.564	 H	16	ARG16	0.033	
258	 3HB	102.939	21.817	-69.263	 H	16	ARG16	0.033	
259	 2HG	104.181	24.010	-69.497	 H	16	ARG16	0.029	
260	 3HG	105.688	23.143	-69.815	 H	16	ARG16	0.029	
261	 2HD	105.555	22.009	-67.565	 H	16	ARG16	0.069	
262	 3HD	104.031	22.862	-67.219	 H	16	ARG16	0.069	
263	  HE	106.031	24.884	-67.950	 H	16	ARG16	0.346	
264	1HH1	105.427	22.686	-65.338	 H	16	ARG16	0.448	
265	2HH1	106.296	23.757	-64.137	 H	16	ARG16	0.448	
266	1HH2	107.003	26.069	-66.576	 H	16	ARG16	0.448	
267	2HH2	107.138	25.579	-64.829	 H	16	ARG16	0.448	
@<TRIPOS>BOND
1 1 2 1
2 1 11 1
3 2 3 1
4 2 5 1
5 2 12 1
6 3 4 2
7 3 18 1
8 5 6 1
9 6 7 2
10 7 10 1
11 6 8 1
12 8 9 2
13 9 10 1
14 5 13 1
15 5 14 1
16 7 15 1
17 9 16 1
18 10 17 1
19 18 19 1
20 18 26 1
21 19 20 1
22 19 22 1
23 19 27 1
24 20 21 2
25 20 32 1
26 22 23 1
27 23 24 1
28 23 25 2
29 22 28 1
30 22 29 1
31 24 30 1
32 24 31 1
33 32 33 1
34 32 38 1
35 33 34 1
36 33 36 1
37 33 39 1
38 34 35 2
39 34 46 1
40 36 37 1
41 37 38 1
42 36 40 1
43 36 41 1
44 37 42 1
45 37 43 1
46 38 44 1
47 38 45 1
48 46 47 1
49 46 55 1
50 47 48 1
51 47 50 1
52 47 56 1
53 48 49 2
54 48 61 1
55 50 51 1
56 51 52 1
57 52 53 2
58 52 54 1
59 50 57 1
60 50 58 1
61 51 59 1
62 51 60 1
63 61 62 1
64 61 67 1
65 62 63 1
66 62 65 1
67 62 68 1
68 63 64 2
69 63 72 1
70 65 66 1
71 65 69 1
72 65 70 1
73 66 71 1
74 72 73 1
75 72 80 1
76 73 74 1
77 73 76 1
78 73 81 1
79 74 75 2
80 74 91 1
81 76 77 1
82 76 78 1
83 77 79 1
84 76 82 1
85 77 83 1
86 77 84 1
87 78 85 1
88 78 86 1
89 78 87 1
90 79 88 1
91 79 89 1
92 79 90 1
93 91 92 1
94 91 99 1
95 92 93 1
96 92 95 1
97 92 100 1
98 93 94 2
99 93 110 1
100 95 96 1
101 96 97 1
102 96 98 1
103 95 101 1
104 95 102 1
105 96 103 1
106 97 104 1
107 97 105 1
108 97 106 1
109 98 107 1
110 98 108 1
111 98 109 1
112 110 111 1
113 110 118 1
114 111 112 1
115 111 114 1
116 111 119 1
117 112 113 2
118 112 122 1
119 114 115 1
120 115 116 2
121 115 117 1
122 114 120 1
123 114 121 1
124 122 123 1
125 122 131 1
126 123 124 1
127 123 126 1
128 123 132 1
129 124 125 2
130 124 137 1
131 126 127 1
132 127 128 1
133 128 129 2
134 128 130 1
135 126 133 1
136 126 134 1
137 127 135 1
138 127 136 1
139 137 138 1
140 137 147 1
141 138 139 1
142 138 141 1
143 138 148 1
144 139 140 2
145 139 154 1
146 141 142 1
147 142 143 2
148 143 146 1
149 142 144 1
150 144 145 2
151 145 146 1
152 141 149 1
153 141 150 1
154 143 151 1
155 145 152 1
156 146 153 1
157 154 155 1
158 154 161 1
159 155 156 1
160 155 158 1
161 155 162 1
162 156 157 2
163 156 170 1
164 158 159 1
165 158 160 1
166 158 163 1
167 159 164 1
168 159 165 1
169 159 166 1
170 160 167 1
171 160 168 1
172 160 169 1
173 170 171 1
174 170 179 1
175 171 172 1
176 171 174 1
177 171 180 1
178 172 173 2
179 172 187 1
180 174 175 1
181 175 176 1
182 176 177 1
183 176 178 2
184 174 181 1
185 174 182 1
186 175 183 1
187 175 184 1
188 177 185 1
189 177 186 1
190 187 188 1
191 187 198 1
192 188 189 1
193 188 191 1
194 188 199 1
195 189 190 2
196 189 211 1
197 191 192 1
198 192 193 1
199 193 194 1
200 194 195 1
201 195 196 2
202 195 197 1
203 191 200 1
204 191 201 1
205 192 202 1
206 192 203 1
207 193 204 1
208 193 205 1
209 194 206 1
210 196 207 1
211 196 208 1
212 197 209 1
213 197 210 1
214 211 212 1
215 211 218 1
216 212 213 1
217 212 215 1
218 212 219 1
219 213 214 2
220 213 227 1
221 215 216 1
222 215 217 1
223 215 220 1
224 216 221 1
225 216 222 1
226 216 223 1
227 217 224 1
228 217 225 1
229 217 226 1
230 227 228 1
231 227 235 1
232 228 229 1
233 228 231 1
234 228 236 1
235 229 230 2
236 229 244 1
237 231 232 1
238 232 233 1
239 233 234 1
240 231 237 1
241 231 238 1
242 232 239 1
243 232 240 1
244 234 241 1
245 234 242 1
246 234 243 1
247 244 245 1
248 244 255 1
249 245 246 1
250 245 248 1
251 245 256 1
252 246 247 2
253 248 249 1
254 249 250 1
255 250 251 1
256 251 252 1
257 252 253 2
258 252 254 1
259 248 257 1
260 248 258 1
261 249 259 1
262 249 260 1
263 250 261 1
264 250 262 1
265 251 263 1
266 253 264 1
267 253 265 1
268 254 266 1
269 254 267 1
@<TRIPOS>SUBSTRUCTURE
1	HIS1	1	RESIDUE	1 ****	HIS
2	ASN2	18	RESIDUE	1 ****	ASN
3	PRO3	32	RESIDUE	1 ****	PRO
4	GLU4	46	RESIDUE	1 ****	GLU
5	SER5	61	RESIDUE	1 ****	SER
6	ILE6	72	RESIDUE	1 ****	ILE
7	LEU7	91	RESIDUE	1 ****	LEU
8	ASP8	110	RESIDUE	1 ****	ASP
9	GLU9	122	RESIDUE	1 ****	GLU
10	HIS10	137	RESIDUE	1 ****	HIS
11	VAL11	154	RESIDUE	1 ****	VAL
12	GLN12	170	RESIDUE	1 ****	GLN
13	ARG13	187	RESIDUE	1 ****	ARG
14	VAL14	211	RESIDUE	1 ****	VAL
15	MET15	227	RESIDUE	1 ****	MET
16	ARG16	244	RESIDUE	1 ****	ARG
