@<TRIPOS>MOLECULE
7-2
260 262 16              
SMALL
USER_CHARGES
@<TRIPOS>ATOM
1	   N	1033.954	287.838	-1013.395	N.3	1	GLU1	-0.516	
2	  CA	1034.513	289.187	-1013.395	C.3	1	GLU1	0.040	
3	   C	1036.022	289.147	-1013.395	C.2	1	GLU1	0.537	
4	   O	1036.698	289.846	-1014.163	O.2	1	GLU1	-0.582	
5	  CB	1033.990	289.972	-1012.158	C.3	1	GLU1	0.056	
6	  CG	1034.465	291.457	-1012.047	C.3	1	GLU1	0.014	
7	  CD	1034.041	292.261	-1010.832	C.2	1	GLU1	0.805	
8	 OE1	1033.313	291.759	-1009.954	O.co2	1	GLU1	-0.819	
9	 OE2	1034.471	293.431	-1010.760	O.co2	1	GLU1	-0.819	
10	   H	1034.581	286.959	-1013.395	 H	1	GLU1	0.294	
11	  HA	1034.187	289.705	-1014.315	 H	1	GLU1	0.111	
12	 2HB	1034.279	289.441	-1011.228	 H	1	GLU1	-0.017	
13	 3HB	1032.883	289.962	-1012.145	 H	1	GLU1	-0.017	
14	 2HG	1034.155	292.042	-1012.928	 H	1	GLU1	-0.043	
15	 3HG	1035.565	291.524	-1012.018	 H	1	GLU1	-0.043	
16	   N	1036.626	288.361	-1012.569	N.am	2	ASN2	-0.416	
17	  CA	1038.086	288.322	-1012.569	C.3	2	ASN2	0.014	
18	   C	1038.617	287.967	-1013.938	C.2	2	ASN2	0.597	
19	   O	1039.532	288.597	-1014.467	O.2	2	ASN2	-0.568	
20	  CB	1038.578	287.299	-1011.505	C.3	2	ASN2	-0.204	
21	  CG	1038.115	287.523	-1010.062	C.2	2	ASN2	0.713	
22	 ND2	1038.709	288.438	-1009.344	N.pl3	2	ASN2	-0.919	
23	 OD1	1037.194	286.889	-1009.568	O.2	2	ASN2	-0.593	
24	   H	1036.098	287.781	-1011.933	 H	2	ASN2	0.272	
25	  HA	1038.463	289.332	-1012.324	 H	2	ASN2	0.105	
26	 2HB	1039.682	287.240	-1011.509	 H	2	ASN2	0.080	
27	 3HB	1038.249	286.281	-1011.791	 H	2	ASN2	0.080	
28	1HD2	1038.228	288.611	-1008.457	 H	2	ASN2	0.420	
29	2HD2	1039.411	289.010	-1009.813	 H	2	ASN2	0.420	
30	   N	1038.095	286.972	-1014.572	N.am	3	PRO3	-0.255	
31	  CA	1038.547	286.562	-1015.893	C.3	3	PRO3	-0.027	
32	   C	1038.149	287.586	-1016.970	C.2	3	PRO3	0.590	
33	   O	1038.972	287.969	-1017.802	O.2	3	PRO3	-0.575	
34	  CB	1037.843	285.208	-1016.063	C.3	3	PRO3	-0.007	
35	  CG	1036.560	285.360	-1015.233	C.3	3	PRO3	0.019	
36	  CD	1037.018	286.178	-1014.023	C.3	3	PRO3	0.019	
37	  HA	1039.633	286.443	-1015.907	 H	3	PRO3	0.064	
38	 2HB	1038.466	284.426	-1015.622	 H	3	PRO3	0.025	
39	 3HB	1037.645	284.959	-1017.108	 H	3	PRO3	0.025	
40	 2HG	1036.132	284.397	-1014.941	 H	3	PRO3	0.021	
41	 3HG	1035.822	285.931	-1015.800	 H	3	PRO3	0.021	
42	 2HD	1037.407	285.529	-1013.235	 H	3	PRO3	0.039	
43	 3HD	1036.221	286.814	-1013.630	 H	3	PRO3	0.039	
44	   N	1036.944	288.046	-1017.003	N.am	4	GLU4	-0.516	
45	  CA	1036.584	289.017	-1018.033	C.3	4	GLU4	0.040	
46	   C	1037.483	290.228	-1017.971	C.2	4	GLU4	0.537	
47	   O	1038.010	290.707	-1018.986	O.2	4	GLU4	-0.582	
48	  CB	1035.096	289.435	-1017.862	C.3	4	GLU4	0.056	
49	  CG	1034.548	290.439	-1018.928	C.3	4	GLU4	0.014	
50	  CD	1033.121	290.935	-1018.784	C.2	4	GLU4	0.805	
51	 OE1	1032.395	290.537	-1017.853	O.co2	4	GLU4	-0.819	
52	 OE2	1032.732	291.764	-1019.633	O.co2	4	GLU4	-0.819	
53	   H	1036.260	287.739	-1016.326	 H	4	GLU4	0.294	
54	  HA	1036.715	288.546	-1019.024	 H	4	GLU4	0.111	
55	 2HB	1034.943	289.875	-1016.855	 H	4	GLU4	-0.017	
56	 3HB	1034.448	288.537	-1017.868	 H	4	GLU4	-0.017	
57	 2HG	1034.629	290.024	-1019.946	 H	4	GLU4	-0.043	
58	 3HG	1035.136	291.371	-1018.939	 H	4	GLU4	-0.043	
59	   N	1037.711	290.780	-1016.828	N.am	5	SER5	-0.416	
60	  CA	1038.580	291.952	-1016.770	C.3	5	SER5	-0.025	
61	   C	1039.939	291.646	-1017.355	C.2	5	SER5	0.597	
62	   O	1040.486	292.400	-1018.160	O.2	5	SER5	-0.568	
63	  CB	1038.692	292.484	-1015.319	C.3	5	SER5	0.212	
64	  OG	1039.423	291.605	-1014.458	O.3	5	SER5	-0.655	
65	   H	1037.294	290.409	-1015.987	 H	5	SER5	0.272	
66	  HA	1038.131	292.742	-1017.399	 H	5	SER5	0.084	
67	 2HB	1037.692	292.678	-1014.886	 H	5	SER5	0.035	
68	 3HB	1039.197	293.470	-1015.321	 H	5	SER5	0.035	
69	  HG	1038.935	290.780	-1014.408	 H	5	SER5	0.428	
70	   N	1040.544	290.563	-1017.001	N.am	6	ILE6	-0.416	
71	  CA	1041.857	290.268	-1017.568	C.3	6	ILE6	-0.060	
72	   C	1041.800	290.231	-1019.075	C.2	6	ILE6	0.597	
73	   O	1042.635	290.819	-1019.779	O.2	6	ILE6	-0.568	
74	  CB	1042.456	288.932	-1016.968	C.3	6	ILE6	0.130	
75	 CG1	1042.476	288.870	-1015.407	C.3	6	ILE6	-0.043	
76	 CG2	1043.898	288.630	-1017.483	C.3	6	ILE6	-0.320	
77	 CD1	1042.746	287.480	-1014.792	C.3	6	ILE6	-0.066	
78	   H	1040.115	289.929	-1016.342	 H	6	ILE6	0.272	
79	  HA	1042.531	291.103	-1017.300	 H	6	ILE6	0.087	
80	  HB	1041.799	288.106	-1017.312	 H	6	ILE6	0.019	
81	2HG1	1041.494	289.190	-1015.011	 H	6	ILE6	0.024	
82	3HG1	1043.192	289.612	-1015.002	 H	6	ILE6	0.024	
83	1HG2	1043.957	288.537	-1018.581	 H	6	ILE6	0.088	
84	2HG2	1044.620	289.412	-1017.181	 H	6	ILE6	0.088	
85	3HG2	1044.288	287.668	-1017.104	 H	6	ILE6	0.088	
86	1HD1	1042.017	286.726	-1015.146	 H	6	ILE6	0.019	
87	2HD1	1043.756	287.102	-1015.028	 H	6	ILE6	0.019	
88	3HD1	1042.669	287.510	-1013.689	 H	6	ILE6	0.019	
89	   N	1040.854	289.568	-1019.649	N.am	7	PRO7	-0.255	
90	  CA	1040.726	289.480	-1021.096	C.3	7	PRO7	-0.027	
91	   C	1040.291	290.822	-1021.708	C.2	7	PRO7	0.590	
92	   O	1040.872	291.276	-1022.695	O.2	7	PRO7	-0.575	
93	  CB	1039.668	288.377	-1021.254	C.3	7	PRO7	-0.007	
94	  CG	1038.814	288.511	-1019.984	C.3	7	PRO7	0.019	
95	  CD	1039.841	288.854	-1018.903	C.3	7	PRO7	0.019	
96	  HA	1041.674	289.179	-1021.547	 H	7	PRO7	0.064	
97	 2HB	1040.166	287.405	-1021.252	 H	7	PRO7	0.025	
98	 3HB	1039.083	288.478	-1022.171	 H	7	PRO7	0.025	
99	 2HG	1038.261	287.597	-1019.753	 H	7	PRO7	0.021	
100	 3HG	1038.114	289.341	-1020.099	 H	7	PRO7	0.021	
101	 2HD	1040.274	287.949	-1018.472	 H	7	PRO7	0.039	
102	 3HD	1039.416	289.482	-1018.115	 H	7	PRO7	0.039	
103	   N	1039.312	291.478	-1021.185	N.am	8	ASP8	-0.516	
104	  CA	1038.913	292.751	-1021.779	C.3	8	ASP8	0.038	
105	   C	1040.073	293.715	-1021.823	C.2	8	ASP8	0.537	
106	   O	1040.350	294.364	-1022.843	O.2	8	ASP8	-0.582	
107	  CB	1037.710	293.362	-1021.007	C.3	8	ASP8	-0.030	
108	  CG	1037.151	294.671	-1021.583	C.2	8	ASP8	0.799	
109	 OD1	1037.110	294.822	-1022.821	O.co2	8	ASP8	-0.801	
110	 OD2	1036.795	295.568	-1020.790	O.co2	8	ASP8	-0.801	
111	   H	1038.828	291.116	-1020.375	 H	8	ASP8	0.294	
112	  HA	1038.604	292.562	-1022.825	 H	8	ASP8	0.088	
113	 2HB	1037.993	293.550	-1019.955	 H	8	ASP8	-0.012	
114	 3HB	1036.870	292.650	-1020.966	 H	8	ASP8	-0.012	
115	   N	1040.798	293.870	-1020.767	N.am	9	GLU9	-0.516	
116	  CA	1041.920	294.803	-1020.810	C.3	9	GLU9	0.040	
117	   C	1042.881	294.443	-1021.917	C.2	9	GLU9	0.537	
118	   O	1043.322	295.292	-1022.705	O.2	9	GLU9	-0.582	
119	  CB	1042.651	294.808	-1019.436	C.3	9	GLU9	0.056	
120	  CG	1043.851	295.801	-1019.310	C.3	9	GLU9	0.014	
121	  CD	1044.646	295.812	-1018.018	C.2	9	GLU9	0.805	
122	 OE1	1044.337	295.064	-1017.070	O.co2	9	GLU9	-0.819	
123	 OE2	1045.620	296.591	-1017.969	O.co2	9	GLU9	-0.819	
124	   H	1040.593	293.353	-1019.924	 H	9	GLU9	0.294	
125	  HA	1041.530	295.816	-1021.014	 H	9	GLU9	0.111	
126	 2HB	1043.015	293.786	-1019.202	 H	9	GLU9	-0.017	
127	 3HB	1041.930	295.033	-1018.626	 H	9	GLU9	-0.017	
128	 2HG	1043.529	296.840	-1019.484	 H	9	GLU9	-0.043	
129	 3HG	1044.620	295.597	-1020.073	 H	9	GLU9	-0.043	
130	   N	1043.254	293.215	-1022.047	N.am	10	HIS10	-0.416	
131	  CA	1044.183	292.867	-1023.118	C.3	10	HIS10	-0.058	
132	   C	1043.634	293.272	-1024.465	C.2	10	HIS10	0.597	
133	   O	1044.322	293.878	-1025.300	O.2	10	HIS10	-0.568	
134	  CB	1044.368	291.342	-1023.051	C.3	10	HIS10	-0.007	
135	  CG	1045.794	290.952	-1022.792	C.2	10	HIS10	0.187	
136	 CD2	1046.302	290.770	-1021.513	C.2	10	HIS10	-0.221	
137	 ND1	1046.767	290.725	-1023.763	N.2	10	HIS10	-0.543	
138	 CE1	1047.814	290.422	-1022.974	C.2	10	HIS10	0.163	
139	 NE2	1047.624	290.423	-1021.627	N.pl3	10	HIS10	-0.280	
140	   H	1042.908	292.505	-1021.418	 H	10	HIS10	0.272	
141	  HA	1045.105	293.453	-1022.964	 H	10	HIS10	0.136	
142	 2HB	1044.048	290.857	-1023.995	 H	10	HIS10	0.037	
143	 3HB	1043.744	290.880	-1022.258	 H	10	HIS10	0.037	
144	 2HD	1045.726	290.891	-1020.600	 H	10	HIS10	0.186	
145	 1HE	1048.755	290.190	-1023.457	 H	10	HIS10	0.144	
146	 2HE	1048.297	290.219	-1020.875	 H	10	HIS10	0.334	
147	   N	1042.412	292.978	-1024.756	N.am	11	VAL11	-0.416	
148	  CA	1041.881	293.369	-1026.059	C.3	11	VAL11	-0.087	
149	   C	1042.004	294.859	-1026.268	C.2	11	VAL11	0.597	
150	   O	1042.450	295.341	-1027.317	O.2	11	VAL11	-0.568	
151	  CB	1040.375	292.907	-1026.185	C.3	11	VAL11	0.299	
152	 CG1	1039.603	293.406	-1027.437	C.3	11	VAL11	-0.319	
153	 CG2	1040.189	291.370	-1026.177	C.3	11	VAL11	-0.319	
154	   H	1041.832	292.484	-1024.093	 H	11	VAL11	0.272	
155	  HA	1042.480	292.881	-1026.849	 H	11	VAL11	0.097	
156	  HB	1039.835	293.306	-1025.300	 H	11	VAL11	-0.030	
157	1HG1	1040.073	293.079	-1028.383	 H	11	VAL11	0.079	
158	2HG1	1038.553	293.053	-1027.452	 H	11	VAL11	0.079	
159	3HG1	1039.530	294.510	-1027.475	 H	11	VAL11	0.079	
160	1HG2	1040.646	290.905	-1025.285	 H	11	VAL11	0.079	
161	2HG2	1039.119	291.086	-1026.155	 H	11	VAL11	0.079	
162	3HG2	1040.640	290.887	-1027.065	 H	11	VAL11	0.079	
163	   N	1041.634	295.656	-1025.323	N.am	12	GLN12	-0.416	
164	  CA	1041.752	297.096	-1025.524	C.3	12	GLN12	-0.003	
165	   C	1043.175	297.483	-1025.849	C.2	12	GLN12	0.597	
166	   O	1043.448	298.240	-1026.778	O.2	12	GLN12	-0.568	
167	  CB	1041.260	297.816	-1024.248	C.3	12	GLN12	-0.004	
168	  CG	1041.270	299.380	-1024.291	C.3	12	GLN12	-0.064	
169	  CD	1040.853	300.164	-1023.040	C.2	12	GLN12	0.695	
170	 NE2	1040.480	299.524	-1021.961	N.pl3	12	GLN12	-0.941	
171	 OE1	1040.884	301.385	-1023.021	O.2	12	GLN12	-0.609	
172	   H	1041.267	295.287	-1024.457	 H	12	GLN12	0.272	
173	  HA	1041.122	297.388	-1026.384	 H	12	GLN12	0.085	
174	 2HB	1041.878	297.476	-1023.391	 H	12	GLN12	0.017	
175	 3HB	1040.232	297.476	-1024.019	 H	12	GLN12	0.017	
176	 2HG	1040.647	299.741	-1025.130	 H	12	GLN12	0.035	
177	 3HG	1042.284	299.752	-1024.523	 H	12	GLN12	0.035	
178	1HE2	1040.281	300.118	-1021.154	 H	12	GLN12	0.425	
179	2HE2	1040.542	298.506	-1022.020	 H	12	GLN12	0.425	
180	   N	1044.134	297.005	-1025.130	N.am	13	ARG13	-0.348	
181	  CA	1045.509	297.380	-1025.445	C.3	13	ARG13	-0.264	
182	   C	1045.852	297.026	-1026.873	C.2	13	ARG13	0.734	
183	   O	1046.416	297.820	-1027.623	O.2	13	ARG13	-0.589	
184	  CB	1046.464	296.672	-1024.442	C.3	13	ARG13	-0.001	
185	  CG	1047.937	297.170	-1024.455	C.3	13	ARG13	0.039	
186	  CD	1048.817	296.395	-1023.461	C.3	13	ARG13	0.049	
187	  NE	1050.211	296.929	-1023.502	N.pl3	13	ARG13	-0.530	
188	  CZ	1051.228	296.480	-1022.773	C.cat	13	ARG13	0.808	
189	 NH1	1051.128	295.497	-1021.923	N.pl3	13	ARG13	-0.863	
190	 NH2	1052.383	297.050	-1022.913	N.pl3	13	ARG13	-0.863	
191	   H	1043.936	296.381	-1024.361	 H	13	ARG13	0.275	
192	  HA	1045.597	298.478	-1025.342	 H	13	ARG13	0.156	
193	 2HB	1046.430	295.579	-1024.628	 H	13	ARG13	0.033	
194	 3HB	1046.061	296.787	-1023.415	 H	13	ARG13	0.033	
195	 2HG	1047.956	298.256	-1024.227	 H	13	ARG13	0.029	
196	 3HG	1048.362	297.072	-1025.474	 H	13	ARG13	0.029	
197	 2HD	1048.799	295.313	-1023.719	 H	13	ARG13	0.069	
198	 3HD	1048.389	296.482	-1022.439	 H	13	ARG13	0.069	
199	  HE	1050.459	297.706	-1024.123	 H	13	ARG13	0.346	
200	1HH1	1050.192	295.091	-1021.862	 H	13	ARG13	0.448	
201	2HH1	1051.958	295.211	-1021.400	 H	13	ARG13	0.448	
202	1HH2	1052.443	297.818	-1023.584	 H	13	ARG13	0.448	
203	2HH2	1053.152	296.692	-1022.343	 H	13	ARG13	0.448	
204	   N	1045.543	295.856	-1027.319	N.am	14	VAL14	-0.416	
205	  CA	1045.874	295.514	-1028.699	C.3	14	VAL14	-0.087	
206	   C	1045.253	296.496	-1029.663	C.2	14	VAL14	0.597	
207	   O	1045.897	297.004	-1030.590	O.2	14	VAL14	-0.568	
208	  CB	1045.401	294.040	-1029.015	C.3	14	VAL14	0.299	
209	 CG1	1045.510	293.583	-1030.496	C.3	14	VAL14	-0.319	
210	 CG2	1046.141	292.955	-1028.198	C.3	14	VAL14	-0.319	
211	   H	1045.080	295.186	-1026.722	 H	14	VAL14	0.272	
212	  HA	1046.970	295.582	-1028.830	 H	14	VAL14	0.097	
213	  HB	1044.325	293.976	-1028.744	 H	14	VAL14	-0.030	
214	1HG1	1046.547	293.628	-1030.877	 H	14	VAL14	0.079	
215	2HG1	1045.150	292.546	-1030.643	 H	14	VAL14	0.079	
216	3HG1	1044.888	294.197	-1031.174	 H	14	VAL14	0.079	
217	1HG2	1046.073	293.141	-1027.110	 H	14	VAL14	0.079	
218	2HG2	1045.709	291.949	-1028.362	 H	14	VAL14	0.079	
219	3HG2	1047.217	292.897	-1028.453	 H	14	VAL14	0.079	
220	   N	1044.012	296.816	-1029.517	N.am	15	MET15	-0.416	
221	  CA	1043.410	297.765	-1030.448	C.3	15	MET15	-0.024	
222	   C	1044.169	299.070	-1030.458	C.2	15	MET15	0.597	
223	   O	1044.494	299.632	-1031.515	O.2	15	MET15	-0.568	
224	  CB	1041.919	297.994	-1030.078	C.3	15	MET15	0.034	
225	  CG	1041.004	296.753	-1030.167	C.3	15	MET15	0.002	
226	  SD	1039.282	297.251	-1029.993	S.3	15	MET15	-0.274	
227	  CE	1038.559	295.624	-1029.745	C.3	15	MET15	-0.054	
228	   H	1043.464	296.415	-1028.768	 H	15	MET15	0.272	
229	  HA	1043.473	297.345	-1031.469	 H	15	MET15	0.088	
230	 2HB	1041.493	298.774	-1030.737	 H	15	MET15	0.024	
231	 3HB	1041.845	298.416	-1029.055	 H	15	MET15	0.024	
232	 2HG	1041.260	296.034	-1029.366	 H	15	MET15	0.044	
233	 3HG	1041.134	296.220	-1031.127	 H	15	MET15	0.044	
234	 1HE	1038.813	294.946	-1030.579	 H	15	MET15	0.068	
235	 2HE	1038.932	295.176	-1028.807	 H	15	MET15	0.068	
236	 3HE	1037.460	295.695	-1029.679	 H	15	MET15	0.068	
237	   N	1044.488	299.617	-1029.334	N.am	16	ARG16	-0.348	
238	  CA	1045.222	300.879	-1029.345	C.3	16	ARG16	-0.264	
239	   C	1046.513	300.747	-1030.118	C.2	16	ARG16	0.734	
240	   O	1046.838	299.697	-1030.667	O.2	16	ARG16	-0.589	
241	  CB	1045.484	301.319	-1027.876	C.3	16	ARG16	-0.001	
242	  CG	1046.009	302.771	-1027.696	C.3	16	ARG16	0.039	
243	  CD	1046.274	303.110	-1026.220	C.3	16	ARG16	0.049	
244	  NE	1046.755	304.519	-1026.108	N.pl3	16	ARG16	-0.530	
245	  CZ	1047.083	305.131	-1024.974	C.cat	16	ARG16	0.808	
246	 NH1	1047.029	304.560	-1023.803	N.pl3	16	ARG16	-0.863	
247	 NH2	1047.480	306.363	-1025.032	N.pl3	16	ARG16	-0.863	
248	   H	1044.234	299.178	-1028.460	 H	16	ARG16	0.275	
249	  HA	1044.598	301.633	-1029.861	 H	16	ARG16	0.156	
250	 2HB	1046.187	300.599	-1027.409	 H	16	ARG16	0.033	
251	 3HB	1044.548	301.206	-1027.291	 H	16	ARG16	0.033	
252	 2HG	1045.276	303.480	-1028.132	 H	16	ARG16	0.029	
253	 3HG	1046.943	302.912	-1028.277	 H	16	ARG16	0.029	
254	 2HD	1047.025	302.401	-1025.808	 H	16	ARG16	0.069	
255	 3HD	1045.344	302.960	-1025.632	 H	16	ARG16	0.069	
256	  HE	1046.857	305.109	-1026.939	 H	16	ARG16	0.346	
257	1HH1	1046.710	303.589	-1023.827	 H	16	ARG16	0.448	
258	2HH1	1047.297	305.099	-1022.978	 H	16	ARG16	0.448	
259	1HH2	1047.517	306.794	-1025.958	 H	16	ARG16	0.448	
260	2HH2	1047.726	306.816	-1024.151	 H	16	ARG16	0.448	
@<TRIPOS>BOND
1 1 2 1
2 1 10 1
3 2 3 1
4 2 5 1
5 2 11 1
6 3 4 2
7 3 16 1
8 5 6 1
9 6 7 1
10 7 8 2
11 7 9 1
12 5 12 1
13 5 13 1
14 6 14 1
15 6 15 1
16 16 17 1
17 16 24 1
18 17 18 1
19 17 20 1
20 17 25 1
21 18 19 2
22 18 30 1
23 20 21 1
24 21 22 1
25 21 23 2
26 20 26 1
27 20 27 1
28 22 28 1
29 22 29 1
30 30 31 1
31 30 36 1
32 31 32 1
33 31 34 1
34 31 37 1
35 32 33 2
36 32 44 1
37 34 35 1
38 35 36 1
39 34 38 1
40 34 39 1
41 35 40 1
42 35 41 1
43 36 42 1
44 36 43 1
45 44 45 1
46 44 53 1
47 45 46 1
48 45 48 1
49 45 54 1
50 46 47 2
51 46 59 1
52 48 49 1
53 49 50 1
54 50 51 2
55 50 52 1
56 48 55 1
57 48 56 1
58 49 57 1
59 49 58 1
60 59 60 1
61 59 65 1
62 60 61 1
63 60 63 1
64 60 66 1
65 61 62 2
66 61 70 1
67 63 64 1
68 63 67 1
69 63 68 1
70 64 69 1
71 70 71 1
72 70 78 1
73 71 72 1
74 71 74 1
75 71 79 1
76 72 73 2
77 72 89 1
78 74 75 1
79 74 76 1
80 75 77 1
81 74 80 1
82 75 81 1
83 75 82 1
84 76 83 1
85 76 84 1
86 76 85 1
87 77 86 1
88 77 87 1
89 77 88 1
90 89 90 1
91 89 95 1
92 90 91 1
93 90 93 1
94 90 96 1
95 91 92 2
96 91 103 1
97 93 94 1
98 94 95 1
99 93 97 1
100 93 98 1
101 94 99 1
102 94 100 1
103 95 101 1
104 95 102 1
105 103 104 1
106 103 111 1
107 104 105 1
108 104 107 1
109 104 112 1
110 105 106 2
111 105 115 1
112 107 108 1
113 108 109 2
114 108 110 1
115 107 113 1
116 107 114 1
117 115 116 1
118 115 124 1
119 116 117 1
120 116 119 1
121 116 125 1
122 117 118 2
123 117 130 1
124 119 120 1
125 120 121 1
126 121 122 2
127 121 123 1
128 119 126 1
129 119 127 1
130 120 128 1
131 120 129 1
132 130 131 1
133 130 140 1
134 131 132 1
135 131 134 1
136 131 141 1
137 132 133 2
138 132 147 1
139 134 135 1
140 135 136 2
141 136 139 1
142 135 137 1
143 137 138 2
144 138 139 1
145 134 142 1
146 134 143 1
147 136 144 1
148 138 145 1
149 139 146 1
150 147 148 1
151 147 154 1
152 148 149 1
153 148 151 1
154 148 155 1
155 149 150 2
156 149 163 1
157 151 152 1
158 151 153 1
159 151 156 1
160 152 157 1
161 152 158 1
162 152 159 1
163 153 160 1
164 153 161 1
165 153 162 1
166 163 164 1
167 163 172 1
168 164 165 1
169 164 167 1
170 164 173 1
171 165 166 2
172 165 180 1
173 167 168 1
174 168 169 1
175 169 170 1
176 169 171 2
177 167 174 1
178 167 175 1
179 168 176 1
180 168 177 1
181 170 178 1
182 170 179 1
183 180 181 1
184 180 191 1
185 181 182 1
186 181 184 1
187 181 192 1
188 182 183 2
189 182 204 1
190 184 185 1
191 185 186 1
192 186 187 1
193 187 188 1
194 188 189 2
195 188 190 1
196 184 193 1
197 184 194 1
198 185 195 1
199 185 196 1
200 186 197 1
201 186 198 1
202 187 199 1
203 189 200 1
204 189 201 1
205 190 202 1
206 190 203 1
207 204 205 1
208 204 211 1
209 205 206 1
210 205 208 1
211 205 212 1
212 206 207 2
213 206 220 1
214 208 209 1
215 208 210 1
216 208 213 1
217 209 214 1
218 209 215 1
219 209 216 1
220 210 217 1
221 210 218 1
222 210 219 1
223 220 221 1
224 220 228 1
225 221 222 1
226 221 224 1
227 221 229 1
228 222 223 2
229 222 237 1
230 224 225 1
231 225 226 1
232 226 227 1
233 224 230 1
234 224 231 1
235 225 232 1
236 225 233 1
237 227 234 1
238 227 235 1
239 227 236 1
240 237 238 1
241 237 248 1
242 238 239 1
243 238 241 1
244 238 249 1
245 239 240 2
246 241 242 1
247 242 243 1
248 243 244 1
249 244 245 1
250 245 246 2
251 245 247 1
252 241 250 1
253 241 251 1
254 242 252 1
255 242 253 1
256 243 254 1
257 243 255 1
258 244 256 1
259 246 257 1
260 246 258 1
261 247 259 1
262 247 260 1
@<TRIPOS>SUBSTRUCTURE
1	GLU1	1	RESIDUE	1 ****	GLU
2	ASN2	16	RESIDUE	1 ****	ASN
3	PRO3	30	RESIDUE	1 ****	PRO
4	GLU4	44	RESIDUE	1 ****	GLU
5	SER5	59	RESIDUE	1 ****	SER
6	ILE6	70	RESIDUE	1 ****	ILE
7	PRO7	89	RESIDUE	1 ****	PRO
8	ASP8	103	RESIDUE	1 ****	ASP
9	GLU9	115	RESIDUE	1 ****	GLU
10	HIS10	130	RESIDUE	1 ****	HIS
11	VAL11	147	RESIDUE	1 ****	VAL
12	GLN12	163	RESIDUE	1 ****	GLN
13	ARG13	180	RESIDUE	1 ****	ARG
14	VAL14	204	RESIDUE	1 ****	VAL
15	MET15	220	RESIDUE	1 ****	MET
16	ARG16	237	RESIDUE	1 ****	ARG
