REMARK WARNING: 32 MAX_TORS EXCEEDED!!!
REMARK  68 active torsions:
REMARK  status: ('A' for Active; 'I' for Inactive)
REMARK    1  A    between atoms: N_1  and  CA_2 
REMARK    2  A    between atoms: CA_2  and  C_3 
REMARK    3  A    between atoms: CA_2  and  CB_5 
REMARK       I    between atoms: C_3  and  N_11 
REMARK    4  A    between atoms: CB_5  and  CG_6 
REMARK    5  A    between atoms: CG_6  and  CD_7 
REMARK    6  A    between atoms: N_11  and  CA_12 
REMARK    7  A    between atoms: CA_12  and  C_13 
REMARK    8  A    between atoms: CA_12  and  CB_15 
REMARK       I    between atoms: C_13  and  N_22 
REMARK    9  A    between atoms: CB_15  and  CG_16 
REMARK       I    between atoms: CG_16  and  ND2_17 
REMARK   10  A    between atoms: CA_23  and  C_24 
REMARK       I    between atoms: C_24  and  N_29 
REMARK   11  A    between atoms: N_29  and  CA_30 
REMARK   12  A    between atoms: CA_30  and  C_31 
REMARK   13  A    between atoms: CA_30  and  CB_33 
REMARK       I    between atoms: C_31  and  N_39 
REMARK   14  A    between atoms: CB_33  and  CG_34 
REMARK   15  A    between atoms: CG_34  and  CD_35 
REMARK   16  A    between atoms: N_39  and  CA_40 
REMARK   17  A    between atoms: CA_40  and  C_41 
REMARK   18  A    between atoms: CA_40  and  CB_43 
REMARK       I    between atoms: C_41  and  N_47 
REMARK   19  A    between atoms: CB_43  and  OG_44 
REMARK   20  A    between atoms: N_47  and  CA_48 
REMARK   21  A    between atoms: CA_48  and  C_49 
REMARK   22  A    between atoms: CA_48  and  CB_51 
REMARK       I    between atoms: C_49  and  N_56 
REMARK   23  A    between atoms: CB_51  and  CG1_52 
REMARK   24  A    between atoms: N_56  and  CA_57 
REMARK   25  A    between atoms: CA_57  and  C_58 
REMARK   26  A    between atoms: CA_57  and  CB_60 
REMARK       I    between atoms: C_58  and  N_72 
REMARK   27  A    between atoms: CB_60  and  CG_61 
REMARK   28  A    between atoms: N_72  and  CA_73 
REMARK   29  A    between atoms: CA_73  and  C_74 
REMARK   30  A    between atoms: CA_73  and  CB_76 
REMARK       I    between atoms: C_74  and  N_81 
REMARK   31  A    between atoms: CB_76  and  CG_77 
REMARK   32  A    between atoms: N_81  and  CA_82 
REMARK   33  A    between atoms: CA_82  and  C_83 
REMARK   34  A    between atoms: CA_82  and  CB_85 
REMARK       I    between atoms: C_83  and  N_91 
REMARK   35  A    between atoms: CB_85  and  CG_86 
REMARK   36  A    between atoms: CG_86  and  CD_87 
REMARK   37  A    between atoms: N_91  and  CA_92 
REMARK   38  A    between atoms: CA_92  and  C_93 
REMARK   39  A    between atoms: CA_92  and  CB_95 
REMARK       I    between atoms: C_93  and  N_103 
REMARK   40  A    between atoms: CB_95  and  CG_96 
REMARK   41  A    between atoms: N_103  and  CA_104 
REMARK   42  A    between atoms: CA_104  and  C_105 
REMARK   43  A    between atoms: CA_104  and  CB_107 
REMARK       I    between atoms: C_105  and  N_111 
REMARK   44  A    between atoms: N_111  and  CA_112 
REMARK   45  A    between atoms: CA_112  and  C_113 
REMARK   46  A    between atoms: CA_112  and  CB_115 
REMARK       I    between atoms: C_113  and  N_123 
REMARK   47  A    between atoms: CB_115  and  CG_116 
REMARK   48  A    between atoms: CG_116  and  CD_117 
REMARK       I    between atoms: CD_117  and  NE2_118 
REMARK   49  A    between atoms: N_123  and  CA_124 
REMARK   50  A    between atoms: CA_124  and  C_125 
REMARK   51  A    between atoms: CA_124  and  CB_127 
REMARK       I    between atoms: C_125  and  N_140 
REMARK   52  A    between atoms: CB_127  and  CG_128 
REMARK   53  A    between atoms: CG_128  and  CD_129 
REMARK   54  A    between atoms: CD_129  and  NE_130 
REMARK       I    between atoms: NE_130  and  CZ_131 
REMARK       I    between atoms: CZ_131  and  NH1_132 
REMARK       I    between atoms: CZ_131  and  NH2_133 
REMARK   55  A    between atoms: N_140  and  CA_141 
REMARK   56  A    between atoms: CA_141  and  C_142 
REMARK   57  A    between atoms: CA_141  and  CB_144 
REMARK       I    between atoms: C_142  and  N_148 
REMARK   58  A    between atoms: N_148  and  CA_149 
REMARK   59  A    between atoms: CA_149  and  C_150 
REMARK   60  A    between atoms: CA_149  and  CB_152 
REMARK       I    between atoms: C_150  and  N_157 
REMARK   61  A    between atoms: CB_152  and  CG_153 
REMARK   62  A    between atoms: CG_153  and  SD_154 
REMARK   63  A    between atoms: N_157  and  CA_158 
REMARK   64  A    between atoms: CA_158  and  C_159 
REMARK   65  A    between atoms: CA_158  and  CB_161 
REMARK   66  A    between atoms: CB_161  and  CG_162 
REMARK   67  A    between atoms: CG_162  and  CD_163 
REMARK   68  A    between atoms: CD_163  and  NE_164 
REMARK       I    between atoms: NE_164  and  CZ_165 
REMARK       I    between atoms: CZ_165  and  NH1_166 
ROOT
ATOM      1  CA  GLU d   9    1108.249 316.688-1091.913  0.00  0.00     0.177 C 
ENDROOT
BRANCH   1   2
ATOM      2  N   GLU d   9    1106.946 316.031-1091.967  0.00  0.00    -0.346 N 
ATOM      3  C   ASP d   8    1106.266 316.080-1093.063  0.00  0.00     0.241 C 
ATOM      4  O   ASP d   8    1106.739 316.684-1094.038  0.00  0.00    -0.271 OA
ATOM      5  H   GLU d   9    1106.583 315.546-1091.160  0.00  0.00     0.163 HD
BRANCH   3   6
ATOM      6  CA  ASP d   8    1104.919 315.400-1093.119  0.00  0.00     0.186 C 
BRANCH   6   7
ATOM      7  N   ASP d   8    1104.989 314.052-1092.564  0.00  0.00    -0.345 N 
ATOM      8  C   TRP d   7    1105.826 313.210-1093.069  0.00  0.00     0.241 C 
ATOM      9  O   TRP d   7    1106.541 313.568-1094.003  0.00  0.00    -0.271 OA
ATOM     10  H   ASP d   8    1104.392 313.782-1091.796  0.00  0.00     0.163 HD
BRANCH   8  11
ATOM     11  CA  TRP d   7    1105.899 311.815-1092.495  0.00  0.00     0.181 C 
BRANCH  11  12
ATOM     12  N   TRP d   7    1105.955 311.851-1091.037  0.00  0.00    -0.346 N 
ATOM     13  C   ILE d   6    1106.901 312.514-1090.463  0.00  0.00     0.241 C 
ATOM     14  O   ILE d   6    1107.735 313.102-1091.167  0.00  0.00    -0.271 OA
ATOM     15  H   TRP d   7    1105.263 311.364-1090.485  0.00  0.00     0.163 HD
BRANCH  13  16
ATOM     16  CA  ILE d   6    1106.958 312.552-1088.955  0.00  0.00     0.180 C 
BRANCH  16  17
ATOM     17  N   ILE d   6    1105.645 312.846-1088.389  0.00  0.00    -0.346 N 
ATOM     18  C   SER d   5    1105.040 313.929-1088.743  0.00  0.00     0.243 C 
ATOM     19  O   SER d   5    1105.587 314.683-1089.548  0.00  0.00    -0.271 OA
ATOM     20  H   ILE d   6    1105.217 312.212-1087.730  0.00  0.00     0.163 HD
BRANCH  18  21
ATOM     21  CA  SER d   5    1103.681 314.235-1088.157  0.00  0.00     0.200 C 
BRANCH  21  22
ATOM     22  N   SER d   5    1102.812 313.064-1088.215  0.00  0.00    -0.344 N 
ATOM     23  C   GLU d   4    1102.584 312.511-1089.359  0.00  0.00     0.241 C 
ATOM     24  O   GLU d   4    1103.111 312.990-1090.373  0.00  0.00    -0.271 OA
ATOM     25  H   SER d   5    1102.395 312.692-1087.374  0.00  0.00     0.163 HD
BRANCH  23  26
ATOM     26  CA  GLU d   4    1101.686 311.300-1089.420  0.00  0.00     0.177 C 
BRANCH  26  27
ATOM     27  N   GLU d   4    1102.045 310.329-1088.390  0.00  0.00    -0.346 N 
ATOM     28  C   PRO d   3    1103.250 309.868-1088.358  0.00  0.00     0.241 C 
ATOM     29  O   PRO d   3    1104.073 310.252-1089.189  0.00  0.00    -0.271 OA
ATOM     30  H   GLU d   4    1101.361 310.022-1087.713  0.00  0.00     0.163 HD
BRANCH  28  31
ATOM     31  CA  PRO d   3    1103.648 308.845-1087.281  0.00  0.00     0.179 C 
ATOM     32  N   PRO d   3    1103.197 309.254-1085.959  0.00  0.00    -0.337 N 
ATOM     33  C   ASN d   2    1103.718 310.249-1085.325  0.00  0.00     0.243 C 
ATOM     34  CD  PRO d   3    1102.119 308.461-1085.410  0.00  0.00     0.127 C 
ATOM     35  O   ASN d   2    1104.633 310.880-1085.854  0.00  0.00    -0.271 OA
ATOM     36  CG  PRO d   3    1101.661 307.643-1086.620  0.00  0.00     0.022 C 
ATOM     37  CB  PRO d   3    1102.944 307.490-1087.450  0.00  0.00     0.037 C 
BRANCH  33  38
ATOM     38  CA  ASN d   2    1103.187 310.605-1083.957  0.00  0.00     0.185 C 
BRANCH  38  39
ATOM     39  N   ASN d   2    1101.728 310.644-1083.957  0.00  0.00    -0.346 N 
ATOM     40  C   GLU d   1    1101.123 311.429-1084.782  0.00  0.00     0.242 C 
ATOM     41  O   GLU d   1    1101.799 312.129-1085.550  0.00  0.00    -0.271 OA
ATOM     42  H   ASN d   2    1101.199 310.064-1083.320  0.00  0.00     0.163 HD
BRANCH  40  43
ATOM     43  CA  GLU d   1    1099.614 311.469-1084.782  0.00  0.00     0.191 C 
BRANCH  43  44
ATOM     44  N   GLU d   1    1099.055 310.120-1084.782  0.00  0.00    -0.326 NA
ATOM     45  H   GLU d   1    1099.682 309.241-1084.782  0.00  0.00     0.180 HD
ENDBRANCH  43  44
BRANCH  43  46
ATOM     46  CB  GLU d   1    1099.091 312.254-1083.545  0.00  0.00     0.047 C 
BRANCH  46  47
ATOM     47  CG  GLU d   1    1099.566 313.739-1083.434  0.00  0.00     0.116 C 
BRANCH  47  48
ATOM     48  CD  GLU d   1    1099.142 314.543-1082.219  0.00  0.00     0.172 C 
ATOM     49  OE1 GLU d   1    1098.414 314.041-1081.341  0.00  0.00    -0.648 OA
ATOM     50  OE2 GLU d   1    1099.572 315.713-1082.147  0.00  0.00    -0.648 OA
ENDBRANCH  47  48
ENDBRANCH  46  47
ENDBRANCH  43  46
ENDBRANCH  40  43
ENDBRANCH  38  39
BRANCH  38  51
ATOM     51  CB  ASN d   2    1103.679 309.582-1082.892  0.00  0.00     0.137 C 
BRANCH  51  52
ATOM     52  CG  ASN d   2    1103.216 309.806-1081.449  0.00  0.00     0.217 C 
ATOM     53  ND2 ASN d   2    1103.810 310.721-1080.731  0.00  0.00    -0.370 N 
ATOM     54 21HD ASN d   2    1103.330 310.894-1079.844  0.00  0.00     0.159 HD
ATOM     55 22HD ASN d   2    1104.512 311.292-1081.200  0.00  0.00     0.159 HD
ATOM     56  OD1 ASN d   2    1102.295 309.172-1080.955  0.00  0.00    -0.274 OA
ENDBRANCH  51  52
ENDBRANCH  38  51
ENDBRANCH  33  38
ENDBRANCH  28  31
ENDBRANCH  26  27
BRANCH  26  57
ATOM     57  CB  GLU d   4    1100.197 311.718-1089.249  0.00  0.00     0.045 C 
BRANCH  57  58
ATOM     58  CG  GLU d   4    1099.649 312.722-1090.315  0.00  0.00     0.116 C 
BRANCH  58  59
ATOM     59  CD  GLU d   4    1098.222 313.218-1090.171  0.00  0.00     0.172 C 
ATOM     60  OE1 GLU d   4    1097.496 312.820-1089.240  0.00  0.00    -0.648 OA
ATOM     61  OE2 GLU d   4    1097.832 314.048-1091.019  0.00  0.00    -0.648 OA
ENDBRANCH  58  59
ENDBRANCH  57  58
ENDBRANCH  26  57
ENDBRANCH  23  26
ENDBRANCH  21  22
BRANCH  21  62
ATOM     62  CB  SER d   5    1103.793 314.767-1086.706  0.00  0.00     0.199 C 
BRANCH  62  63
ATOM     63  OG  SER d   5    1104.525 313.888-1085.846  0.00  0.00    -0.398 OA
ATOM     64  HG  SER d   5    1104.036 313.063-1085.795  0.00  0.00     0.209 HD
ENDBRANCH  62  63
ENDBRANCH  21  62
ENDBRANCH  18  21
ENDBRANCH  16  17
BRANCH  16  65
ATOM     65  CB  ILE d   6    1107.558 311.216-1088.355  0.00  0.00     0.013 C 
ATOM     66  CG2 ILE d   6    1108.999 310.914-1088.871  0.00  0.00     0.012 C 
BRANCH  65  67
ATOM     67  CG1 ILE d   6    1107.578 311.153-1086.794  0.00  0.00     0.002 C 
ATOM     68  CD1 ILE d   6    1107.848 309.764-1086.180  0.00  0.00     0.005 C 
ENDBRANCH  65  67
ENDBRANCH  16  65
ENDBRANCH  13  16
ENDBRANCH  11  12
BRANCH  11  69
ATOM     69  CB  TRP d   7    1104.652 310.999-1092.936  0.00  0.00     0.075 C 
BRANCH  69  70
ATOM     70  CG  TRP d   7    1104.700 309.511-1092.578  0.00  0.00    -0.028 A 
ATOM     71  CD2 TRP d   7    1105.387 308.500-1093.217  0.00  0.00    -0.002 A 
ATOM     72  CE3 TRP d   7    1106.195 308.502-1094.383  0.00  0.00     0.014 A 
ATOM     73  CE2 TRP d   7    1105.200 307.309-1092.471  0.00  0.00     0.042 A 
ATOM     74  CZ3 TRP d   7    1106.783 307.302-1094.783  0.00  0.00     0.001 A 
ATOM     75  CH2 TRP d   7    1106.593 306.121-1094.052  0.00  0.00     0.002 A 
ATOM     76  CZ2 TRP d   7    1105.811 306.108-1092.893  0.00  0.00     0.030 A 
ATOM     77  NE1 TRP d   7    1104.402 307.544-1091.362  0.00  0.00    -0.365 N 
ATOM     78  CD1 TRP d   7    1104.105 308.918-1091.445  0.00  0.00     0.096 A 
ATOM     79  1HE TRP d   7    1104.136 306.880-1090.626  0.00  0.00     0.165 HD
ENDBRANCH  69  70
ENDBRANCH  11  69
ENDBRANCH   8  11
ENDBRANCH   6   7
BRANCH   6  80
ATOM     80  CB  ASP d   8    1103.842 316.240-1092.378  0.00  0.00     0.147 C 
BRANCH  80  81
ATOM     81  CG  ASP d   8    1103.623 317.661-1092.920  0.00  0.00     0.175 C 
ATOM     82  OD1 ASP d   8    1103.687 317.858-1094.151  0.00  0.00    -0.648 OA
ATOM     83  OD2 ASP d   8    1103.431 318.588-1092.106  0.00  0.00    -0.648 OA
ENDBRANCH  80  81
ENDBRANCH   6  80
ENDBRANCH   3   6
ENDBRANCH   1   2
BRANCH   1  84
ATOM     84  C   GLU d   9    1109.167 316.159-1092.988  0.00  0.00     0.241 C 
ATOM     85  O   GLU d   9    1109.831 316.912-1093.715  0.00  0.00    -0.271 OA
ATOM     86  N   HIS d  10    1109.263 314.884-1093.156  0.00  0.00    -0.346 N 
ATOM     87  H   HIS d  10    1108.732 314.249-1092.577  0.00  0.00     0.163 HD
BRANCH  86  88
ATOM     88  CA  HIS d  10    1110.150 314.371-1094.196  0.00  0.00     0.182 C 
BRANCH  88  89
ATOM     89  C   HIS d  10    1109.783 314.934-1095.548  0.00  0.00     0.241 C 
ATOM     90  O   HIS d  10    1110.636 315.397-1096.321  0.00  0.00    -0.271 OA
ATOM     91  N   VAL d  11    1108.546 314.933-1095.911  0.00  0.00    -0.346 N 
ATOM     92  H   VAL d  11    1107.833 314.561-1095.300  0.00  0.00     0.163 HD
BRANCH  91  93
ATOM     93  CA  VAL d  11    1108.191 315.477-1097.219  0.00  0.00     0.180 C 
BRANCH  93  94
ATOM     94  C   VAL d  11    1108.656 316.907-1097.353  0.00  0.00     0.241 C 
ATOM     95  O   VAL d  11    1109.257 317.311-1098.356  0.00  0.00    -0.271 OA
ATOM     96  N   GLN d  12    1108.419 317.734-1096.391  0.00  0.00    -0.346 N 
ATOM     97  H   GLN d  12    1107.930 317.430-1095.562  0.00  0.00     0.163 HD
BRANCH  96  98
ATOM     98  CA  GLN d  12    1108.868 319.117-1096.520  0.00  0.00     0.177 C 
BRANCH  98  99
ATOM     99  C   GLN d  12    1110.358 319.184-1096.758  0.00  0.00     0.241 C 
ATOM    100  O   GLN d  12    1110.845 319.891-1097.638  0.00  0.00    -0.271 OA
ATOM    101  N   ARG d  13    1111.142 318.478-1096.017  0.00  0.00    -0.346 N 
ATOM    102  H   ARG d  13    1110.766 317.889-1095.287  0.00  0.00     0.163 HD
BRANCH 101 103
ATOM    103  CA  ARG d  13    1112.582 318.543-1096.247  0.00  0.00     0.176 C 
BRANCH 103 104
ATOM    104  C   ARG d  13    1112.918 318.170-1097.672  0.00  0.00     0.241 C 
ATOM    105  O   ARG d  13    1113.687 318.840-1098.357  0.00  0.00    -0.271 OA
ATOM    106  N   VAL d  14    1112.382 317.115-1098.185  0.00  0.00    -0.346 N 
ATOM    107  H   VAL d  14    1111.747 316.547-1097.643  0.00  0.00     0.163 HD
BRANCH 106 108
ATOM    108  CA  VAL d  14    1112.707 316.754-1099.562  0.00  0.00     0.180 C 
BRANCH 108 109
ATOM    109  C   VAL d  14    1112.377 317.882-1100.509  0.00  0.00     0.241 C 
ATOM    110  O   VAL d  14    1113.170 318.263-1101.379  0.00  0.00    -0.271 OA
ATOM    111  N   MET d  15    1111.232 318.469-1100.408  0.00  0.00    -0.346 N 
ATOM    112  H   MET d  15    1110.567 318.177-1099.706  0.00  0.00     0.163 HD
BRANCH 111 113
ATOM    113  CA  MET d  15    1110.912 319.560-1101.323  0.00  0.00     0.177 C 
BRANCH 113 114
ATOM    114  C   MET d  15    1111.942 320.660-1101.237  0.00  0.00     0.241 C 
ATOM    115  O   MET d  15    1112.445 321.169-1102.250  0.00  0.00    -0.271 OA
ATOM    116  N   ARG d  16    1112.311 321.082-1100.075  0.00  0.00    -0.347 N 
ATOM    117  H   ARG d  16    1111.916 320.683-1099.235  0.00  0.00     0.163 HD
BRANCH 116 118
ATOM    118  CA  ARG d  16    1113.307 322.146-1099.993  0.00  0.00     0.162 C 
BRANCH 118 119
ATOM    119  C   ARG d  16    1114.578 321.752-1100.708  0.00  0.00     0.219 C 
ATOM    120  O   ARG d  16    1114.692 320.675-1101.288  0.00  0.00    -0.287 OA
ENDBRANCH 118 119
BRANCH 118 121
ATOM    121  CB  ARG d  16    1113.577 322.466-1098.495  0.00  0.00     0.035 C 
BRANCH 121 122
ATOM    122  CG  ARG d  16    1114.402 323.755-1098.223  0.00  0.00     0.023 C 
BRANCH 122 123
ATOM    123  CD  ARG d  16    1114.651 323.976-1096.722  0.00  0.00     0.138 C 
BRANCH 123 124
ATOM    124  NE  ARG d  16    1115.428 325.235-1096.523  0.00  0.00    -0.227 N 
ATOM    125  CZ  ARG d  16    1115.819 325.719-1095.348  0.00  0.00     0.665 C 
ATOM    126  NH1 ARG d  16    1115.571 325.136-1094.209  0.00  0.00    -0.235 N 
ATOM    127  NH2 ARG d  16    1116.483 326.832-1095.331  0.00  0.00    -0.235 N 
ATOM    128 11HH ARG d  16    1115.046 324.263-1094.292  0.00  0.00     0.174 HD
ATOM    129 12HH ARG d  16    1115.906 325.573-1093.348  0.00  0.00     0.174 HD
ATOM    130 21HH ARG d  16    1116.669 327.273-1096.233  0.00  0.00     0.174 HD
ATOM    131 22HH ARG d  16    1116.774 327.188-1094.418  0.00  0.00     0.174 HD
ATOM    132  HE  ARG d  16    1115.707 325.815-1097.321  0.00  0.00     0.177 HD
ENDBRANCH 123 124
ENDBRANCH 122 123
ENDBRANCH 121 122
ENDBRANCH 118 121
ENDBRANCH 116 118
ENDBRANCH 113 114
BRANCH 113 133
ATOM    133  CB  MET d  15    1109.490 320.106-1101.015  0.00  0.00     0.045 C 
BRANCH 133 134
ATOM    134  CG  MET d  15    1108.328 319.108-1101.206  0.00  0.00     0.076 C 
BRANCH 134 135
ATOM    135  SD  MET d  15    1106.755 319.975-1101.093  0.00  0.00    -0.173 SA
ATOM    136  CE  MET d  15    1105.673 318.545-1100.954  0.00  0.00     0.089 C 
ENDBRANCH 134 135
ENDBRANCH 133 134
ENDBRANCH 113 133
ENDBRANCH 111 113
ENDBRANCH 108 109
BRANCH 108 137
ATOM    137  CB  VAL d  14    1111.934 315.436-1099.968  0.00  0.00     0.009 C 
ATOM    138  CG1 VAL d  14    1112.023 315.016-1101.461  0.00  0.00     0.012 C 
ATOM    139  CG2 VAL d  14    1112.365 314.185-1099.166  0.00  0.00     0.012 C 
ENDBRANCH 108 137
ENDBRANCH 106 108
ENDBRANCH 103 104
BRANCH 103 140
ATOM    140  CB  ARG d  13    1113.295 317.605-1095.232  0.00  0.00     0.036 C 
BRANCH 140 141
ATOM    141  CG  ARG d  13    1114.840 317.758-1095.151  0.00  0.00     0.023 C 
BRANCH 141 142
ATOM    142  CD  ARG d  13    1115.467 316.771-1094.153  0.00  0.00     0.138 C 
BRANCH 142 143
ATOM    143  NE  ARG d  13    1116.944 316.978-1094.102  0.00  0.00    -0.227 N 
ATOM    144  CZ  ARG d  13    1117.792 316.287-1093.346  0.00  0.00     0.665 C 
ATOM    145  NH1 ARG d  13    1117.427 315.324-1092.548  0.00  0.00    -0.235 N 
ATOM    146  NH2 ARG d  13    1119.052 316.586-1093.404  0.00  0.00    -0.235 N 
ATOM    147 11HH ARG d  13    1116.421 315.138-1092.551  0.00  0.00     0.174 HD
ATOM    148 12HH ARG d  13    1118.140 314.841-1091.999  0.00  0.00     0.174 HD
ATOM    149 21HH ARG d  13    1119.320 317.343-1094.035  0.00  0.00     0.174 HD
ATOM    150 22HH ARG d  13    1119.687 316.045-1092.814  0.00  0.00     0.174 HD
ATOM    151  HE  ARG d  13    1117.396 317.699-1094.674  0.00  0.00     0.177 HD
ENDBRANCH 142 143
ENDBRANCH 141 142
ENDBRANCH 140 141
ENDBRANCH 103 140
ENDBRANCH 101 103
ENDBRANCH  98  99
BRANCH  98 152
ATOM    152  CB  GLN d  12    1108.477 319.886-1095.238  0.00  0.00     0.044 C 
BRANCH 152 153
ATOM    153  CG  GLN d  12    1108.838 321.408-1095.209  0.00  0.00     0.105 C 
BRANCH 153 154
ATOM    154  CD  GLN d  12    1108.535 322.223-1093.945  0.00  0.00     0.215 C 
ATOM    155  NE2 GLN d  12    1107.968 321.648-1092.916  0.00  0.00    -0.370 N 
ATOM    156 21HE GLN d  12    1107.861 322.243-1092.093  0.00  0.00     0.159 HD
ATOM    157 22HE GLN d  12    1107.804 320.644-1093.018  0.00  0.00     0.159 HD
ATOM    158  OE1 GLN d  12    1108.838 323.404-1093.869  0.00  0.00    -0.274 OA
ENDBRANCH 153 154
ENDBRANCH 152 153
ENDBRANCH  98 152
ENDBRANCH  96  98
ENDBRANCH  93  94
BRANCH  93 159
ATOM    159  CB  VAL d  11    1106.629 315.371-1097.438  0.00  0.00     0.009 C 
ATOM    160  CG1 VAL d  11    1106.061 316.073-1098.701  0.00  0.00     0.012 C 
ATOM    161  CG2 VAL d  11    1106.104 313.917-1097.509  0.00  0.00     0.012 C 
ENDBRANCH  93 159
ENDBRANCH  91  93
ENDBRANCH  88  89
BRANCH  88 162
ATOM    162  CB  HIS d  10    1109.986 312.842-1094.189  0.00  0.00     0.095 C 
BRANCH 162 163
ATOM    163  CG  HIS d  10    1111.271 312.132-1093.880  0.00  0.00     0.053 A 
ATOM    164  CD2 HIS d  10    1111.652 311.798-1092.588  0.00  0.00     0.116 A 
ATOM    165  NE2 HIS d  10    1112.867 311.166-1092.653  0.00  0.00    -0.359 N 
ATOM    166  CE1 HIS d  10    1113.130 311.167-1093.989  0.00  0.00     0.207 A 
ATOM    167  2HE HIS d  10    1113.434 310.790-1091.880  0.00  0.00     0.166 HD
ATOM    168  ND1 HIS d  10    1112.223 311.724-1094.812  0.00  0.00    -0.247 NA
ENDBRANCH 162 163
ENDBRANCH  88 162
ENDBRANCH  86  88
ENDBRANCH   1  84
BRANCH   1 169
ATOM    169  CB  GLU d   9    1108.883 316.482-1090.507  0.00  0.00     0.045 C 
BRANCH 169 170
ATOM    170  CG  GLU d   9    1110.265 317.174-1090.279  0.00  0.00     0.116 C 
BRANCH 170 171
ATOM    171  CD  GLU d   9    1110.967 316.963-1088.951  0.00  0.00     0.172 C 
ATOM    172  OE1 GLU d   9    1110.446 316.273-1088.053  0.00  0.00    -0.648 OA
ATOM    173  OE2 GLU d   9    1112.087 317.500-1088.820  0.00  0.00    -0.648 OA
ENDBRANCH 170 171
ENDBRANCH 169 170
ENDBRANCH   1 169
TORSDOF 68
