REMARK WARNING: 32 MAX_TORS EXCEEDED!!!
REMARK  70 active torsions:
REMARK  status: ('A' for Active; 'I' for Inactive)
REMARK    1  A    between atoms: N_1  and  CA_2 
REMARK    2  A    between atoms: CA_2  and  C_3 
REMARK    3  A    between atoms: CA_2  and  CB_5 
REMARK       I    between atoms: C_3  and  N_14 
REMARK    4  A    between atoms: CB_5  and  CG_6 
REMARK    5  A    between atoms: CG_6  and  CD_7 
REMARK    6  A    between atoms: CD_7  and  CE_8 
REMARK    7  A    between atoms: CE_8  and  NZ_9 
REMARK    8  A    between atoms: N_14  and  CA_15 
REMARK    9  A    between atoms: CA_15  and  C_16 
REMARK   10  A    between atoms: CA_15  and  CB_18 
REMARK       I    between atoms: C_16  and  N_25 
REMARK   11  A    between atoms: CB_18  and  CG_19 
REMARK       I    between atoms: CG_19  and  ND2_20 
REMARK   12  A    between atoms: CA_26  and  C_27 
REMARK       I    between atoms: C_27  and  N_32 
REMARK   13  A    between atoms: N_32  and  CA_33 
REMARK   14  A    between atoms: CA_33  and  C_34 
REMARK   15  A    between atoms: CA_33  and  CB_36 
REMARK       I    between atoms: C_34  and  N_42 
REMARK   16  A    between atoms: CB_36  and  CG_37 
REMARK   17  A    between atoms: CG_37  and  CD_38 
REMARK   18  A    between atoms: N_42  and  CA_43 
REMARK   19  A    between atoms: CA_43  and  C_44 
REMARK   20  A    between atoms: CA_43  and  CB_46 
REMARK       I    between atoms: C_44  and  N_50 
REMARK   21  A    between atoms: CB_46  and  OG_47 
REMARK   22  A    between atoms: N_50  and  CA_51 
REMARK   23  A    between atoms: CA_51  and  C_52 
REMARK   24  A    between atoms: CA_51  and  CB_54 
REMARK       I    between atoms: C_52  and  N_59 
REMARK   25  A    between atoms: CB_54  and  CG1_55 
REMARK   26  A    between atoms: N_59  and  CA_60 
REMARK   27  A    between atoms: CA_60  and  C_61 
REMARK   28  A    between atoms: CA_60  and  CB_63 
REMARK       I    between atoms: C_61  and  N_68 
REMARK   29  A    between atoms: CB_63  and  CG_64 
REMARK   30  A    between atoms: N_68  and  CA_69 
REMARK   31  A    between atoms: CA_69  and  C_70 
REMARK   32  A    between atoms: CA_69  and  CB_72 
REMARK       I    between atoms: C_70  and  N_77 
REMARK   33  A    between atoms: CB_72  and  CG_73 
REMARK   34  A    between atoms: N_77  and  CA_78 
REMARK   35  A    between atoms: CA_78  and  C_79 
REMARK   36  A    between atoms: CA_78  and  CB_81 
REMARK       I    between atoms: C_79  and  N_87 
REMARK   37  A    between atoms: CB_81  and  CG_82 
REMARK   38  A    between atoms: CG_82  and  CD_83 
REMARK   39  A    between atoms: N_87  and  CA_88 
REMARK   40  A    between atoms: CA_88  and  C_89 
REMARK   41  A    between atoms: CA_88  and  CB_91 
REMARK       I    between atoms: C_89  and  N_99 
REMARK   42  A    between atoms: CB_91  and  CG_92 
REMARK   43  A    between atoms: N_99  and  CA_100 
REMARK   44  A    between atoms: CA_100  and  C_101 
REMARK   45  A    between atoms: CA_100  and  CB_103 
REMARK       I    between atoms: C_101  and  N_107 
REMARK   46  A    between atoms: N_107  and  CA_108 
REMARK   47  A    between atoms: CA_108  and  C_109 
REMARK   48  A    between atoms: CA_108  and  CB_111 
REMARK       I    between atoms: C_109  and  N_119 
REMARK   49  A    between atoms: CB_111  and  CG_112 
REMARK   50  A    between atoms: CG_112  and  CD_113 
REMARK       I    between atoms: CD_113  and  NE2_114 
REMARK   51  A    between atoms: N_119  and  CA_120 
REMARK   52  A    between atoms: CA_120  and  C_121 
REMARK   53  A    between atoms: CA_120  and  CB_123 
REMARK       I    between atoms: C_121  and  N_136 
REMARK   54  A    between atoms: CB_123  and  CG_124 
REMARK   55  A    between atoms: CG_124  and  CD_125 
REMARK   56  A    between atoms: CD_125  and  NE_126 
REMARK       I    between atoms: NE_126  and  CZ_127 
REMARK       I    between atoms: CZ_127  and  NH1_128 
REMARK       I    between atoms: CZ_127  and  NH2_129 
REMARK   57  A    between atoms: N_136  and  CA_137 
REMARK   58  A    between atoms: CA_137  and  C_138 
REMARK   59  A    between atoms: CA_137  and  CB_140 
REMARK       I    between atoms: C_138  and  N_144 
REMARK   60  A    between atoms: N_144  and  CA_145 
REMARK   61  A    between atoms: CA_145  and  C_146 
REMARK   62  A    between atoms: CA_145  and  CB_148 
REMARK       I    between atoms: C_146  and  N_153 
REMARK   63  A    between atoms: CB_148  and  CG_149 
REMARK   64  A    between atoms: CG_149  and  SD_150 
REMARK   65  A    between atoms: N_153  and  CA_154 
REMARK   66  A    between atoms: CA_154  and  C_155 
REMARK   67  A    between atoms: CA_154  and  CB_157 
REMARK   68  A    between atoms: CB_157  and  CG_158 
REMARK   69  A    between atoms: CG_158  and  CD_159 
REMARK   70  A    between atoms: CD_159  and  NE_160 
REMARK       I    between atoms: NE_160  and  CZ_161 
REMARK       I    between atoms: CZ_161  and  NH1_162 
ROOT
ATOM      1  C   GLU d   9     166.966  36.751-136.784  0.00  0.00     0.241 C 
ATOM      2  O   GLU d   9     167.630  37.506-137.509  0.00  0.00    -0.271 OA
ATOM      3  N   HIS d  10     167.063  35.476-136.953  0.00  0.00    -0.346 N 
ATOM      4  H   HIS d  10     166.533  34.840-136.375  0.00  0.00     0.163 HD
ENDROOT
BRANCH   1   5
ATOM      5  CA  GLU d   9     166.048  37.278-135.708  0.00  0.00     0.177 C 
BRANCH   5   6
ATOM      6  N   GLU d   9     164.746  36.620-135.763  0.00  0.00    -0.346 N 
ATOM      7  C   ASP d   8     164.066  36.670-136.858  0.00  0.00     0.241 C 
ATOM      8  O   ASP d   8     164.538  37.275-137.833  0.00  0.00    -0.271 OA
ATOM      9  H   GLU d   9     164.383  36.133-134.956  0.00  0.00     0.163 HD
BRANCH   7  10
ATOM     10  CA  ASP d   8     162.720  35.989-136.916  0.00  0.00     0.186 C 
BRANCH  10  11
ATOM     11  N   ASP d   8     162.790  34.640-136.362  0.00  0.00    -0.346 N 
ATOM     12  C   LEU d   7     163.628  33.800-136.869  0.00  0.00     0.241 C 
ATOM     13  O   LEU d   7     164.348  34.163-137.811  0.00  0.00    -0.271 OA
ATOM     14  H   ASP d   8     162.193  34.369-135.595  0.00  0.00     0.163 HD
BRANCH  12  15
ATOM     15  CA  LEU d   7     163.701  32.404-136.297  0.00  0.00     0.177 C 
BRANCH  15  16
ATOM     16  N   LEU d   7     163.756  32.440-134.838  0.00  0.00    -0.346 N 
ATOM     17  C   ILE d   6     164.702  33.104-134.264  0.00  0.00     0.241 C 
ATOM     18  O   ILE d   6     165.536  33.692-134.968  0.00  0.00    -0.271 OA
ATOM     19  H   LEU d   7     163.064  31.953-134.287  0.00  0.00     0.163 HD
BRANCH  17  20
ATOM     20  CA  ILE d   6     164.759  33.142-132.757  0.00  0.00     0.180 C 
BRANCH  20  21
ATOM     21  N   ILE d   6     163.446  33.436-132.190  0.00  0.00    -0.346 N 
ATOM     22  C   SER d   5     162.841  34.519-132.544  0.00  0.00     0.243 C 
ATOM     23  O   SER d   5     163.388  35.273-133.349  0.00  0.00    -0.271 OA
ATOM     24  H   ILE d   6     163.018  32.802-131.531  0.00  0.00     0.163 HD
BRANCH  22  25
ATOM     25  CA  SER d   5     161.482  34.824-131.958  0.00  0.00     0.200 C 
BRANCH  25  26
ATOM     26  N   SER d   5     160.613  33.653-132.017  0.00  0.00    -0.344 N 
ATOM     27  C   GLU d   4     160.385  33.100-133.160  0.00  0.00     0.241 C 
ATOM     28  O   GLU d   4     160.911  33.580-134.175  0.00  0.00    -0.271 OA
ATOM     29  H   SER d   5     160.196  33.281-131.175  0.00  0.00     0.163 HD
BRANCH  27  30
ATOM     30  CA  GLU d   4     159.486  31.889-133.221  0.00  0.00     0.177 C 
BRANCH  30  31
ATOM     31  N   GLU d   4     159.846  30.918-132.192  0.00  0.00    -0.346 N 
ATOM     32  C   PRO d   3     161.051  30.458-132.159  0.00  0.00     0.241 C 
ATOM     33  O   PRO d   3     161.874  30.841-132.991  0.00  0.00    -0.271 OA
ATOM     34  H   GLU d   4     159.162  30.611-131.515  0.00  0.00     0.163 HD
BRANCH  32  35
ATOM     35  CA  PRO d   3     161.450  29.435-131.082  0.00  0.00     0.179 C 
ATOM     36  N   PRO d   3     160.998  29.844-129.761  0.00  0.00    -0.337 N 
ATOM     37  C   ASN d   2     161.519  30.839-129.127  0.00  0.00     0.243 C 
ATOM     38  CD  PRO d   3     159.920  29.051-129.212  0.00  0.00     0.127 C 
ATOM     39  O   ASN d   2     162.434  31.470-129.656  0.00  0.00    -0.271 OA
ATOM     40  CG  PRO d   3     159.462  28.232-130.421  0.00  0.00     0.022 C 
ATOM     41  CB  PRO d   3     160.746  28.080-131.252  0.00  0.00     0.037 C 
BRANCH  37  42
ATOM     42  CA  ASN d   2     160.988  31.194-127.758  0.00  0.00     0.185 C 
BRANCH  42  43
ATOM     43  N   ASN d   2     159.529  31.233-127.758  0.00  0.00    -0.346 N 
ATOM     44  C   LYS d   1     158.924  32.019-128.583  0.00  0.00     0.242 C 
ATOM     45  O   LYS d   1     159.600  32.718-129.352  0.00  0.00    -0.271 OA
ATOM     46  H   ASN d   2     159.001  30.653-127.122  0.00  0.00     0.163 HD
BRANCH  44  47
ATOM     47  CA  LYS d   1     157.414  32.059-128.583  0.00  0.00     0.190 C 
BRANCH  47  48
ATOM     48  N   LYS d   1     156.855  30.710-128.583  0.00  0.00    -0.326 NA
ATOM     49  H   LYS d   1     157.483  29.831-128.583  0.00  0.00     0.180 HD
ENDBRANCH  47  48
BRANCH  47  50
ATOM     50  CB  LYS d   1     156.879  32.840-127.352  0.00  0.00     0.036 C 
BRANCH  50  51
ATOM     51  CG  LYS d   1     157.356  34.313-127.302  0.00  0.00     0.004 C 
BRANCH  51  52
ATOM     52  CD  LYS d   1     156.901  35.096-126.067  0.00  0.00     0.027 C 
BRANCH  52  53
ATOM     53  CE  LYS d   1     157.502  36.507-126.113  0.00  0.00     0.229 C 
BRANCH  53  54
ATOM     54  NZ  LYS d   1     156.932  37.318-125.023  0.00  0.00    -0.079 N 
ATOM     55  3HZ LYS d   1     156.057  37.684-125.369  0.00  0.00     0.274 HD
ATOM     56  1HZ LYS d   1     156.796  36.747-124.180  0.00  0.00     0.274 HD
ATOM     57  2HZ LYS d   1     157.565  38.078-124.753  0.00  0.00     0.274 HD
ENDBRANCH  53  54
ENDBRANCH  52  53
ENDBRANCH  51  52
ENDBRANCH  50  51
ENDBRANCH  47  50
ENDBRANCH  44  47
ENDBRANCH  42  43
BRANCH  42  58
ATOM     58  CB  ASN d   2     161.480  30.172-126.694  0.00  0.00     0.137 C 
BRANCH  58  59
ATOM     59  CG  ASN d   2     161.017  30.395-125.250  0.00  0.00     0.217 C 
ATOM     60  ND2 ASN d   2     161.611  31.310-124.532  0.00  0.00    -0.370 N 
ATOM     61 21HD ASN d   2     161.131  31.483-123.646  0.00  0.00     0.159 HD
ATOM     62 22HD ASN d   2     162.313  31.882-125.002  0.00  0.00     0.159 HD
ATOM     63  OD1 ASN d   2     160.097  29.761-124.756  0.00  0.00    -0.274 OA
ENDBRANCH  58  59
ENDBRANCH  42  58
ENDBRANCH  37  42
ENDBRANCH  32  35
ENDBRANCH  30  31
BRANCH  30  64
ATOM     64  CB  GLU d   4     157.998  32.307-133.051  0.00  0.00     0.045 C 
BRANCH  64  65
ATOM     65  CG  GLU d   4     157.449  33.311-134.116  0.00  0.00     0.116 C 
BRANCH  65  66
ATOM     66  CD  GLU d   4     156.023  33.807-133.973  0.00  0.00     0.172 C 
ATOM     67  OE1 GLU d   4     155.297  33.409-133.042  0.00  0.00    -0.648 OA
ATOM     68  OE2 GLU d   4     155.633  34.636-134.821  0.00  0.00    -0.648 OA
ENDBRANCH  65  66
ENDBRANCH  64  65
ENDBRANCH  30  64
ENDBRANCH  27  30
ENDBRANCH  25  26
BRANCH  25  69
ATOM     69  CB  SER d   5     161.593  35.357-130.508  0.00  0.00     0.199 C 
BRANCH  69  70
ATOM     70  OG  SER d   5     162.325  34.478-129.647  0.00  0.00    -0.398 OA
ATOM     71  HG  SER d   5     161.837  33.653-129.596  0.00  0.00     0.209 HD
ENDBRANCH  69  70
ENDBRANCH  25  69
ENDBRANCH  22  25
ENDBRANCH  20  21
BRANCH  20  72
ATOM     72  CB  ILE d   6     165.359  31.806-132.157  0.00  0.00     0.013 C 
ATOM     73  CG2 ILE d   6     166.800  31.504-132.672  0.00  0.00     0.012 C 
BRANCH  72  74
ATOM     74  CG1 ILE d   6     165.379  31.744-130.596  0.00  0.00     0.002 C 
ATOM     75  CD1 ILE d   6     165.649  30.355-129.981  0.00  0.00     0.005 C 
ENDBRANCH  72  74
ENDBRANCH  20  72
ENDBRANCH  17  20
ENDBRANCH  15  16
BRANCH  15  76
ATOM     76  CB  LEU d   7     162.498  31.544-136.777  0.00  0.00     0.038 C 
BRANCH  76  77
ATOM     77  CG  LEU d   7     162.426  30.064-136.310  0.00  0.00    -0.020 C 
ATOM     78  CD1 LEU d   7     161.236  29.358-136.976  0.00  0.00     0.009 C 
ATOM     79  CD2 LEU d   7     163.719  29.286-136.602  0.00  0.00     0.009 C 
ENDBRANCH  76  77
ENDBRANCH  15  76
ENDBRANCH  12  15
ENDBRANCH  10  11
BRANCH  10  80
ATOM     80  CB  ASP d   8     161.641  36.828-136.174  0.00  0.00     0.147 C 
BRANCH  80  81
ATOM     81  CG  ASP d   8     161.422  38.249-136.714  0.00  0.00     0.175 C 
ATOM     82  OD1 ASP d   8     161.486  38.448-137.945  0.00  0.00    -0.648 OA
ATOM     83  OD2 ASP d   8     161.229  39.174-135.899  0.00  0.00    -0.648 OA
ENDBRANCH  80  81
ENDBRANCH  10  80
ENDBRANCH   7  10
ENDBRANCH   5   6
BRANCH   5  84
ATOM     84  CB  GLU d   9     166.682  37.070-134.303  0.00  0.00     0.045 C 
BRANCH  84  85
ATOM     85  CG  GLU d   9     168.064  37.763-134.073  0.00  0.00     0.116 C 
BRANCH  85  86
ATOM     86  CD  GLU d   9     168.766  37.550-132.745  0.00  0.00     0.172 C 
ATOM     87  OE1 GLU d   9     168.245  36.859-131.849  0.00  0.00    -0.648 OA
ATOM     88  OE2 GLU d   9     169.885  38.088-132.613  0.00  0.00    -0.648 OA
ENDBRANCH  85  86
ENDBRANCH  84  85
ENDBRANCH   5  84
ENDBRANCH   1   5
BRANCH   3  89
ATOM     89  CA  HIS d  10     167.952  34.965-137.994  0.00  0.00     0.182 C 
BRANCH  89  90
ATOM     90  C   HIS d  10     167.584  35.529-139.345  0.00  0.00     0.241 C 
ATOM     91  O   HIS d  10     168.437  35.995-140.117  0.00  0.00    -0.271 OA
ATOM     92  N   VAL d  11     166.347  35.528-139.708  0.00  0.00    -0.346 N 
ATOM     93  H   VAL d  11     165.634  35.155-139.097  0.00  0.00     0.163 HD
BRANCH  92  94
ATOM     94  CA  VAL d  11     165.991  36.074-141.015  0.00  0.00     0.180 C 
BRANCH  94  95
ATOM     95  C   VAL d  11     166.455  37.505-141.147  0.00  0.00     0.241 C 
ATOM     96  O   VAL d  11     167.056  37.910-142.150  0.00  0.00    -0.271 OA
ATOM     97  N   GLN d  12     166.217  38.330-140.185  0.00  0.00    -0.346 N 
ATOM     98  H   GLN d  12     165.729  38.024-139.355  0.00  0.00     0.163 HD
BRANCH  97  99
ATOM     99  CA  GLN d  12     166.665  39.713-140.312  0.00  0.00     0.177 C 
BRANCH  99 100
ATOM    100  C   GLN d  12     168.155  39.782-140.549  0.00  0.00     0.241 C 
ATOM    101  O   GLN d  12     168.642  40.490-141.428  0.00  0.00    -0.271 OA
ATOM    102  N   ARG d  13     168.940  39.075-139.809  0.00  0.00    -0.346 N 
ATOM    103  H   ARG d  13     168.564  38.485-139.080  0.00  0.00     0.163 HD
BRANCH 102 104
ATOM    104  CA  ARG d  13     170.380  39.142-140.039  0.00  0.00     0.176 C 
BRANCH 104 105
ATOM    105  C   ARG d  13     170.717  38.770-141.464  0.00  0.00     0.241 C 
ATOM    106  O   ARG d  13     171.485  39.443-142.149  0.00  0.00    -0.271 OA
ATOM    107  N   VAL d  14     170.181  37.716-141.979  0.00  0.00    -0.346 N 
ATOM    108  H   VAL d  14     169.547  37.147-141.437  0.00  0.00     0.163 HD
BRANCH 107 109
ATOM    109  CA  VAL d  14     170.506  37.357-143.357  0.00  0.00     0.180 C 
BRANCH 109 110
ATOM    110  C   VAL d  14     170.176  38.487-144.302  0.00  0.00     0.241 C 
ATOM    111  O   VAL d  14     170.969  38.869-145.172  0.00  0.00    -0.271 OA
ATOM    112  N   MET d  15     169.031  39.072-144.200  0.00  0.00    -0.346 N 
ATOM    113  H   MET d  15     168.366  38.779-143.499  0.00  0.00     0.163 HD
BRANCH 112 114
ATOM    114  CA  MET d  15     168.710  40.165-145.114  0.00  0.00     0.177 C 
BRANCH 114 115
ATOM    115  C   MET d  15     169.739  41.265-145.026  0.00  0.00     0.241 C 
ATOM    116  O   MET d  15     170.242  41.776-146.038  0.00  0.00    -0.271 OA
ATOM    117  N   ARG d  16     170.108  41.686-143.863  0.00  0.00    -0.347 N 
ATOM    118  H   ARG d  16     169.713  41.286-143.024  0.00  0.00     0.163 HD
BRANCH 117 119
ATOM    119  CA  ARG d  16     171.104  42.751-143.780  0.00  0.00     0.162 C 
BRANCH 119 120
ATOM    120  C   ARG d  16     172.375  42.358-144.496  0.00  0.00     0.219 C 
ATOM    121  O   ARG d  16     172.489  41.282-145.078  0.00  0.00    -0.287 OA
ENDBRANCH 119 120
BRANCH 119 122
ATOM    122  CB  ARG d  16     171.373  43.068-142.281  0.00  0.00     0.035 C 
BRANCH 122 123
ATOM    123  CG  ARG d  16     172.197  44.358-142.008  0.00  0.00     0.023 C 
BRANCH 123 124
ATOM    124  CD  ARG d  16     172.447  44.577-140.507  0.00  0.00     0.138 C 
BRANCH 124 125
ATOM    125  NE  ARG d  16     173.222  45.836-140.306  0.00  0.00    -0.227 N 
ATOM    126  CZ  ARG d  16     173.614  46.319-139.130  0.00  0.00     0.665 C 
ATOM    127  NH1 ARG d  16     173.366  45.734-137.992  0.00  0.00    -0.235 N 
ATOM    128  NH2 ARG d  16     174.277  47.432-139.112  0.00  0.00    -0.235 N 
ATOM    129 11HH ARG d  16     172.841  44.861-138.076  0.00  0.00     0.174 HD
ATOM    130 12HH ARG d  16     173.700  46.170-137.131  0.00  0.00     0.174 HD
ATOM    131 21HH ARG d  16     174.462  47.875-140.013  0.00  0.00     0.174 HD
ATOM    132 22HH ARG d  16     174.567  47.787-138.199  0.00  0.00     0.174 HD
ATOM    133  HE  ARG d  16     173.501  46.417-141.103  0.00  0.00     0.177 HD
ENDBRANCH 124 125
ENDBRANCH 123 124
ENDBRANCH 122 123
ENDBRANCH 119 122
ENDBRANCH 117 119
ENDBRANCH 114 115
BRANCH 114 134
ATOM    134  CB  MET d  15     167.288  40.710-144.805  0.00  0.00     0.045 C 
BRANCH 134 135
ATOM    135  CG  MET d  15     166.126  39.711-144.996  0.00  0.00     0.076 C 
BRANCH 135 136
ATOM    136  SD  MET d  15     164.552  40.576-144.882  0.00  0.00    -0.173 SA
ATOM    137  CE  MET d  15     163.472  39.146-144.746  0.00  0.00     0.089 C 
ENDBRANCH 135 136
ENDBRANCH 134 135
ENDBRANCH 114 134
ENDBRANCH 112 114
ENDBRANCH 109 110
BRANCH 109 138
ATOM    138  CB  VAL d  14     169.734  36.039-143.764  0.00  0.00     0.009 C 
ATOM    139  CG1 VAL d  14     169.824  35.621-145.257  0.00  0.00     0.012 C 
ATOM    140  CG2 VAL d  14     170.167  34.787-142.963  0.00  0.00     0.012 C 
ENDBRANCH 109 138
ENDBRANCH 107 109
ENDBRANCH 104 105
BRANCH 104 141
ATOM    141  CB  ARG d  13     171.094  38.203-139.026  0.00  0.00     0.036 C 
BRANCH 141 142
ATOM    142  CG  ARG d  13     172.639  38.357-138.945  0.00  0.00     0.023 C 
BRANCH 142 143
ATOM    143  CD  ARG d  13     173.267  37.369-137.947  0.00  0.00     0.138 C 
BRANCH 143 144
ATOM    144  NE  ARG d  13     174.744  37.577-137.896  0.00  0.00    -0.227 N 
ATOM    145  CZ  ARG d  13     175.592  36.886-137.141  0.00  0.00     0.665 C 
ATOM    146  NH1 ARG d  13     175.227  35.921-136.344  0.00  0.00    -0.235 N 
ATOM    147  NH2 ARG d  13     176.851  37.185-137.198  0.00  0.00    -0.235 N 
ATOM    148 11HH ARG d  13     174.222  35.734-136.347  0.00  0.00     0.174 HD
ATOM    149 12HH ARG d  13     175.941  35.438-135.795  0.00  0.00     0.174 HD
ATOM    150 21HH ARG d  13     177.118  37.943-137.829  0.00  0.00     0.174 HD
ATOM    151 22HH ARG d  13     177.487  36.644-136.610  0.00  0.00     0.174 HD
ATOM    152  HE  ARG d  13     175.194  38.299-138.467  0.00  0.00     0.177 HD
ENDBRANCH 143 144
ENDBRANCH 142 143
ENDBRANCH 141 142
ENDBRANCH 104 141
ENDBRANCH 102 104
ENDBRANCH  99 100
BRANCH  99 153
ATOM    153  CB  GLN d  12     166.274  40.481-139.029  0.00  0.00     0.044 C 
BRANCH 153 154
ATOM    154  CG  GLN d  12     166.634  42.003-138.998  0.00  0.00     0.105 C 
BRANCH 154 155
ATOM    155  CD  GLN d  12     166.331  42.816-137.733  0.00  0.00     0.215 C 
ATOM    156  NE2 GLN d  12     165.764  42.239-136.704  0.00  0.00    -0.370 N 
ATOM    157 21HE GLN d  12     165.657  42.833-135.880  0.00  0.00     0.159 HD
ATOM    158 22HE GLN d  12     165.601  41.235-136.807  0.00  0.00     0.159 HD
ATOM    159  OE1 GLN d  12     166.632  43.997-137.655  0.00  0.00    -0.274 OA
ENDBRANCH 154 155
ENDBRANCH 153 154
ENDBRANCH  99 153
ENDBRANCH  97  99
ENDBRANCH  94  95
BRANCH  94 160
ATOM    160  CB  VAL d  11     164.430  35.967-141.234  0.00  0.00     0.009 C 
ATOM    161  CG1 VAL d  11     163.861  36.670-142.497  0.00  0.00     0.012 C 
ATOM    162  CG2 VAL d  11     163.906  34.512-141.307  0.00  0.00     0.012 C 
ENDBRANCH  94 160
ENDBRANCH  92  94
ENDBRANCH  89  90
BRANCH  89 163
ATOM    163  CB  HIS d  10     167.788  33.436-137.989  0.00  0.00     0.095 C 
BRANCH 163 164
ATOM    164  CG  HIS d  10     169.074  32.726-137.681  0.00  0.00     0.053 A 
ATOM    165  CD2 HIS d  10     169.455  32.391-136.389  0.00  0.00     0.116 A 
ATOM    166  NE2 HIS d  10     170.670  31.760-136.455  0.00  0.00    -0.359 N 
ATOM    167  CE1 HIS d  10     170.933  31.763-137.791  0.00  0.00     0.207 A 
ATOM    168  2HE HIS d  10     171.237  31.383-135.682  0.00  0.00     0.166 HD
ATOM    169  ND1 HIS d  10     170.026  32.321-138.614  0.00  0.00    -0.247 NA
ENDBRANCH 163 164
ENDBRANCH  89 163
ENDBRANCH   3  89
TORSDOF 70
