@<TRIPOS>MOLECULE
16-16
258 259 16              
SMALL
USER_CHARGES
@<TRIPOS>ATOM
1	   N	2617.423	802.199	-2736.888	N.3	1	GLU1	-0.516	
2	  CA	2617.982	803.548	-2736.888	C.3	1	GLU1	0.040	
3	   C	2619.491	803.508	-2736.888	C.2	1	GLU1	0.537	
4	   O	2620.167	804.207	-2737.657	O.2	1	GLU1	-0.582	
5	  CB	2617.459	804.333	-2735.652	C.3	1	GLU1	0.056	
6	  CG	2617.934	805.818	-2735.541	C.3	1	GLU1	0.014	
7	  CD	2617.510	806.622	-2734.325	C.2	1	GLU1	0.805	
8	 OE1	2616.782	806.120	-2733.448	O.co2	1	GLU1	-0.819	
9	 OE2	2617.940	807.792	-2734.253	O.co2	1	GLU1	-0.819	
10	   H	2618.050	801.320	-2736.888	 H	1	GLU1	0.294	
11	  HA	2617.656	804.066	-2737.809	 H	1	GLU1	0.111	
12	 2HB	2617.748	803.802	-2734.721	 H	1	GLU1	-0.017	
13	 3HB	2616.352	804.323	-2735.638	 H	1	GLU1	-0.017	
14	 2HG	2617.624	806.403	-2736.421	 H	1	GLU1	-0.043	
15	 3HG	2619.034	805.885	-2735.511	 H	1	GLU1	-0.043	
16	   N	2620.096	802.722	-2736.063	N.am	2	ASN2	-0.416	
17	  CA	2621.555	802.683	-2736.063	C.3	2	ASN2	0.014	
18	   C	2622.087	802.327	-2737.432	C.2	2	ASN2	0.597	
19	   O	2623.002	802.958	-2737.960	O.2	2	ASN2	-0.568	
20	  CB	2622.047	801.660	-2734.999	C.3	2	ASN2	-0.204	
21	  CG	2621.583	801.884	-2733.555	C.2	2	ASN2	0.713	
22	 ND2	2622.177	802.799	-2732.837	N.pl3	2	ASN2	-0.919	
23	 OD1	2620.662	801.250	-2733.061	O.2	2	ASN2	-0.593	
24	   H	2619.568	802.142	-2735.427	 H	2	ASN2	0.272	
25	  HA	2621.933	803.693	-2735.818	 H	2	ASN2	0.105	
26	 2HB	2623.151	801.601	-2735.002	 H	2	ASN2	0.080	
27	 3HB	2621.718	800.642	-2735.284	 H	2	ASN2	0.080	
28	1HD2	2621.697	802.972	-2731.950	 H	2	ASN2	0.420	
29	2HD2	2622.879	803.370	-2733.306	 H	2	ASN2	0.420	
30	   N	2621.565	801.332	-2738.066	N.am	3	PRO3	-0.255	
31	  CA	2622.017	800.923	-2739.387	C.3	3	PRO3	-0.027	
32	   C	2621.620	801.947	-2740.464	C.2	3	PRO3	0.590	
33	   O	2622.443	802.330	-2741.296	O.2	3	PRO3	-0.575	
34	  CB	2621.313	799.569	-2739.557	C.3	3	PRO3	-0.007	
35	  CG	2620.029	799.721	-2738.727	C.3	3	PRO3	0.019	
36	  CD	2620.487	800.540	-2737.517	C.3	3	PRO3	0.019	
37	  HA	2623.103	800.803	-2739.401	 H	3	PRO3	0.064	
38	 2HB	2621.936	798.787	-2739.116	 H	3	PRO3	0.025	
39	 3HB	2621.115	799.320	-2740.602	 H	3	PRO3	0.025	
40	 2HG	2619.602	798.759	-2738.436	 H	3	PRO3	0.021	
41	 3HG	2619.292	800.292	-2739.295	 H	3	PRO3	0.021	
42	 2HD	2620.876	799.890	-2736.730	 H	3	PRO3	0.039	
43	 3HD	2619.690	801.175	-2737.125	 H	3	PRO3	0.039	
44	   N	2620.415	802.407	-2740.497	N.am	4	GLU4	-0.516	
45	  CA	2620.056	803.378	-2741.527	C.3	4	GLU4	0.040	
46	   C	2620.955	804.589	-2741.465	C.2	4	GLU4	0.537	
47	   O	2621.482	805.068	-2742.479	O.2	4	GLU4	-0.582	
48	  CB	2618.567	803.797	-2741.357	C.3	4	GLU4	0.056	
49	  CG	2618.020	804.801	-2742.423	C.3	4	GLU4	0.014	
50	  CD	2616.593	805.298	-2742.280	C.2	4	GLU4	0.805	
51	 OE1	2615.866	804.900	-2741.349	O.co2	4	GLU4	-0.819	
52	 OE2	2616.204	806.127	-2743.128	O.co2	4	GLU4	-0.819	
53	   H	2619.730	802.100	-2739.821	 H	4	GLU4	0.294	
54	  HA	2620.187	802.908	-2742.518	 H	4	GLU4	0.111	
55	 2HB	2618.414	804.237	-2740.351	 H	4	GLU4	-0.017	
56	 3HB	2617.919	802.899	-2741.364	 H	4	GLU4	-0.017	
57	 2HG	2618.102	804.386	-2743.441	 H	4	GLU4	-0.043	
58	 3HG	2618.608	805.733	-2742.434	 H	4	GLU4	-0.043	
59	   N	2621.182	805.141	-2740.322	N.am	5	SER5	-0.416	
60	  CA	2622.052	806.312	-2740.263	C.3	5	SER5	-0.025	
61	   C	2623.411	806.006	-2740.848	C.2	5	SER5	0.597	
62	   O	2623.958	806.760	-2741.653	O.2	5	SER5	-0.568	
63	  CB	2622.163	806.844	-2738.813	C.3	5	SER5	0.212	
64	  OG	2622.894	805.965	-2737.952	O.3	5	SER5	-0.655	
65	   H	2620.764	804.770	-2739.481	 H	5	SER5	0.272	
66	  HA	2621.603	807.103	-2740.892	 H	5	SER5	0.084	
67	 2HB	2621.163	807.039	-2738.380	 H	5	SER5	0.035	
68	 3HB	2622.668	807.830	-2738.815	 H	5	SER5	0.035	
69	  HG	2622.405	805.140	-2737.901	 H	5	SER5	0.428	
70	   N	2624.015	804.923	-2740.494	N.am	6	ILE6	-0.416	
71	  CA	2625.328	804.628	-2741.060	C.3	6	ILE6	-0.060	
72	   C	2625.271	804.590	-2742.568	C.2	6	ILE6	0.597	
73	   O	2626.106	805.177	-2743.272	O.2	6	ILE6	-0.568	
74	  CB	2625.927	803.291	-2740.460	C.3	6	ILE6	0.130	
75	 CG1	2625.946	803.229	-2738.899	C.3	6	ILE6	-0.043	
76	 CG2	2627.368	802.989	-2740.975	C.3	6	ILE6	-0.320	
77	 CD1	2626.216	801.840	-2738.284	C.3	6	ILE6	-0.066	
78	   H	2623.586	804.289	-2739.835	 H	6	ILE6	0.272	
79	  HA	2626.002	805.462	-2740.792	 H	6	ILE6	0.087	
80	  HB	2625.269	802.465	-2740.804	 H	6	ILE6	0.019	
81	2HG1	2624.964	803.549	-2738.503	 H	6	ILE6	0.024	
82	3HG1	2626.662	803.971	-2738.494	 H	6	ILE6	0.024	
83	1HG2	2627.427	802.895	-2742.073	 H	6	ILE6	0.088	
84	2HG2	2628.091	803.771	-2740.672	 H	6	ILE6	0.088	
85	3HG2	2627.758	802.027	-2740.596	 H	6	ILE6	0.088	
86	1HD1	2625.487	801.086	-2738.639	 H	6	ILE6	0.019	
87	2HD1	2627.226	801.461	-2738.519	 H	6	ILE6	0.019	
88	3HD1	2626.139	801.870	-2737.181	 H	6	ILE6	0.019	
89	   N	2624.325	803.927	-2743.141	N.am	7	LEU7	-0.416	
90	  CA	2624.270	803.891	-2744.600	C.3	7	LEU7	-0.052	
91	   C	2624.198	805.286	-2745.173	C.2	7	LEU7	0.597	
92	   O	2624.919	805.648	-2746.115	O.2	7	LEU7	-0.568	
93	  CB	2623.067	803.031	-2745.080	C.3	7	LEU7	-0.110	
94	  CG	2622.993	801.551	-2744.614	C.3	7	LEU7	0.353	
95	 CD1	2621.803	800.846	-2745.279	C.3	7	LEU7	-0.412	
96	 CD2	2624.287	800.772	-2744.905	C.3	7	LEU7	-0.412	
97	   H	2623.633	803.440	-2742.590	 H	7	LEU7	0.272	
98	  HA	2625.212	803.450	-2744.974	 H	7	LEU7	0.092	
99	 2HB	2623.043	803.047	-2746.188	 H	7	LEU7	0.046	
100	 3HB	2622.127	803.534	-2744.776	 H	7	LEU7	0.046	
101	  HG	2622.823	801.543	-2743.517	 H	7	LEU7	-0.036	
102	1HD1	2620.846	801.355	-2745.057	 H	7	LEU7	0.100	
103	2HD1	2621.903	800.805	-2746.381	 H	7	LEU7	0.100	
104	3HD1	2621.696	799.805	-2744.923	 H	7	LEU7	0.100	
105	1HD2	2624.562	800.802	-2745.975	 H	7	LEU7	0.100	
106	2HD2	2625.140	801.183	-2744.334	 H	7	LEU7	0.100	
107	3HD2	2624.205	799.709	-2744.609	 H	7	LEU7	0.100	
108	   N	2623.361	806.127	-2744.667	N.am	8	ASP8	-0.516	
109	  CA	2623.291	807.476	-2745.221	C.3	8	ASP8	0.038	
110	   C	2624.638	808.155	-2745.164	C.2	8	ASP8	0.537	
111	   O	2625.111	808.760	-2746.139	O.2	8	ASP8	-0.582	
112	  CB	2622.214	808.316	-2744.480	C.3	8	ASP8	-0.030	
113	  CG	2621.996	809.737	-2745.021	C.2	8	ASP8	0.799	
114	 OD1	2622.060	809.935	-2746.252	O.co2	8	ASP8	-0.801	
115	 OD2	2621.804	810.663	-2744.207	O.co2	8	ASP8	-0.801	
116	   H	2622.763	805.857	-2743.899	 H	8	ASP8	0.294	
117	  HA	2623.008	807.398	-2746.288	 H	8	ASP8	0.088	
118	 2HB	2622.471	808.400	-2743.408	 H	8	ASP8	-0.012	
119	 3HB	2621.234	807.812	-2744.513	 H	8	ASP8	-0.012	
120	   N	2625.318	808.106	-2744.069	N.am	9	GLU9	-0.516	
121	  CA	2626.622	808.763	-2744.014	C.3	9	GLU9	0.040	
122	   C	2627.539	808.234	-2745.090	C.2	9	GLU9	0.537	
123	   O	2628.203	808.988	-2745.816	O.2	9	GLU9	-0.582	
124	  CB	2627.255	808.555	-2742.609	C.3	9	GLU9	0.056	
125	  CG	2628.638	809.247	-2742.380	C.3	9	GLU9	0.014	
126	  CD	2629.340	809.034	-2741.052	C.2	9	GLU9	0.805	
127	 OE1	2628.818	808.344	-2740.155	O.co2	9	GLU9	-0.819	
128	 OE2	2630.459	809.572	-2740.921	O.co2	9	GLU9	-0.819	
129	   H	2624.955	807.620	-2743.262	 H	9	GLU9	0.294	
130	  HA	2626.480	809.845	-2744.190	 H	9	GLU9	0.111	
131	 2HB	2627.367	807.471	-2742.405	 H	9	GLU9	-0.017	
132	 3HB	2626.558	808.910	-2741.825	 H	9	GLU9	-0.017	
133	 2HG	2628.566	810.338	-2742.521	 H	9	GLU9	-0.043	
134	 3HG	2629.385	808.902	-2743.114	 H	9	GLU9	-0.043	
135	   N	2627.635	806.959	-2745.259	N.am	10	HIS10	-0.416	
136	  CA	2628.522	806.447	-2746.300	C.3	10	HIS10	-0.058	
137	   C	2628.155	807.011	-2747.651	C.2	10	HIS10	0.597	
138	   O	2629.008	807.475	-2748.423	O.2	10	HIS10	-0.568	
139	  CB	2628.358	804.918	-2746.294	C.3	10	HIS10	-0.007	
140	  CG	2629.643	804.207	-2745.986	C.2	10	HIS10	0.187	
141	 CD2	2630.024	803.873	-2744.693	C.2	10	HIS10	-0.221	
142	 ND1	2630.594	803.800	-2746.918	N.2	10	HIS10	-0.543	
143	 CE1	2631.501	803.242	-2746.095	C.2	10	HIS10	0.163	
144	 NE2	2631.239	803.240	-2744.760	N.pl3	10	HIS10	-0.280	
145	   H	2627.104	806.324	-2744.680	 H	10	HIS10	0.272	
146	  HA	2629.542	806.804	-2746.075	 H	10	HIS10	0.136	
147	 2HB	2627.992	804.551	-2747.273	 H	10	HIS10	0.037	
148	 3HB	2627.602	804.582	-2745.553	 H	10	HIS10	0.037	
149	 2HD	2629.439	804.088	-2743.804	 H	10	HIS10	0.186	
150	 1HE	2632.392	802.820	-2746.542	 H	10	HIS10	0.144	
151	 2HE	2631.806	802.863	-2743.987	 H	10	HIS10	0.334	
152	   N	2626.917	807.010	-2748.014	N.am	11	VAL11	-0.416	
153	  CA	2626.562	807.556	-2749.321	C.3	11	VAL11	-0.087	
154	   C	2627.028	808.986	-2749.454	C.2	11	VAL11	0.597	
155	   O	2627.629	809.390	-2750.457	O.2	11	VAL11	-0.568	
156	  CB	2625.001	807.450	-2749.540	C.3	11	VAL11	0.299	
157	 CG1	2624.433	808.153	-2750.803	C.3	11	VAL11	-0.319	
158	 CG2	2624.476	805.996	-2749.612	C.3	11	VAL11	-0.319	
159	   H	2626.204	806.638	-2747.403	 H	11	VAL11	0.272	
160	  HA	2627.082	806.973	-2750.103	 H	11	VAL11	0.097	
161	  HB	2624.514	807.931	-2748.665	 H	11	VAL11	-0.030	
162	1HG1	2624.871	807.761	-2751.740	 H	11	VAL11	0.079	
163	2HG1	2623.333	808.047	-2750.885	 H	11	VAL11	0.079	
164	3HG1	2624.611	809.246	-2750.794	 H	11	VAL11	0.079	
165	1HG2	2624.765	805.409	-2748.721	 H	11	VAL11	0.079	
166	2HG2	2623.370	805.959	-2749.655	 H	11	VAL11	0.079	
167	3HG2	2624.857	805.454	-2750.498	 H	11	VAL11	0.079	
168	   N	2626.791	809.812	-2748.492	N.am	12	GLN12	-0.416	
169	  CA	2627.240	811.195	-2748.620	C.3	12	GLN12	-0.003	
170	   C	2628.730	811.261	-2748.858	C.2	12	GLN12	0.597	
171	   O	2629.218	811.969	-2749.737	O.2	12	GLN12	-0.568	
172	  CB	2626.850	811.963	-2747.338	C.3	12	GLN12	-0.004	
173	  CG	2627.211	813.485	-2747.307	C.3	12	GLN12	-0.064	
174	  CD	2626.910	814.299	-2746.043	C.2	12	GLN12	0.695	
175	 NE2	2626.343	813.724	-2745.014	N.pl3	12	GLN12	-0.941	
176	 OE1	2627.212	815.480	-2745.966	O.2	12	GLN12	-0.609	
177	   H	2626.302	809.507	-2747.663	 H	12	GLN12	0.272	
178	  HA	2626.741	811.651	-2749.495	 H	12	GLN12	0.085	
179	 2HB	2627.326	811.463	-2746.468	 H	12	GLN12	0.017	
180	 3HB	2625.760	811.857	-2747.174	 H	12	GLN12	0.017	
181	 2HG	2626.734	814.006	-2748.158	 H	12	GLN12	0.035	
182	 3HG	2628.295	813.627	-2747.473	 H	12	GLN12	0.035	
183	1HE2	2626.236	814.319	-2744.190	 H	12	GLN12	0.425	
184	2HE2	2626.178	812.720	-2745.116	 H	12	GLN12	0.425	
185	   N	2629.515	810.555	-2748.117	N.am	13	ARG13	-0.348	
186	  CA	2630.955	810.620	-2748.348	C.3	13	ARG13	-0.264	
187	   C	2631.291	810.247	-2749.773	C.2	13	ARG13	0.734	
188	   O	2632.060	810.919	-2750.458	O.2	13	ARG13	-0.589	
189	  CB	2631.668	809.682	-2747.334	C.3	13	ARG13	-0.001	
190	  CG	2633.213	809.834	-2747.253	C.3	13	ARG13	0.039	
191	  CD	2633.840	808.847	-2746.255	C.3	13	ARG13	0.049	
192	  NE	2635.317	809.054	-2746.205	N.pl3	13	ARG13	-0.530	
193	  CZ	2636.166	808.363	-2745.450	C.cat	13	ARG13	0.808	
194	 NH1	2635.801	807.399	-2744.651	N.pl3	13	ARG13	-0.863	
195	 NH2	2637.425	808.661	-2745.507	N.pl3	13	ARG13	-0.863	
196	   H	2629.138	809.966	-2747.388	 H	13	ARG13	0.275	
197	  HA	2631.280	811.666	-2748.191	 H	13	ARG13	0.156	
198	 2HB	2631.402	808.631	-2747.572	 H	13	ARG13	0.033	
199	 3HB	2631.243	809.849	-2746.323	 H	13	ARG13	0.033	
200	 2HG	2633.462	810.879	-2746.975	 H	13	ARG13	0.029	
201	 3HG	2633.664	809.677	-2748.255	 H	13	ARG13	0.029	
202	 2HD	2633.595	807.807	-2746.563	 H	13	ARG13	0.069	
203	 3HD	2633.385	808.994	-2745.252	 H	13	ARG13	0.069	
204	  HE	2635.769	809.776	-2746.777	 H	13	ARG13	0.346	
205	1HH1	2634.795	807.213	-2744.654	 H	13	ARG13	0.448	
206	2HH1	2636.514	806.916	-2744.103	 H	13	ARG13	0.448	
207	1HH2	2637.693	809.419	-2746.139	 H	13	ARG13	0.448	
208	2HH2	2638.061	808.120	-2744.918	 H	13	ARG13	0.448	
209	   N	2630.754	809.193	-2750.287	N.am	14	VAL14	-0.416	
210	  CA	2631.079	808.833	-2751.664	C.3	14	VAL14	-0.087	
211	   C	2630.749	809.962	-2752.610	C.2	14	VAL14	0.597	
212	   O	2631.542	810.343	-2753.480	O.2	14	VAL14	-0.568	
213	  CB	2630.306	807.516	-2752.070	C.3	14	VAL14	0.299	
214	 CG1	2630.394	807.096	-2753.563	C.3	14	VAL14	-0.319	
215	 CG2	2630.737	806.264	-2751.269	C.3	14	VAL14	-0.319	
216	   H	2630.119	808.625	-2749.744	 H	14	VAL14	0.272	
217	  HA	2632.167	808.655	-2751.739	 H	14	VAL14	0.097	
218	  HB	2629.229	807.687	-2751.854	 H	14	VAL14	-0.030	
219	1HG1	2631.436	806.919	-2753.892	 H	14	VAL14	0.079	
220	2HG1	2629.821	806.173	-2753.775	 H	14	VAL14	0.079	
221	3HG1	2629.965	807.858	-2754.242	 H	14	VAL14	0.079	
222	1HG2	2630.650	806.423	-2750.178	 H	14	VAL14	0.079	
223	2HG2	2630.101	805.387	-2751.500	 H	14	VAL14	0.079	
224	3HG2	2631.785	805.973	-2751.475	 H	14	VAL14	0.079	
225	   N	2629.604	810.548	-2752.508	N.am	15	MET15	-0.416	
226	  CA	2629.284	811.641	-2753.422	C.3	15	MET15	-0.024	
227	   C	2630.314	812.741	-2753.335	C.2	15	MET15	0.597	
228	   O	2630.816	813.251	-2754.348	O.2	15	MET15	-0.568	
229	  CB	2627.863	812.187	-2753.113	C.3	15	MET15	0.034	
230	  CG	2626.700	811.189	-2753.304	C.3	15	MET15	0.002	
231	  SD	2625.126	812.055	-2753.190	S.3	15	MET15	-0.274	
232	  CE	2624.045	810.626	-2753.052	C.3	15	MET15	-0.054	
233	   H	2628.939	810.256	-2751.807	 H	15	MET15	0.272	
234	  HA	2629.309	811.253	-2754.458	 H	15	MET15	0.088	
235	 2HB	2627.660	813.065	-2753.756	 H	15	MET15	0.024	
236	 3HB	2627.827	812.580	-2752.077	 H	15	MET15	0.024	
237	 2HG	2626.743	810.403	-2752.526	 H	15	MET15	0.044	
238	 3HG	2626.763	810.673	-2754.280	 H	15	MET15	0.044	
239	 1HE	2624.188	809.937	-2753.905	 H	15	MET15	0.068	
240	 2HE	2624.255	810.073	-2752.120	 H	15	MET15	0.068	
241	 3HE	2622.988	810.941	-2753.036	 H	15	MET15	0.068	
242	   N	2630.683	813.162	-2752.173	N.am	16	GLN16	-0.416	
243	  CA	2631.679	814.225	-2752.089	C.3	16	GLN16	-0.003	
244	   C	2632.951	813.836	-2752.805	C.2	16	GLN16	0.597	
245	   O	2633.074	812.750	-2753.367	O.2	16	GLN16	-0.568	
246	  CB	2631.954	814.531	-2750.599	C.3	16	GLN16	-0.004	
247	  CG	2632.969	815.684	-2750.306	C.3	16	GLN16	-0.064	
248	  CD	2633.338	816.003	-2748.852	C.2	16	GLN16	0.695	
249	 NE2	2632.792	815.325	-2747.875	N.pl3	16	GLN16	-0.941	
250	 OE1	2634.156	816.869	-2748.584	O.2	16	GLN16	-0.609	
251	   H	2630.289	812.762	-2751.334	 H	16	GLN16	0.272	
252	  HA	2631.279	815.128	-2752.587	 H	16	GLN16	0.085	
253	 2HB	2632.313	813.602	-2750.110	 H	16	GLN16	0.017	
254	 3HB	2630.995	814.771	-2750.101	 H	16	GLN16	0.017	
255	 2HG	2632.622	816.624	-2750.774	 H	16	GLN16	0.035	
256	 3HG	2633.938	815.477	-2750.796	 H	16	GLN16	0.035	
257	1HE2	2633.139	815.555	-2746.942	 H	16	GLN16	0.425	
258	2HE2	2632.170	814.570	-2748.168	 H	16	GLN16	0.425	
@<TRIPOS>BOND
1 1 2 1
2 1 10 1
3 2 3 1
4 2 5 1
5 2 11 1
6 3 4 2
7 3 16 1
8 5 6 1
9 6 7 1
10 7 8 2
11 7 9 1
12 5 12 1
13 5 13 1
14 6 14 1
15 6 15 1
16 16 17 1
17 16 24 1
18 17 18 1
19 17 20 1
20 17 25 1
21 18 19 2
22 18 30 1
23 20 21 1
24 21 22 1
25 21 23 2
26 20 26 1
27 20 27 1
28 22 28 1
29 22 29 1
30 30 31 1
31 30 36 1
32 31 32 1
33 31 34 1
34 31 37 1
35 32 33 2
36 32 44 1
37 34 35 1
38 35 36 1
39 34 38 1
40 34 39 1
41 35 40 1
42 35 41 1
43 36 42 1
44 36 43 1
45 44 45 1
46 44 53 1
47 45 46 1
48 45 48 1
49 45 54 1
50 46 47 2
51 46 59 1
52 48 49 1
53 49 50 1
54 50 51 2
55 50 52 1
56 48 55 1
57 48 56 1
58 49 57 1
59 49 58 1
60 59 60 1
61 59 65 1
62 60 61 1
63 60 63 1
64 60 66 1
65 61 62 2
66 61 70 1
67 63 64 1
68 63 67 1
69 63 68 1
70 64 69 1
71 70 71 1
72 70 78 1
73 71 72 1
74 71 74 1
75 71 79 1
76 72 73 2
77 72 89 1
78 74 75 1
79 74 76 1
80 75 77 1
81 74 80 1
82 75 81 1
83 75 82 1
84 76 83 1
85 76 84 1
86 76 85 1
87 77 86 1
88 77 87 1
89 77 88 1
90 89 90 1
91 89 97 1
92 90 91 1
93 90 93 1
94 90 98 1
95 91 92 2
96 91 108 1
97 93 94 1
98 94 95 1
99 94 96 1
100 93 99 1
101 93 100 1
102 94 101 1
103 95 102 1
104 95 103 1
105 95 104 1
106 96 105 1
107 96 106 1
108 96 107 1
109 108 109 1
110 108 116 1
111 109 110 1
112 109 112 1
113 109 117 1
114 110 111 2
115 110 120 1
116 112 113 1
117 113 114 2
118 113 115 1
119 112 118 1
120 112 119 1
121 120 121 1
122 120 129 1
123 121 122 1
124 121 124 1
125 121 130 1
126 122 123 2
127 122 135 1
128 124 125 1
129 125 126 1
130 126 127 2
131 126 128 1
132 124 131 1
133 124 132 1
134 125 133 1
135 125 134 1
136 135 136 1
137 135 145 1
138 136 137 1
139 136 139 1
140 136 146 1
141 137 138 2
142 137 152 1
143 139 140 1
144 140 141 2
145 141 144 1
146 140 142 1
147 142 143 2
148 143 144 1
149 139 147 1
150 139 148 1
151 141 149 1
152 143 150 1
153 144 151 1
154 152 153 1
155 152 159 1
156 153 154 1
157 153 156 1
158 153 160 1
159 154 155 2
160 154 168 1
161 156 157 1
162 156 158 1
163 156 161 1
164 157 162 1
165 157 163 1
166 157 164 1
167 158 165 1
168 158 166 1
169 158 167 1
170 168 169 1
171 168 177 1
172 169 170 1
173 169 172 1
174 169 178 1
175 170 171 2
176 170 185 1
177 172 173 1
178 173 174 1
179 174 175 1
180 174 176 2
181 172 179 1
182 172 180 1
183 173 181 1
184 173 182 1
185 175 183 1
186 175 184 1
187 185 186 1
188 185 196 1
189 186 187 1
190 186 189 1
191 186 197 1
192 187 188 2
193 187 209 1
194 189 190 1
195 190 191 1
196 191 192 1
197 192 193 1
198 193 194 2
199 193 195 1
200 189 198 1
201 189 199 1
202 190 200 1
203 190 201 1
204 191 202 1
205 191 203 1
206 192 204 1
207 194 205 1
208 194 206 1
209 195 207 1
210 195 208 1
211 209 210 1
212 209 216 1
213 210 211 1
214 210 213 1
215 210 217 1
216 211 212 2
217 211 225 1
218 213 214 1
219 213 215 1
220 213 218 1
221 214 219 1
222 214 220 1
223 214 221 1
224 215 222 1
225 215 223 1
226 215 224 1
227 225 226 1
228 225 233 1
229 226 227 1
230 226 229 1
231 226 234 1
232 227 228 2
233 227 242 1
234 229 230 1
235 230 231 1
236 231 232 1
237 229 235 1
238 229 236 1
239 230 237 1
240 230 238 1
241 232 239 1
242 232 240 1
243 232 241 1
244 242 243 1
245 242 251 1
246 243 244 1
247 243 246 1
248 243 252 1
249 244 245 2
250 246 247 1
251 247 248 1
252 248 249 1
253 248 250 2
254 246 253 1
255 246 254 1
256 247 255 1
257 247 256 1
258 249 257 1
259 249 258 1
@<TRIPOS>SUBSTRUCTURE
1	GLU1	1	RESIDUE	1 ****	GLU
2	ASN2	16	RESIDUE	1 ****	ASN
3	PRO3	30	RESIDUE	1 ****	PRO
4	GLU4	44	RESIDUE	1 ****	GLU
5	SER5	59	RESIDUE	1 ****	SER
6	ILE6	70	RESIDUE	1 ****	ILE
7	LEU7	89	RESIDUE	1 ****	LEU
8	ASP8	108	RESIDUE	1 ****	ASP
9	GLU9	120	RESIDUE	1 ****	GLU
10	HIS10	135	RESIDUE	1 ****	HIS
11	VAL11	152	RESIDUE	1 ****	VAL
12	GLN12	168	RESIDUE	1 ****	GLN
13	ARG13	185	RESIDUE	1 ****	ARG
14	VAL14	209	RESIDUE	1 ****	VAL
15	MET15	225	RESIDUE	1 ****	MET
16	GLN16	242	RESIDUE	1 ****	GLN
