REMARK WARNING: 32 MAX_TORS EXCEEDED!!!
REMARK  65 active torsions:
REMARK  status: ('A' for Active; 'I' for Inactive)
REMARK    1  A    between atoms: N_1  and  CA_2 
REMARK    2  A    between atoms: CA_2  and  C_3 
REMARK    3  A    between atoms: CA_2  and  CB_5 
REMARK       I    between atoms: C_3  and  N_11 
REMARK    4  A    between atoms: CB_5  and  CG_6 
REMARK    5  A    between atoms: CG_6  and  CD_7 
REMARK    6  A    between atoms: N_11  and  CA_12 
REMARK    7  A    between atoms: CA_12  and  C_13 
REMARK    8  A    between atoms: CA_12  and  CB_15 
REMARK       I    between atoms: C_13  and  N_22 
REMARK    9  A    between atoms: CB_15  and  CG_16 
REMARK       I    between atoms: CG_16  and  ND2_17 
REMARK   10  A    between atoms: CA_23  and  C_24 
REMARK       I    between atoms: C_24  and  N_29 
REMARK   11  A    between atoms: N_29  and  CA_30 
REMARK   12  A    between atoms: CA_30  and  C_31 
REMARK       I    between atoms: C_31  and  N_34 
REMARK   13  A    between atoms: N_34  and  CA_35 
REMARK   14  A    between atoms: CA_35  and  C_36 
REMARK   15  A    between atoms: CA_35  and  CB_38 
REMARK       I    between atoms: C_36  and  N_42 
REMARK   16  A    between atoms: CB_38  and  OG_39 
REMARK   17  A    between atoms: N_42  and  CA_43 
REMARK   18  A    between atoms: CA_43  and  C_44 
REMARK   19  A    between atoms: CA_43  and  CB_46 
REMARK       I    between atoms: C_44  and  N_51 
REMARK   20  A    between atoms: CB_46  and  CG1_47 
REMARK   21  A    between atoms: N_51  and  CA_52 
REMARK   22  A    between atoms: CA_52  and  C_53 
REMARK   23  A    between atoms: CA_52  and  CB_55 
REMARK       I    between atoms: C_53  and  N_60 
REMARK   24  A    between atoms: CB_55  and  CG_56 
REMARK   25  A    between atoms: N_60  and  CA_61 
REMARK   26  A    between atoms: CA_61  and  C_62 
REMARK   27  A    between atoms: CA_61  and  CB_64 
REMARK       I    between atoms: C_62  and  N_69 
REMARK   28  A    between atoms: CB_64  and  CG_65 
REMARK   29  A    between atoms: N_69  and  CA_70 
REMARK   30  A    between atoms: CA_70  and  C_71 
REMARK   31  A    between atoms: CA_70  and  CB_73 
REMARK       I    between atoms: C_71  and  N_79 
REMARK   32  A    between atoms: CB_73  and  CG_74 
REMARK   33  A    between atoms: CG_74  and  CD_75 
REMARK   34  A    between atoms: N_79  and  CA_80 
REMARK   35  A    between atoms: CA_80  and  C_81 
REMARK   36  A    between atoms: CA_80  and  CB_83 
REMARK       I    between atoms: C_81  and  N_91 
REMARK   37  A    between atoms: CB_83  and  CG_84 
REMARK   38  A    between atoms: N_91  and  CA_92 
REMARK   39  A    between atoms: CA_92  and  C_93 
REMARK   40  A    between atoms: CA_92  and  CB_95 
REMARK       I    between atoms: C_93  and  N_99 
REMARK   41  A    between atoms: N_99  and  CA_100 
REMARK   42  A    between atoms: CA_100  and  C_101 
REMARK   43  A    between atoms: CA_100  and  CB_103 
REMARK       I    between atoms: C_101  and  N_111 
REMARK   44  A    between atoms: CB_103  and  CG_104 
REMARK   45  A    between atoms: CG_104  and  CD_105 
REMARK       I    between atoms: CD_105  and  NE2_106 
REMARK   46  A    between atoms: N_111  and  CA_112 
REMARK   47  A    between atoms: CA_112  and  C_113 
REMARK   48  A    between atoms: CA_112  and  CB_115 
REMARK       I    between atoms: C_113  and  N_128 
REMARK   49  A    between atoms: CB_115  and  CG_116 
REMARK   50  A    between atoms: CG_116  and  CD_117 
REMARK   51  A    between atoms: CD_117  and  NE_118 
REMARK       I    between atoms: NE_118  and  CZ_119 
REMARK       I    between atoms: CZ_119  and  NH1_120 
REMARK       I    between atoms: CZ_119  and  NH2_121 
REMARK   52  A    between atoms: N_128  and  CA_129 
REMARK   53  A    between atoms: CA_129  and  C_130 
REMARK   54  A    between atoms: CA_129  and  CB_132 
REMARK       I    between atoms: C_130  and  N_136 
REMARK   55  A    between atoms: N_136  and  CA_137 
REMARK   56  A    between atoms: CA_137  and  C_138 
REMARK   57  A    between atoms: CA_137  and  CB_140 
REMARK       I    between atoms: C_138  and  N_145 
REMARK   58  A    between atoms: CB_140  and  CG_141 
REMARK   59  A    between atoms: CG_141  and  SD_142 
REMARK   60  A    between atoms: N_145  and  CA_146 
REMARK   61  A    between atoms: CA_146  and  C_147 
REMARK   62  A    between atoms: CA_146  and  CB_149 
REMARK   63  A    between atoms: CB_149  and  CG_150 
REMARK   64  A    between atoms: CG_150  and  CD_151 
REMARK   65  A    between atoms: CD_151  and  NE_152 
REMARK       I    between atoms: NE_152  and  CZ_153 
REMARK       I    between atoms: CZ_153  and  NH1_154 
ROOT
ATOM      1  CA  HIS d  10     560.323 134.700-500.330  0.00  0.00     0.182 C 
ENDROOT
BRANCH   1   2
ATOM      2  N   HIS d  10     559.435 135.211-499.290  0.00  0.00    -0.346 N 
ATOM      3  C   GLU d   9     559.338 136.486-499.120  0.00  0.00     0.241 C 
ATOM      4  O   GLU d   9     560.002 137.241-499.845  0.00  0.00    -0.271 OA
ATOM      5  H   HIS d  10     558.904 134.575-498.712  0.00  0.00     0.163 HD
BRANCH   3   6
ATOM      6  CA  GLU d   9     558.420 137.013-498.044  0.00  0.00     0.177 C 
BRANCH   6   7
ATOM      7  N   GLU d   9     557.117 136.355-498.099  0.00  0.00    -0.346 N 
ATOM      8  C   ASP d   8     556.437 136.405-499.195  0.00  0.00     0.241 C 
ATOM      9  O   ASP d   8     556.910 137.011-500.169  0.00  0.00    -0.271 OA
ATOM     10  H   GLU d   9     556.754 135.868-497.293  0.00  0.00     0.163 HD
BRANCH   8  11
ATOM     11  CA  ASP d   8     555.091 135.725-499.252  0.00  0.00     0.186 C 
BRANCH  11  12
ATOM     12  N   ASP d   8     555.162 134.375-498.699  0.00  0.00    -0.346 N 
ATOM     13  C   LEU d   7     555.999 133.535-499.206  0.00  0.00     0.241 C 
ATOM     14  O   LEU d   7     556.720 133.898-500.148  0.00  0.00    -0.271 OA
ATOM     15  H   ASP d   8     554.564 134.104-497.932  0.00  0.00     0.163 HD
BRANCH  13  16
ATOM     16  CA  LEU d   7     556.072 132.140-498.634  0.00  0.00     0.177 C 
BRANCH  16  17
ATOM     17  N   LEU d   7     556.127 132.175-497.175  0.00  0.00    -0.346 N 
ATOM     18  C   ILE d   6     557.073 132.839-496.601  0.00  0.00     0.241 C 
ATOM     19  O   ILE d   6     557.907 133.427-497.305  0.00  0.00    -0.271 OA
ATOM     20  H   LEU d   7     555.435 131.688-496.624  0.00  0.00     0.163 HD
BRANCH  18  21
ATOM     21  CA  ILE d   6     557.130 132.876-495.094  0.00  0.00     0.180 C 
BRANCH  21  22
ATOM     22  N   ILE d   6     555.817 133.171-494.527  0.00  0.00    -0.346 N 
ATOM     23  C   SER d   5     555.212 134.254-494.881  0.00  0.00     0.243 C 
ATOM     24  O   SER d   5     555.759 135.008-495.686  0.00  0.00    -0.271 OA
ATOM     25  H   ILE d   6     555.389 132.536-493.868  0.00  0.00     0.163 HD
BRANCH  23  26
ATOM     26  CA  SER d   5     553.853 134.559-494.295  0.00  0.00     0.200 C 
BRANCH  26  27
ATOM     27  N   SER d   5     552.984 133.388-494.354  0.00  0.00    -0.344 N 
ATOM     28  C   GLY d   4     552.756 132.835-495.497  0.00  0.00     0.236 C 
ATOM     29  O   GLY d   4     553.280 133.313-496.507  0.00  0.00    -0.272 OA
ATOM     30  H   SER d   5     552.566 133.016-493.513  0.00  0.00     0.163 HD
BRANCH  28  31
ATOM     31  CA  GLY d   4     551.857 131.624-495.559  0.00  0.00     0.225 C 
BRANCH  31  32
ATOM     32  N   GLY d   4     552.217 130.653-494.529  0.00  0.00    -0.351 N 
ATOM     33  C   PRO d   3     553.422 130.193-494.497  0.00  0.00     0.241 C 
ATOM     34  O   PRO d   3     554.245 130.577-495.328  0.00  0.00    -0.271 OA
ATOM     35  H   GLY d   4     551.533 130.346-493.852  0.00  0.00     0.163 HD
BRANCH  33  36
ATOM     36  CA  PRO d   3     553.820 129.170-493.420  0.00  0.00     0.179 C 
ATOM     37  N   PRO d   3     553.368 129.579-492.098  0.00  0.00    -0.337 N 
ATOM     38  C   ASN d   2     553.889 130.574-491.464  0.00  0.00     0.243 C 
ATOM     39  CD  PRO d   3     552.290 128.786-491.549  0.00  0.00     0.127 C 
ATOM     40  O   ASN d   2     554.804 131.205-491.993  0.00  0.00    -0.271 OA
ATOM     41  CG  PRO d   3     551.833 127.967-492.759  0.00  0.00     0.022 C 
ATOM     42  CB  PRO d   3     553.116 127.815-493.589  0.00  0.00     0.037 C 
BRANCH  38  43
ATOM     43  CA  ASN d   2     553.358 130.930-490.096  0.00  0.00     0.185 C 
BRANCH  43  44
ATOM     44  N   ASN d   2     551.899 130.968-490.096  0.00  0.00    -0.346 N 
ATOM     45  C   GLU d   1     551.294 131.754-490.921  0.00  0.00     0.242 C 
ATOM     46  O   GLU d   1     551.970 132.453-491.689  0.00  0.00    -0.271 OA
ATOM     47  H   ASN d   2     551.371 130.388-489.459  0.00  0.00     0.163 HD
BRANCH  45  48
ATOM     48  CA  GLU d   1     549.785 131.794-490.921  0.00  0.00     0.191 C 
BRANCH  48  49
ATOM     49  N   GLU d   1     549.226 130.445-490.921  0.00  0.00    -0.326 NA
ATOM     50  H   GLU d   1     549.853 129.566-490.921  0.00  0.00     0.180 HD
ENDBRANCH  48  49
BRANCH  48  51
ATOM     51  CB  GLU d   1     549.262 132.579-489.684  0.00  0.00     0.047 C 
BRANCH  51  52
ATOM     52  CG  GLU d   1     549.737 134.064-489.573  0.00  0.00     0.116 C 
BRANCH  52  53
ATOM     53  CD  GLU d   1     549.313 134.868-488.358  0.00  0.00     0.172 C 
ATOM     54  OE1 GLU d   1     548.585 134.366-487.480  0.00  0.00    -0.648 OA
ATOM     55  OE2 GLU d   1     549.743 136.038-488.286  0.00  0.00    -0.648 OA
ENDBRANCH  52  53
ENDBRANCH  51  52
ENDBRANCH  48  51
ENDBRANCH  45  48
ENDBRANCH  43  44
BRANCH  43  56
ATOM     56  CB  ASN d   2     553.850 129.907-489.031  0.00  0.00     0.137 C 
BRANCH  56  57
ATOM     57  CG  ASN d   2     553.387 130.130-487.588  0.00  0.00     0.217 C 
ATOM     58  ND2 ASN d   2     553.981 131.045-486.870  0.00  0.00    -0.370 N 
ATOM     59 21HD ASN d   2     553.501 131.218-485.983  0.00  0.00     0.159 HD
ATOM     60 22HD ASN d   2     554.683 131.617-487.339  0.00  0.00     0.159 HD
ATOM     61  OD1 ASN d   2     552.467 129.497-487.094  0.00  0.00    -0.274 OA
ENDBRANCH  56  57
ENDBRANCH  43  56
ENDBRANCH  38  43
ENDBRANCH  33  36
ENDBRANCH  31  32
ENDBRANCH  28  31
ENDBRANCH  26  27
BRANCH  26  62
ATOM     62  CB  SER d   5     553.964 135.091-492.845  0.00  0.00     0.199 C 
BRANCH  62  63
ATOM     63  OG  SER d   5     554.696 134.212-491.984  0.00  0.00    -0.398 OA
ATOM     64  HG  SER d   5     554.208 133.387-491.933  0.00  0.00     0.209 HD
ENDBRANCH  62  63
ENDBRANCH  26  62
ENDBRANCH  23  26
ENDBRANCH  21  22
BRANCH  21  65
ATOM     65  CB  ILE d   6     557.730 131.540-494.494  0.00  0.00     0.013 C 
ATOM     66  CG2 ILE d   6     559.172 131.239-495.009  0.00  0.00     0.012 C 
BRANCH  65  67
ATOM     67  CG1 ILE d   6     557.750 131.478-492.933  0.00  0.00     0.002 C 
ATOM     68  CD1 ILE d   6     558.020 130.089-492.318  0.00  0.00     0.005 C 
ENDBRANCH  65  67
ENDBRANCH  21  65
ENDBRANCH  18  21
ENDBRANCH  16  17
BRANCH  16  69
ATOM     69  CB  LEU d   7     554.869 131.279-499.114  0.00  0.00     0.038 C 
BRANCH  69  70
ATOM     70  CG  LEU d   7     554.797 129.800-498.648  0.00  0.00    -0.020 C 
ATOM     71  CD1 LEU d   7     553.607 129.094-499.314  0.00  0.00     0.009 C 
ATOM     72  CD2 LEU d   7     556.091 129.021-498.940  0.00  0.00     0.009 C 
ENDBRANCH  69  70
ENDBRANCH  16  69
ENDBRANCH  13  16
ENDBRANCH  11  12
BRANCH  11  73
ATOM     73  CB  ASP d   8     554.013 136.563-498.510  0.00  0.00     0.147 C 
BRANCH  73  74
ATOM     74  CG  ASP d   8     553.793 137.984-499.050  0.00  0.00     0.175 C 
ATOM     75  OD1 ASP d   8     553.857 138.184-500.281  0.00  0.00    -0.648 OA
ATOM     76  OD2 ASP d   8     553.601 138.910-498.235  0.00  0.00    -0.648 OA
ENDBRANCH  73  74
ENDBRANCH  11  73
ENDBRANCH   8  11
ENDBRANCH   6   7
BRANCH   6  77
ATOM     77  CB  GLU d   9     559.053 136.805-496.639  0.00  0.00     0.045 C 
BRANCH  77  78
ATOM     78  CG  GLU d   9     560.436 137.498-496.409  0.00  0.00     0.116 C 
BRANCH  78  79
ATOM     79  CD  GLU d   9     561.138 137.285-495.081  0.00  0.00     0.172 C 
ATOM     80  OE1 GLU d   9     560.616 136.593-494.185  0.00  0.00    -0.648 OA
ATOM     81  OE2 GLU d   9     562.257 137.823-494.949  0.00  0.00    -0.648 OA
ENDBRANCH  78  79
ENDBRANCH  77  78
ENDBRANCH   6  77
ENDBRANCH   3   6
ENDBRANCH   1   2
BRANCH   1  82
ATOM     82  C   HIS d  10     559.956 135.265-501.681  0.00  0.00     0.241 C 
ATOM     83  O   HIS d  10     560.808 135.731-502.453  0.00  0.00    -0.271 OA
ATOM     84  N   VAL d  11     558.718 135.264-502.044  0.00  0.00    -0.346 N 
ATOM     85  H   VAL d  11     558.005 134.891-501.434  0.00  0.00     0.163 HD
BRANCH  84  86
ATOM     86  CA  VAL d  11     558.363 135.810-503.351  0.00  0.00     0.180 C 
BRANCH  86  87
ATOM     87  C   VAL d  11     558.827 137.241-503.483  0.00  0.00     0.241 C 
ATOM     88  O   VAL d  11     559.428 137.647-504.486  0.00  0.00    -0.271 OA
ATOM     89  N   GLN d  12     558.589 138.067-502.520  0.00  0.00    -0.346 N 
ATOM     90  H   GLN d  12     558.100 137.760-501.691  0.00  0.00     0.163 HD
BRANCH  89  91
ATOM     91  CA  GLN d  12     559.037 139.450-502.647  0.00  0.00     0.177 C 
BRANCH  91  92
ATOM     92  C   GLN d  12     560.527 139.518-502.885  0.00  0.00     0.241 C 
ATOM     93  O   GLN d  12     561.014 140.226-503.763  0.00  0.00    -0.271 OA
ATOM     94  N   ARG d  13     561.312 138.811-502.144  0.00  0.00    -0.346 N 
ATOM     95  H   ARG d  13     560.936 138.221-501.416  0.00  0.00     0.163 HD
BRANCH  94  96
ATOM     96  CA  ARG d  13     562.752 138.877-502.374  0.00  0.00     0.176 C 
BRANCH  96  97
ATOM     97  C   ARG d  13     563.089 138.506-503.800  0.00  0.00     0.241 C 
ATOM     98  O   ARG d  13     563.857 139.178-504.483  0.00  0.00    -0.271 OA
ATOM     99  N   VAL d  14     562.553 137.452-504.314  0.00  0.00    -0.346 N 
ATOM    100  H   VAL d  14     561.918 136.883-503.773  0.00  0.00     0.163 HD
BRANCH  99 101
ATOM    101  CA  VAL d  14     562.878 137.093-505.692  0.00  0.00     0.180 C 
BRANCH 101 102
ATOM    102  C   VAL d  14     562.548 138.223-506.637  0.00  0.00     0.241 C 
ATOM    103  O   VAL d  14     563.341 138.606-507.507  0.00  0.00    -0.271 OA
ATOM    104  N   MET d  15     561.403 138.809-506.535  0.00  0.00    -0.346 N 
ATOM    105  H   MET d  15     560.738 138.516-505.834  0.00  0.00     0.163 HD
BRANCH 104 106
ATOM    106  CA  MET d  15     561.082 139.902-507.449  0.00  0.00     0.177 C 
BRANCH 106 107
ATOM    107  C   MET d  15     562.112 141.002-507.360  0.00  0.00     0.241 C 
ATOM    108  O   MET d  15     562.615 141.513-508.373  0.00  0.00    -0.271 OA
ATOM    109  N   ARG d  16     562.480 141.423-506.198  0.00  0.00    -0.347 N 
ATOM    110  H   ARG d  16     562.086 141.022-505.359  0.00  0.00     0.163 HD
BRANCH 109 111
ATOM    111  CA  ARG d  16     563.477 142.487-506.114  0.00  0.00     0.162 C 
BRANCH 111 112
ATOM    112  C   ARG d  16     564.747 142.095-506.830  0.00  0.00     0.219 C 
ATOM    113  O   ARG d  16     564.862 141.019-507.412  0.00  0.00    -0.287 OA
ENDBRANCH 111 112
BRANCH 111 114
ATOM    114  CB  ARG d  16     563.746 142.804-504.615  0.00  0.00     0.035 C 
BRANCH 114 115
ATOM    115  CG  ARG d  16     564.570 144.093-504.342  0.00  0.00     0.023 C 
BRANCH 115 116
ATOM    116  CD  ARG d  16     564.820 144.312-502.840  0.00  0.00     0.138 C 
BRANCH 116 117
ATOM    117  NE  ARG d  16     565.596 145.571-502.639  0.00  0.00    -0.227 N 
ATOM    118  CZ  ARG d  16     565.987 146.053-501.463  0.00  0.00     0.665 C 
ATOM    119  NH1 ARG d  16     565.739 145.468-500.325  0.00  0.00    -0.235 N 
ATOM    120  NH2 ARG d  16     566.650 147.166-501.444  0.00  0.00    -0.235 N 
ATOM    121 11HH ARG d  16     565.214 144.595-500.409  0.00  0.00     0.174 HD
ATOM    122 12HH ARG d  16     566.073 145.903-499.463  0.00  0.00     0.174 HD
ATOM    123 21HH ARG d  16     566.836 147.609-502.345  0.00  0.00     0.174 HD
ATOM    124 22HH ARG d  16     566.940 147.521-500.531  0.00  0.00     0.174 HD
ATOM    125  HE  ARG d  16     565.874 146.153-503.436  0.00  0.00     0.177 HD
ENDBRANCH 116 117
ENDBRANCH 115 116
ENDBRANCH 114 115
ENDBRANCH 111 114
ENDBRANCH 109 111
ENDBRANCH 106 107
BRANCH 106 126
ATOM    126  CB  MET d  15     559.661 140.447-507.140  0.00  0.00     0.045 C 
BRANCH 126 127
ATOM    127  CG  MET d  15     558.499 139.449-507.332  0.00  0.00     0.076 C 
BRANCH 127 128
ATOM    128  SD  MET d  15     556.925 140.314-507.217  0.00  0.00    -0.173 SA
ATOM    129  CE  MET d  15     555.844 138.884-507.082  0.00  0.00     0.089 C 
ENDBRANCH 127 128
ENDBRANCH 126 127
ENDBRANCH 106 126
ENDBRANCH 104 106
ENDBRANCH 101 102
BRANCH 101 130
ATOM    130  CB  VAL d  14     562.106 135.776-506.100  0.00  0.00     0.009 C 
ATOM    131  CG1 VAL d  14     562.195 135.358-507.593  0.00  0.00     0.012 C 
ATOM    132  CG2 VAL d  14     562.538 134.523-505.300  0.00  0.00     0.012 C 
ENDBRANCH 101 130
ENDBRANCH  99 101
ENDBRANCH  96  97
BRANCH  96 133
ATOM    133  CB  ARG d  13     563.466 137.938-501.361  0.00  0.00     0.036 C 
BRANCH 133 134
ATOM    134  CG  ARG d  13     565.011 138.092-501.280  0.00  0.00     0.023 C 
BRANCH 134 135
ATOM    135  CD  ARG d  13     565.638 137.104-500.282  0.00  0.00     0.138 C 
BRANCH 135 136
ATOM    136  NE  ARG d  13     567.115 137.311-500.231  0.00  0.00    -0.227 N 
ATOM    137  CZ  ARG d  13     567.963 136.620-499.476  0.00  0.00     0.665 C 
ATOM    138  NH1 ARG d  13     567.598 135.655-498.679  0.00  0.00    -0.235 N 
ATOM    139  NH2 ARG d  13     569.222 136.919-499.533  0.00  0.00    -0.235 N 
ATOM    140 11HH ARG d  13     566.593 135.468-498.683  0.00  0.00     0.174 HD
ATOM    141 12HH ARG d  13     568.311 135.172-498.131  0.00  0.00     0.174 HD
ATOM    142 21HH ARG d  13     569.490 137.677-500.164  0.00  0.00     0.174 HD
ATOM    143 22HH ARG d  13     569.858 136.378-498.944  0.00  0.00     0.174 HD
ATOM    144  HE  ARG d  13     567.566 138.034-500.802  0.00  0.00     0.177 HD
ENDBRANCH 135 136
ENDBRANCH 134 135
ENDBRANCH 133 134
ENDBRANCH  96 133
ENDBRANCH  94  96
ENDBRANCH  91  92
BRANCH  91 145
ATOM    145  CB  GLN d  12     558.646 140.217-501.364  0.00  0.00     0.044 C 
BRANCH 145 146
ATOM    146  CG  GLN d  12     559.006 141.738-501.332  0.00  0.00     0.105 C 
BRANCH 146 147
ATOM    147  CD  GLN d  12     558.703 142.551-500.067  0.00  0.00     0.215 C 
ATOM    148  NE2 GLN d  12     558.136 141.974-499.038  0.00  0.00    -0.370 N 
ATOM    149 21HE GLN d  12     558.029 142.569-498.215  0.00  0.00     0.159 HD
ATOM    150 22HE GLN d  12     557.973 140.971-499.142  0.00  0.00     0.159 HD
ATOM    151  OE1 GLN d  12     559.004 143.732-499.989  0.00  0.00    -0.274 OA
ENDBRANCH 146 147
ENDBRANCH 145 146
ENDBRANCH  91 145
ENDBRANCH  89  91
ENDBRANCH  86  87
BRANCH  86 152
ATOM    152  CB  VAL d  11     556.801 135.703-503.570  0.00  0.00     0.009 C 
ATOM    153  CG1 VAL d  11     556.233 136.408-504.833  0.00  0.00     0.012 C 
ATOM    154  CG2 VAL d  11     556.277 134.249-503.644  0.00  0.00     0.012 C 
ENDBRANCH  86 152
ENDBRANCH  84  86
ENDBRANCH   1  82
BRANCH   1 155
ATOM    155  CB  HIS d  10     560.159 133.171-500.326  0.00  0.00     0.095 C 
BRANCH 155 156
ATOM    156  CG  HIS d  10     561.445 132.462-500.018  0.00  0.00     0.053 A 
ATOM    157  CD2 HIS d  10     561.826 132.126-498.726  0.00  0.00     0.116 A 
ATOM    158  NE2 HIS d  10     563.041 131.495-498.793  0.00  0.00    -0.359 N 
ATOM    159  CE1 HIS d  10     563.304 131.498-500.128  0.00  0.00     0.207 A 
ATOM    160  2HE HIS d  10     563.608 131.117-498.019  0.00  0.00     0.166 HD
ATOM    161  ND1 HIS d  10     562.397 132.056-500.951  0.00  0.00    -0.247 NA
ENDBRANCH 155 156
ENDBRANCH   1 155
TORSDOF 65
