@<TRIPOS>MOLECULE
11-20
273 274 16              
SMALL
USER_CHARGES
@<TRIPOS>ATOM
1	   N	1837.530	552.351	-1884.672	N.3	1	GLU1	-0.516	
2	  CA	1838.089	553.700	-1884.672	C.3	1	GLU1	0.040	
3	   C	1839.598	553.660	-1884.672	C.2	1	GLU1	0.537	
4	   O	1840.273	554.359	-1885.441	O.2	1	GLU1	-0.582	
5	  CB	1837.566	554.485	-1883.435	C.3	1	GLU1	0.056	
6	  CG	1838.041	555.970	-1883.324	C.3	1	GLU1	0.014	
7	  CD	1837.617	556.774	-1882.109	C.2	1	GLU1	0.805	
8	 OE1	1836.889	556.272	-1881.231	O.co2	1	GLU1	-0.819	
9	 OE2	1838.047	557.944	-1882.037	O.co2	1	GLU1	-0.819	
10	   H	1838.156	551.472	-1884.672	 H	1	GLU1	0.294	
11	  HA	1837.763	554.218	-1885.592	 H	1	GLU1	0.111	
12	 2HB	1837.854	553.954	-1882.505	 H	1	GLU1	-0.017	
13	 3HB	1836.458	554.475	-1883.422	 H	1	GLU1	-0.017	
14	 2HG	1837.731	556.555	-1884.205	 H	1	GLU1	-0.043	
15	 3HG	1839.141	556.037	-1883.295	 H	1	GLU1	-0.043	
16	   N	1840.202	552.874	-1883.847	N.am	2	ASN2	-0.416	
17	  CA	1841.661	552.836	-1883.847	C.3	2	ASN2	0.014	
18	   C	1842.193	552.480	-1885.216	C.2	2	ASN2	0.597	
19	   O	1843.108	553.110	-1885.744	O.2	2	ASN2	-0.568	
20	  CB	1842.153	551.812	-1882.783	C.3	2	ASN2	-0.204	
21	  CG	1841.690	552.036	-1881.339	C.2	2	ASN2	0.713	
22	 ND2	1842.285	552.951	-1880.621	N.pl3	2	ASN2	-0.919	
23	 OD1	1840.769	551.403	-1880.845	O.2	2	ASN2	-0.593	
24	   H	1839.674	552.295	-1883.210	 H	2	ASN2	0.272	
25	  HA	1842.039	553.846	-1883.602	 H	2	ASN2	0.105	
26	 2HB	1843.258	551.753	-1882.786	 H	2	ASN2	0.080	
27	 3HB	1841.824	550.794	-1883.068	 H	2	ASN2	0.080	
28	1HD2	1841.804	553.124	-1879.734	 H	2	ASN2	0.420	
29	2HD2	1842.986	553.523	-1881.090	 H	2	ASN2	0.420	
30	   N	1841.671	551.485	-1885.850	N.am	3	PRO3	-0.255	
31	  CA	1842.123	551.076	-1887.171	C.3	3	PRO3	-0.027	
32	   C	1841.725	552.099	-1888.248	C.2	3	PRO3	0.590	
33	   O	1842.548	552.482	-1889.080	O.2	3	PRO3	-0.575	
34	  CB	1841.419	549.721	-1887.340	C.3	3	PRO3	-0.007	
35	  CG	1840.135	549.873	-1886.510	C.3	3	PRO3	0.019	
36	  CD	1840.593	550.692	-1885.300	C.3	3	PRO3	0.019	
37	  HA	1843.209	550.956	-1887.185	 H	3	PRO3	0.064	
38	 2HB	1842.042	548.940	-1886.900	 H	3	PRO3	0.025	
39	 3HB	1841.220	549.472	-1888.386	 H	3	PRO3	0.025	
40	 2HG	1839.708	548.911	-1886.219	 H	3	PRO3	0.021	
41	 3HG	1839.398	550.444	-1887.078	 H	3	PRO3	0.021	
42	 2HD	1840.982	550.042	-1884.513	 H	3	PRO3	0.039	
43	 3HD	1839.797	551.328	-1884.907	 H	3	PRO3	0.039	
44	   N	1840.520	552.559	-1888.280	N.am	4	GLU4	-0.516	
45	  CA	1840.160	553.530	-1889.310	C.3	4	GLU4	0.040	
46	   C	1841.059	554.741	-1889.249	C.2	4	GLU4	0.537	
47	   O	1841.586	555.221	-1890.263	O.2	4	GLU4	-0.582	
48	  CB	1838.672	553.949	-1889.140	C.3	4	GLU4	0.056	
49	  CG	1838.124	554.953	-1890.205	C.3	4	GLU4	0.014	
50	  CD	1836.697	555.449	-1890.062	C.2	4	GLU4	0.805	
51	 OE1	1835.971	555.051	-1889.131	O.co2	4	GLU4	-0.819	
52	 OE2	1836.308	556.279	-1890.910	O.co2	4	GLU4	-0.819	
53	   H	1839.836	552.252	-1887.604	 H	4	GLU4	0.294	
54	  HA	1840.291	553.060	-1890.301	 H	4	GLU4	0.111	
55	 2HB	1838.520	554.389	-1888.133	 H	4	GLU4	-0.017	
56	 3HB	1838.024	553.051	-1889.146	 H	4	GLU4	-0.017	
57	 2HG	1838.205	554.538	-1891.223	 H	4	GLU4	-0.043	
58	 3HG	1838.712	555.885	-1890.216	 H	4	GLU4	-0.043	
59	   N	1841.287	555.294	-1888.106	N.am	5	SER5	-0.416	
60	  CA	1842.156	556.465	-1888.047	C.3	5	SER5	-0.025	
61	   C	1843.515	556.160	-1888.633	C.2	5	SER5	0.597	
62	   O	1844.062	556.913	-1889.438	O.2	5	SER5	-0.568	
63	  CB	1842.268	556.997	-1886.597	C.3	5	SER5	0.212	
64	  OG	1843.000	556.118	-1885.736	O.3	5	SER5	-0.655	
65	   H	1840.870	554.922	-1887.264	 H	5	SER5	0.272	
66	  HA	1841.707	557.255	-1888.677	 H	5	SER5	0.084	
67	 2HB	1841.268	557.191	-1886.163	 H	5	SER5	0.035	
68	 3HB	1842.773	557.983	-1886.599	 H	5	SER5	0.035	
69	  HG	1842.511	555.293	-1885.685	 H	5	SER5	0.428	
70	   N	1844.120	555.077	-1888.279	N.am	6	ILE6	-0.416	
71	  CA	1845.433	554.782	-1888.845	C.3	6	ILE6	-0.060	
72	   C	1845.376	554.744	-1890.353	C.2	6	ILE6	0.597	
73	   O	1846.211	555.332	-1891.057	O.2	6	ILE6	-0.568	
74	  CB	1846.033	553.446	-1888.245	C.3	6	ILE6	0.130	
75	 CG1	1846.053	553.384	-1886.684	C.3	6	ILE6	-0.043	
76	 CG2	1847.474	553.144	-1888.760	C.3	6	ILE6	-0.320	
77	 CD1	1846.323	551.995	-1886.069	C.3	6	ILE6	-0.066	
78	   H	1843.692	554.442	-1887.620	 H	6	ILE6	0.272	
79	  HA	1846.107	555.616	-1888.577	 H	6	ILE6	0.087	
80	  HB	1845.375	552.620	-1888.589	 H	6	ILE6	0.019	
81	2HG1	1845.070	553.703	-1886.288	 H	6	ILE6	0.024	
82	3HG1	1846.768	554.126	-1886.279	 H	6	ILE6	0.024	
83	1HG2	1847.533	553.051	-1889.859	 H	6	ILE6	0.088	
84	2HG2	1848.196	553.927	-1888.458	 H	6	ILE6	0.088	
85	3HG2	1847.865	552.182	-1888.381	 H	6	ILE6	0.088	
86	1HD1	1845.594	551.240	-1886.423	 H	6	ILE6	0.019	
87	2HD1	1847.333	551.616	-1886.305	 H	6	ILE6	0.019	
88	3HD1	1846.246	552.024	-1884.966	 H	6	ILE6	0.019	
89	   N	1844.430	554.081	-1890.926	N.am	7	LEU7	-0.416	
90	  CA	1844.375	554.045	-1892.385	C.3	7	LEU7	-0.052	
91	   C	1844.303	555.440	-1892.957	C.2	7	LEU7	0.597	
92	   O	1845.023	555.803	-1893.899	O.2	7	LEU7	-0.568	
93	  CB	1843.172	553.184	-1892.865	C.3	7	LEU7	-0.110	
94	  CG	1843.100	551.705	-1892.399	C.3	7	LEU7	0.353	
95	 CD1	1841.910	550.999	-1893.064	C.3	7	LEU7	-0.412	
96	 CD2	1844.394	550.926	-1892.690	C.3	7	LEU7	-0.412	
97	   H	1843.738	553.594	-1890.375	 H	7	LEU7	0.272	
98	  HA	1845.317	553.605	-1892.759	 H	7	LEU7	0.092	
99	 2HB	1843.149	553.200	-1893.973	 H	7	LEU7	0.046	
100	 3HB	1842.232	553.687	-1892.561	 H	7	LEU7	0.046	
101	  HG	1842.930	551.697	-1891.302	 H	7	LEU7	-0.036	
102	1HD1	1840.953	551.508	-1892.842	 H	7	LEU7	0.100	
103	2HD1	1842.009	550.958	-1894.166	 H	7	LEU7	0.100	
104	3HD1	1841.803	549.958	-1892.708	 H	7	LEU7	0.100	
105	1HD2	1844.669	550.956	-1893.760	 H	7	LEU7	0.100	
106	2HD2	1845.247	551.338	-1892.119	 H	7	LEU7	0.100	
107	3HD2	1844.312	549.864	-1892.394	 H	7	LEU7	0.100	
108	   N	1843.465	556.280	-1892.451	N.am	8	ASP8	-0.516	
109	  CA	1843.395	557.630	-1893.004	C.3	8	ASP8	0.038	
110	   C	1844.741	558.310	-1892.947	C.2	8	ASP8	0.537	
111	   O	1845.214	558.915	-1893.921	O.2	8	ASP8	-0.582	
112	  CB	1842.316	558.469	-1892.262	C.3	8	ASP8	-0.030	
113	  CG	1842.097	559.889	-1892.803	C.2	8	ASP8	0.799	
114	 OD1	1842.161	560.089	-1894.033	O.co2	8	ASP8	-0.801	
115	 OD2	1841.905	560.815	-1891.987	O.co2	8	ASP8	-0.801	
116	   H	1842.867	556.009	-1891.684	 H	8	ASP8	0.294	
117	  HA	1843.112	557.552	-1894.071	 H	8	ASP8	0.088	
118	 2HB	1842.573	558.552	-1891.190	 H	8	ASP8	-0.012	
119	 3HB	1841.337	557.963	-1892.295	 H	8	ASP8	-0.012	
120	   N	1845.421	558.260	-1891.852	N.am	9	GLU9	-0.516	
121	  CA	1846.723	558.918	-1891.796	C.3	9	GLU9	0.040	
122	   C	1847.641	558.391	-1892.872	C.2	9	GLU9	0.537	
123	   O	1848.305	559.146	-1893.598	O.2	9	GLU9	-0.582	
124	  CB	1847.357	558.711	-1890.391	C.3	9	GLU9	0.056	
125	  CG	1848.740	559.404	-1890.162	C.3	9	GLU9	0.014	
126	  CD	1849.442	559.190	-1888.834	C.2	9	GLU9	0.805	
127	 OE1	1848.920	558.499	-1887.937	O.co2	9	GLU9	-0.819	
128	 OE2	1850.560	559.729	-1888.702	O.co2	9	GLU9	-0.819	
129	   H	1845.058	557.773	-1891.045	 H	9	GLU9	0.294	
130	  HA	1846.581	560.000	-1891.972	 H	9	GLU9	0.111	
131	 2HB	1847.471	557.626	-1890.188	 H	9	GLU9	-0.017	
132	 3HB	1846.660	559.064	-1889.607	 H	9	GLU9	-0.017	
133	 2HG	1848.667	560.494	-1890.301	 H	9	GLU9	-0.043	
134	 3HG	1849.486	559.059	-1890.896	 H	9	GLU9	-0.043	
135	   N	1847.739	557.116	-1893.042	N.am	10	HIS10	-0.416	
136	  CA	1848.627	556.605	-1894.083	C.3	10	HIS10	-0.058	
137	   C	1848.259	557.170	-1895.434	C.2	10	HIS10	0.597	
138	   O	1849.111	557.635	-1896.205	O.2	10	HIS10	-0.568	
139	  CB	1848.464	555.076	-1894.078	C.3	10	HIS10	-0.007	
140	  CG	1849.750	554.367	-1893.771	C.2	10	HIS10	0.187	
141	 CD2	1850.131	554.031	-1892.478	C.2	10	HIS10	-0.221	
142	 ND1	1850.702	553.962	-1894.703	N.2	10	HIS10	-0.543	
143	 CE1	1851.609	553.404	-1893.880	C.2	10	HIS10	0.163	
144	 NE2	1851.346	553.400	-1892.545	N.pl3	10	HIS10	-0.280	
145	   H	1847.208	556.480	-1892.464	 H	10	HIS10	0.272	
146	  HA	1849.646	556.963	-1893.858	 H	10	HIS10	0.136	
147	 2HB	1848.098	554.710	-1895.058	 H	10	HIS10	0.037	
148	 3HB	1847.708	554.739	-1893.338	 H	10	HIS10	0.037	
149	 2HD	1849.545	554.246	-1891.589	 H	10	HIS10	0.186	
150	 1HE	1852.500	552.983	-1894.328	 H	10	HIS10	0.144	
151	 2HE	1851.913	553.023	-1891.772	 H	10	HIS10	0.334	
152	   N	1847.021	557.169	-1895.797	N.am	11	ARG11	-0.348	
153	  CA	1846.666	557.715	-1897.103	C.3	11	ARG11	-0.264	
154	   C	1847.131	559.146	-1897.234	C.2	11	ARG11	0.734	
155	   O	1847.728	559.549	-1898.230	O.2	11	ARG11	-0.589	
156	  CB	1845.127	557.598	-1897.294	C.3	11	ARG11	-0.001	
157	  CG	1844.608	557.877	-1898.732	C.3	11	ARG11	0.039	
158	  CD	1843.077	557.776	-1898.823	C.3	11	ARG11	0.049	
159	  NE	1842.639	558.032	-1900.228	N.pl3	11	ARG11	-0.530	
160	  CZ	1841.380	558.028	-1900.653	C.cat	11	ARG11	0.808	
161	 NH1	1840.357	557.802	-1899.878	N.pl3	11	ARG11	-0.863	
162	 NH2	1841.154	558.262	-1901.908	N.pl3	11	ARG11	-0.863	
163	   H	1846.309	556.795	-1895.186	 H	11	ARG11	0.275	
164	  HA	1847.190	557.121	-1897.876	 H	11	ARG11	0.156	
165	 2HB	1844.627	558.275	-1896.570	 H	11	ARG11	0.033	
166	 3HB	1844.799	556.583	-1896.990	 H	11	ARG11	0.033	
167	 2HG	1845.088	557.166	-1899.436	 H	11	ARG11	0.029	
168	 3HG	1844.928	558.886	-1899.063	 H	11	ARG11	0.029	
169	 2HD	1842.617	558.509	-1898.125	 H	11	ARG11	0.069	
170	 3HD	1842.751	556.770	-1898.483	 H	11	ARG11	0.069	
171	  HE	1843.323	558.229	-1900.965	 H	11	ARG11	0.346	
172	1HH1	1840.604	557.627	-1898.901	 H	11	ARG11	0.448	
173	2HH1	1839.419	557.815	-1900.282	 H	11	ARG11	0.448	
174	1HH2	1841.968	558.438	-1902.500	 H	11	ARG11	0.448	
175	2HH2	1840.180	558.253	-1902.216	 H	11	ARG11	0.448	
176	   N	1846.893	559.971	-1896.271	N.am	12	GLN12	-0.416	
177	  CA	1847.342	561.354	-1896.398	C.3	12	GLN12	-0.003	
178	   C	1848.832	561.422	-1896.635	C.2	12	GLN12	0.597	
179	   O	1849.319	562.130	-1897.513	O.2	12	GLN12	-0.568	
180	  CB	1846.950	562.121	-1895.115	C.3	12	GLN12	-0.004	
181	  CG	1847.311	563.643	-1895.083	C.3	12	GLN12	-0.064	
182	  CD	1847.008	564.455	-1893.817	C.2	12	GLN12	0.695	
183	 NE2	1846.440	563.878	-1892.789	N.pl3	12	GLN12	-0.941	
184	 OE1	1847.310	565.636	-1893.739	O.2	12	GLN12	-0.609	
185	   H	1846.404	559.664	-1895.443	 H	12	GLN12	0.272	
186	  HA	1846.843	561.811	-1897.273	 H	12	GLN12	0.085	
187	 2HB	1847.426	561.620	-1894.245	 H	12	GLN12	0.017	
188	 3HB	1845.860	562.013	-1894.952	 H	12	GLN12	0.017	
189	 2HG	1846.833	564.164	-1895.933	 H	12	GLN12	0.035	
190	 3HG	1848.394	563.785	-1895.248	 H	12	GLN12	0.035	
191	1HE2	1846.333	564.472	-1891.965	 H	12	GLN12	0.425	
192	2HE2	1846.277	562.875	-1892.893	 H	12	GLN12	0.425	
193	   N	1849.616	560.714	-1895.894	N.am	13	ARG13	-0.348	
194	  CA	1851.056	560.780	-1896.124	C.3	13	ARG13	-0.264	
195	   C	1851.393	560.409	-1897.549	C.2	13	ARG13	0.734	
196	   O	1852.162	561.081	-1898.233	O.2	13	ARG13	-0.589	
197	  CB	1851.769	559.840	-1895.110	C.3	13	ARG13	-0.001	
198	  CG	1853.314	559.993	-1895.029	C.3	13	ARG13	0.039	
199	  CD	1853.940	559.005	-1894.031	C.3	13	ARG13	0.049	
200	  NE	1855.417	559.212	-1893.980	N.pl3	13	ARG13	-0.530	
201	  CZ	1856.265	558.519	-1893.224	C.cat	13	ARG13	0.808	
202	 NH1	1855.899	557.555	-1892.428	N.pl3	13	ARG13	-0.863	
203	 NH2	1857.524	558.818	-1893.281	N.pl3	13	ARG13	-0.863	
204	   H	1849.239	560.124	-1895.166	 H	13	ARG13	0.275	
205	  HA	1851.381	561.826	-1895.965	 H	13	ARG13	0.156	
206	 2HB	1851.502	558.790	-1895.350	 H	13	ARG13	0.033	
207	 3HB	1851.343	560.006	-1894.100	 H	13	ARG13	0.033	
208	 2HG	1853.562	561.038	-1894.748	 H	13	ARG13	0.029	
209	 3HG	1853.765	559.838	-1896.030	 H	13	ARG13	0.029	
210	 2HD	1853.696	557.965	-1894.341	 H	13	ARG13	0.069	
211	 3HD	1853.483	559.150	-1893.029	 H	13	ARG13	0.069	
212	  HE	1855.869	559.934	-1894.550	 H	13	ARG13	0.346	
213	1HH1	1854.894	557.369	-1892.432	 H	13	ARG13	0.448	
214	2HH1	1856.612	557.071	-1891.879	 H	13	ARG13	0.448	
215	1HH2	1857.792	559.576	-1893.911	 H	13	ARG13	0.448	
216	2HH2	1858.159	558.276	-1892.692	 H	13	ARG13	0.448	
217	   N	1850.857	559.355	-1898.064	N.am	14	VAL14	-0.416	
218	  CA	1851.182	558.997	-1899.442	C.3	14	VAL14	-0.087	
219	   C	1850.853	560.127	-1900.387	C.2	14	VAL14	0.597	
220	   O	1851.647	560.508	-1901.256	O.2	14	VAL14	-0.568	
221	  CB	1850.410	557.679	-1899.850	C.3	14	VAL14	0.299	
222	 CG1	1850.500	557.262	-1901.344	C.3	14	VAL14	-0.319	
223	 CG2	1850.841	556.427	-1899.050	C.3	14	VAL14	-0.319	
224	   H	1850.222	558.786	-1897.523	 H	14	VAL14	0.272	
225	  HA	1852.271	558.819	-1899.516	 H	14	VAL14	0.097	
226	  HB	1849.334	557.851	-1899.635	 H	14	VAL14	-0.030	
227	1HG1	1851.541	557.085	-1901.672	 H	14	VAL14	0.079	
228	2HG1	1849.927	556.339	-1901.557	 H	14	VAL14	0.079	
229	3HG1	1850.071	558.025	-1902.022	 H	14	VAL14	0.079	
230	1HG2	1850.754	556.585	-1897.959	 H	14	VAL14	0.079	
231	2HG2	1850.205	555.551	-1899.283	 H	14	VAL14	0.079	
232	3HG2	1851.889	556.137	-1899.255	 H	14	VAL14	0.079	
233	   N	1849.708	560.713	-1900.286	N.am	15	MET15	-0.416	
234	  CA	1849.389	561.806	-1901.199	C.3	15	MET15	-0.024	
235	   C	1850.419	562.905	-1901.111	C.2	15	MET15	0.597	
236	   O	1850.922	563.416	-1902.123	O.2	15	MET15	-0.568	
237	  CB	1847.967	562.352	-1900.891	C.3	15	MET15	0.034	
238	  CG	1846.805	561.354	-1901.083	C.3	15	MET15	0.002	
239	  SD	1845.231	562.221	-1900.969	S.3	15	MET15	-0.274	
240	  CE	1844.150	560.791	-1900.834	C.3	15	MET15	-0.054	
241	   H	1849.043	560.420	-1899.585	 H	15	MET15	0.272	
242	  HA	1849.415	561.419	-1902.235	 H	15	MET15	0.088	
243	 2HB	1847.766	563.231	-1901.533	 H	15	MET15	0.024	
244	 3HB	1847.932	562.744	-1899.854	 H	15	MET15	0.024	
245	 2HG	1846.848	560.568	-1900.306	 H	15	MET15	0.044	
246	 3HG	1846.868	560.839	-1902.060	 H	15	MET15	0.044	
247	 1HE	1844.293	560.103	-1901.686	 H	15	MET15	0.068	
248	 2HE	1844.358	560.238	-1899.901	 H	15	MET15	0.068	
249	 3HE	1843.092	561.107	-1900.817	 H	15	MET15	0.068	
250	   N	1850.787	563.326	-1899.948	N.am	16	ARG16	-0.348	
251	  CA	1851.784	564.390	-1899.864	C.3	16	ARG16	-0.264	
252	   C	1853.055	563.997	-1900.580	C.2	16	ARG16	0.734	
253	   O	1853.169	562.921	-1901.161	O.2	16	ARG16	-0.589	
254	  CB	1852.053	564.707	-1898.365	C.3	16	ARG16	-0.001	
255	  CG	1852.878	565.996	-1898.092	C.3	16	ARG16	0.039	
256	  CD	1853.127	566.215	-1896.591	C.3	16	ARG16	0.049	
257	  NE	1853.904	567.474	-1896.389	N.pl3	16	ARG16	-0.530	
258	  CZ	1854.294	567.956	-1895.213	C.cat	16	ARG16	0.808	
259	 NH1	1854.046	567.371	-1894.075	N.pl3	16	ARG16	-0.863	
260	 NH2	1854.958	569.068	-1895.194	N.pl3	16	ARG16	-0.863	
261	   H	1850.392	562.926	-1899.109	 H	16	ARG16	0.275	
262	  HA	1851.376	565.283	-1900.374	 H	16	ARG16	0.156	
263	 2HB	1852.549	563.831	-1897.899	 H	16	ARG16	0.033	
264	 3HB	1851.084	564.788	-1897.832	 H	16	ARG16	0.033	
265	 2HG	1852.348	566.867	-1898.529	 H	16	ARG16	0.029	
266	 3HG	1853.852	565.943	-1898.620	 H	16	ARG16	0.029	
267	 2HD	1853.675	565.340	-1896.177	 H	16	ARG16	0.069	
268	 3HD	1852.154	566.258	-1896.056	 H	16	ARG16	0.069	
269	  HE	1854.183	568.055	-1897.186	 H	16	ARG16	0.346	
270	1HH1	1853.520	566.498	-1894.160	 H	16	ARG16	0.448	
271	2HH1	1854.380	567.806	-1893.213	 H	16	ARG16	0.448	
272	1HH2	1855.145	569.511	-1896.096	 H	16	ARG16	0.448	
273	2HH2	1855.249	569.423	-1894.281	 H	16	ARG16	0.448	
@<TRIPOS>BOND
1 1 2 1
2 1 10 1
3 2 3 1
4 2 5 1
5 2 11 1
6 3 4 2
7 3 16 1
8 5 6 1
9 6 7 1
10 7 8 2
11 7 9 1
12 5 12 1
13 5 13 1
14 6 14 1
15 6 15 1
16 16 17 1
17 16 24 1
18 17 18 1
19 17 20 1
20 17 25 1
21 18 19 2
22 18 30 1
23 20 21 1
24 21 22 1
25 21 23 2
26 20 26 1
27 20 27 1
28 22 28 1
29 22 29 1
30 30 31 1
31 30 36 1
32 31 32 1
33 31 34 1
34 31 37 1
35 32 33 2
36 32 44 1
37 34 35 1
38 35 36 1
39 34 38 1
40 34 39 1
41 35 40 1
42 35 41 1
43 36 42 1
44 36 43 1
45 44 45 1
46 44 53 1
47 45 46 1
48 45 48 1
49 45 54 1
50 46 47 2
51 46 59 1
52 48 49 1
53 49 50 1
54 50 51 2
55 50 52 1
56 48 55 1
57 48 56 1
58 49 57 1
59 49 58 1
60 59 60 1
61 59 65 1
62 60 61 1
63 60 63 1
64 60 66 1
65 61 62 2
66 61 70 1
67 63 64 1
68 63 67 1
69 63 68 1
70 64 69 1
71 70 71 1
72 70 78 1
73 71 72 1
74 71 74 1
75 71 79 1
76 72 73 2
77 72 89 1
78 74 75 1
79 74 76 1
80 75 77 1
81 74 80 1
82 75 81 1
83 75 82 1
84 76 83 1
85 76 84 1
86 76 85 1
87 77 86 1
88 77 87 1
89 77 88 1
90 89 90 1
91 89 97 1
92 90 91 1
93 90 93 1
94 90 98 1
95 91 92 2
96 91 108 1
97 93 94 1
98 94 95 1
99 94 96 1
100 93 99 1
101 93 100 1
102 94 101 1
103 95 102 1
104 95 103 1
105 95 104 1
106 96 105 1
107 96 106 1
108 96 107 1
109 108 109 1
110 108 116 1
111 109 110 1
112 109 112 1
113 109 117 1
114 110 111 2
115 110 120 1
116 112 113 1
117 113 114 2
118 113 115 1
119 112 118 1
120 112 119 1
121 120 121 1
122 120 129 1
123 121 122 1
124 121 124 1
125 121 130 1
126 122 123 2
127 122 135 1
128 124 125 1
129 125 126 1
130 126 127 2
131 126 128 1
132 124 131 1
133 124 132 1
134 125 133 1
135 125 134 1
136 135 136 1
137 135 145 1
138 136 137 1
139 136 139 1
140 136 146 1
141 137 138 2
142 137 152 1
143 139 140 1
144 140 141 2
145 141 144 1
146 140 142 1
147 142 143 2
148 143 144 1
149 139 147 1
150 139 148 1
151 141 149 1
152 143 150 1
153 144 151 1
154 152 153 1
155 152 163 1
156 153 154 1
157 153 156 1
158 153 164 1
159 154 155 2
160 154 176 1
161 156 157 1
162 157 158 1
163 158 159 1
164 159 160 1
165 160 161 2
166 160 162 1
167 156 165 1
168 156 166 1
169 157 167 1
170 157 168 1
171 158 169 1
172 158 170 1
173 159 171 1
174 161 172 1
175 161 173 1
176 162 174 1
177 162 175 1
178 176 177 1
179 176 185 1
180 177 178 1
181 177 180 1
182 177 186 1
183 178 179 2
184 178 193 1
185 180 181 1
186 181 182 1
187 182 183 1
188 182 184 2
189 180 187 1
190 180 188 1
191 181 189 1
192 181 190 1
193 183 191 1
194 183 192 1
195 193 194 1
196 193 204 1
197 194 195 1
198 194 197 1
199 194 205 1
200 195 196 2
201 195 217 1
202 197 198 1
203 198 199 1
204 199 200 1
205 200 201 1
206 201 202 2
207 201 203 1
208 197 206 1
209 197 207 1
210 198 208 1
211 198 209 1
212 199 210 1
213 199 211 1
214 200 212 1
215 202 213 1
216 202 214 1
217 203 215 1
218 203 216 1
219 217 218 1
220 217 224 1
221 218 219 1
222 218 221 1
223 218 225 1
224 219 220 2
225 219 233 1
226 221 222 1
227 221 223 1
228 221 226 1
229 222 227 1
230 222 228 1
231 222 229 1
232 223 230 1
233 223 231 1
234 223 232 1
235 233 234 1
236 233 241 1
237 234 235 1
238 234 237 1
239 234 242 1
240 235 236 2
241 235 250 1
242 237 238 1
243 238 239 1
244 239 240 1
245 237 243 1
246 237 244 1
247 238 245 1
248 238 246 1
249 240 247 1
250 240 248 1
251 240 249 1
252 250 251 1
253 250 261 1
254 251 252 1
255 251 254 1
256 251 262 1
257 252 253 2
258 254 255 1
259 255 256 1
260 256 257 1
261 257 258 1
262 258 259 2
263 258 260 1
264 254 263 1
265 254 264 1
266 255 265 1
267 255 266 1
268 256 267 1
269 256 268 1
270 257 269 1
271 259 270 1
272 259 271 1
273 260 272 1
274 260 273 1
@<TRIPOS>SUBSTRUCTURE
1	GLU1	1	RESIDUE	1 ****	GLU
2	ASN2	16	RESIDUE	1 ****	ASN
3	PRO3	30	RESIDUE	1 ****	PRO
4	GLU4	44	RESIDUE	1 ****	GLU
5	SER5	59	RESIDUE	1 ****	SER
6	ILE6	70	RESIDUE	1 ****	ILE
7	LEU7	89	RESIDUE	1 ****	LEU
8	ASP8	108	RESIDUE	1 ****	ASP
9	GLU9	120	RESIDUE	1 ****	GLU
10	HIS10	135	RESIDUE	1 ****	HIS
11	ARG11	152	RESIDUE	1 ****	ARG
12	GLN12	176	RESIDUE	1 ****	GLN
13	ARG13	193	RESIDUE	1 ****	ARG
14	VAL14	217	RESIDUE	1 ****	VAL
15	MET15	233	RESIDUE	1 ****	MET
16	ARG16	250	RESIDUE	1 ****	ARG
