REMARK WARNING: 32 MAX_TORS EXCEEDED!!!
REMARK  69 active torsions:
REMARK  status: ('A' for Active; 'I' for Inactive)
REMARK    1  A    between atoms: N_1  and  CA_2 
REMARK    2  A    between atoms: CA_2  and  C_3 
REMARK    3  A    between atoms: CA_2  and  CB_5 
REMARK       I    between atoms: C_3  and  N_11 
REMARK    4  A    between atoms: CB_5  and  CG_6 
REMARK    5  A    between atoms: CG_6  and  CD_7 
REMARK    6  A    between atoms: N_11  and  CA_12 
REMARK    7  A    between atoms: CA_12  and  C_13 
REMARK    8  A    between atoms: CA_12  and  CB_15 
REMARK       I    between atoms: C_13  and  N_22 
REMARK    9  A    between atoms: CB_15  and  CG_16 
REMARK       I    between atoms: CG_16  and  ND2_17 
REMARK   10  A    between atoms: CA_23  and  C_24 
REMARK       I    between atoms: C_24  and  N_29 
REMARK   11  A    between atoms: N_29  and  CA_30 
REMARK   12  A    between atoms: CA_30  and  C_31 
REMARK   13  A    between atoms: CA_30  and  CB_33 
REMARK       I    between atoms: C_31  and  N_39 
REMARK   14  A    between atoms: CB_33  and  CG_34 
REMARK   15  A    between atoms: CG_34  and  CD_35 
REMARK   16  A    between atoms: N_39  and  CA_40 
REMARK   17  A    between atoms: CA_40  and  C_41 
REMARK   18  A    between atoms: CA_40  and  CB_43 
REMARK       I    between atoms: C_41  and  N_47 
REMARK   19  A    between atoms: CB_43  and  OG_44 
REMARK   20  A    between atoms: N_47  and  CA_48 
REMARK   21  A    between atoms: CA_48  and  C_49 
REMARK   22  A    between atoms: CA_48  and  CB_51 
REMARK       I    between atoms: C_49  and  N_56 
REMARK   23  A    between atoms: CB_51  and  CG1_52 
REMARK   24  A    between atoms: N_56  and  CA_57 
REMARK   25  A    between atoms: CA_57  and  C_58 
REMARK   26  A    between atoms: CA_57  and  CB_60 
REMARK       I    between atoms: C_58  and  N_65 
REMARK   27  A    between atoms: CB_60  and  CG_61 
REMARK   28  A    between atoms: CG_61  and  SD_62 
REMARK   29  A    between atoms: N_65  and  CA_66 
REMARK   30  A    between atoms: CA_66  and  C_67 
REMARK   31  A    between atoms: CA_66  and  CB_69 
REMARK       I    between atoms: C_67  and  N_74 
REMARK   32  A    between atoms: CB_69  and  CG_70 
REMARK   33  A    between atoms: N_74  and  CA_75 
REMARK   34  A    between atoms: CA_75  and  C_76 
REMARK   35  A    between atoms: CA_75  and  CB_78 
REMARK       I    between atoms: C_76  and  N_84 
REMARK   36  A    between atoms: CB_78  and  CG_79 
REMARK   37  A    between atoms: CG_79  and  CD_80 
REMARK   38  A    between atoms: N_84  and  CA_85 
REMARK   39  A    between atoms: CA_85  and  C_86 
REMARK   40  A    between atoms: CA_85  and  CB_88 
REMARK       I    between atoms: C_86  and  N_96 
REMARK   41  A    between atoms: CB_88  and  CG_89 
REMARK   42  A    between atoms: N_96  and  CA_97 
REMARK   43  A    between atoms: CA_97  and  C_98 
REMARK   44  A    between atoms: CA_97  and  CB_100 
REMARK       I    between atoms: C_98  and  N_104 
REMARK   45  A    between atoms: N_104  and  CA_105 
REMARK   46  A    between atoms: CA_105  and  C_106 
REMARK   47  A    between atoms: CA_105  and  CB_108 
REMARK       I    between atoms: C_106  and  N_116 
REMARK   48  A    between atoms: CB_108  and  CG_109 
REMARK   49  A    between atoms: CG_109  and  CD_110 
REMARK       I    between atoms: CD_110  and  NE2_111 
REMARK   50  A    between atoms: N_116  and  CA_117 
REMARK   51  A    between atoms: CA_117  and  C_118 
REMARK   52  A    between atoms: CA_117  and  CB_120 
REMARK       I    between atoms: C_118  and  N_133 
REMARK   53  A    between atoms: CB_120  and  CG_121 
REMARK   54  A    between atoms: CG_121  and  CD_122 
REMARK   55  A    between atoms: CD_122  and  NE_123 
REMARK       I    between atoms: NE_123  and  CZ_124 
REMARK       I    between atoms: CZ_124  and  NH1_125 
REMARK       I    between atoms: CZ_124  and  NH2_126 
REMARK   56  A    between atoms: N_133  and  CA_134 
REMARK   57  A    between atoms: CA_134  and  C_135 
REMARK   58  A    between atoms: CA_134  and  CB_137 
REMARK       I    between atoms: C_135  and  N_141 
REMARK   59  A    between atoms: N_141  and  CA_142 
REMARK   60  A    between atoms: CA_142  and  C_143 
REMARK   61  A    between atoms: CA_142  and  CB_145 
REMARK       I    between atoms: C_143  and  N_150 
REMARK   62  A    between atoms: CB_145  and  CG_146 
REMARK   63  A    between atoms: CG_146  and  SD_147 
REMARK   64  A    between atoms: N_150  and  CA_151 
REMARK   65  A    between atoms: CA_151  and  C_152 
REMARK   66  A    between atoms: CA_151  and  CB_154 
REMARK   67  A    between atoms: CB_154  and  CG_155 
REMARK   68  A    between atoms: CG_155  and  CD_156 
REMARK   69  A    between atoms: CD_156  and  NE_157 
REMARK       I    between atoms: NE_157  and  CZ_158 
REMARK       I    between atoms: CZ_158  and  NH1_159 
ROOT
ATOM      1  C   GLU d   9    1067.984 302.892-1048.547  0.00  0.00     0.241 C 
ATOM      2  O   GLU d   9    1068.647 303.645-1049.275  0.00  0.00    -0.271 OA
ATOM      3  N   HIS d  10    1068.080 301.617-1048.714  0.00  0.00    -0.346 N 
ATOM      4  H   HIS d  10    1067.550 300.983-1048.133  0.00  0.00     0.163 HD
ENDROOT
BRANCH   1   5
ATOM      5  CA  GLU d   9    1067.067 303.422-1047.471  0.00  0.00     0.177 C 
BRANCH   5   6
ATOM      6  N   GLU d   9    1065.764 302.765-1047.524  0.00  0.00    -0.346 N 
ATOM      7  C   ASP d   8    1065.083 302.812-1048.619  0.00  0.00     0.241 C 
ATOM      8  O   ASP d   8    1065.556 303.415-1049.595  0.00  0.00    -0.271 OA
ATOM      9  H   GLU d   9    1065.401 302.280-1046.715  0.00  0.00     0.163 HD
BRANCH   7  10
ATOM     10  CA  ASP d   8    1063.737 302.133-1048.673  0.00  0.00     0.186 C 
BRANCH  10  11
ATOM     11  N   ASP d   8    1063.807 300.785-1048.117  0.00  0.00    -0.346 N 
ATOM     12  C   MET d   7    1064.644 299.942-1048.622  0.00  0.00     0.241 C 
ATOM     13  O   MET d   7    1065.364 300.302-1049.566  0.00  0.00    -0.271 OA
ATOM     14  H   ASP d   8    1063.209 300.515-1047.349  0.00  0.00     0.163 HD
BRANCH  12  15
ATOM     15  CA  MET d   7    1064.717 298.549-1048.047  0.00  0.00     0.177 C 
BRANCH  15  16
ATOM     16  N   MET d   7    1064.773 298.585-1046.589  0.00  0.00    -0.346 N 
ATOM     17  C   ILE d   6    1065.719 299.249-1046.015  0.00  0.00     0.241 C 
ATOM     18  O   ILE d   6    1066.553 299.836-1046.719  0.00  0.00    -0.271 OA
ATOM     19  H   MET d   7    1064.081 298.098-1046.037  0.00  0.00     0.163 HD
BRANCH  17  20
ATOM     20  CA  ILE d   6    1065.776 299.286-1044.507  0.00  0.00     0.180 C 
BRANCH  20  21
ATOM     21  N   ILE d   6    1064.463 299.581-1043.941  0.00  0.00    -0.346 N 
ATOM     22  C   SER d   5    1063.858 300.664-1044.295  0.00  0.00     0.243 C 
ATOM     23  O   SER d   5    1064.405 301.417-1045.100  0.00  0.00    -0.271 OA
ATOM     24  H   ILE d   6    1064.034 298.946-1043.282  0.00  0.00     0.163 HD
BRANCH  22  25
ATOM     25  CA  SER d   5    1062.499 300.969-1043.709  0.00  0.00     0.200 C 
BRANCH  25  26
ATOM     26  N   SER d   5    1061.630 299.798-1043.768  0.00  0.00    -0.344 N 
ATOM     27  C   GLU d   4    1061.402 299.245-1044.911  0.00  0.00     0.241 C 
ATOM     28  O   GLU d   4    1061.928 299.725-1045.925  0.00  0.00    -0.271 OA
ATOM     29  H   SER d   5    1061.213 299.426-1042.926  0.00  0.00     0.163 HD
BRANCH  27  30
ATOM     30  CA  GLU d   4    1060.503 298.034-1044.972  0.00  0.00     0.177 C 
BRANCH  30  31
ATOM     31  N   GLU d   4    1060.863 297.063-1043.942  0.00  0.00    -0.346 N 
ATOM     32  C   PRO d   3    1062.068 296.603-1043.910  0.00  0.00     0.241 C 
ATOM     33  O   PRO d   3    1062.891 296.986-1044.742  0.00  0.00    -0.271 OA
ATOM     34  H   GLU d   4    1060.179 296.756-1043.266  0.00  0.00     0.163 HD
BRANCH  32  35
ATOM     35  CA  PRO d   3    1062.466 295.579-1042.833  0.00  0.00     0.179 C 
ATOM     36  N   PRO d   3    1062.014 295.989-1041.512  0.00  0.00    -0.337 N 
ATOM     37  C   ASN d   2    1062.536 296.984-1040.878  0.00  0.00     0.243 C 
ATOM     38  CD  PRO d   3    1060.936 295.195-1040.963  0.00  0.00     0.127 C 
ATOM     39  O   ASN d   2    1063.451 297.614-1041.406  0.00  0.00    -0.271 OA
ATOM     40  CG  PRO d   3    1060.479 294.377-1042.172  0.00  0.00     0.022 C 
ATOM     41  CB  PRO d   3    1061.762 294.225-1043.003  0.00  0.00     0.037 C 
BRANCH  37  42
ATOM     42  CA  ASN d   2    1062.005 297.339-1039.509  0.00  0.00     0.185 C 
BRANCH  42  43
ATOM     43  N   ASN d   2    1060.545 297.378-1039.509  0.00  0.00    -0.346 N 
ATOM     44  C   GLU d   1    1059.941 298.164-1040.334  0.00  0.00     0.242 C 
ATOM     45  O   GLU d   1    1060.617 298.863-1041.103  0.00  0.00    -0.271 OA
ATOM     46  H   ASN d   2    1060.017 296.798-1038.872  0.00  0.00     0.163 HD
BRANCH  44  47
ATOM     47  CA  GLU d   1    1058.432 298.204-1040.334  0.00  0.00     0.191 C 
BRANCH  47  48
ATOM     48  N   GLU d   1    1057.873 296.855-1040.334  0.00  0.00    -0.326 NA
ATOM     49  H   GLU d   1    1058.500 295.976-1040.334  0.00  0.00     0.180 HD
ENDBRANCH  47  48
BRANCH  47  50
ATOM     50  CB  GLU d   1    1057.909 298.989-1039.097  0.00  0.00     0.047 C 
BRANCH  50  51
ATOM     51  CG  GLU d   1    1058.384 300.474-1038.986  0.00  0.00     0.116 C 
BRANCH  51  52
ATOM     52  CD  GLU d   1    1057.960 301.278-1037.771  0.00  0.00     0.172 C 
ATOM     53  OE1 GLU d   1    1057.232 300.776-1036.893  0.00  0.00    -0.648 OA
ATOM     54  OE2 GLU d   1    1058.390 302.448-1037.699  0.00  0.00    -0.648 OA
ENDBRANCH  51  52
ENDBRANCH  50  51
ENDBRANCH  47  50
ENDBRANCH  44  47
ENDBRANCH  42  43
BRANCH  42  55
ATOM     55  CB  ASN d   2    1062.497 296.316-1038.445  0.00  0.00     0.137 C 
BRANCH  55  56
ATOM     56  CG  ASN d   2    1062.034 296.540-1037.001  0.00  0.00     0.217 C 
ATOM     57  ND2 ASN d   2    1062.628 297.455-1036.283  0.00  0.00    -0.370 N 
ATOM     58 21HD ASN d   2    1062.147 297.628-1035.397  0.00  0.00     0.159 HD
ATOM     59 22HD ASN d   2    1063.330 298.027-1036.752  0.00  0.00     0.159 HD
ATOM     60  OD1 ASN d   2    1061.113 295.906-1036.507  0.00  0.00    -0.274 OA
ENDBRANCH  55  56
ENDBRANCH  42  55
ENDBRANCH  37  42
ENDBRANCH  32  35
ENDBRANCH  30  31
BRANCH  30  61
ATOM     61  CB  GLU d   4    1059.015 298.452-1044.801  0.00  0.00     0.045 C 
BRANCH  61  62
ATOM     62  CG  GLU d   4    1058.466 299.456-1045.867  0.00  0.00     0.116 C 
BRANCH  62  63
ATOM     63  CD  GLU d   4    1057.040 299.953-1045.723  0.00  0.00     0.172 C 
ATOM     64  OE1 GLU d   4    1056.314 299.554-1044.792  0.00  0.00    -0.648 OA
ATOM     65  OE2 GLU d   4    1056.650 300.782-1046.571  0.00  0.00    -0.648 OA
ENDBRANCH  62  63
ENDBRANCH  61  62
ENDBRANCH  30  61
ENDBRANCH  27  30
ENDBRANCH  25  26
BRANCH  25  66
ATOM     66  CB  SER d   5    1062.611 301.501-1042.259  0.00  0.00     0.199 C 
BRANCH  66  67
ATOM     67  OG  SER d   5    1063.343 300.622-1041.398  0.00  0.00    -0.398 OA
ATOM     68  HG  SER d   5    1062.854 299.797-1041.347  0.00  0.00     0.209 HD
ENDBRANCH  66  67
ENDBRANCH  25  66
ENDBRANCH  22  25
ENDBRANCH  20  21
BRANCH  20  69
ATOM     69  CB  ILE d   6    1066.376 297.950-1043.908  0.00  0.00     0.013 C 
ATOM     70  CG2 ILE d   6    1067.817 297.648-1044.423  0.00  0.00     0.012 C 
BRANCH  69  71
ATOM     71  CG1 ILE d   6    1066.395 297.887-1042.347  0.00  0.00     0.002 C 
ATOM     72  CD1 ILE d   6    1066.665 296.498-1041.732  0.00  0.00     0.005 C 
ENDBRANCH  69  71
ENDBRANCH  20  69
ENDBRANCH  17  20
ENDBRANCH  15  16
BRANCH  15  73
ATOM     73  CB  MET d   7    1063.503 297.695-1048.507  0.00  0.00     0.045 C 
BRANCH  73  74
ATOM     74  CG  MET d   7    1063.531 296.206-1048.098  0.00  0.00     0.076 C 
BRANCH  74  75
ATOM     75  SD  MET d   7    1062.219 295.314-1048.948  0.00  0.00    -0.173 SA
ATOM     76  CE  MET d   7    1062.270 293.792-1047.993  0.00  0.00     0.089 C 
ENDBRANCH  74  75
ENDBRANCH  73  74
ENDBRANCH  15  73
ENDBRANCH  12  15
ENDBRANCH  10  11
BRANCH  10  77
ATOM     77  CB  ASP d   8    1062.659 302.974-1047.933  0.00  0.00     0.147 C 
BRANCH  77  78
ATOM     78  CG  ASP d   8    1062.440 304.393-1048.477  0.00  0.00     0.175 C 
ATOM     79  OD1 ASP d   8    1062.504 304.590-1049.708  0.00  0.00    -0.648 OA
ATOM     80  OD2 ASP d   8    1062.249 305.321-1047.663  0.00  0.00    -0.648 OA
ENDBRANCH  77  78
ENDBRANCH  10  77
ENDBRANCH   7  10
ENDBRANCH   5   6
BRANCH   5  81
ATOM     81  CB  GLU d   9    1067.702 303.218-1046.066  0.00  0.00     0.045 C 
BRANCH  81  82
ATOM     82  CG  GLU d   9    1069.084 303.910-1045.839  0.00  0.00     0.116 C 
BRANCH  82  83
ATOM     83  CD  GLU d   9    1069.787 303.700-1044.511  0.00  0.00     0.172 C 
ATOM     84  OE1 GLU d   9    1069.267 303.011-1043.613  0.00  0.00    -0.648 OA
ATOM     85  OE2 GLU d   9    1070.907 304.238-1044.382  0.00  0.00    -0.648 OA
ENDBRANCH  82  83
ENDBRANCH  81  82
ENDBRANCH   5  81
ENDBRANCH   1   5
BRANCH   3  86
ATOM     86  CA  HIS d  10    1068.967 301.103-1049.754  0.00  0.00     0.182 C 
BRANCH  86  87
ATOM     87  C   HIS d  10    1068.599 301.664-1051.106  0.00  0.00     0.241 C 
ATOM     88  O   HIS d  10    1069.451 302.127-1051.879  0.00  0.00    -0.271 OA
ATOM     89  N   VAL d  11    1067.361 301.663-1051.468  0.00  0.00    -0.346 N 
ATOM     90  H   VAL d  11    1066.648 301.291-1050.856  0.00  0.00     0.163 HD
BRANCH  89  91
ATOM     91  CA  VAL d  11    1067.005 302.206-1052.775  0.00  0.00     0.180 C 
BRANCH  91  92
ATOM     92  C   VAL d  11    1067.470 303.636-1052.911  0.00  0.00     0.241 C 
ATOM     93  O   VAL d  11    1068.070 304.039-1053.916  0.00  0.00    -0.271 OA
ATOM     94  N   GLN d  12    1067.233 304.464-1051.951  0.00  0.00    -0.346 N 
ATOM     95  H   GLN d  12    1066.745 304.160-1051.121  0.00  0.00     0.163 HD
BRANCH  94  96
ATOM     96  CA  GLN d  12    1067.682 305.847-1052.081  0.00  0.00     0.177 C 
BRANCH  96  97
ATOM     97  C   GLN d  12    1069.172 305.913-1052.320  0.00  0.00     0.241 C 
ATOM     98  O   GLN d  12    1069.659 306.619-1053.201  0.00  0.00    -0.271 OA
ATOM     99  N   ARG d  13    1069.957 305.207-1051.578  0.00  0.00    -0.346 N 
ATOM    100  H   ARG d  13    1069.581 304.620-1050.848  0.00  0.00     0.163 HD
BRANCH  99 101
ATOM    101  CA  ARG d  13    1071.397 305.272-1051.810  0.00  0.00     0.176 C 
BRANCH 101 102
ATOM    102  C   ARG d  13    1071.732 304.897-1053.234  0.00  0.00     0.241 C 
ATOM    103  O   ARG d  13    1072.500 305.567-1053.921  0.00  0.00    -0.271 OA
ATOM    104  N   VAL d  14    1071.195 303.842-1053.746  0.00  0.00    -0.346 N 
ATOM    105  H   VAL d  14    1070.560 303.274-1053.202  0.00  0.00     0.163 HD
BRANCH 104 106
ATOM    106  CA  VAL d  14    1071.519 303.479-1055.123  0.00  0.00     0.180 C 
BRANCH 106 107
ATOM    107  C   VAL d  14    1071.189 304.606-1056.071  0.00  0.00     0.241 C 
ATOM    108  O   VAL d  14    1071.982 304.985-1056.942  0.00  0.00    -0.271 OA
ATOM    109  N   MET d  15    1070.044 305.193-1055.970  0.00  0.00    -0.346 N 
ATOM    110  H   MET d  15    1069.380 304.902-1055.268  0.00  0.00     0.163 HD
BRANCH 109 111
ATOM    111  CA  MET d  15    1069.724 306.284-1056.887  0.00  0.00     0.177 C 
BRANCH 111 112
ATOM    112  C   MET d  15    1070.755 307.383-1056.802  0.00  0.00     0.241 C 
ATOM    113  O   MET d  15    1071.257 307.891-1057.817  0.00  0.00    -0.271 OA
ATOM    114  N   ARG d  16    1071.125 307.807-1055.641  0.00  0.00    -0.347 N 
ATOM    115  H   ARG d  16    1070.730 307.409-1054.801  0.00  0.00     0.163 HD
BRANCH 114 116
ATOM    116  CA  ARG d  16    1072.122 308.871-1055.561  0.00  0.00     0.162 C 
BRANCH 116 117
ATOM    117  C   ARG d  16    1073.392 308.476-1056.277  0.00  0.00     0.219 C 
ATOM    118  O   ARG d  16    1073.505 307.398-1056.856  0.00  0.00    -0.287 OA
ENDBRANCH 116 117
BRANCH 116 119
ATOM    119  CB  ARG d  16    1072.392 309.193-1054.064  0.00  0.00     0.035 C 
BRANCH 119 120
ATOM    120  CG  ARG d  16    1073.218 310.482-1053.795  0.00  0.00     0.023 C 
BRANCH 120 121
ATOM    121  CD  ARG d  16    1073.469 310.705-1052.295  0.00  0.00     0.138 C 
BRANCH 121 122
ATOM    122  NE  ARG d  16    1074.245 311.964-1052.097  0.00  0.00    -0.227 N 
ATOM    123  CZ  ARG d  16    1074.638 312.450-1050.923  0.00  0.00     0.665 C 
ATOM    124  NH1 ARG d  16    1074.391 311.868-1049.783  0.00  0.00    -0.235 N 
ATOM    125  NH2 ARG d  16    1075.302 313.562-1050.908  0.00  0.00    -0.235 N 
ATOM    126 11HH ARG d  16    1073.865 310.995-1049.865  0.00  0.00     0.174 HD
ATOM    127 12HH ARG d  16    1074.726 312.306-1048.923  0.00  0.00     0.174 HD
ATOM    128 21HH ARG d  16    1075.487 314.003-1051.811  0.00  0.00     0.174 HD
ATOM    129 22HH ARG d  16    1075.593 313.919-1049.997  0.00  0.00     0.174 HD
ATOM    130  HE  ARG d  16    1074.524 312.543-1052.896  0.00  0.00     0.177 HD
ENDBRANCH 121 122
ENDBRANCH 120 121
ENDBRANCH 119 120
ENDBRANCH 116 119
ENDBRANCH 114 116
ENDBRANCH 111 112
BRANCH 111 131
ATOM    131  CB  MET d  15    1068.303 306.831-1056.578  0.00  0.00     0.045 C 
BRANCH 131 132
ATOM    132  CG  MET d  15    1067.141 305.833-1056.767  0.00  0.00     0.076 C 
BRANCH 132 133
ATOM    133  SD  MET d  15    1065.567 306.700-1056.654  0.00  0.00    -0.173 SA
ATOM    134  CE  MET d  15    1064.485 305.271-1056.513  0.00  0.00     0.089 C 
ENDBRANCH 132 133
ENDBRANCH 131 132
ENDBRANCH 111 131
ENDBRANCH 109 111
ENDBRANCH 106 107
BRANCH 106 135
ATOM    135  CB  VAL d  14    1070.746 302.161-1055.526  0.00  0.00     0.009 C 
ATOM    136  CG1 VAL d  14    1070.834 301.739-1057.018  0.00  0.00     0.012 C 
ATOM    137  CG2 VAL d  14    1071.178 300.910-1054.723  0.00  0.00     0.012 C 
ENDBRANCH 106 135
ENDBRANCH 104 106
ENDBRANCH 101 102
BRANCH 101 138
ATOM    138  CB  ARG d  13    1072.110 304.335-1050.794  0.00  0.00     0.036 C 
BRANCH 138 139
ATOM    139  CG  ARG d  13    1073.656 304.488-1050.715  0.00  0.00     0.023 C 
BRANCH 139 140
ATOM    140  CD  ARG d  13    1074.283 303.502-1049.715  0.00  0.00     0.138 C 
BRANCH 140 141
ATOM    141  NE  ARG d  13    1075.760 303.709-1049.666  0.00  0.00    -0.227 N 
ATOM    142  CZ  ARG d  13    1076.608 303.019-1048.909  0.00  0.00     0.665 C 
ATOM    143  NH1 ARG d  13    1076.243 302.057-1048.109  0.00  0.00    -0.235 N 
ATOM    144  NH2 ARG d  13    1077.868 303.317-1048.968  0.00  0.00    -0.235 N 
ATOM    145 11HH ARG d  13    1075.238 301.871-1048.112  0.00  0.00     0.174 HD
ATOM    146 12HH ARG d  13    1076.956 301.575-1047.560  0.00  0.00     0.174 HD
ATOM    147 21HH ARG d  13    1078.135 304.073-1049.601  0.00  0.00     0.174 HD
ATOM    148 22HH ARG d  13    1078.503 302.777-1048.378  0.00  0.00     0.174 HD
ATOM    149  HE  ARG d  13    1076.211 304.430-1050.239  0.00  0.00     0.177 HD
ENDBRANCH 140 141
ENDBRANCH 139 140
ENDBRANCH 138 139
ENDBRANCH 101 138
ENDBRANCH  99 101
ENDBRANCH  96  97
BRANCH  96 150
ATOM    150  CB  GLN d  12    1067.292 306.617-1050.800  0.00  0.00     0.044 C 
BRANCH 150 151
ATOM    151  CG  GLN d  12    1067.653 308.139-1050.773  0.00  0.00     0.105 C 
BRANCH 151 152
ATOM    152  CD  GLN d  12    1067.352 308.956-1049.510  0.00  0.00     0.215 C 
ATOM    153  NE2 GLN d  12    1066.785 308.382-1048.479  0.00  0.00    -0.370 N 
ATOM    154 21HE GLN d  12    1066.679 308.978-1047.657  0.00  0.00     0.159 HD
ATOM    155 22HE GLN d  12    1066.621 307.378-1048.580  0.00  0.00     0.159 HD
ATOM    156  OE1 GLN d  12    1067.654 310.137-1049.436  0.00  0.00    -0.274 OA
ENDBRANCH 151 152
ENDBRANCH 150 151
ENDBRANCH  96 150
ENDBRANCH  94  96
ENDBRANCH  91  92
BRANCH  91 157
ATOM    157  CB  VAL d  11    1065.443 302.099-1052.994  0.00  0.00     0.009 C 
ATOM    158  CG1 VAL d  11    1064.874 302.800-1054.257  0.00  0.00     0.012 C 
ATOM    159  CG2 VAL d  11    1064.918 300.645-1053.063  0.00  0.00     0.012 C 
ENDBRANCH  91 157
ENDBRANCH  89  91
ENDBRANCH  86  87
BRANCH  86 160
ATOM    160  CB  HIS d  10    1068.802 299.574-1049.745  0.00  0.00     0.095 C 
BRANCH 160 161
ATOM    161  CG  HIS d  10    1070.088 298.864-1049.437  0.00  0.00     0.053 A 
ATOM    162  CD2 HIS d  10    1070.470 298.531-1048.144  0.00  0.00     0.116 A 
ATOM    163  NE2 HIS d  10    1071.685 297.899-1048.210  0.00  0.00    -0.359 N 
ATOM    164  CE1 HIS d  10    1071.946 297.899-1049.546  0.00  0.00     0.207 A 
ATOM    165  2HE HIS d  10    1072.252 297.523-1047.437  0.00  0.00     0.166 HD
ATOM    166  ND1 HIS d  10    1071.039 298.456-1050.369  0.00  0.00    -0.247 NA
ENDBRANCH 160 161
ENDBRANCH  86 160
ENDBRANCH   3  86
TORSDOF 69
