REMARK WARNING: 32 MAX_TORS EXCEEDED!!!
REMARK  68 active torsions:
REMARK  status: ('A' for Active; 'I' for Inactive)
REMARK    1  A    between atoms: N_1  and  CA_2 
REMARK    2  A    between atoms: CA_2  and  C_3 
REMARK    3  A    between atoms: CA_2  and  CB_5 
REMARK       I    between atoms: C_3  and  N_11 
REMARK    4  A    between atoms: CB_5  and  CG_6 
REMARK    5  A    between atoms: CG_6  and  CD_7 
REMARK    6  A    between atoms: N_11  and  CA_12 
REMARK    7  A    between atoms: CA_12  and  C_13 
REMARK    8  A    between atoms: CA_12  and  CB_15 
REMARK       I    between atoms: C_13  and  N_23 
REMARK    9  A    between atoms: CB_15  and  CG_16 
REMARK   10  A    between atoms: CA_24  and  C_25 
REMARK       I    between atoms: C_25  and  N_30 
REMARK   11  A    between atoms: N_30  and  CA_31 
REMARK   12  A    between atoms: CA_31  and  C_32 
REMARK   13  A    between atoms: CA_31  and  CB_34 
REMARK       I    between atoms: C_32  and  N_40 
REMARK   14  A    between atoms: CB_34  and  CG_35 
REMARK   15  A    between atoms: CG_35  and  CD_36 
REMARK   16  A    between atoms: N_40  and  CA_41 
REMARK   17  A    between atoms: CA_41  and  C_42 
REMARK   18  A    between atoms: CA_41  and  CB_44 
REMARK       I    between atoms: C_42  and  N_48 
REMARK   19  A    between atoms: CB_44  and  OG_45 
REMARK   20  A    between atoms: N_48  and  CA_49 
REMARK   21  A    between atoms: CA_49  and  C_50 
REMARK   22  A    between atoms: CA_49  and  CB_52 
REMARK       I    between atoms: C_50  and  N_57 
REMARK   23  A    between atoms: CB_52  and  CG1_53 
REMARK   24  A    between atoms: N_57  and  CA_58 
REMARK   25  A    between atoms: CA_58  and  C_59 
REMARK   26  A    between atoms: CA_58  and  CB_61 
REMARK       I    between atoms: C_59  and  N_66 
REMARK   27  A    between atoms: CB_61  and  CG_62 
REMARK   28  A    between atoms: N_66  and  CA_67 
REMARK   29  A    between atoms: CA_67  and  C_68 
REMARK   30  A    between atoms: CA_67  and  CB_70 
REMARK       I    between atoms: C_68  and  N_75 
REMARK   31  A    between atoms: CB_70  and  CG_71 
REMARK   32  A    between atoms: N_75  and  CA_76 
REMARK   33  A    between atoms: CA_76  and  C_77 
REMARK   34  A    between atoms: CA_76  and  CB_79 
REMARK       I    between atoms: C_77  and  N_85 
REMARK   35  A    between atoms: CB_79  and  CG_80 
REMARK   36  A    between atoms: CG_80  and  CD_81 
REMARK   37  A    between atoms: N_85  and  CA_86 
REMARK   38  A    between atoms: CA_86  and  C_87 
REMARK   39  A    between atoms: CA_86  and  CB_89 
REMARK       I    between atoms: C_87  and  N_97 
REMARK   40  A    between atoms: CB_89  and  CG_90 
REMARK   41  A    between atoms: N_97  and  CA_98 
REMARK   42  A    between atoms: CA_98  and  C_99 
REMARK   43  A    between atoms: CA_98  and  CB_101 
REMARK       I    between atoms: C_99  and  N_105 
REMARK   44  A    between atoms: N_105  and  CA_106 
REMARK   45  A    between atoms: CA_106  and  C_107 
REMARK   46  A    between atoms: CA_106  and  CB_109 
REMARK       I    between atoms: C_107  and  N_117 
REMARK   47  A    between atoms: CB_109  and  CG_110 
REMARK   48  A    between atoms: CG_110  and  CD_111 
REMARK       I    between atoms: CD_111  and  NE2_112 
REMARK   49  A    between atoms: N_117  and  CA_118 
REMARK   50  A    between atoms: CA_118  and  C_119 
REMARK   51  A    between atoms: CA_118  and  CB_121 
REMARK       I    between atoms: C_119  and  N_134 
REMARK   52  A    between atoms: CB_121  and  CG_122 
REMARK   53  A    between atoms: CG_122  and  CD_123 
REMARK   54  A    between atoms: CD_123  and  NE_124 
REMARK       I    between atoms: NE_124  and  CZ_125 
REMARK       I    between atoms: CZ_125  and  NH1_126 
REMARK       I    between atoms: CZ_125  and  NH2_127 
REMARK   55  A    between atoms: N_134  and  CA_135 
REMARK   56  A    between atoms: CA_135  and  C_136 
REMARK   57  A    between atoms: CA_135  and  CB_138 
REMARK       I    between atoms: C_136  and  N_142 
REMARK   58  A    between atoms: N_142  and  CA_143 
REMARK   59  A    between atoms: CA_143  and  C_144 
REMARK   60  A    between atoms: CA_143  and  CB_146 
REMARK       I    between atoms: C_144  and  N_151 
REMARK   61  A    between atoms: CB_146  and  CG_147 
REMARK   62  A    between atoms: CG_147  and  SD_148 
REMARK   63  A    between atoms: N_151  and  CA_152 
REMARK   64  A    between atoms: CA_152  and  C_153 
REMARK   65  A    between atoms: CA_152  and  CB_155 
REMARK   66  A    between atoms: CB_155  and  CG_156 
REMARK   67  A    between atoms: CG_156  and  CD_157 
REMARK   68  A    between atoms: CD_157  and  NE_158 
REMARK       I    between atoms: NE_158  and  CZ_159 
REMARK       I    between atoms: CZ_159  and  NH1_160 
ROOT
ATOM      1  C   GLU d   9     241.840  48.259-213.583  0.00  0.00     0.241 C 
ATOM      2  O   GLU d   9     242.505  49.014-214.307  0.00  0.00    -0.271 OA
ATOM      3  N   HIS d  10     241.938  46.984-213.753  0.00  0.00    -0.346 N 
ATOM      4  H   HIS d  10     241.407  46.348-213.176  0.00  0.00     0.163 HD
ENDROOT
BRANCH   1   5
ATOM      5  CA  GLU d   9     240.920  48.785-212.509  0.00  0.00     0.177 C 
BRANCH   5   6
ATOM      6  N   GLU d   9     239.618  48.127-212.567  0.00  0.00    -0.346 N 
ATOM      7  C   ASP d   8     238.940  48.176-213.663  0.00  0.00     0.241 C 
ATOM      8  O   ASP d   8     239.414  48.782-214.637  0.00  0.00    -0.271 OA
ATOM      9  H   GLU d   9     239.253  47.639-211.761  0.00  0.00     0.163 HD
BRANCH   7  10
ATOM     10  CA  ASP d   8     237.594  47.496-213.723  0.00  0.00     0.186 C 
BRANCH  10  11
ATOM     11  N   ASP d   8     237.664  46.146-213.170  0.00  0.00    -0.346 N 
ATOM     12  C   LEU d   7     238.503  45.306-213.676  0.00  0.00     0.241 C 
ATOM     13  O   LEU d   7     239.225  45.670-214.616  0.00  0.00    -0.271 OA
ATOM     14  H   ASP d   8     237.065  45.874-212.404  0.00  0.00     0.163 HD
BRANCH  12  15
ATOM     15  CA  LEU d   7     238.576  43.911-213.104  0.00  0.00     0.177 C 
BRANCH  15  16
ATOM     16  N   LEU d   7     238.628  43.946-211.645  0.00  0.00    -0.346 N 
ATOM     17  C   ILE d   6     239.572  44.610-211.069  0.00  0.00     0.241 C 
ATOM     18  O   ILE d   6     240.408  45.199-211.772  0.00  0.00    -0.271 OA
ATOM     19  H   LEU d   7     237.935  43.458-211.095  0.00  0.00     0.163 HD
BRANCH  17  20
ATOM     20  CA  ILE d   6     239.627  44.647-209.562  0.00  0.00     0.180 C 
BRANCH  20  21
ATOM     21  N   ILE d   6     238.312  44.941-208.997  0.00  0.00    -0.346 N 
ATOM     22  C   SER d   5     237.707  46.024-209.352  0.00  0.00     0.243 C 
ATOM     23  O   SER d   5     238.256  46.778-210.156  0.00  0.00    -0.271 OA
ATOM     24  H   ILE d   6     237.883  44.306-208.340  0.00  0.00     0.163 HD
BRANCH  22  25
ATOM     25  CA  SER d   5     236.347  46.328-208.769  0.00  0.00     0.200 C 
BRANCH  25  26
ATOM     26  N   SER d   5     235.479  45.156-208.829  0.00  0.00    -0.344 N 
ATOM     27  C   GLU d   4     235.254  44.604-209.973  0.00  0.00     0.241 C 
ATOM     28  O   GLU d   4     235.781  45.084-210.987  0.00  0.00    -0.271 OA
ATOM     29  H   SER d   5     235.060  44.784-207.989  0.00  0.00     0.163 HD
BRANCH  27  30
ATOM     30  CA  GLU d   4     234.355  43.392-210.037  0.00  0.00     0.177 C 
BRANCH  30  31
ATOM     31  N   GLU d   4     234.714  42.421-209.007  0.00  0.00    -0.346 N 
ATOM     32  C   PRO d   3     235.919  41.962-208.972  0.00  0.00     0.241 C 
ATOM     33  O   PRO d   3     236.743  42.346-209.802  0.00  0.00    -0.271 OA
ATOM     34  H   GLU d   4     234.029  42.114-208.331  0.00  0.00     0.163 HD
BRANCH  32  35
ATOM     35  CA  PRO d   3     236.315  40.938-207.895  0.00  0.00     0.179 C 
ATOM     36  N   PRO d   3     235.861  41.347-206.574  0.00  0.00    -0.337 N 
ATOM     37  C   PHE d   2     236.381  42.342-205.939  0.00  0.00     0.243 C 
ATOM     38  CD  PRO d   3     234.782  40.553-206.028  0.00  0.00     0.127 C 
ATOM     39  O   PHE d   2     237.320  42.990-206.479  0.00  0.00    -0.271 OA
ATOM     40  CG  PRO d   3     234.327  39.734-207.238  0.00  0.00     0.022 C 
ATOM     41  CB  PRO d   3     235.612  39.583-208.066  0.00  0.00     0.037 C 
BRANCH  37  42
ATOM     42  CA  PHE d   2     235.848  42.697-204.571  0.00  0.00     0.181 C 
BRANCH  42  43
ATOM     43  N   PHE d   2     234.388  42.736-204.572  0.00  0.00    -0.346 N 
ATOM     44  C   GLU d   1     233.784  43.522-205.397  0.00  0.00     0.242 C 
ATOM     45  O   GLU d   1     234.460  44.221-206.166  0.00  0.00    -0.271 OA
ATOM     46  H   PHE d   2     233.860  42.156-203.935  0.00  0.00     0.163 HD
BRANCH  44  47
ATOM     47  CA  GLU d   1     232.275  43.562-205.397  0.00  0.00     0.191 C 
BRANCH  47  48
ATOM     48  N   GLU d   1     231.716  42.213-205.397  0.00  0.00    -0.326 NA
ATOM     49  H   GLU d   1     232.343  41.334-205.397  0.00  0.00     0.180 HD
ENDBRANCH  47  48
BRANCH  47  50
ATOM     50  CB  GLU d   1     231.752  44.347-204.160  0.00  0.00     0.047 C 
BRANCH  50  51
ATOM     51  CG  GLU d   1     232.227  45.832-204.049  0.00  0.00     0.116 C 
BRANCH  51  52
ATOM     52  CD  GLU d   1     231.803  46.636-202.834  0.00  0.00     0.172 C 
ATOM     53  OE1 GLU d   1     231.075  46.134-201.956  0.00  0.00    -0.648 OA
ATOM     54  OE2 GLU d   1     232.233  47.806-202.762  0.00  0.00    -0.648 OA
ENDBRANCH  51  52
ENDBRANCH  50  51
ENDBRANCH  47  50
ENDBRANCH  44  47
ENDBRANCH  42  43
BRANCH  42  55
ATOM     55  CB  PHE d   2     236.354  41.640-203.544  0.00  0.00     0.073 C 
BRANCH  55  56
ATOM     56  CG  PHE d   2     235.910  41.835-202.085  0.00  0.00    -0.056 A 
ATOM     57  CD1 PHE d   2     234.705  41.274-201.649  0.00  0.00     0.007 A 
ATOM     58  CE1 PHE d   2     234.249  41.508-200.356  0.00  0.00     0.001 A 
ATOM     59  CZ  PHE d   2     235.004  42.291-199.486  0.00  0.00     0.000 A 
ATOM     60  CE2 PHE d   2     236.212  42.843-199.909  0.00  0.00     0.001 A 
ATOM     61  CD2 PHE d   2     236.663  42.617-201.207  0.00  0.00     0.007 A 
ENDBRANCH  55  56
ENDBRANCH  42  55
ENDBRANCH  37  42
ENDBRANCH  32  35
ENDBRANCH  30  31
BRANCH  30  62
ATOM     62  CB  GLU d   4     232.866  43.810-209.869  0.00  0.00     0.045 C 
BRANCH  62  63
ATOM     63  CG  GLU d   4     232.320  44.814-210.935  0.00  0.00     0.116 C 
BRANCH  63  64
ATOM     64  CD  GLU d   4     230.893  45.310-210.794  0.00  0.00     0.172 C 
ATOM     65  OE1 GLU d   4     230.165  44.911-209.864  0.00  0.00    -0.648 OA
ATOM     66  OE2 GLU d   4     230.504  46.139-211.642  0.00  0.00    -0.648 OA
ENDBRANCH  63  64
ENDBRANCH  62  63
ENDBRANCH  30  62
ENDBRANCH  27  30
ENDBRANCH  25  26
BRANCH  25  67
ATOM     67  CB  SER d   5     236.456  46.860-207.318  0.00  0.00     0.199 C 
BRANCH  67  68
ATOM     68  OG  SER d   5     237.187  45.981-206.456  0.00  0.00    -0.398 OA
ATOM     69  HG  SER d   5     236.698  45.156-206.407  0.00  0.00     0.209 HD
ENDBRANCH  67  68
ENDBRANCH  25  67
ENDBRANCH  22  25
ENDBRANCH  20  21
BRANCH  20  70
ATOM     70  CB  ILE d   6     240.226  43.311-208.961  0.00  0.00     0.013 C 
ATOM     71  CG2 ILE d   6     241.669  43.011-209.474  0.00  0.00     0.012 C 
BRANCH  70  72
ATOM     72  CG1 ILE d   6     240.243  43.248-207.400  0.00  0.00     0.002 C 
ATOM     73  CD1 ILE d   6     240.513  41.859-206.785  0.00  0.00     0.005 C 
ENDBRANCH  70  72
ENDBRANCH  20  70
ENDBRANCH  17  20
ENDBRANCH  15  16
BRANCH  15  74
ATOM     74  CB  LEU d   7     237.374  43.050-213.587  0.00  0.00     0.038 C 
BRANCH  74  75
ATOM     75  CG  LEU d   7     237.301  41.570-213.121  0.00  0.00    -0.020 C 
ATOM     76  CD1 LEU d   7     236.113  40.864-213.789  0.00  0.00     0.009 C 
ATOM     77  CD2 LEU d   7     238.596  40.792-213.410  0.00  0.00     0.009 C 
ENDBRANCH  74  75
ENDBRANCH  15  74
ENDBRANCH  12  15
ENDBRANCH  10  11
BRANCH  10  78
ATOM     78  CB  ASP d   8     236.514  48.333-212.983  0.00  0.00     0.147 C 
BRANCH  78  79
ATOM     79  CG  ASP d   8     236.295  49.754-213.523  0.00  0.00     0.175 C 
ATOM     80  OD1 ASP d   8     236.361  49.954-214.754  0.00  0.00    -0.648 OA
ATOM     81  OD2 ASP d   8     236.101  50.680-212.708  0.00  0.00    -0.648 OA
ENDBRANCH  78  79
ENDBRANCH  10  78
ENDBRANCH   7  10
ENDBRANCH   5   6
BRANCH   5  82
ATOM     82  CB  GLU d   9     241.551  48.577-211.102  0.00  0.00     0.045 C 
BRANCH  82  83
ATOM     83  CG  GLU d   9     242.933  49.271-210.870  0.00  0.00     0.116 C 
BRANCH  83  84
ATOM     84  CD  GLU d   9     243.632  49.057-209.541  0.00  0.00     0.172 C 
ATOM     85  OE1 GLU d   9     243.110  48.365-208.646  0.00  0.00    -0.648 OA
ATOM     86  OE2 GLU d   9     244.751  49.596-209.407  0.00  0.00    -0.648 OA
ENDBRANCH  83  84
ENDBRANCH  82  83
ENDBRANCH   5  82
ENDBRANCH   1   5
BRANCH   3  87
ATOM     87  CA  HIS d  10     242.828  46.474-214.792  0.00  0.00     0.182 C 
BRANCH  87  88
ATOM     88  C   HIS d  10     242.464  47.039-216.144  0.00  0.00     0.241 C 
ATOM     89  O   HIS d  10     243.317  47.505-216.914  0.00  0.00    -0.271 OA
ATOM     90  N   VAL d  11     241.226  47.037-216.509  0.00  0.00    -0.346 N 
ATOM     91  H   VAL d  11     240.513  46.663-215.900  0.00  0.00     0.163 HD
BRANCH  90  92
ATOM     92  CA  VAL d  11     240.873  47.583-217.816  0.00  0.00     0.180 C 
BRANCH  92  93
ATOM     93  C   VAL d  11     241.337  49.014-217.947  0.00  0.00     0.241 C 
ATOM     94  O   VAL d  11     241.939  49.421-218.949  0.00  0.00    -0.271 OA
ATOM     95  N   GLN d  12     241.097  49.839-216.985  0.00  0.00    -0.346 N 
ATOM     96  H   GLN d  12     240.607  49.532-216.157  0.00  0.00     0.163 HD
BRANCH  95  97
ATOM     97  CA  GLN d  12     241.544  51.223-217.110  0.00  0.00     0.177 C 
BRANCH  97  98
ATOM     98  C   GLN d  12     243.035  51.292-217.345  0.00  0.00     0.241 C 
ATOM     99  O   GLN d  12     243.523  52.001-218.223  0.00  0.00    -0.271 OA
ATOM    100  N   ARG d  13     243.819  50.585-216.603  0.00  0.00    -0.346 N 
ATOM    101  H   ARG d  13     243.442  49.995-215.876  0.00  0.00     0.163 HD
BRANCH 100 102
ATOM    102  CA  ARG d  13     245.259  50.652-216.831  0.00  0.00     0.176 C 
BRANCH 102 103
ATOM    103  C   ARG d  13     245.599  50.282-218.256  0.00  0.00     0.241 C 
ATOM    104  O   ARG d  13     246.368  50.955-218.938  0.00  0.00    -0.271 OA
ATOM    105  N   VAL d  14     245.064  49.227-218.772  0.00  0.00    -0.346 N 
ATOM    106  H   VAL d  14     244.429  48.658-218.232  0.00  0.00     0.163 HD
BRANCH 105 107
ATOM    107  CA  VAL d  14     245.392  48.869-220.149  0.00  0.00     0.180 C 
BRANCH 107 108
ATOM    108  C   VAL d  14     245.063  49.999-221.095  0.00  0.00     0.241 C 
ATOM    109  O   VAL d  14     245.857  50.382-221.962  0.00  0.00    -0.271 OA
ATOM    110  N   MET d  15     243.917  50.584-220.995  0.00  0.00    -0.346 N 
ATOM    111  H   MET d  15     243.251  50.290-220.295  0.00  0.00     0.163 HD
BRANCH 110 112
ATOM    112  CA  MET d  15     243.598  51.677-221.908  0.00  0.00     0.177 C 
BRANCH 112 113
ATOM    113  C   MET d  15     244.627  52.778-221.818  0.00  0.00     0.241 C 
ATOM    114  O   MET d  15     245.131  53.290-222.829  0.00  0.00    -0.271 OA
ATOM    115  N   ARG d  16     244.993  53.198-220.655  0.00  0.00    -0.347 N 
ATOM    116  H   ARG d  16     244.597  52.798-219.817  0.00  0.00     0.163 HD
BRANCH 115 117
ATOM    117  CA  ARG d  16     245.988  54.263-220.569  0.00  0.00     0.162 C 
BRANCH 117 118
ATOM    118  C   ARG d  16     247.261  53.872-221.283  0.00  0.00     0.219 C 
ATOM    119  O   ARG d  16     247.377  52.796-221.865  0.00  0.00    -0.287 OA
ENDBRANCH 117 118
BRANCH 117 120
ATOM    120  CB  ARG d  16     246.254  54.580-219.070  0.00  0.00     0.035 C 
BRANCH 120 121
ATOM    121  CG  ARG d  16     247.078  55.870-218.795  0.00  0.00     0.023 C 
BRANCH 121 122
ATOM    122  CD  ARG d  16     247.324  56.089-217.293  0.00  0.00     0.138 C 
BRANCH 122 123
ATOM    123  NE  ARG d  16     248.099  57.348-217.089  0.00  0.00    -0.227 N 
ATOM    124  CZ  ARG d  16     248.488  57.830-215.913  0.00  0.00     0.665 C 
ATOM    125  NH1 ARG d  16     248.239  57.245-214.775  0.00  0.00    -0.235 N 
ATOM    126  NH2 ARG d  16     249.151  58.943-215.893  0.00  0.00    -0.235 N 
ATOM    127 11HH ARG d  16     247.714  56.372-214.861  0.00  0.00     0.174 HD
ATOM    128 12HH ARG d  16     248.571  57.680-213.913  0.00  0.00     0.174 HD
ATOM    129 21HH ARG d  16     249.338  59.387-216.794  0.00  0.00     0.174 HD
ATOM    130 22HH ARG d  16     249.439  59.298-214.979  0.00  0.00     0.174 HD
ATOM    131  HE  ARG d  16     248.379  57.930-217.886  0.00  0.00     0.177 HD
ENDBRANCH 122 123
ENDBRANCH 121 122
ENDBRANCH 120 121
ENDBRANCH 117 120
ENDBRANCH 115 117
ENDBRANCH 112 113
BRANCH 112 132
ATOM    132  CB  MET d  15     242.175  52.221-221.602  0.00  0.00     0.045 C 
BRANCH 132 133
ATOM    133  CG  MET d  15     241.014  51.222-221.796  0.00  0.00     0.076 C 
BRANCH 133 134
ATOM    134  SD  MET d  15     239.440  52.087-221.684  0.00  0.00    -0.173 SA
ATOM    135  CE  MET d  15     238.359  50.656-221.551  0.00  0.00     0.089 C 
ENDBRANCH 133 134
ENDBRANCH 132 133
ENDBRANCH 112 132
ENDBRANCH 110 112
ENDBRANCH 107 108
BRANCH 107 136
ATOM    136  CB  VAL d  14     244.622  47.551-220.558  0.00  0.00     0.009 C 
ATOM    137  CG1 VAL d  14     244.714  47.134-222.052  0.00  0.00     0.012 C 
ATOM    138  CG2 VAL d  14     245.053  46.299-219.758  0.00  0.00     0.012 C 
ENDBRANCH 107 136
ENDBRANCH 105 107
ENDBRANCH 102 103
BRANCH 102 139
ATOM    139  CB  ARG d  13     245.972  49.713-215.817  0.00  0.00     0.036 C 
BRANCH 139 140
ATOM    140  CG  ARG d  13     247.516  49.868-215.733  0.00  0.00     0.023 C 
BRANCH 140 141
ATOM    141  CD  ARG d  13     248.142  48.880-214.734  0.00  0.00     0.138 C 
BRANCH 141 142
ATOM    142  NE  ARG d  13     249.619  49.089-214.681  0.00  0.00    -0.227 N 
ATOM    143  CZ  ARG d  13     250.466  48.397-213.924  0.00  0.00     0.665 C 
ATOM    144  NH1 ARG d  13     250.101  47.432-213.128  0.00  0.00    -0.235 N 
ATOM    145  NH2 ARG d  13     251.726  48.698-213.979  0.00  0.00    -0.235 N 
ATOM    146 11HH ARG d  13     249.095  47.245-213.133  0.00  0.00     0.174 HD
ATOM    147 12HH ARG d  13     250.813  46.950-212.578  0.00  0.00     0.174 HD
ATOM    148 21HH ARG d  13     251.994  49.456-214.609  0.00  0.00     0.174 HD
ATOM    149 22HH ARG d  13     252.360  48.157-213.389  0.00  0.00     0.174 HD
ATOM    150  HE  ARG d  13     250.071  49.812-215.250  0.00  0.00     0.177 HD
ENDBRANCH 141 142
ENDBRANCH 140 141
ENDBRANCH 139 140
ENDBRANCH 102 139
ENDBRANCH 100 102
ENDBRANCH  97  98
BRANCH  97 151
ATOM    151  CB  GLN d  12     241.151  51.989-215.828  0.00  0.00     0.044 C 
BRANCH 151 152
ATOM    152  CG  GLN d  12     241.509  53.511-215.795  0.00  0.00     0.105 C 
BRANCH 152 153
ATOM    153  CD  GLN d  12     241.204  54.324-214.531  0.00  0.00     0.215 C 
ATOM    154  NE2 GLN d  12     240.635  53.746-213.503  0.00  0.00    -0.370 N 
ATOM    155 21HE GLN d  12     240.526  54.340-212.679  0.00  0.00     0.159 HD
ATOM    156 22HE GLN d  12     240.473  52.743-213.607  0.00  0.00     0.159 HD
ATOM    157  OE1 GLN d  12     241.504  55.505-214.452  0.00  0.00    -0.274 OA
ENDBRANCH 152 153
ENDBRANCH 151 152
ENDBRANCH  97 151
ENDBRANCH  95  97
ENDBRANCH  92  93
BRANCH  92 158
ATOM    158  CB  VAL d  11     239.313  47.475-218.039  0.00  0.00     0.009 C 
ATOM    159  CG1 VAL d  11     238.746  48.179-219.302  0.00  0.00     0.012 C 
ATOM    160  CG2 VAL d  11     238.789  46.021-218.113  0.00  0.00     0.012 C 
ENDBRANCH  92 158
ENDBRANCH  90  92
ENDBRANCH  87  88
BRANCH  87 161
ATOM    161  CB  HIS d  10     242.666  44.945-214.788  0.00  0.00     0.095 C 
BRANCH 161 162
ATOM    162  CG  HIS d  10     243.951  44.235-214.478  0.00  0.00     0.053 A 
ATOM    163  CD2 HIS d  10     244.330  43.900-213.185  0.00  0.00     0.116 A 
ATOM    164  NE2 HIS d  10     245.546  43.269-213.250  0.00  0.00    -0.359 N 
ATOM    165  CE1 HIS d  10     245.811  43.273-214.585  0.00  0.00     0.207 A 
ATOM    166  2HE HIS d  10     246.111  42.892-212.476  0.00  0.00     0.166 HD
ATOM    167  ND1 HIS d  10     244.905  43.831-215.409  0.00  0.00    -0.247 NA
ENDBRANCH 161 162
ENDBRANCH  87 161
ENDBRANCH   3  87
TORSDOF 68
