@<TRIPOS>MOLECULE
11-10
273 276 16              
SMALL
USER_CHARGES
@<TRIPOS>ATOM
1	   N	1755.129	525.664	-1795.577	N.3	1	GLU1	-0.516	
2	  CA	1755.688	527.013	-1795.577	C.3	1	GLU1	0.040	
3	   C	1757.197	526.973	-1795.577	C.2	1	GLU1	0.537	
4	   O	1757.872	527.672	-1796.346	O.2	1	GLU1	-0.582	
5	  CB	1755.165	527.798	-1794.340	C.3	1	GLU1	0.056	
6	  CG	1755.640	529.283	-1794.229	C.3	1	GLU1	0.014	
7	  CD	1755.216	530.087	-1793.014	C.2	1	GLU1	0.805	
8	 OE1	1754.488	529.585	-1792.136	O.co2	1	GLU1	-0.819	
9	 OE2	1755.646	531.257	-1792.942	O.co2	1	GLU1	-0.819	
10	   H	1755.755	524.785	-1795.577	 H	1	GLU1	0.294	
11	  HA	1755.362	527.531	-1796.497	 H	1	GLU1	0.111	
12	 2HB	1755.453	527.267	-1793.410	 H	1	GLU1	-0.017	
13	 3HB	1754.057	527.788	-1794.327	 H	1	GLU1	-0.017	
14	 2HG	1755.330	529.868	-1795.110	 H	1	GLU1	-0.043	
15	 3HG	1756.740	529.350	-1794.200	 H	1	GLU1	-0.043	
16	   N	1757.801	526.187	-1794.752	N.am	2	ASN2	-0.416	
17	  CA	1759.260	526.148	-1794.752	C.3	2	ASN2	0.014	
18	   C	1759.792	525.793	-1796.121	C.2	2	ASN2	0.597	
19	   O	1760.707	526.423	-1796.650	O.2	2	ASN2	-0.568	
20	  CB	1759.752	525.125	-1793.688	C.3	2	ASN2	-0.204	
21	  CG	1759.289	525.349	-1792.245	C.2	2	ASN2	0.713	
22	 ND2	1759.884	526.264	-1791.526	N.pl3	2	ASN2	-0.919	
23	 OD1	1758.368	524.715	-1791.750	O.2	2	ASN2	-0.593	
24	   H	1757.273	525.607	-1794.116	 H	2	ASN2	0.272	
25	  HA	1759.638	527.158	-1794.507	 H	2	ASN2	0.105	
26	 2HB	1760.857	525.066	-1793.691	 H	2	ASN2	0.080	
27	 3HB	1759.423	524.107	-1793.974	 H	2	ASN2	0.080	
28	1HD2	1759.403	526.437	-1790.640	 H	2	ASN2	0.420	
29	2HD2	1760.585	526.836	-1791.995	 H	2	ASN2	0.420	
30	   N	1759.270	524.798	-1796.755	N.am	3	PRO3	-0.255	
31	  CA	1759.722	524.388	-1798.076	C.3	3	PRO3	-0.027	
32	   C	1759.324	525.412	-1799.153	C.2	3	PRO3	0.590	
33	   O	1760.147	525.795	-1799.985	O.2	3	PRO3	-0.575	
34	  CB	1759.018	523.034	-1798.246	C.3	3	PRO3	-0.007	
35	  CG	1757.734	523.186	-1797.416	C.3	3	PRO3	0.019	
36	  CD	1758.192	524.005	-1796.206	C.3	3	PRO3	0.019	
37	  HA	1760.808	524.269	-1798.090	 H	3	PRO3	0.064	
38	 2HB	1759.641	522.252	-1797.805	 H	3	PRO3	0.025	
39	 3HB	1758.819	522.785	-1799.291	 H	3	PRO3	0.025	
40	 2HG	1757.307	522.224	-1797.124	 H	3	PRO3	0.021	
41	 3HG	1756.997	523.757	-1797.983	 H	3	PRO3	0.021	
42	 2HD	1758.581	523.355	-1795.418	 H	3	PRO3	0.039	
43	 3HD	1757.396	524.641	-1795.813	 H	3	PRO3	0.039	
44	   N	1758.119	525.872	-1799.186	N.am	4	GLU4	-0.516	
45	  CA	1757.759	526.843	-1800.215	C.3	4	GLU4	0.040	
46	   C	1758.658	528.054	-1800.154	C.2	4	GLU4	0.537	
47	   O	1759.185	528.534	-1801.169	O.2	4	GLU4	-0.582	
48	  CB	1756.271	527.262	-1800.045	C.3	4	GLU4	0.056	
49	  CG	1755.723	528.265	-1801.111	C.3	4	GLU4	0.014	
50	  CD	1754.296	528.762	-1800.967	C.2	4	GLU4	0.805	
51	 OE1	1753.570	528.364	-1800.036	O.co2	4	GLU4	-0.819	
52	 OE2	1753.907	529.591	-1801.815	O.co2	4	GLU4	-0.819	
53	   H	1757.435	525.565	-1798.509	 H	4	GLU4	0.294	
54	  HA	1757.890	526.372	-1801.206	 H	4	GLU4	0.111	
55	 2HB	1756.119	527.702	-1799.038	 H	4	GLU4	-0.017	
56	 3HB	1755.623	526.364	-1800.051	 H	4	GLU4	-0.017	
57	 2HG	1755.804	527.851	-1802.128	 H	4	GLU4	-0.043	
58	 3HG	1756.311	529.198	-1801.122	 H	4	GLU4	-0.043	
59	   N	1758.886	528.607	-1799.011	N.am	5	SER5	-0.416	
60	  CA	1759.755	529.778	-1798.953	C.3	5	SER5	-0.025	
61	   C	1761.114	529.472	-1799.538	C.2	5	SER5	0.597	
62	   O	1761.661	530.226	-1800.343	O.2	5	SER5	-0.568	
63	  CB	1759.867	530.310	-1797.502	C.3	5	SER5	0.212	
64	  OG	1760.599	529.431	-1796.641	O.3	5	SER5	-0.655	
65	   H	1758.469	528.235	-1798.169	 H	5	SER5	0.272	
66	  HA	1759.306	530.568	-1799.582	 H	5	SER5	0.084	
67	 2HB	1758.867	530.504	-1797.069	 H	5	SER5	0.035	
68	 3HB	1760.372	531.296	-1797.504	 H	5	SER5	0.035	
69	  HG	1760.110	528.606	-1796.590	 H	5	SER5	0.428	
70	   N	1761.719	528.389	-1799.184	N.am	6	ILE6	-0.416	
71	  CA	1763.032	528.095	-1799.750	C.3	6	ILE6	-0.060	
72	   C	1762.975	528.057	-1801.258	C.2	6	ILE6	0.597	
73	   O	1763.810	528.645	-1801.962	O.2	6	ILE6	-0.568	
74	  CB	1763.632	526.758	-1799.150	C.3	6	ILE6	0.130	
75	 CG1	1763.652	526.696	-1797.589	C.3	6	ILE6	-0.043	
76	 CG2	1765.073	526.457	-1799.665	C.3	6	ILE6	-0.320	
77	 CD1	1763.922	525.307	-1796.974	C.3	6	ILE6	-0.066	
78	   H	1761.291	527.755	-1798.525	 H	6	ILE6	0.272	
79	  HA	1763.706	528.929	-1799.482	 H	6	ILE6	0.087	
80	  HB	1762.974	525.933	-1799.494	 H	6	ILE6	0.019	
81	2HG1	1762.669	527.016	-1797.193	 H	6	ILE6	0.024	
82	3HG1	1764.367	527.439	-1797.184	 H	6	ILE6	0.024	
83	1HG2	1765.132	526.363	-1800.764	 H	6	ILE6	0.088	
84	2HG2	1765.795	527.239	-1799.363	 H	6	ILE6	0.088	
85	3HG2	1765.464	525.495	-1799.287	 H	6	ILE6	0.088	
86	1HD1	1763.193	524.553	-1797.329	 H	6	ILE6	0.019	
87	2HD1	1764.932	524.929	-1797.210	 H	6	ILE6	0.019	
88	3HD1	1763.845	525.337	-1795.871	 H	6	ILE6	0.019	
89	   N	1762.029	527.394	-1801.832	N.am	7	LEU7	-0.416	
90	  CA	1761.974	527.358	-1803.290	C.3	7	LEU7	-0.052	
91	   C	1761.902	528.753	-1803.863	C.2	7	LEU7	0.597	
92	   O	1762.622	529.116	-1804.804	O.2	7	LEU7	-0.568	
93	  CB	1760.771	526.497	-1803.770	C.3	7	LEU7	-0.110	
94	  CG	1760.699	525.018	-1803.304	C.3	7	LEU7	0.353	
95	 CD1	1759.509	524.312	-1803.969	C.3	7	LEU7	-0.412	
96	 CD2	1761.993	524.239	-1803.595	C.3	7	LEU7	-0.412	
97	   H	1761.337	526.906	-1801.280	 H	7	LEU7	0.272	
98	  HA	1762.916	526.918	-1803.664	 H	7	LEU7	0.092	
99	 2HB	1760.748	526.513	-1804.878	 H	7	LEU7	0.046	
100	 3HB	1759.831	527.000	-1803.466	 H	7	LEU7	0.046	
101	  HG	1760.529	525.010	-1802.207	 H	7	LEU7	-0.036	
102	1HD1	1758.552	524.821	-1803.747	 H	7	LEU7	0.100	
103	2HD1	1759.608	524.271	-1805.071	 H	7	LEU7	0.100	
104	3HD1	1759.402	523.271	-1803.614	 H	7	LEU7	0.100	
105	1HD2	1762.268	524.269	-1804.666	 H	7	LEU7	0.100	
106	2HD2	1762.846	524.651	-1803.024	 H	7	LEU7	0.100	
107	3HD2	1761.911	523.176	-1803.300	 H	7	LEU7	0.100	
108	   N	1761.064	529.593	-1803.356	N.am	8	ASP8	-0.516	
109	  CA	1760.994	530.943	-1803.909	C.3	8	ASP8	0.038	
110	   C	1762.340	531.623	-1803.852	C.2	8	ASP8	0.537	
111	   O	1762.812	532.228	-1804.827	O.2	8	ASP8	-0.582	
112	  CB	1759.915	531.781	-1803.168	C.3	8	ASP8	-0.030	
113	  CG	1759.696	533.202	-1803.708	C.2	8	ASP8	0.799	
114	 OD1	1759.760	533.401	-1804.938	O.co2	8	ASP8	-0.801	
115	 OD2	1759.504	534.128	-1802.892	O.co2	8	ASP8	-0.801	
116	   H	1760.466	529.322	-1802.589	 H	8	ASP8	0.294	
117	  HA	1760.711	530.865	-1804.977	 H	8	ASP8	0.088	
118	 2HB	1760.172	531.865	-1802.096	 H	8	ASP8	-0.012	
119	 3HB	1758.936	531.276	-1803.201	 H	8	ASP8	-0.012	
120	   N	1763.020	531.573	-1802.757	N.am	9	GLU9	-0.516	
121	  CA	1764.322	532.231	-1802.701	C.3	9	GLU9	0.040	
122	   C	1765.241	531.704	-1803.777	C.2	9	GLU9	0.537	
123	   O	1765.904	532.459	-1804.502	O.2	9	GLU9	-0.582	
124	  CB	1764.956	532.023	-1801.296	C.3	9	GLU9	0.056	
125	  CG	1766.338	532.716	-1801.066	C.3	9	GLU9	0.014	
126	  CD	1767.040	532.502	-1799.738	C.2	9	GLU9	0.805	
127	 OE1	1766.518	531.811	-1798.842	O.co2	9	GLU9	-0.819	
128	 OE2	1768.159	533.041	-1799.606	O.co2	9	GLU9	-0.819	
129	   H	1762.656	531.086	-1801.950	 H	9	GLU9	0.294	
130	  HA	1764.180	533.313	-1802.876	 H	9	GLU9	0.111	
131	 2HB	1765.069	530.938	-1801.093	 H	9	GLU9	-0.017	
132	 3HB	1764.258	532.376	-1800.512	 H	9	GLU9	-0.017	
133	 2HG	1766.266	533.807	-1801.206	 H	9	GLU9	-0.043	
134	 3HG	1767.085	532.371	-1801.800	 H	9	GLU9	-0.043	
135	   N	1765.338	530.429	-1803.947	N.am	10	HIS10	-0.416	
136	  CA	1766.226	529.918	-1804.987	C.3	10	HIS10	-0.058	
137	   C	1765.859	530.483	-1806.338	C.2	10	HIS10	0.597	
138	   O	1766.711	530.948	-1807.110	O.2	10	HIS10	-0.568	
139	  CB	1766.062	528.389	-1804.983	C.3	10	HIS10	-0.007	
140	  CG	1767.348	527.679	-1804.675	C.2	10	HIS10	0.187	
141	 CD2	1767.729	527.343	-1803.382	C.2	10	HIS10	-0.221	
142	 ND1	1768.300	527.274	-1805.607	N.2	10	HIS10	-0.543	
143	 CE1	1769.207	526.715	-1804.784	C.2	10	HIS10	0.163	
144	 NE2	1768.944	526.712	-1803.449	N.pl3	10	HIS10	-0.280	
145	   H	1764.807	529.793	-1803.369	 H	10	HIS10	0.272	
146	  HA	1767.245	530.275	-1804.762	 H	10	HIS10	0.136	
147	 2HB	1765.697	528.022	-1805.963	 H	10	HIS10	0.037	
148	 3HB	1765.307	528.052	-1804.243	 H	10	HIS10	0.037	
149	 2HD	1767.143	527.558	-1802.493	 H	10	HIS10	0.186	
150	 1HE	1770.098	526.295	-1805.231	 H	10	HIS10	0.144	
151	 2HE	1769.510	526.335	-1802.676	 H	10	HIS10	0.334	
152	   N	1764.621	530.482	-1806.702	N.am	11	TRP11	-0.416	
153	  CA	1764.266	531.028	-1808.008	C.3	11	TRP11	-0.027	
154	   C	1764.730	532.459	-1808.141	C.2	11	TRP11	0.597	
155	   O	1765.327	532.860	-1809.138	O.2	11	TRP11	-0.568	
156	  CB	1762.724	530.956	-1808.187	C.3	11	TRP11	-0.005	
157	  CG	1762.153	529.537	-1808.264	C.2	11	TRP11	-0.141	
158	 CD1	1761.591	528.817	-1807.190	C.2	11	TRP11	-0.164	
159	 CD2	1762.156	528.672	-1809.339	C.2	11	TRP11	0.124	
160	 CE2	1761.596	527.443	-1808.909	C.2	11	TRP11	0.138	
161	 CE3	1762.625	528.825	-1810.669	C.2	11	TRP11	-0.239	
162	 NE1	1761.234	527.509	-1807.571	N.pl3	11	TRP11	-0.342	
163	 CZ2	1761.489	526.362	-1809.810	C.2	11	TRP11	-0.260	
164	 CZ3	1762.502	527.744	-1811.542	C.2	11	TRP11	-0.197	
165	 CH2	1761.941	526.531	-1811.121	C.2	11	TRP11	-0.113	
166	   H	1763.908	530.108	-1806.091	 H	11	TRP11	0.272	
167	  HA	1764.771	530.438	-1808.797	 H	11	TRP11	0.112	
168	 2HB	1762.421	531.488	-1809.108	 H	11	TRP11	0.034	
169	 3HB	1762.219	531.511	-1807.372	 H	11	TRP11	0.034	
170	 1HD	1761.495	529.209	-1806.186	 H	11	TRP11	0.206	
171	 1HE	1760.844	526.761	-1806.987	 H	11	TRP11	0.341	
172	 3HE	1763.066	529.754	-1811.000	 H	11	TRP11	0.170	
173	 2HZ	1761.064	525.423	-1809.487	 H	11	TRP11	0.157	
174	 3HZ	1762.847	527.847	-1812.562	 H	11	TRP11	0.145	
175	 2HH	1761.855	525.714	-1811.822	 H	11	TRP11	0.142	
176	   N	1764.493	533.286	-1807.179	N.am	12	GLN12	-0.416	
177	  CA	1764.941	534.669	-1807.308	C.3	12	GLN12	-0.003	
178	   C	1766.430	534.736	-1807.546	C.2	12	GLN12	0.597	
179	   O	1766.917	535.444	-1808.425	O.2	12	GLN12	-0.568	
180	  CB	1764.550	535.437	-1806.026	C.3	12	GLN12	-0.004	
181	  CG	1764.909	536.959	-1805.996	C.3	12	GLN12	-0.064	
182	  CD	1764.607	537.774	-1804.732	C.2	12	GLN12	0.695	
183	 NE2	1764.040	537.198	-1803.703	N.pl3	12	GLN12	-0.941	
184	 OE1	1764.908	538.955	-1804.656	O.2	12	GLN12	-0.609	
185	   H	1764.004	532.980	-1806.350	 H	12	GLN12	0.272	
186	  HA	1764.441	535.124	-1808.183	 H	12	GLN12	0.085	
187	 2HB	1765.026	534.938	-1805.156	 H	12	GLN12	0.017	
188	 3HB	1763.459	535.330	-1805.862	 H	12	GLN12	0.017	
189	 2HG	1764.432	537.479	-1806.847	 H	12	GLN12	0.035	
190	 3HG	1765.993	537.101	-1806.162	 H	12	GLN12	0.035	
191	1HE2	1763.933	537.793	-1802.880	 H	12	GLN12	0.425	
192	2HE2	1763.877	536.194	-1803.805	 H	12	GLN12	0.425	
193	   N	1767.215	534.030	-1806.805	N.am	13	ARG13	-0.348	
194	  CA	1768.656	534.097	-1807.036	C.3	13	ARG13	-0.264	
195	   C	1768.991	533.724	-1808.461	C.2	13	ARG13	0.734	
196	   O	1769.759	534.395	-1809.146	O.2	13	ARG13	-0.589	
197	  CB	1769.370	533.159	-1806.022	C.3	13	ARG13	-0.001	
198	  CG	1770.915	533.312	-1805.941	C.3	13	ARG13	0.039	
199	  CD	1771.542	532.326	-1804.943	C.3	13	ARG13	0.049	
200	  NE	1773.019	532.533	-1804.893	N.pl3	13	ARG13	-0.530	
201	  CZ	1773.868	531.843	-1804.138	C.cat	13	ARG13	0.808	
202	 NH1	1773.504	530.879	-1803.340	N.pl3	13	ARG13	-0.863	
203	 NH2	1775.127	532.142	-1804.196	N.pl3	13	ARG13	-0.863	
204	   H	1766.840	533.441	-1806.076	 H	13	ARG13	0.275	
205	  HA	1768.980	535.143	-1806.879	 H	13	ARG13	0.156	
206	 2HB	1769.104	532.108	-1806.260	 H	13	ARG13	0.033	
207	 3HB	1768.945	533.326	-1805.011	 H	13	ARG13	0.033	
208	 2HG	1771.162	534.357	-1805.663	 H	13	ARG13	0.029	
209	 3HG	1771.365	533.156	-1806.943	 H	13	ARG13	0.029	
210	 2HD	1771.298	531.285	-1805.251	 H	13	ARG13	0.069	
211	 3HD	1771.086	532.472	-1803.940	 H	13	ARG13	0.069	
212	  HE	1773.470	533.255	-1805.465	 H	13	ARG13	0.346	
213	1HH1	1772.498	530.692	-1803.342	 H	13	ARG13	0.448	
214	2HH1	1774.217	530.397	-1802.791	 H	13	ARG13	0.448	
215	1HH2	1775.394	532.900	-1804.827	 H	13	ARG13	0.448	
216	2HH2	1775.763	531.602	-1803.607	 H	13	ARG13	0.448	
217	   N	1768.455	532.669	-1808.974	N.am	14	VAL14	-0.416	
218	  CA	1768.780	532.308	-1810.351	C.3	14	VAL14	-0.087	
219	   C	1768.449	533.438	-1811.298	C.2	14	VAL14	0.597	
220	   O	1769.241	533.819	-1812.168	O.2	14	VAL14	-0.568	
221	  CB	1768.007	530.991	-1810.756	C.3	14	VAL14	0.299	
222	 CG1	1768.096	530.571	-1812.250	C.3	14	VAL14	-0.319	
223	 CG2	1768.440	529.739	-1809.955	C.3	14	VAL14	-0.319	
224	   H	1767.821	532.100	-1808.431	 H	14	VAL14	0.272	
225	  HA	1769.868	532.132	-1810.426	 H	14	VAL14	0.097	
226	  HB	1766.931	531.162	-1810.541	 H	14	VAL14	-0.030	
227	1HG1	1769.137	530.394	-1812.579	 H	14	VAL14	0.079	
228	2HG1	1767.523	529.648	-1812.461	 H	14	VAL14	0.079	
229	3HG1	1767.666	531.333	-1812.929	 H	14	VAL14	0.079	
230	1HG2	1768.353	529.899	-1808.865	 H	14	VAL14	0.079	
231	2HG2	1767.804	528.862	-1810.187	 H	14	VAL14	0.079	
232	3HG2	1769.488	529.450	-1810.161	 H	14	VAL14	0.079	
233	   N	1767.304	534.023	-1811.196	N.am	15	MET15	-0.416	
234	  CA	1766.982	535.115	-1812.110	C.3	15	MET15	-0.024	
235	   C	1768.012	536.215	-1812.024	C.2	15	MET15	0.597	
236	   O	1768.514	536.725	-1813.037	O.2	15	MET15	-0.568	
237	  CB	1765.561	535.660	-1811.801	C.3	15	MET15	0.034	
238	  CG	1764.399	534.662	-1811.991	C.3	15	MET15	0.002	
239	  SD	1762.825	535.527	-1811.877	S.3	15	MET15	-0.274	
240	  CE	1761.744	534.097	-1811.739	C.3	15	MET15	-0.054	
241	   H	1766.639	533.731	-1810.494	 H	15	MET15	0.272	
242	  HA	1767.008	534.727	-1813.146	 H	15	MET15	0.088	
243	 2HB	1765.358	536.538	-1812.444	 H	15	MET15	0.024	
244	 3HB	1765.526	536.054	-1810.765	 H	15	MET15	0.024	
245	 2HG	1764.443	533.876	-1811.213	 H	15	MET15	0.044	
246	 3HG	1764.462	534.146	-1812.967	 H	15	MET15	0.044	
247	 1HE	1761.888	533.408	-1812.591	 H	15	MET15	0.068	
248	 2HE	1761.954	533.545	-1810.806	 H	15	MET15	0.068	
249	 3HE	1760.687	534.412	-1811.722	 H	15	MET15	0.068	
250	   N	1768.381	536.637	-1810.862	N.am	16	ARG16	-0.348	
251	  CA	1769.378	537.701	-1810.780	C.3	16	ARG16	-0.264	
252	   C	1770.648	537.309	-1811.496	C.2	16	ARG16	0.734	
253	   O	1770.762	536.232	-1812.077	O.2	16	ARG16	-0.589	
254	  CB	1769.647	538.021	-1809.281	C.3	16	ARG16	-0.001	
255	  CG	1770.472	539.310	-1809.010	C.3	16	ARG16	0.039	
256	  CD	1770.722	539.531	-1807.509	C.3	16	ARG16	0.049	
257	  NE	1771.498	540.790	-1807.309	N.pl3	16	ARG16	-0.530	
258	  CZ	1771.889	541.273	-1806.134	C.cat	16	ARG16	0.808	
259	 NH1	1771.642	540.690	-1804.995	N.pl3	16	ARG16	-0.863	
260	 NH2	1772.553	542.386	-1806.116	N.pl3	16	ARG16	-0.863	
261	   H	1767.987	536.238	-1810.022	 H	16	ARG16	0.275	
262	  HA	1768.968	538.594	-1811.290	 H	16	ARG16	0.156	
263	 2HB	1770.145	537.145	-1808.815	 H	16	ARG16	0.033	
264	 3HB	1768.678	538.101	-1808.747	 H	16	ARG16	0.033	
265	 2HG	1769.941	540.180	-1809.447	 H	16	ARG16	0.029	
266	 3HG	1771.445	539.257	-1809.539	 H	16	ARG16	0.029	
267	 2HD	1771.271	538.656	-1807.095	 H	16	ARG16	0.069	
268	 3HD	1769.749	539.573	-1806.973	 H	16	ARG16	0.069	
269	  HE	1771.776	541.371	-1808.107	 H	16	ARG16	0.346	
270	1HH1	1771.117	539.816	-1805.078	 H	16	ARG16	0.448	
271	2HH1	1771.977	541.126	-1804.134	 H	16	ARG16	0.448	
272	1HH2	1772.738	542.829	-1807.019	 H	16	ARG16	0.448	
273	2HH2	1772.843	542.742	-1805.204	 H	16	ARG16	0.448	
@<TRIPOS>BOND
1 1 2 1
2 1 10 1
3 2 3 1
4 2 5 1
5 2 11 1
6 3 4 2
7 3 16 1
8 5 6 1
9 6 7 1
10 7 8 2
11 7 9 1
12 5 12 1
13 5 13 1
14 6 14 1
15 6 15 1
16 16 17 1
17 16 24 1
18 17 18 1
19 17 20 1
20 17 25 1
21 18 19 2
22 18 30 1
23 20 21 1
24 21 22 1
25 21 23 2
26 20 26 1
27 20 27 1
28 22 28 1
29 22 29 1
30 30 31 1
31 30 36 1
32 31 32 1
33 31 34 1
34 31 37 1
35 32 33 2
36 32 44 1
37 34 35 1
38 35 36 1
39 34 38 1
40 34 39 1
41 35 40 1
42 35 41 1
43 36 42 1
44 36 43 1
45 44 45 1
46 44 53 1
47 45 46 1
48 45 48 1
49 45 54 1
50 46 47 2
51 46 59 1
52 48 49 1
53 49 50 1
54 50 51 2
55 50 52 1
56 48 55 1
57 48 56 1
58 49 57 1
59 49 58 1
60 59 60 1
61 59 65 1
62 60 61 1
63 60 63 1
64 60 66 1
65 61 62 2
66 61 70 1
67 63 64 1
68 63 67 1
69 63 68 1
70 64 69 1
71 70 71 1
72 70 78 1
73 71 72 1
74 71 74 1
75 71 79 1
76 72 73 2
77 72 89 1
78 74 75 1
79 74 76 1
80 75 77 1
81 74 80 1
82 75 81 1
83 75 82 1
84 76 83 1
85 76 84 1
86 76 85 1
87 77 86 1
88 77 87 1
89 77 88 1
90 89 90 1
91 89 97 1
92 90 91 1
93 90 93 1
94 90 98 1
95 91 92 2
96 91 108 1
97 93 94 1
98 94 95 1
99 94 96 1
100 93 99 1
101 93 100 1
102 94 101 1
103 95 102 1
104 95 103 1
105 95 104 1
106 96 105 1
107 96 106 1
108 96 107 1
109 108 109 1
110 108 116 1
111 109 110 1
112 109 112 1
113 109 117 1
114 110 111 2
115 110 120 1
116 112 113 1
117 113 114 2
118 113 115 1
119 112 118 1
120 112 119 1
121 120 121 1
122 120 129 1
123 121 122 1
124 121 124 1
125 121 130 1
126 122 123 2
127 122 135 1
128 124 125 1
129 125 126 1
130 126 127 2
131 126 128 1
132 124 131 1
133 124 132 1
134 125 133 1
135 125 134 1
136 135 136 1
137 135 145 1
138 136 137 1
139 136 139 1
140 136 146 1
141 137 138 2
142 137 152 1
143 139 140 1
144 140 141 2
145 141 144 1
146 140 142 1
147 142 143 2
148 143 144 1
149 139 147 1
150 139 148 1
151 141 149 1
152 143 150 1
153 144 151 1
154 152 153 1
155 152 166 1
156 153 154 1
157 153 156 1
158 153 167 1
159 154 155 2
160 154 176 1
161 156 157 1
162 157 159 1
163 157 158 2
164 159 161 1
165 159 160 2
166 160 162 1
167 161 164 2
168 158 162 1
169 160 163 1
170 164 165 1
171 163 165 2
172 156 168 1
173 156 169 1
174 158 170 1
175 162 171 1
176 161 172 1
177 163 173 1
178 164 174 1
179 165 175 1
180 176 177 1
181 176 185 1
182 177 178 1
183 177 180 1
184 177 186 1
185 178 179 2
186 178 193 1
187 180 181 1
188 181 182 1
189 182 183 1
190 182 184 2
191 180 187 1
192 180 188 1
193 181 189 1
194 181 190 1
195 183 191 1
196 183 192 1
197 193 194 1
198 193 204 1
199 194 195 1
200 194 197 1
201 194 205 1
202 195 196 2
203 195 217 1
204 197 198 1
205 198 199 1
206 199 200 1
207 200 201 1
208 201 202 2
209 201 203 1
210 197 206 1
211 197 207 1
212 198 208 1
213 198 209 1
214 199 210 1
215 199 211 1
216 200 212 1
217 202 213 1
218 202 214 1
219 203 215 1
220 203 216 1
221 217 218 1
222 217 224 1
223 218 219 1
224 218 221 1
225 218 225 1
226 219 220 2
227 219 233 1
228 221 222 1
229 221 223 1
230 221 226 1
231 222 227 1
232 222 228 1
233 222 229 1
234 223 230 1
235 223 231 1
236 223 232 1
237 233 234 1
238 233 241 1
239 234 235 1
240 234 237 1
241 234 242 1
242 235 236 2
243 235 250 1
244 237 238 1
245 238 239 1
246 239 240 1
247 237 243 1
248 237 244 1
249 238 245 1
250 238 246 1
251 240 247 1
252 240 248 1
253 240 249 1
254 250 251 1
255 250 261 1
256 251 252 1
257 251 254 1
258 251 262 1
259 252 253 2
260 254 255 1
261 255 256 1
262 256 257 1
263 257 258 1
264 258 259 2
265 258 260 1
266 254 263 1
267 254 264 1
268 255 265 1
269 255 266 1
270 256 267 1
271 256 268 1
272 257 269 1
273 259 270 1
274 259 271 1
275 260 272 1
276 260 273 1
@<TRIPOS>SUBSTRUCTURE
1	GLU1	1	RESIDUE	1 ****	GLU
2	ASN2	16	RESIDUE	1 ****	ASN
3	PRO3	30	RESIDUE	1 ****	PRO
4	GLU4	44	RESIDUE	1 ****	GLU
5	SER5	59	RESIDUE	1 ****	SER
6	ILE6	70	RESIDUE	1 ****	ILE
7	LEU7	89	RESIDUE	1 ****	LEU
8	ASP8	108	RESIDUE	1 ****	ASP
9	GLU9	120	RESIDUE	1 ****	GLU
10	HIS10	135	RESIDUE	1 ****	HIS
11	TRP11	152	RESIDUE	1 ****	TRP
12	GLN12	176	RESIDUE	1 ****	GLN
13	ARG13	193	RESIDUE	1 ****	ARG
14	VAL14	217	RESIDUE	1 ****	VAL
15	MET15	233	RESIDUE	1 ****	MET
16	ARG16	250	RESIDUE	1 ****	ARG
