@<TRIPOS>MOLECULE
7-7
265 266 16              
SMALL
USER_CHARGES
@<TRIPOS>ATOM
1	   N	1074.358	302.245	-1058.146	N.3	1	GLU1	-0.516	
2	  CA	1074.917	303.594	-1058.146	C.3	1	GLU1	0.040	
3	   C	1076.426	303.554	-1058.146	C.2	1	GLU1	0.537	
4	   O	1077.102	304.253	-1058.915	O.2	1	GLU1	-0.582	
5	  CB	1074.394	304.379	-1056.909	C.3	1	GLU1	0.056	
6	  CG	1074.869	305.864	-1056.798	C.3	1	GLU1	0.014	
7	  CD	1074.445	306.668	-1055.583	C.2	1	GLU1	0.805	
8	 OE1	1073.717	306.166	-1054.705	O.co2	1	GLU1	-0.819	
9	 OE2	1074.875	307.838	-1055.511	O.co2	1	GLU1	-0.819	
10	   H	1074.985	301.366	-1058.146	 H	1	GLU1	0.294	
11	  HA	1074.591	304.112	-1059.066	 H	1	GLU1	0.111	
12	 2HB	1074.683	303.848	-1055.979	 H	1	GLU1	-0.017	
13	 3HB	1073.287	304.369	-1056.896	 H	1	GLU1	-0.017	
14	 2HG	1074.559	306.449	-1057.679	 H	1	GLU1	-0.043	
15	 3HG	1075.969	305.931	-1056.769	 H	1	GLU1	-0.043	
16	   N	1077.031	302.768	-1057.321	N.am	2	ASN2	-0.416	
17	  CA	1078.490	302.730	-1057.321	C.3	2	ASN2	0.014	
18	   C	1079.021	302.374	-1058.690	C.2	2	ASN2	0.597	
19	   O	1079.936	303.005	-1059.219	O.2	2	ASN2	-0.568	
20	  CB	1078.982	301.707	-1056.257	C.3	2	ASN2	-0.204	
21	  CG	1078.519	301.931	-1054.813	C.2	2	ASN2	0.713	
22	 ND2	1079.113	302.845	-1054.095	N.pl3	2	ASN2	-0.919	
23	 OD1	1077.599	301.297	-1054.319	O.2	2	ASN2	-0.593	
24	   H	1076.503	302.189	-1056.685	 H	2	ASN2	0.272	
25	  HA	1078.867	303.740	-1057.076	 H	2	ASN2	0.105	
26	 2HB	1080.087	301.648	-1056.260	 H	2	ASN2	0.080	
27	 3HB	1078.653	300.689	-1056.543	 H	2	ASN2	0.080	
28	1HD2	1078.633	303.018	-1053.209	 H	2	ASN2	0.420	
29	2HD2	1079.815	303.417	-1054.565	 H	2	ASN2	0.420	
30	   N	1078.500	301.379	-1059.324	N.am	3	PRO3	-0.255	
31	  CA	1078.952	300.970	-1060.646	C.3	3	PRO3	-0.027	
32	   C	1078.553	301.993	-1061.722	C.2	3	PRO3	0.590	
33	   O	1079.377	302.376	-1062.554	O.2	3	PRO3	-0.575	
34	  CB	1078.247	299.615	-1060.815	C.3	3	PRO3	-0.007	
35	  CG	1076.964	299.767	-1059.985	C.3	3	PRO3	0.019	
36	  CD	1077.422	300.586	-1058.775	C.3	3	PRO3	0.019	
37	  HA	1080.037	300.850	-1060.659	 H	3	PRO3	0.064	
38	 2HB	1078.870	298.834	-1060.374	 H	3	PRO3	0.025	
39	 3HB	1078.049	299.366	-1061.860	 H	3	PRO3	0.025	
40	 2HG	1076.537	298.805	-1059.693	 H	3	PRO3	0.021	
41	 3HG	1076.227	300.338	-1060.552	 H	3	PRO3	0.021	
42	 2HD	1077.811	299.936	-1057.987	 H	3	PRO3	0.039	
43	 3HD	1076.625	301.222	-1058.382	 H	3	PRO3	0.039	
44	   N	1077.349	302.453	-1061.755	N.am	4	GLU4	-0.516	
45	  CA	1076.989	303.424	-1062.784	C.3	4	GLU4	0.040	
46	   C	1077.888	304.635	-1062.723	C.2	4	GLU4	0.537	
47	   O	1078.414	305.115	-1063.738	O.2	4	GLU4	-0.582	
48	  CB	1075.500	303.843	-1062.614	C.3	4	GLU4	0.056	
49	  CG	1074.952	304.846	-1063.679	C.3	4	GLU4	0.014	
50	  CD	1073.525	305.343	-1063.535	C.2	4	GLU4	0.805	
51	 OE1	1072.799	304.945	-1062.604	O.co2	4	GLU4	-0.819	
52	 OE2	1073.136	306.172	-1064.384	O.co2	4	GLU4	-0.819	
53	   H	1076.665	302.146	-1061.078	 H	4	GLU4	0.294	
54	  HA	1077.120	302.954	-1063.775	 H	4	GLU4	0.111	
55	 2HB	1075.348	304.283	-1061.607	 H	4	GLU4	-0.017	
56	 3HB	1074.853	302.945	-1062.620	 H	4	GLU4	-0.017	
57	 2HG	1075.033	304.432	-1064.697	 H	4	GLU4	-0.043	
58	 3HG	1075.540	305.779	-1063.690	 H	4	GLU4	-0.043	
59	   N	1078.115	305.188	-1061.580	N.am	5	SER5	-0.416	
60	  CA	1078.985	306.360	-1061.521	C.3	5	SER5	-0.025	
61	   C	1080.343	306.054	-1062.107	C.2	5	SER5	0.597	
62	   O	1080.890	306.808	-1062.912	O.2	5	SER5	-0.568	
63	  CB	1079.096	306.892	-1060.071	C.3	5	SER5	0.212	
64	  OG	1079.828	306.012	-1059.210	O.3	5	SER5	-0.655	
65	   H	1077.698	304.816	-1060.738	 H	5	SER5	0.272	
66	  HA	1078.535	307.150	-1062.151	 H	5	SER5	0.084	
67	 2HB	1078.097	307.085	-1059.637	 H	5	SER5	0.035	
68	 3HB	1079.602	307.877	-1060.073	 H	5	SER5	0.035	
69	  HG	1079.339	305.187	-1059.159	 H	5	SER5	0.428	
70	   N	1080.948	304.971	-1061.753	N.am	6	ILE6	-0.416	
71	  CA	1082.261	304.676	-1062.320	C.3	6	ILE6	-0.060	
72	   C	1082.204	304.639	-1063.828	C.2	6	ILE6	0.597	
73	   O	1083.039	305.227	-1064.531	O.2	6	ILE6	-0.568	
74	  CB	1082.861	303.340	-1061.720	C.3	6	ILE6	0.130	
75	 CG1	1082.881	303.278	-1060.159	C.3	6	ILE6	-0.043	
76	 CG2	1084.302	303.039	-1062.235	C.3	6	ILE6	-0.320	
77	 CD1	1083.151	301.889	-1059.544	C.3	6	ILE6	-0.066	
78	   H	1080.520	304.337	-1061.094	 H	6	ILE6	0.272	
79	  HA	1082.935	305.511	-1062.052	 H	6	ILE6	0.087	
80	  HB	1082.203	302.514	-1062.064	 H	6	ILE6	0.019	
81	2HG1	1081.899	303.598	-1059.763	 H	6	ILE6	0.024	
82	3HG1	1083.597	304.020	-1059.754	 H	6	ILE6	0.024	
83	1HG2	1084.361	302.945	-1063.334	 H	6	ILE6	0.088	
84	2HG2	1085.025	303.821	-1061.933	 H	6	ILE6	0.088	
85	3HG2	1084.693	302.076	-1061.857	 H	6	ILE6	0.088	
86	1HD1	1082.423	301.134	-1059.899	 H	6	ILE6	0.019	
87	2HD1	1084.161	301.510	-1059.780	 H	6	ILE6	0.019	
88	3HD1	1083.075	301.918	-1058.442	 H	6	ILE6	0.019	
89	   N	1081.258	303.976	-1064.401	N.am	7	LEU7	-0.416	
90	  CA	1081.203	303.940	-1065.860	C.3	7	LEU7	-0.052	
91	   C	1081.130	305.335	-1066.432	C.2	7	LEU7	0.597	
92	   O	1081.851	305.698	-1067.374	O.2	7	LEU7	-0.568	
93	  CB	1080.000	303.079	-1066.340	C.3	7	LEU7	-0.110	
94	  CG	1079.927	301.600	-1065.874	C.3	7	LEU7	0.353	
95	 CD1	1078.737	300.894	-1066.539	C.3	7	LEU7	-0.412	
96	 CD2	1081.221	300.821	-1066.166	C.3	7	LEU7	-0.412	
97	   H	1080.566	303.488	-1063.850	 H	7	LEU7	0.272	
98	  HA	1082.145	303.500	-1066.234	 H	7	LEU7	0.092	
99	 2HB	1079.977	303.096	-1067.448	 H	7	LEU7	0.046	
100	 3HB	1079.060	303.582	-1066.036	 H	7	LEU7	0.046	
101	  HG	1079.758	301.592	-1064.777	 H	7	LEU7	-0.036	
102	1HD1	1077.780	301.403	-1066.317	 H	7	LEU7	0.100	
103	2HD1	1078.837	300.854	-1067.641	 H	7	LEU7	0.100	
104	3HD1	1078.631	299.853	-1066.183	 H	7	LEU7	0.100	
105	1HD2	1081.496	300.852	-1067.235	 H	7	LEU7	0.100	
106	2HD2	1082.074	301.232	-1065.594	 H	7	LEU7	0.100	
107	3HD2	1081.140	299.759	-1065.870	 H	7	LEU7	0.100	
108	   N	1080.293	306.176	-1065.925	N.am	8	ASP8	-0.516	
109	  CA	1080.223	307.525	-1066.478	C.3	8	ASP8	0.038	
110	   C	1081.569	308.205	-1066.421	C.2	8	ASP8	0.537	
111	   O	1082.042	308.811	-1067.395	O.2	8	ASP8	-0.582	
112	  CB	1079.145	308.364	-1065.736	C.3	8	ASP8	-0.030	
113	  CG	1078.926	309.785	-1066.276	C.2	8	ASP8	0.799	
114	 OD1	1078.990	309.984	-1067.507	O.co2	8	ASP8	-0.801	
115	 OD2	1078.733	310.711	-1065.461	O.co2	8	ASP8	-0.801	
116	   H	1079.695	305.904	-1065.158	 H	8	ASP8	0.294	
117	  HA	1079.940	307.448	-1067.545	 H	8	ASP8	0.088	
118	 2HB	1079.402	308.447	-1064.664	 H	8	ASP8	-0.012	
119	 3HB	1078.166	307.859	-1065.769	 H	8	ASP8	-0.012	
120	   N	1082.249	308.155	-1065.326	N.am	9	GLU9	-0.516	
121	  CA	1083.552	308.813	-1065.270	C.3	9	GLU9	0.040	
122	   C	1084.470	308.286	-1066.347	C.2	9	GLU9	0.537	
123	   O	1085.134	309.040	-1067.072	O.2	9	GLU9	-0.582	
124	  CB	1084.186	308.605	-1063.865	C.3	9	GLU9	0.056	
125	  CG	1085.568	309.297	-1063.635	C.3	9	GLU9	0.014	
126	  CD	1086.270	309.083	-1062.307	C.2	9	GLU9	0.805	
127	 OE1	1085.749	308.392	-1061.411	O.co2	9	GLU9	-0.819	
128	 OE2	1087.389	309.621	-1062.176	O.co2	9	GLU9	-0.819	
129	   H	1081.886	307.668	-1064.519	 H	9	GLU9	0.294	
130	  HA	1083.410	309.895	-1065.445	 H	9	GLU9	0.111	
131	 2HB	1084.299	307.520	-1063.662	 H	9	GLU9	-0.017	
132	 3HB	1083.489	308.958	-1063.081	 H	9	GLU9	-0.017	
133	 2HG	1085.496	310.388	-1063.775	 H	9	GLU9	-0.043	
134	 3HG	1086.315	308.952	-1064.370	 H	9	GLU9	-0.043	
135	   N	1084.566	307.011	-1066.517	N.am	10	HIS10	-0.416	
136	  CA	1085.454	306.500	-1067.558	C.3	10	HIS10	-0.058	
137	   C	1085.087	307.065	-1068.908	C.2	10	HIS10	0.597	
138	   O	1085.939	307.530	-1069.680	O.2	10	HIS10	-0.568	
139	  CB	1085.290	304.971	-1067.554	C.3	10	HIS10	-0.007	
140	  CG	1086.576	304.260	-1067.246	C.2	10	HIS10	0.187	
141	 CD2	1086.957	303.924	-1065.954	C.2	10	HIS10	-0.221	
142	 ND1	1087.527	303.855	-1068.179	N.2	10	HIS10	-0.543	
143	 CE1	1088.434	303.296	-1067.356	C.2	10	HIS10	0.163	
144	 NE2	1088.171	303.293	-1066.021	N.pl3	10	HIS10	-0.280	
145	   H	1084.036	306.375	-1065.939	 H	10	HIS10	0.272	
146	  HA	1086.473	306.857	-1067.332	 H	10	HIS10	0.136	
147	 2HB	1084.925	304.605	-1068.534	 H	10	HIS10	0.037	
148	 3HB	1084.534	304.633	-1066.814	 H	10	HIS10	0.037	
149	 2HD	1086.371	304.139	-1065.064	 H	10	HIS10	0.186	
150	 1HE	1089.325	302.875	-1067.803	 H	10	HIS10	0.144	
151	 2HE	1088.738	302.915	-1065.248	 H	10	HIS10	0.334	
152	   N	1083.849	307.064	-1069.271	N.am	11	VAL11	-0.416	
153	  CA	1083.494	307.611	-1070.578	C.3	11	VAL11	-0.087	
154	   C	1083.958	309.042	-1070.709	C.2	11	VAL11	0.597	
155	   O	1084.559	309.448	-1071.712	O.2	11	VAL11	-0.568	
156	  CB	1081.933	307.505	-1070.797	C.3	11	VAL11	0.299	
157	 CG1	1081.364	308.210	-1072.060	C.3	11	VAL11	-0.319	
158	 CG2	1081.408	306.051	-1070.871	C.3	11	VAL11	-0.319	
159	   H	1083.136	306.691	-1068.661	 H	11	VAL11	0.272	
160	  HA	1084.013	307.029	-1071.360	 H	11	VAL11	0.097	
161	  HB	1081.445	307.984	-1069.922	 H	11	VAL11	-0.030	
162	1HG1	1081.802	307.818	-1072.997	 H	11	VAL11	0.079	
163	2HG1	1080.265	308.102	-1072.142	 H	11	VAL11	0.079	
164	3HG1	1081.542	309.302	-1072.049	 H	11	VAL11	0.079	
165	1HG2	1081.698	305.463	-1069.981	 H	11	VAL11	0.079	
166	2HG2	1080.302	306.014	-1070.914	 H	11	VAL11	0.079	
167	3HG2	1081.790	305.510	-1071.758	 H	11	VAL11	0.079	
168	   N	1083.721	309.867	-1069.746	N.am	12	GLN12	-0.416	
169	  CA	1084.170	311.250	-1069.873	C.3	12	GLN12	-0.003	
170	   C	1085.659	311.318	-1070.110	C.2	12	GLN12	0.597	
171	   O	1086.146	312.027	-1070.988	O.2	12	GLN12	-0.568	
172	  CB	1083.779	312.016	-1068.589	C.3	12	GLN12	-0.004	
173	  CG	1084.139	313.538	-1068.557	C.3	12	GLN12	-0.064	
174	  CD	1083.836	314.351	-1067.292	C.2	12	GLN12	0.695	
175	 NE2	1083.269	313.773	-1066.263	N.pl3	12	GLN12	-0.941	
176	 OE1	1084.138	315.532	-1067.213	O.2	12	GLN12	-0.609	
177	   H	1083.232	309.560	-1068.917	 H	12	GLN12	0.272	
178	  HA	1083.670	311.707	-1070.747	 H	12	GLN12	0.085	
179	 2HB	1084.255	311.516	-1067.720	 H	12	GLN12	0.017	
180	 3HB	1082.688	311.909	-1068.426	 H	12	GLN12	0.017	
181	 2HG	1083.661	314.060	-1069.407	 H	12	GLN12	0.035	
182	 3HG	1085.222	313.681	-1068.723	 H	12	GLN12	0.035	
183	1HE2	1083.162	314.367	-1065.439	 H	12	GLN12	0.425	
184	2HE2	1083.106	312.770	-1066.367	 H	12	GLN12	0.425	
185	   N	1086.444	310.611	-1069.370	N.am	13	ARG13	-0.348	
186	  CA	1087.884	310.677	-1069.600	C.3	13	ARG13	-0.264	
187	   C	1088.221	310.306	-1071.026	C.2	13	ARG13	0.734	
188	   O	1088.990	310.978	-1071.709	O.2	13	ARG13	-0.589	
189	  CB	1088.598	309.737	-1068.587	C.3	13	ARG13	-0.001	
190	  CG	1090.142	309.890	-1068.506	C.3	13	ARG13	0.039	
191	  CD	1090.769	308.902	-1067.508	C.3	13	ARG13	0.049	
192	  NE	1092.247	309.109	-1067.458	N.pl3	13	ARG13	-0.530	
193	  CZ	1093.094	308.417	-1066.703	C.cat	13	ARG13	0.808	
194	 NH1	1092.729	307.452	-1065.906	N.pl3	13	ARG13	-0.863	
195	 NH2	1094.354	308.716	-1066.759	N.pl3	13	ARG13	-0.863	
196	   H	1086.068	310.020	-1068.642	 H	13	ARG13	0.275	
197	  HA	1088.209	311.722	-1069.441	 H	13	ARG13	0.156	
198	 2HB	1088.331	308.686	-1068.827	 H	13	ARG13	0.033	
199	 3HB	1088.172	309.903	-1067.576	 H	13	ARG13	0.033	
200	 2HG	1090.390	310.934	-1068.226	 H	13	ARG13	0.029	
201	 3HG	1090.593	309.735	-1069.507	 H	13	ARG13	0.029	
202	 2HD	1090.525	307.862	-1067.818	 H	13	ARG13	0.069	
203	 3HD	1090.313	309.047	-1066.506	 H	13	ARG13	0.069	
204	  HE	1092.698	309.831	-1068.028	 H	13	ARG13	0.346	
205	1HH1	1091.724	307.266	-1065.910	 H	13	ARG13	0.448	
206	2HH1	1093.442	306.968	-1065.358	 H	13	ARG13	0.448	
207	1HH2	1094.621	309.474	-1067.390	 H	13	ARG13	0.448	
208	2HH2	1094.989	308.174	-1066.171	 H	13	ARG13	0.448	
209	   N	1087.685	309.252	-1071.541	N.am	14	VAL14	-0.416	
210	  CA	1088.010	308.893	-1072.918	C.3	14	VAL14	-0.087	
211	   C	1087.680	310.024	-1073.864	C.2	14	VAL14	0.597	
212	   O	1088.474	310.406	-1074.732	O.2	14	VAL14	-0.568	
213	  CB	1087.238	307.577	-1073.327	C.3	14	VAL14	0.299	
214	 CG1	1087.328	307.159	-1074.820	C.3	14	VAL14	-0.319	
215	 CG2	1087.670	306.324	-1072.527	C.3	14	VAL14	-0.319	
216	   H	1087.050	308.683	-1071.000	 H	14	VAL14	0.272	
217	  HA	1089.099	308.717	-1072.993	 H	14	VAL14	0.097	
218	  HB	1086.162	307.747	-1073.111	 H	14	VAL14	-0.030	
219	1HG1	1088.369	306.983	-1075.149	 H	14	VAL14	0.079	
220	2HG1	1086.755	306.236	-1075.034	 H	14	VAL14	0.079	
221	3HG1	1086.899	307.922	-1075.498	 H	14	VAL14	0.079	
222	1HG2	1087.582	306.482	-1071.437	 H	14	VAL14	0.079	
223	2HG2	1087.034	305.447	-1072.760	 H	14	VAL14	0.079	
224	3HG2	1088.718	306.034	-1072.733	 H	14	VAL14	0.079	
225	   N	1086.536	310.610	-1073.762	N.am	15	MET15	-0.416	
226	  CA	1086.215	311.703	-1074.675	C.3	15	MET15	-0.024	
227	   C	1087.245	312.803	-1074.586	C.2	15	MET15	0.597	
228	   O	1087.748	313.314	-1075.598	O.2	15	MET15	-0.568	
229	  CB	1084.794	312.248	-1074.366	C.3	15	MET15	0.034	
230	  CG	1083.632	311.250	-1074.559	C.3	15	MET15	0.002	
231	  SD	1082.058	312.116	-1074.444	S.3	15	MET15	-0.274	
232	  CE	1080.977	310.686	-1074.309	C.3	15	MET15	-0.054	
233	   H	1085.870	310.317	-1073.061	 H	15	MET15	0.272	
234	  HA	1086.241	311.317	-1075.711	 H	15	MET15	0.088	
235	 2HB	1084.592	313.127	-1075.008	 H	15	MET15	0.024	
236	 3HB	1084.758	312.640	-1073.330	 H	15	MET15	0.024	
237	 2HG	1083.675	310.464	-1073.782	 H	15	MET15	0.044	
238	 3HG	1083.695	310.736	-1075.535	 H	15	MET15	0.044	
239	 1HE	1081.121	309.999	-1075.162	 H	15	MET15	0.068	
240	 2HE	1081.186	310.133	-1073.377	 H	15	MET15	0.068	
241	 3HE	1079.919	311.001	-1074.293	 H	15	MET15	0.068	
242	   N	1087.614	313.223	-1073.423	N.am	16	ARG16	-0.348	
243	  CA	1088.610	314.287	-1073.339	C.3	16	ARG16	-0.264	
244	   C	1089.881	313.895	-1074.055	C.2	16	ARG16	0.734	
245	   O	1089.995	312.819	-1074.637	O.2	16	ARG16	-0.589	
246	  CB	1088.878	314.604	-1071.840	C.3	16	ARG16	-0.001	
247	  CG	1089.703	315.893	-1071.566	C.3	16	ARG16	0.039	
248	  CD	1089.952	316.112	-1070.064	C.3	16	ARG16	0.049	
249	  NE	1090.728	317.370	-1069.862	N.pl3	16	ARG16	-0.530	
250	  CZ	1091.119	317.852	-1068.686	C.cat	16	ARG16	0.808	
251	 NH1	1090.871	317.267	-1067.548	N.pl3	16	ARG16	-0.863	
252	 NH2	1091.783	318.965	-1068.667	N.pl3	16	ARG16	-0.863	
253	   H	1087.219	312.823	-1072.585	 H	16	ARG16	0.275	
254	  HA	1088.201	315.180	-1073.848	 H	16	ARG16	0.156	
255	 2HB	1089.375	313.728	-1071.374	 H	16	ARG16	0.033	
256	 3HB	1087.909	314.685	-1071.307	 H	16	ARG16	0.033	
257	 2HG	1089.173	316.764	-1072.003	 H	16	ARG16	0.029	
258	 3HG	1090.677	315.841	-1072.095	 H	16	ARG16	0.029	
259	 2HD	1090.501	315.237	-1069.651	 H	16	ARG16	0.069	
260	 3HD	1088.979	316.154	-1069.530	 H	16	ARG16	0.069	
261	  HE	1091.007	317.952	-1070.659	 H	16	ARG16	0.346	
262	1HH1	1090.346	316.394	-1067.633	 H	16	ARG16	0.448	
263	2HH1	1091.205	317.702	-1066.687	 H	16	ARG16	0.448	
264	1HH2	1091.969	319.408	-1069.568	 H	16	ARG16	0.448	
265	2HH2	1092.073	319.319	-1067.754	 H	16	ARG16	0.448	
@<TRIPOS>BOND
1 1 2 1
2 1 10 1
3 2 3 1
4 2 5 1
5 2 11 1
6 3 4 2
7 3 16 1
8 5 6 1
9 6 7 1
10 7 8 2
11 7 9 1
12 5 12 1
13 5 13 1
14 6 14 1
15 6 15 1
16 16 17 1
17 16 24 1
18 17 18 1
19 17 20 1
20 17 25 1
21 18 19 2
22 18 30 1
23 20 21 1
24 21 22 1
25 21 23 2
26 20 26 1
27 20 27 1
28 22 28 1
29 22 29 1
30 30 31 1
31 30 36 1
32 31 32 1
33 31 34 1
34 31 37 1
35 32 33 2
36 32 44 1
37 34 35 1
38 35 36 1
39 34 38 1
40 34 39 1
41 35 40 1
42 35 41 1
43 36 42 1
44 36 43 1
45 44 45 1
46 44 53 1
47 45 46 1
48 45 48 1
49 45 54 1
50 46 47 2
51 46 59 1
52 48 49 1
53 49 50 1
54 50 51 2
55 50 52 1
56 48 55 1
57 48 56 1
58 49 57 1
59 49 58 1
60 59 60 1
61 59 65 1
62 60 61 1
63 60 63 1
64 60 66 1
65 61 62 2
66 61 70 1
67 63 64 1
68 63 67 1
69 63 68 1
70 64 69 1
71 70 71 1
72 70 78 1
73 71 72 1
74 71 74 1
75 71 79 1
76 72 73 2
77 72 89 1
78 74 75 1
79 74 76 1
80 75 77 1
81 74 80 1
82 75 81 1
83 75 82 1
84 76 83 1
85 76 84 1
86 76 85 1
87 77 86 1
88 77 87 1
89 77 88 1
90 89 90 1
91 89 97 1
92 90 91 1
93 90 93 1
94 90 98 1
95 91 92 2
96 91 108 1
97 93 94 1
98 94 95 1
99 94 96 1
100 93 99 1
101 93 100 1
102 94 101 1
103 95 102 1
104 95 103 1
105 95 104 1
106 96 105 1
107 96 106 1
108 96 107 1
109 108 109 1
110 108 116 1
111 109 110 1
112 109 112 1
113 109 117 1
114 110 111 2
115 110 120 1
116 112 113 1
117 113 114 2
118 113 115 1
119 112 118 1
120 112 119 1
121 120 121 1
122 120 129 1
123 121 122 1
124 121 124 1
125 121 130 1
126 122 123 2
127 122 135 1
128 124 125 1
129 125 126 1
130 126 127 2
131 126 128 1
132 124 131 1
133 124 132 1
134 125 133 1
135 125 134 1
136 135 136 1
137 135 145 1
138 136 137 1
139 136 139 1
140 136 146 1
141 137 138 2
142 137 152 1
143 139 140 1
144 140 141 2
145 141 144 1
146 140 142 1
147 142 143 2
148 143 144 1
149 139 147 1
150 139 148 1
151 141 149 1
152 143 150 1
153 144 151 1
154 152 153 1
155 152 159 1
156 153 154 1
157 153 156 1
158 153 160 1
159 154 155 2
160 154 168 1
161 156 157 1
162 156 158 1
163 156 161 1
164 157 162 1
165 157 163 1
166 157 164 1
167 158 165 1
168 158 166 1
169 158 167 1
170 168 169 1
171 168 177 1
172 169 170 1
173 169 172 1
174 169 178 1
175 170 171 2
176 170 185 1
177 172 173 1
178 173 174 1
179 174 175 1
180 174 176 2
181 172 179 1
182 172 180 1
183 173 181 1
184 173 182 1
185 175 183 1
186 175 184 1
187 185 186 1
188 185 196 1
189 186 187 1
190 186 189 1
191 186 197 1
192 187 188 2
193 187 209 1
194 189 190 1
195 190 191 1
196 191 192 1
197 192 193 1
198 193 194 2
199 193 195 1
200 189 198 1
201 189 199 1
202 190 200 1
203 190 201 1
204 191 202 1
205 191 203 1
206 192 204 1
207 194 205 1
208 194 206 1
209 195 207 1
210 195 208 1
211 209 210 1
212 209 216 1
213 210 211 1
214 210 213 1
215 210 217 1
216 211 212 2
217 211 225 1
218 213 214 1
219 213 215 1
220 213 218 1
221 214 219 1
222 214 220 1
223 214 221 1
224 215 222 1
225 215 223 1
226 215 224 1
227 225 226 1
228 225 233 1
229 226 227 1
230 226 229 1
231 226 234 1
232 227 228 2
233 227 242 1
234 229 230 1
235 230 231 1
236 231 232 1
237 229 235 1
238 229 236 1
239 230 237 1
240 230 238 1
241 232 239 1
242 232 240 1
243 232 241 1
244 242 243 1
245 242 253 1
246 243 244 1
247 243 246 1
248 243 254 1
249 244 245 2
250 246 247 1
251 247 248 1
252 248 249 1
253 249 250 1
254 250 251 2
255 250 252 1
256 246 255 1
257 246 256 1
258 247 257 1
259 247 258 1
260 248 259 1
261 248 260 1
262 249 261 1
263 251 262 1
264 251 263 1
265 252 264 1
266 252 265 1
@<TRIPOS>SUBSTRUCTURE
1	GLU1	1	RESIDUE	1 ****	GLU
2	ASN2	16	RESIDUE	1 ****	ASN
3	PRO3	30	RESIDUE	1 ****	PRO
4	GLU4	44	RESIDUE	1 ****	GLU
5	SER5	59	RESIDUE	1 ****	SER
6	ILE6	70	RESIDUE	1 ****	ILE
7	LEU7	89	RESIDUE	1 ****	LEU
8	ASP8	108	RESIDUE	1 ****	ASP
9	GLU9	120	RESIDUE	1 ****	GLU
10	HIS10	135	RESIDUE	1 ****	HIS
11	VAL11	152	RESIDUE	1 ****	VAL
12	GLN12	168	RESIDUE	1 ****	GLN
13	ARG13	185	RESIDUE	1 ****	ARG
14	VAL14	209	RESIDUE	1 ****	VAL
15	MET15	225	RESIDUE	1 ****	MET
16	ARG16	242	RESIDUE	1 ****	ARG
