@<TRIPOS>MOLECULE
4-7
269 270 16              
SMALL
USER_CHARGES
@<TRIPOS>ATOM
1	   N	582.227	140.988	-526.489	N.3	1	GLU1	-0.516	
2	  CA	582.786	142.337	-526.489	C.3	1	GLU1	0.040	
3	   C	584.295	142.297	-526.489	C.2	1	GLU1	0.537	
4	   O	584.971	142.996	-527.258	O.2	1	GLU1	-0.582	
5	  CB	582.263	143.122	-525.252	C.3	1	GLU1	0.056	
6	  CG	582.738	144.607	-525.141	C.3	1	GLU1	0.014	
7	  CD	582.314	145.411	-523.926	C.2	1	GLU1	0.805	
8	 OE1	581.586	144.909	-523.048	O.co2	1	GLU1	-0.819	
9	 OE2	582.744	146.581	-523.854	O.co2	1	GLU1	-0.819	
10	   H	582.854	140.109	-526.489	 H	1	GLU1	0.294	
11	  HA	582.460	142.855	-527.409	 H	1	GLU1	0.111	
12	 2HB	582.552	142.591	-524.322	 H	1	GLU1	-0.017	
13	 3HB	581.156	143.112	-525.239	 H	1	GLU1	-0.017	
14	 2HG	582.428	145.192	-526.022	 H	1	GLU1	-0.043	
15	 3HG	583.838	144.674	-525.112	 H	1	GLU1	-0.043	
16	   N	584.900	141.511	-525.664	N.am	2	ASN2	-0.416	
17	  CA	586.359	141.473	-525.664	C.3	2	ASN2	0.014	
18	   C	586.891	141.117	-527.033	C.2	2	ASN2	0.597	
19	   O	587.805	141.748	-527.561	O.2	2	ASN2	-0.568	
20	  CB	586.852	140.450	-524.600	C.3	2	ASN2	-0.204	
21	  CG	586.388	140.673	-523.156	C.2	2	ASN2	0.713	
22	 ND2	586.983	141.588	-522.438	N.pl3	2	ASN2	-0.919	
23	 OD1	585.468	140.040	-522.662	O.2	2	ASN2	-0.593	
24	   H	584.372	140.931	-525.027	 H	2	ASN2	0.272	
25	  HA	586.737	142.482	-525.419	 H	2	ASN2	0.105	
26	 2HB	587.956	140.391	-524.603	 H	2	ASN2	0.080	
27	 3HB	586.522	139.431	-524.885	 H	2	ASN2	0.080	
28	1HD2	586.502	141.761	-521.552	 H	2	ASN2	0.420	
29	2HD2	587.684	142.160	-522.907	 H	2	ASN2	0.420	
30	   N	586.369	140.122	-527.667	N.am	3	PRO3	-0.255	
31	  CA	586.821	139.713	-528.988	C.3	3	PRO3	-0.027	
32	   C	586.423	140.736	-530.065	C.2	3	PRO3	0.590	
33	   O	587.246	141.120	-530.897	O.2	3	PRO3	-0.575	
34	  CB	586.117	138.358	-529.158	C.3	3	PRO3	-0.007	
35	  CG	584.834	138.510	-528.328	C.3	3	PRO3	0.019	
36	  CD	585.291	139.329	-527.118	C.3	3	PRO3	0.019	
37	  HA	587.907	139.593	-529.002	 H	3	PRO3	0.064	
38	 2HB	586.740	137.577	-528.717	 H	3	PRO3	0.025	
39	 3HB	585.919	138.110	-530.203	 H	3	PRO3	0.025	
40	 2HG	584.406	137.548	-528.037	 H	3	PRO3	0.021	
41	 3HG	584.096	139.081	-528.895	 H	3	PRO3	0.021	
42	 2HD	585.681	138.679	-526.330	 H	3	PRO3	0.039	
43	 3HD	584.495	139.964	-526.725	 H	3	PRO3	0.039	
44	   N	585.218	141.196	-530.098	N.am	4	LEU4	-0.416	
45	  CA	584.859	142.167	-531.127	C.3	4	LEU4	-0.052	
46	   C	585.759	143.378	-531.065	C.2	4	LEU4	0.597	
47	   O	586.286	143.858	-532.080	O.2	4	LEU4	-0.568	
48	  CB	583.365	142.578	-530.994	C.3	4	LEU4	-0.110	
49	  CG	582.290	141.459	-531.068	C.3	4	LEU4	0.353	
50	 CD1	580.884	142.074	-531.028	C.3	4	LEU4	-0.412	
51	 CD2	582.435	140.578	-532.320	C.3	4	LEU4	-0.412	
52	   H	584.534	140.889	-529.421	 H	4	LEU4	0.272	
53	  HA	585.028	141.705	-532.117	 H	4	LEU4	0.092	
54	 2HB	583.137	143.331	-531.773	 H	4	LEU4	0.046	
55	 3HB	583.230	143.120	-530.037	 H	4	LEU4	0.046	
56	  HG	582.404	140.811	-530.173	 H	4	LEU4	-0.036	
57	1HD1	580.727	142.683	-530.118	 H	4	LEU4	0.100	
58	2HD1	580.690	142.731	-531.897	 H	4	LEU4	0.100	
59	3HD1	580.099	141.296	-531.026	 H	4	LEU4	0.100	
60	1HD2	582.409	141.170	-533.254	 H	4	LEU4	0.100	
61	2HD2	583.391	140.021	-532.310	 H	4	LEU4	0.100	
62	3HD2	581.638	139.815	-532.384	 H	4	LEU4	0.100	
63	   N	585.985	143.930	-529.922	N.am	5	SER5	-0.416	
64	  CA	586.855	145.101	-529.862	C.3	5	SER5	-0.025	
65	   C	588.214	144.795	-530.447	C.2	5	SER5	0.597	
66	   O	588.762	145.549	-531.252	O.2	5	SER5	-0.568	
67	  CB	586.966	145.633	-528.412	C.3	5	SER5	0.212	
68	  OG	587.697	144.753	-527.551	O.3	5	SER5	-0.655	
69	   H	585.568	143.558	-529.081	 H	5	SER5	0.272	
70	  HA	586.406	145.892	-530.492	 H	5	SER5	0.084	
71	 2HB	585.966	145.827	-527.979	 H	5	SER5	0.035	
72	 3HB	587.472	146.618	-528.413	 H	5	SER5	0.035	
73	  HG	587.208	143.928	-527.500	 H	5	SER5	0.428	
74	   N	588.819	143.712	-530.093	N.am	6	ILE6	-0.416	
75	  CA	590.132	143.417	-530.659	C.3	6	ILE6	-0.060	
76	   C	590.076	143.380	-532.167	C.2	6	ILE6	0.597	
77	   O	590.911	143.968	-532.870	O.2	6	ILE6	-0.568	
78	  CB	590.731	142.080	-530.059	C.3	6	ILE6	0.130	
79	 CG1	590.749	142.018	-528.498	C.3	6	ILE6	-0.043	
80	 CG2	592.172	141.778	-530.573	C.3	6	ILE6	-0.320	
81	 CD1	591.019	140.628	-527.883	C.3	6	ILE6	-0.066	
82	   H	588.390	143.078	-529.435	 H	6	ILE6	0.272	
83	  HA	590.806	144.251	-530.390	 H	6	ILE6	0.087	
84	  HB	590.073	141.255	-530.404	 H	6	ILE6	0.019	
85	2HG1	589.767	142.338	-528.103	 H	6	ILE6	0.024	
86	3HG1	591.465	142.760	-528.092	 H	6	ILE6	0.024	
87	1HG2	592.232	141.685	-531.672	 H	6	ILE6	0.088	
88	2HG2	592.895	142.560	-530.271	 H	6	ILE6	0.088	
89	3HG2	592.562	140.816	-530.195	 H	6	ILE6	0.088	
90	1HD1	590.290	139.874	-528.238	 H	6	ILE6	0.019	
91	2HD1	592.029	140.249	-528.118	 H	6	ILE6	0.019	
92	3HD1	590.942	140.658	-526.780	 H	6	ILE6	0.019	
93	   N	589.130	142.717	-532.741	N.am	7	LEU7	-0.416	
94	  CA	589.076	142.681	-534.200	C.3	7	LEU7	-0.052	
95	   C	589.004	144.077	-534.772	C.2	7	LEU7	0.597	
96	   O	589.726	144.440	-535.713	O.2	7	LEU7	-0.568	
97	  CB	587.873	141.821	-534.681	C.3	7	LEU7	-0.110	
98	  CG	587.799	140.342	-534.215	C.3	7	LEU7	0.353	
99	 CD1	586.610	139.637	-534.882	C.3	7	LEU7	-0.412	
100	 CD2	589.093	139.563	-534.506	C.3	7	LEU7	-0.412	
101	   H	588.438	142.230	-532.190	 H	7	LEU7	0.272	
102	  HA	590.018	142.241	-534.573	 H	7	LEU7	0.092	
103	 2HB	587.850	141.838	-535.789	 H	7	LEU7	0.046	
104	 3HB	586.933	142.324	-534.377	 H	7	LEU7	0.046	
105	  HG	587.629	140.334	-533.118	 H	7	LEU7	-0.036	
106	1HD1	585.653	140.146	-534.659	 H	7	LEU7	0.100	
107	2HD1	586.710	139.597	-535.983	 H	7	LEU7	0.100	
108	3HD1	586.503	138.596	-534.526	 H	7	LEU7	0.100	
109	1HD2	589.369	139.593	-535.576	 H	7	LEU7	0.100	
110	2HD2	589.946	139.974	-533.934	 H	7	LEU7	0.100	
111	3HD2	589.011	138.500	-534.211	 H	7	LEU7	0.100	
112	   N	588.167	144.917	-534.265	N.am	8	ASP8	-0.516	
113	  CA	588.097	146.267	-534.818	C.3	8	ASP8	0.038	
114	   C	589.444	146.947	-534.760	C.2	8	ASP8	0.537	
115	   O	589.917	147.552	-535.734	O.2	8	ASP8	-0.582	
116	  CB	587.019	147.106	-534.077	C.3	8	ASP8	-0.030	
117	  CG	586.801	148.527	-534.616	C.2	8	ASP8	0.799	
118	 OD1	586.865	148.727	-535.847	O.co2	8	ASP8	-0.801	
119	 OD2	586.608	149.453	-533.801	O.co2	8	ASP8	-0.801	
120	   H	587.568	144.646	-533.498	 H	8	ASP8	0.294	
121	  HA	587.815	146.190	-535.885	 H	8	ASP8	0.088	
122	 2HB	587.275	147.189	-533.004	 H	8	ASP8	-0.012	
123	 3HB	586.040	146.601	-534.110	 H	8	ASP8	-0.012	
124	   N	590.123	146.896	-533.664	N.am	9	GLU9	-0.516	
125	  CA	591.426	147.553	-533.607	C.3	9	GLU9	0.040	
126	   C	592.344	147.026	-534.683	C.2	9	GLU9	0.537	
127	   O	593.009	147.781	-535.408	O.2	9	GLU9	-0.582	
128	  CB	592.058	147.345	-532.202	C.3	9	GLU9	0.056	
129	  CG	593.441	148.037	-531.971	C.3	9	GLU9	0.014	
130	  CD	594.142	147.823	-530.643	C.2	9	GLU9	0.805	
131	 OE1	593.620	147.131	-529.747	O.co2	9	GLU9	-0.819	
132	 OE2	595.261	148.360	-530.510	O.co2	9	GLU9	-0.819	
133	   H	589.759	146.409	-532.857	 H	9	GLU9	0.294	
134	  HA	591.284	148.635	-533.782	 H	9	GLU9	0.111	
135	 2HB	592.171	146.260	-531.999	 H	9	GLU9	-0.017	
136	 3HB	591.361	147.698	-531.418	 H	9	GLU9	-0.017	
137	 2HG	593.369	149.128	-532.110	 H	9	GLU9	-0.043	
138	 3HG	594.188	147.692	-532.705	 H	9	GLU9	-0.043	
139	   N	592.441	145.751	-534.853	N.am	10	HIS10	-0.416	
140	  CA	593.329	145.240	-535.893	C.3	10	HIS10	-0.058	
141	   C	592.964	145.805	-537.244	C.2	10	HIS10	0.597	
142	   O	593.817	146.270	-538.015	O.2	10	HIS10	-0.568	
143	  CB	593.165	143.711	-535.889	C.3	10	HIS10	-0.007	
144	  CG	594.450	143.001	-535.580	C.2	10	HIS10	0.187	
145	 CD2	594.830	142.665	-534.288	C.2	10	HIS10	-0.221	
146	 ND1	595.403	142.595	-536.512	N.2	10	HIS10	-0.543	
147	 CE1	596.309	142.036	-535.689	C.2	10	HIS10	0.163	
148	 NE2	596.045	142.033	-534.354	N.pl3	10	HIS10	-0.280	
149	   H	591.910	145.115	-534.275	 H	10	HIS10	0.272	
150	  HA	594.348	145.597	-535.667	 H	10	HIS10	0.136	
151	 2HB	592.800	143.345	-536.869	 H	10	HIS10	0.037	
152	 3HB	592.409	143.374	-535.150	 H	10	HIS10	0.037	
153	 2HD	594.244	142.879	-533.399	 H	10	HIS10	0.186	
154	 1HE	597.200	141.615	-536.135	 H	10	HIS10	0.144	
155	 2HE	596.611	141.655	-533.580	 H	10	HIS10	0.334	
156	   N	591.726	145.805	-537.608	N.am	11	VAL11	-0.416	
157	  CA	591.372	146.351	-538.915	C.3	11	VAL11	-0.087	
158	   C	591.836	147.782	-539.046	C.2	11	VAL11	0.597	
159	   O	592.438	148.187	-540.049	O.2	11	VAL11	-0.568	
160	  CB	589.811	146.245	-539.135	C.3	11	VAL11	0.299	
161	 CG1	589.243	146.950	-540.398	C.3	11	VAL11	-0.319	
162	 CG2	589.286	144.791	-539.210	C.3	11	VAL11	-0.319	
163	   H	591.013	145.432	-536.998	 H	11	VAL11	0.272	
164	  HA	591.892	145.769	-539.697	 H	11	VAL11	0.097	
165	  HB	589.323	146.725	-538.260	 H	11	VAL11	-0.030	
166	1HG1	589.682	146.558	-541.335	 H	11	VAL11	0.079	
167	2HG1	588.144	146.843	-540.481	 H	11	VAL11	0.079	
168	3HG1	589.421	148.042	-540.388	 H	11	VAL11	0.079	
169	1HG2	589.575	144.203	-538.319	 H	11	VAL11	0.079	
170	2HG2	588.180	144.754	-539.253	 H	11	VAL11	0.079	
171	3HG2	589.668	144.251	-540.096	 H	11	VAL11	0.079	
172	   N	591.599	148.607	-538.084	N.am	12	GLN12	-0.416	
173	  CA	592.048	149.990	-538.210	C.3	12	GLN12	-0.003	
174	   C	593.538	150.058	-538.447	C.2	12	GLN12	0.597	
175	   O	594.026	150.766	-539.325	O.2	12	GLN12	-0.568	
176	  CB	591.656	150.757	-536.927	C.3	12	GLN12	-0.004	
177	  CG	592.016	152.279	-536.895	C.3	12	GLN12	-0.064	
178	  CD	591.713	153.092	-535.630	C.2	12	GLN12	0.695	
179	 NE2	591.145	152.515	-534.602	N.pl3	12	GLN12	-0.941	
180	 OE1	592.015	154.273	-535.552	O.2	12	GLN12	-0.609	
181	   H	591.109	148.301	-537.255	 H	12	GLN12	0.272	
182	  HA	591.549	150.447	-539.085	 H	12	GLN12	0.085	
183	 2HB	592.131	150.257	-536.058	 H	12	GLN12	0.017	
184	 3HB	590.566	150.650	-536.765	 H	12	GLN12	0.017	
185	 2HG	591.540	152.800	-537.746	 H	12	GLN12	0.035	
186	 3HG	593.100	152.421	-537.060	 H	12	GLN12	0.035	
187	1HE2	591.038	153.109	-533.778	 H	12	GLN12	0.425	
188	2HE2	590.982	151.512	-534.706	 H	12	GLN12	0.425	
189	   N	594.322	149.350	-537.706	N.am	13	ARG13	-0.348	
190	  CA	595.762	149.416	-537.935	C.3	13	ARG13	-0.264	
191	   C	596.099	149.045	-539.360	C.2	13	ARG13	0.734	
192	   O	596.869	149.717	-540.043	O.2	13	ARG13	-0.589	
193	  CB	596.475	148.476	-536.921	C.3	13	ARG13	-0.001	
194	  CG	598.019	148.629	-536.839	C.3	13	ARG13	0.039	
195	  CD	598.645	147.641	-535.841	C.3	13	ARG13	0.049	
196	  NE	600.123	147.848	-535.790	N.pl3	13	ARG13	-0.530	
197	  CZ	600.970	147.156	-535.034	C.cat	13	ARG13	0.808	
198	 NH1	600.604	146.191	-534.238	N.pl3	13	ARG13	-0.863	
199	 NH2	602.230	147.455	-535.090	N.pl3	13	ARG13	-0.863	
200	   H	593.945	148.760	-536.978	 H	13	ARG13	0.275	
201	  HA	596.086	150.462	-537.776	 H	13	ARG13	0.156	
202	 2HB	596.208	147.426	-537.161	 H	13	ARG13	0.033	
203	 3HB	596.049	148.643	-535.911	 H	13	ARG13	0.033	
204	 2HG	598.267	149.674	-536.559	 H	13	ARG13	0.029	
205	 3HG	598.471	148.474	-537.840	 H	13	ARG13	0.029	
206	 2HD	598.401	146.601	-536.151	 H	13	ARG13	0.069	
207	 3HD	598.188	147.786	-534.839	 H	13	ARG13	0.069	
208	  HE	600.574	148.571	-536.360	 H	13	ARG13	0.346	
209	1HH1	599.599	146.005	-534.242	 H	13	ARG13	0.448	
210	2HH1	601.317	145.708	-533.688	 H	13	ARG13	0.448	
211	1HH2	602.498	148.213	-535.720	 H	13	ARG13	0.448	
212	2HH2	602.864	146.913	-534.501	 H	13	ARG13	0.448	
213	   N	595.563	147.991	-539.876	N.am	14	VAL14	-0.416	
214	  CA	595.889	147.633	-541.253	C.3	14	VAL14	-0.087	
215	   C	595.560	148.763	-542.198	C.2	14	VAL14	0.597	
216	   O	596.354	149.145	-543.067	O.2	14	VAL14	-0.568	
217	  CB	595.117	146.316	-541.661	C.3	14	VAL14	0.299	
218	 CG1	595.207	145.898	-543.155	C.3	14	VAL14	-0.319	
219	 CG2	595.548	145.063	-540.861	C.3	14	VAL14	-0.319	
220	   H	594.928	147.422	-539.335	 H	14	VAL14	0.272	
221	  HA	596.978	147.456	-541.327	 H	14	VAL14	0.097	
222	  HB	594.040	146.487	-541.446	 H	14	VAL14	-0.030	
223	1HG1	596.249	145.721	-543.483	 H	14	VAL14	0.079	
224	2HG1	594.634	144.976	-543.369	 H	14	VAL14	0.079	
225	3HG1	594.779	146.661	-543.833	 H	14	VAL14	0.079	
226	1HG2	595.460	145.221	-539.771	 H	14	VAL14	0.079	
227	2HG2	594.912	144.187	-541.095	 H	14	VAL14	0.079	
228	3HG2	596.596	144.773	-541.066	 H	14	VAL14	0.079	
229	   N	594.415	149.349	-542.097	N.am	15	MET15	-0.416	
230	  CA	594.096	150.443	-543.010	C.3	15	MET15	-0.024	
231	   C	595.126	151.542	-542.921	C.2	15	MET15	0.597	
232	   O	595.630	152.053	-543.933	O.2	15	MET15	-0.568	
233	  CB	592.674	150.988	-542.702	C.3	15	MET15	0.034	
234	  CG	591.512	149.990	-542.895	C.3	15	MET15	0.002	
235	  SD	589.938	150.857	-542.782	S.3	15	MET15	-0.274	
236	  CE	588.857	149.427	-542.647	C.3	15	MET15	-0.054	
237	   H	593.750	149.056	-541.396	 H	15	MET15	0.272	
238	  HA	594.122	150.056	-544.046	 H	15	MET15	0.088	
239	 2HB	592.473	151.867	-543.344	 H	15	MET15	0.024	
240	 3HB	592.638	151.380	-541.666	 H	15	MET15	0.024	
241	 2HG	591.555	149.204	-542.118	 H	15	MET15	0.044	
242	 3HG	591.576	149.476	-543.872	 H	15	MET15	0.044	
243	 1HE	589.001	148.739	-543.499	 H	15	MET15	0.068	
244	 2HE	589.065	148.874	-541.714	 H	15	MET15	0.068	
245	 3HE	587.799	149.743	-542.631	 H	15	MET15	0.068	
246	   N	595.494	151.963	-541.759	N.am	16	ARG16	-0.348	
247	  CA	596.491	153.026	-541.674	C.3	16	ARG16	-0.264	
248	   C	597.762	152.634	-542.389	C.2	16	ARG16	0.734	
249	   O	597.876	151.557	-542.971	O.2	16	ARG16	-0.589	
250	  CB	596.759	153.343	-540.175	C.3	16	ARG16	-0.001	
251	  CG	597.584	154.632	-539.901	C.3	16	ARG16	0.039	
252	  CD	597.833	154.851	-538.400	C.3	16	ARG16	0.049	
253	  NE	598.609	156.109	-538.197	N.pl3	16	ARG16	-0.530	
254	  CZ	599.000	156.591	-537.021	C.cat	16	ARG16	0.808	
255	 NH1	598.751	156.006	-535.883	N.pl3	16	ARG16	-0.863	
256	 NH2	599.664	157.704	-537.002	N.pl3	16	ARG16	-0.863	
257	   H	595.099	151.562	-540.920	 H	16	ARG16	0.275	
258	  HA	596.082	153.919	-542.183	 H	16	ARG16	0.156	
259	 2HB	597.255	152.467	-539.709	 H	16	ARG16	0.033	
260	 3HB	595.790	153.424	-539.642	 H	16	ARG16	0.033	
261	 2HG	597.054	155.503	-540.338	 H	16	ARG16	0.029	
262	 3HG	598.558	154.579	-540.429	 H	16	ARG16	0.029	
263	 2HD	598.381	153.976	-537.986	 H	16	ARG16	0.069	
264	 3HD	596.860	154.893	-537.865	 H	16	ARG16	0.069	
265	  HE	598.888	156.691	-538.994	 H	16	ARG16	0.346	
266	1HH1	598.226	155.133	-535.969	 H	16	ARG16	0.448	
267	2HH1	599.085	156.441	-535.022	 H	16	ARG16	0.448	
268	1HH2	599.850	158.147	-537.903	 H	16	ARG16	0.448	
269	2HH2	599.954	158.058	-536.089	 H	16	ARG16	0.448	
@<TRIPOS>BOND
1 1 2 1
2 1 10 1
3 2 3 1
4 2 5 1
5 2 11 1
6 3 4 2
7 3 16 1
8 5 6 1
9 6 7 1
10 7 8 2
11 7 9 1
12 5 12 1
13 5 13 1
14 6 14 1
15 6 15 1
16 16 17 1
17 16 24 1
18 17 18 1
19 17 20 1
20 17 25 1
21 18 19 2
22 18 30 1
23 20 21 1
24 21 22 1
25 21 23 2
26 20 26 1
27 20 27 1
28 22 28 1
29 22 29 1
30 30 31 1
31 30 36 1
32 31 32 1
33 31 34 1
34 31 37 1
35 32 33 2
36 32 44 1
37 34 35 1
38 35 36 1
39 34 38 1
40 34 39 1
41 35 40 1
42 35 41 1
43 36 42 1
44 36 43 1
45 44 45 1
46 44 52 1
47 45 46 1
48 45 48 1
49 45 53 1
50 46 47 2
51 46 63 1
52 48 49 1
53 49 50 1
54 49 51 1
55 48 54 1
56 48 55 1
57 49 56 1
58 50 57 1
59 50 58 1
60 50 59 1
61 51 60 1
62 51 61 1
63 51 62 1
64 63 64 1
65 63 69 1
66 64 65 1
67 64 67 1
68 64 70 1
69 65 66 2
70 65 74 1
71 67 68 1
72 67 71 1
73 67 72 1
74 68 73 1
75 74 75 1
76 74 82 1
77 75 76 1
78 75 78 1
79 75 83 1
80 76 77 2
81 76 93 1
82 78 79 1
83 78 80 1
84 79 81 1
85 78 84 1
86 79 85 1
87 79 86 1
88 80 87 1
89 80 88 1
90 80 89 1
91 81 90 1
92 81 91 1
93 81 92 1
94 93 94 1
95 93 101 1
96 94 95 1
97 94 97 1
98 94 102 1
99 95 96 2
100 95 112 1
101 97 98 1
102 98 99 1
103 98 100 1
104 97 103 1
105 97 104 1
106 98 105 1
107 99 106 1
108 99 107 1
109 99 108 1
110 100 109 1
111 100 110 1
112 100 111 1
113 112 113 1
114 112 120 1
115 113 114 1
116 113 116 1
117 113 121 1
118 114 115 2
119 114 124 1
120 116 117 1
121 117 118 2
122 117 119 1
123 116 122 1
124 116 123 1
125 124 125 1
126 124 133 1
127 125 126 1
128 125 128 1
129 125 134 1
130 126 127 2
131 126 139 1
132 128 129 1
133 129 130 1
134 130 131 2
135 130 132 1
136 128 135 1
137 128 136 1
138 129 137 1
139 129 138 1
140 139 140 1
141 139 149 1
142 140 141 1
143 140 143 1
144 140 150 1
145 141 142 2
146 141 156 1
147 143 144 1
148 144 145 2
149 145 148 1
150 144 146 1
151 146 147 2
152 147 148 1
153 143 151 1
154 143 152 1
155 145 153 1
156 147 154 1
157 148 155 1
158 156 157 1
159 156 163 1
160 157 158 1
161 157 160 1
162 157 164 1
163 158 159 2
164 158 172 1
165 160 161 1
166 160 162 1
167 160 165 1
168 161 166 1
169 161 167 1
170 161 168 1
171 162 169 1
172 162 170 1
173 162 171 1
174 172 173 1
175 172 181 1
176 173 174 1
177 173 176 1
178 173 182 1
179 174 175 2
180 174 189 1
181 176 177 1
182 177 178 1
183 178 179 1
184 178 180 2
185 176 183 1
186 176 184 1
187 177 185 1
188 177 186 1
189 179 187 1
190 179 188 1
191 189 190 1
192 189 200 1
193 190 191 1
194 190 193 1
195 190 201 1
196 191 192 2
197 191 213 1
198 193 194 1
199 194 195 1
200 195 196 1
201 196 197 1
202 197 198 2
203 197 199 1
204 193 202 1
205 193 203 1
206 194 204 1
207 194 205 1
208 195 206 1
209 195 207 1
210 196 208 1
211 198 209 1
212 198 210 1
213 199 211 1
214 199 212 1
215 213 214 1
216 213 220 1
217 214 215 1
218 214 217 1
219 214 221 1
220 215 216 2
221 215 229 1
222 217 218 1
223 217 219 1
224 217 222 1
225 218 223 1
226 218 224 1
227 218 225 1
228 219 226 1
229 219 227 1
230 219 228 1
231 229 230 1
232 229 237 1
233 230 231 1
234 230 233 1
235 230 238 1
236 231 232 2
237 231 246 1
238 233 234 1
239 234 235 1
240 235 236 1
241 233 239 1
242 233 240 1
243 234 241 1
244 234 242 1
245 236 243 1
246 236 244 1
247 236 245 1
248 246 247 1
249 246 257 1
250 247 248 1
251 247 250 1
252 247 258 1
253 248 249 2
254 250 251 1
255 251 252 1
256 252 253 1
257 253 254 1
258 254 255 2
259 254 256 1
260 250 259 1
261 250 260 1
262 251 261 1
263 251 262 1
264 252 263 1
265 252 264 1
266 253 265 1
267 255 266 1
268 255 267 1
269 256 268 1
270 256 269 1
@<TRIPOS>SUBSTRUCTURE
1	GLU1	1	RESIDUE	1 ****	GLU
2	ASN2	16	RESIDUE	1 ****	ASN
3	PRO3	30	RESIDUE	1 ****	PRO
4	LEU4	44	RESIDUE	1 ****	LEU
5	SER5	63	RESIDUE	1 ****	SER
6	ILE6	74	RESIDUE	1 ****	ILE
7	LEU7	93	RESIDUE	1 ****	LEU
8	ASP8	112	RESIDUE	1 ****	ASP
9	GLU9	124	RESIDUE	1 ****	GLU
10	HIS10	139	RESIDUE	1 ****	HIS
11	VAL11	156	RESIDUE	1 ****	VAL
12	GLN12	172	RESIDUE	1 ****	GLN
13	ARG13	189	RESIDUE	1 ****	ARG
14	VAL14	213	RESIDUE	1 ****	VAL
15	MET15	229	RESIDUE	1 ****	MET
16	ARG16	246	RESIDUE	1 ****	ARG
