REMARK WARNING: 32 MAX_TORS EXCEEDED!!!
REMARK  64 active torsions:
REMARK  status: ('A' for Active; 'I' for Inactive)
REMARK    1  A    between atoms: N_1  and  CA_2 
REMARK    2  A    between atoms: CA_2  and  C_3 
REMARK    3  A    between atoms: CA_2  and  CB_5 
REMARK       I    between atoms: C_3  and  N_11 
REMARK    4  A    between atoms: CB_5  and  CG_6 
REMARK    5  A    between atoms: CG_6  and  CD_7 
REMARK    6  A    between atoms: N_11  and  CA_12 
REMARK    7  A    between atoms: CA_12  and  C_13 
REMARK    8  A    between atoms: CA_12  and  CB_15 
REMARK       I    between atoms: C_13  and  N_22 
REMARK    9  A    between atoms: CB_15  and  CG_16 
REMARK       I    between atoms: CG_16  and  ND2_17 
REMARK   10  A    between atoms: CA_23  and  C_24 
REMARK       I    between atoms: C_24  and  N_29 
REMARK   11  A    between atoms: N_29  and  CA_30 
REMARK   12  A    between atoms: CA_30  and  C_31 
REMARK   13  A    between atoms: CA_30  and  CB_33 
REMARK       I    between atoms: C_31  and  N_39 
REMARK   14  A    between atoms: CB_33  and  CG_34 
REMARK   15  A    between atoms: CG_34  and  CD_35 
REMARK   16  A    between atoms: N_39  and  CA_40 
REMARK   17  A    between atoms: CA_40  and  C_41 
REMARK   18  A    between atoms: CA_40  and  CB_43 
REMARK       I    between atoms: C_41  and  N_47 
REMARK   19  A    between atoms: CB_43  and  OG_44 
REMARK   20  A    between atoms: N_47  and  CA_48 
REMARK   21  A    between atoms: CA_48  and  C_49 
REMARK   22  A    between atoms: CA_48  and  CB_51 
REMARK       I    between atoms: C_49  and  N_56 
REMARK   23  A    between atoms: CB_51  and  CG1_52 
REMARK   24  A    between atoms: N_56  and  CA_57 
REMARK   25  A    between atoms: CA_57  and  C_58 
REMARK   26  A    between atoms: CA_57  and  CB_60 
REMARK       I    between atoms: C_58  and  N_65 
REMARK   27  A    between atoms: CB_60  and  CG_61 
REMARK   28  A    between atoms: N_65  and  CA_66 
REMARK   29  A    between atoms: CA_66  and  C_67 
REMARK   30  A    between atoms: CA_66  and  CB_69 
REMARK       I    between atoms: C_67  and  N_74 
REMARK   31  A    between atoms: CB_69  and  CG_70 
REMARK   32  A    between atoms: N_74  and  CA_75 
REMARK   33  A    between atoms: CA_75  and  C_76 
REMARK   34  A    between atoms: CA_75  and  CB_78 
REMARK       I    between atoms: C_76  and  N_84 
REMARK   35  A    between atoms: CB_78  and  CG_79 
REMARK   36  A    between atoms: CG_79  and  CD_80 
REMARK   37  A    between atoms: N_84  and  CA_85 
REMARK   38  A    between atoms: CA_85  and  C_86 
REMARK   39  A    between atoms: CA_85  and  CB_88 
REMARK       I    between atoms: C_86  and  N_96 
REMARK   40  A    between atoms: CB_88  and  CG_89 
REMARK   41  A    between atoms: N_96  and  CA_97 
REMARK   42  A    between atoms: CA_97  and  C_98 
REMARK   43  A    between atoms: CA_97  and  CB_100 
REMARK       I    between atoms: C_98  and  N_104 
REMARK   44  A    between atoms: N_104  and  CA_105 
REMARK   45  A    between atoms: CA_105  and  C_106 
REMARK   46  A    between atoms: CA_105  and  CB_108 
REMARK       I    between atoms: C_106  and  N_116 
REMARK   47  A    between atoms: CB_108  and  CG_109 
REMARK   48  A    between atoms: CG_109  and  CD_110 
REMARK       I    between atoms: CD_110  and  NE2_111 
REMARK   49  A    between atoms: N_116  and  CA_117 
REMARK   50  A    between atoms: CA_117  and  C_118 
REMARK   51  A    between atoms: CA_117  and  CB_120 
REMARK       I    between atoms: C_118  and  N_133 
REMARK   52  A    between atoms: CB_120  and  CG_121 
REMARK   53  A    between atoms: CG_121  and  CD_122 
REMARK   54  A    between atoms: CD_122  and  NE_123 
REMARK       I    between atoms: NE_123  and  CZ_124 
REMARK       I    between atoms: CZ_124  and  NH1_125 
REMARK   55  A    between atoms: N_133  and  CA_134 
REMARK   56  A    between atoms: CA_134  and  C_135 
REMARK   57  A    between atoms: CA_134  and  CB_137 
REMARK       I    between atoms: C_135  and  N_141 
REMARK   58  A    between atoms: N_141  and  CA_142 
REMARK   59  A    between atoms: CA_142  and  C_143 
REMARK   60  A    between atoms: CA_142  and  CB_145 
REMARK       I    between atoms: C_143  and  N_150 
REMARK   61  A    between atoms: CB_145  and  CG_146 
REMARK   62  A    between atoms: CG_146  and  SD_147 
REMARK   63  A    between atoms: N_150  and  CA_151 
REMARK   64  A    between atoms: CA_151  and  C_152 
ROOT
ATOM      1  CA  GLU d   9    2523.455 778.446-2629.302  0.00  0.00     0.177 C 
ENDROOT
BRANCH   1   2
ATOM      2  N   GLU d   9    2522.152 777.789-2629.357  0.00  0.00    -0.346 N 
ATOM      3  C   ASP d   8    2521.472 777.839-2630.452  0.00  0.00     0.241 C 
ATOM      4  O   ASP d   8    2521.945 778.443-2631.427  0.00  0.00    -0.271 OA
ATOM      5  H   GLU d   9    2521.789 777.303-2628.549  0.00  0.00     0.163 HD
BRANCH   3   6
ATOM      6  CA  ASP d   8    2520.125 777.160-2630.509  0.00  0.00     0.186 C 
BRANCH   6   7
ATOM      7  N   ASP d   8    2520.195 775.810-2629.955  0.00  0.00    -0.346 N 
ATOM      8  C   LEU d   7    2521.032 774.969-2630.460  0.00  0.00     0.241 C 
ATOM      9  O   LEU d   7    2521.753 775.331-2631.403  0.00  0.00    -0.271 OA
ATOM     10  H   ASP d   8    2519.597 775.540-2629.187  0.00  0.00     0.163 HD
BRANCH   8  11
ATOM     11  CA  LEU d   7    2521.104 773.574-2629.887  0.00  0.00     0.177 C 
BRANCH  11  12
ATOM     12  N   LEU d   7    2521.159 773.610-2628.429  0.00  0.00    -0.346 N 
ATOM     13  C   ILE d   6    2522.105 774.273-2627.855  0.00  0.00     0.241 C 
ATOM     14  O   ILE d   6    2522.939 774.860-2628.559  0.00  0.00    -0.271 OA
ATOM     15  H   LEU d   7    2520.467 773.123-2627.878  0.00  0.00     0.163 HD
BRANCH  13  16
ATOM     16  CA  ILE d   6    2522.162 774.311-2626.348  0.00  0.00     0.180 C 
BRANCH  16  17
ATOM     17  N   ILE d   6    2520.849 774.606-2625.782  0.00  0.00    -0.346 N 
ATOM     18  C   SER d   5    2520.244 775.690-2626.136  0.00  0.00     0.243 C 
ATOM     19  O   SER d   5    2520.792 776.443-2626.941  0.00  0.00    -0.271 OA
ATOM     20  H   ILE d   6    2520.420 773.972-2625.123  0.00  0.00     0.163 HD
BRANCH  18  21
ATOM     21  CA  SER d   5    2518.885 775.996-2625.551  0.00  0.00     0.200 C 
BRANCH  21  22
ATOM     22  N   SER d   5    2518.016 774.825-2625.610  0.00  0.00    -0.344 N 
ATOM     23  C   GLU d   4    2517.789 774.272-2626.753  0.00  0.00     0.241 C 
ATOM     24  O   GLU d   4    2518.315 774.751-2627.767  0.00  0.00    -0.271 OA
ATOM     25  H   SER d   5    2517.598 774.453-2624.768  0.00  0.00     0.163 HD
BRANCH  23  26
ATOM     26  CA  GLU d   4    2516.889 773.061-2626.814  0.00  0.00     0.177 C 
BRANCH  26  27
ATOM     27  N   GLU d   4    2517.249 772.090-2625.785  0.00  0.00    -0.346 N 
ATOM     28  C   PRO d   3    2518.453 771.630-2625.752  0.00  0.00     0.241 C 
ATOM     29  O   PRO d   3    2519.277 772.013-2626.583  0.00  0.00    -0.271 OA
ATOM     30  H   GLU d   4    2516.564 771.784-2625.108  0.00  0.00     0.163 HD
BRANCH  28  31
ATOM     31  CA  PRO d   3    2518.851 770.606-2624.675  0.00  0.00     0.179 C 
ATOM     32  N   PRO d   3    2518.399 771.016-2623.354  0.00  0.00    -0.337 N 
ATOM     33  C   ASN d   2    2518.920 772.010-2622.719  0.00  0.00     0.243 C 
ATOM     34  CD  PRO d   3    2517.321 770.223-2622.805  0.00  0.00     0.127 C 
ATOM     35  O   ASN d   2    2519.835 772.641-2623.247  0.00  0.00    -0.271 OA
ATOM     36  CG  PRO d   3    2516.863 769.404-2624.015  0.00  0.00     0.022 C 
ATOM     37  CB  PRO d   3    2518.147 769.252-2624.844  0.00  0.00     0.037 C 
BRANCH  33  38
ATOM     38  CA  ASN d   2    2518.389 772.366-2621.351  0.00  0.00     0.185 C 
BRANCH  38  39
ATOM     39  N   ASN d   2    2516.930 772.405-2621.351  0.00  0.00    -0.346 N 
ATOM     40  C   GLU d   1    2516.325 773.191-2622.176  0.00  0.00     0.242 C 
ATOM     41  O   GLU d   1    2517.001 773.890-2622.945  0.00  0.00    -0.271 OA
ATOM     42  H   ASN d   2    2516.401 771.826-2620.714  0.00  0.00     0.163 HD
BRANCH  40  43
ATOM     43  CA  GLU d   1    2514.816 773.231-2622.176  0.00  0.00     0.191 C 
BRANCH  43  44
ATOM     44  N   GLU d   1    2514.257 771.882-2622.176  0.00  0.00    -0.326 NA
ATOM     45  H   GLU d   1    2514.884 771.003-2622.176  0.00  0.00     0.180 HD
ENDBRANCH  43  44
BRANCH  43  46
ATOM     46  CB  GLU d   1    2514.293 774.016-2620.939  0.00  0.00     0.047 C 
BRANCH  46  47
ATOM     47  CG  GLU d   1    2514.768 775.501-2620.828  0.00  0.00     0.116 C 
BRANCH  47  48
ATOM     48  CD  GLU d   1    2514.344 776.305-2619.613  0.00  0.00     0.172 C 
ATOM     49  OE1 GLU d   1    2513.616 775.803-2618.735  0.00  0.00    -0.648 OA
ATOM     50  OE2 GLU d   1    2514.774 777.475-2619.541  0.00  0.00    -0.648 OA
ENDBRANCH  47  48
ENDBRANCH  46  47
ENDBRANCH  43  46
ENDBRANCH  40  43
ENDBRANCH  38  39
BRANCH  38  51
ATOM     51  CB  ASN d   2    2518.881 771.343-2620.286  0.00  0.00     0.137 C 
BRANCH  51  52
ATOM     52  CG  ASN d   2    2518.417 771.567-2618.843  0.00  0.00     0.217 C 
ATOM     53  ND2 ASN d   2    2519.011 772.482-2618.125  0.00  0.00    -0.370 N 
ATOM     54 21HD ASN d   2    2518.530 772.655-2617.238  0.00  0.00     0.159 HD
ATOM     55 22HD ASN d   2    2519.713 773.053-2618.594  0.00  0.00     0.159 HD
ATOM     56  OD1 ASN d   2    2517.496 770.934-2618.349  0.00  0.00    -0.274 OA
ENDBRANCH  51  52
ENDBRANCH  38  51
ENDBRANCH  33  38
ENDBRANCH  28  31
ENDBRANCH  26  27
BRANCH  26  57
ATOM     57  CB  GLU d   4    2515.401 773.480-2626.645  0.00  0.00     0.045 C 
BRANCH  57  58
ATOM     58  CG  GLU d   4    2514.854 774.484-2627.710  0.00  0.00     0.116 C 
BRANCH  58  59
ATOM     59  CD  GLU d   4    2513.427 774.981-2627.567  0.00  0.00     0.172 C 
ATOM     60  OE1 GLU d   4    2512.700 774.583-2626.637  0.00  0.00    -0.648 OA
ATOM     61  OE2 GLU d   4    2513.038 775.810-2628.416  0.00  0.00    -0.648 OA
ENDBRANCH  58  59
ENDBRANCH  57  58
ENDBRANCH  26  57
ENDBRANCH  23  26
ENDBRANCH  21  22
BRANCH  21  62
ATOM     62  CB  SER d   5    2518.997 776.528-2624.100  0.00  0.00     0.199 C 
BRANCH  62  63
ATOM     63  OG  SER d   5    2519.728 775.648-2623.239  0.00  0.00    -0.398 OA
ATOM     64  HG  SER d   5    2519.239 774.823-2623.188  0.00  0.00     0.209 HD
ENDBRANCH  62  63
ENDBRANCH  21  62
ENDBRANCH  18  21
ENDBRANCH  16  17
BRANCH  16  65
ATOM     65  CB  ILE d   6    2522.761 772.974-2625.747  0.00  0.00     0.013 C 
ATOM     66  CG2 ILE d   6    2524.202 772.672-2626.262  0.00  0.00     0.012 C 
BRANCH  65  67
ATOM     67  CG1 ILE d   6    2522.780 772.912-2624.187  0.00  0.00     0.002 C 
ATOM     68  CD1 ILE d   6    2523.049 771.523-2623.571  0.00  0.00     0.005 C 
ENDBRANCH  65  67
ENDBRANCH  16  65
ENDBRANCH  13  16
ENDBRANCH  11  12
BRANCH  11  69
ATOM     69  CB  LEU d   7    2519.900 772.714-2630.368  0.00  0.00     0.038 C 
BRANCH  69  70
ATOM     70  CG  LEU d   7    2519.827 771.235-2629.901  0.00  0.00    -0.020 C 
ATOM     71  CD1 LEU d   7    2518.637 770.529-2630.567  0.00  0.00     0.009 C 
ATOM     72  CD2 LEU d   7    2521.121 770.455-2630.193  0.00  0.00     0.009 C 
ENDBRANCH  69  70
ENDBRANCH  11  69
ENDBRANCH   8  11
ENDBRANCH   6   7
BRANCH   6  73
ATOM     73  CB  ASP d   8    2519.047 778.000-2629.768  0.00  0.00     0.147 C 
BRANCH  73  74
ATOM     74  CG  ASP d   8    2518.829 779.420-2630.309  0.00  0.00     0.175 C 
ATOM     75  OD1 ASP d   8    2518.894 779.618-2631.540  0.00  0.00    -0.648 OA
ATOM     76  OD2 ASP d   8    2518.638 780.347-2629.494  0.00  0.00    -0.648 OA
ENDBRANCH  73  74
ENDBRANCH   6  73
ENDBRANCH   3   6
ENDBRANCH   1   2
BRANCH   1  77
ATOM     77  C   GLU d   9    2524.373 777.918-2630.378  0.00  0.00     0.241 C 
ATOM     78  O   GLU d   9    2525.037 778.671-2631.104  0.00  0.00    -0.271 OA
ATOM     79  N   HIS d  10    2524.469 776.642-2630.547  0.00  0.00    -0.346 N 
ATOM     80  H   HIS d  10    2523.938 776.007-2629.968  0.00  0.00     0.163 HD
BRANCH  79  81
ATOM     81  CA  HIS d  10    2525.356 776.130-2631.587  0.00  0.00     0.182 C 
BRANCH  81  82
ATOM     82  C   HIS d  10    2524.989 776.694-2632.938  0.00  0.00     0.241 C 
ATOM     83  O   HIS d  10    2525.842 777.158-2633.711  0.00  0.00    -0.271 OA
ATOM     84  N   VAL d  11    2523.751 776.694-2633.301  0.00  0.00    -0.346 N 
ATOM     85  H   VAL d  11    2523.038 776.321-2632.690  0.00  0.00     0.163 HD
BRANCH  84  86
ATOM     86  CA  VAL d  11    2523.396 777.239-2634.608  0.00  0.00     0.180 C 
BRANCH  86  87
ATOM     87  C   VAL d  11    2523.861 778.669-2634.742  0.00  0.00     0.241 C 
ATOM     88  O   VAL d  11    2524.462 779.074-2635.745  0.00  0.00    -0.271 OA
ATOM     89  N   GLN d  12    2523.625 779.496-2633.780  0.00  0.00    -0.346 N 
ATOM     90  H   GLN d  12    2523.136 779.190-2632.950  0.00  0.00     0.163 HD
BRANCH  89  91
ATOM     91  CA  GLN d  12    2524.074 780.878-2633.907  0.00  0.00     0.177 C 
BRANCH  91  92
ATOM     92  C   GLN d  12    2525.564 780.945-2634.146  0.00  0.00     0.241 C 
ATOM     93  O   GLN d  12    2526.051 781.652-2635.025  0.00  0.00    -0.271 OA
ATOM     94  N   ARG d  13    2526.349 780.238-2633.405  0.00  0.00    -0.346 N 
ATOM     95  H   ARG d  13    2525.972 779.649-2632.676  0.00  0.00     0.163 HD
BRANCH  94  96
ATOM     96  CA  ARG d  13    2527.789 780.303-2633.636  0.00  0.00     0.176 C 
BRANCH  96  97
ATOM     97  C   ARG d  13    2528.125 779.931-2635.061  0.00  0.00     0.241 C 
ATOM     98  O   ARG d  13    2528.893 780.602-2635.745  0.00  0.00    -0.271 OA
ATOM     99  N   VAL d  14    2527.588 778.876-2635.574  0.00  0.00    -0.346 N 
ATOM    100  H   VAL d  14    2526.953 778.308-2635.032  0.00  0.00     0.163 HD
BRANCH  99 101
ATOM    101  CA  VAL d  14    2527.912 778.516-2636.952  0.00  0.00     0.180 C 
BRANCH 101 102
ATOM    102  C   VAL d  14    2527.583 779.646-2637.898  0.00  0.00     0.241 C 
ATOM    103  O   VAL d  14    2528.375 780.027-2638.767  0.00  0.00    -0.271 OA
ATOM    104  N   MET d  15    2526.438 780.232-2637.796  0.00  0.00    -0.346 N 
ATOM    105  H   MET d  15    2525.773 779.939-2637.094  0.00  0.00     0.163 HD
BRANCH 104 106
ATOM    106  CA  MET d  15    2526.117 781.324-2638.710  0.00  0.00     0.177 C 
BRANCH 106 107
ATOM    107  C   MET d  15    2527.148 782.424-2638.623  0.00  0.00     0.240 C 
ATOM    108  O   MET d  15    2527.650 782.934-2639.635  0.00  0.00    -0.271 OA
ATOM    109  N   GLY d  16    2527.517 782.845-2637.460  0.00  0.00    -0.352 N 
ATOM    110  H   GLY d  16    2527.122 782.446-2636.621  0.00  0.00     0.162 HD
BRANCH 109 111
ATOM    111  CA  GLY d  16    2528.513 783.909-2637.377  0.00  0.00     0.209 C 
BRANCH 111 112
ATOM    112  C   GLY d  16    2529.783 783.518-2638.092  0.00  0.00     0.214 C 
ATOM    113  O   GLY d  16    2529.906 782.427-2638.657  0.00  0.00    -0.287 OA
ENDBRANCH 111 112
ENDBRANCH 109 111
ENDBRANCH 106 107
BRANCH 106 114
ATOM    114  CB  MET d  15    2524.696 781.870-2638.401  0.00  0.00     0.045 C 
BRANCH 114 115
ATOM    115  CG  MET d  15    2523.534 780.872-2638.592  0.00  0.00     0.076 C 
BRANCH 115 116
ATOM    116  SD  MET d  15    2521.960 781.738-2638.478  0.00  0.00    -0.173 SA
ATOM    117  CE  MET d  15    2520.879 780.309-2638.340  0.00  0.00     0.089 C 
ENDBRANCH 115 116
ENDBRANCH 114 115
ENDBRANCH 106 114
ENDBRANCH 104 106
ENDBRANCH 101 102
BRANCH 101 118
ATOM    118  CB  VAL d  14    2527.139 777.199-2637.358  0.00  0.00     0.009 C 
ATOM    119  CG1 VAL d  14    2527.228 776.779-2638.851  0.00  0.00     0.012 C 
ATOM    120  CG2 VAL d  14    2527.571 775.947-2636.557  0.00  0.00     0.012 C 
ENDBRANCH 101 118
ENDBRANCH  99 101
ENDBRANCH  96  97
BRANCH  96 121
ATOM    121  CB  ARG d  13    2528.502 779.365-2632.621  0.00  0.00     0.036 C 
BRANCH 121 122
ATOM    122  CG  ARG d  13    2530.047 779.518-2632.541  0.00  0.00     0.023 C 
BRANCH 122 123
ATOM    123  CD  ARG d  13    2530.674 778.530-2631.543  0.00  0.00     0.138 C 
BRANCH 123 124
ATOM    124  NE  ARG d  13    2532.151 778.737-2631.493  0.00  0.00    -0.227 N 
ATOM    125  CZ  ARG d  13    2533.000 778.046-2630.737  0.00  0.00     0.665 C 
ATOM    126  NH1 ARG d  13    2532.635 777.082-2629.939  0.00  0.00    -0.235 N 
ATOM    127  NH2 ARG d  13    2534.259 778.344-2630.795  0.00  0.00    -0.235 N 
ATOM    128 11HH ARG d  13    2531.629 776.896-2629.942  0.00  0.00     0.174 HD
ATOM    129 12HH ARG d  13    2533.348 776.599-2629.390  0.00  0.00     0.174 HD
ATOM    130 21HH ARG d  13    2534.527 779.102-2631.427  0.00  0.00     0.174 HD
ATOM    131 22HH ARG d  13    2534.895 777.803-2630.206  0.00  0.00     0.174 HD
ATOM    132  HE  ARG d  13    2532.603 779.459-2632.064  0.00  0.00     0.177 HD
ENDBRANCH 123 124
ENDBRANCH 122 123
ENDBRANCH 121 122
ENDBRANCH  96 121
ENDBRANCH  94  96
ENDBRANCH  91  92
BRANCH  91 133
ATOM    133  CB  GLN d  12    2523.684 781.647-2632.625  0.00  0.00     0.044 C 
BRANCH 133 134
ATOM    134  CG  GLN d  12    2524.045 783.168-2632.595  0.00  0.00     0.105 C 
BRANCH 134 135
ATOM    135  CD  GLN d  12    2523.744 783.983-2631.331  0.00  0.00     0.215 C 
ATOM    136  NE2 GLN d  12    2523.177 783.407-2630.301  0.00  0.00    -0.370 N 
ATOM    137 21HE GLN d  12    2523.070 784.002-2629.478  0.00  0.00     0.159 HD
ATOM    138 22HE GLN d  12    2523.012 782.404-2630.404  0.00  0.00     0.159 HD
ATOM    139  OE1 GLN d  12    2524.046 785.163-2631.254  0.00  0.00    -0.274 OA
ENDBRANCH 134 135
ENDBRANCH 133 134
ENDBRANCH  91 133
ENDBRANCH  89  91
ENDBRANCH  86  87
BRANCH  86 140
ATOM    140  CB  VAL d  11    2521.835 777.133-2634.827  0.00  0.00     0.009 C 
ATOM    141  CG1 VAL d  11    2521.266 777.837-2636.090  0.00  0.00     0.012 C 
ATOM    142  CG2 VAL d  11    2521.310 775.679-2634.899  0.00  0.00     0.012 C 
ENDBRANCH  86 140
ENDBRANCH  84  86
ENDBRANCH  81  82
BRANCH  81 143
ATOM    143  CB  HIS d  10    2525.191 774.601-2631.582  0.00  0.00     0.095 C 
BRANCH 143 144
ATOM    144  CG  HIS d  10    2526.477 773.890-2631.273  0.00  0.00     0.053 A 
ATOM    145  CD2 HIS d  10    2526.858 773.556-2629.981  0.00  0.00     0.116 A 
ATOM    146  NE2 HIS d  10    2528.073 772.923-2630.048  0.00  0.00    -0.359 N 
ATOM    147  CE1 HIS d  10    2528.335 772.926-2631.383  0.00  0.00     0.207 A 
ATOM    148  2HE HIS d  10    2528.639 772.546-2629.274  0.00  0.00     0.166 HD
ATOM    149  ND1 HIS d  10    2527.428 773.484-2632.206  0.00  0.00    -0.247 NA
ENDBRANCH 143 144
ENDBRANCH  81 143
ENDBRANCH  79  81
ENDBRANCH   1  77
BRANCH   1 150
ATOM    150  CB  GLU d   9    2524.089 778.239-2627.897  0.00  0.00     0.045 C 
BRANCH 150 151
ATOM    151  CG  GLU d   9    2525.472 778.931-2627.668  0.00  0.00     0.116 C 
BRANCH 151 152
ATOM    152  CD  GLU d   9    2526.174 778.718-2626.340  0.00  0.00     0.172 C 
ATOM    153  OE1 GLU d   9    2525.652 778.027-2625.443  0.00  0.00    -0.648 OA
ATOM    154  OE2 GLU d   9    2527.293 779.255-2626.208  0.00  0.00    -0.648 OA
ENDBRANCH 151 152
ENDBRANCH 150 151
ENDBRANCH   1 150
TORSDOF 64
