@<TRIPOS>MOLECULE
7-3
253 254 16              
SMALL
USER_CHARGES
@<TRIPOS>ATOM
1	   N	1041.187	291.116	-1022.529	N.3	1	GLU1	-0.516	
2	  CA	1041.746	292.465	-1022.529	C.3	1	GLU1	0.040	
3	   C	1043.255	292.425	-1022.529	C.2	1	GLU1	0.537	
4	   O	1043.931	293.124	-1023.297	O.2	1	GLU1	-0.582	
5	  CB	1041.223	293.250	-1021.292	C.3	1	GLU1	0.056	
6	  CG	1041.698	294.735	-1021.181	C.3	1	GLU1	0.014	
7	  CD	1041.274	295.539	-1019.966	C.2	1	GLU1	0.805	
8	 OE1	1040.546	295.037	-1019.088	O.co2	1	GLU1	-0.819	
9	 OE2	1041.704	296.709	-1019.894	O.co2	1	GLU1	-0.819	
10	   H	1041.814	290.237	-1022.529	 H	1	GLU1	0.294	
11	  HA	1041.420	292.983	-1023.449	 H	1	GLU1	0.111	
12	 2HB	1041.512	292.719	-1020.362	 H	1	GLU1	-0.017	
13	 3HB	1040.116	293.240	-1021.279	 H	1	GLU1	-0.017	
14	 2HG	1041.388	295.320	-1022.062	 H	1	GLU1	-0.043	
15	 3HG	1042.798	294.802	-1021.152	 H	1	GLU1	-0.043	
16	   N	1043.860	291.639	-1021.703	N.am	2	ASN2	-0.416	
17	  CA	1045.319	291.601	-1021.704	C.3	2	ASN2	0.014	
18	   C	1045.850	291.245	-1023.072	C.2	2	ASN2	0.597	
19	   O	1046.765	291.876	-1023.601	O.2	2	ASN2	-0.568	
20	  CB	1045.811	290.578	-1020.639	C.3	2	ASN2	-0.204	
21	  CG	1045.348	290.801	-1019.196	C.2	2	ASN2	0.713	
22	 ND2	1045.942	291.716	-1018.478	N.pl3	2	ASN2	-0.919	
23	 OD1	1044.427	290.168	-1018.702	O.2	2	ASN2	-0.593	
24	   H	1043.331	291.060	-1021.067	 H	2	ASN2	0.272	
25	  HA	1045.696	292.611	-1021.458	 H	2	ASN2	0.105	
26	 2HB	1046.915	290.519	-1020.643	 H	2	ASN2	0.080	
27	 3HB	1045.482	289.559	-1020.925	 H	2	ASN2	0.080	
28	1HD2	1045.462	291.889	-1017.591	 H	2	ASN2	0.420	
29	2HD2	1046.644	292.288	-1018.947	 H	2	ASN2	0.420	
30	   N	1045.329	290.250	-1023.706	N.am	3	PRO3	-0.255	
31	  CA	1045.780	289.841	-1025.028	C.3	3	PRO3	-0.027	
32	   C	1045.382	290.864	-1026.105	C.2	3	PRO3	0.590	
33	   O	1046.205	291.247	-1026.936	O.2	3	PRO3	-0.575	
34	  CB	1045.076	288.486	-1025.197	C.3	3	PRO3	-0.007	
35	  CG	1043.793	288.638	-1024.367	C.3	3	PRO3	0.019	
36	  CD	1044.251	289.457	-1023.157	C.3	3	PRO3	0.019	
37	  HA	1046.866	289.721	-1025.042	 H	3	PRO3	0.064	
38	 2HB	1045.699	287.705	-1024.756	 H	3	PRO3	0.025	
39	 3HB	1044.878	288.237	-1026.242	 H	3	PRO3	0.025	
40	 2HG	1043.365	287.676	-1024.076	 H	3	PRO3	0.021	
41	 3HG	1043.055	289.209	-1024.934	 H	3	PRO3	0.021	
42	 2HD	1044.640	288.807	-1022.370	 H	3	PRO3	0.039	
43	 3HD	1043.454	290.093	-1022.764	 H	3	PRO3	0.039	
44	   N	1044.177	291.324	-1026.137	N.am	4	GLU4	-0.516	
45	  CA	1043.818	292.295	-1027.167	C.3	4	GLU4	0.040	
46	   C	1044.717	293.506	-1027.106	C.2	4	GLU4	0.537	
47	   O	1045.243	293.985	-1028.120	O.2	4	GLU4	-0.582	
48	  CB	1042.329	292.714	-1026.996	C.3	4	GLU4	0.056	
49	  CG	1041.781	293.717	-1028.062	C.3	4	GLU4	0.014	
50	  CD	1040.354	294.214	-1027.918	C.2	4	GLU4	0.805	
51	 OE1	1039.628	293.816	-1026.987	O.co2	4	GLU4	-0.819	
52	 OE2	1039.965	295.043	-1028.767	O.co2	4	GLU4	-0.819	
53	   H	1043.493	291.017	-1025.460	 H	4	GLU4	0.294	
54	  HA	1043.949	291.824	-1028.158	 H	4	GLU4	0.111	
55	 2HB	1042.177	293.154	-1025.990	 H	4	GLU4	-0.017	
56	 3HB	1041.681	291.816	-1027.003	 H	4	GLU4	-0.017	
57	 2HG	1041.862	293.302	-1029.080	 H	4	GLU4	-0.043	
58	 3HG	1042.369	294.650	-1028.073	 H	4	GLU4	-0.043	
59	   N	1044.944	294.059	-1025.963	N.am	5	SER5	-0.416	
60	  CA	1045.814	295.230	-1025.904	C.3	5	SER5	-0.025	
61	   C	1047.172	294.925	-1026.490	C.2	5	SER5	0.597	
62	   O	1047.720	295.678	-1027.295	O.2	5	SER5	-0.568	
63	  CB	1045.925	295.763	-1024.454	C.3	5	SER5	0.212	
64	  OG	1046.657	294.884	-1023.593	O.3	5	SER5	-0.655	
65	   H	1044.527	293.687	-1025.121	 H	5	SER5	0.272	
66	  HA	1045.364	296.020	-1026.534	 H	5	SER5	0.084	
67	 2HB	1044.925	295.957	-1024.021	 H	5	SER5	0.035	
68	 3HB	1046.430	296.749	-1024.457	 H	5	SER5	0.035	
69	  HG	1046.168	294.059	-1023.542	 H	5	SER5	0.428	
70	   N	1047.777	293.842	-1026.136	N.am	6	ILE6	-0.416	
71	  CA	1049.090	293.547	-1026.702	C.3	6	ILE6	-0.060	
72	   C	1049.033	293.509	-1028.209	C.2	6	ILE6	0.597	
73	   O	1049.868	294.097	-1028.913	O.2	6	ILE6	-0.568	
74	  CB	1049.690	292.211	-1026.102	C.3	6	ILE6	0.130	
75	 CG1	1049.710	292.149	-1024.541	C.3	6	ILE6	-0.043	
76	 CG2	1051.132	291.909	-1026.617	C.3	6	ILE6	-0.320	
77	 CD1	1049.980	290.760	-1023.926	C.3	6	ILE6	-0.066	
78	   H	1047.349	293.207	-1025.477	 H	6	ILE6	0.272	
79	  HA	1049.764	294.381	-1026.434	 H	6	ILE6	0.087	
80	  HB	1049.033	291.385	-1026.446	 H	6	ILE6	0.019	
81	2HG1	1048.727	292.468	-1024.145	 H	6	ILE6	0.024	
82	3HG1	1050.425	292.891	-1024.136	 H	6	ILE6	0.024	
83	1HG2	1051.191	291.816	-1027.715	 H	6	ILE6	0.088	
84	2HG2	1051.854	292.692	-1026.314	 H	6	ILE6	0.088	
85	3HG2	1051.522	290.947	-1026.238	 H	6	ILE6	0.088	
86	1HD1	1049.252	290.005	-1024.280	 H	6	ILE6	0.019	
87	2HD1	1050.990	290.381	-1024.161	 H	6	ILE6	0.019	
88	3HD1	1049.903	290.790	-1022.823	 H	6	ILE6	0.019	
89	   N	1048.088	292.846	-1028.783	N.am	7	GLY7	-0.416	
90	  CA	1048.033	292.810	-1030.242	C.3	7	GLY7	-0.025	
91	   C	1047.960	294.204	-1030.815	C.2	7	GLY7	0.597	
92	   O	1048.677	294.564	-1031.752	O.2	7	GLY7	-0.568	
93	   H	1047.396	292.358	-1028.232	 H	7	GLY7	0.272	
94	 3HA	1047.177	292.272	-1030.527	 H	7	GLY7	0.070	
95	  HA	1048.955	292.333	-1030.624	 H	7	GLY7	0.070	
96	   N	1047.122	295.045	-1030.309	N.am	8	ASP8	-0.516	
97	  CA	1047.052	296.394	-1030.864	C.3	8	ASP8	0.038	
98	   C	1048.398	297.074	-1030.806	C.2	8	ASP8	0.537	
99	   O	1048.871	297.679	-1031.781	O.2	8	ASP8	-0.582	
100	  CB	1045.973	297.233	-1030.122	C.3	8	ASP8	-0.030	
101	  CG	1045.754	298.654	-1030.664	C.2	8	ASP8	0.799	
102	 OD1	1045.819	298.852	-1031.895	O.co2	8	ASP8	-0.801	
103	 OD2	1045.562	299.580	-1029.849	O.co2	8	ASP8	-0.801	
104	   H	1046.524	294.774	-1029.542	 H	8	ASP8	0.294	
105	  HA	1046.769	296.316	-1031.931	 H	8	ASP8	0.088	
106	 2HB	1046.230	297.317	-1029.051	 H	8	ASP8	-0.012	
107	 3HB	1044.995	296.728	-1030.155	 H	8	ASP8	-0.012	
108	   N	1049.078	297.025	-1029.711	N.am	9	GLU9	-0.516	
109	  CA	1050.380	297.683	-1029.656	C.3	9	GLU9	0.040	
110	   C	1051.299	297.155	-1030.731	C.2	9	GLU9	0.537	
111	   O	1051.963	297.910	-1031.456	O.2	9	GLU9	-0.582	
112	  CB	1051.013	297.476	-1028.250	C.3	9	GLU9	0.056	
113	  CG	1052.396	298.169	-1028.020	C.3	9	GLU9	0.014	
114	  CD	1053.097	297.957	-1026.692	C.2	9	GLU9	0.805	
115	 OE1	1052.575	297.266	-1025.795	O.co2	9	GLU9	-0.819	
116	 OE2	1054.216	298.495	-1026.560	O.co2	9	GLU9	-0.819	
117	   H	1048.714	296.539	-1028.904	 H	9	GLU9	0.294	
118	  HA	1050.238	298.765	-1029.831	 H	9	GLU9	0.111	
119	 2HB	1051.127	296.392	-1028.046	 H	9	GLU9	-0.017	
120	 3HB	1050.316	297.830	-1027.466	 H	9	GLU9	-0.017	
121	 2HG	1052.323	299.260	-1028.161	 H	9	GLU9	-0.043	
122	 3HG	1053.143	297.824	-1028.754	 H	9	GLU9	-0.043	
123	   N	1051.396	295.880	-1030.900	N.am	10	HIS10	-0.416	
124	  CA	1052.285	295.369	-1031.940	C.3	10	HIS10	-0.058	
125	   C	1051.918	295.933	-1033.291	C.2	10	HIS10	0.597	
126	   O	1052.771	296.397	-1034.063	O.2	10	HIS10	-0.568	
127	  CB	1052.121	293.840	-1031.934	C.3	10	HIS10	-0.007	
128	  CG	1053.407	293.130	-1031.625	C.2	10	HIS10	0.187	
129	 CD2	1053.787	292.796	-1030.332	C.2	10	HIS10	-0.221	
130	 ND1	1054.359	292.724	-1032.557	N.2	10	HIS10	-0.543	
131	 CE1	1055.266	292.167	-1031.733	C.2	10	HIS10	0.163	
132	 NE2	1055.003	292.165	-1030.398	N.pl3	10	HIS10	-0.280	
133	   H	1050.865	295.245	-1030.321	 H	10	HIS10	0.272	
134	  HA	1053.303	295.727	-1031.714	 H	10	HIS10	0.136	
135	 2HB	1051.757	293.472	-1032.914	 H	10	HIS10	0.037	
136	 3HB	1051.365	293.503	-1031.194	 H	10	HIS10	0.037	
137	 2HD	1053.201	293.011	-1029.443	 H	10	HIS10	0.186	
138	 1HE	1056.157	291.746	-1032.179	 H	10	HIS10	0.144	
139	 2HE	1055.569	291.788	-1029.624	 H	10	HIS10	0.334	
140	   N	1050.680	295.931	-1033.654	N.am	11	VAL11	-0.416	
141	  CA	1050.325	296.476	-1034.962	C.3	11	VAL11	-0.087	
142	   C	1050.789	297.907	-1035.095	C.2	11	VAL11	0.597	
143	   O	1051.391	298.312	-1036.098	O.2	11	VAL11	-0.568	
144	  CB	1048.764	296.369	-1035.182	C.3	11	VAL11	0.299	
145	 CG1	1048.196	297.072	-1036.445	C.3	11	VAL11	-0.319	
146	 CG2	1048.240	294.914	-1035.254	C.3	11	VAL11	-0.319	
147	   H	1049.967	295.558	-1033.044	 H	11	VAL11	0.272	
148	  HA	1050.845	295.894	-1035.744	 H	11	VAL11	0.097	
149	  HB	1048.276	296.849	-1034.307	 H	11	VAL11	-0.030	
150	1HG1	1048.635	296.680	-1037.382	 H	11	VAL11	0.079	
151	2HG1	1047.097	296.964	-1036.527	 H	11	VAL11	0.079	
152	3HG1	1048.373	298.164	-1036.436	 H	11	VAL11	0.079	
153	1HG2	1048.530	294.328	-1034.363	 H	11	VAL11	0.079	
154	2HG2	1047.135	294.877	-1035.297	 H	11	VAL11	0.079	
155	3HG2	1048.623	294.373	-1036.140	 H	11	VAL11	0.079	
156	   N	1050.551	298.733	-1034.133	N.am	12	GLN12	-0.416	
157	  CA	1050.999	300.116	-1034.260	C.3	12	GLN12	-0.003	
158	   C	1052.489	300.184	-1034.497	C.2	12	GLN12	0.597	
159	   O	1052.977	300.892	-1035.376	O.2	12	GLN12	-0.568	
160	  CB	1050.608	300.884	-1032.978	C.3	12	GLN12	-0.004	
161	  CG	1050.967	302.406	-1032.947	C.3	12	GLN12	-0.064	
162	  CD	1050.664	303.219	-1031.683	C.2	12	GLN12	0.695	
163	 NE2	1050.097	302.643	-1030.654	N.pl3	12	GLN12	-0.941	
164	 OE1	1050.965	304.401	-1031.606	O.2	12	GLN12	-0.609	
165	   H	1050.062	298.427	-1033.304	 H	12	GLN12	0.272	
166	  HA	1050.500	300.572	-1035.135	 H	12	GLN12	0.085	
167	 2HB	1051.083	300.384	-1032.108	 H	12	GLN12	0.017	
168	 3HB	1049.517	300.776	-1032.815	 H	12	GLN12	0.017	
169	 2HG	1050.490	302.926	-1033.798	 H	12	GLN12	0.035	
170	 3HG	1052.051	302.548	-1033.112	 H	12	GLN12	0.035	
171	1HE2	1049.989	303.238	-1029.831	 H	12	GLN12	0.425	
172	2HE2	1049.934	301.640	-1030.757	 H	12	GLN12	0.425	
173	   N	1053.274	299.478	-1033.756	N.am	13	ARG13	-0.348	
174	  CA	1054.714	299.544	-1033.986	C.3	13	ARG13	-0.264	
175	   C	1055.051	299.172	-1035.411	C.2	13	ARG13	0.734	
176	   O	1055.819	299.844	-1036.095	O.2	13	ARG13	-0.589	
177	  CB	1055.428	298.605	-1032.972	C.3	13	ARG13	-0.001	
178	  CG	1056.973	298.759	-1032.890	C.3	13	ARG13	0.039	
179	  CD	1057.599	297.772	-1031.892	C.3	13	ARG13	0.049	
180	  NE	1059.077	297.980	-1031.841	N.pl3	13	ARG13	-0.530	
181	  CZ	1059.925	297.289	-1031.085	C.cat	13	ARG13	0.808	
182	 NH1	1059.560	296.324	-1030.288	N.pl3	13	ARG13	-0.863	
183	 NH2	1061.184	297.588	-1031.142	N.pl3	13	ARG13	-0.863	
184	   H	1052.898	298.888	-1033.027	 H	13	ARG13	0.275	
185	  HA	1055.038	300.590	-1033.828	 H	13	ARG13	0.156	
186	 2HB	1055.162	297.555	-1033.211	 H	13	ARG13	0.033	
187	 3HB	1055.002	298.772	-1031.961	 H	13	ARG13	0.033	
188	 2HG	1057.220	299.804	-1032.611	 H	13	ARG13	0.029	
189	 3HG	1057.423	298.603	-1033.892	 H	13	ARG13	0.029	
190	 2HD	1057.356	296.732	-1032.201	 H	13	ARG13	0.069	
191	 3HD	1057.142	297.918	-1030.890	 H	13	ARG13	0.069	
192	  HE	1059.528	298.702	-1032.412	 H	13	ARG13	0.346	
193	1HH1	1058.554	296.138	-1030.291	 H	13	ARG13	0.448	
194	2HH1	1060.273	295.842	-1029.739	 H	13	ARG13	0.448	
195	1HH2	1061.451	298.346	-1031.773	 H	13	ARG13	0.448	
196	2HH2	1061.819	297.047	-1030.553	 H	13	ARG13	0.448	
197	   N	1054.515	298.117	-1035.925	N.am	14	VAL14	-0.416	
198	  CA	1054.841	297.758	-1037.302	C.3	14	VAL14	-0.087	
199	   C	1054.510	298.887	-1038.248	C.2	14	VAL14	0.597	
200	   O	1055.304	299.269	-1039.118	O.2	14	VAL14	-0.568	
201	  CB	1054.069	296.440	-1037.709	C.3	14	VAL14	0.299	
202	 CG1	1054.158	296.021	-1039.202	C.3	14	VAL14	-0.319	
203	 CG2	1054.501	295.188	-1036.908	C.3	14	VAL14	-0.319	
204	   H	1053.880	297.549	-1035.383	 H	14	VAL14	0.272	
205	  HA	1055.929	297.581	-1037.377	 H	14	VAL14	0.097	
206	  HB	1052.992	296.611	-1037.493	 H	14	VAL14	-0.030	
207	1HG1	1055.200	295.845	-1039.531	 H	14	VAL14	0.079	
208	2HG1	1053.586	295.098	-1039.415	 H	14	VAL14	0.079	
209	3HG1	1053.729	296.783	-1039.881	 H	14	VAL14	0.079	
210	1HG2	1054.414	295.347	-1035.818	 H	14	VAL14	0.079	
211	2HG2	1053.865	294.312	-1037.140	 H	14	VAL14	0.079	
212	3HG2	1055.549	294.899	-1037.114	 H	14	VAL14	0.079	
213	   N	1053.365	299.473	-1038.147	N.am	15	MET15	-0.416	
214	  CA	1053.045	300.565	-1039.061	C.3	15	MET15	-0.024	
215	   C	1054.075	301.665	-1038.973	C.2	15	MET15	0.597	
216	   O	1054.577	302.176	-1039.986	O.2	15	MET15	-0.568	
217	  CB	1051.623	301.110	-1038.752	C.3	15	MET15	0.034	
218	  CG	1050.461	300.112	-1038.944	C.3	15	MET15	0.002	
219	  SD	1048.887	300.977	-1038.831	S.3	15	MET15	-0.274	
220	  CE	1047.807	299.547	-1038.694	C.3	15	MET15	-0.054	
221	   H	1052.700	299.180	-1037.445	 H	15	MET15	0.272	
222	  HA	1053.071	300.178	-1040.096	 H	15	MET15	0.088	
223	 2HB	1051.421	301.989	-1039.395	 H	15	MET15	0.024	
224	 3HB	1051.587	301.503	-1037.716	 H	15	MET15	0.024	
225	 2HG	1050.505	299.326	-1038.166	 H	15	MET15	0.044	
226	 3HG	1050.525	299.596	-1039.920	 H	15	MET15	0.044	
227	 1HE	1047.951	298.859	-1039.546	 H	15	MET15	0.068	
228	 2HE	1048.016	298.995	-1037.761	 H	15	MET15	0.068	
229	 3HE	1046.749	299.862	-1038.678	 H	15	MET15	0.068	
230	   N	1054.443	302.087	-1037.811	N.am	16	ARG16	-0.348	
231	  CA	1055.439	303.151	-1037.727	C.3	16	ARG16	-0.264	
232	   C	1056.710	302.759	-1038.443	C.2	16	ARG16	0.734	
233	   O	1056.824	301.682	-1039.024	O.2	16	ARG16	-0.589	
234	  CB	1055.708	303.470	-1036.229	C.3	16	ARG16	-0.001	
235	  CG	1056.532	304.759	-1035.956	C.3	16	ARG16	0.039	
236	  CD	1056.782	304.979	-1034.455	C.3	16	ARG16	0.049	
237	  NE	1057.557	306.238	-1034.254	N.pl3	16	ARG16	-0.530	
238	  CZ	1057.948	306.721	-1033.079	C.cat	16	ARG16	0.808	
239	 NH1	1057.701	306.136	-1031.940	N.pl3	16	ARG16	-0.863	
240	 NH2	1058.612	307.833	-1033.060	N.pl3	16	ARG16	-0.863	
241	   H	1054.048	301.687	-1036.972	 H	16	ARG16	0.275	
242	  HA	1055.030	304.044	-1038.237	 H	16	ARG16	0.156	
243	 2HB	1056.205	302.594	-1035.762	 H	16	ARG16	0.033	
244	 3HB	1054.739	303.550	-1035.695	 H	16	ARG16	0.033	
245	 2HG	1056.002	305.629	-1036.394	 H	16	ARG16	0.029	
246	 3HG	1057.506	304.706	-1036.485	 H	16	ARG16	0.029	
247	 2HD	1057.331	304.104	-1034.042	 H	16	ARG16	0.069	
248	 3HD	1055.809	305.021	-1033.920	 H	16	ARG16	0.069	
249	  HE	1057.836	306.819	-1035.052	 H	16	ARG16	0.346	
250	1HH1	1057.176	305.263	-1032.025	 H	16	ARG16	0.448	
251	2HH1	1058.035	306.572	-1031.079	 H	16	ARG16	0.448	
252	1HH2	1058.797	308.276	-1033.962	 H	16	ARG16	0.448	
253	2HH2	1058.902	308.189	-1032.148	 H	16	ARG16	0.448	
@<TRIPOS>BOND
1 1 2 1
2 1 10 1
3 2 3 1
4 2 5 1
5 2 11 1
6 3 4 2
7 3 16 1
8 5 6 1
9 6 7 1
10 7 8 2
11 7 9 1
12 5 12 1
13 5 13 1
14 6 14 1
15 6 15 1
16 16 17 1
17 16 24 1
18 17 18 1
19 17 20 1
20 17 25 1
21 18 19 2
22 18 30 1
23 20 21 1
24 21 22 1
25 21 23 2
26 20 26 1
27 20 27 1
28 22 28 1
29 22 29 1
30 30 31 1
31 30 36 1
32 31 32 1
33 31 34 1
34 31 37 1
35 32 33 2
36 32 44 1
37 34 35 1
38 35 36 1
39 34 38 1
40 34 39 1
41 35 40 1
42 35 41 1
43 36 42 1
44 36 43 1
45 44 45 1
46 44 53 1
47 45 46 1
48 45 48 1
49 45 54 1
50 46 47 2
51 46 59 1
52 48 49 1
53 49 50 1
54 50 51 2
55 50 52 1
56 48 55 1
57 48 56 1
58 49 57 1
59 49 58 1
60 59 60 1
61 59 65 1
62 60 61 1
63 60 63 1
64 60 66 1
65 61 62 2
66 61 70 1
67 63 64 1
68 63 67 1
69 63 68 1
70 64 69 1
71 70 71 1
72 70 78 1
73 71 72 1
74 71 74 1
75 71 79 1
76 72 73 2
77 72 89 1
78 74 75 1
79 74 76 1
80 75 77 1
81 74 80 1
82 75 81 1
83 75 82 1
84 76 83 1
85 76 84 1
86 76 85 1
87 77 86 1
88 77 87 1
89 77 88 1
90 89 90 1
91 89 93 1
92 90 91 1
93 90 94 1
94 90 95 1
95 91 92 2
96 91 96 1
97 96 97 1
98 96 104 1
99 97 98 1
100 97 100 1
101 97 105 1
102 98 99 2
103 98 108 1
104 100 101 1
105 101 102 2
106 101 103 1
107 100 106 1
108 100 107 1
109 108 109 1
110 108 117 1
111 109 110 1
112 109 112 1
113 109 118 1
114 110 111 2
115 110 123 1
116 112 113 1
117 113 114 1
118 114 115 2
119 114 116 1
120 112 119 1
121 112 120 1
122 113 121 1
123 113 122 1
124 123 124 1
125 123 133 1
126 124 125 1
127 124 127 1
128 124 134 1
129 125 126 2
130 125 140 1
131 127 128 1
132 128 129 2
133 129 132 1
134 128 130 1
135 130 131 2
136 131 132 1
137 127 135 1
138 127 136 1
139 129 137 1
140 131 138 1
141 132 139 1
142 140 141 1
143 140 147 1
144 141 142 1
145 141 144 1
146 141 148 1
147 142 143 2
148 142 156 1
149 144 145 1
150 144 146 1
151 144 149 1
152 145 150 1
153 145 151 1
154 145 152 1
155 146 153 1
156 146 154 1
157 146 155 1
158 156 157 1
159 156 165 1
160 157 158 1
161 157 160 1
162 157 166 1
163 158 159 2
164 158 173 1
165 160 161 1
166 161 162 1
167 162 163 1
168 162 164 2
169 160 167 1
170 160 168 1
171 161 169 1
172 161 170 1
173 163 171 1
174 163 172 1
175 173 174 1
176 173 184 1
177 174 175 1
178 174 177 1
179 174 185 1
180 175 176 2
181 175 197 1
182 177 178 1
183 178 179 1
184 179 180 1
185 180 181 1
186 181 182 2
187 181 183 1
188 177 186 1
189 177 187 1
190 178 188 1
191 178 189 1
192 179 190 1
193 179 191 1
194 180 192 1
195 182 193 1
196 182 194 1
197 183 195 1
198 183 196 1
199 197 198 1
200 197 204 1
201 198 199 1
202 198 201 1
203 198 205 1
204 199 200 2
205 199 213 1
206 201 202 1
207 201 203 1
208 201 206 1
209 202 207 1
210 202 208 1
211 202 209 1
212 203 210 1
213 203 211 1
214 203 212 1
215 213 214 1
216 213 221 1
217 214 215 1
218 214 217 1
219 214 222 1
220 215 216 2
221 215 230 1
222 217 218 1
223 218 219 1
224 219 220 1
225 217 223 1
226 217 224 1
227 218 225 1
228 218 226 1
229 220 227 1
230 220 228 1
231 220 229 1
232 230 231 1
233 230 241 1
234 231 232 1
235 231 234 1
236 231 242 1
237 232 233 2
238 234 235 1
239 235 236 1
240 236 237 1
241 237 238 1
242 238 239 2
243 238 240 1
244 234 243 1
245 234 244 1
246 235 245 1
247 235 246 1
248 236 247 1
249 236 248 1
250 237 249 1
251 239 250 1
252 239 251 1
253 240 252 1
254 240 253 1
@<TRIPOS>SUBSTRUCTURE
1	GLU1	1	RESIDUE	1 ****	GLU
2	ASN2	16	RESIDUE	1 ****	ASN
3	PRO3	30	RESIDUE	1 ****	PRO
4	GLU4	44	RESIDUE	1 ****	GLU
5	SER5	59	RESIDUE	1 ****	SER
6	ILE6	70	RESIDUE	1 ****	ILE
7	GLY7	89	RESIDUE	1 ****	GLY
8	ASP8	96	RESIDUE	1 ****	ASP
9	GLU9	108	RESIDUE	1 ****	GLU
10	HIS10	123	RESIDUE	1 ****	HIS
11	VAL11	140	RESIDUE	1 ****	VAL
12	GLN12	156	RESIDUE	1 ****	GLN
13	ARG13	173	RESIDUE	1 ****	ARG
14	VAL14	197	RESIDUE	1 ****	VAL
15	MET15	213	RESIDUE	1 ****	MET
16	ARG16	230	RESIDUE	1 ****	ARG
