@<TRIPOS>MOLECULE
3-12
262 262 16              
SMALL
USER_CHARGES
@<TRIPOS>ATOM
1	   N	444.946	102.027	-404.563	N.3	1	GLU1	-0.516	
2	  CA	445.505	103.376	-404.563	C.3	1	GLU1	0.040	
3	   C	447.014	103.336	-404.563	C.2	1	GLU1	0.537	
4	   O	447.690	104.036	-405.332	O.2	1	GLU1	-0.582	
5	  CB	444.982	104.161	-403.326	C.3	1	GLU1	0.056	
6	  CG	445.457	105.646	-403.215	C.3	1	GLU1	0.014	
7	  CD	445.033	106.450	-402.000	C.2	1	GLU1	0.805	
8	 OE1	444.305	105.948	-401.122	O.co2	1	GLU1	-0.819	
9	 OE2	445.463	107.620	-401.928	O.co2	1	GLU1	-0.819	
10	   H	445.573	101.148	-404.563	 H	1	GLU1	0.294	
11	  HA	445.179	103.894	-405.483	 H	1	GLU1	0.111	
12	 2HB	445.271	103.630	-402.396	 H	1	GLU1	-0.017	
13	 3HB	443.875	104.151	-403.313	 H	1	GLU1	-0.017	
14	 2HG	445.147	106.231	-404.096	 H	1	GLU1	-0.043	
15	 3HG	446.557	105.713	-403.186	 H	1	GLU1	-0.043	
16	   N	447.619	102.551	-403.738	N.am	2	ASN2	-0.416	
17	  CA	449.078	102.512	-403.738	C.3	2	ASN2	0.014	
18	   C	449.609	102.157	-405.107	C.2	2	ASN2	0.597	
19	   O	450.524	102.787	-405.636	O.2	2	ASN2	-0.568	
20	  CB	449.571	101.489	-402.674	C.3	2	ASN2	-0.204	
21	  CG	449.108	101.713	-401.231	C.2	2	ASN2	0.713	
22	 ND2	449.702	102.628	-400.513	N.pl3	2	ASN2	-0.919	
23	 OD1	448.187	101.079	-400.737	O.2	2	ASN2	-0.593	
24	   H	447.091	101.971	-403.102	 H	2	ASN2	0.272	
25	  HA	449.456	103.522	-403.493	 H	2	ASN2	0.105	
26	 2HB	450.675	101.430	-402.678	 H	2	ASN2	0.080	
27	 3HB	449.242	100.471	-402.960	 H	2	ASN2	0.080	
28	1HD2	449.221	102.801	-399.626	 H	2	ASN2	0.420	
29	2HD2	450.403	103.200	-400.982	 H	2	ASN2	0.420	
30	   N	449.088	101.161	-405.741	N.am	3	CYS3	-0.416	
31	  CA	449.601	100.817	-407.064	C.3	3	CYS3	0.021	
32	   C	449.507	101.996	-408.004	C.2	3	CYS3	0.597	
33	   O	450.455	102.339	-408.724	O.2	3	CYS3	-0.568	
34	  CB	448.831	99.587	-407.583	C.3	3	CYS3	-0.123	
35	  SG	449.539	98.999	-409.138	S.3	3	CYS3	-0.312	
36	   H	448.336	100.628	-405.328	 H	3	CYS3	0.272	
37	  HA	450.672	100.561	-406.965	 H	3	CYS3	0.112	
38	 2HB	447.756	99.814	-407.732	 H	3	CYS3	0.111	
39	 3HB	448.870	98.756	-406.857	 H	3	CYS3	0.111	
40	  HG	448.577	99.457	-409.935	 H	3	CYS3	0.193	
41	   N	448.405	102.665	-408.060	N.am	4	GLU4	-0.516	
42	  CA	448.314	103.804	-408.969	C.3	4	GLU4	0.040	
43	   C	449.395	104.817	-408.676	C.2	4	GLU4	0.537	
44	   O	450.089	105.316	-409.574	O.2	4	GLU4	-0.582	
45	  CB	446.908	104.460	-408.850	C.3	4	GLU4	0.056	
46	  CG	446.641	105.669	-409.804	C.3	4	GLU4	0.014	
47	  CD	445.312	106.392	-409.696	C.2	4	GLU4	0.805	
48	 OE1	444.443	106.019	-408.884	O.co2	4	GLU4	-0.819	
49	 OE2	445.150	107.376	-410.447	O.co2	4	GLU4	-0.819	
50	   H	447.618	102.405	-407.483	 H	4	GLU4	0.294	
51	  HA	448.458	103.444	-410.003	 H	4	GLU4	0.111	
52	 2HB	446.737	104.792	-407.806	 H	4	GLU4	-0.017	
53	 3HB	446.122	103.700	-409.027	 H	4	GLU4	-0.017	
54	 2HG	446.748	105.375	-410.860	 H	4	GLU4	-0.043	
55	 3HG	447.376	106.475	-409.643	 H	4	GLU4	-0.043	
56	   N	449.602	105.175	-407.454	N.am	5	SER5	-0.416	
57	  CA	450.647	106.155	-407.171	C.3	5	SER5	-0.025	
58	   C	451.984	105.685	-407.694	C.2	5	SER5	0.597	
59	   O	452.725	106.421	-408.345	O.2	5	SER5	-0.568	
60	  CB	450.708	106.475	-405.657	C.3	5	SER5	0.212	
61	  OG	451.195	105.379	-404.875	O.3	5	SER5	-0.655	
62	   H	449.050	104.783	-406.704	 H	5	SER5	0.272	
63	  HA	450.399	107.084	-407.716	 H	5	SER5	0.084	
64	 2HB	449.718	106.790	-405.275	 H	5	SER5	0.035	
65	 3HB	451.370	107.347	-405.487	 H	5	SER5	0.035	
66	  HG	450.572	104.656	-404.975	 H	5	SER5	0.428	
67	   N	452.361	104.475	-407.450	N.am	6	ILE6	-0.416	
68	  CA	453.654	104.022	-407.956	C.3	6	ILE6	-0.060	
69	   C	453.735	104.181	-409.454	C.2	6	ILE6	0.597	
70	   O	454.720	104.692	-410.008	O.2	6	ILE6	-0.568	
71	  CB	453.960	102.536	-407.504	C.3	6	ILE6	0.130	
72	 CG1	453.820	102.279	-405.969	C.3	6	ILE6	-0.043	
73	 CG2	455.372	102.046	-407.951	C.3	6	ILE6	-0.320	
74	 CD1	453.792	100.799	-405.535	C.3	6	ILE6	-0.066	
75	   H	451.771	103.852	-406.918	 H	6	ILE6	0.272	
76	  HA	454.430	104.682	-407.527	 H	6	ILE6	0.087	
77	  HB	453.208	101.890	-408.006	 H	6	ILE6	0.019	
78	2HG1	452.872	102.718	-405.605	 H	6	ILE6	0.024	
79	3HG1	454.609	102.825	-405.416	 H	6	ILE6	0.024	
80	1HG2	455.519	102.080	-409.045	 H	6	ILE6	0.088	
81	2HG2	456.184	102.642	-407.492	 H	6	ILE6	0.088	
82	3HG2	455.557	100.990	-407.682	 H	6	ILE6	0.088	
83	1HD1	452.984	100.237	-406.042	 H	6	ILE6	0.019	
84	2HD1	454.742	100.277	-405.747	 H	6	ILE6	0.019	
85	3HD1	453.617	100.705	-404.447	 H	6	ILE6	0.019	
86	   N	452.750	103.774	-410.181	N.am	7	LEU7	-0.416	
87	  CA	452.829	103.929	-411.630	C.3	7	LEU7	-0.052	
88	   C	453.048	105.374	-412.008	C.2	7	LEU7	0.597	
89	   O	453.905	105.716	-412.836	O.2	7	LEU7	-0.568	
90	  CB	451.549	103.365	-412.311	C.3	7	LEU7	-0.110	
91	  CG	451.184	101.876	-412.060	C.3	7	LEU7	0.353	
92	 CD1	449.962	101.483	-412.901	C.3	7	LEU7	-0.412	
93	 CD2	452.350	100.920	-412.362	C.3	7	LEU7	-0.412	
94	   H	451.936	103.355	-409.754	 H	7	LEU7	0.272	
95	  HA	453.715	103.377	-411.993	 H	7	LEU7	0.092	
96	 2HB	451.635	103.521	-413.404	 H	7	LEU7	0.046	
97	 3HB	450.683	103.987	-412.009	 H	7	LEU7	0.046	
98	  HG	450.912	101.764	-410.989	 H	7	LEU7	-0.036	
99	1HD1	449.087	102.125	-412.679	 H	7	LEU7	0.100	
100	2HD1	450.157	101.562	-413.987	 H	7	LEU7	0.100	
101	3HD1	449.647	100.443	-412.701	 H	7	LEU7	0.100	
102	1HD2	452.727	101.032	-413.395	 H	7	LEU7	0.100	
103	2HD2	453.202	101.098	-411.679	 H	7	LEU7	0.100	
104	3HD2	452.063	99.861	-412.222	 H	7	LEU7	0.100	
105	   N	452.319	106.283	-411.452	N.am	8	ASP8	-0.516	
106	  CA	452.530	107.681	-411.817	C.3	8	ASP8	0.038	
107	   C	453.961	108.095	-411.569	C.2	8	ASP8	0.537	
108	   O	454.619	108.722	-412.414	O.2	8	ASP8	-0.582	
109	  CB	451.543	108.602	-411.047	C.3	8	ASP8	-0.030	
110	  CG	451.619	110.094	-411.400	C.2	8	ASP8	0.799	
111	 OD1	451.833	110.429	-412.583	O.co2	8	ASP8	-0.801	
112	 OD2	451.509	110.932	-410.480	O.co2	8	ASP8	-0.801	
113	   H	451.614	106.031	-410.775	 H	8	ASP8	0.294	
114	  HA	452.341	107.787	-412.902	 H	8	ASP8	0.088	
115	 2HB	451.708	108.504	-409.958	 H	8	ASP8	-0.012	
116	 3HB	450.501	108.288	-411.220	 H	8	ASP8	-0.012	
117	   N	454.515	107.789	-410.445	N.am	9	GLU9	-0.516	
118	  CA	455.898	108.190	-410.206	C.3	9	GLU9	0.040	
119	   C	456.813	107.644	-411.275	C.2	9	GLU9	0.537	
120	   O	457.660	108.350	-411.839	O.2	9	GLU9	-0.582	
121	  CB	456.351	107.700	-408.800	C.3	9	GLU9	0.056	
122	  CG	457.802	108.099	-408.378	C.3	9	GLU9	0.014	
123	  CD	458.328	107.601	-407.045	C.2	9	GLU9	0.805	
124	 OE1	457.614	106.910	-406.293	O.co2	9	GLU9	-0.819	
125	 OE2	459.504	107.909	-406.760	O.co2	9	GLU9	-0.819	
126	   H	453.999	107.280	-409.742	 H	9	GLU9	0.294	
127	  HA	455.958	109.293	-410.239	 H	9	GLU9	0.111	
128	 2HB	456.260	106.596	-408.742	 H	9	GLU9	-0.017	
129	 3HB	455.652	108.073	-408.027	 H	9	GLU9	-0.017	
130	 2HG	457.928	109.194	-408.371	 H	9	GLU9	-0.043	
131	 3HG	458.546	107.719	-409.097	 H	9	GLU9	-0.043	
132	   N	456.709	106.403	-411.612	N.am	10	HIS10	-0.416	
133	  CA	457.593	105.873	-412.646	C.3	10	HIS10	-0.058	
134	   C	457.457	106.657	-413.929	C.2	10	HIS10	0.597	
135	   O	458.445	107.053	-414.566	O.2	10	HIS10	-0.568	
136	  CB	457.174	104.410	-412.865	C.3	10	HIS10	-0.007	
137	  CG	458.287	103.448	-412.566	C.2	10	HIS10	0.187	
138	 CD2	458.481	102.892	-411.308	C.2	10	HIS10	-0.221	
139	 ND1	459.242	102.996	-413.474	N.2	10	HIS10	-0.543	
140	 CE1	459.958	102.187	-412.673	C.2	10	HIS10	0.163	
141	 NE2	459.573	102.066	-411.374	N.pl3	10	HIS10	-0.280	
142	   H	456.026	105.806	-411.167	 H	10	HIS10	0.272	
143	  HA	458.632	106.011	-412.301	 H	10	HIS10	0.136	
144	 2HB	456.848	104.238	-413.910	 H	10	HIS10	0.037	
145	 3HB	456.306	104.125	-412.235	 H	10	HIS10	0.037	
146	 2HD	457.858	103.097	-410.442	 H	10	HIS10	0.186	
147	 1HE	460.804	101.671	-413.108	 H	10	HIS10	0.144	
148	 2HE	459.992	101.501	-410.621	 H	10	HIS10	0.334	
149	   N	456.277	106.923	-414.377	N.am	11	VAL11	-0.416	
150	  CA	456.145	107.681	-415.618	C.3	11	VAL11	-0.087	
151	   C	456.854	109.011	-415.517	C.2	11	VAL11	0.597	
152	   O	457.608	109.422	-416.409	O.2	11	VAL11	-0.568	
153	  CB	454.616	107.884	-415.962	C.3	11	VAL11	0.299	
154	 CG1	454.297	108.830	-417.153	C.3	11	VAL11	-0.319	
155	 CG2	453.864	106.568	-416.274	C.3	11	VAL11	-0.319	
156	   H	455.457	106.611	-413.877	 H	11	VAL11	0.272	
157	  HA	456.632	107.116	-416.434	 H	11	VAL11	0.097	
158	  HB	454.135	108.332	-415.067	 H	11	VAL11	-0.030	
159	1HG1	454.751	108.484	-418.101	 H	11	VAL11	0.079	
160	2HG1	453.209	108.932	-417.329	 H	11	VAL11	0.079	
161	3HG1	454.655	109.863	-416.980	 H	11	VAL11	0.079	
162	1HG2	453.965	105.833	-415.455	 H	11	VAL11	0.079	
163	2HG2	452.777	106.736	-416.401	 H	11	VAL11	0.079	
164	3HG2	454.232	106.082	-417.197	 H	11	VAL11	0.079	
165	   N	456.669	109.740	-414.470	N.am	12	GLN12	-0.416	
166	  CA	457.354	111.025	-414.371	C.3	12	GLN12	-0.003	
167	   C	458.849	110.853	-414.489	C.2	12	GLN12	0.597	
168	   O	459.530	111.565	-415.224	O.2	12	GLN12	-0.568	
169	  CB	456.977	111.686	-413.026	C.3	12	GLN12	-0.004	
170	  CG	457.583	113.102	-412.759	C.3	12	GLN12	-0.064	
171	  CD	457.303	113.794	-411.419	C.2	12	GLN12	0.695	
172	 NE2	456.551	113.206	-410.523	N.pl3	12	GLN12	-0.941	
173	 OE1	457.790	114.883	-411.157	O.2	12	GLN12	-0.609	
174	   H	456.059	109.426	-413.728	 H	12	GLN12	0.272	
175	  HA	457.024	111.668	-415.208	 H	12	GLN12	0.085	
176	 2HB	457.277	111.004	-412.203	 H	12	GLN12	0.017	
177	 3HB	455.874	111.756	-412.959	 H	12	GLN12	0.017	
178	 2HG	457.284	113.801	-413.562	 H	12	GLN12	0.035	
179	 3HG	458.686	113.067	-412.824	 H	12	GLN12	0.035	
180	1HE2	456.468	113.703	-409.635	 H	12	GLN12	0.425	
181	2HE2	456.232	112.269	-410.776	 H	12	GLN12	0.425	
182	   N	459.430	109.931	-413.799	N.am	13	ARG13	-0.348	
183	  CA	460.876	109.765	-413.913	C.3	13	ARG13	-0.264	
184	   C	461.279	109.518	-415.348	C.2	13	ARG13	0.734	
185	   O	462.211	110.121	-415.875	O.2	13	ARG13	-0.589	
186	  CB	461.321	108.595	-412.990	C.3	13	ARG13	-0.001	
187	  CG	462.855	108.457	-412.777	C.3	13	ARG13	0.039	
188	  CD	463.208	107.257	-411.883	C.3	13	ARG13	0.049	
189	  NE	464.688	107.188	-411.698	N.pl3	13	ARG13	-0.530	
190	  CZ	465.331	106.268	-410.986	C.cat	13	ARG13	0.808	
191	 NH1	464.735	105.293	-410.359	N.pl3	13	ARG13	-0.863	
192	 NH2	466.623	106.341	-410.910	N.pl3	13	ARG13	-0.863	
193	   H	458.892	109.332	-413.188	 H	13	ARG13	0.275	
194	  HA	461.355	110.708	-413.588	 H	13	ARG13	0.156	
195	 2HB	460.906	107.647	-413.391	 H	13	ARG13	0.033	
196	 3HB	460.835	108.709	-412.000	 H	13	ARG13	0.033	
197	 2HG	463.247	109.398	-412.339	 H	13	ARG13	0.029	
198	 3HG	463.366	108.348	-413.755	 H	13	ARG13	0.029	
199	 2HD	462.823	106.324	-412.350	 H	13	ARG13	0.069	
200	 3HD	462.689	107.357	-410.906	 H	13	ARG13	0.069	
201	  HE	465.306	107.883	-412.129	 H	13	ARG13	0.346	
202	1HH1	463.717	105.292	-410.460	 H	13	ARG13	0.448	
203	2HH1	465.301	104.626	-409.832	 H	13	ARG13	0.448	
204	1HH2	467.073	107.110	-411.409	 H	13	ARG13	0.448	
205	2HH2	467.099	105.625	-410.357	 H	13	ARG13	0.448	
206	   N	460.625	108.649	-416.041	N.am	14	VAL14	-0.416	
207	  CA	461.015	108.411	-417.428	C.3	14	VAL14	-0.087	
208	   C	460.971	109.690	-418.229	C.2	14	VAL14	0.597	
209	   O	461.897	110.027	-418.978	O.2	14	VAL14	-0.568	
210	  CB	460.074	107.314	-418.068	C.3	14	VAL14	0.299	
211	 CG1	460.234	107.075	-419.594	C.3	14	VAL14	-0.319	
212	 CG2	460.211	105.915	-417.420	C.3	14	VAL14	-0.319	
213	   H	459.854	108.141	-415.630	 H	14	VAL14	0.272	
214	  HA	462.060	108.052	-417.447	 H	14	VAL14	0.097	
215	  HB	459.026	107.648	-417.909	 H	14	VAL14	-0.030	
216	1HG1	461.257	106.756	-419.869	 H	14	VAL14	0.079	
217	2HG1	459.537	106.303	-419.974	 H	14	VAL14	0.079	
218	3HG1	460.006	107.980	-420.190	 H	14	VAL14	0.079	
219	1HG2	460.048	105.951	-416.327	 H	14	VAL14	0.079	
220	2HG2	459.462	105.203	-417.816	 H	14	VAL14	0.079	
221	3HG2	461.209	105.470	-417.587	 H	14	VAL14	0.079	
222	   N	459.937	110.454	-418.130	N.am	15	MET15	-0.416	
223	  CA	459.894	111.691	-418.904	C.3	15	MET15	-0.024	
224	   C	461.081	112.569	-418.591	C.2	15	MET15	0.597	
225	   O	461.757	113.103	-419.484	O.2	15	MET15	-0.568	
226	  CB	458.561	112.441	-418.626	C.3	15	MET15	0.034	
227	  CG	457.272	111.699	-419.038	C.3	15	MET15	0.002	
228	  SD	455.862	112.812	-418.919	S.3	15	MET15	-0.274	
229	  CE	454.548	111.594	-419.060	C.3	15	MET15	-0.054	
230	   H	459.168	110.201	-417.526	 H	15	MET15	0.272	
231	  HA	459.953	111.437	-419.979	 H	15	MET15	0.088	
232	 2HB	458.572	113.414	-419.154	 H	15	MET15	0.024	
233	 3HB	458.494	112.702	-417.551	 H	15	MET15	0.024	
234	 2HG	457.107	110.828	-418.376	 H	15	MET15	0.044	
235	 3HG	457.340	111.305	-420.069	 H	15	MET15	0.044	
236	 1HE	454.654	111.002	-419.987	 H	15	MET15	0.068	
237	 2HE	454.571	110.902	-418.200	 H	15	MET15	0.068	
238	 3HE	453.562	112.089	-419.077	 H	15	MET15	0.068	
239	   N	461.403	112.770	-417.358	N.am	16	ARG16	-0.348	
240	  CA	462.552	113.619	-417.056	C.3	16	ARG16	-0.264	
241	   C	463.800	113.096	-417.726	C.2	16	ARG16	0.734	
242	   O	463.786	112.097	-418.441	O.2	16	ARG16	-0.589	
243	  CB	462.726	113.696	-415.512	C.3	16	ARG16	-0.001	
244	  CG	463.726	114.772	-415.005	C.3	16	ARG16	0.039	
245	  CD	463.865	114.756	-413.473	C.3	16	ARG16	0.049	
246	  NE	464.819	115.820	-413.044	N.pl3	16	ARG16	-0.530	
247	  CZ	465.172	116.075	-411.788	C.cat	16	ARG16	0.808	
248	 NH1	464.722	115.408	-410.762	N.pl3	16	ARG16	-0.863	
249	 NH2	466.009	117.040	-411.568	N.pl3	16	ARG16	-0.863	
250	   H	460.868	112.347	-416.613	 H	16	ARG16	0.275	
251	  HA	462.349	114.627	-417.465	 H	16	ARG16	0.156	
252	 2HB	463.022	112.694	-415.137	 H	16	ARG16	0.033	
253	 3HB	461.738	113.883	-415.044	 H	16	ARG16	0.033	
254	 2HG	463.394	115.771	-415.354	 H	16	ARG16	0.029	
255	 3HG	464.723	114.611	-415.464	 H	16	ARG16	0.029	
256	 2HD	464.217	113.752	-413.147	 H	16	ARG16	0.069	
257	 3HD	462.867	114.905	-413.009	 H	16	ARG16	0.069	
258	  HE	465.266	116.436	-413.731	 H	16	ARG16	0.346	
259	1HH1	464.067	114.661	-411.005	 H	16	ARG16	0.448	
260	2HH1	465.041	115.667	-409.827	 H	16	ARG16	0.448	
261	1HH2	466.351	117.550	-412.384	 H	16	ARG16	0.448	
262	2HH2	466.266	117.221	-410.596	 H	16	ARG16	0.448	
@<TRIPOS>BOND
1 1 2 1
2 1 10 1
3 2 3 1
4 2 5 1
5 2 11 1
6 3 4 2
7 3 16 1
8 5 6 1
9 6 7 1
10 7 8 2
11 7 9 1
12 5 12 1
13 5 13 1
14 6 14 1
15 6 15 1
16 16 17 1
17 16 24 1
18 17 18 1
19 17 20 1
20 17 25 1
21 18 19 2
22 18 30 1
23 20 21 1
24 21 22 1
25 21 23 2
26 20 26 1
27 20 27 1
28 22 28 1
29 22 29 1
30 30 31 1
31 30 36 1
32 31 32 1
33 31 34 1
34 31 37 1
35 32 33 2
36 32 41 1
37 34 35 1
38 34 38 1
39 34 39 1
40 35 40 1
41 41 42 1
42 41 50 1
43 42 43 1
44 42 45 1
45 42 51 1
46 43 44 2
47 43 56 1
48 45 46 1
49 46 47 1
50 47 48 2
51 47 49 1
52 45 52 1
53 45 53 1
54 46 54 1
55 46 55 1
56 56 57 1
57 56 62 1
58 57 58 1
59 57 60 1
60 57 63 1
61 58 59 2
62 58 67 1
63 60 61 1
64 60 64 1
65 60 65 1
66 61 66 1
67 67 68 1
68 67 75 1
69 68 69 1
70 68 71 1
71 68 76 1
72 69 70 2
73 69 86 1
74 71 72 1
75 71 73 1
76 72 74 1
77 71 77 1
78 72 78 1
79 72 79 1
80 73 80 1
81 73 81 1
82 73 82 1
83 74 83 1
84 74 84 1
85 74 85 1
86 86 87 1
87 86 94 1
88 87 88 1
89 87 90 1
90 87 95 1
91 88 89 2
92 88 105 1
93 90 91 1
94 91 92 1
95 91 93 1
96 90 96 1
97 90 97 1
98 91 98 1
99 92 99 1
100 92 100 1
101 92 101 1
102 93 102 1
103 93 103 1
104 93 104 1
105 105 106 1
106 105 113 1
107 106 107 1
108 106 109 1
109 106 114 1
110 107 108 2
111 107 117 1
112 109 110 1
113 110 111 2
114 110 112 1
115 109 115 1
116 109 116 1
117 117 118 1
118 117 126 1
119 118 119 1
120 118 121 1
121 118 127 1
122 119 120 2
123 119 132 1
124 121 122 1
125 122 123 1
126 123 124 2
127 123 125 1
128 121 128 1
129 121 129 1
130 122 130 1
131 122 131 1
132 132 133 1
133 132 142 1
134 133 134 1
135 133 136 1
136 133 143 1
137 134 135 2
138 134 149 1
139 136 137 1
140 137 138 2
141 138 141 1
142 137 139 1
143 139 140 2
144 140 141 1
145 136 144 1
146 136 145 1
147 138 146 1
148 140 147 1
149 141 148 1
150 149 150 1
151 149 156 1
152 150 151 1
153 150 153 1
154 150 157 1
155 151 152 2
156 151 165 1
157 153 154 1
158 153 155 1
159 153 158 1
160 154 159 1
161 154 160 1
162 154 161 1
163 155 162 1
164 155 163 1
165 155 164 1
166 165 166 1
167 165 174 1
168 166 167 1
169 166 169 1
170 166 175 1
171 167 168 2
172 167 182 1
173 169 170 1
174 170 171 1
175 171 172 1
176 171 173 2
177 169 176 1
178 169 177 1
179 170 178 1
180 170 179 1
181 172 180 1
182 172 181 1
183 182 183 1
184 182 193 1
185 183 184 1
186 183 186 1
187 183 194 1
188 184 185 2
189 184 206 1
190 186 187 1
191 187 188 1
192 188 189 1
193 189 190 1
194 190 191 2
195 190 192 1
196 186 195 1
197 186 196 1
198 187 197 1
199 187 198 1
200 188 199 1
201 188 200 1
202 189 201 1
203 191 202 1
204 191 203 1
205 192 204 1
206 192 205 1
207 206 207 1
208 206 213 1
209 207 208 1
210 207 210 1
211 207 214 1
212 208 209 2
213 208 222 1
214 210 211 1
215 210 212 1
216 210 215 1
217 211 216 1
218 211 217 1
219 211 218 1
220 212 219 1
221 212 220 1
222 212 221 1
223 222 223 1
224 222 230 1
225 223 224 1
226 223 226 1
227 223 231 1
228 224 225 2
229 224 239 1
230 226 227 1
231 227 228 1
232 228 229 1
233 226 232 1
234 226 233 1
235 227 234 1
236 227 235 1
237 229 236 1
238 229 237 1
239 229 238 1
240 239 240 1
241 239 250 1
242 240 241 1
243 240 243 1
244 240 251 1
245 241 242 2
246 243 244 1
247 244 245 1
248 245 246 1
249 246 247 1
250 247 248 2
251 247 249 1
252 243 252 1
253 243 253 1
254 244 254 1
255 244 255 1
256 245 256 1
257 245 257 1
258 246 258 1
259 248 259 1
260 248 260 1
261 249 261 1
262 249 262 1
@<TRIPOS>SUBSTRUCTURE
1	GLU1	1	RESIDUE	1 ****	GLU
2	ASN2	16	RESIDUE	1 ****	ASN
3	CYS3	30	RESIDUE	1 ****	CYS
4	GLU4	41	RESIDUE	1 ****	GLU
5	SER5	56	RESIDUE	1 ****	SER
6	ILE6	67	RESIDUE	1 ****	ILE
7	LEU7	86	RESIDUE	1 ****	LEU
8	ASP8	105	RESIDUE	1 ****	ASP
9	GLU9	117	RESIDUE	1 ****	GLU
10	HIS10	132	RESIDUE	1 ****	HIS
11	VAL11	149	RESIDUE	1 ****	VAL
12	GLN12	165	RESIDUE	1 ****	GLN
13	ARG13	182	RESIDUE	1 ****	ARG
14	VAL14	206	RESIDUE	1 ****	VAL
15	MET15	222	RESIDUE	1 ****	MET
16	ARG16	239	RESIDUE	1 ****	ARG
