REMARK WARNING: 32 MAX_TORS EXCEEDED!!!
REMARK  65 active torsions:
REMARK  status: ('A' for Active; 'I' for Inactive)
REMARK    1  A    between atoms: N_1  and  CA_2 
REMARK    2  A    between atoms: CA_2  and  C_3 
REMARK    3  A    between atoms: CA_2  and  CB_5 
REMARK       I    between atoms: C_3  and  N_11 
REMARK    4  A    between atoms: CB_5  and  CG_6 
REMARK    5  A    between atoms: CG_6  and  CD_7 
REMARK    6  A    between atoms: N_11  and  CA_12 
REMARK    7  A    between atoms: CA_12  and  C_13 
REMARK    8  A    between atoms: CA_12  and  CB_15 
REMARK       I    between atoms: C_13  and  N_22 
REMARK    9  A    between atoms: CB_15  and  CG_16 
REMARK       I    between atoms: CG_16  and  ND2_17 
REMARK   10  A    between atoms: CA_23  and  C_24 
REMARK       I    between atoms: C_24  and  N_29 
REMARK   11  A    between atoms: N_29  and  CA_30 
REMARK   12  A    between atoms: CA_30  and  C_31 
REMARK   13  A    between atoms: CA_30  and  CB_33 
REMARK       I    between atoms: C_31  and  N_39 
REMARK   14  A    between atoms: CB_33  and  CG_34 
REMARK   15  A    between atoms: CG_34  and  CD_35 
REMARK   16  A    between atoms: N_39  and  CA_40 
REMARK   17  A    between atoms: CA_40  and  C_41 
REMARK   18  A    between atoms: CA_40  and  CB_43 
REMARK       I    between atoms: C_41  and  N_47 
REMARK   19  A    between atoms: CB_43  and  OG_44 
REMARK   20  A    between atoms: N_47  and  CA_48 
REMARK   21  A    between atoms: CA_48  and  C_49 
REMARK   22  A    between atoms: CA_48  and  CB_51 
REMARK       I    between atoms: C_49  and  N_56 
REMARK   23  A    between atoms: CB_51  and  CG1_52 
REMARK   24  A    between atoms: N_56  and  CA_57 
REMARK   25  A    between atoms: CA_57  and  C_58 
REMARK   26  A    between atoms: CA_57  and  CB_60 
REMARK       I    between atoms: C_58  and  N_65 
REMARK   27  A    between atoms: CB_60  and  CG_61 
REMARK   28  A    between atoms: N_65  and  CA_66 
REMARK   29  A    between atoms: CA_66  and  C_67 
REMARK   30  A    between atoms: CA_66  and  CB_69 
REMARK       I    between atoms: C_67  and  N_74 
REMARK   31  A    between atoms: CB_69  and  CG_70 
REMARK   32  A    between atoms: N_74  and  CA_75 
REMARK   33  A    between atoms: CA_75  and  C_76 
REMARK   34  A    between atoms: CA_75  and  CB_78 
REMARK       I    between atoms: C_76  and  N_84 
REMARK   35  A    between atoms: CB_78  and  CG_79 
REMARK   36  A    between atoms: CG_79  and  CD_80 
REMARK   37  A    between atoms: N_84  and  CA_85 
REMARK   38  A    between atoms: CA_85  and  C_86 
REMARK   39  A    between atoms: CA_85  and  CB_88 
REMARK       I    between atoms: C_86  and  N_96 
REMARK   40  A    between atoms: CB_88  and  CG_89 
REMARK   41  A    between atoms: N_96  and  CA_97 
REMARK   42  A    between atoms: CA_97  and  C_98 
REMARK   43  A    between atoms: CA_97  and  CB_100 
REMARK       I    between atoms: C_98  and  N_104 
REMARK   44  A    between atoms: N_104  and  CA_105 
REMARK   45  A    between atoms: CA_105  and  C_106 
REMARK       I    between atoms: C_106  and  N_109 
REMARK   46  A    between atoms: N_109  and  CA_110 
REMARK   47  A    between atoms: CA_110  and  C_111 
REMARK   48  A    between atoms: CA_110  and  CB_113 
REMARK       I    between atoms: C_111  and  N_126 
REMARK   49  A    between atoms: CB_113  and  CG_114 
REMARK   50  A    between atoms: CG_114  and  CD_115 
REMARK   51  A    between atoms: CD_115  and  NE_116 
REMARK       I    between atoms: NE_116  and  CZ_117 
REMARK       I    between atoms: CZ_117  and  NH1_118 
REMARK       I    between atoms: CZ_117  and  NH2_119 
REMARK   52  A    between atoms: N_126  and  CA_127 
REMARK   53  A    between atoms: CA_127  and  C_128 
REMARK   54  A    between atoms: CA_127  and  CB_130 
REMARK       I    between atoms: C_128  and  N_134 
REMARK   55  A    between atoms: N_134  and  CA_135 
REMARK   56  A    between atoms: CA_135  and  C_136 
REMARK   57  A    between atoms: CA_135  and  CB_138 
REMARK       I    between atoms: C_136  and  N_143 
REMARK   58  A    between atoms: CB_138  and  CG_139 
REMARK   59  A    between atoms: CG_139  and  SD_140 
REMARK   60  A    between atoms: N_143  and  CA_144 
REMARK   61  A    between atoms: CA_144  and  C_145 
REMARK   62  A    between atoms: CA_144  and  CB_147 
REMARK   63  A    between atoms: CB_147  and  CG_148 
REMARK   64  A    between atoms: CG_148  and  CD_149 
REMARK   65  A    between atoms: CD_149  and  NE_150 
REMARK       I    between atoms: NE_150  and  CZ_151 
REMARK       I    between atoms: CZ_151  and  NH1_152 
ROOT
ATOM      1  CA  GLU d   9    1871.310 566.720-1918.375  0.00  0.00     0.177 C 
ENDROOT
BRANCH   1   2
ATOM      2  N   GLU d   9    1870.008 566.062-1918.430  0.00  0.00    -0.346 N 
ATOM      3  C   ASP d   8    1869.328 566.112-1919.526  0.00  0.00     0.241 C 
ATOM      4  O   ASP d   8    1869.801 566.717-1920.500  0.00  0.00    -0.271 OA
ATOM      5  H   GLU d   9    1869.645 565.575-1917.624  0.00  0.00     0.163 HD
BRANCH   3   6
ATOM      6  CA  ASP d   8    1867.982 565.432-1919.583  0.00  0.00     0.186 C 
BRANCH   6   7
ATOM      7  N   ASP d   8    1868.052 564.082-1919.030  0.00  0.00    -0.346 N 
ATOM      8  C   LEU d   7    1868.890 563.242-1919.536  0.00  0.00     0.241 C 
ATOM      9  O   LEU d   7    1869.610 563.605-1920.478  0.00  0.00    -0.271 OA
ATOM     10  H   ASP d   8    1867.454 563.811-1918.262  0.00  0.00     0.163 HD
BRANCH   8  11
ATOM     11  CA  LEU d   7    1868.962 561.847-1918.964  0.00  0.00     0.177 C 
BRANCH  11  12
ATOM     12  N   LEU d   7    1869.017 561.883-1917.505  0.00  0.00    -0.346 N 
ATOM     13  C   ILE d   6    1869.963 562.546-1916.931  0.00  0.00     0.241 C 
ATOM     14  O   ILE d   6    1870.798 563.134-1917.635  0.00  0.00    -0.271 OA
ATOM     15  H   LEU d   7    1868.325 561.396-1916.954  0.00  0.00     0.163 HD
BRANCH  13  16
ATOM     16  CA  ILE d   6    1870.020 562.584-1915.424  0.00  0.00     0.180 C 
BRANCH  16  17
ATOM     17  N   ILE d   6    1868.707 562.879-1914.857  0.00  0.00    -0.346 N 
ATOM     18  C   SER d   5    1868.102 563.962-1915.212  0.00  0.00     0.243 C 
ATOM     19  O   SER d   5    1868.649 564.715-1916.017  0.00  0.00    -0.271 OA
ATOM     20  H   ILE d   6    1868.279 562.244-1914.198  0.00  0.00     0.163 HD
BRANCH  18  21
ATOM     21  CA  SER d   5    1866.743 564.267-1914.626  0.00  0.00     0.200 C 
BRANCH  21  22
ATOM     22  N   SER d   5    1865.874 563.096-1914.684  0.00  0.00    -0.344 N 
ATOM     23  C   GLU d   4    1865.646 562.543-1915.828  0.00  0.00     0.241 C 
ATOM     24  O   GLU d   4    1866.173 563.023-1916.842  0.00  0.00    -0.271 OA
ATOM     25  H   SER d   5    1865.457 562.724-1913.843  0.00  0.00     0.163 HD
BRANCH  23  26
ATOM     26  CA  GLU d   4    1864.747 561.332-1915.889  0.00  0.00     0.177 C 
BRANCH  26  27
ATOM     27  N   GLU d   4    1865.107 560.361-1914.859  0.00  0.00    -0.346 N 
ATOM     28  C   PRO d   3    1866.312 559.901-1914.827  0.00  0.00     0.241 C 
ATOM     29  O   PRO d   3    1867.135 560.284-1915.658  0.00  0.00    -0.271 OA
ATOM     30  H   GLU d   4    1864.423 560.054-1914.182  0.00  0.00     0.163 HD
BRANCH  28  31
ATOM     31  CA  PRO d   3    1866.710 558.878-1913.750  0.00  0.00     0.179 C 
ATOM     32  N   PRO d   3    1866.258 559.287-1912.428  0.00  0.00    -0.337 N 
ATOM     33  C   ASN d   2    1866.780 560.282-1911.794  0.00  0.00     0.243 C 
ATOM     34  CD  PRO d   3    1865.180 558.494-1911.879  0.00  0.00     0.127 C 
ATOM     35  O   ASN d   2    1867.695 560.912-1912.323  0.00  0.00    -0.271 OA
ATOM     36  CG  PRO d   3    1864.723 557.675-1913.089  0.00  0.00     0.022 C 
ATOM     37  CB  PRO d   3    1866.006 557.523-1913.919  0.00  0.00     0.037 C 
BRANCH  33  38
ATOM     38  CA  ASN d   2    1866.249 560.638-1910.426  0.00  0.00     0.185 C 
BRANCH  38  39
ATOM     39  N   ASN d   2    1864.789 560.676-1910.426  0.00  0.00    -0.346 N 
ATOM     40  C   GLU d   1    1864.185 561.462-1911.251  0.00  0.00     0.242 C 
ATOM     41  O   GLU d   1    1864.860 562.161-1912.020  0.00  0.00    -0.271 OA
ATOM     42  H   ASN d   2    1864.261 560.097-1909.789  0.00  0.00     0.163 HD
BRANCH  40  43
ATOM     43  CA  GLU d   1    1862.676 561.502-1911.251  0.00  0.00     0.191 C 
BRANCH  43  44
ATOM     44  N   GLU d   1    1862.117 560.153-1911.251  0.00  0.00    -0.326 NA
ATOM     45  H   GLU d   1    1862.744 559.274-1911.251  0.00  0.00     0.180 HD
ENDBRANCH  43  44
BRANCH  43  46
ATOM     46  CB  GLU d   1    1862.153 562.287-1910.014  0.00  0.00     0.047 C 
BRANCH  46  47
ATOM     47  CG  GLU d   1    1862.628 563.772-1909.903  0.00  0.00     0.116 C 
BRANCH  47  48
ATOM     48  CD  GLU d   1    1862.204 564.576-1908.688  0.00  0.00     0.172 C 
ATOM     49  OE1 GLU d   1    1861.476 564.074-1907.810  0.00  0.00    -0.648 OA
ATOM     50  OE2 GLU d   1    1862.634 565.746-1908.616  0.00  0.00    -0.648 OA
ENDBRANCH  47  48
ENDBRANCH  46  47
ENDBRANCH  43  46
ENDBRANCH  40  43
ENDBRANCH  38  39
BRANCH  38  51
ATOM     51  CB  ASN d   2    1866.740 559.615-1909.361  0.00  0.00     0.137 C 
BRANCH  51  52
ATOM     52  CG  ASN d   2    1866.277 559.839-1907.918  0.00  0.00     0.217 C 
ATOM     53  ND2 ASN d   2    1866.872 560.753-1907.200  0.00  0.00    -0.370 N 
ATOM     54 21HD ASN d   2    1866.391 560.926-1906.313  0.00  0.00     0.159 HD
ATOM     55 22HD ASN d   2    1867.573 561.325-1907.669  0.00  0.00     0.159 HD
ATOM     56  OD1 ASN d   2    1865.356 559.205-1907.424  0.00  0.00    -0.274 OA
ENDBRANCH  51  52
ENDBRANCH  38  51
ENDBRANCH  33  38
ENDBRANCH  28  31
ENDBRANCH  26  27
BRANCH  26  57
ATOM     57  CB  GLU d   4    1863.259 561.751-1915.719  0.00  0.00     0.045 C 
BRANCH  57  58
ATOM     58  CG  GLU d   4    1862.711 562.755-1916.784  0.00  0.00     0.116 C 
BRANCH  58  59
ATOM     59  CD  GLU d   4    1861.284 563.252-1916.641  0.00  0.00     0.172 C 
ATOM     60  OE1 GLU d   4    1860.558 562.853-1915.710  0.00  0.00    -0.648 OA
ATOM     61  OE2 GLU d   4    1860.895 564.081-1917.489  0.00  0.00    -0.648 OA
ENDBRANCH  58  59
ENDBRANCH  57  58
ENDBRANCH  26  57
ENDBRANCH  23  26
ENDBRANCH  21  22
BRANCH  21  62
ATOM     62  CB  SER d   5    1866.855 564.800-1913.176  0.00  0.00     0.199 C 
BRANCH  62  63
ATOM     63  OG  SER d   5    1867.587 563.920-1912.314  0.00  0.00    -0.398 OA
ATOM     64  HG  SER d   5    1867.098 563.095-1912.264  0.00  0.00     0.209 HD
ENDBRANCH  62  63
ENDBRANCH  21  62
ENDBRANCH  18  21
ENDBRANCH  16  17
BRANCH  16  65
ATOM     65  CB  ILE d   6    1870.620 561.248-1914.824  0.00  0.00     0.013 C 
ATOM     66  CG2 ILE d   6    1872.061 560.946-1915.339  0.00  0.00     0.012 C 
BRANCH  65  67
ATOM     67  CG1 ILE d   6    1870.640 561.186-1913.263  0.00  0.00     0.002 C 
ATOM     68  CD1 ILE d   6    1870.910 559.797-1912.648  0.00  0.00     0.005 C 
ENDBRANCH  65  67
ENDBRANCH  16  65
ENDBRANCH  13  16
ENDBRANCH  11  12
BRANCH  11  69
ATOM     69  CB  LEU d   7    1867.759 560.986-1919.444  0.00  0.00     0.038 C 
BRANCH  69  70
ATOM     70  CG  LEU d   7    1867.687 559.507-1918.978  0.00  0.00    -0.020 C 
ATOM     71  CD1 LEU d   7    1866.497 558.801-1919.643  0.00  0.00     0.009 C 
ATOM     72  CD2 LEU d   7    1868.981 558.728-1919.269  0.00  0.00     0.009 C 
ENDBRANCH  69  70
ENDBRANCH  11  69
ENDBRANCH   8  11
ENDBRANCH   6   7
BRANCH   6  73
ATOM     73  CB  ASP d   8    1866.903 566.271-1918.841  0.00  0.00     0.147 C 
BRANCH  73  74
ATOM     74  CG  ASP d   8    1866.684 567.691-1919.381  0.00  0.00     0.175 C 
ATOM     75  OD1 ASP d   8    1866.748 567.891-1920.612  0.00  0.00    -0.648 OA
ATOM     76  OD2 ASP d   8    1866.492 568.617-1918.566  0.00  0.00    -0.648 OA
ENDBRANCH  73  74
ENDBRANCH   6  73
ENDBRANCH   3   6
ENDBRANCH   1   2
BRANCH   1  77
ATOM     77  C   GLU d   9    1872.229 566.193-1919.451  0.00  0.00     0.241 C 
ATOM     78  O   GLU d   9    1872.892 566.948-1920.176  0.00  0.00    -0.271 OA
ATOM     79  N   HIS d  10    1872.326 564.918-1919.620  0.00  0.00    -0.346 N 
ATOM     80  H   HIS d  10    1871.795 564.282-1919.042  0.00  0.00     0.163 HD
BRANCH  79  81
ATOM     81  CA  HIS d  10    1873.214 564.407-1920.661  0.00  0.00     0.182 C 
BRANCH  81  82
ATOM     82  C   HIS d  10    1872.847 564.972-1922.012  0.00  0.00     0.241 C 
ATOM     83  O   HIS d  10    1873.699 565.437-1922.783  0.00  0.00    -0.271 OA
ATOM     84  N   VAL d  11    1871.609 564.971-1922.375  0.00  0.00    -0.346 N 
ATOM     85  H   VAL d  11    1870.896 564.597-1921.765  0.00  0.00     0.163 HD
BRANCH  84  86
ATOM     86  CA  VAL d  11    1871.254 565.517-1923.682  0.00  0.00     0.180 C 
BRANCH  86  87
ATOM     87  C   VAL d  11    1871.718 566.948-1923.814  0.00  0.00     0.241 C 
ATOM     88  O   VAL d  11    1872.319 567.354-1924.817  0.00  0.00    -0.271 OA
ATOM     89  N   GLY d  12    1871.481 567.773-1922.851  0.00  0.00    -0.351 N 
ATOM     90  H   GLY d  12    1870.992 567.467-1922.022  0.00  0.00     0.163 HD
BRANCH  89  91
ATOM     91  CA  GLY d  12    1871.929 569.157-1922.978  0.00  0.00     0.225 C 
BRANCH  91  92
ATOM     92  C   GLY d  12    1873.418 569.223-1923.215  0.00  0.00     0.236 C 
ATOM     93  O   GLY d  12    1873.909 569.933-1924.097  0.00  0.00    -0.272 OA
ATOM     94  N   ARG d  13    1874.201 568.515-1922.474  0.00  0.00    -0.346 N 
ATOM     95  H   ARG d  13    1873.824 567.926-1921.746  0.00  0.00     0.163 HD
BRANCH  94  96
ATOM     96  CA  ARG d  13    1875.642 568.580-1922.704  0.00  0.00     0.176 C 
BRANCH  96  97
ATOM     97  C   ARG d  13    1875.978 568.208-1924.129  0.00  0.00     0.241 C 
ATOM     98  O   ARG d  13    1876.748 568.879-1924.812  0.00  0.00    -0.271 OA
ATOM     99  N   VAL d  14    1875.441 567.154-1924.644  0.00  0.00    -0.346 N 
ATOM    100  H   VAL d  14    1874.806 566.586-1924.102  0.00  0.00     0.163 HD
BRANCH  99 101
ATOM    101  CA  VAL d  14    1875.766 566.794-1926.021  0.00  0.00     0.180 C 
BRANCH 101 102
ATOM    102  C   VAL d  14    1875.438 567.925-1926.967  0.00  0.00     0.241 C 
ATOM    103  O   VAL d  14    1876.232 568.305-1927.836  0.00  0.00    -0.271 OA
ATOM    104  N   MET d  15    1874.294 568.512-1926.865  0.00  0.00    -0.346 N 
ATOM    105  H   MET d  15    1873.629 568.220-1926.164  0.00  0.00     0.163 HD
BRANCH 104 106
ATOM    106  CA  MET d  15    1873.975 569.605-1927.779  0.00  0.00     0.177 C 
BRANCH 106 107
ATOM    107  C   MET d  15    1875.006 570.704-1927.691  0.00  0.00     0.241 C 
ATOM    108  O   MET d  15    1875.510 571.214-1928.704  0.00  0.00    -0.271 OA
ATOM    109  N   ARG d  16    1875.375 571.125-1926.529  0.00  0.00    -0.347 N 
ATOM    110  H   ARG d  16    1874.979 570.725-1925.690  0.00  0.00     0.163 HD
BRANCH 109 111
ATOM    111  CA  ARG d  16    1876.372 572.188-1926.445  0.00  0.00     0.162 C 
BRANCH 111 112
ATOM    112  C   ARG d  16    1877.643 571.793-1927.161  0.00  0.00     0.219 C 
ATOM    113  O   ARG d  16    1877.756 570.717-1927.742  0.00  0.00    -0.287 OA
ENDBRANCH 111 112
BRANCH 111 114
ATOM    114  CB  ARG d  16    1876.641 572.506-1924.947  0.00  0.00     0.035 C 
BRANCH 114 115
ATOM    115  CG  ARG d  16    1877.468 573.794-1924.674  0.00  0.00     0.023 C 
BRANCH 115 116
ATOM    116  CD  ARG d  16    1877.717 574.013-1923.173  0.00  0.00     0.138 C 
BRANCH 116 117
ATOM    117  NE  ARG d  16    1878.495 575.271-1922.972  0.00  0.00    -0.227 N 
ATOM    118  CZ  ARG d  16    1878.886 575.754-1921.797  0.00  0.00     0.665 C 
ATOM    119  NH1 ARG d  16    1878.638 575.170-1920.658  0.00  0.00    -0.235 N 
ATOM    120  NH2 ARG d  16    1879.552 576.866-1921.778  0.00  0.00    -0.235 N 
ATOM    121 11HH ARG d  16    1878.111 574.297-1920.742  0.00  0.00     0.174 HD
ATOM    122 12HH ARG d  16    1878.972 575.605-1919.797  0.00  0.00     0.174 HD
ATOM    123 21HH ARG d  16    1879.738 577.308-1922.680  0.00  0.00     0.174 HD
ATOM    124 22HH ARG d  16    1879.842 577.221-1920.866  0.00  0.00     0.174 HD
ATOM    125  HE  ARG d  16    1878.774 575.852-1923.769  0.00  0.00     0.177 HD
ENDBRANCH 116 117
ENDBRANCH 115 116
ENDBRANCH 114 115
ENDBRANCH 111 114
ENDBRANCH 109 111
ENDBRANCH 106 107
BRANCH 106 126
ATOM    126  CB  MET d  15    1872.554 570.152-1927.471  0.00  0.00     0.045 C 
BRANCH 126 127
ATOM    127  CG  MET d  15    1871.391 569.155-1927.663  0.00  0.00     0.076 C 
BRANCH 127 128
ATOM    128  SD  MET d  15    1869.818 570.022-1927.549  0.00  0.00    -0.173 SA
ATOM    129  CE  MET d  15    1868.735 568.594-1927.413  0.00  0.00     0.089 C 
ENDBRANCH 127 128
ENDBRANCH 126 127
ENDBRANCH 106 126
ENDBRANCH 104 106
ENDBRANCH 101 102
BRANCH 101 130
ATOM    130  CB  VAL d  14    1874.993 565.478-1926.428  0.00  0.00     0.009 C 
ATOM    131  CG1 VAL d  14    1875.082 565.060-1927.922  0.00  0.00     0.012 C 
ATOM    132  CG2 VAL d  14    1875.423 564.226-1925.627  0.00  0.00     0.012 C 
ENDBRANCH 101 130
ENDBRANCH  99 101
ENDBRANCH  96  97
BRANCH  96 133
ATOM    133  CB  ARG d  13    1876.354 567.640-1921.690  0.00  0.00     0.036 C 
BRANCH 133 134
ATOM    134  CG  ARG d  13    1877.899 567.792-1921.608  0.00  0.00     0.023 C 
BRANCH 134 135
ATOM    135  CD  ARG d  13    1878.524 566.803-1920.610  0.00  0.00     0.138 C 
BRANCH 135 136
ATOM    136  NE  ARG d  13    1880.002 567.009-1920.559  0.00  0.00    -0.227 N 
ATOM    137  CZ  ARG d  13    1880.849 566.316-1919.803  0.00  0.00     0.665 C 
ATOM    138  NH1 ARG d  13    1880.482 565.352-1919.006  0.00  0.00    -0.235 N 
ATOM    139  NH2 ARG d  13    1882.108 566.614-1919.859  0.00  0.00    -0.235 N 
ATOM    140 11HH ARG d  13    1879.476 565.167-1919.010  0.00  0.00     0.174 HD
ATOM    141 12HH ARG d  13    1881.195 564.869-1918.457  0.00  0.00     0.174 HD
ATOM    142 21HH ARG d  13    1882.377 567.372-1920.490  0.00  0.00     0.174 HD
ATOM    143 22HH ARG d  13    1882.743 566.072-1919.270  0.00  0.00     0.174 HD
ATOM    144  HE  ARG d  13    1880.454 567.731-1921.129  0.00  0.00     0.177 HD
ENDBRANCH 135 136
ENDBRANCH 134 135
ENDBRANCH 133 134
ENDBRANCH  96 133
ENDBRANCH  94  96
ENDBRANCH  91  92
ENDBRANCH  89  91
ENDBRANCH  86  87
BRANCH  86 145
ATOM    145  CB  VAL d  11    1869.693 565.410-1923.902  0.00  0.00     0.009 C 
ATOM    146  CG1 VAL d  11    1869.125 566.114-1925.164  0.00  0.00     0.012 C 
ATOM    147  CG2 VAL d  11    1869.169 563.956-1923.975  0.00  0.00     0.012 C 
ENDBRANCH  86 145
ENDBRANCH  84  86
ENDBRANCH  81  82
BRANCH  81 148
ATOM    148  CB  HIS d  10    1873.050 562.878-1920.656  0.00  0.00     0.095 C 
BRANCH 148 149
ATOM    149  CG  HIS d  10    1874.336 562.168-1920.348  0.00  0.00     0.053 A 
ATOM    150  CD2 HIS d  10    1874.717 561.833-1919.056  0.00  0.00     0.116 A 
ATOM    151  NE2 HIS d  10    1875.932 561.201-1919.122  0.00  0.00    -0.359 N 
ATOM    152  CE1 HIS d  10    1876.195 561.205-1920.458  0.00  0.00     0.207 A 
ATOM    153  2HE HIS d  10    1876.499 560.824-1918.349  0.00  0.00     0.166 HD
ATOM    154  ND1 HIS d  10    1875.288 561.763-1921.281  0.00  0.00    -0.247 NA
ENDBRANCH 148 149
ENDBRANCH  81 148
ENDBRANCH  79  81
ENDBRANCH   1  77
BRANCH   1 155
ATOM    155  CB  GLU d   9    1871.944 566.512-1916.969  0.00  0.00     0.045 C 
BRANCH 155 156
ATOM    156  CG  GLU d   9    1873.326 567.205-1916.740  0.00  0.00     0.116 C 
BRANCH 156 157
ATOM    157  CD  GLU d   9    1874.028 566.992-1915.411  0.00  0.00     0.172 C 
ATOM    158  OE1 GLU d   9    1873.506 566.300-1914.515  0.00  0.00    -0.648 OA
ATOM    159  OE2 GLU d   9    1875.147 567.530-1915.279  0.00  0.00    -0.648 OA
ENDBRANCH 156 157
ENDBRANCH 155 156
ENDBRANCH   1 155
TORSDOF 65
