REMARK WARNING: 32 MAX_TORS EXCEEDED!!!
REMARK  68 active torsions:
REMARK  status: ('A' for Active; 'I' for Inactive)
REMARK    1  A    between atoms: N_1  and  CA_2 
REMARK    2  A    between atoms: CA_2  and  C_3 
REMARK    3  A    between atoms: CA_2  and  CB_5 
REMARK       I    between atoms: C_3  and  N_11 
REMARK    4  A    between atoms: CB_5  and  CG_6 
REMARK    5  A    between atoms: CG_6  and  CD_7 
REMARK    6  A    between atoms: N_11  and  CA_12 
REMARK    7  A    between atoms: CA_12  and  C_13 
REMARK    8  A    between atoms: CA_12  and  CB_15 
REMARK       I    between atoms: C_13  and  N_22 
REMARK    9  A    between atoms: CB_15  and  CG_16 
REMARK       I    between atoms: CG_16  and  ND2_17 
REMARK   10  A    between atoms: CA_23  and  C_24 
REMARK       I    between atoms: C_24  and  N_29 
REMARK   11  A    between atoms: N_29  and  CA_30 
REMARK   12  A    between atoms: CA_30  and  C_31 
REMARK   13  A    between atoms: CA_30  and  CB_33 
REMARK       I    between atoms: C_31  and  N_39 
REMARK   14  A    between atoms: CB_33  and  CG_34 
REMARK   15  A    between atoms: CG_34  and  CD_35 
REMARK   16  A    between atoms: N_39  and  CA_40 
REMARK   17  A    between atoms: CA_40  and  C_41 
REMARK   18  A    between atoms: CA_40  and  CB_43 
REMARK       I    between atoms: C_41  and  N_47 
REMARK   19  A    between atoms: CB_43  and  OG_44 
REMARK   20  A    between atoms: N_47  and  CA_48 
REMARK   21  A    between atoms: CA_48  and  C_49 
REMARK   22  A    between atoms: CA_48  and  CB_51 
REMARK       I    between atoms: C_49  and  N_56 
REMARK   23  A    between atoms: CB_51  and  CG1_52 
REMARK   24  A    between atoms: N_56  and  CA_57 
REMARK   25  A    between atoms: CA_57  and  C_58 
REMARK   26  A    between atoms: CA_57  and  CB_60 
REMARK       I    between atoms: C_58  and  N_65 
REMARK   27  A    between atoms: CB_60  and  CG_61 
REMARK   28  A    between atoms: N_65  and  CA_66 
REMARK   29  A    between atoms: CA_66  and  C_67 
REMARK   30  A    between atoms: CA_66  and  CB_69 
REMARK       I    between atoms: C_67  and  N_74 
REMARK   31  A    between atoms: CB_69  and  CG_70 
REMARK   32  A    between atoms: N_74  and  CA_75 
REMARK   33  A    between atoms: CA_75  and  C_76 
REMARK   34  A    between atoms: CA_75  and  CB_78 
REMARK       I    between atoms: C_76  and  N_84 
REMARK   35  A    between atoms: CB_78  and  CG_79 
REMARK   36  A    between atoms: CG_79  and  CD_80 
REMARK   37  A    between atoms: N_84  and  CA_85 
REMARK   38  A    between atoms: CA_85  and  C_86 
REMARK   39  A    between atoms: CA_85  and  CB_88 
REMARK       I    between atoms: C_86  and  N_96 
REMARK   40  A    between atoms: CB_88  and  CG_89 
REMARK   41  A    between atoms: N_96  and  CA_97 
REMARK   42  A    between atoms: CA_97  and  C_98 
REMARK   43  A    between atoms: CA_97  and  CB_100 
REMARK       I    between atoms: C_98  and  N_104 
REMARK   44  A    between atoms: N_104  and  CA_105 
REMARK   45  A    between atoms: CA_105  and  C_106 
REMARK   46  A    between atoms: CA_105  and  CB_108 
REMARK       I    between atoms: C_106  and  N_116 
REMARK   47  A    between atoms: CB_108  and  CG_109 
REMARK   48  A    between atoms: CG_109  and  CD_110 
REMARK       I    between atoms: CD_110  and  NE2_111 
REMARK   49  A    between atoms: N_116  and  CA_117 
REMARK   50  A    between atoms: CA_117  and  C_118 
REMARK   51  A    between atoms: CA_117  and  CB_120 
REMARK       I    between atoms: C_118  and  N_133 
REMARK   52  A    between atoms: CB_120  and  CG_121 
REMARK   53  A    between atoms: CG_121  and  CD_122 
REMARK   54  A    between atoms: CD_122  and  NE_123 
REMARK       I    between atoms: NE_123  and  CZ_124 
REMARK       I    between atoms: CZ_124  and  NH1_125 
REMARK       I    between atoms: CZ_124  and  NH2_126 
REMARK   55  A    between atoms: N_133  and  CA_134 
REMARK   56  A    between atoms: CA_134  and  C_135 
REMARK   57  A    between atoms: CA_134  and  CB_137 
REMARK       I    between atoms: C_135  and  N_141 
REMARK   58  A    between atoms: N_141  and  CA_142 
REMARK   59  A    between atoms: CA_142  and  C_143 
REMARK   60  A    between atoms: CA_142  and  CB_145 
REMARK       I    between atoms: C_143  and  N_150 
REMARK   61  A    between atoms: CB_145  and  CG_146 
REMARK   62  A    between atoms: CG_146  and  SD_147 
REMARK   63  A    between atoms: N_150  and  CA_151 
REMARK   64  A    between atoms: CA_151  and  C_152 
REMARK   65  A    between atoms: CA_151  and  CB_154 
REMARK   66  A    between atoms: CB_154  and  CG_155 
REMARK   67  A    between atoms: CG_155  and  CD_156 
REMARK   68  A    between atoms: CD_156  and  NE_157 
REMARK       I    between atoms: NE_157  and  CZ_158 
REMARK       I    between atoms: CZ_158  and  NH1_159 
ROOT
ATOM      1  C   GLU d   9    1609.488 480.807-1634.621  0.00  0.00     0.241 C 
ATOM      2  O   GLU d   9    1610.152 481.562-1635.346  0.00  0.00    -0.271 OA
ATOM      3  N   HIS d  10    1609.585 479.532-1634.791  0.00  0.00    -0.346 N 
ATOM      4  H   HIS d  10    1609.054 478.896-1634.213  0.00  0.00     0.163 HD
ENDROOT
BRANCH   1   5
ATOM      5  CA  GLU d   9    1608.570 481.334-1633.544  0.00  0.00     0.177 C 
BRANCH   5   6
ATOM      6  N   GLU d   9    1607.267 480.676-1633.600  0.00  0.00    -0.346 N 
ATOM      7  C   ASP d   8    1606.588 480.726-1634.695  0.00  0.00     0.241 C 
ATOM      8  O   ASP d   8    1607.060 481.332-1635.669  0.00  0.00    -0.271 OA
ATOM      9  H   GLU d   9    1606.904 480.190-1632.793  0.00  0.00     0.163 HD
BRANCH   7  10
ATOM     10  CA  ASP d   8    1605.241 480.046-1634.752  0.00  0.00     0.186 C 
BRANCH  10  11
ATOM     11  N   ASP d   8    1605.312 478.697-1634.199  0.00  0.00    -0.346 N 
ATOM     12  C   LEU d   7    1606.149 477.856-1634.706  0.00  0.00     0.241 C 
ATOM     13  O   LEU d   7    1606.869 478.219-1635.648  0.00  0.00    -0.271 OA
ATOM     14  H   ASP d   8    1604.714 478.425-1633.432  0.00  0.00     0.163 HD
BRANCH  12  15
ATOM     15  CA  LEU d   7    1606.221 476.461-1634.134  0.00  0.00     0.177 C 
BRANCH  15  16
ATOM     16  N   LEU d   7    1606.276 476.497-1632.675  0.00  0.00    -0.346 N 
ATOM     17  C   ILE d   6    1607.222 477.160-1632.102  0.00  0.00     0.241 C 
ATOM     18  O   ILE d   6    1608.057 477.748-1632.806  0.00  0.00    -0.271 OA
ATOM     19  H   LEU d   7    1605.584 476.009-1632.124  0.00  0.00     0.163 HD
BRANCH  17  20
ATOM     20  CA  ILE d   6    1607.280 477.198-1630.594  0.00  0.00     0.180 C 
BRANCH  20  21
ATOM     21  N   ILE d   6    1605.967 477.492-1630.027  0.00  0.00    -0.346 N 
ATOM     22  C   SER d   5    1605.362 478.575-1630.381  0.00  0.00     0.243 C 
ATOM     23  O   SER d   5    1605.909 479.329-1631.186  0.00  0.00    -0.271 OA
ATOM     24  H   ILE d   6    1605.538 476.858-1629.368  0.00  0.00     0.163 HD
BRANCH  22  25
ATOM     25  CA  SER d   5    1604.003 478.881-1629.796  0.00  0.00     0.200 C 
BRANCH  25  26
ATOM     26  N   SER d   5    1603.134 477.709-1629.854  0.00  0.00    -0.344 N 
ATOM     27  C   GLU d   4    1602.906 477.157-1630.997  0.00  0.00     0.241 C 
ATOM     28  O   GLU d   4    1603.432 477.636-1632.012  0.00  0.00    -0.271 OA
ATOM     29  H   SER d   5    1602.717 477.338-1629.012  0.00  0.00     0.163 HD
BRANCH  27  30
ATOM     30  CA  GLU d   4    1602.007 475.945-1631.058  0.00  0.00     0.177 C 
BRANCH  30  31
ATOM     31  N   GLU d   4    1602.367 474.974-1630.029  0.00  0.00    -0.346 N 
ATOM     32  C   PRO d   3    1603.572 474.514-1629.996  0.00  0.00     0.241 C 
ATOM     33  O   PRO d   3    1604.395 474.897-1630.828  0.00  0.00    -0.271 OA
ATOM     34  H   GLU d   4    1601.683 474.668-1629.352  0.00  0.00     0.163 HD
BRANCH  32  35
ATOM     35  CA  PRO d   3    1603.970 473.491-1628.920  0.00  0.00     0.179 C 
ATOM     36  N   PRO d   3    1603.518 473.900-1627.598  0.00  0.00    -0.337 N 
ATOM     37  C   ASN d   2    1604.040 474.895-1626.964  0.00  0.00     0.243 C 
ATOM     38  CD  PRO d   3    1602.440 473.107-1627.049  0.00  0.00     0.127 C 
ATOM     39  O   ASN d   2    1604.954 475.526-1627.493  0.00  0.00    -0.271 OA
ATOM     40  CG  PRO d   3    1601.983 472.288-1628.259  0.00  0.00     0.022 C 
ATOM     41  CB  PRO d   3    1603.266 472.136-1629.089  0.00  0.00     0.037 C 
BRANCH  37  42
ATOM     42  CA  ASN d   2    1603.509 475.251-1625.595  0.00  0.00     0.185 C 
BRANCH  42  43
ATOM     43  N   ASN d   2    1602.049 475.289-1625.595  0.00  0.00    -0.346 N 
ATOM     44  C   GLU d   1    1601.445 476.075-1626.420  0.00  0.00     0.242 C 
ATOM     45  O   GLU d   1    1602.120 476.774-1627.189  0.00  0.00    -0.271 OA
ATOM     46  H   ASN d   2    1601.521 474.710-1624.959  0.00  0.00     0.163 HD
BRANCH  44  47
ATOM     47  CA  GLU d   1    1599.936 476.115-1626.420  0.00  0.00     0.191 C 
BRANCH  47  48
ATOM     48  N   GLU d   1    1599.377 474.766-1626.420  0.00  0.00    -0.326 NA
ATOM     49  H   GLU d   1    1600.004 473.887-1626.420  0.00  0.00     0.180 HD
ENDBRANCH  47  48
BRANCH  47  50
ATOM     50  CB  GLU d   1    1599.413 476.900-1625.183  0.00  0.00     0.047 C 
BRANCH  50  51
ATOM     51  CG  GLU d   1    1599.888 478.385-1625.072  0.00  0.00     0.116 C 
BRANCH  51  52
ATOM     52  CD  GLU d   1    1599.464 479.189-1623.857  0.00  0.00     0.172 C 
ATOM     53  OE1 GLU d   1    1598.736 478.687-1622.979  0.00  0.00    -0.648 OA
ATOM     54  OE2 GLU d   1    1599.894 480.359-1623.785  0.00  0.00    -0.648 OA
ENDBRANCH  51  52
ENDBRANCH  50  51
ENDBRANCH  47  50
ENDBRANCH  44  47
ENDBRANCH  42  43
BRANCH  42  55
ATOM     55  CB  ASN d   2    1604.000 474.228-1624.531  0.00  0.00     0.137 C 
BRANCH  55  56
ATOM     56  CG  ASN d   2    1603.538 474.452-1623.088  0.00  0.00     0.217 C 
ATOM     57  ND2 ASN d   2    1604.132 475.367-1622.369  0.00  0.00    -0.370 N 
ATOM     58 21HD ASN d   2    1603.651 475.540-1621.483  0.00  0.00     0.159 HD
ATOM     59 22HD ASN d   2    1604.833 475.938-1622.839  0.00  0.00     0.159 HD
ATOM     60  OD1 ASN d   2    1602.617 473.818-1622.593  0.00  0.00    -0.274 OA
ENDBRANCH  55  56
ENDBRANCH  42  55
ENDBRANCH  37  42
ENDBRANCH  32  35
ENDBRANCH  30  31
BRANCH  30  61
ATOM     61  CB  GLU d   4    1600.519 476.364-1630.888  0.00  0.00     0.045 C 
BRANCH  61  62
ATOM     62  CG  GLU d   4    1599.970 477.368-1631.953  0.00  0.00     0.116 C 
BRANCH  62  63
ATOM     63  CD  GLU d   4    1598.544 477.864-1631.809  0.00  0.00     0.172 C 
ATOM     64  OE1 GLU d   4    1597.818 477.466-1630.878  0.00  0.00    -0.648 OA
ATOM     65  OE2 GLU d   4    1598.154 478.693-1632.658  0.00  0.00    -0.648 OA
ENDBRANCH  62  63
ENDBRANCH  61  62
ENDBRANCH  30  61
ENDBRANCH  27  30
ENDBRANCH  25  26
BRANCH  25  66
ATOM     66  CB  SER d   5    1604.115 479.413-1628.345  0.00  0.00     0.199 C 
BRANCH  66  67
ATOM     67  OG  SER d   5    1604.847 478.533-1627.484  0.00  0.00    -0.398 OA
ATOM     68  HG  SER d   5    1604.358 477.708-1627.433  0.00  0.00     0.209 HD
ENDBRANCH  66  67
ENDBRANCH  25  66
ENDBRANCH  22  25
ENDBRANCH  20  21
BRANCH  20  69
ATOM     69  CB  ILE d   6    1607.879 475.861-1629.994  0.00  0.00     0.013 C 
ATOM     70  CG2 ILE d   6    1609.321 475.560-1630.509  0.00  0.00     0.012 C 
BRANCH  69  71
ATOM     71  CG1 ILE d   6    1607.899 475.799-1628.433  0.00  0.00     0.002 C 
ATOM     72  CD1 ILE d   6    1608.169 474.410-1627.818  0.00  0.00     0.005 C 
ENDBRANCH  69  71
ENDBRANCH  20  69
ENDBRANCH  17  20
ENDBRANCH  15  16
BRANCH  15  73
ATOM     73  CB  LEU d   7    1605.018 475.601-1634.614  0.00  0.00     0.038 C 
BRANCH  73  74
ATOM     74  CG  LEU d   7    1604.946 474.121-1634.148  0.00  0.00    -0.020 C 
ATOM     75  CD1 LEU d   7    1603.756 473.415-1634.813  0.00  0.00     0.009 C 
ATOM     76  CD2 LEU d   7    1606.239 473.342-1634.440  0.00  0.00     0.009 C 
ENDBRANCH  73  74
ENDBRANCH  15  73
ENDBRANCH  12  15
ENDBRANCH  10  11
BRANCH  10  77
ATOM     77  CB  ASP d   8    1604.163 480.885-1634.010  0.00  0.00     0.147 C 
BRANCH  77  78
ATOM     78  CG  ASP d   8    1603.944 482.306-1634.550  0.00  0.00     0.175 C 
ATOM     79  OD1 ASP d   8    1604.008 482.505-1635.781  0.00  0.00    -0.648 OA
ATOM     80  OD2 ASP d   8    1603.752 483.232-1633.735  0.00  0.00    -0.648 OA
ENDBRANCH  77  78
ENDBRANCH  10  77
ENDBRANCH   7  10
ENDBRANCH   5   6
BRANCH   5  81
ATOM     81  CB  GLU d   9    1609.204 481.126-1632.139  0.00  0.00     0.045 C 
BRANCH  81  82
ATOM     82  CG  GLU d   9    1610.586 481.818-1631.910  0.00  0.00     0.116 C 
BRANCH  82  83
ATOM     83  CD  GLU d   9    1611.288 481.604-1630.581  0.00  0.00     0.172 C 
ATOM     84  OE1 GLU d   9    1610.767 480.913-1629.685  0.00  0.00    -0.648 OA
ATOM     85  OE2 GLU d   9    1612.407 482.142-1630.450  0.00  0.00    -0.648 OA
ENDBRANCH  82  83
ENDBRANCH  81  82
ENDBRANCH   5  81
ENDBRANCH   1   5
BRANCH   3  86
ATOM     86  CA  HIS d  10    1610.472 479.021-1635.832  0.00  0.00     0.182 C 
BRANCH  86  87
ATOM     87  C   HIS d  10    1610.105 479.586-1637.182  0.00  0.00     0.241 C 
ATOM     88  O   HIS d  10    1610.958 480.051-1637.954  0.00  0.00    -0.271 OA
ATOM     89  N   VAL d  11    1608.867 479.586-1637.545  0.00  0.00    -0.346 N 
ATOM     90  H   VAL d  11    1608.155 479.212-1636.935  0.00  0.00     0.163 HD
BRANCH  89  91
ATOM     91  CA  VAL d  11    1608.512 480.132-1638.852  0.00  0.00     0.180 C 
BRANCH  91  92
ATOM     92  C   VAL d  11    1608.977 481.563-1638.983  0.00  0.00     0.241 C 
ATOM     93  O   VAL d  11    1609.577 481.969-1639.986  0.00  0.00    -0.271 OA
ATOM     94  N   GLN d  12    1608.740 482.388-1638.021  0.00  0.00    -0.346 N 
ATOM     95  H   GLN d  12    1608.251 482.081-1637.191  0.00  0.00     0.163 HD
BRANCH  94  96
ATOM     96  CA  GLN d  12    1609.188 483.771-1638.147  0.00  0.00     0.177 C 
BRANCH  96  97
ATOM     97  C   GLN d  12    1610.678 483.839-1638.385  0.00  0.00     0.241 C 
ATOM     98  O   GLN d  12    1611.165 484.548-1639.263  0.00  0.00    -0.271 OA
ATOM     99  N   ARG d  13    1611.463 483.131-1637.644  0.00  0.00    -0.346 N 
ATOM    100  H   ARG d  13    1611.087 482.541-1636.916  0.00  0.00     0.163 HD
BRANCH  99 101
ATOM    101  CA  ARG d  13    1612.903 483.197-1637.875  0.00  0.00     0.176 C 
BRANCH 101 102
ATOM    102  C   ARG d  13    1613.239 482.827-1639.300  0.00  0.00     0.241 C 
ATOM    103  O   ARG d  13    1614.008 483.499-1639.984  0.00  0.00    -0.271 OA
ATOM    104  N   VAL d  14    1612.703 481.773-1639.816  0.00  0.00    -0.346 N 
ATOM    105  H   VAL d  14    1612.068 481.204-1639.274  0.00  0.00     0.163 HD
BRANCH 104 106
ATOM    106  CA  VAL d  14    1613.028 481.415-1641.193  0.00  0.00     0.180 C 
BRANCH 106 107
ATOM    107  C   VAL d  14    1612.698 482.545-1642.138  0.00  0.00     0.241 C 
ATOM    108  O   VAL d  14    1613.491 482.928-1643.008  0.00  0.00    -0.271 OA
ATOM    109  N   MET d  15    1611.553 483.131-1642.036  0.00  0.00    -0.346 N 
ATOM    110  H   MET d  15    1610.888 482.838-1641.335  0.00  0.00     0.163 HD
BRANCH 109 111
ATOM    111  CA  MET d  15    1611.233 484.224-1642.949  0.00  0.00     0.177 C 
BRANCH 111 112
ATOM    112  C   MET d  15    1612.263 485.324-1642.860  0.00  0.00     0.241 C 
ATOM    113  O   MET d  15    1612.765 485.836-1643.873  0.00  0.00    -0.271 OA
ATOM    114  N   ARG d  16    1612.631 485.745-1641.698  0.00  0.00    -0.347 N 
ATOM    115  H   ARG d  16    1612.236 485.344-1640.859  0.00  0.00     0.163 HD
BRANCH 114 116
ATOM    116  CA  ARG d  16    1613.628 486.808-1641.614  0.00  0.00     0.162 C 
BRANCH 116 117
ATOM    117  C   ARG d  16    1614.898 486.416-1642.330  0.00  0.00     0.219 C 
ATOM    118  O   ARG d  16    1615.012 485.340-1642.912  0.00  0.00    -0.287 OA
ENDBRANCH 116 117
BRANCH 116 119
ATOM    119  CB  ARG d  16    1613.897 487.125-1640.115  0.00  0.00     0.035 C 
BRANCH 119 120
ATOM    120  CG  ARG d  16    1614.722 488.414-1639.841  0.00  0.00     0.023 C 
BRANCH 120 121
ATOM    121  CD  ARG d  16    1614.972 488.633-1638.340  0.00  0.00     0.138 C 
BRANCH 121 122
ATOM    122  NE  ARG d  16    1615.748 489.891-1638.138  0.00  0.00    -0.227 N 
ATOM    123  CZ  ARG d  16    1616.139 490.373-1636.962  0.00  0.00     0.665 C 
ATOM    124  NH1 ARG d  16    1615.891 489.788-1635.824  0.00  0.00    -0.235 N 
ATOM    125  NH2 ARG d  16    1616.803 491.486-1636.943  0.00  0.00    -0.235 N 
ATOM    126 11HH ARG d  16    1615.366 488.915-1635.909  0.00  0.00     0.174 HD
ATOM    127 12HH ARG d  16    1616.226 490.223-1634.963  0.00  0.00     0.174 HD
ATOM    128 21HH ARG d  16    1616.988 491.929-1637.844  0.00  0.00     0.174 HD
ATOM    129 22HH ARG d  16    1617.093 491.840-1636.030  0.00  0.00     0.174 HD
ATOM    130  HE  ARG d  16    1616.026 490.473-1638.935  0.00  0.00     0.177 HD
ENDBRANCH 121 122
ENDBRANCH 120 121
ENDBRANCH 119 120
ENDBRANCH 116 119
ENDBRANCH 114 116
ENDBRANCH 111 112
BRANCH 111 131
ATOM    131  CB  MET d  15    1609.811 484.770-1642.640  0.00  0.00     0.045 C 
BRANCH 131 132
ATOM    132  CG  MET d  15    1608.649 483.772-1642.833  0.00  0.00     0.076 C 
BRANCH 132 133
ATOM    133  SD  MET d  15    1607.075 484.638-1642.718  0.00  0.00    -0.173 SA
ATOM    134  CE  MET d  15    1605.994 483.208-1642.583  0.00  0.00     0.089 C 
ENDBRANCH 132 133
ENDBRANCH 131 132
ENDBRANCH 111 131
ENDBRANCH 109 111
ENDBRANCH 106 107
BRANCH 106 135
ATOM    135  CB  VAL d  14    1612.255 480.098-1641.601  0.00  0.00     0.009 C 
ATOM    136  CG1 VAL d  14    1612.344 479.681-1643.095  0.00  0.00     0.012 C 
ATOM    137  CG2 VAL d  14    1612.687 478.845-1640.802  0.00  0.00     0.012 C 
ENDBRANCH 106 135
ENDBRANCH 104 106
ENDBRANCH 101 102
BRANCH 101 138
ATOM    138  CB  ARG d  13    1613.616 482.258-1636.862  0.00  0.00     0.036 C 
BRANCH 138 139
ATOM    139  CG  ARG d  13    1615.161 482.411-1636.781  0.00  0.00     0.023 C 
BRANCH 139 140
ATOM    140  CD  ARG d  13    1615.788 481.423-1635.784  0.00  0.00     0.138 C 
BRANCH 140 141
ATOM    141  NE  ARG d  13    1617.266 481.630-1635.733  0.00  0.00    -0.227 N 
ATOM    142  CZ  ARG d  13    1618.114 480.938-1634.979  0.00  0.00     0.665 C 
ATOM    143  NH1 ARG d  13    1617.749 479.973-1634.182  0.00  0.00    -0.235 N 
ATOM    144  NH2 ARG d  13    1619.373 481.237-1635.036  0.00  0.00    -0.235 N 
ATOM    145 11HH ARG d  13    1616.743 479.786-1634.185  0.00  0.00     0.174 HD
ATOM    146 12HH ARG d  13    1618.462 479.489-1633.634  0.00  0.00     0.174 HD
ATOM    147 21HH ARG d  13    1619.641 481.995-1635.666  0.00  0.00     0.174 HD
ATOM    148 22HH ARG d  13    1620.008 480.695-1634.447  0.00  0.00     0.174 HD
ATOM    149  HE  ARG d  13    1617.717 482.352-1636.304  0.00  0.00     0.177 HD
ENDBRANCH 140 141
ENDBRANCH 139 140
ENDBRANCH 138 139
ENDBRANCH 101 138
ENDBRANCH  99 101
ENDBRANCH  96  97
BRANCH  96 150
ATOM    150  CB  GLN d  12    1608.797 484.538-1636.863  0.00  0.00     0.044 C 
BRANCH 150 151
ATOM    151  CG  GLN d  12    1609.157 486.060-1636.831  0.00  0.00     0.105 C 
BRANCH 151 152
ATOM    152  CD  GLN d  12    1608.855 486.872-1635.566  0.00  0.00     0.215 C 
ATOM    153  NE2 GLN d  12    1608.288 486.295-1634.537  0.00  0.00    -0.370 N 
ATOM    154 21HE GLN d  12    1608.181 486.889-1633.713  0.00  0.00     0.159 HD
ATOM    155 22HE GLN d  12    1608.125 485.291-1634.641  0.00  0.00     0.159 HD
ATOM    156  OE1 GLN d  12    1609.157 488.053-1635.488  0.00  0.00    -0.274 OA
ENDBRANCH 151 152
ENDBRANCH 150 151
ENDBRANCH  96 150
ENDBRANCH  94  96
ENDBRANCH  91  92
BRANCH  91 157
ATOM    157  CB  VAL d  11    1606.951 480.026-1639.071  0.00  0.00     0.009 C 
ATOM    158  CG1 VAL d  11    1606.382 480.731-1640.333  0.00  0.00     0.012 C 
ATOM    159  CG2 VAL d  11    1606.426 478.572-1639.145  0.00  0.00     0.012 C 
ENDBRANCH  91 157
ENDBRANCH  89  91
ENDBRANCH  86  87
BRANCH  86 160
ATOM    160  CB  HIS d  10    1610.308 477.492-1635.828  0.00  0.00     0.095 C 
BRANCH 160 161
ATOM    161  CG  HIS d  10    1611.594 476.781-1635.520  0.00  0.00     0.053 A 
ATOM    162  CD2 HIS d  10    1611.975 476.445-1634.228  0.00  0.00     0.116 A 
ATOM    163  NE2 HIS d  10    1613.190 475.814-1634.295  0.00  0.00    -0.359 N 
ATOM    164  CE1 HIS d  10    1613.452 475.817-1635.630  0.00  0.00     0.207 A 
ATOM    165  2HE HIS d  10    1613.756 475.436-1633.522  0.00  0.00     0.166 HD
ATOM    166  ND1 HIS d  10    1612.546 476.376-1636.453  0.00  0.00    -0.247 NA
ENDBRANCH 160 161
ENDBRANCH  86 160
ENDBRANCH   3  86
TORSDOF 68
