@<TRIPOS>MOLECULE
11-5
266 267 16              
SMALL
USER_CHARGES
@<TRIPOS>ATOM
1	   N	1714.108	512.622	-1750.867	N.3	1	GLU1	-0.516	
2	  CA	1714.667	513.971	-1750.867	C.3	1	GLU1	0.040	
3	   C	1716.176	513.931	-1750.867	C.2	1	GLU1	0.537	
4	   O	1716.852	514.630	-1751.635	O.2	1	GLU1	-0.582	
5	  CB	1714.144	514.756	-1749.630	C.3	1	GLU1	0.056	
6	  CG	1714.619	516.241	-1749.519	C.3	1	GLU1	0.014	
7	  CD	1714.195	517.045	-1748.303	C.2	1	GLU1	0.805	
8	 OE1	1713.467	516.543	-1747.426	O.co2	1	GLU1	-0.819	
9	 OE2	1714.625	518.215	-1748.232	O.co2	1	GLU1	-0.819	
10	   H	1714.735	511.743	-1750.867	 H	1	GLU1	0.294	
11	  HA	1714.341	514.489	-1751.786	 H	1	GLU1	0.111	
12	 2HB	1714.433	514.225	-1748.700	 H	1	GLU1	-0.017	
13	 3HB	1713.037	514.746	-1749.617	 H	1	GLU1	-0.017	
14	 2HG	1714.309	516.826	-1750.400	 H	1	GLU1	-0.043	
15	 3HG	1715.719	516.308	-1749.490	 H	1	GLU1	-0.043	
16	   N	1716.781	513.146	-1750.041	N.am	2	ASN2	-0.416	
17	  CA	1718.240	513.107	-1750.041	C.3	2	ASN2	0.014	
18	   C	1718.771	512.751	-1751.410	C.2	2	ASN2	0.597	
19	   O	1719.686	513.382	-1751.939	O.2	2	ASN2	-0.568	
20	  CB	1718.732	512.084	-1748.977	C.3	2	ASN2	-0.204	
21	  CG	1718.269	512.308	-1747.534	C.2	2	ASN2	0.713	
22	 ND2	1718.863	513.223	-1746.816	N.pl3	2	ASN2	-0.919	
23	 OD1	1717.348	511.674	-1747.040	O.2	2	ASN2	-0.593	
24	   H	1716.252	512.566	-1749.405	 H	2	ASN2	0.272	
25	  HA	1718.617	514.117	-1749.796	 H	2	ASN2	0.105	
26	 2HB	1719.836	512.025	-1748.981	 H	2	ASN2	0.080	
27	 3HB	1718.403	511.066	-1749.263	 H	2	ASN2	0.080	
28	1HD2	1718.382	513.396	-1745.929	 H	2	ASN2	0.420	
29	2HD2	1719.565	513.794	-1747.285	 H	2	ASN2	0.420	
30	   N	1718.249	511.756	-1752.044	N.am	3	PRO3	-0.255	
31	  CA	1718.701	511.347	-1753.366	C.3	3	PRO3	-0.027	
32	   C	1718.303	512.370	-1754.443	C.2	3	PRO3	0.590	
33	   O	1719.126	512.754	-1755.274	O.2	3	PRO3	-0.575	
34	  CB	1717.997	509.992	-1753.535	C.3	3	PRO3	-0.007	
35	  CG	1716.714	510.145	-1752.705	C.3	3	PRO3	0.019	
36	  CD	1717.172	510.963	-1751.495	C.3	3	PRO3	0.019	
37	  HA	1719.787	511.227	-1753.379	 H	3	PRO3	0.064	
38	 2HB	1718.620	509.211	-1753.094	 H	3	PRO3	0.025	
39	 3HB	1717.799	509.744	-1754.580	 H	3	PRO3	0.025	
40	 2HG	1716.286	509.182	-1752.414	 H	3	PRO3	0.021	
41	 3HG	1715.976	510.715	-1753.272	 H	3	PRO3	0.021	
42	 2HD	1717.561	510.314	-1750.707	 H	3	PRO3	0.039	
43	 3HD	1716.375	511.599	-1751.102	 H	3	PRO3	0.039	
44	   N	1717.098	512.830	-1754.475	N.am	4	GLU4	-0.516	
45	  CA	1716.739	513.801	-1755.504	C.3	4	GLU4	0.040	
46	   C	1717.638	515.012	-1755.443	C.2	4	GLU4	0.537	
47	   O	1718.164	515.492	-1756.458	O.2	4	GLU4	-0.582	
48	  CB	1715.250	514.220	-1755.334	C.3	4	GLU4	0.056	
49	  CG	1714.702	515.224	-1756.400	C.3	4	GLU4	0.014	
50	  CD	1713.276	515.721	-1756.256	C.2	4	GLU4	0.805	
51	 OE1	1712.549	515.322	-1755.325	O.co2	4	GLU4	-0.819	
52	 OE2	1712.886	516.550	-1757.105	O.co2	4	GLU4	-0.819	
53	   H	1716.414	512.524	-1753.798	 H	4	GLU4	0.294	
54	  HA	1716.870	513.331	-1756.496	 H	4	GLU4	0.111	
55	 2HB	1715.098	514.660	-1754.327	 H	4	GLU4	-0.017	
56	 3HB	1714.603	513.323	-1755.341	 H	4	GLU4	-0.017	
57	 2HG	1714.784	514.809	-1757.418	 H	4	GLU4	-0.043	
58	 3HG	1715.290	516.156	-1756.411	 H	4	GLU4	-0.043	
59	   N	1717.865	515.565	-1754.300	N.am	5	SER5	-0.416	
60	  CA	1718.735	516.737	-1754.242	C.3	5	SER5	-0.025	
61	   C	1720.094	516.431	-1754.827	C.2	5	SER5	0.597	
62	   O	1720.641	517.184	-1755.632	O.2	5	SER5	-0.568	
63	  CB	1718.846	517.269	-1752.791	C.3	5	SER5	0.212	
64	  OG	1719.578	516.390	-1751.930	O.3	5	SER5	-0.655	
65	   H	1717.448	515.194	-1753.459	 H	5	SER5	0.272	
66	  HA	1718.285	517.527	-1754.871	 H	5	SER5	0.084	
67	 2HB	1717.846	517.463	-1752.358	 H	5	SER5	0.035	
68	 3HB	1719.351	518.255	-1752.794	 H	5	SER5	0.035	
69	  HG	1719.089	515.565	-1751.880	 H	5	SER5	0.428	
70	   N	1720.698	515.348	-1754.473	N.am	6	ILE6	-0.416	
71	  CA	1722.011	515.053	-1755.039	C.3	6	ILE6	-0.060	
72	   C	1721.954	515.016	-1756.547	C.2	6	ILE6	0.597	
73	   O	1722.789	515.604	-1757.251	O.2	6	ILE6	-0.568	
74	  CB	1722.611	513.717	-1754.439	C.3	6	ILE6	0.130	
75	 CG1	1722.631	513.655	-1752.878	C.3	6	ILE6	-0.043	
76	 CG2	1724.053	513.416	-1754.955	C.3	6	ILE6	-0.320	
77	 CD1	1722.901	512.266	-1752.263	C.3	6	ILE6	-0.066	
78	   H	1720.270	514.714	-1753.814	 H	6	ILE6	0.272	
79	  HA	1722.685	515.888	-1754.771	 H	6	ILE6	0.087	
80	  HB	1721.954	512.891	-1754.783	 H	6	ILE6	0.019	
81	2HG1	1721.649	513.975	-1752.482	 H	6	ILE6	0.024	
82	3HG1	1723.347	514.397	-1752.474	 H	6	ILE6	0.024	
83	1HG2	1724.111	513.322	-1756.053	 H	6	ILE6	0.088	
84	2HG2	1724.775	514.198	-1754.652	 H	6	ILE6	0.088	
85	3HG2	1724.443	512.453	-1754.576	 H	6	ILE6	0.088	
86	1HD1	1722.173	511.512	-1752.618	 H	6	ILE6	0.019	
87	2HD1	1723.912	511.887	-1752.499	 H	6	ILE6	0.019	
88	3HD1	1722.825	512.296	-1751.161	 H	6	ILE6	0.019	
89	   N	1721.009	514.352	-1757.121	N.am	7	LEU7	-0.416	
90	  CA	1720.954	514.316	-1758.579	C.3	7	LEU7	-0.052	
91	   C	1720.881	515.711	-1759.152	C.2	7	LEU7	0.597	
92	   O	1721.602	516.074	-1760.094	O.2	7	LEU7	-0.568	
93	  CB	1719.751	513.456	-1759.060	C.3	7	LEU7	-0.110	
94	  CG	1719.678	511.976	-1758.593	C.3	7	LEU7	0.353	
95	 CD1	1718.488	511.270	-1759.259	C.3	7	LEU7	-0.412	
96	 CD2	1720.972	511.197	-1758.885	C.3	7	LEU7	-0.412	
97	   H	1720.317	513.865	-1756.569	 H	7	LEU7	0.272	
98	  HA	1721.896	513.876	-1758.953	 H	7	LEU7	0.092	
99	 2HB	1719.727	513.472	-1760.167	 H	7	LEU7	0.046	
100	 3HB	1718.811	513.958	-1758.755	 H	7	LEU7	0.046	
101	  HG	1719.508	511.968	-1757.496	 H	7	LEU7	-0.036	
102	1HD1	1717.531	511.779	-1759.036	 H	7	LEU7	0.100	
103	2HD1	1718.588	511.230	-1760.360	 H	7	LEU7	0.100	
104	3HD1	1718.382	510.229	-1758.903	 H	7	LEU7	0.100	
105	1HD2	1721.247	511.228	-1759.955	 H	7	LEU7	0.100	
106	2HD2	1721.825	511.609	-1758.314	 H	7	LEU7	0.100	
107	3HD2	1720.891	510.135	-1758.589	 H	7	LEU7	0.100	
108	   N	1720.043	516.552	-1758.646	N.am	8	ASP8	-0.516	
109	  CA	1719.973	517.901	-1759.199	C.3	8	ASP8	0.038	
110	   C	1721.319	518.581	-1759.141	C.2	8	ASP8	0.537	
111	   O	1721.792	519.187	-1760.116	O.2	8	ASP8	-0.582	
112	  CB	1718.895	518.740	-1758.457	C.3	8	ASP8	-0.030	
113	  CG	1718.676	520.161	-1758.997	C.2	8	ASP8	0.799	
114	 OD1	1718.740	520.360	-1760.228	O.co2	8	ASP8	-0.801	
115	 OD2	1718.483	521.086	-1758.181	O.co2	8	ASP8	-0.801	
116	   H	1719.446	516.280	-1757.878	 H	8	ASP8	0.294	
117	  HA	1719.690	517.823	-1760.266	 H	8	ASP8	0.088	
118	 2HB	1719.152	518.823	-1757.385	 H	8	ASP8	-0.012	
119	 3HB	1717.916	518.235	-1758.490	 H	8	ASP8	-0.012	
120	   N	1721.999	518.531	-1758.046	N.am	9	GLU9	-0.516	
121	  CA	1723.302	519.189	-1757.990	C.3	9	GLU9	0.040	
122	   C	1724.220	518.662	-1759.066	C.2	9	GLU9	0.537	
123	   O	1724.884	519.417	-1759.791	O.2	9	GLU9	-0.582	
124	  CB	1723.935	518.982	-1756.585	C.3	9	GLU9	0.056	
125	  CG	1725.317	519.674	-1756.355	C.3	9	GLU9	0.014	
126	  CD	1726.019	519.461	-1755.027	C.2	9	GLU9	0.805	
127	 OE1	1725.498	518.770	-1754.131	O.co2	9	GLU9	-0.819	
128	 OE2	1727.138	519.999	-1754.895	O.co2	9	GLU9	-0.819	
129	   H	1721.636	518.045	-1757.239	 H	9	GLU9	0.294	
130	  HA	1723.159	520.271	-1758.166	 H	9	GLU9	0.111	
131	 2HB	1724.048	517.897	-1756.382	 H	9	GLU9	-0.017	
132	 3HB	1723.238	519.335	-1755.801	 H	9	GLU9	-0.017	
133	 2HG	1725.245	520.765	-1756.495	 H	9	GLU9	-0.043	
134	 3HG	1726.064	519.330	-1757.089	 H	9	GLU9	-0.043	
135	   N	1724.317	517.387	-1759.236	N.am	10	HIS10	-0.416	
136	  CA	1725.205	516.877	-1760.276	C.3	10	HIS10	-0.058	
137	   C	1724.839	517.442	-1761.628	C.2	10	HIS10	0.597	
138	   O	1725.691	517.907	-1762.399	O.2	10	HIS10	-0.568	
139	  CB	1725.042	515.348	-1760.272	C.3	10	HIS10	-0.007	
140	  CG	1726.328	514.638	-1759.964	C.2	10	HIS10	0.187	
141	 CD2	1726.709	514.302	-1758.672	C.2	10	HIS10	-0.221	
142	 ND1	1727.281	514.233	-1760.897	N.2	10	HIS10	-0.543	
143	 CE1	1728.187	513.675	-1760.073	C.2	10	HIS10	0.163	
144	 NE2	1727.924	513.671	-1758.738	N.pl3	10	HIS10	-0.280	
145	   H	1723.786	516.751	-1758.658	 H	10	HIS10	0.272	
146	  HA	1726.224	517.235	-1760.051	 H	10	HIS10	0.136	
147	 2HB	1724.677	514.981	-1761.252	 H	10	HIS10	0.037	
148	 3HB	1724.286	515.010	-1759.532	 H	10	HIS10	0.037	
149	 2HD	1726.123	514.517	-1757.782	 H	10	HIS10	0.186	
150	 1HE	1729.078	513.255	-1760.520	 H	10	HIS10	0.144	
151	 2HE	1728.491	513.294	-1757.965	 H	10	HIS10	0.334	
152	   N	1723.601	517.440	-1761.991	N.am	11	MET11	-0.416	
153	  CA	1723.245	517.986	-1763.297	C.3	11	MET11	-0.024	
154	   C	1723.708	519.417	-1763.431	C.2	11	MET11	0.597	
155	   O	1724.309	519.821	-1764.438	O.2	11	MET11	-0.568	
156	  CB	1721.710	517.877	-1763.514	C.3	11	MET11	0.034	
157	  CG	1721.133	516.445	-1763.539	C.3	11	MET11	0.002	
158	  SD	1719.418	516.488	-1764.085	S.3	11	MET11	-0.274	
159	  CE	1718.953	514.812	-1763.633	C.3	11	MET11	-0.054	
160	   H	1722.888	517.067	-1761.380	 H	11	MET11	0.272	
161	  HA	1723.767	517.402	-1764.078	 H	11	MET11	0.088	
162	 2HB	1721.440	518.365	-1764.470	 H	11	MET11	0.024	
163	 3HB	1721.178	518.461	-1762.737	 H	11	MET11	0.024	
164	 2HG	1721.185	515.998	-1762.529	 H	11	MET11	0.044	
165	 3HG	1721.713	515.785	-1764.210	 H	11	MET11	0.044	
166	 1HE	1719.623	514.073	-1764.109	 H	11	MET11	0.068	
167	 2HE	1719.011	514.678	-1762.538	 H	11	MET11	0.068	
168	 3HE	1717.918	514.598	-1763.952	 H	11	MET11	0.068	
169	   N	1723.471	520.244	-1762.470	N.am	12	GLN12	-0.416	
170	  CA	1723.918	521.627	-1762.600	C.3	12	GLN12	-0.003	
171	   C	1725.408	521.695	-1762.839	C.2	12	GLN12	0.597	
172	   O	1725.894	522.402	-1763.719	O.2	12	GLN12	-0.568	
173	  CB	1723.528	522.396	-1761.318	C.3	12	GLN12	-0.004	
174	  CG	1723.887	523.918	-1761.289	C.3	12	GLN12	-0.064	
175	  CD	1723.585	524.734	-1760.026	C.2	12	GLN12	0.695	
176	 NE2	1723.019	524.159	-1758.995	N.pl3	12	GLN12	-0.941	
177	 OE1	1723.886	525.915	-1759.950	O.2	12	GLN12	-0.609	
178	   H	1722.983	519.939	-1761.640	 H	12	GLN12	0.272	
179	  HA	1723.418	522.081	-1763.475	 H	12	GLN12	0.085	
180	 2HB	1724.005	521.898	-1760.448	 H	12	GLN12	0.017	
181	 3HB	1722.438	522.288	-1761.153	 H	12	GLN12	0.017	
182	 2HG	1723.408	524.437	-1762.141	 H	12	GLN12	0.035	
183	 3HG	1724.970	524.061	-1761.456	 H	12	GLN12	0.035	
184	1HE2	1722.912	524.754	-1758.173	 H	12	GLN12	0.425	
185	2HE2	1722.856	523.155	-1759.097	 H	12	GLN12	0.425	
186	   N	1726.194	520.990	-1762.098	N.am	13	ARG13	-0.348	
187	  CA	1727.634	521.057	-1762.330	C.3	13	ARG13	-0.264	
188	   C	1727.969	520.683	-1763.755	C.2	13	ARG13	0.734	
189	   O	1728.736	521.355	-1764.440	O.2	13	ARG13	-0.589	
190	  CB	1728.349	520.120	-1761.315	C.3	13	ARG13	-0.001	
191	  CG	1729.894	520.275	-1761.236	C.3	13	ARG13	0.039	
192	  CD	1730.523	519.290	-1760.237	C.3	13	ARG13	0.049	
193	  NE	1732.000	519.498	-1760.188	N.pl3	13	ARG13	-0.530	
194	  CZ	1732.849	518.809	-1759.433	C.cat	13	ARG13	0.808	
195	 NH1	1732.486	517.845	-1758.634	N.pl3	13	ARG13	-0.863	
196	 NH2	1734.108	519.109	-1759.491	N.pl3	13	ARG13	-0.863	
197	   H	1725.819	520.401	-1761.368	 H	13	ARG13	0.275	
198	  HA	1727.957	522.104	-1762.173	 H	13	ARG13	0.156	
199	 2HB	1728.083	519.069	-1761.552	 H	13	ARG13	0.033	
200	 3HB	1727.925	520.288	-1760.304	 H	13	ARG13	0.033	
201	 2HG	1730.141	521.320	-1760.958	 H	13	ARG13	0.029	
202	 3HG	1730.344	520.118	-1762.238	 H	13	ARG13	0.029	
203	 2HD	1730.279	518.249	-1760.544	 H	13	ARG13	0.069	
204	 3HD	1730.067	519.436	-1759.234	 H	13	ARG13	0.069	
205	  HE	1732.450	520.220	-1760.761	 H	13	ARG13	0.346	
206	1HH1	1731.481	517.658	-1758.635	 H	13	ARG13	0.448	
207	2HH1	1733.200	517.364	-1758.085	 H	13	ARG13	0.448	
208	1HH2	1734.375	519.866	-1760.124	 H	13	ARG13	0.448	
209	2HH2	1734.745	518.569	-1758.902	 H	13	ARG13	0.448	
210	   N	1727.433	519.628	-1764.267	N.am	14	VAL14	-0.416	
211	  CA	1727.757	519.266	-1765.644	C.3	14	VAL14	-0.087	
212	   C	1727.425	520.395	-1766.591	C.2	14	VAL14	0.597	
213	   O	1728.218	520.775	-1767.462	O.2	14	VAL14	-0.568	
214	  CB	1726.986	517.948	-1766.048	C.3	14	VAL14	0.299	
215	 CG1	1727.074	517.527	-1767.541	C.3	14	VAL14	-0.319	
216	 CG2	1727.419	516.697	-1765.246	C.3	14	VAL14	-0.319	
217	   H	1726.799	519.059	-1763.723	 H	14	VAL14	0.272	
218	  HA	1728.846	519.090	-1765.719	 H	14	VAL14	0.097	
219	  HB	1725.909	518.118	-1765.832	 H	14	VAL14	-0.030	
220	1HG1	1728.115	517.351	-1767.871	 H	14	VAL14	0.079	
221	2HG1	1726.502	516.603	-1767.752	 H	14	VAL14	0.079	
222	3HG1	1726.643	518.288	-1768.220	 H	14	VAL14	0.079	
223	1HG2	1727.333	516.857	-1764.156	 H	14	VAL14	0.079	
224	2HG2	1726.784	515.820	-1765.477	 H	14	VAL14	0.079	
225	3HG2	1728.467	516.408	-1765.452	 H	14	VAL14	0.079	
226	   N	1726.280	520.980	-1766.489	N.am	15	MET15	-0.416	
227	  CA	1725.958	522.071	-1767.404	C.3	15	MET15	-0.024	
228	   C	1726.987	523.172	-1767.320	C.2	15	MET15	0.597	
229	   O	1727.488	523.681	-1768.334	O.2	15	MET15	-0.568	
230	  CB	1724.536	522.615	-1767.095	C.3	15	MET15	0.034	
231	  CG	1723.375	521.616	-1767.284	C.3	15	MET15	0.002	
232	  SD	1721.801	522.481	-1767.169	S.3	15	MET15	-0.274	
233	  CE	1720.721	521.050	-1767.029	C.3	15	MET15	-0.054	
234	   H	1725.616	520.687	-1765.787	 H	15	MET15	0.272	
235	  HA	1725.983	521.682	-1768.440	 H	15	MET15	0.088	
236	 2HB	1724.333	523.493	-1767.738	 H	15	MET15	0.024	
237	 3HB	1724.502	523.010	-1766.059	 H	15	MET15	0.024	
238	 2HG	1723.420	520.831	-1766.505	 H	15	MET15	0.044	
239	 3HG	1723.437	521.099	-1768.259	 H	15	MET15	0.044	
240	 1HE	1720.864	520.361	-1767.880	 H	15	MET15	0.068	
241	 2HE	1720.931	520.499	-1766.095	 H	15	MET15	0.068	
242	 3HE	1719.663	521.365	-1767.011	 H	15	MET15	0.068	
243	   N	1727.357	523.595	-1766.158	N.am	16	ARG16	-0.348	
244	  CA	1728.352	524.660	-1766.078	C.3	16	ARG16	-0.264	
245	   C	1729.623	524.267	-1766.794	C.2	16	ARG16	0.734	
246	   O	1729.737	523.190	-1767.374	O.2	16	ARG16	-0.589	
247	  CB	1728.623	524.980	-1764.580	C.3	16	ARG16	-0.001	
248	  CG	1729.447	526.271	-1764.310	C.3	16	ARG16	0.039	
249	  CD	1729.698	526.492	-1762.809	C.3	16	ARG16	0.049	
250	  NE	1730.473	527.753	-1762.611	N.pl3	16	ARG16	-0.530	
251	  CZ	1730.865	528.237	-1761.437	C.cat	16	ARG16	0.808	
252	 NH1	1730.619	527.654	-1760.297	N.pl3	16	ARG16	-0.863	
253	 NH2	1731.528	529.350	-1761.421	N.pl3	16	ARG16	-0.863	
254	   H	1726.963	523.196	-1765.318	 H	16	ARG16	0.275	
255	  HA	1727.942	525.551	-1766.588	 H	16	ARG16	0.156	
256	 2HB	1729.121	524.106	-1764.113	 H	16	ARG16	0.033	
257	 3HB	1727.654	525.061	-1764.045	 H	16	ARG16	0.033	
258	 2HG	1728.915	527.140	-1764.748	 H	16	ARG16	0.029	
259	 3HG	1730.420	526.218	-1764.840	 H	16	ARG16	0.029	
260	 2HD	1730.248	525.619	-1762.395	 H	16	ARG16	0.069	
261	 3HD	1728.726	526.535	-1762.273	 H	16	ARG16	0.069	
262	  HE	1730.750	528.333	-1763.410	 H	16	ARG16	0.346	
263	1HH1	1730.094	526.781	-1760.380	 H	16	ARG16	0.448	
264	2HH1	1730.954	528.092	-1759.437	 H	16	ARG16	0.448	
265	1HH2	1731.712	529.792	-1762.323	 H	16	ARG16	0.448	
266	2HH2	1731.819	529.707	-1760.509	 H	16	ARG16	0.448	
@<TRIPOS>BOND
1 1 2 1
2 1 10 1
3 2 3 1
4 2 5 1
5 2 11 1
6 3 4 2
7 3 16 1
8 5 6 1
9 6 7 1
10 7 8 2
11 7 9 1
12 5 12 1
13 5 13 1
14 6 14 1
15 6 15 1
16 16 17 1
17 16 24 1
18 17 18 1
19 17 20 1
20 17 25 1
21 18 19 2
22 18 30 1
23 20 21 1
24 21 22 1
25 21 23 2
26 20 26 1
27 20 27 1
28 22 28 1
29 22 29 1
30 30 31 1
31 30 36 1
32 31 32 1
33 31 34 1
34 31 37 1
35 32 33 2
36 32 44 1
37 34 35 1
38 35 36 1
39 34 38 1
40 34 39 1
41 35 40 1
42 35 41 1
43 36 42 1
44 36 43 1
45 44 45 1
46 44 53 1
47 45 46 1
48 45 48 1
49 45 54 1
50 46 47 2
51 46 59 1
52 48 49 1
53 49 50 1
54 50 51 2
55 50 52 1
56 48 55 1
57 48 56 1
58 49 57 1
59 49 58 1
60 59 60 1
61 59 65 1
62 60 61 1
63 60 63 1
64 60 66 1
65 61 62 2
66 61 70 1
67 63 64 1
68 63 67 1
69 63 68 1
70 64 69 1
71 70 71 1
72 70 78 1
73 71 72 1
74 71 74 1
75 71 79 1
76 72 73 2
77 72 89 1
78 74 75 1
79 74 76 1
80 75 77 1
81 74 80 1
82 75 81 1
83 75 82 1
84 76 83 1
85 76 84 1
86 76 85 1
87 77 86 1
88 77 87 1
89 77 88 1
90 89 90 1
91 89 97 1
92 90 91 1
93 90 93 1
94 90 98 1
95 91 92 2
96 91 108 1
97 93 94 1
98 94 95 1
99 94 96 1
100 93 99 1
101 93 100 1
102 94 101 1
103 95 102 1
104 95 103 1
105 95 104 1
106 96 105 1
107 96 106 1
108 96 107 1
109 108 109 1
110 108 116 1
111 109 110 1
112 109 112 1
113 109 117 1
114 110 111 2
115 110 120 1
116 112 113 1
117 113 114 2
118 113 115 1
119 112 118 1
120 112 119 1
121 120 121 1
122 120 129 1
123 121 122 1
124 121 124 1
125 121 130 1
126 122 123 2
127 122 135 1
128 124 125 1
129 125 126 1
130 126 127 2
131 126 128 1
132 124 131 1
133 124 132 1
134 125 133 1
135 125 134 1
136 135 136 1
137 135 145 1
138 136 137 1
139 136 139 1
140 136 146 1
141 137 138 2
142 137 152 1
143 139 140 1
144 140 141 2
145 141 144 1
146 140 142 1
147 142 143 2
148 143 144 1
149 139 147 1
150 139 148 1
151 141 149 1
152 143 150 1
153 144 151 1
154 152 153 1
155 152 160 1
156 153 154 1
157 153 156 1
158 153 161 1
159 154 155 2
160 154 169 1
161 156 157 1
162 157 158 1
163 158 159 1
164 156 162 1
165 156 163 1
166 157 164 1
167 157 165 1
168 159 166 1
169 159 167 1
170 159 168 1
171 169 170 1
172 169 178 1
173 170 171 1
174 170 173 1
175 170 179 1
176 171 172 2
177 171 186 1
178 173 174 1
179 174 175 1
180 175 176 1
181 175 177 2
182 173 180 1
183 173 181 1
184 174 182 1
185 174 183 1
186 176 184 1
187 176 185 1
188 186 187 1
189 186 197 1
190 187 188 1
191 187 190 1
192 187 198 1
193 188 189 2
194 188 210 1
195 190 191 1
196 191 192 1
197 192 193 1
198 193 194 1
199 194 195 2
200 194 196 1
201 190 199 1
202 190 200 1
203 191 201 1
204 191 202 1
205 192 203 1
206 192 204 1
207 193 205 1
208 195 206 1
209 195 207 1
210 196 208 1
211 196 209 1
212 210 211 1
213 210 217 1
214 211 212 1
215 211 214 1
216 211 218 1
217 212 213 2
218 212 226 1
219 214 215 1
220 214 216 1
221 214 219 1
222 215 220 1
223 215 221 1
224 215 222 1
225 216 223 1
226 216 224 1
227 216 225 1
228 226 227 1
229 226 234 1
230 227 228 1
231 227 230 1
232 227 235 1
233 228 229 2
234 228 243 1
235 230 231 1
236 231 232 1
237 232 233 1
238 230 236 1
239 230 237 1
240 231 238 1
241 231 239 1
242 233 240 1
243 233 241 1
244 233 242 1
245 243 244 1
246 243 254 1
247 244 245 1
248 244 247 1
249 244 255 1
250 245 246 2
251 247 248 1
252 248 249 1
253 249 250 1
254 250 251 1
255 251 252 2
256 251 253 1
257 247 256 1
258 247 257 1
259 248 258 1
260 248 259 1
261 249 260 1
262 249 261 1
263 250 262 1
264 252 263 1
265 252 264 1
266 253 265 1
267 253 266 1
@<TRIPOS>SUBSTRUCTURE
1	GLU1	1	RESIDUE	1 ****	GLU
2	ASN2	16	RESIDUE	1 ****	ASN
3	PRO3	30	RESIDUE	1 ****	PRO
4	GLU4	44	RESIDUE	1 ****	GLU
5	SER5	59	RESIDUE	1 ****	SER
6	ILE6	70	RESIDUE	1 ****	ILE
7	LEU7	89	RESIDUE	1 ****	LEU
8	ASP8	108	RESIDUE	1 ****	ASP
9	GLU9	120	RESIDUE	1 ****	GLU
10	HIS10	135	RESIDUE	1 ****	HIS
11	MET11	152	RESIDUE	1 ****	MET
12	GLN12	169	RESIDUE	1 ****	GLN
13	ARG13	186	RESIDUE	1 ****	ARG
14	VAL14	210	RESIDUE	1 ****	VAL
15	MET15	226	RESIDUE	1 ****	MET
16	ARG16	243	RESIDUE	1 ****	ARG
