REMARK WARNING: 32 MAX_TORS EXCEEDED!!!
REMARK  68 active torsions:
REMARK  status: ('A' for Active; 'I' for Inactive)
REMARK    1  A    between atoms: N_1  and  CA_2 
REMARK    2  A    between atoms: CA_2  and  C_3 
REMARK    3  A    between atoms: CA_2  and  CB_5 
REMARK       I    between atoms: C_3  and  N_11 
REMARK    4  A    between atoms: CB_5  and  CG_6 
REMARK    5  A    between atoms: CG_6  and  CD_7 
REMARK    6  A    between atoms: N_11  and  CA_12 
REMARK    7  A    between atoms: CA_12  and  C_13 
REMARK    8  A    between atoms: CA_12  and  CB_15 
REMARK       I    between atoms: C_13  and  N_22 
REMARK    9  A    between atoms: CB_15  and  CG_16 
REMARK       I    between atoms: CG_16  and  ND2_17 
REMARK   10  A    between atoms: CA_23  and  C_24 
REMARK       I    between atoms: C_24  and  N_29 
REMARK   11  A    between atoms: N_29  and  CA_30 
REMARK   12  A    between atoms: CA_30  and  C_31 
REMARK   13  A    between atoms: CA_30  and  CB_33 
REMARK       I    between atoms: C_31  and  N_41 
REMARK   14  A    between atoms: CB_33  and  CG_34 
REMARK   15  A    between atoms: CG_34  and  CD_35 
REMARK       I    between atoms: CD_35  and  NE2_36 
REMARK   16  A    between atoms: N_41  and  CA_42 
REMARK   17  A    between atoms: CA_42  and  C_43 
REMARK   18  A    between atoms: CA_42  and  CB_45 
REMARK       I    between atoms: C_43  and  N_49 
REMARK   19  A    between atoms: CB_45  and  OG_46 
REMARK   20  A    between atoms: N_49  and  CA_50 
REMARK   21  A    between atoms: CA_50  and  C_51 
REMARK   22  A    between atoms: CA_50  and  CB_53 
REMARK       I    between atoms: C_51  and  N_58 
REMARK   23  A    between atoms: CB_53  and  CG1_54 
REMARK   24  A    between atoms: N_58  and  CA_59 
REMARK   25  A    between atoms: CA_59  and  C_60 
REMARK   26  A    between atoms: CA_59  and  CB_62 
REMARK       I    between atoms: C_60  and  N_67 
REMARK   27  A    between atoms: CB_62  and  CG_63 
REMARK   28  A    between atoms: N_67  and  CA_68 
REMARK   29  A    between atoms: CA_68  and  C_69 
REMARK   30  A    between atoms: CA_68  and  CB_71 
REMARK       I    between atoms: C_69  and  N_76 
REMARK   31  A    between atoms: CB_71  and  CG_72 
REMARK   32  A    between atoms: N_76  and  CA_77 
REMARK   33  A    between atoms: CA_77  and  C_78 
REMARK   34  A    between atoms: CA_77  and  CB_80 
REMARK       I    between atoms: C_78  and  N_86 
REMARK   35  A    between atoms: CB_80  and  CG_81 
REMARK   36  A    between atoms: CG_81  and  CD_82 
REMARK   37  A    between atoms: N_86  and  CA_87 
REMARK   38  A    between atoms: CA_87  and  C_88 
REMARK   39  A    between atoms: CA_87  and  CB_90 
REMARK       I    between atoms: C_88  and  N_98 
REMARK   40  A    between atoms: CB_90  and  CG_91 
REMARK   41  A    between atoms: N_98  and  CA_99 
REMARK   42  A    between atoms: CA_99  and  C_100 
REMARK   43  A    between atoms: CA_99  and  CB_102 
REMARK       I    between atoms: C_100  and  N_106 
REMARK   44  A    between atoms: N_106  and  CA_107 
REMARK   45  A    between atoms: CA_107  and  C_108 
REMARK   46  A    between atoms: CA_107  and  CB_110 
REMARK       I    between atoms: C_108  and  N_118 
REMARK   47  A    between atoms: CB_110  and  CG_111 
REMARK   48  A    between atoms: CG_111  and  CD_112 
REMARK       I    between atoms: CD_112  and  NE2_113 
REMARK   49  A    between atoms: N_118  and  CA_119 
REMARK   50  A    between atoms: CA_119  and  C_120 
REMARK   51  A    between atoms: CA_119  and  CB_122 
REMARK       I    between atoms: C_120  and  N_135 
REMARK   52  A    between atoms: CB_122  and  CG_123 
REMARK   53  A    between atoms: CG_123  and  CD_124 
REMARK   54  A    between atoms: CD_124  and  NE_125 
REMARK       I    between atoms: NE_125  and  CZ_126 
REMARK       I    between atoms: CZ_126  and  NH1_127 
REMARK       I    between atoms: CZ_126  and  NH2_128 
REMARK   55  A    between atoms: N_135  and  CA_136 
REMARK   56  A    between atoms: CA_136  and  C_137 
REMARK   57  A    between atoms: CA_136  and  CB_139 
REMARK       I    between atoms: C_137  and  N_143 
REMARK   58  A    between atoms: N_143  and  CA_144 
REMARK   59  A    between atoms: CA_144  and  C_145 
REMARK   60  A    between atoms: CA_144  and  CB_147 
REMARK       I    between atoms: C_145  and  N_152 
REMARK   61  A    between atoms: CB_147  and  CG_148 
REMARK   62  A    between atoms: CG_148  and  SD_149 
REMARK   63  A    between atoms: N_152  and  CA_153 
REMARK   64  A    between atoms: CA_153  and  C_154 
REMARK   65  A    between atoms: CA_153  and  CB_156 
REMARK   66  A    between atoms: CB_156  and  CG_157 
REMARK   67  A    between atoms: CG_157  and  CD_158 
REMARK   68  A    between atoms: CD_158  and  NE_159 
REMARK       I    between atoms: NE_159  and  CZ_160 
REMARK       I    between atoms: CZ_160  and  NH1_161 
ROOT
ATOM      1  C   GLU d   9     665.950 170.263-614.617  0.00  0.00     0.241 C 
ATOM      2  O   GLU d   9     666.613 171.017-615.343  0.00  0.00    -0.271 OA
ATOM      3  N   HIS d  10     666.048 168.987-614.785  0.00  0.00    -0.346 N 
ATOM      4  H   HIS d  10     665.518 168.352-614.206  0.00  0.00     0.163 HD
ENDROOT
BRANCH   1   5
ATOM      5  CA  GLU d   9     665.032 170.790-613.541  0.00  0.00     0.177 C 
BRANCH   5   6
ATOM      6  N   GLU d   9     663.730 170.132-613.594  0.00  0.00    -0.346 N 
ATOM      7  C   ASP d   8     663.049 170.180-614.689  0.00  0.00     0.241 C 
ATOM      8  O   ASP d   8     663.521 170.784-615.665  0.00  0.00    -0.271 OA
ATOM      9  H   GLU d   9     663.368 169.645-612.786  0.00  0.00     0.163 HD
BRANCH   7  10
ATOM     10  CA  ASP d   8     661.703 169.498-614.744  0.00  0.00     0.186 C 
BRANCH  10  11
ATOM     11  N   ASP d   8     661.776 168.150-614.190  0.00  0.00    -0.346 N 
ATOM     12  C   LEU d   7     662.613 167.309-614.696  0.00  0.00     0.241 C 
ATOM     13  O   LEU d   7     663.333 167.672-615.639  0.00  0.00    -0.271 OA
ATOM     14  H   ASP d   8     661.179 167.879-613.422  0.00  0.00     0.163 HD
BRANCH  12  15
ATOM     15  CA  LEU d   7     662.688 165.915-614.122  0.00  0.00     0.177 C 
BRANCH  15  16
ATOM     16  N   LEU d   7     662.744 165.952-612.664  0.00  0.00    -0.346 N 
ATOM     17  C   ILE d   6     663.689 166.617-612.092  0.00  0.00     0.241 C 
ATOM     18  O   ILE d   6     664.523 167.205-612.797  0.00  0.00    -0.271 OA
ATOM     19  H   LEU d   7     662.053 165.465-612.111  0.00  0.00     0.163 HD
BRANCH  17  20
ATOM     20  CA  ILE d   6     663.748 166.657-610.584  0.00  0.00     0.180 C 
BRANCH  20  21
ATOM     21  N   ILE d   6     662.435 166.951-610.017  0.00  0.00    -0.346 N 
ATOM     22  C   SER d   5     661.829 168.033-610.372  0.00  0.00     0.243 C 
ATOM     23  O   SER d   5     662.375 168.786-611.178  0.00  0.00    -0.271 OA
ATOM     24  H   ILE d   6     662.008 166.317-609.357  0.00  0.00     0.163 HD
BRANCH  22  25
ATOM     25  CA  SER d   5     660.470 168.338-609.785  0.00  0.00     0.200 C 
BRANCH  25  26
ATOM     26  N   SER d   5     659.602 167.166-609.842  0.00  0.00    -0.344 N 
ATOM     27  C   GLN d   4     659.374 166.611-610.984  0.00  0.00     0.241 C 
ATOM     28  O   GLN d   4     659.894 167.086-611.991  0.00  0.00    -0.271 OA
ATOM     29  H   SER d   5     659.186 166.794-608.999  0.00  0.00     0.163 HD
BRANCH  27  30
ATOM     30  CA  GLN d   4     658.475 165.399-611.044  0.00  0.00     0.177 C 
BRANCH  30  31
ATOM     31  N   GLN d   4     658.835 164.428-610.015  0.00  0.00    -0.346 N 
ATOM     32  C   PRO d   3     660.040 163.969-609.982  0.00  0.00     0.241 C 
ATOM     33  O   PRO d   3     660.863 164.352-610.814  0.00  0.00    -0.271 OA
ATOM     34  H   GLN d   4     658.151 164.122-609.338  0.00  0.00     0.163 HD
BRANCH  32  35
ATOM     35  CA  PRO d   3     660.438 162.945-608.906  0.00  0.00     0.179 C 
ATOM     36  N   PRO d   3     659.986 163.354-607.584  0.00  0.00    -0.337 N 
ATOM     37  C   ASN d   2     660.508 164.349-606.950  0.00  0.00     0.243 C 
ATOM     38  CD  PRO d   3     658.908 162.561-607.035  0.00  0.00     0.127 C 
ATOM     39  O   ASN d   2     661.422 164.980-607.479  0.00  0.00    -0.271 OA
ATOM     40  CG  PRO d   3     658.451 161.742-608.245  0.00  0.00     0.022 C 
ATOM     41  CB  PRO d   3     659.734 161.590-609.075  0.00  0.00     0.037 C 
BRANCH  37  42
ATOM     42  CA  ASN d   2     659.976 164.705-605.581  0.00  0.00     0.185 C 
BRANCH  42  43
ATOM     43  N   ASN d   2     658.517 164.744-605.581  0.00  0.00    -0.346 N 
ATOM     44  C   GLU d   1     657.912 165.529-606.406  0.00  0.00     0.242 C 
ATOM     45  O   GLU d   1     658.588 166.228-607.175  0.00  0.00    -0.271 OA
ATOM     46  H   ASN d   2     657.989 164.164-604.945  0.00  0.00     0.163 HD
BRANCH  44  47
ATOM     47  CA  GLU d   1     656.403 165.569-606.406  0.00  0.00     0.191 C 
BRANCH  47  48
ATOM     48  N   GLU d   1     655.844 164.220-606.406  0.00  0.00    -0.326 NA
ATOM     49  H   GLU d   1     656.471 163.341-606.406  0.00  0.00     0.180 HD
ENDBRANCH  47  48
BRANCH  47  50
ATOM     50  CB  GLU d   1     655.880 166.354-605.169  0.00  0.00     0.047 C 
BRANCH  50  51
ATOM     51  CG  GLU d   1     656.355 167.839-605.058  0.00  0.00     0.116 C 
BRANCH  51  52
ATOM     52  CD  GLU d   1     655.931 168.643-603.843  0.00  0.00     0.172 C 
ATOM     53  OE1 GLU d   1     655.203 168.141-602.965  0.00  0.00    -0.648 OA
ATOM     54  OE2 GLU d   1     656.361 169.813-603.771  0.00  0.00    -0.648 OA
ENDBRANCH  51  52
ENDBRANCH  50  51
ENDBRANCH  47  50
ENDBRANCH  44  47
ENDBRANCH  42  43
BRANCH  42  55
ATOM     55  CB  ASN d   2     660.468 163.682-604.517  0.00  0.00     0.137 C 
BRANCH  55  56
ATOM     56  CG  ASN d   2     660.005 163.906-603.074  0.00  0.00     0.217 C 
ATOM     57  ND2 ASN d   2     660.600 164.821-602.355  0.00  0.00    -0.370 N 
ATOM     58 21HD ASN d   2     660.119 164.994-601.469  0.00  0.00     0.159 HD
ATOM     59 22HD ASN d   2     661.301 165.392-602.825  0.00  0.00     0.159 HD
ATOM     60  OD1 ASN d   2     659.085 163.272-602.579  0.00  0.00    -0.274 OA
ENDBRANCH  55  56
ENDBRANCH  42  55
ENDBRANCH  37  42
ENDBRANCH  32  35
ENDBRANCH  30  31
BRANCH  30  61
ATOM     61  CB  GLN d   4     656.995 165.797-610.853  0.00  0.00     0.044 C 
BRANCH  61  62
ATOM     62  CG  GLN d   4     656.410 166.803-611.899  0.00  0.00     0.105 C 
BRANCH  62  63
ATOM     63  CD  GLN d   4     654.965 167.291-611.738  0.00  0.00     0.215 C 
ATOM     64  NE2 GLN d   4     654.233 166.854-610.745  0.00  0.00    -0.370 N 
ATOM     65 21HE GLN d   4     653.306 167.277-610.673  0.00  0.00     0.159 HD
ATOM     66 22HE GLN d   4     654.715 166.228-610.096  0.00  0.00     0.159 HD
ATOM     67  OE1 GLN d   4     654.485 168.107-612.511  0.00  0.00    -0.274 OA
ENDBRANCH  62  63
ENDBRANCH  61  62
ENDBRANCH  30  61
ENDBRANCH  27  30
ENDBRANCH  25  26
BRANCH  25  68
ATOM     68  CB  SER d   5     660.582 168.872-608.335  0.00  0.00     0.199 C 
BRANCH  68  69
ATOM     69  OG  SER d   5     661.316 167.994-607.474  0.00  0.00    -0.398 OA
ATOM     70  HG  SER d   5     660.828 167.169-607.422  0.00  0.00     0.209 HD
ENDBRANCH  68  69
ENDBRANCH  25  68
ENDBRANCH  22  25
ENDBRANCH  20  21
BRANCH  20  71
ATOM     71  CB  ILE d   6     664.349 165.321-609.983  0.00  0.00     0.013 C 
ATOM     72  CG2 ILE d   6     665.791 165.021-610.499  0.00  0.00     0.012 C 
BRANCH  71  73
ATOM     73  CG1 ILE d   6     664.370 165.261-608.422  0.00  0.00     0.002 C 
ATOM     74  CD1 ILE d   6     664.642 163.873-607.806  0.00  0.00     0.005 C 
ENDBRANCH  71  73
ENDBRANCH  20  71
ENDBRANCH  17  20
ENDBRANCH  15  16
BRANCH  15  75
ATOM     75  CB  LEU d   7     661.485 165.053-614.601  0.00  0.00     0.038 C 
BRANCH  75  76
ATOM     76  CG  LEU d   7     661.414 163.574-614.133  0.00  0.00    -0.020 C 
ATOM     77  CD1 LEU d   7     660.224 162.866-614.797  0.00  0.00     0.009 C 
ATOM     78  CD2 LEU d   7     662.708 162.796-614.424  0.00  0.00     0.009 C 
ENDBRANCH  75  76
ENDBRANCH  15  75
ENDBRANCH  12  15
ENDBRANCH  10  11
BRANCH  10  79
ATOM     79  CB  ASP d   8     660.625 170.337-614.003  0.00  0.00     0.147 C 
BRANCH  79  80
ATOM     80  CG  ASP d   8     660.404 171.757-614.544  0.00  0.00     0.175 C 
ATOM     81  OD1 ASP d   8     660.467 171.955-615.775  0.00  0.00    -0.648 OA
ATOM     82  OD2 ASP d   8     660.212 172.684-613.730  0.00  0.00    -0.648 OA
ENDBRANCH  79  80
ENDBRANCH  10  79
ENDBRANCH   7  10
ENDBRANCH   5   6
BRANCH   5  83
ATOM     83  CB  GLU d   9     665.667 170.585-612.135  0.00  0.00     0.045 C 
BRANCH  83  84
ATOM     84  CG  GLU d   9     667.049 171.279-611.908  0.00  0.00     0.116 C 
BRANCH  84  85
ATOM     85  CD  GLU d   9     667.752 171.067-610.580  0.00  0.00     0.172 C 
ATOM     86  OE1 GLU d   9     667.232 170.377-609.683  0.00  0.00    -0.648 OA
ATOM     87  OE2 GLU d   9     668.871 171.606-610.450  0.00  0.00    -0.648 OA
ENDBRANCH  84  85
ENDBRANCH  83  84
ENDBRANCH   5  83
ENDBRANCH   1   5
BRANCH   3  88
ATOM     88  CA  HIS d  10     666.935 168.476-615.826  0.00  0.00     0.182 C 
BRANCH  88  89
ATOM     89  C   HIS d  10     666.567 169.039-617.177  0.00  0.00     0.241 C 
ATOM     90  O   HIS d  10     667.418 169.504-617.950  0.00  0.00    -0.271 OA
ATOM     91  N   VAL d  11     665.329 169.037-617.539  0.00  0.00    -0.346 N 
ATOM     92  H   VAL d  11     664.617 168.664-616.928  0.00  0.00     0.163 HD
BRANCH  91  93
ATOM     93  CA  VAL d  11     664.972 169.581-618.846  0.00  0.00     0.180 C 
BRANCH  93  94
ATOM     94  C   VAL d  11     665.435 171.012-618.980  0.00  0.00     0.241 C 
ATOM     95  O   VAL d  11     666.035 171.417-619.984  0.00  0.00    -0.271 OA
ATOM     96  N   GLN d  12     665.198 171.839-618.018  0.00  0.00    -0.346 N 
ATOM     97  H   GLN d  12     664.710 171.533-617.189  0.00  0.00     0.163 HD
BRANCH  96  98
ATOM     98  CA  GLN d  12     665.644 173.222-618.147  0.00  0.00     0.177 C 
BRANCH  98  99
ATOM     99  C   GLN d  12     667.134 173.291-618.386  0.00  0.00     0.241 C 
ATOM    100  O   GLN d  12     667.620 173.999-619.266  0.00  0.00    -0.271 OA
ATOM    101  N   ARG d  13     667.920 172.585-617.645  0.00  0.00    -0.346 N 
ATOM    102  H   ARG d  13     667.545 171.996-616.916  0.00  0.00     0.163 HD
BRANCH 101 103
ATOM    103  CA  ARG d  13     669.360 172.652-617.877  0.00  0.00     0.176 C 
BRANCH 103 104
ATOM    104  C   ARG d  13     669.696 172.280-619.302  0.00  0.00     0.241 C 
ATOM    105  O   ARG d  13     670.463 172.952-619.987  0.00  0.00    -0.271 OA
ATOM    106  N   VAL d  14     669.160 171.225-619.815  0.00  0.00    -0.346 N 
ATOM    107  H   VAL d  14     668.526 170.656-619.272  0.00  0.00     0.163 HD
BRANCH 106 108
ATOM    108  CA  VAL d  14     669.485 170.865-621.192  0.00  0.00     0.180 C 
BRANCH 108 109
ATOM    109  C   VAL d  14     669.153 171.993-622.139  0.00  0.00     0.241 C 
ATOM    110  O   VAL d  14     669.945 172.375-623.009  0.00  0.00    -0.271 OA
ATOM    111  N   MET d  15     668.007 172.578-622.037  0.00  0.00    -0.346 N 
ATOM    112  H   MET d  15     667.343 172.285-621.334  0.00  0.00     0.163 HD
BRANCH 111 113
ATOM    113  CA  MET d  15     667.685 173.670-622.951  0.00  0.00     0.177 C 
BRANCH 113 114
ATOM    114  C   MET d  15     668.714 174.771-622.865  0.00  0.00     0.241 C 
ATOM    115  O   MET d  15     669.216 175.281-623.878  0.00  0.00    -0.271 OA
ATOM    116  N   ARG d  16     669.083 175.193-621.703  0.00  0.00    -0.347 N 
ATOM    117  H   ARG d  16     668.690 174.794-620.863  0.00  0.00     0.163 HD
BRANCH 116 118
ATOM    118  CA  ARG d  16     670.079 176.258-621.621  0.00  0.00     0.162 C 
BRANCH 118 119
ATOM    119  C   ARG d  16     671.349 175.866-622.338  0.00  0.00     0.219 C 
ATOM    120  O   ARG d  16     671.464 174.790-622.918  0.00  0.00    -0.287 OA
ENDBRANCH 118 119
BRANCH 118 121
ATOM    121  CB  ARG d  16     670.348 176.578-620.123  0.00  0.00     0.035 C 
BRANCH 121 122
ATOM    122  CG  ARG d  16     671.172 177.868-619.852  0.00  0.00     0.023 C 
BRANCH 122 123
ATOM    123  CD  ARG d  16     671.423 178.089-618.351  0.00  0.00     0.138 C 
BRANCH 123 124
ATOM    124  NE  ARG d  16     672.198 179.349-618.151  0.00  0.00    -0.227 N 
ATOM    125  CZ  ARG d  16     672.589 179.832-616.976  0.00  0.00     0.665 C 
ATOM    126  NH1 ARG d  16     672.343 179.248-615.837  0.00  0.00    -0.235 N 
ATOM    127  NH2 ARG d  16     673.252 180.946-616.959  0.00  0.00    -0.235 N 
ATOM    128 11HH ARG d  16     671.818 178.375-615.921  0.00  0.00     0.174 HD
ATOM    129 12HH ARG d  16     672.678 179.685-614.977  0.00  0.00     0.174 HD
ATOM    130 21HH ARG d  16     673.436 181.388-617.861  0.00  0.00     0.174 HD
ATOM    131 22HH ARG d  16     673.543 181.302-616.047  0.00  0.00     0.174 HD
ATOM    132  HE  ARG d  16     672.475 179.929-618.949  0.00  0.00     0.177 HD
ENDBRANCH 123 124
ENDBRANCH 122 123
ENDBRANCH 121 122
ENDBRANCH 118 121
ENDBRANCH 116 118
ENDBRANCH 113 114
BRANCH 113 133
ATOM    133  CB  MET d  15     666.263 174.214-622.641  0.00  0.00     0.045 C 
BRANCH 133 134
ATOM    134  CG  MET d  15     665.102 173.215-622.832  0.00  0.00     0.076 C 
BRANCH 134 135
ATOM    135  SD  MET d  15     663.528 174.079-622.717  0.00  0.00    -0.173 SA
ATOM    136  CE  MET d  15     662.448 172.648-622.579  0.00  0.00     0.089 C 
ENDBRANCH 134 135
ENDBRANCH 133 134
ENDBRANCH 113 133
ENDBRANCH 111 113
ENDBRANCH 108 109
BRANCH 108 137
ATOM    137  CB  VAL d  14     668.713 169.546-621.598  0.00  0.00     0.009 C 
ATOM    138  CG1 VAL d  14     668.802 169.127-623.091  0.00  0.00     0.012 C 
ATOM    139  CG2 VAL d  14     669.147 168.295-620.797  0.00  0.00     0.012 C 
ENDBRANCH 108 137
ENDBRANCH 106 108
ENDBRANCH 103 104
BRANCH 103 140
ATOM    140  CB  ARG d  13     670.075 171.715-616.863  0.00  0.00     0.036 C 
BRANCH 140 141
ATOM    141  CG  ARG d  13     671.620 171.870-616.783  0.00  0.00     0.023 C 
BRANCH 141 142
ATOM    142  CD  ARG d  13     672.249 170.884-615.785  0.00  0.00     0.138 C 
BRANCH 142 143
ATOM    143  NE  ARG d  13     673.726 171.092-615.735  0.00  0.00    -0.227 N 
ATOM    144  CZ  ARG d  13     674.575 170.402-614.980  0.00  0.00     0.665 C 
ATOM    145  NH1 ARG d  13     674.211 169.438-614.182  0.00  0.00    -0.235 N 
ATOM    146  NH2 ARG d  13     675.834 170.702-615.038  0.00  0.00    -0.235 N 
ATOM    147 11HH ARG d  13     673.206 169.251-614.184  0.00  0.00     0.174 HD
ATOM    148 12HH ARG d  13     674.925 168.956-613.633  0.00  0.00     0.174 HD
ATOM    149 21HH ARG d  13     676.100 171.460-615.670  0.00  0.00     0.174 HD
ATOM    150 22HH ARG d  13     676.470 170.162-614.450  0.00  0.00     0.174 HD
ATOM    151  HE  ARG d  13     674.176 171.814-616.307  0.00  0.00     0.177 HD
ENDBRANCH 142 143
ENDBRANCH 141 142
ENDBRANCH 140 141
ENDBRANCH 103 140
ENDBRANCH 101 103
ENDBRANCH  98  99
BRANCH  98 152
ATOM    152  CB  GLN d  12     665.254 173.990-616.865  0.00  0.00     0.044 C 
BRANCH 152 153
ATOM    153  CG  GLN d  12     665.612 175.512-616.835  0.00  0.00     0.105 C 
BRANCH 153 154
ATOM    154  CD  GLN d  12     665.310 176.326-615.571  0.00  0.00     0.215 C 
ATOM    155  NE2 GLN d  12     664.744 175.750-614.541  0.00  0.00    -0.370 N 
ATOM    156 21HE GLN d  12     664.637 176.345-613.718  0.00  0.00     0.159 HD
ATOM    157 22HE GLN d  12     664.581 174.747-614.644  0.00  0.00     0.159 HD
ATOM    158  OE1 GLN d  12     665.610 177.508-615.495  0.00  0.00    -0.274 OA
ENDBRANCH 153 154
ENDBRANCH 152 153
ENDBRANCH  98 152
ENDBRANCH  96  98
ENDBRANCH  93  94
BRANCH  93 159
ATOM    159  CB  VAL d  11     663.411 169.473-619.064  0.00  0.00     0.009 C 
ATOM    160  CG1 VAL d  11     662.841 170.175-620.327  0.00  0.00     0.012 C 
ATOM    161  CG2 VAL d  11     662.888 168.018-619.136  0.00  0.00     0.012 C 
ENDBRANCH  93 159
ENDBRANCH  91  93
ENDBRANCH  88  89
BRANCH  88 162
ATOM    162  CB  HIS d  10     666.773 166.947-615.819  0.00  0.00     0.095 C 
BRANCH 162 163
ATOM    163  CG  HIS d  10     668.060 166.239-615.512  0.00  0.00     0.053 A 
ATOM    164  CD2 HIS d  10     668.442 165.905-614.219  0.00  0.00     0.116 A 
ATOM    165  NE2 HIS d  10     669.658 165.275-614.286  0.00  0.00    -0.359 N 
ATOM    166  CE1 HIS d  10     669.919 165.277-615.621  0.00  0.00     0.207 A 
ATOM    167  2HE HIS d  10     670.225 164.899-613.513  0.00  0.00     0.166 HD
ATOM    168  ND1 HIS d  10     669.012 165.833-616.445  0.00  0.00    -0.247 NA
ENDBRANCH 162 163
ENDBRANCH  88 162
ENDBRANCH   3  88
TORSDOF 68
