@<TRIPOS>MOLECULE
13-18
256 257 16              
SMALL
USER_CHARGES
@<TRIPOS>ATOM
1	   N	2143.825	652.870	-2222.169	N.3	1	GLU1	-0.516	
2	  CA	2144.384	654.219	-2222.169	C.3	1	GLU1	0.040	
3	   C	2145.893	654.179	-2222.169	C.2	1	GLU1	0.537	
4	   O	2146.569	654.878	-2222.938	O.2	1	GLU1	-0.582	
5	  CB	2143.861	655.004	-2220.933	C.3	1	GLU1	0.056	
6	  CG	2144.336	656.489	-2220.822	C.3	1	GLU1	0.014	
7	  CD	2143.912	657.293	-2219.606	C.2	1	GLU1	0.805	
8	 OE1	2143.184	656.791	-2218.729	O.co2	1	GLU1	-0.819	
9	 OE2	2144.342	658.463	-2219.534	O.co2	1	GLU1	-0.819	
10	   H	2144.452	651.991	-2222.169	 H	1	GLU1	0.294	
11	  HA	2144.058	654.737	-2223.090	 H	1	GLU1	0.111	
12	 2HB	2144.150	654.473	-2220.002	 H	1	GLU1	-0.017	
13	 3HB	2142.754	654.994	-2220.919	 H	1	GLU1	-0.017	
14	 2HG	2144.026	657.074	-2221.702	 H	1	GLU1	-0.043	
15	 3HG	2145.436	656.556	-2220.792	 H	1	GLU1	-0.043	
16	   N	2146.498	653.393	-2221.344	N.am	2	ASN2	-0.416	
17	  CA	2147.957	653.354	-2221.344	C.3	2	ASN2	0.014	
18	   C	2148.489	652.999	-2222.713	C.2	2	ASN2	0.597	
19	   O	2149.404	653.629	-2223.241	O.2	2	ASN2	-0.568	
20	  CB	2148.449	652.331	-2220.280	C.3	2	ASN2	-0.204	
21	  CG	2147.985	652.555	-2218.836	C.2	2	ASN2	0.713	
22	 ND2	2148.579	653.470	-2218.118	N.pl3	2	ASN2	-0.919	
23	 OD1	2147.064	651.922	-2218.342	O.2	2	ASN2	-0.593	
24	   H	2145.969	652.814	-2220.708	 H	2	ASN2	0.272	
25	  HA	2148.335	654.364	-2221.099	 H	2	ASN2	0.105	
26	 2HB	2149.553	652.272	-2220.283	 H	2	ASN2	0.080	
27	 3HB	2148.120	651.313	-2220.565	 H	2	ASN2	0.080	
28	1HD2	2148.098	653.643	-2217.231	 H	2	ASN2	0.420	
29	2HD2	2149.281	654.041	-2218.587	 H	2	ASN2	0.420	
30	   N	2147.967	652.004	-2223.347	N.am	3	PRO3	-0.255	
31	  CA	2148.419	651.594	-2224.668	C.3	3	PRO3	-0.027	
32	   C	2148.021	652.618	-2225.745	C.2	3	PRO3	0.590	
33	   O	2148.845	653.001	-2226.577	O.2	3	PRO3	-0.575	
34	  CB	2147.715	650.240	-2224.838	C.3	3	PRO3	-0.007	
35	  CG	2146.431	650.392	-2224.008	C.3	3	PRO3	0.019	
36	  CD	2146.889	651.211	-2222.798	C.3	3	PRO3	0.019	
37	  HA	2149.505	651.474	-2224.682	 H	3	PRO3	0.064	
38	 2HB	2148.338	649.459	-2224.397	 H	3	PRO3	0.025	
39	 3HB	2147.517	649.991	-2225.883	 H	3	PRO3	0.025	
40	 2HG	2146.003	649.430	-2223.717	 H	3	PRO3	0.021	
41	 3HG	2145.694	650.963	-2224.576	 H	3	PRO3	0.021	
42	 2HD	2147.278	650.561	-2222.011	 H	3	PRO3	0.039	
43	 3HD	2146.092	651.847	-2222.406	 H	3	PRO3	0.039	
44	   N	2146.817	653.078	-2225.778	N.am	4	GLU4	-0.516	
45	  CA	2146.458	654.049	-2226.808	C.3	4	GLU4	0.040	
46	   C	2147.357	655.260	-2226.746	C.2	4	GLU4	0.537	
47	   O	2147.884	655.739	-2227.760	O.2	4	GLU4	-0.582	
48	  CB	2144.969	654.468	-2226.638	C.3	4	GLU4	0.056	
49	  CG	2144.422	655.472	-2227.704	C.3	4	GLU4	0.014	
50	  CD	2142.995	655.969	-2227.561	C.2	4	GLU4	0.805	
51	 OE1	2142.268	655.571	-2226.630	O.co2	4	GLU4	-0.819	
52	 OE2	2142.606	656.798	-2228.409	O.co2	4	GLU4	-0.819	
53	   H	2146.132	652.772	-2225.102	 H	4	GLU4	0.294	
54	  HA	2146.589	653.579	-2227.799	 H	4	GLU4	0.111	
55	 2HB	2144.816	654.908	-2225.632	 H	4	GLU4	-0.017	
56	 3HB	2144.321	653.571	-2226.645	 H	4	GLU4	-0.017	
57	 2HG	2144.503	655.057	-2228.722	 H	4	GLU4	-0.043	
58	 3HG	2145.010	656.404	-2227.715	 H	4	GLU4	-0.043	
59	   N	2147.584	655.813	-2225.603	N.am	5	SER5	-0.416	
60	  CA	2148.454	656.984	-2225.544	C.3	5	SER5	-0.025	
61	   C	2149.812	656.678	-2226.129	C.2	5	SER5	0.597	
62	   O	2150.360	657.431	-2226.934	O.2	5	SER5	-0.568	
63	  CB	2148.565	657.516	-2224.094	C.3	5	SER5	0.212	
64	  OG	2149.296	656.636	-2223.233	O.3	5	SER5	-0.655	
65	   H	2147.166	655.441	-2224.762	 H	5	SER5	0.272	
66	  HA	2148.005	657.774	-2226.173	 H	5	SER5	0.084	
67	 2HB	2147.565	657.710	-2223.661	 H	5	SER5	0.035	
68	 3HB	2149.070	658.501	-2224.096	 H	5	SER5	0.035	
69	  HG	2148.807	655.811	-2223.182	 H	5	SER5	0.428	
70	   N	2150.417	655.594	-2225.775	N.am	6	ILE6	-0.416	
71	  CA	2151.730	655.299	-2226.341	C.3	6	ILE6	-0.060	
72	   C	2151.673	655.261	-2227.849	C.2	6	ILE6	0.597	
73	   O	2152.508	655.849	-2228.553	O.2	6	ILE6	-0.568	
74	  CB	2152.329	653.963	-2225.741	C.3	6	ILE6	0.130	
75	 CG1	2152.348	653.900	-2224.180	C.3	6	ILE6	-0.043	
76	 CG2	2153.770	653.660	-2226.256	C.3	6	ILE6	-0.320	
77	 CD1	2152.617	652.511	-2223.565	C.3	6	ILE6	-0.066	
78	   H	2149.988	654.960	-2225.116	 H	6	ILE6	0.272	
79	  HA	2152.404	656.133	-2226.073	 H	6	ILE6	0.087	
80	  HB	2151.671	653.137	-2226.085	 H	6	ILE6	0.019	
81	2HG1	2151.366	654.220	-2223.784	 H	6	ILE6	0.024	
82	3HG1	2153.064	654.642	-2223.775	 H	6	ILE6	0.024	
83	1HG2	2153.829	653.567	-2227.354	 H	6	ILE6	0.088	
84	2HG2	2154.493	654.442	-2225.953	 H	6	ILE6	0.088	
85	3HG2	2154.160	652.698	-2225.877	 H	6	ILE6	0.088	
86	1HD1	2151.889	651.757	-2223.920	 H	6	ILE6	0.019	
87	2HD1	2153.628	652.132	-2223.800	 H	6	ILE6	0.019	
88	3HD1	2152.541	652.541	-2222.462	 H	6	ILE6	0.019	
89	   N	2150.727	654.598	-2228.422	N.am	7	LEU7	-0.416	
90	  CA	2150.672	654.562	-2229.881	C.3	7	LEU7	-0.052	
91	   C	2150.600	655.957	-2230.454	C.2	7	LEU7	0.597	
92	   O	2151.321	656.319	-2231.396	O.2	7	LEU7	-0.568	
93	  CB	2149.469	653.702	-2230.361	C.3	7	LEU7	-0.110	
94	  CG	2149.395	652.223	-2229.895	C.3	7	LEU7	0.353	
95	 CD1	2148.205	651.517	-2230.560	C.3	7	LEU7	-0.412	
96	 CD2	2150.689	651.443	-2230.186	C.3	7	LEU7	-0.412	
97	   H	2150.035	654.111	-2227.871	 H	7	LEU7	0.272	
98	  HA	2151.614	654.122	-2230.255	 H	7	LEU7	0.092	
99	 2HB	2149.445	653.718	-2231.469	 H	7	LEU7	0.046	
100	 3HB	2148.529	654.205	-2230.057	 H	7	LEU7	0.046	
101	  HG	2149.225	652.215	-2228.798	 H	7	LEU7	-0.036	
102	1HD1	2147.248	652.026	-2230.338	 H	7	LEU7	0.100	
103	2HD1	2148.304	651.477	-2231.662	 H	7	LEU7	0.100	
104	3HD1	2148.098	650.476	-2230.204	 H	7	LEU7	0.100	
105	1HD2	2150.964	651.473	-2231.256	 H	7	LEU7	0.100	
106	2HD2	2151.542	651.854	-2229.615	 H	7	LEU7	0.100	
107	3HD2	2150.607	650.381	-2229.890	 H	7	LEU7	0.100	
108	   N	2149.763	656.798	-2229.948	N.am	8	ASP8	-0.516	
109	  CA	2149.693	658.148	-2230.502	C.3	8	ASP8	0.038	
110	   C	2151.040	658.827	-2230.445	C.2	8	ASP8	0.537	
111	   O	2151.513	659.431	-2231.420	O.2	8	ASP8	-0.582	
112	  CB	2148.615	658.988	-2229.761	C.3	8	ASP8	-0.030	
113	  CG	2148.397	660.408	-2230.302	C.2	8	ASP8	0.799	
114	 OD1	2148.462	660.606	-2231.533	O.co2	8	ASP8	-0.801	
115	 OD2	2148.206	661.335	-2229.488	O.co2	8	ASP8	-0.801	
116	   H	2149.165	656.528	-2229.180	 H	8	ASP8	0.294	
117	  HA	2149.410	658.069	-2231.569	 H	8	ASP8	0.088	
118	 2HB	2148.873	659.071	-2228.689	 H	8	ASP8	-0.012	
119	 3HB	2147.636	658.483	-2229.794	 H	8	ASP8	-0.012	
120	   N	2151.720	658.777	-2229.350	N.am	9	GLU9	-0.516	
121	  CA	2153.023	659.434	-2229.295	C.3	9	GLU9	0.040	
122	   C	2153.941	658.906	-2230.371	C.2	9	GLU9	0.537	
123	   O	2154.605	659.659	-2231.097	O.2	9	GLU9	-0.582	
124	  CB	2153.657	659.227	-2227.890	C.3	9	GLU9	0.056	
125	  CG	2155.040	659.919	-2227.661	C.3	9	GLU9	0.014	
126	  CD	2155.742	659.706	-2226.333	C.2	9	GLU9	0.805	
127	 OE1	2155.220	659.015	-2225.436	O.co2	9	GLU9	-0.819	
128	 OE2	2156.861	660.243	-2226.202	O.co2	9	GLU9	-0.819	
129	   H	2151.357	658.291	-2228.543	 H	9	GLU9	0.294	
130	  HA	2152.882	660.516	-2229.471	 H	9	GLU9	0.111	
131	 2HB	2153.769	658.142	-2227.686	 H	9	GLU9	-0.017	
132	 3HB	2152.960	659.581	-2227.106	 H	9	GLU9	-0.017	
133	 2HG	2154.968	661.009	-2227.802	 H	9	GLU9	-0.043	
134	 3HG	2155.786	659.573	-2228.395	 H	9	GLU9	-0.043	
135	   N	2154.037	657.630	-2230.540	N.am	10	HIS10	-0.416	
136	  CA	2154.924	657.118	-2231.581	C.3	10	HIS10	-0.058	
137	   C	2154.557	657.682	-2232.932	C.2	10	HIS10	0.597	
138	   O	2155.410	658.146	-2233.704	O.2	10	HIS10	-0.568	
139	  CB	2154.760	655.589	-2231.575	C.3	10	HIS10	-0.007	
140	  CG	2156.045	654.878	-2231.267	C.2	10	HIS10	0.187	
141	 CD2	2156.426	654.544	-2229.974	C.2	10	HIS10	-0.221	
142	 ND1	2156.996	654.472	-2232.199	N.2	10	HIS10	-0.543	
143	 CE1	2157.903	653.914	-2231.376	C.2	10	HIS10	0.163	
144	 NE2	2157.641	653.911	-2230.041	N.pl3	10	HIS10	-0.280	
145	   H	2153.506	656.995	-2229.961	 H	10	HIS10	0.272	
146	  HA	2155.944	657.475	-2231.356	 H	10	HIS10	0.136	
147	 2HB	2154.394	655.222	-2232.554	 H	10	HIS10	0.037	
148	 3HB	2154.004	655.253	-2230.834	 H	10	HIS10	0.037	
149	 2HD	2155.841	654.760	-2229.085	 H	10	HIS10	0.186	
150	 1HE	2158.793	653.492	-2231.823	 H	10	HIS10	0.144	
151	 2HE	2158.208	653.534	-2229.268	 H	10	HIS10	0.334	
152	   N	2153.319	657.682	-2233.295	N.am	11	VAL11	-0.416	
153	  CA	2152.964	658.227	-2234.602	C.3	11	VAL11	-0.087	
154	   C	2153.429	659.657	-2234.735	C.2	11	VAL11	0.597	
155	   O	2154.031	660.062	-2235.738	O.2	11	VAL11	-0.568	
156	  CB	2151.403	658.121	-2234.821	C.3	11	VAL11	0.299	
157	 CG1	2150.834	658.825	-2236.084	C.3	11	VAL11	-0.319	
158	 CG2	2150.878	656.667	-2234.893	C.3	11	VAL11	-0.319	
159	   H	2152.606	657.310	-2232.684	 H	11	VAL11	0.272	
160	  HA	2153.483	657.644	-2235.384	 H	11	VAL11	0.097	
161	  HB	2150.916	658.602	-2233.946	 H	11	VAL11	-0.030	
162	1HG1	2151.273	658.432	-2237.021	 H	11	VAL11	0.079	
163	2HG1	2149.735	658.718	-2236.166	 H	11	VAL11	0.079	
164	3HG1	2151.013	659.917	-2236.075	 H	11	VAL11	0.079	
165	1HG2	2151.167	656.080	-2234.002	 H	11	VAL11	0.079	
166	2HG2	2149.772	656.631	-2234.936	 H	11	VAL11	0.079	
167	3HG2	2151.259	656.126	-2235.779	 H	11	VAL11	0.079	
168	   N	2153.193	660.484	-2233.773	N.am	12	GLN12	-0.416	
169	  CA	2153.642	661.866	-2233.901	C.3	12	GLN12	-0.003	
170	   C	2155.132	661.933	-2234.139	C.2	12	GLN12	0.597	
171	   O	2155.619	662.640	-2235.018	O.2	12	GLN12	-0.568	
172	  CB	2153.252	662.635	-2232.619	C.3	12	GLN12	-0.004	
173	  CG	2153.613	664.156	-2232.588	C.3	12	GLN12	-0.064	
174	  CD	2153.312	664.971	-2231.324	C.2	12	GLN12	0.695	
175	 NE2	2152.745	664.395	-2230.295	N.pl3	12	GLN12	-0.941	
176	 OE1	2153.614	666.151	-2231.247	O.2	12	GLN12	-0.609	
177	   H	2152.704	660.178	-2232.944	 H	12	GLN12	0.272	
178	  HA	2153.143	662.322	-2234.776	 H	12	GLN12	0.085	
179	 2HB	2153.728	662.135	-2231.749	 H	12	GLN12	0.017	
180	 3HB	2152.162	662.528	-2232.455	 H	12	GLN12	0.017	
181	 2HG	2153.136	664.677	-2233.439	 H	12	GLN12	0.035	
182	 3HG	2154.697	664.298	-2232.754	 H	12	GLN12	0.035	
183	1HE2	2152.638	664.990	-2229.471	 H	12	GLN12	0.425	
184	2HE2	2152.580	663.392	-2230.397	 H	12	GLN12	0.425	
185	   N	2155.917	661.226	-2233.398	N.am	13	GLU13	-0.516	
186	  CA	2157.357	661.291	-2233.629	C.3	13	GLU13	0.040	
187	   C	2157.694	660.918	-2235.052	C.2	13	GLU13	0.537	
188	   O	2158.470	661.595	-2235.742	O.2	13	GLU13	-0.582	
189	  CB	2158.091	660.349	-2232.632	C.3	13	GLU13	0.056	
190	  CG	2159.652	660.347	-2232.725	C.3	13	GLU13	0.014	
191	  CD	2160.427	659.405	-2231.823	C.2	13	GLU13	0.805	
192	 OE1	2159.838	658.666	-2231.011	O.co2	13	GLU13	-0.819	
193	 OE2	2161.669	659.406	-2231.952	O.co2	13	GLU13	-0.819	
194	   H	2155.540	660.637	-2232.669	 H	13	GLU13	0.294	
195	  HA	2157.696	662.329	-2233.460	 H	13	GLU13	0.111	
196	 2HB	2157.731	659.308	-2232.767	 H	13	GLU13	-0.017	
197	 3HB	2157.808	660.603	-2231.593	 H	13	GLU13	-0.017	
198	 2HG	2160.063	661.354	-2232.546	 H	13	GLU13	-0.043	
199	 3HG	2159.992	660.063	-2233.733	 H	13	GLU13	-0.043	
200	   N	2157.158	659.864	-2235.566	N.am	14	VAL14	-0.416	
201	  CA	2157.483	659.504	-2236.943	C.3	14	VAL14	-0.087	
202	   C	2157.155	660.634	-2237.890	C.2	14	VAL14	0.597	
203	   O	2157.949	661.014	-2238.759	O.2	14	VAL14	-0.568	
204	  CB	2156.711	658.187	-2237.351	C.3	14	VAL14	0.299	
205	 CG1	2156.801	657.768	-2238.844	C.3	14	VAL14	-0.319	
206	 CG2	2157.142	656.935	-2236.549	C.3	14	VAL14	-0.319	
207	   H	2156.522	659.296	-2235.025	 H	14	VAL14	0.272	
208	  HA	2158.572	659.327	-2237.017	 H	14	VAL14	0.097	
209	  HB	2155.634	658.359	-2237.136	 H	14	VAL14	-0.030	
210	1HG1	2157.843	657.591	-2239.172	 H	14	VAL14	0.079	
211	2HG1	2156.228	656.845	-2239.057	 H	14	VAL14	0.079	
212	3HG1	2156.373	658.531	-2239.523	 H	14	VAL14	0.079	
213	1HG2	2157.053	657.094	-2235.459	 H	14	VAL14	0.079	
214	2HG2	2156.505	656.059	-2236.782	 H	14	VAL14	0.079	
215	3HG2	2158.189	656.644	-2236.754	 H	14	VAL14	0.079	
216	   N	2156.010	661.220	-2237.789	N.am	15	MET15	-0.416	
217	  CA	2155.691	662.313	-2238.704	C.3	15	MET15	-0.024	
218	   C	2156.722	663.412	-2238.615	C.2	15	MET15	0.597	
219	   O	2157.226	663.922	-2239.628	O.2	15	MET15	-0.568	
220	  CB	2154.270	662.860	-2238.396	C.3	15	MET15	0.034	
221	  CG	2153.107	661.863	-2238.588	C.3	15	MET15	0.002	
222	  SD	2151.534	662.730	-2238.475	S.3	15	MET15	-0.274	
223	  CE	2150.451	661.302	-2238.339	C.3	15	MET15	-0.054	
224	   H	2155.344	660.928	-2237.088	 H	15	MET15	0.272	
225	  HA	2155.718	661.925	-2239.739	 H	15	MET15	0.088	
226	 2HB	2154.069	663.738	-2239.039	 H	15	MET15	0.024	
227	 3HB	2154.234	663.253	-2237.360	 H	15	MET15	0.024	
228	 2HG	2153.149	661.077	-2237.810	 H	15	MET15	0.044	
229	 3HG	2153.170	661.347	-2239.564	 H	15	MET15	0.044	
230	 1HE	2150.595	660.613	-2239.191	 H	15	MET15	0.068	
231	 2HE	2150.660	660.749	-2237.406	 H	15	MET15	0.068	
232	 3HE	2149.394	661.618	-2238.323	 H	15	MET15	0.068	
233	   N	2157.091	663.833	-2237.453	N.am	16	ARG16	-0.348	
234	  CA	2158.088	664.896	-2237.369	C.3	16	ARG16	-0.264	
235	   C	2159.359	664.503	-2238.084	C.2	16	ARG16	0.734	
236	   O	2159.473	663.426	-2238.665	O.2	16	ARG16	-0.589	
237	  CB	2158.355	665.215	-2235.871	C.3	16	ARG16	-0.001	
238	  CG	2159.181	666.503	-2235.598	C.3	16	ARG16	0.039	
239	  CD	2159.430	666.723	-2234.096	C.3	16	ARG16	0.049	
240	  NE	2160.207	667.981	-2233.895	N.pl3	16	ARG16	-0.530	
241	  CZ	2160.597	668.464	-2232.719	C.cat	16	ARG16	0.808	
242	 NH1	2160.348	667.880	-2231.581	N.pl3	16	ARG16	-0.863	
243	 NH2	2161.262	669.576	-2232.700	N.pl3	16	ARG16	-0.863	
244	   H	2156.695	663.434	-2236.614	 H	16	ARG16	0.275	
245	  HA	2157.680	665.789	-2237.880	 H	16	ARG16	0.156	
246	 2HB	2158.852	664.339	-2235.404	 H	16	ARG16	0.033	
247	 3HB	2157.386	665.296	-2235.338	 H	16	ARG16	0.033	
248	 2HG	2158.652	667.375	-2236.035	 H	16	ARG16	0.029	
249	 3HG	2160.156	666.450	-2236.125	 H	16	ARG16	0.029	
250	 2HD	2159.978	665.848	-2233.682	 H	16	ARG16	0.069	
251	 3HD	2158.457	666.767	-2233.562	 H	16	ARG16	0.069	
252	  HE	2160.486	668.562	-2234.692	 H	16	ARG16	0.346	
253	1HH1	2159.822	667.008	-2231.665	 H	16	ARG16	0.448	
254	2HH1	2160.682	668.316	-2230.719	 H	16	ARG16	0.448	
255	1HH2	2161.448	670.019	-2233.602	 H	16	ARG16	0.448	
256	2HH2	2161.552	669.931	-2231.788	 H	16	ARG16	0.448	
@<TRIPOS>BOND
1 1 2 1
2 1 10 1
3 2 3 1
4 2 5 1
5 2 11 1
6 3 4 2
7 3 16 1
8 5 6 1
9 6 7 1
10 7 8 2
11 7 9 1
12 5 12 1
13 5 13 1
14 6 14 1
15 6 15 1
16 16 17 1
17 16 24 1
18 17 18 1
19 17 20 1
20 17 25 1
21 18 19 2
22 18 30 1
23 20 21 1
24 21 22 1
25 21 23 2
26 20 26 1
27 20 27 1
28 22 28 1
29 22 29 1
30 30 31 1
31 30 36 1
32 31 32 1
33 31 34 1
34 31 37 1
35 32 33 2
36 32 44 1
37 34 35 1
38 35 36 1
39 34 38 1
40 34 39 1
41 35 40 1
42 35 41 1
43 36 42 1
44 36 43 1
45 44 45 1
46 44 53 1
47 45 46 1
48 45 48 1
49 45 54 1
50 46 47 2
51 46 59 1
52 48 49 1
53 49 50 1
54 50 51 2
55 50 52 1
56 48 55 1
57 48 56 1
58 49 57 1
59 49 58 1
60 59 60 1
61 59 65 1
62 60 61 1
63 60 63 1
64 60 66 1
65 61 62 2
66 61 70 1
67 63 64 1
68 63 67 1
69 63 68 1
70 64 69 1
71 70 71 1
72 70 78 1
73 71 72 1
74 71 74 1
75 71 79 1
76 72 73 2
77 72 89 1
78 74 75 1
79 74 76 1
80 75 77 1
81 74 80 1
82 75 81 1
83 75 82 1
84 76 83 1
85 76 84 1
86 76 85 1
87 77 86 1
88 77 87 1
89 77 88 1
90 89 90 1
91 89 97 1
92 90 91 1
93 90 93 1
94 90 98 1
95 91 92 2
96 91 108 1
97 93 94 1
98 94 95 1
99 94 96 1
100 93 99 1
101 93 100 1
102 94 101 1
103 95 102 1
104 95 103 1
105 95 104 1
106 96 105 1
107 96 106 1
108 96 107 1
109 108 109 1
110 108 116 1
111 109 110 1
112 109 112 1
113 109 117 1
114 110 111 2
115 110 120 1
116 112 113 1
117 113 114 2
118 113 115 1
119 112 118 1
120 112 119 1
121 120 121 1
122 120 129 1
123 121 122 1
124 121 124 1
125 121 130 1
126 122 123 2
127 122 135 1
128 124 125 1
129 125 126 1
130 126 127 2
131 126 128 1
132 124 131 1
133 124 132 1
134 125 133 1
135 125 134 1
136 135 136 1
137 135 145 1
138 136 137 1
139 136 139 1
140 136 146 1
141 137 138 2
142 137 152 1
143 139 140 1
144 140 141 2
145 141 144 1
146 140 142 1
147 142 143 2
148 143 144 1
149 139 147 1
150 139 148 1
151 141 149 1
152 143 150 1
153 144 151 1
154 152 153 1
155 152 159 1
156 153 154 1
157 153 156 1
158 153 160 1
159 154 155 2
160 154 168 1
161 156 157 1
162 156 158 1
163 156 161 1
164 157 162 1
165 157 163 1
166 157 164 1
167 158 165 1
168 158 166 1
169 158 167 1
170 168 169 1
171 168 177 1
172 169 170 1
173 169 172 1
174 169 178 1
175 170 171 2
176 170 185 1
177 172 173 1
178 173 174 1
179 174 175 1
180 174 176 2
181 172 179 1
182 172 180 1
183 173 181 1
184 173 182 1
185 175 183 1
186 175 184 1
187 185 186 1
188 185 194 1
189 186 187 1
190 186 189 1
191 186 195 1
192 187 188 2
193 187 200 1
194 189 190 1
195 190 191 1
196 191 192 2
197 191 193 1
198 189 196 1
199 189 197 1
200 190 198 1
201 190 199 1
202 200 201 1
203 200 207 1
204 201 202 1
205 201 204 1
206 201 208 1
207 202 203 2
208 202 216 1
209 204 205 1
210 204 206 1
211 204 209 1
212 205 210 1
213 205 211 1
214 205 212 1
215 206 213 1
216 206 214 1
217 206 215 1
218 216 217 1
219 216 224 1
220 217 218 1
221 217 220 1
222 217 225 1
223 218 219 2
224 218 233 1
225 220 221 1
226 221 222 1
227 222 223 1
228 220 226 1
229 220 227 1
230 221 228 1
231 221 229 1
232 223 230 1
233 223 231 1
234 223 232 1
235 233 234 1
236 233 244 1
237 234 235 1
238 234 237 1
239 234 245 1
240 235 236 2
241 237 238 1
242 238 239 1
243 239 240 1
244 240 241 1
245 241 242 2
246 241 243 1
247 237 246 1
248 237 247 1
249 238 248 1
250 238 249 1
251 239 250 1
252 239 251 1
253 240 252 1
254 242 253 1
255 242 254 1
256 243 255 1
257 243 256 1
@<TRIPOS>SUBSTRUCTURE
1	GLU1	1	RESIDUE	1 ****	GLU
2	ASN2	16	RESIDUE	1 ****	ASN
3	PRO3	30	RESIDUE	1 ****	PRO
4	GLU4	44	RESIDUE	1 ****	GLU
5	SER5	59	RESIDUE	1 ****	SER
6	ILE6	70	RESIDUE	1 ****	ILE
7	LEU7	89	RESIDUE	1 ****	LEU
8	ASP8	108	RESIDUE	1 ****	ASP
9	GLU9	120	RESIDUE	1 ****	GLU
10	HIS10	135	RESIDUE	1 ****	HIS
11	VAL11	152	RESIDUE	1 ****	VAL
12	GLN12	168	RESIDUE	1 ****	GLN
13	GLU13	185	RESIDUE	1 ****	GLU
14	VAL14	200	RESIDUE	1 ****	VAL
15	MET15	216	RESIDUE	1 ****	MET
16	ARG16	233	RESIDUE	1 ****	ARG
