REMARK WARNING: 32 MAX_TORS EXCEEDED!!!
REMARK  67 active torsions:
REMARK  status: ('A' for Active; 'I' for Inactive)
REMARK    1  A    between atoms: N_1  and  CA_2 
REMARK    2  A    between atoms: CA_2  and  C_3 
REMARK    3  A    between atoms: CA_2  and  CB_5 
REMARK       I    between atoms: C_3  and  N_13 
REMARK    4  A    between atoms: CB_5  and  CG_6 
REMARK    5  A    between atoms: N_13  and  CA_14 
REMARK    6  A    between atoms: CA_14  and  C_15 
REMARK    7  A    between atoms: CA_14  and  CB_17 
REMARK       I    between atoms: C_15  and  N_24 
REMARK    8  A    between atoms: CB_17  and  CG_18 
REMARK       I    between atoms: CG_18  and  ND2_19 
REMARK    9  A    between atoms: CA_25  and  C_26 
REMARK       I    between atoms: C_26  and  N_31 
REMARK   10  A    between atoms: N_31  and  CA_32 
REMARK   11  A    between atoms: CA_32  and  C_33 
REMARK   12  A    between atoms: CA_32  and  CB_35 
REMARK       I    between atoms: C_33  and  N_41 
REMARK   13  A    between atoms: CB_35  and  CG_36 
REMARK   14  A    between atoms: CG_36  and  CD_37 
REMARK   15  A    between atoms: N_41  and  CA_42 
REMARK   16  A    between atoms: CA_42  and  C_43 
REMARK   17  A    between atoms: CA_42  and  CB_45 
REMARK       I    between atoms: C_43  and  N_49 
REMARK   18  A    between atoms: CB_45  and  OG_46 
REMARK   19  A    between atoms: N_49  and  CA_50 
REMARK   20  A    between atoms: CA_50  and  C_51 
REMARK   21  A    between atoms: CA_50  and  CB_53 
REMARK       I    between atoms: C_51  and  N_58 
REMARK   22  A    between atoms: CB_53  and  CG1_54 
REMARK   23  A    between atoms: N_58  and  CA_59 
REMARK   24  A    between atoms: CA_59  and  C_60 
REMARK   25  A    between atoms: CA_59  and  CB_62 
REMARK       I    between atoms: C_60  and  N_67 
REMARK   26  A    between atoms: CB_62  and  CG_63 
REMARK   27  A    between atoms: N_67  and  CA_68 
REMARK   28  A    between atoms: CA_68  and  C_69 
REMARK   29  A    between atoms: CA_68  and  CB_71 
REMARK       I    between atoms: C_69  and  N_76 
REMARK   30  A    between atoms: CB_71  and  CG_72 
REMARK   31  A    between atoms: N_76  and  CA_77 
REMARK   32  A    between atoms: CA_77  and  C_78 
REMARK   33  A    between atoms: CA_77  and  CB_80 
REMARK       I    between atoms: C_78  and  N_86 
REMARK   34  A    between atoms: CB_80  and  CG_81 
REMARK   35  A    between atoms: CG_81  and  CD_82 
REMARK   36  A    between atoms: N_86  and  CA_87 
REMARK   37  A    between atoms: CA_87  and  C_88 
REMARK   38  A    between atoms: CA_87  and  CB_90 
REMARK       I    between atoms: C_88  and  N_98 
REMARK   39  A    between atoms: CB_90  and  CG_91 
REMARK   40  A    between atoms: N_98  and  CA_99 
REMARK   41  A    between atoms: CA_99  and  C_100 
REMARK   42  A    between atoms: CA_99  and  CB_102 
REMARK       I    between atoms: C_100  and  N_106 
REMARK   43  A    between atoms: N_106  and  CA_107 
REMARK   44  A    between atoms: CA_107  and  C_108 
REMARK   45  A    between atoms: CA_107  and  CB_110 
REMARK       I    between atoms: C_108  and  N_118 
REMARK   46  A    between atoms: CB_110  and  CG_111 
REMARK   47  A    between atoms: CG_111  and  CD_112 
REMARK       I    between atoms: CD_112  and  NE2_113 
REMARK   48  A    between atoms: N_118  and  CA_119 
REMARK   49  A    between atoms: CA_119  and  C_120 
REMARK   50  A    between atoms: CA_119  and  CB_122 
REMARK       I    between atoms: C_120  and  N_135 
REMARK   51  A    between atoms: CB_122  and  CG_123 
REMARK   52  A    between atoms: CG_123  and  CD_124 
REMARK   53  A    between atoms: CD_124  and  NE_125 
REMARK       I    between atoms: NE_125  and  CZ_126 
REMARK       I    between atoms: CZ_126  and  NH1_127 
REMARK       I    between atoms: CZ_126  and  NH2_128 
REMARK   54  A    between atoms: N_135  and  CA_136 
REMARK   55  A    between atoms: CA_136  and  C_137 
REMARK   56  A    between atoms: CA_136  and  CB_139 
REMARK       I    between atoms: C_137  and  N_143 
REMARK   57  A    between atoms: N_143  and  CA_144 
REMARK   58  A    between atoms: CA_144  and  C_145 
REMARK   59  A    between atoms: CA_144  and  CB_147 
REMARK       I    between atoms: C_145  and  N_152 
REMARK   60  A    between atoms: CB_147  and  CG_148 
REMARK   61  A    between atoms: CG_148  and  SD_149 
REMARK   62  A    between atoms: N_152  and  CA_153 
REMARK   63  A    between atoms: CA_153  and  C_154 
REMARK   64  A    between atoms: CA_153  and  CB_156 
REMARK   65  A    between atoms: CB_156  and  CG_157 
REMARK   66  A    between atoms: CG_157  and  CD_158 
REMARK   67  A    between atoms: CD_158  and  NE_159 
REMARK       I    between atoms: NE_159  and  CZ_160 
REMARK       I    between atoms: CZ_160  and  NH1_161 
ROOT
ATOM      1  C   GLU d   9      99.611  14.445 -65.804  0.00  0.00     0.241 C 
ATOM      2  O   GLU d   9     100.260  15.348 -66.352  0.00  0.00    -0.271 OA
ATOM      3  N   HIS d  10      99.711  13.241 -66.256  0.00  0.00    -0.346 N 
ATOM      4  H   HIS d  10      99.193  12.488 -65.827  0.00  0.00     0.163 HD
ENDROOT
BRANCH   1   5
ATOM      5  CA  GLU d   9      98.708  14.711 -64.625  0.00  0.00     0.177 C 
BRANCH   5   6
ATOM      6  N   GLU d   9      97.408  14.072 -64.806  0.00  0.00    -0.346 N 
ATOM      7  C   ASP d   8      96.710  14.359 -65.853  0.00  0.00     0.241 C 
ATOM      8  O   ASP d   8      97.164  15.171 -66.674  0.00  0.00    -0.271 OA
ATOM      9  H   GLU d   9      97.060  13.414 -64.123  0.00  0.00     0.163 HD
BRANCH   7  10
ATOM     10  CA  ASP d   8      95.366  13.698 -66.041  0.00  0.00     0.186 C 
BRANCH  10  11
ATOM     11  N   ASP d   8      95.452  12.260 -65.804  0.00  0.00    -0.346 N 
ATOM     12  C   LEU d   7      96.285  11.561 -66.498  0.00  0.00     0.241 C 
ATOM     13  O   LEU d   7      96.989  12.131 -67.345  0.00  0.00    -0.271 OA
ATOM     14  H   ASP d   8      94.868  11.819 -65.108  0.00  0.00     0.163 HD
BRANCH  12  15
ATOM     15  CA  LEU d   7      96.373  10.073 -66.252  0.00  0.00     0.177 C 
BRANCH  15  16
ATOM     16  N   LEU d   7      96.452   9.783 -64.824  0.00  0.00    -0.346 N 
ATOM     17  C   ILE d   6      97.404  10.310 -64.130  0.00  0.00     0.241 C 
ATOM     18  O   ILE d   6      98.224  11.047 -64.697  0.00  0.00    -0.271 OA
ATOM     19  H   LEU d   7      95.771   9.180 -64.385  0.00  0.00     0.163 HD
BRANCH  17  20
ATOM     20  CA  ILE d   6      97.485  10.010 -62.653  0.00  0.00     0.180 C 
BRANCH  20  21
ATOM     21  N   ILE d   6      96.180  10.160 -62.016  0.00  0.00    -0.346 N 
ATOM     22  C   SER d   5      95.564  11.290 -62.110  0.00  0.00     0.243 C 
ATOM     23  O   SER d   5      96.095  12.209 -62.735  0.00  0.00    -0.271 OA
ATOM     24  H   ILE d   6      95.765   9.391 -61.509  0.00  0.00     0.163 HD
BRANCH  22  25
ATOM     25  CA  SER d   5      94.214  11.446 -61.451  0.00  0.00     0.200 C 
BRANCH  25  26
ATOM     26  N   SER d   5      93.349  10.310 -61.757  0.00  0.00    -0.344 N 
ATOM     27  C   GLU d   4      93.106  10.025 -62.992  0.00  0.00     0.241 C 
ATOM     28  O   GLU d   4      93.613  10.723 -63.881  0.00  0.00    -0.271 OA
ATOM     29  H   SER d   5      92.947   9.757 -61.014  0.00  0.00     0.163 HD
BRANCH  27  30
ATOM     30  CA  GLU d   4      92.211   8.851 -63.308  0.00  0.00     0.177 C 
BRANCH  30  31
ATOM     31  N   GLU d   4      92.592   7.677 -62.527  0.00  0.00    -0.346 N 
ATOM     32  C   PRO d   3      93.799   7.231 -62.616  0.00  0.00     0.241 C 
ATOM     33  O   PRO d   3      94.607   7.797 -63.353  0.00  0.00    -0.271 OA
ATOM     34  H   GLU d   4      91.921   7.222 -61.926  0.00  0.00     0.163 HD
BRANCH  32  35
ATOM     35  CA  PRO d   3      94.220   5.997 -61.801  0.00  0.00     0.179 C 
ATOM     36  N   PRO d   3      93.787   6.097 -60.415  0.00  0.00    -0.337 N 
ATOM     37  C   ASN d   2      94.314   6.929 -59.582  0.00  0.00     0.243 C 
ATOM     38  CD  PRO d   3      92.722   5.192 -60.041  0.00  0.00     0.127 C 
ATOM     39  O   ASN d   2      95.218   7.669 -59.970  0.00  0.00    -0.271 OA
ATOM     40  CG  PRO d   3      92.249   4.661 -61.396  0.00  0.00     0.022 C 
ATOM     41  CB  PRO d   3      93.519   4.708 -62.258  0.00  0.00     0.037 C 
BRANCH  37  42
ATOM     42  CA  ASN d   2      93.804   6.966 -58.161  0.00  0.00     0.185 C 
BRANCH  42  43
ATOM     43  N   ASN d   2      92.344   6.992 -58.131  0.00  0.00    -0.346 N 
ATOM     44  C   HIS d   1      91.723   7.937 -58.751  0.00  0.00     0.242 C 
ATOM     45  O   HIS d   1      92.384   8.796 -59.354  0.00  0.00    -0.271 OA
ATOM     46  H   ASN d   2      91.829   6.281 -57.633  0.00  0.00     0.163 HD
BRANCH  44  47
ATOM     47  CA  HIS d   1      90.214   7.964 -58.720  0.00  0.00     0.196 C 
BRANCH  47  48
ATOM     48  N   HIS d   1      89.660   6.645 -59.013  0.00  0.00    -0.326 NA
ATOM     49  H   HIS d   1      90.291   5.793 -59.218  0.00  0.00     0.180 HD
ENDBRANCH  47  48
BRANCH  47  50
ATOM     50  CB  HIS d   1      89.713   8.341 -57.316  0.00  0.00     0.097 C 
BRANCH  50  51
ATOM     51  CG  HIS d   1      88.881   9.590 -57.324  0.00  0.00     0.053 A 
ATOM     52  CD2 HIS d   1      87.502   9.572 -57.486  0.00  0.00     0.116 A 
ATOM     53  NE2 HIS d   1      87.054  10.867 -57.448  0.00  0.00    -0.359 N 
ATOM     54  CE1 HIS d   1      88.203  11.573 -57.266  0.00  0.00     0.207 A 
ATOM     55  2HE HIS d   1      86.087  11.211 -57.538  0.00  0.00     0.166 HD
ATOM     56  ND1 HIS d   1      89.359  10.890 -57.175  0.00  0.00    -0.247 NA
ENDBRANCH  50  51
ENDBRANCH  47  50
ENDBRANCH  44  47
ENDBRANCH  42  43
BRANCH  42  57
ATOM     57  CB  ASN d   2      94.318   5.735 -57.360  0.00  0.00     0.137 C 
BRANCH  57  58
ATOM     58  CG  ASN d   2      93.877   5.627 -55.896  0.00  0.00     0.217 C 
ATOM     59  ND2 ASN d   2      94.478   6.364 -55.001  0.00  0.00    -0.370 N 
ATOM     60 21HD ASN d   2      94.011   6.331 -54.091  0.00  0.00     0.159 HD
ATOM     61 22HD ASN d   2      95.170   7.031 -55.341  0.00  0.00     0.159 HD
ATOM     62  OD1 ASN d   2      92.967   4.892 -55.543  0.00  0.00    -0.274 OA
ENDBRANCH  57  58
ENDBRANCH  42  57
ENDBRANCH  37  42
ENDBRANCH  32  35
ENDBRANCH  30  31
BRANCH  30  63
ATOM     63  CB  GLU d   4      90.724   9.208 -63.027  0.00  0.00     0.045 C 
BRANCH  63  64
ATOM     64  CG  GLU d   4      90.154  10.420 -63.833  0.00  0.00     0.116 C 
BRANCH  64  65
ATOM     65  CD  GLU d   4      88.728  10.861 -63.562  0.00  0.00     0.172 C 
ATOM     66  OE1 GLU d   4      88.018  10.258 -62.733  0.00  0.00    -0.648 OA
ATOM     67  OE2 GLU d   4      88.320  11.855 -64.197  0.00  0.00    -0.648 OA
ENDBRANCH  64  65
ENDBRANCH  63  64
ENDBRANCH  30  63
ENDBRANCH  27  30
ENDBRANCH  25  26
BRANCH  25  68
ATOM     68  CB  SER d   5      94.346  11.642 -59.920  0.00  0.00     0.199 C 
BRANCH  68  69
ATOM     69  OG  SER d   5      95.096  10.599 -59.288  0.00  0.00    -0.398 OA
ATOM     70  HG  SER d   5      94.612   9.779 -59.416  0.00  0.00     0.209 HD
ENDBRANCH  68  69
ENDBRANCH  25  68
ENDBRANCH  22  25
ENDBRANCH  20  21
BRANCH  20  71
ATOM     71  CB  ILE d   6      98.101   8.579 -62.376  0.00  0.00     0.013 C 
ATOM     72  CG2 ILE d   6      99.535   8.412 -62.967  0.00  0.00     0.012 C 
BRANCH  71  73
ATOM     73  CG1 ILE d   6      98.146   8.170 -60.868  0.00  0.00     0.002 C 
ATOM     74  CD1 ILE d   6      98.432   6.681 -60.583  0.00  0.00     0.005 C 
ENDBRANCH  71  73
ENDBRANCH  20  71
ENDBRANCH  17  20
ENDBRANCH  15  16
BRANCH  15  75
ATOM     75  CB  LEU d   7      95.167   9.332 -66.895  0.00  0.00     0.038 C 
BRANCH  75  76
ATOM     76  CG  LEU d   7      95.109   7.785 -66.770  0.00  0.00    -0.020 C 
ATOM     77  CD1 LEU d   7      93.912   7.236 -67.559  0.00  0.00     0.009 C 
ATOM     78  CD2 LEU d   7      96.401   7.102 -67.247  0.00  0.00     0.009 C 
ENDBRANCH  75  76
ENDBRANCH  15  75
ENDBRANCH  12  15
ENDBRANCH  10  11
BRANCH  10  79
ATOM     79  CB  ASP d   8      94.296  14.341 -65.114  0.00  0.00     0.147 C 
BRANCH  79  80
ATOM     80  CG  ASP d   8      94.062  15.845 -65.320  0.00  0.00     0.175 C 
ATOM     81  OD1 ASP d   8      94.105  16.315 -66.476  0.00  0.00    -0.648 OA
ATOM     82  OD2 ASP d   8      93.878  16.564 -64.316  0.00  0.00    -0.648 OA
ENDBRANCH  79  80
ENDBRANCH  10  79
ENDBRANCH   7  10
ENDBRANCH   5   6
BRANCH   5  83
ATOM     83  CB  GLU d   9      99.365  14.200 -63.310  0.00  0.00     0.045 C 
BRANCH  83  84
ATOM     84  CG  GLU d   9     100.748  14.835 -62.952  0.00  0.00     0.116 C 
BRANCH  84  85
ATOM     85  CD  GLU d   9     101.472  14.337 -61.716  0.00  0.00     0.172 C 
ATOM     86  OE1 GLU d   9     100.969  13.458 -60.989  0.00  0.00    -0.648 OA
ATOM     87  OE2 GLU d   9     102.591  14.841 -61.484  0.00  0.00    -0.648 OA
ENDBRANCH  84  85
ENDBRANCH  83  84
ENDBRANCH   5  83
ENDBRANCH   1   5
BRANCH   3  88
ATOM     88  CA  HIS d  10     100.585  12.982 -67.397  0.00  0.00     0.182 C 
BRANCH  88  89
ATOM     89  C   HIS d  10     100.193  13.831 -68.582  0.00  0.00     0.241 C 
ATOM     90  O   HIS d  10     101.031  14.464 -69.243  0.00  0.00    -0.271 OA
ATOM     91  N   VAL d  11      98.950  13.901 -68.918  0.00  0.00    -0.346 N 
ATOM     92  H   VAL d  11      98.249  13.395 -68.396  0.00  0.00     0.163 HD
BRANCH  91  93
ATOM     93  CA  VAL d  11      98.571  14.722 -70.065  0.00  0.00     0.180 C 
BRANCH  93  94
ATOM     94  C   VAL d  11      99.026  16.150 -69.881  0.00  0.00     0.241 C 
ATOM     95  O   VAL d  11      99.609  16.774 -70.776  0.00  0.00    -0.271 OA
ATOM     96  N   GLN d  12      98.800  16.738 -68.755  0.00  0.00    -0.346 N 
ATOM     97  H   GLN d  12      98.327  16.250 -68.008  0.00  0.00     0.163 HD
BRANCH  96  98
ATOM     98  CA  GLN d  12      99.240  18.118 -68.576  0.00  0.00     0.177 C 
BRANCH  98  99
ATOM     99  C   GLN d  12     100.725  18.250 -68.815  0.00  0.00     0.241 C 
ATOM    100  O   GLN d  12     101.195  19.140 -69.519  0.00  0.00    -0.271 OA
ATOM    101  N   ARG d  13     101.525  17.402 -68.262  0.00  0.00    -0.346 N 
ATOM    102  H   ARG d  13     101.164  16.661 -67.678  0.00  0.00     0.163 HD
BRANCH 101 103
ATOM    103  CA  ARG d  13     102.961  17.530 -68.493  0.00  0.00     0.176 C 
BRANCH 103 104
ATOM    104  C   ARG d  13     103.276  17.489 -69.970  0.00  0.00     0.241 C 
ATOM    105  O   ARG d  13     104.030  18.303 -70.498  0.00  0.00    -0.271 OA
ATOM    106  N   VAL d  14     102.737  16.572 -70.699  0.00  0.00    -0.346 N 
ATOM    107  H   VAL d  14     102.114  15.891 -70.289  0.00  0.00     0.163 HD
BRANCH 106 108
ATOM    108  CA  VAL d  14     103.042  16.532 -72.127  0.00  0.00     0.180 C 
BRANCH 108 109
ATOM    109  C   VAL d  14     102.691  17.842 -72.791  0.00  0.00     0.241 C 
ATOM    110  O   VAL d  14     103.468  18.415 -73.565  0.00  0.00    -0.271 OA
ATOM    111  N   MET d  15     101.545  18.380 -72.544  0.00  0.00    -0.346 N 
ATOM    112  H   MET d  15     100.893  17.933 -71.916  0.00  0.00     0.163 HD
BRANCH 111 113
ATOM    113  CA  MET d  15     101.204  19.647 -73.185  0.00  0.00     0.177 C 
BRANCH 113 114
ATOM    114  C   MET d  15     102.230  20.708 -72.869  0.00  0.00     0.241 C 
ATOM    115  O   MET d  15     102.714  21.436 -73.749  0.00  0.00    -0.271 OA
ATOM    116  N   ARG d  16     102.616  20.862 -71.648  0.00  0.00    -0.347 N 
ATOM    117  H   ARG d  16     102.237  20.281 -70.913  0.00  0.00     0.163 HD
BRANCH 116 118
ATOM    118  CA  ARG d  16     103.608  21.889 -71.343  0.00  0.00     0.162 C 
BRANCH 118 119
ATOM    119  C   ARG d  16     104.869  21.677 -72.147  0.00  0.00     0.219 C 
ATOM    120  O   ARG d  16     104.979  20.758 -72.956  0.00  0.00    -0.287 OA
ENDBRANCH 118 119
BRANCH 118 121
ATOM    121  CB  ARG d  16     103.900  21.866 -69.815  0.00  0.00     0.035 C 
BRANCH 121 122
ATOM    122  CG  ARG d  16     104.723  23.068 -69.273  0.00  0.00     0.023 C 
BRANCH 122 123
ATOM    123  CD  ARG d  16     104.995  22.949 -67.765  0.00  0.00     0.138 C 
BRANCH 123 124
ATOM    124  NE  ARG d  16     105.768  24.137 -67.299  0.00  0.00    -0.227 N 
ATOM    125  CZ  ARG d  16     106.176  24.348 -66.051  0.00  0.00     0.665 C 
ATOM    126  NH1 ARG d  16     105.950  23.522 -65.068  0.00  0.00    -0.235 N 
ATOM    127  NH2 ARG d  16     106.835  25.434 -65.794  0.00  0.00    -0.235 N 
ATOM    128 11HH ARG d  16     105.427  22.686 -65.338  0.00  0.00     0.174 HD
ATOM    129 12HH ARG d  16     106.296  23.757 -64.137  0.00  0.00     0.174 HD
ATOM    130 21HH ARG d  16     107.003  26.069 -66.576  0.00  0.00     0.174 HD
ATOM    131 22HH ARG d  16     107.138  25.579 -64.829  0.00  0.00     0.174 HD
ATOM    132  HE  ARG d  16     106.031  24.884 -67.950  0.00  0.00     0.177 HD
ENDBRANCH 123 124
ENDBRANCH 122 123
ENDBRANCH 121 122
ENDBRANCH 118 121
ENDBRANCH 116 118
ENDBRANCH 113 114
BRANCH 113 133
ATOM    133  CB  MET d  15      99.785  20.098 -72.742  0.00  0.00     0.045 C 
BRANCH 133 134
ATOM    134  CG  MET d  15      98.625  19.158 -73.135  0.00  0.00     0.076 C 
BRANCH 134 135
ATOM    135  SD  MET d  15      97.049  19.963 -72.807  0.00  0.00    -0.173 SA
ATOM    136  CE  MET d  15      95.978  18.530 -72.977  0.00  0.00     0.089 C 
ENDBRANCH 134 135
ENDBRANCH 133 134
ENDBRANCH 113 133
ENDBRANCH 111 113
ENDBRANCH 108 109
BRANCH 108 137
ATOM    137  CB  VAL d  14     102.270  15.333 -72.806  0.00  0.00     0.009 C 
ATOM    138  CG1 VAL d  14     102.337  15.259 -74.357  0.00  0.00     0.012 C 
ATOM    139  CG2 VAL d  14     102.721  13.937 -72.313  0.00  0.00     0.012 C 
ENDBRANCH 108 137
ENDBRANCH 106 108
ENDBRANCH 103 104
BRANCH 103 140
ATOM    140  CB  ARG d  13     103.696  16.394 -67.725  0.00  0.00     0.036 C 
BRANCH 140 141
ATOM    141  CG  ARG d  13     105.241  16.538 -67.635  0.00  0.00     0.023 C 
BRANCH 141 142
ATOM    142  CD  ARG d  13     105.889  15.358 -66.892  0.00  0.00     0.138 C 
BRANCH 142 143
ATOM    143  NE  ARG d  13     107.366  15.561 -66.818  0.00  0.00    -0.227 N 
ATOM    144  CZ  ARG d  13     108.229  14.725 -66.249  0.00  0.00     0.665 C 
ATOM    145  NH1 ARG d  13     107.882  13.604 -65.682  0.00  0.00    -0.235 N 
ATOM    146  NH2 ARG d  13     109.486  15.040 -66.256  0.00  0.00    -0.235 N 
ATOM    147 11HH ARG d  13     106.877  13.415 -65.712  0.00  0.00     0.174 HD
ATOM    148 12HH ARG d  13     108.606  13.017 -65.266  0.00  0.00     0.174 HD
ATOM    149 21HH ARG d  13     109.740  15.922 -66.706  0.00  0.00     0.174 HD
ATOM    150 22HH ARG d  13     110.133  14.387 -65.813  0.00  0.00     0.174 HD
ATOM    151  HE  ARG d  13     107.804  16.396 -67.220  0.00  0.00     0.177 HD
ENDBRANCH 142 143
ENDBRANCH 141 142
ENDBRANCH 140 141
ENDBRANCH 103 140
ENDBRANCH 101 103
ENDBRANCH  98  99
BRANCH  98 152
ATOM    152  CB  GLN d  12      98.866  18.576 -67.149  0.00  0.00     0.044 C 
BRANCH 152 153
ATOM    153  CG  GLN d  12      99.219  20.056 -66.783  0.00  0.00     0.105 C 
BRANCH 153 154
ATOM    154  CD  GLN d  12      98.933  20.563 -65.365  0.00  0.00     0.215 C 
ATOM    155  NE2 GLN d  12      98.385  19.767 -64.482  0.00  0.00    -0.370 N 
ATOM    156 21HE GLN d  12      98.288  20.161 -63.545  0.00  0.00     0.159 HD
ATOM    157 22HE GLN d  12      98.225  18.810 -64.805  0.00  0.00     0.159 HD
ATOM    158  OE1 GLN d  12      99.230  21.700 -65.029  0.00  0.00    -0.274 OA
ENDBRANCH 153 154
ENDBRANCH 152 153
ENDBRANCH  98 152
ENDBRANCH  96  98
ENDBRANCH  93  94
BRANCH  93 159
ATOM    159  CB  VAL d  11      97.007  14.654 -70.280  0.00  0.00     0.009 C 
ATOM    160  CG1 VAL d  11      96.415  15.618 -71.345  0.00  0.00     0.012 C 
ATOM    161  CG2 VAL d  11      96.489  13.249 -70.668  0.00  0.00     0.012 C 
ENDBRANCH  93 159
ENDBRANCH  91  93
ENDBRANCH  88  89
BRANCH  88 162
ATOM    162  CB  HIS d  10     100.429  11.490 -67.732  0.00  0.00     0.095 C 
BRANCH 162 163
ATOM    163  CG  HIS d  10     101.722  10.739 -67.609  0.00  0.00     0.053 A 
ATOM    164  CD2 HIS d  10     102.126  10.127 -66.430  0.00  0.00     0.116 A 
ATOM    165  NE2 HIS d  10     103.343   9.537 -66.654  0.00  0.00    -0.359 N 
ATOM    166  CE1 HIS d  10     103.584   9.840 -67.958  0.00  0.00     0.207 A 
ATOM    167  2HE HIS d  10     103.924   9.001 -65.993  0.00  0.00     0.166 HD
ATOM    168  ND1 HIS d  10     102.661  10.560 -68.623  0.00  0.00    -0.247 NA
ENDBRANCH 162 163
ENDBRANCH  88 162
ENDBRANCH   3  88
TORSDOF 67
