@<TRIPOS>MOLECULE
12-17
260 261 16              
SMALL
USER_CHARGES
@<TRIPOS>ATOM
1	   N	1976.858	596.943	-2036.059	N.3	1	GLU1	-0.516	
2	  CA	1977.417	598.292	-2036.059	C.3	1	GLU1	0.040	
3	   C	1978.926	598.252	-2036.059	C.2	1	GLU1	0.537	
4	   O	1979.602	598.951	-2036.828	O.2	1	GLU1	-0.582	
5	  CB	1976.894	599.077	-2034.822	C.3	1	GLU1	0.056	
6	  CG	1977.369	600.562	-2034.711	C.3	1	GLU1	0.014	
7	  CD	1976.945	601.366	-2033.496	C.2	1	GLU1	0.805	
8	 OE1	1976.217	600.864	-2032.618	O.co2	1	GLU1	-0.819	
9	 OE2	1977.375	602.536	-2033.424	O.co2	1	GLU1	-0.819	
10	   H	1977.485	596.064	-2036.059	 H	1	GLU1	0.294	
11	  HA	1977.091	598.810	-2036.979	 H	1	GLU1	0.111	
12	 2HB	1977.183	598.546	-2033.892	 H	1	GLU1	-0.017	
13	 3HB	1975.787	599.067	-2034.809	 H	1	GLU1	-0.017	
14	 2HG	1977.059	601.147	-2035.592	 H	1	GLU1	-0.043	
15	 3HG	1978.469	600.629	-2034.682	 H	1	GLU1	-0.043	
16	   N	1979.530	597.466	-2035.234	N.am	2	ASN2	-0.416	
17	  CA	1980.990	597.427	-2035.234	C.3	2	ASN2	0.014	
18	   C	1981.521	597.072	-2036.603	C.2	2	ASN2	0.597	
19	   O	1982.436	597.702	-2037.132	O.2	2	ASN2	-0.568	
20	  CB	1981.482	596.404	-2034.170	C.3	2	ASN2	-0.204	
21	  CG	1981.018	596.628	-2032.727	C.2	2	ASN2	0.713	
22	 ND2	1981.613	597.543	-2032.008	N.pl3	2	ASN2	-0.919	
23	 OD1	1980.098	595.994	-2032.232	O.2	2	ASN2	-0.593	
24	   H	1979.002	596.886	-2034.598	 H	2	ASN2	0.272	
25	  HA	1981.367	598.437	-2034.989	 H	2	ASN2	0.105	
26	 2HB	1982.586	596.345	-2034.173	 H	2	ASN2	0.080	
27	 3HB	1981.152	595.386	-2034.456	 H	2	ASN2	0.080	
28	1HD2	1981.132	597.716	-2031.122	 H	2	ASN2	0.420	
29	2HD2	1982.314	598.115	-2032.478	 H	2	ASN2	0.420	
30	   N	1980.999	596.077	-2037.237	N.am	3	PRO3	-0.255	
31	  CA	1981.451	595.667	-2038.558	C.3	3	PRO3	-0.027	
32	   C	1981.053	596.691	-2039.635	C.2	3	PRO3	0.590	
33	   O	1981.876	597.074	-2040.467	O.2	3	PRO3	-0.575	
34	  CB	1980.747	594.313	-2038.728	C.3	3	PRO3	-0.007	
35	  CG	1979.464	594.465	-2037.898	C.3	3	PRO3	0.019	
36	  CD	1979.921	595.284	-2036.688	C.3	3	PRO3	0.019	
37	  HA	1982.537	595.547	-2038.572	 H	3	PRO3	0.064	
38	 2HB	1981.370	593.531	-2038.287	 H	3	PRO3	0.025	
39	 3HB	1980.549	594.064	-2039.773	 H	3	PRO3	0.025	
40	 2HG	1979.036	593.503	-2037.606	 H	3	PRO3	0.021	
41	 3HG	1978.726	595.036	-2038.465	 H	3	PRO3	0.021	
42	 2HD	1980.310	594.634	-2035.900	 H	3	PRO3	0.039	
43	 3HD	1979.125	595.919	-2036.295	 H	3	PRO3	0.039	
44	   N	1979.848	597.151	-2039.668	N.am	4	GLU4	-0.516	
45	  CA	1979.489	598.122	-2040.697	C.3	4	GLU4	0.040	
46	   C	1980.387	599.333	-2040.636	C.2	4	GLU4	0.537	
47	   O	1980.914	599.812	-2041.651	O.2	4	GLU4	-0.582	
48	  CB	1978.000	598.541	-2040.527	C.3	4	GLU4	0.056	
49	  CG	1977.452	599.544	-2041.593	C.3	4	GLU4	0.014	
50	  CD	1976.026	600.041	-2041.449	C.2	4	GLU4	0.805	
51	 OE1	1975.299	599.643	-2040.518	O.co2	4	GLU4	-0.819	
52	 OE2	1975.636	600.870	-2042.297	O.co2	4	GLU4	-0.819	
53	   H	1979.164	596.844	-2038.991	 H	4	GLU4	0.294	
54	  HA	1979.620	597.651	-2041.688	 H	4	GLU4	0.111	
55	 2HB	1977.848	598.980	-2039.520	 H	4	GLU4	-0.017	
56	 3HB	1977.352	597.643	-2040.533	 H	4	GLU4	-0.017	
57	 2HG	1977.534	599.130	-2042.610	 H	4	GLU4	-0.043	
58	 3HG	1978.040	600.477	-2041.604	 H	4	GLU4	-0.043	
59	   N	1980.615	599.886	-2039.493	N.am	5	SER5	-0.416	
60	  CA	1981.484	601.057	-2039.435	C.3	5	SER5	-0.025	
61	   C	1982.843	600.751	-2040.020	C.2	5	SER5	0.597	
62	   O	1983.391	601.505	-2040.825	O.2	5	SER5	-0.568	
63	  CB	1981.596	601.589	-2037.984	C.3	5	SER5	0.212	
64	  OG	1982.328	600.710	-2037.123	O.3	5	SER5	-0.655	
65	   H	1980.198	599.514	-2038.651	 H	5	SER5	0.272	
66	  HA	1981.035	601.847	-2040.064	 H	5	SER5	0.084	
67	 2HB	1980.596	601.783	-2037.551	 H	5	SER5	0.035	
68	 3HB	1982.101	602.575	-2037.986	 H	5	SER5	0.035	
69	  HG	1981.839	599.885	-2037.072	 H	5	SER5	0.428	
70	   N	1983.448	599.668	-2039.666	N.am	6	ILE6	-0.416	
71	  CA	1984.761	599.374	-2040.232	C.3	6	ILE6	-0.060	
72	   C	1984.704	599.336	-2041.740	C.2	6	ILE6	0.597	
73	   O	1985.539	599.924	-2042.444	O.2	6	ILE6	-0.568	
74	  CB	1985.361	598.037	-2039.632	C.3	6	ILE6	0.130	
75	 CG1	1985.381	597.975	-2038.071	C.3	6	ILE6	-0.043	
76	 CG2	1986.802	597.736	-2040.147	C.3	6	ILE6	-0.320	
77	 CD1	1985.651	596.586	-2037.456	C.3	6	ILE6	-0.066	
78	   H	1983.020	599.034	-2039.007	 H	6	ILE6	0.272	
79	  HA	1985.435	600.208	-2039.964	 H	6	ILE6	0.087	
80	  HB	1984.703	597.211	-2039.976	 H	6	ILE6	0.019	
81	2HG1	1984.398	598.295	-2037.675	 H	6	ILE6	0.024	
82	3HG1	1986.097	598.718	-2037.667	 H	6	ILE6	0.024	
83	1HG2	1986.861	597.642	-2041.246	 H	6	ILE6	0.088	
84	2HG2	1987.525	598.518	-2039.845	 H	6	ILE6	0.088	
85	3HG2	1987.193	596.774	-2039.769	 H	6	ILE6	0.088	
86	1HD1	1984.923	595.832	-2037.811	 H	6	ILE6	0.019	
87	2HD1	1986.661	596.208	-2037.692	 H	6	ILE6	0.019	
88	3HD1	1985.575	596.616	-2036.354	 H	6	ILE6	0.019	
89	   N	1983.758	598.672	-2042.314	N.am	7	LEU7	-0.416	
90	  CA	1983.703	598.636	-2043.772	C.3	7	LEU7	-0.052	
91	   C	1983.631	600.032	-2044.345	C.2	7	LEU7	0.597	
92	   O	1984.351	600.395	-2045.286	O.2	7	LEU7	-0.568	
93	  CB	1982.500	597.776	-2044.252	C.3	7	LEU7	-0.110	
94	  CG	1982.428	596.297	-2043.786	C.3	7	LEU7	0.353	
95	 CD1	1981.238	595.591	-2044.452	C.3	7	LEU7	-0.412	
96	 CD2	1983.722	595.518	-2044.078	C.3	7	LEU7	-0.412	
97	   H	1983.066	598.185	-2041.762	 H	7	LEU7	0.272	
98	  HA	1984.645	598.197	-2044.146	 H	7	LEU7	0.092	
99	 2HB	1982.477	597.792	-2045.360	 H	7	LEU7	0.046	
100	 3HB	1981.561	598.279	-2043.948	 H	7	LEU7	0.046	
101	  HG	1982.258	596.289	-2042.689	 H	7	LEU7	-0.036	
102	1HD1	1980.281	596.100	-2044.229	 H	7	LEU7	0.100	
103	2HD1	1981.337	595.550	-2045.553	 H	7	LEU7	0.100	
104	3HD1	1981.131	594.549	-2044.096	 H	7	LEU7	0.100	
105	1HD2	1983.997	595.548	-2045.148	 H	7	LEU7	0.100	
106	2HD2	1984.575	595.929	-2043.506	 H	7	LEU7	0.100	
107	3HD2	1983.640	594.455	-2043.782	 H	7	LEU7	0.100	
108	   N	1982.793	600.872	-2043.838	N.am	8	ASP8	-0.516	
109	  CA	1982.723	602.221	-2044.391	C.3	8	ASP8	0.038	
110	   C	1984.069	602.902	-2044.334	C.2	8	ASP8	0.537	
111	   O	1984.542	603.507	-2045.309	O.2	8	ASP8	-0.582	
112	  CB	1981.644	603.060	-2043.650	C.3	8	ASP8	-0.030	
113	  CG	1981.425	604.481	-2044.190	C.2	8	ASP8	0.799	
114	 OD1	1981.489	604.680	-2045.421	O.co2	8	ASP8	-0.801	
115	 OD2	1981.233	605.407	-2043.374	O.co2	8	ASP8	-0.801	
116	   H	1982.195	600.601	-2043.071	 H	8	ASP8	0.294	
117	  HA	1982.440	602.144	-2045.459	 H	8	ASP8	0.088	
118	 2HB	1981.902	603.143	-2042.578	 H	8	ASP8	-0.012	
119	 3HB	1980.665	602.555	-2043.683	 H	8	ASP8	-0.012	
120	   N	1984.749	602.852	-2043.239	N.am	9	GLU9	-0.516	
121	  CA	1986.051	603.510	-2043.183	C.3	9	GLU9	0.040	
122	   C	1986.970	602.983	-2044.259	C.2	9	GLU9	0.537	
123	   O	1987.634	603.737	-2044.984	O.2	9	GLU9	-0.582	
124	  CB	1986.685	603.302	-2041.778	C.3	9	GLU9	0.056	
125	  CG	1988.067	603.995	-2041.548	C.3	9	GLU9	0.014	
126	  CD	1988.769	603.781	-2040.220	C.2	9	GLU9	0.805	
127	 OE1	1988.247	603.090	-2039.324	O.co2	9	GLU9	-0.819	
128	 OE2	1989.888	604.319	-2040.088	O.co2	9	GLU9	-0.819	
129	   H	1984.385	602.365	-2042.432	 H	9	GLU9	0.294	
130	  HA	1985.909	604.592	-2043.358	 H	9	GLU9	0.111	
131	 2HB	1986.798	602.218	-2041.575	 H	9	GLU9	-0.017	
132	 3HB	1985.988	603.655	-2040.994	 H	9	GLU9	-0.017	
133	 2HG	1987.995	605.085	-2041.688	 H	9	GLU9	-0.043	
134	 3HG	1988.814	603.650	-2042.282	 H	9	GLU9	-0.043	
135	   N	1987.066	601.707	-2044.429	N.am	10	HIS10	-0.416	
136	  CA	1987.954	601.196	-2045.469	C.3	10	HIS10	-0.058	
137	   C	1987.587	601.761	-2046.820	C.2	10	HIS10	0.597	
138	   O	1988.440	602.226	-2047.592	O.2	10	HIS10	-0.568	
139	  CB	1987.790	599.667	-2045.464	C.3	10	HIS10	-0.007	
140	  CG	1989.076	598.957	-2045.156	C.2	10	HIS10	0.187	
141	 CD2	1989.457	598.622	-2043.864	C.2	10	HIS10	-0.221	
142	 ND1	1990.028	598.552	-2046.089	N.2	10	HIS10	-0.543	
143	 CE1	1990.935	597.993	-2045.265	C.2	10	HIS10	0.163	
144	 NE2	1990.672	597.990	-2043.930	N.pl3	10	HIS10	-0.280	
145	   H	1986.535	601.072	-2043.850	 H	10	HIS10	0.272	
146	  HA	1988.973	601.554	-2045.244	 H	10	HIS10	0.136	
147	 2HB	1987.425	599.300	-2046.444	 H	10	HIS10	0.037	
148	 3HB	1987.035	599.330	-2044.724	 H	10	HIS10	0.037	
149	 2HD	1988.871	598.837	-2042.974	 H	10	HIS10	0.186	
150	 1HE	1991.825	597.572	-2045.712	 H	10	HIS10	0.144	
151	 2HE	1991.238	597.613	-2043.157	 H	10	HIS10	0.334	
152	   N	1986.350	601.760	-2047.183	N.am	11	VAL11	-0.416	
153	  CA	1985.995	602.306	-2048.490	C.3	11	VAL11	-0.087	
154	   C	1986.458	603.737	-2048.623	C.2	11	VAL11	0.597	
155	   O	1987.059	604.142	-2049.625	O.2	11	VAL11	-0.568	
156	  CB	1984.433	602.199	-2048.710	C.3	11	VAL11	0.299	
157	 CG1	1983.865	602.903	-2049.972	C.3	11	VAL11	-0.319	
158	 CG2	1983.909	600.745	-2048.783	C.3	11	VAL11	-0.319	
159	   H	1985.637	601.387	-2046.573	 H	11	VAL11	0.272	
160	  HA	1986.514	601.723	-2049.272	 H	11	VAL11	0.097	
161	  HB	1983.946	602.679	-2047.834	 H	11	VAL11	-0.030	
162	1HG1	1984.303	602.511	-2050.909	 H	11	VAL11	0.079	
163	2HG1	1982.766	602.795	-2050.054	 H	11	VAL11	0.079	
164	3HG1	1984.042	603.995	-2049.963	 H	11	VAL11	0.079	
165	1HG2	1984.199	600.158	-2047.892	 H	11	VAL11	0.079	
166	2HG2	1982.803	600.707	-2048.825	 H	11	VAL11	0.079	
167	3HG2	1984.291	600.204	-2049.669	 H	11	VAL11	0.079	
168	   N	1986.221	604.562	-2047.660	N.am	12	ASP12	-0.516	
169	  CA	1986.669	605.946	-2047.787	C.3	12	ASP12	0.038	
170	   C	1988.158	606.013	-2048.025	C.2	12	ASP12	0.537	
171	   O	1988.651	606.728	-2048.912	O.2	12	ASP12	-0.582	
172	  CB	1986.270	606.767	-2046.529	C.3	12	ASP12	-0.030	
173	  CG	1986.625	608.261	-2046.575	C.2	12	ASP12	0.799	
174	 OD1	1986.526	608.876	-2047.657	O.co2	12	ASP12	-0.801	
175	 OD2	1987.046	608.806	-2045.534	O.co2	12	ASP12	-0.801	
176	   H	1985.732	604.255	-2046.831	 H	12	ASP12	0.294	
177	  HA	1986.175	606.390	-2048.673	 H	12	ASP12	0.088	
178	 2HB	1986.745	606.335	-2045.630	 H	12	ASP12	-0.012	
179	 3HB	1985.184	606.706	-2046.351	 H	12	ASP12	-0.012	
180	   N	1988.943	605.306	-2047.284	N.am	13	ARG13	-0.348	
181	  CA	1990.383	605.371	-2047.515	C.3	13	ARG13	-0.264	
182	   C	1990.719	605.000	-2048.940	C.2	13	ARG13	0.734	
183	   O	1991.488	605.671	-2049.624	O.2	13	ARG13	-0.589	
184	  CB	1991.096	604.432	-2046.501	C.3	13	ARG13	-0.001	
185	  CG	1992.641	604.584	-2046.420	C.3	13	ARG13	0.039	
186	  CD	1993.267	603.596	-2045.422	C.3	13	ARG13	0.049	
187	  NE	1994.745	603.803	-2045.372	N.pl3	13	ARG13	-0.530	
188	  CZ	1995.592	603.110	-2044.617	C.cat	13	ARG13	0.808	
189	 NH1	1995.227	602.146	-2043.820	N.pl3	13	ARG13	-0.863	
190	 NH2	1996.852	603.409	-2044.674	N.pl3	13	ARG13	-0.863	
191	   H	1988.566	604.716	-2046.556	 H	13	ARG13	0.275	
192	  HA	1990.708	606.417	-2047.356	 H	13	ARG13	0.156	
193	 2HB	1990.829	603.381	-2046.741	 H	13	ARG13	0.033	
194	 3HB	1990.671	604.598	-2045.491	 H	13	ARG13	0.033	
195	 2HG	1992.889	605.629	-2046.140	 H	13	ARG13	0.029	
196	 3HG	1993.091	604.428	-2047.422	 H	13	ARG13	0.029	
197	 2HD	1993.023	602.556	-2045.732	 H	13	ARG13	0.069	
198	 3HD	1992.811	603.742	-2044.420	 H	13	ARG13	0.069	
199	  HE	1995.196	604.525	-2045.943	 H	13	ARG13	0.346	
200	1HH1	1994.221	601.960	-2043.823	 H	13	ARG13	0.448	
201	2HH1	1995.940	601.662	-2043.271	 H	13	ARG13	0.448	
202	1HH2	1997.120	604.167	-2045.305	 H	13	ARG13	0.448	
203	2HH2	1997.487	602.867	-2044.085	 H	13	ARG13	0.448	
204	   N	1990.182	603.946	-2049.455	N.am	14	VAL14	-0.416	
205	  CA	1990.507	603.587	-2050.832	C.3	14	VAL14	-0.087	
206	   C	1990.177	604.717	-2051.778	C.2	14	VAL14	0.597	
207	   O	1990.971	605.098	-2052.647	O.2	14	VAL14	-0.568	
208	  CB	1989.734	602.270	-2051.239	C.3	14	VAL14	0.299	
209	 CG1	1989.823	601.852	-2052.733	C.3	14	VAL14	-0.319	
210	 CG2	1990.165	601.017	-2050.439	C.3	14	VAL14	-0.319	
211	   H	1989.547	603.377	-2048.913	 H	14	VAL14	0.272	
212	  HA	1991.595	603.409	-2050.907	 H	14	VAL14	0.097	
213	  HB	1988.658	602.441	-2051.023	 H	14	VAL14	-0.030	
214	1HG1	1990.864	601.674	-2053.062	 H	14	VAL14	0.079	
215	2HG1	1989.250	600.929	-2052.946	 H	14	VAL14	0.079	
216	3HG1	1989.394	602.614	-2053.411	 H	14	VAL14	0.079	
217	1HG2	1990.079	601.176	-2049.349	 H	14	VAL14	0.079	
218	2HG2	1989.529	600.141	-2050.671	 H	14	VAL14	0.079	
219	3HG2	1991.213	600.727	-2050.645	 H	14	VAL14	0.079	
220	   N	1989.033	605.303	-2051.676	N.am	15	MET15	-0.416	
221	  CA	1988.713	606.396	-2052.590	C.3	15	MET15	-0.024	
222	   C	1989.743	607.495	-2052.502	C.2	15	MET15	0.597	
223	   O	1990.246	608.006	-2053.515	O.2	15	MET15	-0.568	
224	  CB	1987.292	606.942	-2052.281	C.3	15	MET15	0.034	
225	  CG	1986.129	605.944	-2052.472	C.3	15	MET15	0.002	
226	  SD	1984.556	606.811	-2052.358	S.3	15	MET15	-0.274	
227	  CE	1983.474	605.382	-2052.221	C.3	15	MET15	-0.054	
228	   H	1988.368	605.010	-2050.974	 H	15	MET15	0.272	
229	  HA	1988.738	606.008	-2053.625	 H	15	MET15	0.088	
230	 2HB	1987.090	607.821	-2052.923	 H	15	MET15	0.024	
231	 3HB	1987.256	607.335	-2051.244	 H	15	MET15	0.024	
232	 2HG	1986.172	605.158	-2051.695	 H	15	MET15	0.044	
233	 3HG	1986.192	605.429	-2053.448	 H	15	MET15	0.044	
234	 1HE	1983.617	604.694	-2053.073	 H	15	MET15	0.068	
235	 2HE	1983.683	604.829	-2051.288	 H	15	MET15	0.068	
236	 3HE	1982.416	605.698	-2052.204	 H	15	MET15	0.068	
237	   N	1990.112	607.916	-2051.340	N.am	16	ARG16	-0.348	
238	  CA	1991.109	608.979	-2051.256	C.3	16	ARG16	-0.264	
239	   C	1992.380	608.586	-2051.973	C.2	16	ARG16	0.734	
240	   O	1992.493	607.510	-2052.554	O.2	16	ARG16	-0.589	
241	  CB	1991.379	609.297	-2049.758	C.3	16	ARG16	-0.001	
242	  CG	1992.205	610.586	-2049.485	C.3	16	ARG16	0.039	
243	  CD	1992.454	610.805	-2047.984	C.3	16	ARG16	0.049	
244	  NE	1993.231	612.063	-2047.783	N.pl3	16	ARG16	-0.530	
245	  CZ	1993.623	612.546	-2046.607	C.cat	16	ARG16	0.808	
246	 NH1	1993.375	611.961	-2045.469	N.pl3	16	ARG16	-0.863	
247	 NH2	1994.287	613.658	-2046.589	N.pl3	16	ARG16	-0.863	
248	   H	1989.717	607.516	-2050.500	 H	16	ARG16	0.275	
249	  HA	1990.700	609.872	-2051.766	 H	16	ARG16	0.156	
250	 2HB	1991.875	608.421	-2049.292	 H	16	ARG16	0.033	
251	 3HB	1990.410	609.378	-2049.224	 H	16	ARG16	0.033	
252	 2HG	1991.674	611.457	-2049.922	 H	16	ARG16	0.029	
253	 3HG	1993.178	610.532	-2050.014	 H	16	ARG16	0.029	
254	 2HD	1993.003	609.930	-2047.571	 H	16	ARG16	0.069	
255	 3HD	1991.482	610.848	-2047.448	 H	16	ARG16	0.069	
256	  HE	1993.510	612.644	-2048.580	 H	16	ARG16	0.346	
257	1HH1	1992.849	611.088	-2045.553	 H	16	ARG16	0.448	
258	2HH1	1993.710	612.397	-2044.608	 H	16	ARG16	0.448	
259	1HH2	1994.473	614.101	-2047.491	 H	16	ARG16	0.448	
260	2HH2	1994.578	614.013	-2045.676	 H	16	ARG16	0.448	
@<TRIPOS>BOND
1 1 2 1
2 1 10 1
3 2 3 1
4 2 5 1
5 2 11 1
6 3 4 2
7 3 16 1
8 5 6 1
9 6 7 1
10 7 8 2
11 7 9 1
12 5 12 1
13 5 13 1
14 6 14 1
15 6 15 1
16 16 17 1
17 16 24 1
18 17 18 1
19 17 20 1
20 17 25 1
21 18 19 2
22 18 30 1
23 20 21 1
24 21 22 1
25 21 23 2
26 20 26 1
27 20 27 1
28 22 28 1
29 22 29 1
30 30 31 1
31 30 36 1
32 31 32 1
33 31 34 1
34 31 37 1
35 32 33 2
36 32 44 1
37 34 35 1
38 35 36 1
39 34 38 1
40 34 39 1
41 35 40 1
42 35 41 1
43 36 42 1
44 36 43 1
45 44 45 1
46 44 53 1
47 45 46 1
48 45 48 1
49 45 54 1
50 46 47 2
51 46 59 1
52 48 49 1
53 49 50 1
54 50 51 2
55 50 52 1
56 48 55 1
57 48 56 1
58 49 57 1
59 49 58 1
60 59 60 1
61 59 65 1
62 60 61 1
63 60 63 1
64 60 66 1
65 61 62 2
66 61 70 1
67 63 64 1
68 63 67 1
69 63 68 1
70 64 69 1
71 70 71 1
72 70 78 1
73 71 72 1
74 71 74 1
75 71 79 1
76 72 73 2
77 72 89 1
78 74 75 1
79 74 76 1
80 75 77 1
81 74 80 1
82 75 81 1
83 75 82 1
84 76 83 1
85 76 84 1
86 76 85 1
87 77 86 1
88 77 87 1
89 77 88 1
90 89 90 1
91 89 97 1
92 90 91 1
93 90 93 1
94 90 98 1
95 91 92 2
96 91 108 1
97 93 94 1
98 94 95 1
99 94 96 1
100 93 99 1
101 93 100 1
102 94 101 1
103 95 102 1
104 95 103 1
105 95 104 1
106 96 105 1
107 96 106 1
108 96 107 1
109 108 109 1
110 108 116 1
111 109 110 1
112 109 112 1
113 109 117 1
114 110 111 2
115 110 120 1
116 112 113 1
117 113 114 2
118 113 115 1
119 112 118 1
120 112 119 1
121 120 121 1
122 120 129 1
123 121 122 1
124 121 124 1
125 121 130 1
126 122 123 2
127 122 135 1
128 124 125 1
129 125 126 1
130 126 127 2
131 126 128 1
132 124 131 1
133 124 132 1
134 125 133 1
135 125 134 1
136 135 136 1
137 135 145 1
138 136 137 1
139 136 139 1
140 136 146 1
141 137 138 2
142 137 152 1
143 139 140 1
144 140 141 2
145 141 144 1
146 140 142 1
147 142 143 2
148 143 144 1
149 139 147 1
150 139 148 1
151 141 149 1
152 143 150 1
153 144 151 1
154 152 153 1
155 152 159 1
156 153 154 1
157 153 156 1
158 153 160 1
159 154 155 2
160 154 168 1
161 156 157 1
162 156 158 1
163 156 161 1
164 157 162 1
165 157 163 1
166 157 164 1
167 158 165 1
168 158 166 1
169 158 167 1
170 168 169 1
171 168 176 1
172 169 170 1
173 169 172 1
174 169 177 1
175 170 171 2
176 170 180 1
177 172 173 1
178 173 174 2
179 173 175 1
180 172 178 1
181 172 179 1
182 180 181 1
183 180 191 1
184 181 182 1
185 181 184 1
186 181 192 1
187 182 183 2
188 182 204 1
189 184 185 1
190 185 186 1
191 186 187 1
192 187 188 1
193 188 189 2
194 188 190 1
195 184 193 1
196 184 194 1
197 185 195 1
198 185 196 1
199 186 197 1
200 186 198 1
201 187 199 1
202 189 200 1
203 189 201 1
204 190 202 1
205 190 203 1
206 204 205 1
207 204 211 1
208 205 206 1
209 205 208 1
210 205 212 1
211 206 207 2
212 206 220 1
213 208 209 1
214 208 210 1
215 208 213 1
216 209 214 1
217 209 215 1
218 209 216 1
219 210 217 1
220 210 218 1
221 210 219 1
222 220 221 1
223 220 228 1
224 221 222 1
225 221 224 1
226 221 229 1
227 222 223 2
228 222 237 1
229 224 225 1
230 225 226 1
231 226 227 1
232 224 230 1
233 224 231 1
234 225 232 1
235 225 233 1
236 227 234 1
237 227 235 1
238 227 236 1
239 237 238 1
240 237 248 1
241 238 239 1
242 238 241 1
243 238 249 1
244 239 240 2
245 241 242 1
246 242 243 1
247 243 244 1
248 244 245 1
249 245 246 2
250 245 247 1
251 241 250 1
252 241 251 1
253 242 252 1
254 242 253 1
255 243 254 1
256 243 255 1
257 244 256 1
258 246 257 1
259 246 258 1
260 247 259 1
261 247 260 1
@<TRIPOS>SUBSTRUCTURE
1	GLU1	1	RESIDUE	1 ****	GLU
2	ASN2	16	RESIDUE	1 ****	ASN
3	PRO3	30	RESIDUE	1 ****	PRO
4	GLU4	44	RESIDUE	1 ****	GLU
5	SER5	59	RESIDUE	1 ****	SER
6	ILE6	70	RESIDUE	1 ****	ILE
7	LEU7	89	RESIDUE	1 ****	LEU
8	ASP8	108	RESIDUE	1 ****	ASP
9	GLU9	120	RESIDUE	1 ****	GLU
10	HIS10	135	RESIDUE	1 ****	HIS
11	VAL11	152	RESIDUE	1 ****	VAL
12	ASP12	168	RESIDUE	1 ****	ASP
13	ARG13	180	RESIDUE	1 ****	ARG
14	VAL14	204	RESIDUE	1 ****	VAL
15	MET15	220	RESIDUE	1 ****	MET
16	ARG16	237	RESIDUE	1 ****	ARG
