REMARK WARNING: 32 MAX_TORS EXCEEDED!!!
REMARK  67 active torsions:
REMARK  status: ('A' for Active; 'I' for Inactive)
REMARK    1  A    between atoms: N_1  and  CA_2 
REMARK    2  A    between atoms: CA_2  and  C_3 
REMARK    3  A    between atoms: CA_2  and  CB_5 
REMARK       I    between atoms: C_3  and  N_11 
REMARK    4  A    between atoms: CB_5  and  CG_6 
REMARK    5  A    between atoms: CG_6  and  CD_7 
REMARK    6  A    between atoms: N_11  and  CA_12 
REMARK    7  A    between atoms: CA_12  and  C_13 
REMARK    8  A    between atoms: CA_12  and  CB_15 
REMARK       I    between atoms: C_13  and  N_22 
REMARK    9  A    between atoms: CB_15  and  CG_16 
REMARK       I    between atoms: CG_16  and  ND2_17 
REMARK   10  A    between atoms: CA_23  and  C_24 
REMARK       I    between atoms: C_24  and  N_29 
REMARK   11  A    between atoms: N_29  and  CA_30 
REMARK   12  A    between atoms: CA_30  and  C_31 
REMARK   13  A    between atoms: CA_30  and  CB_33 
REMARK       I    between atoms: C_31  and  N_39 
REMARK   14  A    between atoms: CB_33  and  CG_34 
REMARK   15  A    between atoms: CG_34  and  CD_35 
REMARK   16  A    between atoms: N_39  and  CA_40 
REMARK   17  A    between atoms: CA_40  and  C_41 
REMARK   18  A    between atoms: CA_40  and  CB_43 
REMARK       I    between atoms: C_41  and  N_47 
REMARK   19  A    between atoms: CB_43  and  OG_44 
REMARK   20  A    between atoms: N_47  and  CA_48 
REMARK   21  A    between atoms: CA_48  and  C_49 
REMARK   22  A    between atoms: CA_48  and  CB_51 
REMARK       I    between atoms: C_49  and  N_56 
REMARK   23  A    between atoms: CB_51  and  CG1_52 
REMARK   24  A    between atoms: N_56  and  CA_57 
REMARK   25  A    between atoms: CA_57  and  C_58 
REMARK   26  A    between atoms: CA_57  and  CB_60 
REMARK       I    between atoms: C_58  and  N_65 
REMARK   27  A    between atoms: CB_60  and  CG_61 
REMARK   28  A    between atoms: N_65  and  CA_66 
REMARK   29  A    between atoms: CA_66  and  C_67 
REMARK   30  A    between atoms: CA_66  and  CB_69 
REMARK       I    between atoms: C_67  and  N_74 
REMARK   31  A    between atoms: CB_69  and  CG_70 
REMARK   32  A    between atoms: N_74  and  CA_75 
REMARK   33  A    between atoms: CA_75  and  C_76 
REMARK   34  A    between atoms: CA_75  and  CB_78 
REMARK       I    between atoms: C_76  and  N_84 
REMARK   35  A    between atoms: CB_78  and  CG_79 
REMARK   36  A    between atoms: CG_79  and  CD_80 
REMARK   37  A    between atoms: N_84  and  CA_85 
REMARK   38  A    between atoms: CA_85  and  C_86 
REMARK   39  A    between atoms: CA_85  and  CB_88 
REMARK       I    between atoms: C_86  and  N_92 
REMARK   40  A    between atoms: N_92  and  CA_93 
REMARK   41  A    between atoms: CA_93  and  C_94 
REMARK   42  A    between atoms: CA_93  and  CB_96 
REMARK       I    between atoms: C_94  and  N_100 
REMARK   43  A    between atoms: N_100  and  CA_101 
REMARK   44  A    between atoms: CA_101  and  C_102 
REMARK   45  A    between atoms: CA_101  and  CB_104 
REMARK       I    between atoms: C_102  and  N_112 
REMARK   46  A    between atoms: CB_104  and  CG_105 
REMARK   47  A    between atoms: CG_105  and  CD_106 
REMARK       I    between atoms: CD_106  and  NE2_107 
REMARK   48  A    between atoms: N_112  and  CA_113 
REMARK   49  A    between atoms: CA_113  and  C_114 
REMARK   50  A    between atoms: CA_113  and  CB_116 
REMARK       I    between atoms: C_114  and  N_129 
REMARK   51  A    between atoms: CB_116  and  CG_117 
REMARK   52  A    between atoms: CG_117  and  CD_118 
REMARK   53  A    between atoms: CD_118  and  NE_119 
REMARK       I    between atoms: NE_119  and  CZ_120 
REMARK       I    between atoms: CZ_120  and  NH1_121 
REMARK       I    between atoms: CZ_120  and  NH2_122 
REMARK   54  A    between atoms: N_129  and  CA_130 
REMARK   55  A    between atoms: CA_130  and  C_131 
REMARK   56  A    between atoms: CA_130  and  CB_133 
REMARK       I    between atoms: C_131  and  N_137 
REMARK   57  A    between atoms: N_137  and  CA_138 
REMARK   58  A    between atoms: CA_138  and  C_139 
REMARK   59  A    between atoms: CA_138  and  CB_141 
REMARK       I    between atoms: C_139  and  N_146 
REMARK   60  A    between atoms: CB_141  and  CG_142 
REMARK   61  A    between atoms: CG_142  and  SD_143 
REMARK   62  A    between atoms: N_146  and  CA_147 
REMARK   63  A    between atoms: CA_147  and  C_148 
REMARK   64  A    between atoms: CA_147  and  CB_150 
REMARK   65  A    between atoms: CB_150  and  CG_151 
REMARK   66  A    between atoms: CG_151  and  CD_152 
REMARK   67  A    between atoms: CD_152  and  NE_153 
REMARK       I    between atoms: NE_153  and  CZ_154 
REMARK       I    between atoms: CZ_154  and  NH1_155 
ROOT
ATOM      1  CA  GLU d   9    1550.860 462.841-1571.446  0.00  0.00     0.177 C 
ENDROOT
BRANCH   1   2
ATOM      2  N   GLU d   9    1549.558 462.184-1571.502  0.00  0.00    -0.346 N 
ATOM      3  C   ASP d   8    1548.878 462.234-1572.597  0.00  0.00     0.241 C 
ATOM      4  O   ASP d   8    1549.350 462.839-1573.571  0.00  0.00    -0.271 OA
ATOM      5  H   GLU d   9    1549.194 461.697-1570.695  0.00  0.00     0.163 HD
BRANCH   3   6
ATOM      6  CA  ASP d   8    1547.531 461.554-1572.654  0.00  0.00     0.186 C 
BRANCH   6   7
ATOM      7  N   ASP d   8    1547.602 460.204-1572.101  0.00  0.00    -0.346 N 
ATOM      8  C   LEU d   7    1548.439 459.364-1572.608  0.00  0.00     0.241 C 
ATOM      9  O   LEU d   7    1549.159 459.727-1573.550  0.00  0.00    -0.271 OA
ATOM     10  H   ASP d   8    1547.004 459.933-1571.334  0.00  0.00     0.163 HD
BRANCH   8  11
ATOM     11  CA  LEU d   7    1548.511 457.968-1572.036  0.00  0.00     0.177 C 
BRANCH  11  12
ATOM     12  N   LEU d   7    1548.567 458.004-1570.577  0.00  0.00    -0.346 N 
ATOM     13  C   ILE d   6    1549.512 458.668-1570.004  0.00  0.00     0.241 C 
ATOM     14  O   ILE d   6    1550.347 459.256-1570.708  0.00  0.00    -0.271 OA
ATOM     15  H   LEU d   7    1547.875 457.517-1570.026  0.00  0.00     0.163 HD
BRANCH  13  16
ATOM     16  CA  ILE d   6    1549.570 458.705-1568.496  0.00  0.00     0.180 C 
BRANCH  16  17
ATOM     17  N   ILE d   6    1548.257 459.000-1567.929  0.00  0.00    -0.346 N 
ATOM     18  C   SER d   5    1547.652 460.083-1568.283  0.00  0.00     0.243 C 
ATOM     19  O   SER d   5    1548.199 460.836-1569.088  0.00  0.00    -0.271 OA
ATOM     20  H   ILE d   6    1547.828 458.365-1567.270  0.00  0.00     0.163 HD
BRANCH  18  21
ATOM     21  CA  SER d   5    1546.293 460.388-1567.698  0.00  0.00     0.200 C 
BRANCH  21  22
ATOM     22  N   SER d   5    1545.424 459.217-1567.756  0.00  0.00    -0.344 N 
ATOM     23  C   GLU d   4    1545.196 458.664-1568.899  0.00  0.00     0.241 C 
ATOM     24  O   GLU d   4    1545.722 459.144-1569.914  0.00  0.00    -0.271 OA
ATOM     25  H   SER d   5    1545.007 458.845-1566.914  0.00  0.00     0.163 HD
BRANCH  23  26
ATOM     26  CA  GLU d   4    1544.297 457.453-1568.960  0.00  0.00     0.177 C 
BRANCH  26  27
ATOM     27  N   GLU d   4    1544.657 456.482-1567.931  0.00  0.00    -0.346 N 
ATOM     28  C   PRO d   3    1545.862 456.022-1567.898  0.00  0.00     0.241 C 
ATOM     29  O   PRO d   3    1546.685 456.405-1568.730  0.00  0.00    -0.271 OA
ATOM     30  H   GLU d   4    1543.973 456.175-1567.254  0.00  0.00     0.163 HD
BRANCH  28  31
ATOM     31  CA  PRO d   3    1546.260 454.998-1566.822  0.00  0.00     0.179 C 
ATOM     32  N   PRO d   3    1545.808 455.408-1565.500  0.00  0.00    -0.337 N 
ATOM     33  C   ASN d   2    1546.330 456.403-1564.866  0.00  0.00     0.243 C 
ATOM     34  CD  PRO d   3    1544.730 454.614-1564.951  0.00  0.00     0.127 C 
ATOM     35  O   ASN d   2    1547.245 457.033-1565.395  0.00  0.00    -0.271 OA
ATOM     36  CG  PRO d   3    1544.273 453.796-1566.161  0.00  0.00     0.022 C 
ATOM     37  CB  PRO d   3    1545.556 453.644-1566.991  0.00  0.00     0.037 C 
BRANCH  33  38
ATOM     38  CA  ASN d   2    1545.799 456.758-1563.497  0.00  0.00     0.185 C 
BRANCH  38  39
ATOM     39  N   ASN d   2    1544.339 456.797-1563.497  0.00  0.00    -0.346 N 
ATOM     40  C   GLU d   1    1543.735 457.583-1564.322  0.00  0.00     0.242 C 
ATOM     41  O   GLU d   1    1544.411 458.282-1565.091  0.00  0.00    -0.271 OA
ATOM     42  H   ASN d   2    1543.811 456.217-1562.861  0.00  0.00     0.163 HD
BRANCH  40  43
ATOM     43  CA  GLU d   1    1542.226 457.623-1564.322  0.00  0.00     0.191 C 
BRANCH  43  44
ATOM     44  N   GLU d   1    1541.667 456.274-1564.322  0.00  0.00    -0.326 NA
ATOM     45  H   GLU d   1    1542.294 455.395-1564.322  0.00  0.00     0.180 HD
ENDBRANCH  43  44
BRANCH  43  46
ATOM     46  CB  GLU d   1    1541.703 458.408-1563.085  0.00  0.00     0.047 C 
BRANCH  46  47
ATOM     47  CG  GLU d   1    1542.178 459.893-1562.974  0.00  0.00     0.116 C 
BRANCH  47  48
ATOM     48  CD  GLU d   1    1541.754 460.697-1561.759  0.00  0.00     0.172 C 
ATOM     49  OE1 GLU d   1    1541.026 460.195-1560.881  0.00  0.00    -0.648 OA
ATOM     50  OE2 GLU d   1    1542.184 461.867-1561.687  0.00  0.00    -0.648 OA
ENDBRANCH  47  48
ENDBRANCH  46  47
ENDBRANCH  43  46
ENDBRANCH  40  43
ENDBRANCH  38  39
BRANCH  38  51
ATOM     51  CB  ASN d   2    1546.291 455.735-1562.433  0.00  0.00     0.137 C 
BRANCH  51  52
ATOM     52  CG  ASN d   2    1545.828 455.959-1560.990  0.00  0.00     0.217 C 
ATOM     53  ND2 ASN d   2    1546.422 456.874-1560.271  0.00  0.00    -0.370 N 
ATOM     54 21HD ASN d   2    1545.941 457.047-1559.385  0.00  0.00     0.159 HD
ATOM     55 22HD ASN d   2    1547.124 457.446-1560.741  0.00  0.00     0.159 HD
ATOM     56  OD1 ASN d   2    1544.907 455.325-1560.495  0.00  0.00    -0.274 OA
ENDBRANCH  51  52
ENDBRANCH  38  51
ENDBRANCH  33  38
ENDBRANCH  28  31
ENDBRANCH  26  27
BRANCH  26  57
ATOM     57  CB  GLU d   4    1542.809 457.872-1568.790  0.00  0.00     0.045 C 
BRANCH  57  58
ATOM     58  CG  GLU d   4    1542.260 458.875-1569.855  0.00  0.00     0.116 C 
BRANCH  58  59
ATOM     59  CD  GLU d   4    1540.834 459.372-1569.711  0.00  0.00     0.172 C 
ATOM     60  OE1 GLU d   4    1540.108 458.973-1568.780  0.00  0.00    -0.648 OA
ATOM     61  OE2 GLU d   4    1540.444 460.201-1570.560  0.00  0.00    -0.648 OA
ENDBRANCH  58  59
ENDBRANCH  57  58
ENDBRANCH  26  57
ENDBRANCH  23  26
ENDBRANCH  21  22
BRANCH  21  62
ATOM     62  CB  SER d   5    1546.405 460.920-1566.247  0.00  0.00     0.199 C 
BRANCH  62  63
ATOM     63  OG  SER d   5    1547.137 460.041-1565.386  0.00  0.00    -0.398 OA
ATOM     64  HG  SER d   5    1546.648 459.216-1565.335  0.00  0.00     0.209 HD
ENDBRANCH  62  63
ENDBRANCH  21  62
ENDBRANCH  18  21
ENDBRANCH  16  17
BRANCH  16  65
ATOM     65  CB  ILE d   6    1550.170 457.369-1567.896  0.00  0.00     0.013 C 
ATOM     66  CG2 ILE d   6    1551.611 457.067-1568.411  0.00  0.00     0.012 C 
BRANCH  65  67
ATOM     67  CG1 ILE d   6    1550.189 457.306-1566.335  0.00  0.00     0.002 C 
ATOM     68  CD1 ILE d   6    1550.459 455.917-1565.720  0.00  0.00     0.005 C 
ENDBRANCH  65  67
ENDBRANCH  16  65
ENDBRANCH  13  16
ENDBRANCH  11  12
BRANCH  11  69
ATOM     69  CB  LEU d   7    1547.308 457.108-1572.516  0.00  0.00     0.038 C 
BRANCH  69  70
ATOM     70  CG  LEU d   7    1547.236 455.629-1572.050  0.00  0.00    -0.020 C 
ATOM     71  CD1 LEU d   7    1546.046 454.923-1572.715  0.00  0.00     0.009 C 
ATOM     72  CD2 LEU d   7    1548.529 454.850-1572.342  0.00  0.00     0.009 C 
ENDBRANCH  69  70
ENDBRANCH  11  69
ENDBRANCH   8  11
ENDBRANCH   6   7
BRANCH   6  73
ATOM     73  CB  ASP d   8    1546.453 462.393-1571.912  0.00  0.00     0.147 C 
BRANCH  73  74
ATOM     74  CG  ASP d   8    1546.234 463.814-1572.452  0.00  0.00     0.175 C 
ATOM     75  OD1 ASP d   8    1546.298 464.013-1573.683  0.00  0.00    -0.648 OA
ATOM     76  OD2 ASP d   8    1546.042 464.739-1571.637  0.00  0.00    -0.648 OA
ENDBRANCH  73  74
ENDBRANCH   6  73
ENDBRANCH   3   6
ENDBRANCH   1   2
BRANCH   1  77
ATOM     77  C   GLU d   9    1551.778 462.314-1572.523  0.00  0.00     0.241 C 
ATOM     78  O   GLU d   9    1552.442 463.069-1573.248  0.00  0.00    -0.271 OA
ATOM     79  N   VAL d  10    1551.875 461.039-1572.693  0.00  0.00    -0.346 N 
ATOM     80  H   VAL d  10    1551.345 460.403-1572.114  0.00  0.00     0.163 HD
BRANCH  79  81
ATOM     81  CA  VAL d  10    1552.763 460.529-1573.734  0.00  0.00     0.180 C 
BRANCH  81  82
ATOM     82  C   VAL d  10    1552.394 461.096-1575.084  0.00  0.00     0.241 C 
ATOM     83  O   VAL d  10    1553.243 461.561-1575.855  0.00  0.00    -0.271 OA
ATOM     84  N   VAL d  11    1551.156 461.094-1575.445  0.00  0.00    -0.346 N 
ATOM     85  H   VAL d  11    1550.444 460.720-1574.834  0.00  0.00     0.163 HD
BRANCH  84  86
ATOM     86  CA  VAL d  11    1550.799 461.642-1576.751  0.00  0.00     0.180 C 
BRANCH  86  87
ATOM     87  C   VAL d  11    1551.261 463.073-1576.882  0.00  0.00     0.241 C 
ATOM     88  O   VAL d  11    1551.861 463.480-1577.885  0.00  0.00    -0.271 OA
ATOM     89  N   GLN d  12    1551.025 463.897-1575.918  0.00  0.00    -0.346 N 
ATOM     90  H   GLN d  12    1550.537 463.589-1575.089  0.00  0.00     0.163 HD
BRANCH  89  91
ATOM     91  CA  GLN d  12    1551.472 465.280-1576.043  0.00  0.00     0.177 C 
BRANCH  91  92
ATOM     92  C   GLN d  12    1552.961 465.350-1576.283  0.00  0.00     0.241 C 
ATOM     93  O   GLN d  12    1553.446 466.060-1577.161  0.00  0.00    -0.271 OA
ATOM     94  N   ARG d  13    1553.747 464.643-1575.544  0.00  0.00    -0.346 N 
ATOM     95  H   ARG d  13    1553.373 464.051-1574.816  0.00  0.00     0.163 HD
BRANCH  94  96
ATOM     96  CA  ARG d  13    1555.187 464.711-1575.776  0.00  0.00     0.176 C 
BRANCH  96  97
ATOM     97  C   ARG d  13    1555.522 464.342-1577.202  0.00  0.00     0.241 C 
ATOM     98  O   ARG d  13    1556.289 465.015-1577.886  0.00  0.00    -0.271 OA
ATOM     99  N   VAL d  14    1554.986 463.287-1577.718  0.00  0.00    -0.346 N 
ATOM    100  H   VAL d  14    1554.353 462.717-1577.176  0.00  0.00     0.163 HD
BRANCH  99 101
ATOM    101  CA  VAL d  14    1555.310 462.930-1579.096  0.00  0.00     0.180 C 
BRANCH 101 102
ATOM    102  C   VAL d  14    1554.977 464.061-1580.040  0.00  0.00     0.241 C 
ATOM    103  O   VAL d  14    1555.769 464.445-1580.910  0.00  0.00    -0.271 OA
ATOM    104  N   MET d  15    1553.832 464.646-1579.936  0.00  0.00    -0.346 N 
ATOM    105  H   MET d  15    1553.168 464.351-1579.234  0.00  0.00     0.163 HD
BRANCH 104 106
ATOM    106  CA  MET d  15    1553.509 465.739-1580.847  0.00  0.00     0.177 C 
BRANCH 106 107
ATOM    107  C   MET d  15    1554.538 466.840-1580.759  0.00  0.00     0.241 C 
ATOM    108  O   MET d  15    1555.039 467.353-1581.772  0.00  0.00    -0.271 OA
ATOM    109  N   ARG d  16    1554.908 467.260-1579.597  0.00  0.00    -0.347 N 
ATOM    110  H   ARG d  16    1554.515 466.858-1578.758  0.00  0.00     0.163 HD
BRANCH 109 111
ATOM    111  CA  ARG d  16    1555.903 468.325-1579.513  0.00  0.00     0.162 C 
BRANCH 111 112
ATOM    112  C   ARG d  16    1557.173 467.935-1580.231  0.00  0.00     0.219 C 
ATOM    113  O   ARG d  16    1557.288 466.859-1580.814  0.00  0.00    -0.287 OA
ENDBRANCH 111 112
BRANCH 111 114
ATOM    114  CB  ARG d  16    1556.174 468.641-1578.014  0.00  0.00     0.035 C 
BRANCH 114 115
ATOM    115  CG  ARG d  16    1556.998 469.930-1577.740  0.00  0.00     0.023 C 
BRANCH 115 116
ATOM    116  CD  ARG d  16    1557.249 470.147-1576.239  0.00  0.00     0.138 C 
BRANCH 116 117
ATOM    117  NE  ARG d  16    1558.024 471.407-1576.037  0.00  0.00    -0.227 N 
ATOM    118  CZ  ARG d  16    1558.416 471.888-1574.861  0.00  0.00     0.665 C 
ATOM    119  NH1 ARG d  16    1558.170 471.302-1573.723  0.00  0.00    -0.235 N 
ATOM    120  NH2 ARG d  16    1559.078 473.001-1574.841  0.00  0.00    -0.235 N 
ATOM    121 11HH ARG d  16    1557.645 470.428-1573.808  0.00  0.00     0.174 HD
ATOM    122 12HH ARG d  16    1558.505 471.736-1572.861  0.00  0.00     0.174 HD
ATOM    123 21HH ARG d  16    1559.262 473.446-1575.743  0.00  0.00     0.174 HD
ATOM    124 22HH ARG d  16    1559.369 473.355-1573.928  0.00  0.00     0.174 HD
ATOM    125  HE  ARG d  16    1558.300 471.990-1576.833  0.00  0.00     0.177 HD
ENDBRANCH 116 117
ENDBRANCH 115 116
ENDBRANCH 114 115
ENDBRANCH 111 114
ENDBRANCH 109 111
ENDBRANCH 106 107
BRANCH 106 126
ATOM    126  CB  MET d  15    1552.088 466.283-1580.536  0.00  0.00     0.045 C 
BRANCH 126 127
ATOM    127  CG  MET d  15    1550.927 465.283-1580.728  0.00  0.00     0.076 C 
BRANCH 127 128
ATOM    128  SD  MET d  15    1549.352 466.148-1580.610  0.00  0.00    -0.173 SA
ATOM    129  CE  MET d  15    1548.272 464.716-1580.474  0.00  0.00     0.089 C 
ENDBRANCH 127 128
ENDBRANCH 126 127
ENDBRANCH 106 126
ENDBRANCH 104 106
ENDBRANCH 101 102
BRANCH 101 130
ATOM    130  CB  VAL d  14    1554.539 461.613-1579.504  0.00  0.00     0.009 C 
ATOM    131  CG1 VAL d  14    1554.626 461.197-1580.998  0.00  0.00     0.012 C 
ATOM    132  CG2 VAL d  14    1554.973 460.360-1578.706  0.00  0.00     0.012 C 
ENDBRANCH 101 130
ENDBRANCH  99 101
ENDBRANCH  96  97
BRANCH  96 133
ATOM    133  CB  ARG d  13    1555.903 463.771-1574.765  0.00  0.00     0.036 C 
BRANCH 133 134
ATOM    134  CG  ARG d  13    1557.448 463.926-1574.685  0.00  0.00     0.023 C 
BRANCH 134 135
ATOM    135  CD  ARG d  13    1558.077 462.937-1573.690  0.00  0.00     0.138 C 
BRANCH 135 136
ATOM    136  NE  ARG d  13    1559.554 463.146-1573.641  0.00  0.00    -0.227 N 
ATOM    137  CZ  ARG d  13    1560.404 462.454-1572.888  0.00  0.00     0.665 C 
ATOM    138  NH1 ARG d  13    1560.041 461.488-1572.091  0.00  0.00    -0.235 N 
ATOM    139  NH2 ARG d  13    1561.663 462.755-1572.946  0.00  0.00    -0.235 N 
ATOM    140 11HH ARG d  13    1559.036 461.301-1572.093  0.00  0.00     0.174 HD
ATOM    141 12HH ARG d  13    1560.755 461.005-1571.544  0.00  0.00     0.174 HD
ATOM    142 21HH ARG d  13    1561.929 463.514-1573.576  0.00  0.00     0.174 HD
ATOM    143 22HH ARG d  13    1562.299 462.213-1572.359  0.00  0.00     0.174 HD
ATOM    144  HE  ARG d  13    1560.004 463.869-1574.211  0.00  0.00     0.177 HD
ENDBRANCH 135 136
ENDBRANCH 134 135
ENDBRANCH 133 134
ENDBRANCH  96 133
ENDBRANCH  94  96
ENDBRANCH  91  92
BRANCH  91 145
ATOM    145  CB  GLN d  12    1551.081 466.046-1574.759  0.00  0.00     0.044 C 
BRANCH 145 146
ATOM    146  CG  GLN d  12    1551.440 467.568-1574.726  0.00  0.00     0.105 C 
BRANCH 146 147
ATOM    147  CD  GLN d  12    1551.138 468.379-1573.459  0.00  0.00     0.215 C 
ATOM    148  NE2 GLN d  12    1550.573 467.800-1572.431  0.00  0.00    -0.370 N 
ATOM    149 21HE GLN d  12    1550.466 468.393-1571.606  0.00  0.00     0.159 HD
ATOM    150 22HE GLN d  12    1550.411 466.797-1572.536  0.00  0.00     0.159 HD
ATOM    151  OE1 GLN d  12    1551.439 469.560-1573.380  0.00  0.00    -0.274 OA
ENDBRANCH 146 147
ENDBRANCH 145 146
ENDBRANCH  91 145
ENDBRANCH  89  91
ENDBRANCH  86  87
BRANCH  86 152
ATOM    152  CB  VAL d  11    1549.237 461.534-1576.968  0.00  0.00     0.009 C 
ATOM    153  CG1 VAL d  11    1548.666 462.239-1578.229  0.00  0.00     0.012 C 
ATOM    154  CG2 VAL d  11    1548.714 460.079-1577.043  0.00  0.00     0.012 C 
ENDBRANCH  86 152
ENDBRANCH  84  86
ENDBRANCH  81  82
BRANCH  81 155
ATOM    155  CB  VAL d  10    1552.714 458.950-1573.754  0.00  0.00     0.009 C 
ATOM    156  CG1 VAL d  10    1553.459 458.252-1574.925  0.00  0.00     0.012 C 
ATOM    157  CG2 VAL d  10    1553.265 458.289-1572.468  0.00  0.00     0.012 C 
ENDBRANCH  81 155
ENDBRANCH  79  81
ENDBRANCH   1  77
BRANCH   1 158
ATOM    158  CB  GLU d   9    1551.494 462.633-1570.041  0.00  0.00     0.045 C 
BRANCH 158 159
ATOM    159  CG  GLU d   9    1552.876 463.326-1569.812  0.00  0.00     0.116 C 
BRANCH 159 160
ATOM    160  CD  GLU d   9    1553.579 463.112-1568.483  0.00  0.00     0.172 C 
ATOM    161  OE1 GLU d   9    1553.057 462.420-1567.587  0.00  0.00    -0.648 OA
ATOM    162  OE2 GLU d   9    1554.698 463.650-1568.352  0.00  0.00    -0.648 OA
ENDBRANCH 159 160
ENDBRANCH 158 159
ENDBRANCH   1 158
TORSDOF 67
