REMARK WARNING: 32 MAX_TORS EXCEEDED!!!
REMARK  74 active torsions:
REMARK  status: ('A' for Active; 'I' for Inactive)
REMARK    1  A    between atoms: N_1  and  CA_2 
REMARK    2  A    between atoms: CA_2  and  C_3 
REMARK    3  A    between atoms: CA_2  and  CB_5 
REMARK       I    between atoms: C_3  and  N_11 
REMARK    4  A    between atoms: CB_5  and  CG_6 
REMARK    5  A    between atoms: CG_6  and  CD_7 
REMARK    6  A    between atoms: N_11  and  CA_12 
REMARK    7  A    between atoms: CA_12  and  C_13 
REMARK    8  A    between atoms: CA_12  and  CB_15 
REMARK       I    between atoms: C_13  and  N_22 
REMARK    9  A    between atoms: CB_15  and  CG_16 
REMARK       I    between atoms: CG_16  and  ND2_17 
REMARK   10  A    between atoms: N_22  and  CA_23 
REMARK   11  A    between atoms: CA_23  and  C_24 
REMARK   12  A    between atoms: CA_23  and  CB_26 
REMARK       I    between atoms: C_24  and  N_35 
REMARK   13  A    between atoms: CB_26  and  CG_27 
REMARK   14  A    between atoms: CG_27  and  CD_28 
REMARK   15  A    between atoms: CD_28  and  CE_29 
REMARK   16  A    between atoms: CE_29  and  NZ_30 
REMARK   17  A    between atoms: N_35  and  CA_36 
REMARK   18  A    between atoms: CA_36  and  C_37 
REMARK   19  A    between atoms: CA_36  and  CB_39 
REMARK       I    between atoms: C_37  and  N_45 
REMARK   20  A    between atoms: CB_39  and  CG_40 
REMARK   21  A    between atoms: CG_40  and  CD_41 
REMARK   22  A    between atoms: N_45  and  CA_46 
REMARK   23  A    between atoms: CA_46  and  C_47 
REMARK   24  A    between atoms: CA_46  and  CB_49 
REMARK       I    between atoms: C_47  and  N_53 
REMARK   25  A    between atoms: CB_49  and  OG_50 
REMARK   26  A    between atoms: N_53  and  CA_54 
REMARK   27  A    between atoms: CA_54  and  C_55 
REMARK   28  A    between atoms: CA_54  and  CB_57 
REMARK       I    between atoms: C_55  and  N_62 
REMARK   29  A    between atoms: CB_57  and  CG1_58 
REMARK   30  A    between atoms: N_62  and  CA_63 
REMARK   31  A    between atoms: CA_63  and  C_64 
REMARK   32  A    between atoms: CA_63  and  CB_66 
REMARK       I    between atoms: C_64  and  N_71 
REMARK   33  A    between atoms: CB_66  and  CG_67 
REMARK   34  A    between atoms: N_71  and  CA_72 
REMARK   35  A    between atoms: CA_72  and  C_73 
REMARK   36  A    between atoms: CA_72  and  CB_75 
REMARK       I    between atoms: C_73  and  N_80 
REMARK   37  A    between atoms: CB_75  and  CG_76 
REMARK   38  A    between atoms: N_80  and  CA_81 
REMARK   39  A    between atoms: CA_81  and  C_82 
REMARK   40  A    between atoms: CA_81  and  CB_84 
REMARK       I    between atoms: C_82  and  N_90 
REMARK   41  A    between atoms: CB_84  and  CG_85 
REMARK   42  A    between atoms: CG_85  and  CD_86 
REMARK   43  A    between atoms: N_90  and  CA_91 
REMARK   44  A    between atoms: CA_91  and  C_92 
REMARK   45  A    between atoms: CA_91  and  CB_94 
REMARK       I    between atoms: C_92  and  N_102 
REMARK   46  A    between atoms: CB_94  and  CG_95 
REMARK   47  A    between atoms: N_102  and  CA_103 
REMARK   48  A    between atoms: CA_103  and  C_104 
REMARK   49  A    between atoms: CA_103  and  CB_106 
REMARK       I    between atoms: C_104  and  N_110 
REMARK   50  A    between atoms: N_110  and  CA_111 
REMARK   51  A    between atoms: CA_111  and  C_112 
REMARK   52  A    between atoms: CA_111  and  CB_114 
REMARK       I    between atoms: C_112  and  N_122 
REMARK   53  A    between atoms: CB_114  and  CG_115 
REMARK   54  A    between atoms: CG_115  and  CD_116 
REMARK       I    between atoms: CD_116  and  NE2_117 
REMARK   55  A    between atoms: N_122  and  CA_123 
REMARK   56  A    between atoms: CA_123  and  C_124 
REMARK   57  A    between atoms: CA_123  and  CB_126 
REMARK       I    between atoms: C_124  and  N_139 
REMARK   58  A    between atoms: CB_126  and  CG_127 
REMARK   59  A    between atoms: CG_127  and  CD_128 
REMARK   60  A    between atoms: CD_128  and  NE_129 
REMARK       I    between atoms: NE_129  and  CZ_130 
REMARK       I    between atoms: CZ_130  and  NH1_131 
REMARK       I    between atoms: CZ_130  and  NH2_132 
REMARK   61  A    between atoms: N_139  and  CA_140 
REMARK   62  A    between atoms: CA_140  and  C_141 
REMARK   63  A    between atoms: CA_140  and  CB_143 
REMARK       I    between atoms: C_141  and  N_147 
REMARK   64  A    between atoms: N_147  and  CA_148 
REMARK   65  A    between atoms: CA_148  and  C_149 
REMARK   66  A    between atoms: CA_148  and  CB_151 
REMARK       I    between atoms: C_149  and  N_156 
REMARK   67  A    between atoms: CB_151  and  CG_152 
REMARK   68  A    between atoms: CG_152  and  SD_153 
REMARK   69  A    between atoms: N_156  and  CA_157 
REMARK   70  A    between atoms: CA_157  and  C_158 
REMARK   71  A    between atoms: CA_157  and  CB_160 
REMARK   72  A    between atoms: CB_160  and  CG_161 
REMARK   73  A    between atoms: CG_161  and  CD_162 
REMARK   74  A    between atoms: CD_162  and  NE_163 
REMARK       I    between atoms: NE_163  and  CZ_164 
REMARK       I    between atoms: CZ_164  and  NH1_165 
ROOT
ATOM      1  CA  GLU d   9     524.861 125.553-464.262  0.00  0.00     0.177 C 
ENDROOT
BRANCH   1   2
ATOM      2  N   GLU d   9     523.477 125.152-464.502  0.00  0.00    -0.346 N 
ATOM      3  C   ASP d   8     522.923 125.458-465.626  0.00  0.00     0.241 C 
ATOM      4  O   ASP d   8     523.582 126.085-466.471  0.00  0.00    -0.271 OA
ATOM      5  H   GLU d   9     522.962 124.643-463.799  0.00  0.00     0.163 HD
BRANCH   3   6
ATOM      6  CA  ASP d   8     521.493 125.044-465.874  0.00  0.00     0.186 C 
BRANCH   6   7
ATOM      7  N   ASP d   8     521.282 123.646-465.509  0.00  0.00    -0.346 N 
ATOM      8  C   LEU d   7     522.010 122.737-466.065  0.00  0.00     0.241 C 
ATOM      9  O   LEU d   7     522.868 123.079-466.893  0.00  0.00    -0.271 OA
ATOM     10  H   ASP d   8     520.577 123.394-464.832  0.00  0.00     0.163 HD
BRANCH   8  11
ATOM     11  CA  LEU d   7     521.792 121.292-465.687  0.00  0.00     0.177 C 
BRANCH  11  12
ATOM     12  N   LEU d   7     521.713 121.137-464.238  0.00  0.00    -0.346 N 
ATOM     13  C   ILE d   6     522.698 121.544-463.511  0.00  0.00     0.241 C 
ATOM     14  O   ILE d   6     523.683 122.055-464.065  0.00  0.00    -0.271 OA
ATOM     15  H   LEU d   7     520.899 120.718-463.810  0.00  0.00     0.163 HD
BRANCH  13  16
ATOM     16  CA  ILE d   6     522.616 121.384-462.012  0.00  0.00     0.180 C 
BRANCH  16  17
ATOM     17  N   ILE d   6     521.324 121.838-461.507  0.00  0.00    -0.346 N 
ATOM     18  C   SER d   5     520.947 123.048-461.751  0.00  0.00     0.243 C 
ATOM     19  O   SER d   5     521.687 123.784-462.402  0.00  0.00    -0.271 OA
ATOM     20  H   ILE d   6     520.734 121.215-460.975  0.00  0.00     0.163 HD
BRANCH  18  21
ATOM     21  CA  SER d   5     519.609 123.518-461.228  0.00  0.00     0.200 C 
BRANCH  21  22
ATOM     22  N   SER d   5     518.564 122.538-461.511  0.00  0.00    -0.344 N 
ATOM     23  C   GLU d   4     518.357 122.180-462.733  0.00  0.00     0.241 C 
ATOM     24  O   GLU d   4     519.051 122.679-463.631  0.00  0.00    -0.271 OA
ATOM     25  H   SER d   5     518.012 122.146-460.761  0.00  0.00     0.163 HD
BRANCH  23  26
ATOM     26  CA  GLU d   4     517.277 121.168-463.025  0.00  0.00     0.177 C 
BRANCH  26  27
ATOM     27  N   GLU d   4     517.368 120.028-462.117  0.00  0.00    -0.346 N 
ATOM     28  C   LYS d   3     518.469 119.359-462.061  0.00  0.00     0.241 C 
ATOM     29  O   LYS d   3     519.418 119.702-462.781  0.00  0.00    -0.271 OA
ATOM     30  H   GLU d   4     516.580 119.768-461.540  0.00  0.00     0.163 HD
BRANCH  28  31
ATOM     31  CA  LYS d   3     518.563 118.180-461.121  0.00  0.00     0.176 C 
BRANCH  31  32
ATOM     32  N   LYS d   3     518.050 118.525-459.798  0.00  0.00    -0.346 N 
ATOM     33  C   ASN d   2     518.572 119.520-459.164  0.00  0.00     0.241 C 
ATOM     34  O   ASN d   2     519.486 120.150-459.693  0.00  0.00    -0.271 OA
ATOM     35  H   LYS d   3     517.298 117.991-459.385  0.00  0.00     0.163 HD
BRANCH  33  36
ATOM     36  CA  ASN d   2     518.041 119.875-457.795  0.00  0.00     0.185 C 
BRANCH  36  37
ATOM     37  N   ASN d   2     516.581 119.914-457.795  0.00  0.00    -0.346 N 
ATOM     38  C   GLU d   1     515.977 120.700-458.620  0.00  0.00     0.242 C 
ATOM     39  O   GLU d   1     516.652 121.399-459.389  0.00  0.00    -0.271 OA
ATOM     40  H   ASN d   2     516.053 119.334-457.159  0.00  0.00     0.163 HD
BRANCH  38  41
ATOM     41  CA  GLU d   1     514.468 120.740-458.620  0.00  0.00     0.191 C 
BRANCH  41  42
ATOM     42  N   GLU d   1     513.909 119.391-458.620  0.00  0.00    -0.326 NA
ATOM     43  H   GLU d   1     514.536 118.512-458.620  0.00  0.00     0.180 HD
ENDBRANCH  41  42
BRANCH  41  44
ATOM     44  CB  GLU d   1     513.945 121.525-457.383  0.00  0.00     0.047 C 
BRANCH  44  45
ATOM     45  CG  GLU d   1     514.419 123.010-457.272  0.00  0.00     0.116 C 
BRANCH  45  46
ATOM     46  CD  GLU d   1     513.995 123.814-456.057  0.00  0.00     0.172 C 
ATOM     47  OE1 GLU d   1     513.268 123.312-455.179  0.00  0.00    -0.648 OA
ATOM     48  OE2 GLU d   1     514.426 124.984-455.985  0.00  0.00    -0.648 OA
ENDBRANCH  45  46
ENDBRANCH  44  45
ENDBRANCH  41  44
ENDBRANCH  38  41
ENDBRANCH  36  37
BRANCH  36  49
ATOM     49  CB  ASN d   2     518.533 118.852-456.731  0.00  0.00     0.137 C 
BRANCH  49  50
ATOM     50  CG  ASN d   2     518.069 119.076-455.288  0.00  0.00     0.217 C 
ATOM     51  ND2 ASN d   2     518.664 119.991-454.569  0.00  0.00    -0.370 N 
ATOM     52 21HD ASN d   2     518.183 120.164-453.683  0.00  0.00     0.159 HD
ATOM     53 22HD ASN d   2     519.365 120.563-455.039  0.00  0.00     0.159 HD
ATOM     54  OD1 ASN d   2     517.149 118.442-454.793  0.00  0.00    -0.274 OA
ENDBRANCH  49  50
ENDBRANCH  36  49
ENDBRANCH  33  36
ENDBRANCH  31  32
BRANCH  31  55
ATOM     55  CB  LYS d   3     517.779 116.961-461.678  0.00  0.00     0.035 C 
BRANCH  55  56
ATOM     56  CG  LYS d   3     518.300 116.469-463.051  0.00  0.00     0.004 C 
BRANCH  56  57
ATOM     57  CD  LYS d   3     517.508 115.309-463.662  0.00  0.00     0.027 C 
BRANCH  57  58
ATOM     58  CE  LYS d   3     518.086 114.974-465.044  0.00  0.00     0.229 C 
BRANCH  58  59
ATOM     59  NZ  LYS d   3     517.444 113.753-465.561  0.00  0.00    -0.079 N 
ATOM     60  3HZ LYS d   3     517.953 112.975-465.165  0.00  0.00     0.274 HD
ATOM     61  1HZ LYS d   3     516.451 113.728-465.300  0.00  0.00     0.274 HD
ATOM     62  2HZ LYS d   3     517.470 113.723-466.585  0.00  0.00     0.274 HD
ENDBRANCH  58  59
ENDBRANCH  57  58
ENDBRANCH  56  57
ENDBRANCH  55  56
ENDBRANCH  31  55
ENDBRANCH  28  31
ENDBRANCH  26  27
BRANCH  26  63
ATOM     63  CB  GLU d   4     515.871 121.823-462.907  0.00  0.00     0.045 C 
BRANCH  63  64
ATOM     64  CG  GLU d   4     515.604 123.032-463.860  0.00  0.00     0.116 C 
BRANCH  64  65
ATOM     65  CD  GLU d   4     514.274 123.756-463.753  0.00  0.00     0.172 C 
ATOM     66  OE1 GLU d   4     513.406 123.382-462.941  0.00  0.00    -0.648 OA
ATOM     67  OE2 GLU d   4     514.113 124.739-464.504  0.00  0.00    -0.648 OA
ENDBRANCH  64  65
ENDBRANCH  63  64
ENDBRANCH  26  63
ENDBRANCH  23  26
ENDBRANCH  21  22
BRANCH  21  68
ATOM     68  CB  SER d   5     519.670 123.838-459.714  0.00  0.00     0.199 C 
BRANCH  68  69
ATOM     69  OG  SER d   5     520.158 122.742-458.932  0.00  0.00    -0.398 OA
ATOM     70  HG  SER d   5     519.534 122.019-459.031  0.00  0.00     0.209 HD
ENDBRANCH  68  69
ENDBRANCH  21  68
ENDBRANCH  18  21
ENDBRANCH  16  17
BRANCH  16  71
ATOM     71  CB  ILE d   6     522.922 119.899-461.561  0.00  0.00     0.013 C 
ATOM     72  CG2 ILE d   6     524.335 119.409-462.007  0.00  0.00     0.012 C 
BRANCH  71  73
ATOM     73  CG1 ILE d   6     522.782 119.642-460.026  0.00  0.00     0.002 C 
ATOM     74  CD1 ILE d   6     522.754 118.162-459.591  0.00  0.00     0.005 C 
ENDBRANCH  71  73
ENDBRANCH  16  71
ENDBRANCH  13  16
ENDBRANCH  11  12
BRANCH  11  75
ATOM     75  CB  LEU d   7     520.512 120.728-466.368  0.00  0.00     0.038 C 
BRANCH  75  76
ATOM     76  CG  LEU d   7     520.147 119.239-466.117  0.00  0.00    -0.020 C 
ATOM     77  CD1 LEU d   7     518.924 118.846-466.958  0.00  0.00     0.009 C 
ATOM     78  CD2 LEU d   7     521.313 118.283-466.419  0.00  0.00     0.009 C 
ENDBRANCH  75  76
ENDBRANCH  11  75
ENDBRANCH   8  11
ENDBRANCH   6   7
BRANCH   6  79
ATOM     79  CB  ASP d   8     520.506 125.964-465.103  0.00  0.00     0.147 C 
BRANCH  79  80
ATOM     80  CG  ASP d   8     520.582 127.457-465.456  0.00  0.00     0.175 C 
ATOM     81  OD1 ASP d   8     520.796 127.792-466.640  0.00  0.00    -0.648 OA
ATOM     82  OD2 ASP d   8     520.472 128.294-464.537  0.00  0.00    -0.648 OA
ENDBRANCH  79  80
ENDBRANCH   6  79
ENDBRANCH   3   6
ENDBRANCH   1   2
BRANCH   1  83
ATOM     83  C   GLU d   9     525.775 125.007-465.332  0.00  0.00     0.241 C 
ATOM     84  O   GLU d   9     526.623 125.714-465.896  0.00  0.00    -0.271 OA
ATOM     85  N   HIS d  10     525.672 123.766-465.669  0.00  0.00    -0.346 N 
ATOM     86  H   HIS d  10     524.989 123.169-465.224  0.00  0.00     0.163 HD
BRANCH  85  87
ATOM     87  CA  HIS d  10     526.556 123.236-466.703  0.00  0.00     0.182 C 
BRANCH  87  88
ATOM     88  C   HIS d  10     526.420 124.020-467.986  0.00  0.00     0.241 C 
ATOM     89  O   HIS d  10     527.408 124.416-468.622  0.00  0.00    -0.271 OA
ATOM     90  N   VAL d  11     525.240 124.286-468.434  0.00  0.00    -0.346 N 
ATOM     91  H   VAL d  11     524.419 123.975-467.934  0.00  0.00     0.163 HD
BRANCH  90  92
ATOM     92  CA  VAL d  11     525.108 125.044-469.675  0.00  0.00     0.180 C 
BRANCH  92  93
ATOM     93  C   VAL d  11     525.817 126.374-469.574  0.00  0.00     0.241 C 
ATOM     94  O   VAL d  11     526.570 126.785-470.465  0.00  0.00    -0.271 OA
ATOM     95  N   GLN d  12     525.631 127.103-468.526  0.00  0.00    -0.346 N 
ATOM     96  H   GLN d  12     525.021 126.790-467.785  0.00  0.00     0.163 HD
BRANCH  95  97
ATOM     97  CA  GLN d  12     526.316 128.388-468.428  0.00  0.00     0.177 C 
BRANCH  97  98
ATOM     98  C   GLN d  12     527.812 128.216-468.546  0.00  0.00     0.241 C 
ATOM     99  O   GLN d  12     528.493 128.929-469.280  0.00  0.00    -0.271 OA
ATOM    100  N   ARG d  13     528.392 127.294-467.855  0.00  0.00    -0.346 N 
ATOM    101  H   ARG d  13     527.854 126.695-467.245  0.00  0.00     0.163 HD
BRANCH 100 102
ATOM    102  CA  ARG d  13     529.838 127.128-467.970  0.00  0.00     0.176 C 
BRANCH 102 103
ATOM    103  C   ARG d  13     530.242 126.882-469.405  0.00  0.00     0.241 C 
ATOM    104  O   ARG d  13     531.174 127.484-469.932  0.00  0.00    -0.271 OA
ATOM    105  N   VAL d  14     529.587 126.012-470.098  0.00  0.00    -0.346 N 
ATOM    106  H   VAL d  14     528.817 125.504-469.687  0.00  0.00     0.163 HD
BRANCH 105 107
ATOM    107  CA  VAL d  14     529.977 125.774-471.484  0.00  0.00     0.180 C 
BRANCH 107 108
ATOM    108  C   VAL d  14     529.933 127.053-472.286  0.00  0.00     0.241 C 
ATOM    109  O   VAL d  14     530.859 127.390-473.035  0.00  0.00    -0.271 OA
ATOM    110  N   MET d  15     528.899 127.818-472.187  0.00  0.00    -0.346 N 
ATOM    111  H   MET d  15     528.130 127.564-471.583  0.00  0.00     0.163 HD
BRANCH 110 112
ATOM    112  CA  MET d  15     528.856 129.055-472.961  0.00  0.00     0.177 C 
BRANCH 112 113
ATOM    113  C   MET d  15     530.043 129.932-472.648  0.00  0.00     0.241 C 
ATOM    114  O   MET d  15     530.719 130.466-473.541  0.00  0.00    -0.271 OA
ATOM    115  N   ARG d  16     530.365 130.133-471.415  0.00  0.00    -0.347 N 
ATOM    116  H   ARG d  16     529.830 129.710-470.670  0.00  0.00     0.163 HD
BRANCH 115 117
ATOM    117  CA  ARG d  16     531.514 130.982-471.113  0.00  0.00     0.162 C 
BRANCH 117 118
ATOM    118  C   ARG d  16     532.763 130.460-471.783  0.00  0.00     0.219 C 
ATOM    119  O   ARG d  16     532.748 129.461-472.498  0.00  0.00    -0.287 OA
ENDBRANCH 117 118
BRANCH 117 120
ATOM    120  CB  ARG d  16     531.688 131.059-469.569  0.00  0.00     0.035 C 
BRANCH 120 121
ATOM    121  CG  ARG d  16     532.689 132.135-469.062  0.00  0.00     0.023 C 
BRANCH 121 122
ATOM    122  CD  ARG d  16     532.827 132.119-467.530  0.00  0.00     0.138 C 
BRANCH 122 123
ATOM    123  NE  ARG d  16     533.782 133.183-467.101  0.00  0.00    -0.227 N 
ATOM    124  CZ  ARG d  16     534.135 133.438-465.845  0.00  0.00     0.665 C 
ATOM    125  NH1 ARG d  16     533.685 132.772-464.820  0.00  0.00    -0.235 N 
ATOM    126  NH2 ARG d  16     534.971 134.403-465.625  0.00  0.00    -0.235 N 
ATOM    127 11HH ARG d  16     533.030 132.024-465.062  0.00  0.00     0.174 HD
ATOM    128 12HH ARG d  16     534.004 133.030-463.885  0.00  0.00     0.174 HD
ATOM    129 21HH ARG d  16     535.314 134.913-466.441  0.00  0.00     0.174 HD
ATOM    130 22HH ARG d  16     535.229 134.584-464.653  0.00  0.00     0.174 HD
ATOM    131  HE  ARG d  16     534.229 133.799-467.788  0.00  0.00     0.177 HD
ENDBRANCH 122 123
ENDBRANCH 121 122
ENDBRANCH 120 121
ENDBRANCH 117 120
ENDBRANCH 115 117
ENDBRANCH 112 113
BRANCH 112 132
ATOM    132  CB  MET d  15     527.523 129.804-472.683  0.00  0.00     0.045 C 
BRANCH 132 133
ATOM    133  CG  MET d  15     526.234 129.062-473.095  0.00  0.00     0.076 C 
BRANCH 133 134
ATOM    134  SD  MET d  15     524.824 130.176-472.976  0.00  0.00    -0.173 SA
ATOM    135  CE  MET d  15     523.510 128.957-473.117  0.00  0.00     0.089 C 
ENDBRANCH 133 134
ENDBRANCH 132 133
ENDBRANCH 112 132
ENDBRANCH 110 112
ENDBRANCH 107 108
BRANCH 107 136
ATOM    136  CB  VAL d  14     529.036 124.677-472.125  0.00  0.00     0.009 C 
ATOM    137  CG1 VAL d  14     529.196 124.438-473.651  0.00  0.00     0.012 C 
ATOM    138  CG2 VAL d  14     529.173 123.279-471.476  0.00  0.00     0.012 C 
ENDBRANCH 107 136
ENDBRANCH 105 107
ENDBRANCH 102 103
BRANCH 102 139
ATOM    139  CB  ARG d  13     530.283 125.958-467.047  0.00  0.00     0.036 C 
BRANCH 139 140
ATOM    140  CG  ARG d  13     531.817 125.820-466.834  0.00  0.00     0.023 C 
BRANCH 140 141
ATOM    141  CD  ARG d  13     532.171 124.620-465.940  0.00  0.00     0.138 C 
BRANCH 141 142
ATOM    142  NE  ARG d  13     533.650 124.551-465.755  0.00  0.00    -0.227 N 
ATOM    143  CZ  ARG d  13     534.294 123.631-465.043  0.00  0.00     0.665 C 
ATOM    144  NH1 ARG d  13     533.697 122.656-464.416  0.00  0.00    -0.235 N 
ATOM    145  NH2 ARG d  13     535.585 123.704-464.967  0.00  0.00    -0.235 N 
ATOM    146 11HH ARG d  13     532.680 122.655-464.518  0.00  0.00     0.174 HD
ATOM    147 12HH ARG d  13     534.263 121.989-463.889  0.00  0.00     0.174 HD
ATOM    148 21HH ARG d  13     536.035 124.473-465.466  0.00  0.00     0.174 HD
ATOM    149 22HH ARG d  13     536.061 122.988-464.415  0.00  0.00     0.174 HD
ATOM    150  HE  ARG d  13     534.269 125.246-466.186  0.00  0.00     0.177 HD
ENDBRANCH 141 142
ENDBRANCH 140 141
ENDBRANCH 139 140
ENDBRANCH 102 139
ENDBRANCH 100 102
ENDBRANCH  97  98
BRANCH  97 151
ATOM    151  CB  GLN d  12     525.939 129.049-467.083  0.00  0.00     0.044 C 
BRANCH 151 152
ATOM    152  CG  GLN d  12     526.546 130.465-466.815  0.00  0.00     0.105 C 
BRANCH 152 153
ATOM    153  CD  GLN d  12     526.265 131.157-465.475  0.00  0.00     0.215 C 
ATOM    154  NE2 GLN d  12     525.514 130.569-464.580  0.00  0.00    -0.370 N 
ATOM    155 21HE GLN d  12     525.430 131.066-463.692  0.00  0.00     0.159 HD
ATOM    156 22HE GLN d  12     525.194 129.632-464.833  0.00  0.00     0.159 HD
ATOM    157  OE1 GLN d  12     526.753 132.246-465.213  0.00  0.00    -0.274 OA
ENDBRANCH 152 153
ENDBRANCH 151 152
ENDBRANCH  97 151
ENDBRANCH  95  97
ENDBRANCH  92  93
BRANCH  92 158
ATOM    158  CB  VAL d  11     523.579 125.248-470.019  0.00  0.00     0.009 C 
ATOM    159  CG1 VAL d  11     523.260 126.193-471.210  0.00  0.00     0.012 C 
ATOM    160  CG2 VAL d  11     522.827 123.932-470.331  0.00  0.00     0.012 C 
ENDBRANCH  92 158
ENDBRANCH  90  92
ENDBRANCH  87  88
BRANCH  87 161
ATOM    161  CB  HIS d  10     526.137 121.773-466.922  0.00  0.00     0.095 C 
BRANCH 161 162
ATOM    162  CG  HIS d  10     527.250 120.811-466.623  0.00  0.00     0.053 A 
ATOM    163  CD2 HIS d  10     527.444 120.256-465.365  0.00  0.00     0.116 A 
ATOM    164  NE2 HIS d  10     528.536 119.429-465.431  0.00  0.00    -0.359 N 
ATOM    165  CE1 HIS d  10     528.922 119.550-466.730  0.00  0.00     0.207 A 
ATOM    166  2HE HIS d  10     528.955 118.864-464.678  0.00  0.00     0.166 HD
ATOM    167  ND1 HIS d  10     528.205 120.359-467.531  0.00  0.00    -0.247 NA
ENDBRANCH 161 162
ENDBRANCH  87 161
ENDBRANCH  85  87
ENDBRANCH   1  83
BRANCH   1 168
ATOM    168  CB  GLU d   9     525.314 125.063-462.857  0.00  0.00     0.045 C 
BRANCH 168 169
ATOM    169  CG  GLU d   9     526.765 125.462-462.435  0.00  0.00     0.116 C 
BRANCH 169 170
ATOM    170  CD  GLU d   9     527.291 124.964-461.102  0.00  0.00     0.172 C 
ATOM    171  OE1 GLU d   9     526.577 124.272-460.350  0.00  0.00    -0.648 OA
ATOM    172  OE2 GLU d   9     528.467 125.272-460.817  0.00  0.00    -0.648 OA
ENDBRANCH 169 170
ENDBRANCH 168 169
ENDBRANCH   1 168
TORSDOF 74
