@<TRIPOS>MOLECULE
8-1
263 264 16              
SMALL
USER_CHARGES
@<TRIPOS>ATOM
1	   N	1189.995	340.374	-1183.198	N.3	1	GLU1	-0.516	
2	  CA	1190.554	341.723	-1183.198	C.3	1	GLU1	0.040	
3	   C	1192.063	341.683	-1183.198	C.2	1	GLU1	0.537	
4	   O	1192.739	342.383	-1183.966	O.2	1	GLU1	-0.582	
5	  CB	1190.031	342.508	-1181.961	C.3	1	GLU1	0.056	
6	  CG	1190.506	343.993	-1181.850	C.3	1	GLU1	0.014	
7	  CD	1190.082	344.797	-1180.635	C.2	1	GLU1	0.805	
8	 OE1	1189.354	344.295	-1179.757	O.co2	1	GLU1	-0.819	
9	 OE2	1190.512	345.967	-1180.563	O.co2	1	GLU1	-0.819	
10	   H	1190.622	339.495	-1183.198	 H	1	GLU1	0.294	
11	  HA	1190.228	342.241	-1184.118	 H	1	GLU1	0.111	
12	 2HB	1190.320	341.977	-1181.031	 H	1	GLU1	-0.017	
13	 3HB	1188.924	342.498	-1181.948	 H	1	GLU1	-0.017	
14	 2HG	1190.196	344.578	-1182.731	 H	1	GLU1	-0.043	
15	 3HG	1191.606	344.060	-1181.821	 H	1	GLU1	-0.043	
16	   N	1192.667	340.898	-1182.372	N.am	2	ASN2	-0.416	
17	  CA	1194.127	340.859	-1182.372	C.3	2	ASN2	0.014	
18	   C	1194.658	340.503	-1183.741	C.2	2	ASN2	0.597	
19	   O	1195.572	341.134	-1184.270	O.2	2	ASN2	-0.568	
20	  CB	1194.619	339.836	-1181.308	C.3	2	ASN2	-0.204	
21	  CG	1194.156	340.060	-1179.865	C.2	2	ASN2	0.713	
22	 ND2	1194.750	340.975	-1179.147	N.pl3	2	ASN2	-0.919	
23	 OD1	1193.235	339.426	-1179.371	O.2	2	ASN2	-0.593	
24	   H	1192.139	340.318	-1181.736	 H	2	ASN2	0.272	
25	  HA	1194.504	341.869	-1182.127	 H	2	ASN2	0.105	
26	 2HB	1195.723	339.777	-1181.312	 H	2	ASN2	0.080	
27	 3HB	1194.290	338.818	-1181.594	 H	2	ASN2	0.080	
28	1HD2	1194.269	341.148	-1178.260	 H	2	ASN2	0.420	
29	2HD2	1195.451	341.546	-1179.616	 H	2	ASN2	0.420	
30	   N	1194.136	339.508	-1184.375	N.am	3	PRO3	-0.255	
31	  CA	1194.588	339.099	-1185.697	C.3	3	PRO3	-0.027	
32	   C	1194.190	340.122	-1186.774	C.2	3	PRO3	0.590	
33	   O	1195.013	340.506	-1187.605	O.2	3	PRO3	-0.575	
34	  CB	1193.884	337.744	-1185.866	C.3	3	PRO3	-0.007	
35	  CG	1192.601	337.897	-1185.036	C.3	3	PRO3	0.019	
36	  CD	1193.058	338.715	-1183.826	C.3	3	PRO3	0.019	
37	  HA	1195.674	338.979	-1185.711	 H	3	PRO3	0.064	
38	 2HB	1194.507	336.963	-1185.425	 H	3	PRO3	0.025	
39	 3HB	1193.686	337.496	-1186.911	 H	3	PRO3	0.025	
40	 2HG	1192.173	336.934	-1184.745	 H	3	PRO3	0.021	
41	 3HG	1191.863	338.467	-1185.603	 H	3	PRO3	0.021	
42	 2HD	1193.448	338.066	-1183.038	 H	3	PRO3	0.039	
43	 3HD	1192.262	339.351	-1183.433	 H	3	PRO3	0.039	
44	   N	1192.985	340.583	-1186.806	N.am	4	GLU4	-0.516	
45	  CA	1192.625	341.554	-1187.835	C.3	4	GLU4	0.040	
46	   C	1193.524	342.765	-1187.774	C.2	4	GLU4	0.537	
47	   O	1194.050	343.244	-1188.789	O.2	4	GLU4	-0.582	
48	  CB	1191.137	341.972	-1187.665	C.3	4	GLU4	0.056	
49	  CG	1190.588	342.976	-1188.730	C.3	4	GLU4	0.014	
50	  CD	1189.162	343.472	-1188.587	C.2	4	GLU4	0.805	
51	 OE1	1188.436	343.074	-1187.656	O.co2	4	GLU4	-0.819	
52	 OE2	1188.772	344.302	-1189.435	O.co2	4	GLU4	-0.819	
53	   H	1192.301	340.276	-1186.129	 H	4	GLU4	0.294	
54	  HA	1192.756	341.083	-1188.827	 H	4	GLU4	0.111	
55	 2HB	1190.984	342.412	-1186.658	 H	4	GLU4	-0.017	
56	 3HB	1190.489	341.074	-1187.671	 H	4	GLU4	-0.017	
57	 2HG	1190.670	342.561	-1189.748	 H	4	GLU4	-0.043	
58	 3HG	1191.176	343.908	-1188.742	 H	4	GLU4	-0.043	
59	   N	1193.752	343.318	-1186.631	N.am	5	SER5	-0.416	
60	  CA	1194.621	344.489	-1186.573	C.3	5	SER5	-0.025	
61	   C	1195.980	344.183	-1187.159	C.2	5	SER5	0.597	
62	   O	1196.527	344.937	-1187.963	O.2	5	SER5	-0.568	
63	  CB	1194.733	345.021	-1185.122	C.3	5	SER5	0.212	
64	  OG	1195.465	344.142	-1184.261	O.3	5	SER5	-0.655	
65	   H	1193.335	342.946	-1185.790	 H	5	SER5	0.272	
66	  HA	1194.171	345.279	-1187.202	 H	5	SER5	0.084	
67	 2HB	1193.733	345.215	-1184.689	 H	5	SER5	0.035	
68	 3HB	1195.238	346.007	-1185.124	 H	5	SER5	0.035	
69	  HG	1194.976	343.317	-1184.211	 H	5	SER5	0.428	
70	   N	1196.585	343.100	-1186.805	N.am	6	ILE6	-0.416	
71	  CA	1197.898	342.806	-1187.371	C.3	6	ILE6	-0.060	
72	   C	1197.840	342.768	-1188.879	C.2	6	ILE6	0.597	
73	   O	1198.675	343.356	-1189.583	O.2	6	ILE6	-0.568	
74	  CB	1198.497	341.470	-1186.771	C.3	6	ILE6	0.130	
75	 CG1	1198.517	341.407	-1185.210	C.3	6	ILE6	-0.043	
76	 CG2	1199.939	341.168	-1187.287	C.3	6	ILE6	-0.320	
77	 CD1	1198.787	340.018	-1184.595	C.3	6	ILE6	-0.066	
78	   H	1196.156	342.466	-1186.146	 H	6	ILE6	0.272	
79	  HA	1198.572	343.640	-1187.103	 H	6	ILE6	0.087	
80	  HB	1197.840	340.644	-1187.115	 H	6	ILE6	0.019	
81	2HG1	1197.535	341.727	-1184.814	 H	6	ILE6	0.024	
82	3HG1	1199.233	342.149	-1184.805	 H	6	ILE6	0.024	
83	1HG2	1199.998	341.075	-1188.385	 H	6	ILE6	0.088	
84	2HG2	1200.661	341.950	-1186.984	 H	6	ILE6	0.088	
85	3HG2	1200.329	340.206	-1186.908	 H	6	ILE6	0.088	
86	1HD1	1198.059	339.264	-1184.950	 H	6	ILE6	0.019	
87	2HD1	1199.798	339.639	-1184.831	 H	6	ILE6	0.019	
88	3HD1	1198.711	340.048	-1183.493	 H	6	ILE6	0.019	
89	   N	1196.894	342.105	-1189.452	N.am	7	LEU7	-0.416	
90	  CA	1196.839	342.069	-1190.911	C.3	7	LEU7	-0.052	
91	   C	1196.767	343.464	-1191.483	C.2	7	LEU7	0.597	
92	   O	1197.487	343.828	-1192.425	O.2	7	LEU7	-0.568	
93	  CB	1195.636	341.209	-1191.391	C.3	7	LEU7	-0.110	
94	  CG	1195.564	339.729	-1190.925	C.3	7	LEU7	0.353	
95	 CD1	1194.374	339.024	-1191.591	C.3	7	LEU7	-0.412	
96	 CD2	1196.857	338.950	-1191.217	C.3	7	LEU7	-0.412	
97	   H	1196.203	341.618	-1188.901	 H	7	LEU7	0.272	
98	  HA	1197.781	341.629	-1191.285	 H	7	LEU7	0.092	
99	 2HB	1195.613	341.225	-1192.499	 H	7	LEU7	0.046	
100	 3HB	1194.697	341.712	-1191.087	 H	7	LEU7	0.046	
101	  HG	1195.394	339.721	-1189.828	 H	7	LEU7	-0.036	
102	1HD1	1193.417	339.533	-1191.368	 H	7	LEU7	0.100	
103	2HD1	1194.473	338.983	-1192.692	 H	7	LEU7	0.100	
104	3HD1	1194.267	337.982	-1191.235	 H	7	LEU7	0.100	
105	1HD2	1197.132	338.981	-1192.287	 H	7	LEU7	0.100	
106	2HD2	1197.711	339.362	-1190.646	 H	7	LEU7	0.100	
107	3HD2	1196.776	337.888	-1190.921	 H	7	LEU7	0.100	
108	   N	1195.930	344.305	-1190.977	N.am	8	ALA8	-0.416	
109	  CA	1195.860	345.654	-1191.530	C.3	8	ALA8	0.034	
110	   C	1197.208	346.333	-1191.472	C.2	8	ALA8	0.597	
111	   O	1197.681	346.936	-1192.443	O.2	8	ALA8	-0.568	
112	  CB	1194.773	346.421	-1190.756	C.3	8	ALA8	-0.183	
113	   H	1195.332	344.034	-1190.209	 H	8	ALA8	0.272	
114	  HA	1195.573	345.585	-1192.596	 H	8	ALA8	0.082	
115	 1HB	1193.785	345.929	-1190.841	 H	8	ALA8	0.060	
116	 2HB	1195.005	346.495	-1189.676	 H	8	ALA8	0.060	
117	 3HB	1194.648	347.452	-1191.134	 H	8	ALA8	0.060	
118	   N	1197.886	346.282	-1190.376	N.am	9	GLU9	-0.516	
119	  CA	1199.190	346.937	-1190.320	C.3	9	GLU9	0.040	
120	   C	1200.108	346.409	-1191.395	C.2	9	GLU9	0.537	
121	   O	1200.774	347.163	-1192.120	O.2	9	GLU9	-0.582	
122	  CB	1199.822	346.729	-1188.914	C.3	9	GLU9	0.056	
123	  CG	1201.205	347.419	-1188.683	C.3	9	GLU9	0.014	
124	  CD	1201.906	347.205	-1187.354	C.2	9	GLU9	0.805	
125	 OE1	1201.382	346.514	-1186.458	O.co2	9	GLU9	-0.819	
126	 OE2	1203.026	347.741	-1187.222	O.co2	9	GLU9	-0.819	
127	   H	1197.522	345.796	-1189.569	 H	9	GLU9	0.294	
128	  HA	1199.049	348.019	-1190.495	 H	9	GLU9	0.111	
129	 2HB	1199.933	345.644	-1188.711	 H	9	GLU9	-0.017	
130	 3HB	1199.125	347.083	-1188.130	 H	9	GLU9	-0.017	
131	 2HG	1201.135	348.510	-1188.823	 H	9	GLU9	-0.043	
132	 3HG	1201.952	347.073	-1189.417	 H	9	GLU9	-0.043	
133	   N	1200.203	345.133	-1191.564	N.am	10	HIS10	-0.416	
134	  CA	1201.091	344.621	-1192.604	C.3	10	HIS10	-0.058	
135	   C	1200.726	345.187	-1193.956	C.2	10	HIS10	0.597	
136	   O	1201.580	345.651	-1194.727	O.2	10	HIS10	-0.568	
137	  CB	1200.926	343.093	-1192.600	C.3	10	HIS10	-0.007	
138	  CG	1202.211	342.381	-1192.291	C.2	10	HIS10	0.187	
139	 CD2	1202.590	342.045	-1190.998	C.2	10	HIS10	-0.221	
140	 ND1	1203.163	341.975	-1193.223	N.2	10	HIS10	-0.543	
141	 CE1	1204.068	341.415	-1192.399	C.2	10	HIS10	0.163	
142	 NE2	1203.805	341.412	-1191.064	N.pl3	10	HIS10	-0.280	
143	   H	1199.671	344.499	-1190.986	 H	10	HIS10	0.272	
144	  HA	1202.111	344.978	-1192.378	 H	10	HIS10	0.136	
145	 2HB	1200.561	342.726	-1193.580	 H	10	HIS10	0.037	
146	 3HB	1200.169	342.756	-1191.861	 H	10	HIS10	0.037	
147	 2HD	1202.004	342.260	-1190.109	 H	10	HIS10	0.186	
148	 1HE	1204.959	340.994	-1192.845	 H	10	HIS10	0.144	
149	 2HE	1204.370	341.034	-1190.290	 H	10	HIS10	0.334	
150	   N	1199.489	345.187	-1194.319	N.am	11	VAL11	-0.416	
151	  CA	1199.135	345.734	-1195.626	C.3	11	VAL11	-0.087	
152	   C	1199.601	347.164	-1195.758	C.2	11	VAL11	0.597	
153	   O	1200.203	347.569	-1196.761	O.2	11	VAL11	-0.568	
154	  CB	1197.574	345.629	-1195.847	C.3	11	VAL11	0.299	
155	 CG1	1197.007	346.334	-1197.110	C.3	11	VAL11	-0.319	
156	 CG2	1197.048	344.175	-1195.921	C.3	11	VAL11	-0.319	
157	   H	1198.775	344.815	-1193.709	 H	11	VAL11	0.272	
158	  HA	1199.655	345.151	-1196.409	 H	11	VAL11	0.097	
159	  HB	1197.086	346.109	-1194.972	 H	11	VAL11	-0.030	
160	1HG1	1197.446	345.942	-1198.047	 H	11	VAL11	0.079	
161	2HG1	1195.908	346.228	-1197.193	 H	11	VAL11	0.079	
162	3HG1	1197.186	347.426	-1197.100	 H	11	VAL11	0.079	
163	1HG2	1197.336	343.588	-1195.031	 H	11	VAL11	0.079	
164	2HG2	1195.942	344.140	-1195.965	 H	11	VAL11	0.079	
165	3HG2	1197.430	343.635	-1196.808	 H	11	VAL11	0.079	
166	   N	1199.364	347.990	-1194.796	N.am	12	GLN12	-0.416	
167	  CA	1199.814	349.372	-1194.922	C.3	12	GLN12	-0.003	
168	   C	1201.304	349.438	-1195.159	C.2	12	GLN12	0.597	
169	   O	1201.793	350.146	-1196.037	O.2	12	GLN12	-0.568	
170	  CB	1199.423	350.140	-1193.640	C.3	12	GLN12	-0.004	
171	  CG	1199.785	351.661	-1193.608	C.3	12	GLN12	-0.064	
172	  CD	1199.482	352.475	-1192.343	C.2	12	GLN12	0.695	
173	 NE2	1198.914	351.899	-1191.315	N.pl3	12	GLN12	-0.941	
174	 OE1	1199.785	353.656	-1192.266	O.2	12	GLN12	-0.609	
175	   H	1198.874	347.684	-1193.967	 H	12	GLN12	0.272	
176	  HA	1199.316	349.829	-1195.798	 H	12	GLN12	0.085	
177	 2HB	1199.898	349.639	-1192.770	 H	12	GLN12	0.017	
178	 3HB	1198.333	350.034	-1193.478	 H	12	GLN12	0.017	
179	 2HG	1199.308	352.183	-1194.459	 H	12	GLN12	0.035	
180	 3HG	1200.869	351.802	-1193.773	 H	12	GLN12	0.035	
181	1HE2	1198.807	352.493	-1190.492	 H	12	GLN12	0.425	
182	2HE2	1198.749	350.896	-1191.419	 H	12	GLN12	0.425	
183	   N	1202.088	348.730	-1194.418	N.am	13	ARG13	-0.348	
184	  CA	1203.528	348.795	-1194.648	C.3	13	ARG13	-0.264	
185	   C	1203.865	348.423	-1196.073	C.2	13	ARG13	0.734	
186	   O	1204.635	349.094	-1196.756	O.2	13	ARG13	-0.589	
187	  CB	1204.240	347.855	-1193.633	C.3	13	ARG13	-0.001	
188	  CG	1205.785	348.006	-1193.551	C.3	13	ARG13	0.039	
189	  CD	1206.410	347.017	-1192.554	C.3	13	ARG13	0.049	
190	  NE	1207.887	347.223	-1192.502	N.pl3	13	ARG13	-0.530	
191	  CZ	1208.734	346.530	-1191.747	C.cat	13	ARG13	0.808	
192	 NH1	1208.367	345.566	-1190.950	N.pl3	13	ARG13	-0.863	
193	 NH2	1209.994	346.828	-1191.803	N.pl3	13	ARG13	-0.863	
194	   H	1201.710	348.141	-1193.690	 H	13	ARG13	0.275	
195	  HA	1203.854	349.840	-1194.489	 H	13	ARG13	0.156	
196	 2HB	1203.973	346.805	-1193.873	 H	13	ARG13	0.033	
197	 3HB	1203.814	348.021	-1192.623	 H	13	ARG13	0.033	
198	 2HG	1206.034	349.050	-1193.271	 H	13	ARG13	0.029	
199	 3HG	1206.236	347.850	-1194.553	 H	13	ARG13	0.029	
200	 2HD	1206.165	345.978	-1192.863	 H	13	ARG13	0.069	
201	 3HD	1205.953	347.163	-1191.551	 H	13	ARG13	0.069	
202	  HE	1208.340	347.945	-1193.072	 H	13	ARG13	0.346	
203	1HH1	1207.362	345.381	-1190.954	 H	13	ARG13	0.448	
204	2HH1	1209.080	345.082	-1190.401	 H	13	ARG13	0.448	
205	1HH2	1210.263	347.585	-1192.433	 H	13	ARG13	0.448	
206	2HH2	1210.628	346.285	-1191.214	 H	13	ARG13	0.448	
207	   N	1203.328	347.370	-1196.588	N.am	14	VAL14	-0.416	
208	  CA	1203.653	347.010	-1197.965	C.3	14	VAL14	-0.087	
209	   C	1203.325	348.141	-1198.911	C.2	14	VAL14	0.597	
210	   O	1204.119	348.522	-1199.779	O.2	14	VAL14	-0.568	
211	  CB	1202.880	345.694	-1198.373	C.3	14	VAL14	0.299	
212	 CG1	1202.969	345.276	-1199.866	C.3	14	VAL14	-0.319	
213	 CG2	1203.310	344.441	-1197.573	C.3	14	VAL14	-0.319	
214	   H	1202.692	346.802	-1196.046	 H	14	VAL14	0.272	
215	  HA	1204.741	346.833	-1198.039	 H	14	VAL14	0.097	
216	  HB	1201.804	345.866	-1198.157	 H	14	VAL14	-0.030	
217	1HG1	1204.011	345.098	-1200.195	 H	14	VAL14	0.079	
218	2HG1	1202.396	344.354	-1200.080	 H	14	VAL14	0.079	
219	3HG1	1202.542	346.039	-1200.545	 H	14	VAL14	0.079	
220	1HG2	1203.222	344.600	-1196.482	 H	14	VAL14	0.079	
221	2HG2	1202.673	343.566	-1197.806	 H	14	VAL14	0.079	
222	3HG2	1204.358	344.150	-1197.778	 H	14	VAL14	0.079	
223	   N	1202.181	348.728	-1198.809	N.am	15	MET15	-0.416	
224	  CA	1201.862	349.822	-1199.723	C.3	15	MET15	-0.024	
225	   C	1202.893	350.920	-1199.634	C.2	15	MET15	0.597	
226	   O	1203.397	351.431	-1200.646	O.2	15	MET15	-0.568	
227	  CB	1200.441	350.369	-1199.414	C.3	15	MET15	0.034	
228	  CG	1199.278	349.372	-1199.607	C.3	15	MET15	0.002	
229	  SD	1197.705	350.239	-1199.493	S.3	15	MET15	-0.274	
230	  CE	1196.622	348.811	-1199.358	C.3	15	MET15	-0.054	
231	   H	1201.515	348.436	-1198.108	 H	15	MET15	0.272	
232	  HA	1201.888	349.435	-1200.758	 H	15	MET15	0.088	
233	 2HB	1200.240	351.248	-1200.056	 H	15	MET15	0.024	
234	 3HB	1200.405	350.761	-1198.378	 H	15	MET15	0.024	
235	 2HG	1199.320	348.586	-1198.829	 H	15	MET15	0.044	
236	 3HG	1199.341	348.857	-1200.583	 H	15	MET15	0.044	
237	 1HE	1196.766	348.123	-1200.210	 H	15	MET15	0.068	
238	 2HE	1196.831	348.257	-1198.425	 H	15	MET15	0.068	
239	 3HE	1195.565	349.127	-1199.341	 H	15	MET15	0.068	
240	   N	1203.262	351.341	-1198.471	N.am	16	ARG16	-0.348	
241	  CA	1204.259	352.404	-1198.387	C.3	16	ARG16	-0.264	
242	   C	1205.530	352.010	-1199.102	C.2	16	ARG16	0.734	
243	   O	1205.643	350.934	-1199.684	O.2	16	ARG16	-0.589	
244	  CB	1204.528	352.721	-1196.888	C.3	16	ARG16	-0.001	
245	  CG	1205.354	354.009	-1196.614	C.3	16	ARG16	0.039	
246	  CD	1205.603	354.227	-1195.113	C.3	16	ARG16	0.049	
247	  NE	1206.380	355.486	-1194.911	N.pl3	16	ARG16	-0.530	
248	  CZ	1206.772	355.967	-1193.735	C.cat	16	ARG16	0.808	
249	 NH1	1206.523	355.383	-1192.597	N.pl3	16	ARG16	-0.863	
250	 NH2	1207.437	357.079	-1193.716	N.pl3	16	ARG16	-0.863	
251	   H	1202.866	350.941	-1197.632	 H	16	ARG16	0.275	
252	  HA	1203.851	353.297	-1198.896	 H	16	ARG16	0.156	
253	 2HB	1205.024	351.844	-1196.422	 H	16	ARG16	0.033	
254	 3HB	1203.559	352.802	-1196.355	 H	16	ARG16	0.033	
255	 2HG	1204.825	354.880	-1197.052	 H	16	ARG16	0.029	
256	 3HG	1206.328	353.955	-1197.143	 H	16	ARG16	0.029	
257	 2HD	1206.151	353.352	-1194.700	 H	16	ARG16	0.069	
258	 3HD	1204.630	354.271	-1194.578	 H	16	ARG16	0.069	
259	  HE	1206.660	356.066	-1195.708	 H	16	ARG16	0.346	
260	1HH1	1205.997	354.510	-1192.682	 H	16	ARG16	0.448	
261	2HH1	1206.857	355.818	-1191.735	 H	16	ARG16	0.448	
262	1HH2	1207.623	357.522	-1194.617	 H	16	ARG16	0.448	
263	2HH2	1207.727	357.433	-1192.803	 H	16	ARG16	0.448	
@<TRIPOS>BOND
1 1 2 1
2 1 10 1
3 2 3 1
4 2 5 1
5 2 11 1
6 3 4 2
7 3 16 1
8 5 6 1
9 6 7 1
10 7 8 2
11 7 9 1
12 5 12 1
13 5 13 1
14 6 14 1
15 6 15 1
16 16 17 1
17 16 24 1
18 17 18 1
19 17 20 1
20 17 25 1
21 18 19 2
22 18 30 1
23 20 21 1
24 21 22 1
25 21 23 2
26 20 26 1
27 20 27 1
28 22 28 1
29 22 29 1
30 30 31 1
31 30 36 1
32 31 32 1
33 31 34 1
34 31 37 1
35 32 33 2
36 32 44 1
37 34 35 1
38 35 36 1
39 34 38 1
40 34 39 1
41 35 40 1
42 35 41 1
43 36 42 1
44 36 43 1
45 44 45 1
46 44 53 1
47 45 46 1
48 45 48 1
49 45 54 1
50 46 47 2
51 46 59 1
52 48 49 1
53 49 50 1
54 50 51 2
55 50 52 1
56 48 55 1
57 48 56 1
58 49 57 1
59 49 58 1
60 59 60 1
61 59 65 1
62 60 61 1
63 60 63 1
64 60 66 1
65 61 62 2
66 61 70 1
67 63 64 1
68 63 67 1
69 63 68 1
70 64 69 1
71 70 71 1
72 70 78 1
73 71 72 1
74 71 74 1
75 71 79 1
76 72 73 2
77 72 89 1
78 74 75 1
79 74 76 1
80 75 77 1
81 74 80 1
82 75 81 1
83 75 82 1
84 76 83 1
85 76 84 1
86 76 85 1
87 77 86 1
88 77 87 1
89 77 88 1
90 89 90 1
91 89 97 1
92 90 91 1
93 90 93 1
94 90 98 1
95 91 92 2
96 91 108 1
97 93 94 1
98 94 95 1
99 94 96 1
100 93 99 1
101 93 100 1
102 94 101 1
103 95 102 1
104 95 103 1
105 95 104 1
106 96 105 1
107 96 106 1
108 96 107 1
109 108 109 1
110 108 113 1
111 109 110 1
112 109 112 1
113 109 114 1
114 110 111 2
115 110 118 1
116 112 115 1
117 112 116 1
118 112 117 1
119 118 119 1
120 118 127 1
121 119 120 1
122 119 122 1
123 119 128 1
124 120 121 2
125 120 133 1
126 122 123 1
127 123 124 1
128 124 125 2
129 124 126 1
130 122 129 1
131 122 130 1
132 123 131 1
133 123 132 1
134 133 134 1
135 133 143 1
136 134 135 1
137 134 137 1
138 134 144 1
139 135 136 2
140 135 150 1
141 137 138 1
142 138 139 2
143 139 142 1
144 138 140 1
145 140 141 2
146 141 142 1
147 137 145 1
148 137 146 1
149 139 147 1
150 141 148 1
151 142 149 1
152 150 151 1
153 150 157 1
154 151 152 1
155 151 154 1
156 151 158 1
157 152 153 2
158 152 166 1
159 154 155 1
160 154 156 1
161 154 159 1
162 155 160 1
163 155 161 1
164 155 162 1
165 156 163 1
166 156 164 1
167 156 165 1
168 166 167 1
169 166 175 1
170 167 168 1
171 167 170 1
172 167 176 1
173 168 169 2
174 168 183 1
175 170 171 1
176 171 172 1
177 172 173 1
178 172 174 2
179 170 177 1
180 170 178 1
181 171 179 1
182 171 180 1
183 173 181 1
184 173 182 1
185 183 184 1
186 183 194 1
187 184 185 1
188 184 187 1
189 184 195 1
190 185 186 2
191 185 207 1
192 187 188 1
193 188 189 1
194 189 190 1
195 190 191 1
196 191 192 2
197 191 193 1
198 187 196 1
199 187 197 1
200 188 198 1
201 188 199 1
202 189 200 1
203 189 201 1
204 190 202 1
205 192 203 1
206 192 204 1
207 193 205 1
208 193 206 1
209 207 208 1
210 207 214 1
211 208 209 1
212 208 211 1
213 208 215 1
214 209 210 2
215 209 223 1
216 211 212 1
217 211 213 1
218 211 216 1
219 212 217 1
220 212 218 1
221 212 219 1
222 213 220 1
223 213 221 1
224 213 222 1
225 223 224 1
226 223 231 1
227 224 225 1
228 224 227 1
229 224 232 1
230 225 226 2
231 225 240 1
232 227 228 1
233 228 229 1
234 229 230 1
235 227 233 1
236 227 234 1
237 228 235 1
238 228 236 1
239 230 237 1
240 230 238 1
241 230 239 1
242 240 241 1
243 240 251 1
244 241 242 1
245 241 244 1
246 241 252 1
247 242 243 2
248 244 245 1
249 245 246 1
250 246 247 1
251 247 248 1
252 248 249 2
253 248 250 1
254 244 253 1
255 244 254 1
256 245 255 1
257 245 256 1
258 246 257 1
259 246 258 1
260 247 259 1
261 249 260 1
262 249 261 1
263 250 262 1
264 250 263 1
@<TRIPOS>SUBSTRUCTURE
1	GLU1	1	RESIDUE	1 ****	GLU
2	ASN2	16	RESIDUE	1 ****	ASN
3	PRO3	30	RESIDUE	1 ****	PRO
4	GLU4	44	RESIDUE	1 ****	GLU
5	SER5	59	RESIDUE	1 ****	SER
6	ILE6	70	RESIDUE	1 ****	ILE
7	LEU7	89	RESIDUE	1 ****	LEU
8	ALA8	108	RESIDUE	1 ****	ALA
9	GLU9	118	RESIDUE	1 ****	GLU
10	HIS10	133	RESIDUE	1 ****	HIS
11	VAL11	150	RESIDUE	1 ****	VAL
12	GLN12	166	RESIDUE	1 ****	GLN
13	ARG13	183	RESIDUE	1 ****	ARG
14	VAL14	207	RESIDUE	1 ****	VAL
15	MET15	223	RESIDUE	1 ****	MET
16	ARG16	240	RESIDUE	1 ****	ARG
