@<TRIPOS>MOLECULE
6-9
267 269 16              
SMALL
USER_CHARGES
@<TRIPOS>ATOM
1	   N	926.298	252.402	-897.114	N.3	1	GLU1	-0.516	
2	  CA	926.857	253.751	-897.114	C.3	1	GLU1	0.040	
3	   C	928.366	253.711	-897.114	C.2	1	GLU1	0.537	
4	   O	929.042	254.410	-897.882	O.2	1	GLU1	-0.582	
5	  CB	926.334	254.536	-895.877	C.3	1	GLU1	0.056	
6	  CG	926.809	256.021	-895.766	C.3	1	GLU1	0.014	
7	  CD	926.385	256.825	-894.551	C.2	1	GLU1	0.805	
8	 OE1	925.657	256.323	-893.673	O.co2	1	GLU1	-0.819	
9	 OE2	926.815	257.995	-894.479	O.co2	1	GLU1	-0.819	
10	   H	926.925	251.523	-897.114	 H	1	GLU1	0.294	
11	  HA	926.531	254.269	-898.034	 H	1	GLU1	0.111	
12	 2HB	926.623	254.005	-894.947	 H	1	GLU1	-0.017	
13	 3HB	925.227	254.526	-895.864	 H	1	GLU1	-0.017	
14	 2HG	926.499	256.606	-896.647	 H	1	GLU1	-0.043	
15	 3HG	927.909	256.088	-895.737	 H	1	GLU1	-0.043	
16	   N	928.970	252.925	-896.289	N.am	2	ASN2	-0.416	
17	  CA	930.430	252.886	-896.289	C.3	2	ASN2	0.014	
18	   C	930.961	252.531	-897.657	C.2	2	ASN2	0.597	
19	   O	931.876	253.161	-898.186	O.2	2	ASN2	-0.568	
20	  CB	930.922	251.863	-895.224	C.3	2	ASN2	-0.204	
21	  CG	930.459	252.087	-893.781	C.2	2	ASN2	0.713	
22	 ND2	931.053	253.002	-893.063	N.pl3	2	ASN2	-0.919	
23	 OD1	929.538	251.453	-893.287	O.2	2	ASN2	-0.593	
24	   H	928.442	252.345	-895.652	 H	2	ASN2	0.272	
25	  HA	930.807	253.896	-896.043	 H	2	ASN2	0.105	
26	 2HB	932.026	251.804	-895.228	 H	2	ASN2	0.080	
27	 3HB	930.593	250.845	-895.510	 H	2	ASN2	0.080	
28	1HD2	930.572	253.175	-892.176	 H	2	ASN2	0.420	
29	2HD2	931.755	253.574	-893.532	 H	2	ASN2	0.420	
30	   N	930.440	251.536	-898.291	N.am	3	PRO3	-0.255	
31	  CA	930.891	251.126	-899.613	C.3	3	PRO3	-0.027	
32	   C	930.493	252.150	-900.690	C.2	3	PRO3	0.590	
33	   O	931.316	252.533	-901.521	O.2	3	PRO3	-0.575	
34	  CB	930.188	249.772	-899.782	C.3	3	PRO3	-0.007	
35	  CG	928.904	249.924	-898.952	C.3	3	PRO3	0.019	
36	  CD	929.362	250.742	-897.742	C.3	3	PRO3	0.019	
37	  HA	931.977	251.007	-899.627	 H	3	PRO3	0.064	
38	 2HB	930.811	248.991	-899.341	 H	3	PRO3	0.025	
39	 3HB	929.989	249.523	-900.827	 H	3	PRO3	0.025	
40	 2HG	928.477	248.961	-898.661	 H	3	PRO3	0.021	
41	 3HG	928.167	250.494	-899.519	 H	3	PRO3	0.021	
42	 2HD	929.751	250.093	-896.955	 H	3	PRO3	0.039	
43	 3HD	928.565	251.378	-897.349	 H	3	PRO3	0.039	
44	   N	929.288	252.610	-900.722	N.am	4	GLU4	-0.516	
45	  CA	928.928	253.581	-901.752	C.3	4	GLU4	0.040	
46	   C	929.827	254.792	-901.690	C.2	4	GLU4	0.537	
47	   O	930.353	255.272	-902.705	O.2	4	GLU4	-0.582	
48	  CB	927.440	253.999	-901.581	C.3	4	GLU4	0.056	
49	  CG	926.892	255.002	-902.647	C.3	4	GLU4	0.014	
50	  CD	925.465	255.499	-902.503	C.2	4	GLU4	0.805	
51	 OE1	924.739	255.100	-901.572	O.co2	4	GLU4	-0.819	
52	 OE2	925.075	256.328	-903.352	O.co2	4	GLU4	-0.819	
53	   H	928.604	252.303	-900.045	 H	4	GLU4	0.294	
54	  HA	929.060	253.110	-902.743	 H	4	GLU4	0.111	
55	 2HB	927.287	254.439	-900.574	 H	4	GLU4	-0.017	
56	 3HB	926.792	253.101	-901.588	 H	4	GLU4	-0.017	
57	 2HG	926.973	254.588	-903.665	 H	4	GLU4	-0.043	
58	 3HG	927.479	255.935	-902.658	 H	4	GLU4	-0.043	
59	   N	930.054	255.345	-900.547	N.am	5	SER5	-0.416	
60	  CA	930.924	256.516	-900.489	C.3	5	SER5	-0.025	
61	   C	932.283	256.211	-901.074	C.2	5	SER5	0.597	
62	   O	932.830	256.965	-901.879	O.2	5	SER5	-0.568	
63	  CB	931.035	257.049	-899.038	C.3	5	SER5	0.212	
64	  OG	931.767	256.169	-898.177	O.3	5	SER5	-0.655	
65	   H	929.638	254.973	-899.706	 H	5	SER5	0.272	
66	  HA	930.474	257.306	-901.118	 H	5	SER5	0.084	
67	 2HB	930.035	257.242	-898.605	 H	5	SER5	0.035	
68	 3HB	931.540	258.034	-899.041	 H	5	SER5	0.035	
69	  HG	931.279	255.344	-898.127	 H	5	SER5	0.428	
70	   N	932.888	255.128	-900.720	N.am	6	TYR6	-0.416	
71	  CA	934.201	254.833	-901.286	C.3	6	TYR6	-0.001	
72	   C	934.143	254.796	-902.794	C.2	6	TYR6	0.597	
73	   O	934.974	255.381	-903.495	O.2	6	TYR6	-0.568	
74	  CB	934.722	253.453	-900.791	C.3	6	TYR6	-0.015	
75	  CG	934.938	253.300	-899.281	C.2	6	TYR6	-0.001	
76	 CD1	936.073	253.838	-898.666	C.2	6	TYR6	-0.191	
77	 CD2	933.989	252.625	-898.508	C.2	6	TYR6	-0.191	
78	 CE1	936.251	253.705	-897.291	C.2	6	TYR6	-0.234	
79	 CE2	934.169	252.494	-897.135	C.2	6	TYR6	-0.234	
80	  CZ	935.300	253.034	-896.527	C.2	6	TYR6	0.323	
81	  OH	935.477	252.909	-895.178	O.3	6	TYR6	-0.558	
82	   H	932.459	254.494	-900.061	 H	6	TYR6	0.272	
83	  HA	934.906	255.634	-900.993	 H	6	TYR6	0.088	
84	 2HB	935.682	253.216	-901.291	 H	6	TYR6	0.030	
85	 3HB	934.041	252.653	-901.151	 H	6	TYR6	0.030	
86	 1HD	936.814	254.365	-899.250	 H	6	TYR6	0.170	
87	 2HD	933.103	252.213	-898.971	 H	6	TYR6	0.170	
88	 1HE	937.123	254.125	-896.813	 H	6	TYR6	0.166	
89	 2HE	933.425	251.976	-896.548	 H	6	TYR6	0.166	
90	  HH	934.731	252.425	-894.817	 H	6	TYR6	0.399	
91	   N	933.198	254.132	-903.368	N.am	7	LEU7	-0.416	
92	  CA	933.142	254.096	-904.826	C.3	7	LEU7	-0.052	
93	   C	933.069	255.491	-905.399	C.2	7	LEU7	0.597	
94	   O	933.790	255.854	-906.341	O.2	7	LEU7	-0.568	
95	  CB	931.939	253.235	-905.306	C.3	7	LEU7	-0.110	
96	  CG	931.867	251.756	-904.839	C.3	7	LEU7	0.353	
97	 CD1	930.677	251.049	-905.505	C.3	7	LEU7	-0.412	
98	 CD2	933.161	250.977	-905.131	C.3	7	LEU7	-0.412	
99	   H	932.506	253.645	-902.816	 H	7	LEU7	0.272	
100	  HA	934.084	253.656	-905.201	 H	7	LEU7	0.092	
101	 2HB	931.916	253.251	-906.414	 H	7	LEU7	0.046	
102	 3HB	931.000	253.738	-905.002	 H	7	LEU7	0.046	
103	  HG	931.698	251.748	-903.742	 H	7	LEU7	-0.036	
104	1HD1	929.720	251.558	-905.282	 H	7	LEU7	0.100	
105	2HD1	930.776	251.009	-906.606	 H	7	LEU7	0.100	
106	3HD1	930.571	250.008	-905.148	 H	7	LEU7	0.100	
107	1HD2	933.436	251.007	-906.201	 H	7	LEU7	0.100	
108	2HD2	934.014	251.389	-904.560	 H	7	LEU7	0.100	
109	3HD2	933.080	249.914	-904.835	 H	7	LEU7	0.100	
110	   N	932.232	256.331	-904.892	N.am	8	ASP8	-0.516	
111	  CA	932.161	257.681	-905.446	C.3	8	ASP8	0.038	
112	   C	933.507	258.361	-905.389	C.2	8	ASP8	0.537	
113	   O	933.980	258.966	-906.363	O.2	8	ASP8	-0.582	
114	  CB	931.083	258.519	-904.704	C.3	8	ASP8	-0.030	
115	  CG	930.863	259.940	-905.244	C.2	8	ASP8	0.799	
116	 OD1	930.927	260.139	-906.475	O.co2	8	ASP8	-0.801	
117	 OD2	930.671	260.866	-904.429	O.co2	8	ASP8	-0.801	
118	   H	931.635	256.060	-904.124	 H	8	ASP8	0.294	
119	  HA	931.878	257.603	-906.512	 H	8	ASP8	0.088	
120	 2HB	931.340	258.603	-903.632	 H	8	ASP8	-0.012	
121	 3HB	930.104	258.014	-904.736	 H	8	ASP8	-0.012	
122	   N	934.188	258.311	-904.294	N.am	9	GLU9	-0.516	
123	  CA	935.490	258.969	-904.239	C.3	9	GLU9	0.040	
124	   C	936.408	258.442	-905.315	C.2	9	GLU9	0.537	
125	   O	937.072	259.197	-906.040	O.2	9	GLU9	-0.582	
126	  CB	936.124	258.762	-902.833	C.3	9	GLU9	0.056	
127	  CG	937.506	259.455	-902.604	C.3	9	GLU9	0.014	
128	  CD	938.209	259.242	-901.276	C.2	9	GLU9	0.805	
129	 OE1	937.687	258.550	-900.380	O.co2	9	GLU9	-0.819	
130	 OE2	939.328	259.780	-901.145	O.co2	9	GLU9	-0.819	
131	   H	933.825	257.825	-903.487	 H	9	GLU9	0.294	
132	  HA	935.348	260.051	-904.414	 H	9	GLU9	0.111	
133	 2HB	936.237	257.677	-902.630	 H	9	GLU9	-0.017	
134	 3HB	935.427	259.115	-902.049	 H	9	GLU9	-0.017	
135	 2HG	937.434	260.545	-902.744	 H	9	GLU9	-0.043	
136	 3HG	938.253	259.110	-903.338	 H	9	GLU9	-0.043	
137	   N	936.505	257.167	-905.484	N.am	10	HIS10	-0.416	
138	  CA	937.393	256.656	-906.525	C.3	10	HIS10	-0.058	
139	   C	937.026	257.221	-907.876	C.2	10	HIS10	0.597	
140	   O	937.878	257.686	-908.648	O.2	10	HIS10	-0.568	
141	  CB	937.230	255.127	-906.520	C.3	10	HIS10	-0.007	
142	  CG	938.516	254.418	-906.212	C.2	10	HIS10	0.187	
143	 CD2	938.897	254.082	-904.920	C.2	10	HIS10	-0.221	
144	 ND1	939.468	254.012	-907.145	N.2	10	HIS10	-0.543	
145	 CE1	940.375	253.454	-906.322	C.2	10	HIS10	0.163	
146	 NE2	940.112	253.451	-904.987	N.pl3	10	HIS10	-0.280	
147	   H	935.975	256.531	-904.906	 H	10	HIS10	0.272	
148	  HA	938.412	257.014	-906.300	 H	10	HIS10	0.136	
149	 2HB	936.865	254.760	-907.500	 H	10	HIS10	0.037	
150	 3HB	936.474	254.790	-905.780	 H	10	HIS10	0.037	
151	 2HD	938.311	254.297	-904.031	 H	10	HIS10	0.186	
152	 1HE	941.266	253.034	-906.769	 H	10	HIS10	0.144	
153	 2HE	940.679	253.074	-904.214	 H	10	HIS10	0.334	
154	   N	935.788	257.219	-908.239	N.am	11	VAL11	-0.416	
155	  CA	935.432	257.765	-909.545	C.3	11	VAL11	-0.087	
156	   C	935.896	259.196	-909.678	C.2	11	VAL11	0.597	
157	   O	936.496	259.602	-910.681	O.2	11	VAL11	-0.568	
158	  CB	933.871	257.658	-909.764	C.3	11	VAL11	0.299	
159	 CG1	933.302	258.362	-911.027	C.3	11	VAL11	-0.319	
160	 CG2	933.347	256.204	-909.838	C.3	11	VAL11	-0.319	
161	   H	935.075	256.846	-907.628	 H	11	VAL11	0.272	
162	  HA	935.952	257.183	-910.328	 H	11	VAL11	0.097	
163	  HB	933.383	258.138	-908.889	 H	11	VAL11	-0.030	
164	1HG1	933.740	257.970	-911.964	 H	11	VAL11	0.079	
165	2HG1	932.203	258.254	-911.109	 H	11	VAL11	0.079	
166	3HG1	933.479	259.454	-911.017	 H	11	VAL11	0.079	
167	1HG2	933.637	255.616	-908.947	 H	11	VAL11	0.079	
168	2HG2	932.241	256.166	-909.880	 H	11	VAL11	0.079	
169	3HG2	933.729	255.663	-910.724	 H	11	VAL11	0.079	
170	   N	935.659	260.022	-908.715	N.am	12	GLN12	-0.416	
171	  CA	936.106	261.405	-908.842	C.3	12	GLN12	-0.003	
172	   C	937.596	261.473	-909.080	C.2	12	GLN12	0.597	
173	   O	938.083	262.181	-909.959	O.2	12	GLN12	-0.568	
174	  CB	935.715	262.172	-907.559	C.3	12	GLN12	-0.004	
175	  CG	936.075	263.694	-907.528	C.3	12	GLN12	-0.064	
176	  CD	935.772	264.507	-906.263	C.2	12	GLN12	0.695	
177	 NE2	935.206	263.930	-905.234	N.pl3	12	GLN12	-0.941	
178	 OE1	936.074	265.688	-906.185	O.2	12	GLN12	-0.609	
179	   H	935.170	259.715	-907.886	 H	12	GLN12	0.272	
180	  HA	935.607	261.861	-909.717	 H	12	GLN12	0.085	
181	 2HB	936.192	261.672	-906.690	 H	12	GLN12	0.017	
182	 3HB	934.625	262.064	-907.396	 H	12	GLN12	0.017	
183	 2HG	935.597	264.215	-908.379	 H	12	GLN12	0.035	
184	 3HG	937.158	263.837	-907.694	 H	12	GLN12	0.035	
185	1HE2	935.099	264.525	-904.411	 H	12	GLN12	0.425	
186	2HE2	935.043	262.927	-905.338	 H	12	GLN12	0.425	
187	   N	938.381	260.766	-908.340	N.am	13	ARG13	-0.348	
188	  CA	939.822	260.833	-908.571	C.3	13	ARG13	-0.264	
189	   C	940.158	260.462	-909.996	C.2	13	ARG13	0.734	
190	   O	940.926	261.134	-910.680	O.2	13	ARG13	-0.589	
191	  CB	940.536	259.894	-907.557	C.3	13	ARG13	-0.001	
192	  CG	942.081	260.048	-907.477	C.3	13	ARG13	0.039	
193	  CD	942.708	259.061	-906.479	C.3	13	ARG13	0.049	
194	  NE	944.186	259.269	-906.429	N.pl3	13	ARG13	-0.530	
195	  CZ	945.034	258.577	-905.674	C.cat	13	ARG13	0.808	
196	 NH1	944.670	257.613	-904.877	N.pl3	13	ARG13	-0.863	
197	 NH2	946.293	258.877	-905.732	N.pl3	13	ARG13	-0.863	
198	   H	938.006	260.176	-907.611	 H	13	ARG13	0.275	
199	  HA	940.146	261.879	-908.412	 H	13	ARG13	0.156	
200	 2HB	940.270	258.844	-907.797	 H	13	ARG13	0.033	
201	 3HB	940.111	260.060	-906.547	 H	13	ARG13	0.033	
202	 2HG	942.328	261.093	-907.197	 H	13	ARG13	0.029	
203	 3HG	942.531	259.892	-908.478	 H	13	ARG13	0.029	
204	 2HD	942.464	258.020	-906.788	 H	13	ARG13	0.069	
205	 3HD	942.252	259.206	-905.477	 H	13	ARG13	0.069	
206	  HE	944.636	259.991	-907.000	 H	13	ARG13	0.346	
207	1HH1	943.664	257.426	-904.880	 H	13	ARG13	0.448	
208	2HH1	945.383	257.130	-904.329	 H	13	ARG13	0.448	
209	1HH2	946.560	259.635	-906.363	 H	13	ARG13	0.448	
210	2HH2	946.929	258.336	-905.143	 H	13	ARG13	0.448	
211	   N	939.622	259.407	-910.510	N.am	14	VAL14	-0.416	
212	  CA	939.946	259.048	-911.888	C.3	14	VAL14	-0.087	
213	   C	939.615	260.178	-912.833	C.2	14	VAL14	0.597	
214	   O	940.408	260.560	-913.703	O.2	14	VAL14	-0.568	
215	  CB	939.174	257.731	-912.295	C.3	14	VAL14	0.299	
216	 CG1	939.263	257.313	-913.789	C.3	14	VAL14	-0.319	
217	 CG2	939.607	256.479	-911.495	C.3	14	VAL14	-0.319	
218	   H	938.987	258.838	-909.968	 H	14	VAL14	0.272	
219	  HA	941.035	258.872	-911.963	 H	14	VAL14	0.097	
220	  HB	938.098	257.901	-912.079	 H	14	VAL14	-0.030	
221	1HG1	940.305	257.136	-914.118	 H	14	VAL14	0.079	
222	2HG1	938.691	256.389	-914.001	 H	14	VAL14	0.079	
223	3HG1	938.834	258.075	-914.466	 H	14	VAL14	0.079	
224	1HG2	939.520	256.637	-910.404	 H	14	VAL14	0.079	
225	2HG2	938.972	255.602	-911.727	 H	14	VAL14	0.079	
226	3HG2	940.655	256.189	-911.701	 H	14	VAL14	0.079	
227	   N	938.470	260.763	-912.731	N.am	15	MET15	-0.416	
228	  CA	938.149	261.856	-913.645	C.3	15	MET15	-0.024	
229	   C	939.179	262.956	-913.557	C.2	15	MET15	0.597	
230	   O	939.681	263.467	-914.570	O.2	15	MET15	-0.568	
231	  CB	936.728	262.401	-913.335	C.3	15	MET15	0.034	
232	  CG	935.566	261.402	-913.527	C.3	15	MET15	0.002	
233	  SD	933.992	262.268	-913.412	S.3	15	MET15	-0.274	
234	  CE	932.911	260.837	-913.275	C.3	15	MET15	-0.054	
235	   H	937.806	260.470	-912.029	 H	15	MET15	0.272	
236	  HA	938.175	261.469	-914.680	 H	15	MET15	0.088	
237	 2HB	936.525	263.280	-913.977	 H	15	MET15	0.024	
238	 3HB	936.692	262.793	-912.299	 H	15	MET15	0.024	
239	 2HG	935.610	260.616	-912.749	 H	15	MET15	0.044	
240	 3HG	935.629	260.887	-914.503	 H	15	MET15	0.044	
241	 1HE	933.055	260.149	-914.127	 H	15	MET15	0.068	
242	 2HE	933.121	260.285	-912.342	 H	15	MET15	0.068	
243	 3HE	931.854	261.152	-913.258	 H	15	MET15	0.068	
244	   N	939.548	263.377	-912.395	N.am	16	ARG16	-0.348	
245	  CA	940.544	264.442	-912.312	C.3	16	ARG16	-0.264	
246	   C	941.814	264.050	-913.028	C.2	16	ARG16	0.734	
247	   O	941.928	262.973	-913.610	O.2	16	ARG16	-0.589	
248	  CB	940.813	264.760	-910.813	C.3	16	ARG16	-0.001	
249	  CG	941.638	266.049	-910.541	C.3	16	ARG16	0.039	
250	  CD	941.888	266.268	-909.039	C.3	16	ARG16	0.049	
251	  NE	942.664	267.527	-908.839	N.pl3	16	ARG16	-0.530	
252	  CZ	943.055	268.010	-907.663	C.cat	16	ARG16	0.808	
253	 NH1	942.808	267.425	-906.525	N.pl3	16	ARG16	-0.863	
254	 NH2	943.719	269.123	-907.645	N.pl3	16	ARG16	-0.863	
255	   H	939.154	262.977	-911.556	 H	16	ARG16	0.275	
256	  HA	940.134	265.334	-912.821	 H	16	ARG16	0.156	
257	 2HB	941.311	263.884	-910.347	 H	16	ARG16	0.033	
258	 3HB	939.845	264.840	-910.279	 H	16	ARG16	0.033	
259	 2HG	941.107	266.920	-910.978	 H	16	ARG16	0.029	
260	 3HG	942.611	265.997	-911.070	 H	16	ARG16	0.029	
261	 2HD	942.438	265.394	-908.626	 H	16	ARG16	0.069	
262	 3HD	940.916	266.310	-908.504	 H	16	ARG16	0.069	
263	  HE	942.942	268.109	-909.636	 H	16	ARG16	0.346	
264	1HH1	942.283	266.552	-906.609	 H	16	ARG16	0.448	
265	2HH1	943.143	267.861	-905.663	 H	16	ARG16	0.448	
266	1HH2	943.904	269.566	-908.547	 H	16	ARG16	0.448	
267	2HH2	944.009	269.478	-906.732	 H	16	ARG16	0.448	
@<TRIPOS>BOND
1 1 2 1
2 1 10 1
3 2 3 1
4 2 5 1
5 2 11 1
6 3 4 2
7 3 16 1
8 5 6 1
9 6 7 1
10 7 8 2
11 7 9 1
12 5 12 1
13 5 13 1
14 6 14 1
15 6 15 1
16 16 17 1
17 16 24 1
18 17 18 1
19 17 20 1
20 17 25 1
21 18 19 2
22 18 30 1
23 20 21 1
24 21 22 1
25 21 23 2
26 20 26 1
27 20 27 1
28 22 28 1
29 22 29 1
30 30 31 1
31 30 36 1
32 31 32 1
33 31 34 1
34 31 37 1
35 32 33 2
36 32 44 1
37 34 35 1
38 35 36 1
39 34 38 1
40 34 39 1
41 35 40 1
42 35 41 1
43 36 42 1
44 36 43 1
45 44 45 1
46 44 53 1
47 45 46 1
48 45 48 1
49 45 54 1
50 46 47 2
51 46 59 1
52 48 49 1
53 49 50 1
54 50 51 2
55 50 52 1
56 48 55 1
57 48 56 1
58 49 57 1
59 49 58 1
60 59 60 1
61 59 65 1
62 60 61 1
63 60 63 1
64 60 66 1
65 61 62 2
66 61 70 1
67 63 64 1
68 63 67 1
69 63 68 1
70 64 69 1
71 70 71 1
72 70 82 1
73 71 72 1
74 71 74 1
75 71 83 1
76 72 73 2
77 72 91 1
78 74 75 1
79 75 76 2
80 75 77 1
81 77 79 2
82 76 78 1
83 79 80 1
84 78 80 2
85 80 81 1
86 74 84 1
87 74 85 1
88 76 86 1
89 77 87 1
90 78 88 1
91 79 89 1
92 81 90 1
93 91 92 1
94 91 99 1
95 92 93 1
96 92 95 1
97 92 100 1
98 93 94 2
99 93 110 1
100 95 96 1
101 96 97 1
102 96 98 1
103 95 101 1
104 95 102 1
105 96 103 1
106 97 104 1
107 97 105 1
108 97 106 1
109 98 107 1
110 98 108 1
111 98 109 1
112 110 111 1
113 110 118 1
114 111 112 1
115 111 114 1
116 111 119 1
117 112 113 2
118 112 122 1
119 114 115 1
120 115 116 2
121 115 117 1
122 114 120 1
123 114 121 1
124 122 123 1
125 122 131 1
126 123 124 1
127 123 126 1
128 123 132 1
129 124 125 2
130 124 137 1
131 126 127 1
132 127 128 1
133 128 129 2
134 128 130 1
135 126 133 1
136 126 134 1
137 127 135 1
138 127 136 1
139 137 138 1
140 137 147 1
141 138 139 1
142 138 141 1
143 138 148 1
144 139 140 2
145 139 154 1
146 141 142 1
147 142 143 2
148 143 146 1
149 142 144 1
150 144 145 2
151 145 146 1
152 141 149 1
153 141 150 1
154 143 151 1
155 145 152 1
156 146 153 1
157 154 155 1
158 154 161 1
159 155 156 1
160 155 158 1
161 155 162 1
162 156 157 2
163 156 170 1
164 158 159 1
165 158 160 1
166 158 163 1
167 159 164 1
168 159 165 1
169 159 166 1
170 160 167 1
171 160 168 1
172 160 169 1
173 170 171 1
174 170 179 1
175 171 172 1
176 171 174 1
177 171 180 1
178 172 173 2
179 172 187 1
180 174 175 1
181 175 176 1
182 176 177 1
183 176 178 2
184 174 181 1
185 174 182 1
186 175 183 1
187 175 184 1
188 177 185 1
189 177 186 1
190 187 188 1
191 187 198 1
192 188 189 1
193 188 191 1
194 188 199 1
195 189 190 2
196 189 211 1
197 191 192 1
198 192 193 1
199 193 194 1
200 194 195 1
201 195 196 2
202 195 197 1
203 191 200 1
204 191 201 1
205 192 202 1
206 192 203 1
207 193 204 1
208 193 205 1
209 194 206 1
210 196 207 1
211 196 208 1
212 197 209 1
213 197 210 1
214 211 212 1
215 211 218 1
216 212 213 1
217 212 215 1
218 212 219 1
219 213 214 2
220 213 227 1
221 215 216 1
222 215 217 1
223 215 220 1
224 216 221 1
225 216 222 1
226 216 223 1
227 217 224 1
228 217 225 1
229 217 226 1
230 227 228 1
231 227 235 1
232 228 229 1
233 228 231 1
234 228 236 1
235 229 230 2
236 229 244 1
237 231 232 1
238 232 233 1
239 233 234 1
240 231 237 1
241 231 238 1
242 232 239 1
243 232 240 1
244 234 241 1
245 234 242 1
246 234 243 1
247 244 245 1
248 244 255 1
249 245 246 1
250 245 248 1
251 245 256 1
252 246 247 2
253 248 249 1
254 249 250 1
255 250 251 1
256 251 252 1
257 252 253 2
258 252 254 1
259 248 257 1
260 248 258 1
261 249 259 1
262 249 260 1
263 250 261 1
264 250 262 1
265 251 263 1
266 253 264 1
267 253 265 1
268 254 266 1
269 254 267 1
@<TRIPOS>SUBSTRUCTURE
1	GLU1	1	RESIDUE	1 ****	GLU
2	ASN2	16	RESIDUE	1 ****	ASN
3	PRO3	30	RESIDUE	1 ****	PRO
4	GLU4	44	RESIDUE	1 ****	GLU
5	SER5	59	RESIDUE	1 ****	SER
6	TYR6	70	RESIDUE	1 ****	TYR
7	LEU7	91	RESIDUE	1 ****	LEU
8	ASP8	110	RESIDUE	1 ****	ASP
9	GLU9	122	RESIDUE	1 ****	GLU
10	HIS10	137	RESIDUE	1 ****	HIS
11	VAL11	154	RESIDUE	1 ****	VAL
12	GLN12	170	RESIDUE	1 ****	GLN
13	ARG13	187	RESIDUE	1 ****	ARG
14	VAL14	211	RESIDUE	1 ****	VAL
15	MET15	227	RESIDUE	1 ****	MET
16	ARG16	244	RESIDUE	1 ****	ARG
