@<TRIPOS>MOLECULE
7-6
265 266 16              
SMALL
USER_CHARGES
@<TRIPOS>ATOM
1	   N	1066.126	299.548	-1049.230	N.3	1	GLU1	-0.516	
2	  CA	1066.685	300.897	-1049.230	C.3	1	GLU1	0.040	
3	   C	1068.194	300.857	-1049.230	C.2	1	GLU1	0.537	
4	   O	1068.870	301.556	-1049.998	O.2	1	GLU1	-0.582	
5	  CB	1066.162	301.682	-1047.993	C.3	1	GLU1	0.056	
6	  CG	1066.637	303.167	-1047.882	C.3	1	GLU1	0.014	
7	  CD	1066.213	303.971	-1046.667	C.2	1	GLU1	0.805	
8	 OE1	1065.485	303.469	-1045.789	O.co2	1	GLU1	-0.819	
9	 OE2	1066.643	305.141	-1046.595	O.co2	1	GLU1	-0.819	
10	   H	1066.753	298.669	-1049.230	 H	1	GLU1	0.294	
11	  HA	1066.359	301.415	-1050.150	 H	1	GLU1	0.111	
12	 2HB	1066.451	301.151	-1047.063	 H	1	GLU1	-0.017	
13	 3HB	1065.055	301.672	-1047.980	 H	1	GLU1	-0.017	
14	 2HG	1066.327	303.752	-1048.763	 H	1	GLU1	-0.043	
15	 3HG	1067.737	303.234	-1047.853	 H	1	GLU1	-0.043	
16	   N	1068.799	300.071	-1048.405	N.am	2	ASN2	-0.416	
17	  CA	1070.258	300.032	-1048.405	C.3	2	ASN2	0.014	
18	   C	1070.789	299.677	-1049.773	C.2	2	ASN2	0.597	
19	   O	1071.704	300.307	-1050.302	O.2	2	ASN2	-0.568	
20	  CB	1070.750	299.010	-1047.340	C.3	2	ASN2	-0.204	
21	  CG	1070.287	299.233	-1045.897	C.2	2	ASN2	0.713	
22	 ND2	1070.881	300.148	-1045.179	N.pl3	2	ASN2	-0.919	
23	 OD1	1069.366	298.599	-1045.403	O.2	2	ASN2	-0.593	
24	   H	1068.271	299.491	-1047.768	 H	2	ASN2	0.272	
25	  HA	1070.635	301.043	-1048.159	 H	2	ASN2	0.105	
26	 2HB	1071.855	298.951	-1047.344	 H	2	ASN2	0.080	
27	 3HB	1070.421	297.991	-1047.626	 H	2	ASN2	0.080	
28	1HD2	1070.401	300.321	-1044.292	 H	2	ASN2	0.420	
29	2HD2	1071.583	300.720	-1045.648	 H	2	ASN2	0.420	
30	   N	1070.268	298.682	-1050.407	N.am	3	PRO3	-0.255	
31	  CA	1070.719	298.273	-1051.729	C.3	3	PRO3	-0.027	
32	   C	1070.321	299.296	-1052.806	C.2	3	PRO3	0.590	
33	   O	1071.145	299.679	-1053.637	O.2	3	PRO3	-0.575	
34	  CB	1070.015	296.918	-1051.898	C.3	3	PRO3	-0.007	
35	  CG	1068.732	297.070	-1051.068	C.3	3	PRO3	0.019	
36	  CD	1069.190	297.889	-1049.858	C.3	3	PRO3	0.019	
37	  HA	1071.805	298.153	-1051.743	 H	3	PRO3	0.064	
38	 2HB	1070.638	296.137	-1051.457	 H	3	PRO3	0.025	
39	 3HB	1069.817	296.669	-1052.943	 H	3	PRO3	0.025	
40	 2HG	1068.305	296.108	-1050.777	 H	3	PRO3	0.021	
41	 3HG	1067.995	297.641	-1051.635	 H	3	PRO3	0.021	
42	 2HD	1069.579	297.239	-1049.071	 H	3	PRO3	0.039	
43	 3HD	1068.393	298.525	-1049.465	 H	3	PRO3	0.039	
44	   N	1069.117	299.756	-1052.838	N.am	4	GLU4	-0.516	
45	  CA	1068.757	300.727	-1053.868	C.3	4	GLU4	0.040	
46	   C	1069.656	301.938	-1053.806	C.2	4	GLU4	0.537	
47	   O	1070.182	302.418	-1054.821	O.2	4	GLU4	-0.582	
48	  CB	1067.268	301.146	-1053.697	C.3	4	GLU4	0.056	
49	  CG	1066.720	302.149	-1054.763	C.3	4	GLU4	0.014	
50	  CD	1065.293	302.646	-1054.619	C.2	4	GLU4	0.805	
51	 OE1	1064.567	302.247	-1053.688	O.co2	4	GLU4	-0.819	
52	 OE2	1064.904	303.475	-1055.467	O.co2	4	GLU4	-0.819	
53	   H	1068.432	299.449	-1052.161	 H	4	GLU4	0.294	
54	  HA	1068.888	300.257	-1054.859	 H	4	GLU4	0.111	
55	 2HB	1067.116	301.586	-1052.690	 H	4	GLU4	-0.017	
56	 3HB	1066.620	300.248	-1053.703	 H	4	GLU4	-0.017	
57	 2HG	1066.801	301.735	-1055.780	 H	4	GLU4	-0.043	
58	 3HG	1067.308	303.082	-1054.774	 H	4	GLU4	-0.043	
59	   N	1069.883	302.491	-1052.663	N.am	5	SER5	-0.416	
60	  CA	1070.753	303.662	-1052.605	C.3	5	SER5	-0.025	
61	   C	1072.111	303.357	-1053.191	C.2	5	SER5	0.597	
62	   O	1072.658	304.111	-1053.995	O.2	5	SER5	-0.568	
63	  CB	1070.864	304.195	-1051.154	C.3	5	SER5	0.212	
64	  OG	1071.596	303.315	-1050.293	O.3	5	SER5	-0.655	
65	   H	1069.466	302.119	-1051.822	 H	5	SER5	0.272	
66	  HA	1070.303	304.453	-1053.234	 H	5	SER5	0.084	
67	 2HB	1069.865	304.388	-1050.721	 H	5	SER5	0.035	
68	 3HB	1071.370	305.180	-1051.156	 H	5	SER5	0.035	
69	  HG	1071.107	302.490	-1050.243	 H	5	SER5	0.428	
70	   N	1072.716	302.274	-1052.837	N.am	6	ILE6	-0.416	
71	  CA	1074.029	301.979	-1053.403	C.3	6	ILE6	-0.060	
72	   C	1073.972	301.942	-1054.911	C.2	6	ILE6	0.597	
73	   O	1074.807	302.530	-1055.615	O.2	6	ILE6	-0.568	
74	  CB	1074.629	300.643	-1052.803	C.3	6	ILE6	0.130	
75	 CG1	1074.649	300.581	-1051.242	C.3	6	ILE6	-0.043	
76	 CG2	1076.070	300.342	-1053.319	C.3	6	ILE6	-0.320	
77	 CD1	1074.919	299.191	-1050.628	C.3	6	ILE6	-0.066	
78	   H	1072.288	301.640	-1052.178	 H	6	ILE6	0.272	
79	  HA	1074.703	302.814	-1053.135	 H	6	ILE6	0.087	
80	  HB	1073.971	299.817	-1053.147	 H	6	ILE6	0.019	
81	2HG1	1073.667	300.900	-1050.846	 H	6	ILE6	0.024	
82	3HG1	1075.365	301.323	-1050.838	 H	6	ILE6	0.024	
83	1HG2	1076.129	300.248	-1054.417	 H	6	ILE6	0.088	
84	2HG2	1076.792	301.124	-1053.017	 H	6	ILE6	0.088	
85	3HG2	1076.461	299.379	-1052.940	 H	6	ILE6	0.088	
86	1HD1	1074.191	298.437	-1050.982	 H	6	ILE6	0.019	
87	2HD1	1075.929	298.813	-1050.863	 H	6	ILE6	0.019	
88	3HD1	1074.843	299.221	-1049.525	 H	6	ILE6	0.019	
89	   N	1073.026	301.278	-1055.485	N.am	7	ILE7	-0.416	
90	  CA	1072.971	301.242	-1056.943	C.3	7	ILE7	-0.060	
91	   C	1072.898	302.637	-1057.516	C.2	7	ILE7	0.597	
92	   O	1073.619	302.999	-1058.458	O.2	7	ILE7	-0.568	
93	  CB	1071.779	300.334	-1057.453	C.3	7	ILE7	0.130	
94	 CG1	1071.748	298.897	-1056.840	C.3	7	ILE7	-0.043	
95	 CG2	1071.742	300.199	-1059.007	C.3	7	ILE7	-0.320	
96	 CD1	1070.443	298.102	-1057.057	C.3	7	ILE7	-0.066	
97	   H	1072.334	300.791	-1054.933	 H	7	ILE7	0.272	
98	  HA	1073.920	300.804	-1057.303	 H	7	ILE7	0.087	
99	  HB	1070.840	300.836	-1057.138	 H	7	ILE7	0.019	
100	2HG1	1071.886	298.958	-1055.745	 H	7	ILE7	0.024	
101	3HG1	1072.616	298.309	-1057.196	 H	7	ILE7	0.024	
102	1HG2	1071.643	301.169	-1059.525	 H	7	ILE7	0.088	
103	2HG2	1072.650	299.706	-1059.404	 H	7	ILE7	0.088	
104	3HG2	1070.875	299.611	-1059.358	 H	7	ILE7	0.088	
105	1HD1	1069.561	298.648	-1056.671	 H	7	ILE7	0.019	
106	2HD1	1070.255	297.878	-1058.122	 H	7	ILE7	0.019	
107	3HD1	1070.477	297.129	-1056.531	 H	7	ILE7	0.019	
108	   N	1072.061	303.478	-1057.010	N.am	8	ASP8	-0.516	
109	  CA	1071.991	304.827	-1057.565	C.3	8	ASP8	0.038	
110	   C	1073.338	305.507	-1057.508	C.2	8	ASP8	0.537	
111	   O	1073.811	306.111	-1058.483	O.2	8	ASP8	-0.582	
112	  CB	1070.913	305.667	-1056.824	C.3	8	ASP8	-0.030	
113	  CG	1070.695	307.088	-1057.365	C.2	8	ASP8	0.799	
114	 OD1	1070.759	307.286	-1058.596	O.co2	8	ASP8	-0.801	
115	 OD2	1070.503	308.014	-1056.551	O.co2	8	ASP8	-0.801	
116	   H	1071.463	303.208	-1056.243	 H	8	ASP8	0.294	
117	  HA	1071.708	304.749	-1058.632	 H	8	ASP8	0.088	
118	 2HB	1071.171	305.751	-1055.752	 H	8	ASP8	-0.012	
119	 3HB	1069.934	305.162	-1056.856	 H	8	ASP8	-0.012	
120	   N	1074.017	305.458	-1056.413	N.am	9	GLU9	-0.516	
121	  CA	1075.320	306.115	-1056.357	C.3	9	GLU9	0.040	
122	   C	1076.238	305.586	-1057.433	C.2	9	GLU9	0.537	
123	   O	1076.903	306.340	-1058.158	O.2	9	GLU9	-0.582	
124	  CB	1075.953	305.908	-1054.952	C.3	9	GLU9	0.056	
125	  CG	1077.336	306.600	-1054.722	C.3	9	GLU9	0.014	
126	  CD	1078.038	306.388	-1053.394	C.2	9	GLU9	0.805	
127	 OE1	1077.516	305.697	-1052.497	O.co2	9	GLU9	-0.819	
128	 OE2	1079.157	306.925	-1053.262	O.co2	9	GLU9	-0.819	
129	   H	1073.654	304.972	-1055.605	 H	9	GLU9	0.294	
130	  HA	1075.178	307.197	-1056.533	 H	9	GLU9	0.111	
131	 2HB	1076.066	304.824	-1054.748	 H	9	GLU9	-0.017	
132	 3HB	1075.256	306.262	-1054.168	 H	9	GLU9	-0.017	
133	 2HG	1077.265	307.691	-1054.863	 H	9	GLU9	-0.043	
134	 3HG	1078.083	306.255	-1055.456	 H	9	GLU9	-0.043	
135	   N	1076.335	304.311	-1057.601	N.am	10	HIS10	-0.416	
136	  CA	1077.223	303.799	-1058.641	C.3	10	HIS10	-0.058	
137	   C	1076.856	304.363	-1059.993	C.2	10	HIS10	0.597	
138	   O	1077.709	304.827	-1060.765	O.2	10	HIS10	-0.568	
139	  CB	1077.058	302.270	-1058.636	C.3	10	HIS10	-0.007	
140	  CG	1078.344	301.560	-1058.327	C.2	10	HIS10	0.187	
141	 CD2	1078.724	301.225	-1057.035	C.2	10	HIS10	-0.221	
142	 ND1	1079.296	301.153	-1059.260	N.2	10	HIS10	-0.543	
143	 CE1	1080.202	300.595	-1058.436	C.2	10	HIS10	0.163	
144	 NE2	1079.939	300.593	-1057.101	N.pl3	10	HIS10	-0.280	
145	   H	1075.804	303.676	-1057.023	 H	10	HIS10	0.272	
146	  HA	1078.242	304.156	-1058.416	 H	10	HIS10	0.136	
147	 2HB	1076.693	301.903	-1059.616	 H	10	HIS10	0.037	
148	 3HB	1076.302	301.934	-1057.896	 H	10	HIS10	0.037	
149	 2HD	1078.138	301.440	-1056.146	 H	10	HIS10	0.186	
150	 1HE	1081.093	300.174	-1058.882	 H	10	HIS10	0.144	
151	 2HE	1080.505	300.216	-1056.327	 H	10	HIS10	0.334	
152	   N	1075.618	304.362	-1060.356	N.am	11	VAL11	-0.416	
153	  CA	1075.264	304.908	-1061.663	C.3	11	VAL11	-0.087	
154	   C	1075.728	306.338	-1061.796	C.2	11	VAL11	0.597	
155	   O	1076.329	306.743	-1062.799	O.2	11	VAL11	-0.568	
156	  CB	1073.702	304.801	-1061.883	C.3	11	VAL11	0.299	
157	 CG1	1073.134	305.505	-1063.146	C.3	11	VAL11	-0.319	
158	 CG2	1073.178	303.347	-1061.956	C.3	11	VAL11	-0.319	
159	   H	1074.905	303.990	-1059.745	 H	11	VAL11	0.272	
160	  HA	1075.783	304.325	-1062.445	 H	11	VAL11	0.097	
161	  HB	1073.215	305.282	-1061.008	 H	11	VAL11	-0.030	
162	1HG1	1073.573	305.113	-1064.083	 H	11	VAL11	0.079	
163	2HG1	1072.035	305.398	-1063.228	 H	11	VAL11	0.079	
164	3HG1	1073.312	306.597	-1063.137	 H	11	VAL11	0.079	
165	1HG2	1073.467	302.760	-1061.065	 H	11	VAL11	0.079	
166	2HG2	1072.072	303.310	-1061.999	 H	11	VAL11	0.079	
167	3HG2	1073.560	302.806	-1062.842	 H	11	VAL11	0.079	
168	   N	1075.491	307.164	-1060.834	N.am	12	GLN12	-0.416	
169	  CA	1075.940	308.547	-1060.961	C.3	12	GLN12	-0.003	
170	   C	1077.430	308.614	-1061.199	C.2	12	GLN12	0.597	
171	   O	1077.917	309.323	-1062.078	O.2	12	GLN12	-0.568	
172	  CB	1075.549	309.315	-1059.679	C.3	12	GLN12	-0.004	
173	  CG	1075.909	310.837	-1059.648	C.3	12	GLN12	-0.064	
174	  CD	1075.606	311.650	-1058.383	C.2	12	GLN12	0.695	
175	 NE2	1075.039	311.074	-1057.355	N.pl3	12	GLN12	-0.941	
176	 OE1	1075.908	312.831	-1058.306	O.2	12	GLN12	-0.609	
177	   H	1075.002	306.858	-1060.005	 H	12	GLN12	0.272	
178	  HA	1075.440	309.003	-1061.837	 H	12	GLN12	0.085	
179	 2HB	1076.024	308.815	-1058.809	 H	12	GLN12	0.017	
180	 3HB	1074.458	309.208	-1059.516	 H	12	GLN12	0.017	
181	 2HG	1075.432	311.357	-1060.499	 H	12	GLN12	0.035	
182	 3HG	1076.992	310.979	-1059.814	 H	12	GLN12	0.035	
183	1HE2	1074.932	311.669	-1056.531	 H	12	GLN12	0.425	
184	2HE2	1074.875	310.071	-1057.458	 H	12	GLN12	0.425	
185	   N	1078.214	307.908	-1060.458	N.am	13	ARG13	-0.348	
186	  CA	1079.654	307.974	-1060.689	C.3	13	ARG13	-0.264	
187	   C	1079.991	307.602	-1062.114	C.2	13	ARG13	0.734	
188	   O	1080.759	308.273	-1062.798	O.2	13	ARG13	-0.589	
189	  CB	1080.368	307.035	-1059.675	C.3	13	ARG13	-0.001	
190	  CG	1081.913	307.188	-1059.593	C.3	13	ARG13	0.039	
191	  CD	1082.539	306.200	-1058.595	C.3	13	ARG13	0.049	
192	  NE	1084.017	306.407	-1058.545	N.pl3	13	ARG13	-0.530	
193	  CZ	1084.865	305.716	-1057.790	C.cat	13	ARG13	0.808	
194	 NH1	1084.499	304.751	-1056.992	N.pl3	13	ARG13	-0.863	
195	 NH2	1086.124	306.015	-1057.847	N.pl3	13	ARG13	-0.863	
196	   H	1077.838	307.318	-1059.729	 H	13	ARG13	0.275	
197	  HA	1079.979	309.020	-1060.530	 H	13	ARG13	0.156	
198	 2HB	1080.101	305.984	-1059.914	 H	13	ARG13	0.033	
199	 3HB	1079.942	307.201	-1058.664	 H	13	ARG13	0.033	
200	 2HG	1082.161	308.232	-1059.314	 H	13	ARG13	0.029	
201	 3HG	1082.363	307.031	-1060.595	 H	13	ARG13	0.029	
202	 2HD	1082.295	305.160	-1058.904	 H	13	ARG13	0.069	
203	 3HD	1082.083	306.346	-1057.593	 H	13	ARG13	0.069	
204	  HE	1084.468	307.129	-1059.116	 H	13	ARG13	0.346	
205	1HH1	1083.494	304.565	-1056.995	 H	13	ARG13	0.448	
206	2HH1	1085.212	304.268	-1056.443	 H	13	ARG13	0.448	
207	1HH2	1086.392	306.772	-1058.478	 H	13	ARG13	0.448	
208	2HH2	1086.759	305.473	-1057.258	 H	13	ARG13	0.448	
209	   N	1079.455	306.547	-1062.628	N.am	14	VAL14	-0.416	
210	  CA	1079.780	306.187	-1064.005	C.3	14	VAL14	-0.087	
211	   C	1079.450	307.317	-1064.951	C.2	14	VAL14	0.597	
212	   O	1080.243	307.698	-1065.821	O.2	14	VAL14	-0.568	
213	  CB	1079.007	304.870	-1064.412	C.3	14	VAL14	0.299	
214	 CG1	1079.096	304.452	-1065.905	C.3	14	VAL14	-0.319	
215	 CG2	1079.439	303.618	-1063.611	C.3	14	VAL14	-0.319	
216	   H	1078.820	305.979	-1062.086	 H	14	VAL14	0.272	
217	  HA	1080.868	306.010	-1064.080	 H	14	VAL14	0.097	
218	  HB	1077.931	305.041	-1064.196	 H	14	VAL14	-0.030	
219	1HG1	1080.138	304.274	-1066.234	 H	14	VAL14	0.079	
220	2HG1	1078.524	303.528	-1066.118	 H	14	VAL14	0.079	
221	3HG1	1078.667	305.214	-1066.584	 H	14	VAL14	0.079	
222	1HG2	1079.352	303.777	-1062.521	 H	14	VAL14	0.079	
223	2HG2	1078.803	302.742	-1063.843	 H	14	VAL14	0.079	
224	3HG2	1080.487	303.328	-1063.817	 H	14	VAL14	0.079	
225	   N	1078.305	307.903	-1064.850	N.am	15	MET15	-0.416	
226	  CA	1077.985	308.996	-1065.764	C.3	15	MET15	-0.024	
227	   C	1079.015	310.095	-1065.676	C.2	15	MET15	0.597	
228	   O	1079.518	310.606	-1066.689	O.2	15	MET15	-0.568	
229	  CB	1076.563	309.541	-1065.455	C.3	15	MET15	0.034	
230	  CG	1075.401	308.543	-1065.647	C.3	15	MET15	0.002	
231	  SD	1073.827	309.409	-1065.533	S.3	15	MET15	-0.274	
232	  CE	1072.746	307.980	-1065.396	C.3	15	MET15	-0.054	
233	   H	1077.640	307.610	-1064.148	 H	15	MET15	0.272	
234	  HA	1078.011	308.608	-1066.799	 H	15	MET15	0.088	
235	 2HB	1076.361	310.420	-1066.098	 H	15	MET15	0.024	
236	 3HB	1076.528	309.934	-1064.419	 H	15	MET15	0.024	
237	 2HG	1075.444	307.758	-1064.869	 H	15	MET15	0.044	
238	 3HG	1075.464	308.028	-1066.623	 H	15	MET15	0.044	
239	 1HE	1072.890	307.291	-1066.249	 H	15	MET15	0.068	
240	 2HE	1072.955	307.427	-1064.464	 H	15	MET15	0.068	
241	 3HE	1071.688	308.295	-1065.380	 H	15	MET15	0.068	
242	   N	1079.383	310.517	-1064.514	N.am	16	ARG16	-0.348	
243	  CA	1080.380	311.581	-1064.430	C.3	16	ARG16	-0.264	
244	   C	1081.651	311.188	-1065.146	C.2	16	ARG16	0.734	
245	   O	1081.765	310.111	-1065.727	O.2	16	ARG16	-0.589	
246	  CB	1080.648	311.899	-1062.932	C.3	16	ARG16	-0.001	
247	  CG	1081.474	313.188	-1062.659	C.3	16	ARG16	0.039	
248	  CD	1081.723	313.408	-1061.158	C.3	16	ARG16	0.049	
249	  NE	1082.499	314.667	-1060.957	N.pl3	16	ARG16	-0.530	
250	  CZ	1082.890	315.150	-1059.782	C.cat	16	ARG16	0.808	
251	 NH1	1082.642	314.566	-1058.643	N.pl3	16	ARG16	-0.863	
252	 NH2	1083.554	316.262	-1059.763	N.pl3	16	ARG16	-0.863	
253	   H	1078.989	310.117	-1063.675	 H	16	ARG16	0.275	
254	  HA	1079.971	312.473	-1064.941	 H	16	ARG16	0.156	
255	 2HB	1081.145	311.023	-1062.465	 H	16	ARG16	0.033	
256	 3HB	1079.680	311.980	-1062.398	 H	16	ARG16	0.033	
257	 2HG	1080.943	314.059	-1063.097	 H	16	ARG16	0.029	
258	 3HG	1082.447	313.135	-1063.188	 H	16	ARG16	0.029	
259	 2HD	1082.271	312.534	-1060.744	 H	16	ARG16	0.069	
260	 3HD	1080.750	313.451	-1060.623	 H	16	ARG16	0.069	
261	  HE	1082.778	315.248	-1061.755	 H	16	ARG16	0.346	
262	1HH1	1082.116	313.693	-1058.727	 H	16	ARG16	0.448	
263	2HH1	1082.976	315.002	-1057.782	 H	16	ARG16	0.448	
264	1HH2	1083.740	316.705	-1060.665	 H	16	ARG16	0.448	
265	2HH2	1083.844	316.618	-1058.851	 H	16	ARG16	0.448	
@<TRIPOS>BOND
1 1 2 1
2 1 10 1
3 2 3 1
4 2 5 1
5 2 11 1
6 3 4 2
7 3 16 1
8 5 6 1
9 6 7 1
10 7 8 2
11 7 9 1
12 5 12 1
13 5 13 1
14 6 14 1
15 6 15 1
16 16 17 1
17 16 24 1
18 17 18 1
19 17 20 1
20 17 25 1
21 18 19 2
22 18 30 1
23 20 21 1
24 21 22 1
25 21 23 2
26 20 26 1
27 20 27 1
28 22 28 1
29 22 29 1
30 30 31 1
31 30 36 1
32 31 32 1
33 31 34 1
34 31 37 1
35 32 33 2
36 32 44 1
37 34 35 1
38 35 36 1
39 34 38 1
40 34 39 1
41 35 40 1
42 35 41 1
43 36 42 1
44 36 43 1
45 44 45 1
46 44 53 1
47 45 46 1
48 45 48 1
49 45 54 1
50 46 47 2
51 46 59 1
52 48 49 1
53 49 50 1
54 50 51 2
55 50 52 1
56 48 55 1
57 48 56 1
58 49 57 1
59 49 58 1
60 59 60 1
61 59 65 1
62 60 61 1
63 60 63 1
64 60 66 1
65 61 62 2
66 61 70 1
67 63 64 1
68 63 67 1
69 63 68 1
70 64 69 1
71 70 71 1
72 70 78 1
73 71 72 1
74 71 74 1
75 71 79 1
76 72 73 2
77 72 89 1
78 74 75 1
79 74 76 1
80 75 77 1
81 74 80 1
82 75 81 1
83 75 82 1
84 76 83 1
85 76 84 1
86 76 85 1
87 77 86 1
88 77 87 1
89 77 88 1
90 89 90 1
91 89 97 1
92 90 91 1
93 90 93 1
94 90 98 1
95 91 92 2
96 91 108 1
97 93 94 1
98 93 95 1
99 94 96 1
100 93 99 1
101 94 100 1
102 94 101 1
103 95 102 1
104 95 103 1
105 95 104 1
106 96 105 1
107 96 106 1
108 96 107 1
109 108 109 1
110 108 116 1
111 109 110 1
112 109 112 1
113 109 117 1
114 110 111 2
115 110 120 1
116 112 113 1
117 113 114 2
118 113 115 1
119 112 118 1
120 112 119 1
121 120 121 1
122 120 129 1
123 121 122 1
124 121 124 1
125 121 130 1
126 122 123 2
127 122 135 1
128 124 125 1
129 125 126 1
130 126 127 2
131 126 128 1
132 124 131 1
133 124 132 1
134 125 133 1
135 125 134 1
136 135 136 1
137 135 145 1
138 136 137 1
139 136 139 1
140 136 146 1
141 137 138 2
142 137 152 1
143 139 140 1
144 140 141 2
145 141 144 1
146 140 142 1
147 142 143 2
148 143 144 1
149 139 147 1
150 139 148 1
151 141 149 1
152 143 150 1
153 144 151 1
154 152 153 1
155 152 159 1
156 153 154 1
157 153 156 1
158 153 160 1
159 154 155 2
160 154 168 1
161 156 157 1
162 156 158 1
163 156 161 1
164 157 162 1
165 157 163 1
166 157 164 1
167 158 165 1
168 158 166 1
169 158 167 1
170 168 169 1
171 168 177 1
172 169 170 1
173 169 172 1
174 169 178 1
175 170 171 2
176 170 185 1
177 172 173 1
178 173 174 1
179 174 175 1
180 174 176 2
181 172 179 1
182 172 180 1
183 173 181 1
184 173 182 1
185 175 183 1
186 175 184 1
187 185 186 1
188 185 196 1
189 186 187 1
190 186 189 1
191 186 197 1
192 187 188 2
193 187 209 1
194 189 190 1
195 190 191 1
196 191 192 1
197 192 193 1
198 193 194 2
199 193 195 1
200 189 198 1
201 189 199 1
202 190 200 1
203 190 201 1
204 191 202 1
205 191 203 1
206 192 204 1
207 194 205 1
208 194 206 1
209 195 207 1
210 195 208 1
211 209 210 1
212 209 216 1
213 210 211 1
214 210 213 1
215 210 217 1
216 211 212 2
217 211 225 1
218 213 214 1
219 213 215 1
220 213 218 1
221 214 219 1
222 214 220 1
223 214 221 1
224 215 222 1
225 215 223 1
226 215 224 1
227 225 226 1
228 225 233 1
229 226 227 1
230 226 229 1
231 226 234 1
232 227 228 2
233 227 242 1
234 229 230 1
235 230 231 1
236 231 232 1
237 229 235 1
238 229 236 1
239 230 237 1
240 230 238 1
241 232 239 1
242 232 240 1
243 232 241 1
244 242 243 1
245 242 253 1
246 243 244 1
247 243 246 1
248 243 254 1
249 244 245 2
250 246 247 1
251 247 248 1
252 248 249 1
253 249 250 1
254 250 251 2
255 250 252 1
256 246 255 1
257 246 256 1
258 247 257 1
259 247 258 1
260 248 259 1
261 248 260 1
262 249 261 1
263 251 262 1
264 251 263 1
265 252 264 1
266 252 265 1
@<TRIPOS>SUBSTRUCTURE
1	GLU1	1	RESIDUE	1 ****	GLU
2	ASN2	16	RESIDUE	1 ****	ASN
3	PRO3	30	RESIDUE	1 ****	PRO
4	GLU4	44	RESIDUE	1 ****	GLU
5	SER5	59	RESIDUE	1 ****	SER
6	ILE6	70	RESIDUE	1 ****	ILE
7	ILE7	89	RESIDUE	1 ****	ILE
8	ASP8	108	RESIDUE	1 ****	ASP
9	GLU9	120	RESIDUE	1 ****	GLU
10	HIS10	135	RESIDUE	1 ****	HIS
11	VAL11	152	RESIDUE	1 ****	VAL
12	GLN12	168	RESIDUE	1 ****	GLN
13	ARG13	185	RESIDUE	1 ****	ARG
14	VAL14	209	RESIDUE	1 ****	VAL
15	MET15	225	RESIDUE	1 ****	MET
16	ARG16	242	RESIDUE	1 ****	ARG
