@<TRIPOS>MOLECULE
10-19
270 270 16              
SMALL
USER_CHARGES
@<TRIPOS>ATOM
1	   N	1664.763	496.559	-1697.717	N.3	1	GLU1	-0.516	
2	  CA	1665.322	497.908	-1697.717	C.3	1	GLU1	0.040	
3	   C	1666.831	497.868	-1697.717	C.2	1	GLU1	0.537	
4	   O	1667.507	498.567	-1698.486	O.2	1	GLU1	-0.582	
5	  CB	1664.799	498.693	-1696.480	C.3	1	GLU1	0.056	
6	  CG	1665.274	500.178	-1696.369	C.3	1	GLU1	0.014	
7	  CD	1664.850	500.982	-1695.154	C.2	1	GLU1	0.805	
8	 OE1	1664.122	500.480	-1694.276	O.co2	1	GLU1	-0.819	
9	 OE2	1665.280	502.152	-1695.082	O.co2	1	GLU1	-0.819	
10	   H	1665.390	495.680	-1697.717	 H	1	GLU1	0.294	
11	  HA	1664.996	498.426	-1698.637	 H	1	GLU1	0.111	
12	 2HB	1665.088	498.162	-1695.550	 H	1	GLU1	-0.017	
13	 3HB	1663.692	498.683	-1696.467	 H	1	GLU1	-0.017	
14	 2HG	1664.964	500.763	-1697.250	 H	1	GLU1	-0.043	
15	 3HG	1666.374	500.245	-1696.340	 H	1	GLU1	-0.043	
16	   N	1667.435	497.082	-1696.892	N.am	2	ASN2	-0.416	
17	  CA	1668.895	497.043	-1696.892	C.3	2	ASN2	0.014	
18	   C	1669.426	496.688	-1698.261	C.2	2	ASN2	0.597	
19	   O	1670.340	497.318	-1698.789	O.2	2	ASN2	-0.568	
20	  CB	1669.387	496.020	-1695.828	C.3	2	ASN2	-0.204	
21	  CG	1668.924	496.244	-1694.384	C.2	2	ASN2	0.713	
22	 ND2	1669.518	497.159	-1693.666	N.pl3	2	ASN2	-0.919	
23	 OD1	1668.003	495.610	-1693.890	O.2	2	ASN2	-0.593	
24	   H	1666.907	496.502	-1696.255	 H	2	ASN2	0.272	
25	  HA	1669.272	498.053	-1696.647	 H	2	ASN2	0.105	
26	 2HB	1670.491	495.961	-1695.831	 H	2	ASN2	0.080	
27	 3HB	1669.058	495.002	-1696.113	 H	2	ASN2	0.080	
28	1HD2	1669.037	497.332	-1692.780	 H	2	ASN2	0.420	
29	2HD2	1670.219	497.731	-1694.135	 H	2	ASN2	0.420	
30	   N	1668.904	495.693	-1698.895	N.am	3	PRO3	-0.255	
31	  CA	1669.356	495.283	-1700.216	C.3	3	PRO3	-0.027	
32	   C	1668.958	496.307	-1701.293	C.2	3	PRO3	0.590	
33	   O	1669.781	496.690	-1702.125	O.2	3	PRO3	-0.575	
34	  CB	1668.652	493.929	-1700.386	C.3	3	PRO3	-0.007	
35	  CG	1667.369	494.081	-1699.555	C.3	3	PRO3	0.019	
36	  CD	1667.826	494.900	-1698.346	C.3	3	PRO3	0.019	
37	  HA	1670.442	495.164	-1700.230	 H	3	PRO3	0.064	
38	 2HB	1669.275	493.148	-1699.945	 H	3	PRO3	0.025	
39	 3HB	1668.454	493.680	-1701.431	 H	3	PRO3	0.025	
40	 2HG	1666.941	493.119	-1699.264	 H	3	PRO3	0.021	
41	 3HG	1666.631	494.652	-1700.123	 H	3	PRO3	0.021	
42	 2HD	1668.216	494.250	-1697.558	 H	3	PRO3	0.039	
43	 3HD	1667.030	495.535	-1697.953	 H	3	PRO3	0.039	
44	   N	1667.753	496.767	-1701.325	N.am	4	GLU4	-0.516	
45	  CA	1667.393	497.738	-1702.355	C.3	4	GLU4	0.040	
46	   C	1668.292	498.949	-1702.294	C.2	4	GLU4	0.537	
47	   O	1668.818	499.429	-1703.308	O.2	4	GLU4	-0.582	
48	  CB	1665.905	498.157	-1702.184	C.3	4	GLU4	0.056	
49	  CG	1665.356	499.160	-1703.250	C.3	4	GLU4	0.014	
50	  CD	1663.930	499.657	-1703.106	C.2	4	GLU4	0.805	
51	 OE1	1663.204	499.258	-1702.175	O.co2	4	GLU4	-0.819	
52	 OE2	1663.540	500.486	-1703.954	O.co2	4	GLU4	-0.819	
53	   H	1667.069	496.460	-1700.649	 H	4	GLU4	0.294	
54	  HA	1667.524	497.268	-1703.346	 H	4	GLU4	0.111	
55	 2HB	1665.752	498.597	-1701.178	 H	4	GLU4	-0.017	
56	 3HB	1665.257	497.259	-1702.191	 H	4	GLU4	-0.017	
57	 2HG	1665.438	498.745	-1704.268	 H	4	GLU4	-0.043	
58	 3HG	1665.944	500.093	-1703.261	 H	4	GLU4	-0.043	
59	   N	1668.520	499.502	-1701.151	N.am	5	SER5	-0.416	
60	  CA	1669.389	500.673	-1701.092	C.3	5	SER5	-0.025	
61	   C	1670.748	500.368	-1701.678	C.2	5	SER5	0.597	
62	   O	1671.295	501.121	-1702.483	O.2	5	SER5	-0.568	
63	  CB	1669.501	501.205	-1699.642	C.3	5	SER5	0.212	
64	  OG	1670.233	500.326	-1698.781	O.3	5	SER5	-0.655	
65	   H	1668.103	499.130	-1700.309	 H	5	SER5	0.272	
66	  HA	1668.939	501.463	-1701.721	 H	5	SER5	0.084	
67	 2HB	1668.501	501.399	-1699.208	 H	5	SER5	0.035	
68	 3HB	1670.006	502.191	-1699.644	 H	5	SER5	0.035	
69	  HG	1669.744	499.501	-1698.730	 H	5	SER5	0.428	
70	   N	1671.353	499.285	-1701.324	N.am	6	ILE6	-0.416	
71	  CA	1672.666	498.990	-1701.891	C.3	6	ILE6	-0.060	
72	   C	1672.608	498.953	-1703.398	C.2	6	ILE6	0.597	
73	   O	1673.443	499.541	-1704.102	O.2	6	ILE6	-0.568	
74	  CB	1673.266	497.654	-1701.291	C.3	6	ILE6	0.130	
75	 CG1	1673.285	497.592	-1699.730	C.3	6	ILE6	-0.043	
76	 CG2	1674.707	497.353	-1701.806	C.3	6	ILE6	-0.320	
77	 CD1	1673.555	496.202	-1699.115	C.3	6	ILE6	-0.066	
78	   H	1670.924	498.650	-1700.665	 H	6	ILE6	0.272	
79	  HA	1673.340	499.825	-1701.623	 H	6	ILE6	0.087	
80	  HB	1672.608	496.828	-1701.635	 H	6	ILE6	0.019	
81	2HG1	1672.303	497.911	-1699.334	 H	6	ILE6	0.024	
82	3HG1	1674.001	498.334	-1699.325	 H	6	ILE6	0.024	
83	1HG2	1674.766	497.259	-1702.905	 H	6	ILE6	0.088	
84	2HG2	1675.429	498.135	-1701.504	 H	6	ILE6	0.088	
85	3HG2	1675.097	496.390	-1701.428	 H	6	ILE6	0.088	
86	1HD1	1672.827	495.448	-1699.470	 H	6	ILE6	0.019	
87	2HD1	1674.566	495.824	-1699.351	 H	6	ILE6	0.019	
88	3HD1	1673.479	496.232	-1698.012	 H	6	ILE6	0.019	
89	   N	1671.662	498.289	-1703.972	N.am	7	LEU7	-0.416	
90	  CA	1671.607	498.253	-1705.431	C.3	7	LEU7	-0.052	
91	   C	1671.535	499.649	-1706.003	C.2	7	LEU7	0.597	
92	   O	1672.255	500.012	-1706.945	O.2	7	LEU7	-0.568	
93	  CB	1670.404	497.393	-1705.911	C.3	7	LEU7	-0.110	
94	  CG	1670.332	495.914	-1705.445	C.3	7	LEU7	0.353	
95	 CD1	1669.142	495.208	-1706.110	C.3	7	LEU7	-0.412	
96	 CD2	1671.625	495.135	-1705.736	C.3	7	LEU7	-0.412	
97	   H	1670.971	497.802	-1703.421	 H	7	LEU7	0.272	
98	  HA	1672.549	497.814	-1705.805	 H	7	LEU7	0.092	
99	 2HB	1670.381	497.409	-1707.018	 H	7	LEU7	0.046	
100	 3HB	1669.465	497.896	-1705.606	 H	7	LEU7	0.046	
101	  HG	1670.162	495.906	-1704.348	 H	7	LEU7	-0.036	
102	1HD1	1668.185	495.717	-1705.887	 H	7	LEU7	0.100	
103	2HD1	1669.241	495.168	-1707.211	 H	7	LEU7	0.100	
104	3HD1	1669.035	494.167	-1705.754	 H	7	LEU7	0.100	
105	1HD2	1671.900	495.165	-1706.806	 H	7	LEU7	0.100	
106	2HD2	1672.479	495.546	-1705.165	 H	7	LEU7	0.100	
107	3HD2	1671.544	494.072	-1705.441	 H	7	LEU7	0.100	
108	   N	1670.698	500.489	-1705.496	N.am	8	ASP8	-0.516	
109	  CA	1670.627	501.839	-1706.049	C.3	8	ASP8	0.038	
110	   C	1671.974	502.519	-1705.992	C.2	8	ASP8	0.537	
111	   O	1672.446	503.124	-1706.966	O.2	8	ASP8	-0.582	
112	  CB	1669.549	502.678	-1705.307	C.3	8	ASP8	-0.030	
113	  CG	1669.330	504.099	-1705.847	C.2	8	ASP8	0.799	
114	 OD1	1669.394	504.298	-1707.078	O.co2	8	ASP8	-0.801	
115	 OD2	1669.138	505.024	-1705.031	O.co2	8	ASP8	-0.801	
116	   H	1670.100	500.218	-1704.729	 H	8	ASP8	0.294	
117	  HA	1670.344	501.761	-1707.116	 H	8	ASP8	0.088	
118	 2HB	1669.806	502.761	-1704.235	 H	8	ASP8	-0.012	
119	 3HB	1668.570	502.173	-1705.340	 H	8	ASP8	-0.012	
120	   N	1672.654	502.469	-1704.897	N.am	9	GLU9	-0.516	
121	  CA	1673.956	503.127	-1704.841	C.3	9	GLU9	0.040	
122	   C	1674.874	502.599	-1705.917	C.2	9	GLU9	0.537	
123	   O	1675.538	503.354	-1706.642	O.2	9	GLU9	-0.582	
124	  CB	1674.590	502.918	-1703.436	C.3	9	GLU9	0.056	
125	  CG	1675.972	503.611	-1703.206	C.3	9	GLU9	0.014	
126	  CD	1676.675	503.397	-1701.878	C.2	9	GLU9	0.805	
127	 OE1	1676.153	502.705	-1700.982	O.co2	9	GLU9	-0.819	
128	 OE2	1677.794	503.935	-1701.746	O.co2	9	GLU9	-0.819	
129	   H	1672.290	501.982	-1704.089	 H	9	GLU9	0.294	
130	  HA	1673.814	504.208	-1705.016	 H	9	GLU9	0.111	
131	 2HB	1674.703	501.834	-1703.233	 H	9	GLU9	-0.017	
132	 3HB	1673.893	503.271	-1702.651	 H	9	GLU9	-0.017	
133	 2HG	1675.901	504.702	-1703.346	 H	9	GLU9	-0.043	
134	 3HG	1676.719	503.266	-1703.941	 H	9	GLU9	-0.043	
135	   N	1674.971	501.324	-1706.088	N.am	10	LYS10	-0.348	
136	  CA	1675.859	500.814	-1707.128	C.3	10	LYS10	-0.240	
137	   C	1675.490	501.380	-1708.479	C.2	10	LYS10	0.734	
138	   O	1676.341	501.846	-1709.251	O.2	10	LYS10	-0.589	
139	  CB	1675.800	499.262	-1707.142	C.3	10	LYS10	-0.009	
140	  CG	1676.768	498.618	-1708.166	C.3	10	LYS10	0.019	
141	  CD	1676.691	497.091	-1708.253	C.3	10	LYS10	-0.048	
142	  CE	1677.644	496.598	-1709.350	C.3	10	LYS10	-0.014	
143	  NZ	1677.704	495.126	-1709.322	N.4	10	LYS10	-0.385	
144	   H	1674.440	500.689	-1705.509	 H	10	LYS10	0.275	
145	  HA	1676.890	501.143	-1706.900	 H	10	LYS10	0.143	
146	 2HB	1674.761	498.930	-1707.346	 H	10	LYS10	0.036	
147	 3HB	1676.030	498.871	-1706.131	 H	10	LYS10	0.036	
148	 2HG	1677.807	498.931	-1707.942	 H	10	LYS10	0.010	
149	 3HG	1676.558	498.999	-1709.182	 H	10	LYS10	0.010	
150	 2HD	1675.651	496.780	-1708.482	 H	10	LYS10	0.062	
151	 3HD	1676.939	496.646	-1707.270	 H	10	LYS10	0.062	
152	 2HE	1678.664	497.013	-1709.210	 H	10	LYS10	0.113	
153	 3HE	1677.307	496.954	-1710.346	 H	10	LYS10	0.113	
154	 1HZ	1676.782	494.731	-1709.101	 H	10	LYS10	0.340	
155	 2HZ	1677.965	494.746	-1710.238	 H	10	LYS10	0.340	
156	 3HZ	1678.390	494.882	-1708.622	 H	10	LYS10	0.340	
157	   N	1674.252	501.380	-1708.841	N.am	11	VAL11	-0.416	
158	  CA	1673.896	501.927	-1710.147	C.3	11	VAL11	-0.087	
159	   C	1674.360	503.358	-1710.278	C.2	11	VAL11	0.597	
160	   O	1674.960	503.764	-1711.281	O.2	11	VAL11	-0.568	
161	  CB	1672.334	501.820	-1710.365	C.3	11	VAL11	0.299	
162	 CG1	1671.765	502.526	-1711.627	C.3	11	VAL11	-0.319	
163	 CG2	1671.810	500.366	-1710.440	C.3	11	VAL11	-0.319	
164	   H	1673.540	501.006	-1708.231	 H	11	VAL11	0.272	
165	  HA	1674.415	501.346	-1710.931	 H	11	VAL11	0.097	
166	  HB	1671.848	502.299	-1709.489	 H	11	VAL11	-0.030	
167	1HG1	1672.203	502.135	-1712.565	 H	11	VAL11	0.079	
168	2HG1	1670.666	502.419	-1711.708	 H	11	VAL11	0.079	
169	3HG1	1671.943	503.618	-1711.616	 H	11	VAL11	0.079	
170	1HG2	1672.101	499.778	-1709.550	 H	11	VAL11	0.079	
171	2HG2	1670.704	500.329	-1710.482	 H	11	VAL11	0.079	
172	3HG2	1672.191	499.827	-1711.327	 H	11	VAL11	0.079	
173	   N	1674.124	504.182	-1709.315	N.am	12	GLN12	-0.416	
174	  CA	1674.572	505.566	-1709.441	C.3	12	GLN12	-0.003	
175	   C	1676.062	505.633	-1709.680	C.2	12	GLN12	0.597	
176	   O	1676.548	506.342	-1710.558	O.2	12	GLN12	-0.568	
177	  CB	1674.182	506.332	-1708.157	C.3	12	GLN12	-0.004	
178	  CG	1674.542	507.853	-1708.124	C.3	12	GLN12	-0.064	
179	  CD	1674.241	508.665	-1706.858	C.2	12	GLN12	0.695	
180	 NE2	1673.675	508.088	-1705.829	N.pl3	12	GLN12	-0.941	
181	 OE1	1674.543	509.846	-1706.780	O.2	12	GLN12	-0.609	
182	   H	1673.635	503.875	-1708.486	 H	12	GLN12	0.272	
183	  HA	1674.072	506.023	-1710.315	 H	12	GLN12	0.085	
184	 2HB	1674.659	505.830	-1707.288	 H	12	GLN12	0.017	
185	 3HB	1673.092	506.224	-1707.993	 H	12	GLN12	0.017	
186	 2HG	1674.064	508.375	-1708.974	 H	12	GLN12	0.035	
187	 3HG	1675.626	507.996	-1708.291	 H	12	GLN12	0.035	
188	1HE2	1673.568	508.681	-1705.005	 H	12	GLN12	0.425	
189	2HE2	1673.511	507.084	-1705.934	 H	12	GLN12	0.425	
190	   N	1676.847	504.926	-1708.940	N.am	13	ARG13	-0.348	
191	  CA	1678.287	504.992	-1709.172	C.3	13	ARG13	-0.264	
192	   C	1678.622	504.622	-1710.598	C.2	13	ARG13	0.734	
193	   O	1679.390	505.294	-1711.282	O.2	13	ARG13	-0.589	
194	  CB	1679.001	504.051	-1708.160	C.3	13	ARG13	-0.001	
195	  CG	1680.546	504.204	-1708.080	C.3	13	ARG13	0.039	
196	  CD	1681.174	503.216	-1707.083	C.3	13	ARG13	0.049	
197	  NE	1682.651	503.423	-1707.034	N.pl3	13	ARG13	-0.530	
198	  CZ	1683.500	502.730	-1706.280	C.cat	13	ARG13	0.808	
199	 NH1	1683.135	501.765	-1705.484	N.pl3	13	ARG13	-0.863	
200	 NH2	1684.759	503.029	-1706.338	N.pl3	13	ARG13	-0.863	
201	   H	1676.471	504.335	-1708.212	 H	13	ARG13	0.275	
202	  HA	1678.612	506.037	-1709.013	 H	13	ARG13	0.156	
203	 2HB	1678.734	503.001	-1708.400	 H	13	ARG13	0.033	
204	 3HB	1678.577	504.217	-1707.149	 H	13	ARG13	0.033	
205	 2HG	1680.794	505.249	-1707.799	 H	13	ARG13	0.029	
206	 3HG	1680.996	504.049	-1709.082	 H	13	ARG13	0.029	
207	 2HD	1680.929	502.176	-1707.394	 H	13	ARG13	0.069	
208	 3HD	1680.718	503.360	-1706.080	 H	13	ARG13	0.069	
209	  HE	1683.102	504.145	-1707.604	 H	13	ARG13	0.346	
210	1HH1	1682.130	501.579	-1705.486	 H	13	ARG13	0.448	
211	2HH1	1683.848	501.281	-1704.936	 H	13	ARG13	0.448	
212	1HH2	1685.026	503.788	-1706.968	 H	13	ARG13	0.448	
213	2HH2	1685.395	502.487	-1705.750	 H	13	ARG13	0.448	
214	   N	1678.085	503.568	-1711.113	N.am	14	VAL14	-0.416	
215	  CA	1678.409	503.210	-1712.491	C.3	14	VAL14	-0.087	
216	   C	1678.078	504.341	-1713.435	C.2	14	VAL14	0.597	
217	   O	1678.871	504.723	-1714.305	O.2	14	VAL14	-0.568	
218	  CB	1677.636	501.893	-1712.899	C.3	14	VAL14	0.299	
219	 CG1	1677.724	501.477	-1714.393	C.3	14	VAL14	-0.319	
220	 CG2	1678.069	500.640	-1712.100	C.3	14	VAL14	-0.319	
221	   H	1677.451	502.998	-1710.571	 H	14	VAL14	0.272	
222	  HA	1679.497	503.033	-1712.567	 H	14	VAL14	0.097	
223	  HB	1676.560	502.064	-1712.682	 H	14	VAL14	-0.030	
224	1HG1	1678.766	501.300	-1714.723	 H	14	VAL14	0.079	
225	2HG1	1677.151	500.554	-1714.606	 H	14	VAL14	0.079	
226	3HG1	1677.295	502.239	-1715.070	 H	14	VAL14	0.079	
227	1HG2	1677.983	500.797	-1711.009	 H	14	VAL14	0.079	
228	2HG2	1677.433	499.764	-1712.333	 H	14	VAL14	0.079	
229	3HG2	1679.116	500.350	-1712.307	 H	14	VAL14	0.079	
230	   N	1676.934	504.927	-1713.332	N.am	15	MET15	-0.416	
231	  CA	1676.613	506.021	-1714.244	C.3	15	MET15	-0.024	
232	   C	1677.644	507.120	-1714.156	C.2	15	MET15	0.597	
233	   O	1678.146	507.632	-1715.168	O.2	15	MET15	-0.568	
234	  CB	1675.192	506.567	-1713.933	C.3	15	MET15	0.034	
235	  CG	1674.030	505.569	-1714.125	C.3	15	MET15	0.002	
236	  SD	1672.456	506.436	-1714.009	S.3	15	MET15	-0.274	
237	  CE	1671.375	505.006	-1713.873	C.3	15	MET15	-0.054	
238	   H	1676.270	504.634	-1712.630	 H	15	MET15	0.272	
239	  HA	1676.638	505.635	-1715.280	 H	15	MET15	0.088	
240	 2HB	1674.990	507.446	-1714.574	 H	15	MET15	0.024	
241	 3HB	1675.158	506.958	-1712.897	 H	15	MET15	0.024	
242	 2HG	1674.073	504.782	-1713.349	 H	15	MET15	0.044	
243	 3HG	1674.092	505.055	-1715.102	 H	15	MET15	0.044	
244	 1HE	1671.517	504.319	-1714.727	 H	15	MET15	0.068	
245	 2HE	1671.584	504.452	-1712.941	 H	15	MET15	0.068	
246	 3HE	1670.317	505.322	-1713.856	 H	15	MET15	0.068	
247	   N	1678.014	507.540	-1712.993	N.am	16	ARG16	-0.348	
248	  CA	1679.010	508.603	-1712.909	C.3	16	ARG16	-0.264	
249	   C	1680.281	508.211	-1713.627	C.2	16	ARG16	0.734	
250	   O	1680.393	507.135	-1714.210	O.2	16	ARG16	-0.589	
251	  CB	1679.281	508.920	-1711.411	C.3	16	ARG16	-0.001	
252	  CG	1680.107	510.208	-1711.137	C.3	16	ARG16	0.039	
253	  CD	1680.358	510.425	-1709.636	C.3	16	ARG16	0.049	
254	  NE	1681.135	511.684	-1709.434	N.pl3	16	ARG16	-0.530	
255	  CZ	1681.527	512.165	-1708.258	C.cat	16	ARG16	0.808	
256	 NH1	1681.280	511.579	-1707.120	N.pl3	16	ARG16	-0.863	
257	 NH2	1682.191	513.277	-1708.239	N.pl3	16	ARG16	-0.863	
258	   H	1677.619	507.139	-1712.154	 H	16	ARG16	0.275	
259	  HA	1678.602	509.497	-1713.418	 H	16	ARG16	0.156	
260	 2HB	1679.778	508.043	-1710.946	 H	16	ARG16	0.033	
261	 3HB	1678.313	509.000	-1710.876	 H	16	ARG16	0.033	
262	 2HG	1679.576	511.079	-1711.573	 H	16	ARG16	0.029	
263	 3HG	1681.080	510.155	-1711.667	 H	16	ARG16	0.029	
264	 2HD	1680.906	509.550	-1709.224	 H	16	ARG16	0.069	
265	 3HD	1679.385	510.468	-1709.100	 H	16	ARG16	0.069	
266	  HE	1681.413	512.266	-1710.231	 H	16	ARG16	0.346	
267	1HH1	1680.754	510.706	-1707.205	 H	16	ARG16	0.448	
268	2HH1	1681.615	512.013	-1706.259	 H	16	ARG16	0.448	
269	1HH2	1682.376	513.721	-1709.141	 H	16	ARG16	0.448	
270	2HH2	1682.483	513.631	-1707.326	 H	16	ARG16	0.448	
@<TRIPOS>BOND
1 1 2 1
2 1 10 1
3 2 3 1
4 2 5 1
5 2 11 1
6 3 4 2
7 3 16 1
8 5 6 1
9 6 7 1
10 7 8 2
11 7 9 1
12 5 12 1
13 5 13 1
14 6 14 1
15 6 15 1
16 16 17 1
17 16 24 1
18 17 18 1
19 17 20 1
20 17 25 1
21 18 19 2
22 18 30 1
23 20 21 1
24 21 22 1
25 21 23 2
26 20 26 1
27 20 27 1
28 22 28 1
29 22 29 1
30 30 31 1
31 30 36 1
32 31 32 1
33 31 34 1
34 31 37 1
35 32 33 2
36 32 44 1
37 34 35 1
38 35 36 1
39 34 38 1
40 34 39 1
41 35 40 1
42 35 41 1
43 36 42 1
44 36 43 1
45 44 45 1
46 44 53 1
47 45 46 1
48 45 48 1
49 45 54 1
50 46 47 2
51 46 59 1
52 48 49 1
53 49 50 1
54 50 51 2
55 50 52 1
56 48 55 1
57 48 56 1
58 49 57 1
59 49 58 1
60 59 60 1
61 59 65 1
62 60 61 1
63 60 63 1
64 60 66 1
65 61 62 2
66 61 70 1
67 63 64 1
68 63 67 1
69 63 68 1
70 64 69 1
71 70 71 1
72 70 78 1
73 71 72 1
74 71 74 1
75 71 79 1
76 72 73 2
77 72 89 1
78 74 75 1
79 74 76 1
80 75 77 1
81 74 80 1
82 75 81 1
83 75 82 1
84 76 83 1
85 76 84 1
86 76 85 1
87 77 86 1
88 77 87 1
89 77 88 1
90 89 90 1
91 89 97 1
92 90 91 1
93 90 93 1
94 90 98 1
95 91 92 2
96 91 108 1
97 93 94 1
98 94 95 1
99 94 96 1
100 93 99 1
101 93 100 1
102 94 101 1
103 95 102 1
104 95 103 1
105 95 104 1
106 96 105 1
107 96 106 1
108 96 107 1
109 108 109 1
110 108 116 1
111 109 110 1
112 109 112 1
113 109 117 1
114 110 111 2
115 110 120 1
116 112 113 1
117 113 114 2
118 113 115 1
119 112 118 1
120 112 119 1
121 120 121 1
122 120 129 1
123 121 122 1
124 121 124 1
125 121 130 1
126 122 123 2
127 122 135 1
128 124 125 1
129 125 126 1
130 126 127 2
131 126 128 1
132 124 131 1
133 124 132 1
134 125 133 1
135 125 134 1
136 135 136 1
137 135 144 1
138 136 137 1
139 136 139 1
140 136 145 1
141 137 138 2
142 137 157 1
143 139 140 1
144 140 141 1
145 141 142 1
146 142 143 1
147 143 156 1
148 139 146 1
149 139 147 1
150 140 148 1
151 140 149 1
152 141 150 1
153 141 151 1
154 142 152 1
155 142 153 1
156 143 154 1
157 143 155 1
158 157 158 1
159 157 164 1
160 158 159 1
161 158 161 1
162 158 165 1
163 159 160 2
164 159 173 1
165 161 162 1
166 161 163 1
167 161 166 1
168 162 167 1
169 162 168 1
170 162 169 1
171 163 170 1
172 163 171 1
173 163 172 1
174 173 174 1
175 173 182 1
176 174 175 1
177 174 177 1
178 174 183 1
179 175 176 2
180 175 190 1
181 177 178 1
182 178 179 1
183 179 180 1
184 179 181 2
185 177 184 1
186 177 185 1
187 178 186 1
188 178 187 1
189 180 188 1
190 180 189 1
191 190 191 1
192 190 201 1
193 191 192 1
194 191 194 1
195 191 202 1
196 192 193 2
197 192 214 1
198 194 195 1
199 195 196 1
200 196 197 1
201 197 198 1
202 198 199 2
203 198 200 1
204 194 203 1
205 194 204 1
206 195 205 1
207 195 206 1
208 196 207 1
209 196 208 1
210 197 209 1
211 199 210 1
212 199 211 1
213 200 212 1
214 200 213 1
215 214 215 1
216 214 221 1
217 215 216 1
218 215 218 1
219 215 222 1
220 216 217 2
221 216 230 1
222 218 219 1
223 218 220 1
224 218 223 1
225 219 224 1
226 219 225 1
227 219 226 1
228 220 227 1
229 220 228 1
230 220 229 1
231 230 231 1
232 230 238 1
233 231 232 1
234 231 234 1
235 231 239 1
236 232 233 2
237 232 247 1
238 234 235 1
239 235 236 1
240 236 237 1
241 234 240 1
242 234 241 1
243 235 242 1
244 235 243 1
245 237 244 1
246 237 245 1
247 237 246 1
248 247 248 1
249 247 258 1
250 248 249 1
251 248 251 1
252 248 259 1
253 249 250 2
254 251 252 1
255 252 253 1
256 253 254 1
257 254 255 1
258 255 256 2
259 255 257 1
260 251 260 1
261 251 261 1
262 252 262 1
263 252 263 1
264 253 264 1
265 253 265 1
266 254 266 1
267 256 267 1
268 256 268 1
269 257 269 1
270 257 270 1
@<TRIPOS>SUBSTRUCTURE
1	GLU1	1	RESIDUE	1 ****	GLU
2	ASN2	16	RESIDUE	1 ****	ASN
3	PRO3	30	RESIDUE	1 ****	PRO
4	GLU4	44	RESIDUE	1 ****	GLU
5	SER5	59	RESIDUE	1 ****	SER
6	ILE6	70	RESIDUE	1 ****	ILE
7	LEU7	89	RESIDUE	1 ****	LEU
8	ASP8	108	RESIDUE	1 ****	ASP
9	GLU9	120	RESIDUE	1 ****	GLU
10	LYS10	135	RESIDUE	1 ****	LYS
11	VAL11	157	RESIDUE	1 ****	VAL
12	GLN12	173	RESIDUE	1 ****	GLN
13	ARG13	190	RESIDUE	1 ****	ARG
14	VAL14	214	RESIDUE	1 ****	VAL
15	MET15	230	RESIDUE	1 ****	MET
16	ARG16	247	RESIDUE	1 ****	ARG
