REMARK WARNING: 32 MAX_TORS EXCEEDED!!!
REMARK  67 active torsions:
REMARK  status: ('A' for Active; 'I' for Inactive)
REMARK    1  A    between atoms: N_1  and  CA_2 
REMARK    2  A    between atoms: CA_2  and  C_3 
REMARK    3  A    between atoms: CA_2  and  CB_5 
REMARK       I    between atoms: C_3  and  N_11 
REMARK    4  A    between atoms: CB_5  and  CG_6 
REMARK    5  A    between atoms: CG_6  and  CD_7 
REMARK    6  A    between atoms: N_11  and  CA_12 
REMARK    7  A    between atoms: CA_12  and  C_13 
REMARK    8  A    between atoms: CA_12  and  CB_15 
REMARK       I    between atoms: C_13  and  N_22 
REMARK    9  A    between atoms: CB_15  and  CG_16 
REMARK       I    between atoms: CG_16  and  ND2_17 
REMARK   10  A    between atoms: CA_23  and  C_24 
REMARK       I    between atoms: C_24  and  N_29 
REMARK   11  A    between atoms: N_29  and  CA_30 
REMARK   12  A    between atoms: CA_30  and  C_31 
REMARK   13  A    between atoms: CA_30  and  CB_33 
REMARK       I    between atoms: C_31  and  N_39 
REMARK   14  A    between atoms: CB_33  and  CG_34 
REMARK   15  A    between atoms: CG_34  and  CD_35 
REMARK   16  A    between atoms: N_39  and  CA_40 
REMARK   17  A    between atoms: CA_40  and  C_41 
REMARK   18  A    between atoms: CA_40  and  CB_43 
REMARK       I    between atoms: C_41  and  N_47 
REMARK   19  A    between atoms: CB_43  and  OG_44 
REMARK   20  A    between atoms: N_47  and  CA_48 
REMARK   21  A    between atoms: CA_48  and  C_49 
REMARK   22  A    between atoms: CA_48  and  CB_51 
REMARK       I    between atoms: C_49  and  N_56 
REMARK   23  A    between atoms: CB_51  and  CG1_52 
REMARK   24  A    between atoms: N_56  and  CA_57 
REMARK   25  A    between atoms: CA_57  and  C_58 
REMARK   26  A    between atoms: CA_57  and  CB_60 
REMARK       I    between atoms: C_58  and  N_65 
REMARK   27  A    between atoms: CB_60  and  CG_61 
REMARK   28  A    between atoms: N_65  and  CA_66 
REMARK   29  A    between atoms: CA_66  and  C_67 
REMARK   30  A    between atoms: CA_66  and  CB_69 
REMARK       I    between atoms: C_67  and  N_74 
REMARK   31  A    between atoms: CB_69  and  CG_70 
REMARK   32  A    between atoms: N_74  and  CA_75 
REMARK   33  A    between atoms: CA_75  and  C_76 
REMARK   34  A    between atoms: CA_75  and  CB_78 
REMARK       I    between atoms: C_76  and  N_84 
REMARK   35  A    between atoms: CB_78  and  CG_79 
REMARK   36  A    between atoms: CG_79  and  CD_80 
REMARK   37  A    between atoms: N_84  and  CA_85 
REMARK   38  A    between atoms: CA_85  and  C_86 
REMARK   39  A    between atoms: CA_85  and  CB_88 
REMARK       I    between atoms: C_86  and  N_96 
REMARK   40  A    between atoms: CB_88  and  CG_89 
REMARK   41  A    between atoms: N_96  and  CA_97 
REMARK   42  A    between atoms: CA_97  and  C_98 
REMARK   43  A    between atoms: CA_97  and  CB_100 
REMARK       I    between atoms: C_98  and  N_104 
REMARK   44  A    between atoms: N_104  and  CA_105 
REMARK   45  A    between atoms: CA_105  and  C_106 
REMARK   46  A    between atoms: CA_105  and  CB_108 
REMARK       I    between atoms: C_106  and  N_116 
REMARK   47  A    between atoms: CB_108  and  CG_109 
REMARK   48  A    between atoms: CG_109  and  CD_110 
REMARK       I    between atoms: CD_110  and  NE2_111 
REMARK   49  A    between atoms: N_116  and  CA_117 
REMARK   50  A    between atoms: CA_117  and  C_118 
REMARK   51  A    between atoms: CA_117  and  CB_120 
REMARK       I    between atoms: C_118  and  N_133 
REMARK   52  A    between atoms: CB_120  and  CG_121 
REMARK   53  A    between atoms: CG_121  and  CD_122 
REMARK   54  A    between atoms: CD_122  and  NE_123 
REMARK       I    between atoms: NE_123  and  CZ_124 
REMARK       I    between atoms: CZ_124  and  NH1_125 
REMARK       I    between atoms: CZ_124  and  NH2_126 
REMARK   55  A    between atoms: N_133  and  CA_134 
REMARK   56  A    between atoms: CA_134  and  C_135 
REMARK   57  A    between atoms: CA_134  and  CB_137 
REMARK       I    between atoms: C_135  and  N_141 
REMARK   58  A    between atoms: N_141  and  CA_142 
REMARK   59  A    between atoms: CA_142  and  C_143 
REMARK   60  A    between atoms: CA_142  and  CB_145 
REMARK       I    between atoms: C_143  and  N_150 
REMARK   61  A    between atoms: CB_145  and  CG_146 
REMARK   62  A    between atoms: N_150  and  CA_151 
REMARK   63  A    between atoms: CA_151  and  C_152 
REMARK   64  A    between atoms: CA_151  and  CB_154 
REMARK   65  A    between atoms: CB_154  and  CG_155 
REMARK   66  A    between atoms: CG_155  and  CD_156 
REMARK   67  A    between atoms: CD_156  and  NE_157 
REMARK       I    between atoms: NE_157  and  CZ_158 
REMARK       I    between atoms: CZ_158  and  NH1_159 
ROOT
ATOM      1  C   GLU d   9    2475.579 762.390-2576.965  0.00  0.00     0.241 C 
ATOM      2  O   GLU d   9    2476.243 763.143-2577.691  0.00  0.00    -0.271 OA
ATOM      3  N   HIS d  10    2475.675 761.114-2577.134  0.00  0.00    -0.346 N 
ATOM      4  H   HIS d  10    2475.145 760.480-2576.555  0.00  0.00     0.163 HD
ENDROOT
BRANCH   1   5
ATOM      5  CA  GLU d   9    2474.662 762.918-2575.889  0.00  0.00     0.177 C 
BRANCH   5   6
ATOM      6  N   GLU d   9    2473.359 762.261-2575.944  0.00  0.00    -0.346 N 
ATOM      7  C   ASP d   8    2472.679 762.311-2577.039  0.00  0.00     0.241 C 
ATOM      8  O   ASP d   8    2473.152 762.915-2578.014  0.00  0.00    -0.271 OA
ATOM      9  H   GLU d   9    2472.995 761.776-2575.136  0.00  0.00     0.163 HD
BRANCH   7  10
ATOM     10  CA  ASP d   8    2471.332 761.632-2577.096  0.00  0.00     0.186 C 
BRANCH  10  11
ATOM     11  N   ASP d   8    2471.401 760.283-2576.542  0.00  0.00    -0.346 N 
ATOM     12  C   LEU d   7    2472.238 759.441-2577.048  0.00  0.00     0.241 C 
ATOM     13  O   LEU d   7    2472.959 759.803-2577.990  0.00  0.00    -0.271 OA
ATOM     14  H   ASP d   8    2470.803 760.012-2575.774  0.00  0.00     0.163 HD
BRANCH  12  15
ATOM     15  CA  LEU d   7    2472.310 758.046-2576.475  0.00  0.00     0.177 C 
BRANCH  15  16
ATOM     16  N   LEU d   7    2472.365 758.082-2575.016  0.00  0.00    -0.346 N 
ATOM     17  C   ILE d   6    2473.311 758.746-2574.443  0.00  0.00     0.241 C 
ATOM     18  O   ILE d   6    2474.146 759.333-2575.146  0.00  0.00    -0.271 OA
ATOM     19  H   LEU d   7    2471.673 757.595-2574.465  0.00  0.00     0.163 HD
BRANCH  17  20
ATOM     20  CA  ILE d   6    2473.368 758.783-2572.935  0.00  0.00     0.180 C 
BRANCH  20  21
ATOM     21  N   ILE d   6    2472.055 759.079-2572.369  0.00  0.00    -0.346 N 
ATOM     22  C   SER d   5    2471.451 760.162-2572.723  0.00  0.00     0.243 C 
ATOM     23  O   SER d   5    2471.999 760.915-2573.528  0.00  0.00    -0.271 OA
ATOM     24  H   ILE d   6    2471.626 758.444-2571.710  0.00  0.00     0.163 HD
BRANCH  22  25
ATOM     25  CA  SER d   5    2470.092 760.468-2572.138  0.00  0.00     0.200 C 
BRANCH  25  26
ATOM     26  N   SER d   5    2469.222 759.297-2572.197  0.00  0.00    -0.344 N 
ATOM     27  C   GLU d   4    2468.995 758.744-2573.340  0.00  0.00     0.241 C 
ATOM     28  O   GLU d   4    2469.522 759.224-2574.354  0.00  0.00    -0.271 OA
ATOM     29  H   SER d   5    2468.805 758.925-2571.355  0.00  0.00     0.163 HD
BRANCH  27  30
ATOM     30  CA  GLU d   4    2468.096 757.534-2573.402  0.00  0.00     0.177 C 
BRANCH  30  31
ATOM     31  N   GLU d   4    2468.455 756.562-2572.372  0.00  0.00    -0.346 N 
ATOM     32  C   PRO d   3    2469.660 756.102-2572.339  0.00  0.00     0.241 C 
ATOM     33  O   PRO d   3    2470.483 756.485-2573.170  0.00  0.00    -0.271 OA
ATOM     34  H   GLU d   4    2467.771 756.256-2571.695  0.00  0.00     0.163 HD
BRANCH  32  35
ATOM     35  CA  PRO d   3    2470.058 755.079-2571.262  0.00  0.00     0.179 C 
ATOM     36  N   PRO d   3    2469.605 755.488-2569.941  0.00  0.00    -0.337 N 
ATOM     37  C   ASN d   2    2470.127 756.483-2569.306  0.00  0.00     0.243 C 
ATOM     38  CD  PRO d   3    2468.527 754.695-2569.392  0.00  0.00     0.127 C 
ATOM     39  O   ASN d   2    2471.042 757.113-2569.834  0.00  0.00    -0.271 OA
ATOM     40  CG  PRO d   3    2468.070 753.876-2570.602  0.00  0.00     0.022 C 
ATOM     41  CB  PRO d   3    2469.353 753.724-2571.432  0.00  0.00     0.037 C 
BRANCH  37  42
ATOM     42  CA  ASN d   2    2469.595 756.838-2567.938  0.00  0.00     0.185 C 
BRANCH  42  43
ATOM     43  N   ASN d   2    2468.136 756.877-2567.938  0.00  0.00    -0.346 N 
ATOM     44  C   GLU d   1    2467.532 757.663-2568.763  0.00  0.00     0.242 C 
ATOM     45  O   GLU d   1    2468.208 758.362-2569.532  0.00  0.00    -0.271 OA
ATOM     46  H   ASN d   2    2467.608 756.298-2567.302  0.00  0.00     0.163 HD
BRANCH  44  47
ATOM     47  CA  GLU d   1    2466.023 757.703-2568.763  0.00  0.00     0.191 C 
BRANCH  47  48
ATOM     48  N   GLU d   1    2465.464 756.354-2568.763  0.00  0.00    -0.326 NA
ATOM     49  H   GLU d   1    2466.091 755.475-2568.763  0.00  0.00     0.180 HD
ENDBRANCH  47  48
BRANCH  47  50
ATOM     50  CB  GLU d   1    2465.500 758.488-2567.526  0.00  0.00     0.047 C 
BRANCH  50  51
ATOM     51  CG  GLU d   1    2465.975 759.973-2567.415  0.00  0.00     0.116 C 
BRANCH  51  52
ATOM     52  CD  GLU d   1    2465.551 760.777-2566.200  0.00  0.00     0.172 C 
ATOM     53  OE1 GLU d   1    2464.823 760.275-2565.322  0.00  0.00    -0.648 OA
ATOM     54  OE2 GLU d   1    2465.981 761.947-2566.128  0.00  0.00    -0.648 OA
ENDBRANCH  51  52
ENDBRANCH  50  51
ENDBRANCH  47  50
ENDBRANCH  44  47
ENDBRANCH  42  43
BRANCH  42  55
ATOM     55  CB  ASN d   2    2470.087 755.815-2566.873  0.00  0.00     0.137 C 
BRANCH  55  56
ATOM     56  CG  ASN d   2    2469.624 756.039-2565.430  0.00  0.00     0.217 C 
ATOM     57  ND2 ASN d   2    2470.218 756.954-2564.712  0.00  0.00    -0.370 N 
ATOM     58 21HD ASN d   2    2469.737 757.127-2563.825  0.00  0.00     0.159 HD
ATOM     59 22HD ASN d   2    2470.920 757.526-2565.181  0.00  0.00     0.159 HD
ATOM     60  OD1 ASN d   2    2468.703 755.406-2564.936  0.00  0.00    -0.274 OA
ENDBRANCH  55  56
ENDBRANCH  42  55
ENDBRANCH  37  42
ENDBRANCH  32  35
ENDBRANCH  30  31
BRANCH  30  61
ATOM     61  CB  GLU d   4    2466.607 757.953-2573.232  0.00  0.00     0.045 C 
BRANCH  61  62
ATOM     62  CG  GLU d   4    2466.060 758.956-2574.298  0.00  0.00     0.116 C 
BRANCH  62  63
ATOM     63  CD  GLU d   4    2464.634 759.453-2574.155  0.00  0.00     0.172 C 
ATOM     64  OE1 GLU d   4    2463.907 759.055-2573.224  0.00  0.00    -0.648 OA
ATOM     65  OE2 GLU d   4    2464.245 760.283-2575.003  0.00  0.00    -0.648 OA
ENDBRANCH  62  63
ENDBRANCH  61  62
ENDBRANCH  30  61
ENDBRANCH  27  30
ENDBRANCH  25  26
BRANCH  25  66
ATOM     66  CB  SER d   5    2470.203 761.000-2570.688  0.00  0.00     0.199 C 
BRANCH  66  67
ATOM     67  OG  SER d   5    2470.934 760.120-2569.826  0.00  0.00    -0.398 OA
ATOM     68  HG  SER d   5    2470.445 759.296-2569.776  0.00  0.00     0.209 HD
ENDBRANCH  66  67
ENDBRANCH  25  66
ENDBRANCH  22  25
ENDBRANCH  20  21
BRANCH  20  69
ATOM     69  CB  ILE d   6    2473.968 757.447-2572.334  0.00  0.00     0.013 C 
ATOM     70  CG2 ILE d   6    2475.409 757.144-2572.850  0.00  0.00     0.012 C 
BRANCH  69  71
ATOM     71  CG1 ILE d   6    2473.986 757.384-2570.774  0.00  0.00     0.002 C 
ATOM     72  CD1 ILE d   6    2474.256 755.995-2570.158  0.00  0.00     0.005 C 
ENDBRANCH  69  71
ENDBRANCH  20  69
ENDBRANCH  17  20
ENDBRANCH  15  16
BRANCH  15  73
ATOM     73  CB  LEU d   7    2471.107 757.186-2576.955  0.00  0.00     0.038 C 
BRANCH  73  74
ATOM     74  CG  LEU d   7    2471.034 755.707-2576.489  0.00  0.00    -0.020 C 
ATOM     75  CD1 LEU d   7    2469.844 755.001-2577.154  0.00  0.00     0.009 C 
ATOM     76  CD2 LEU d   7    2472.327 754.927-2576.780  0.00  0.00     0.009 C 
ENDBRANCH  73  74
ENDBRANCH  15  73
ENDBRANCH  12  15
ENDBRANCH  10  11
BRANCH  10  77
ATOM     77  CB  ASP d   8    2470.254 762.472-2576.355  0.00  0.00     0.147 C 
BRANCH  77  78
ATOM     78  CG  ASP d   8    2470.036 763.892-2576.896  0.00  0.00     0.175 C 
ATOM     79  OD1 ASP d   8    2470.100 764.091-2578.127  0.00  0.00    -0.648 OA
ATOM     80  OD2 ASP d   8    2469.844 764.819-2576.081  0.00  0.00    -0.648 OA
ENDBRANCH  77  78
ENDBRANCH  10  77
ENDBRANCH   7  10
ENDBRANCH   5   6
BRANCH   5  81
ATOM     81  CB  GLU d   9    2475.295 762.711-2574.484  0.00  0.00     0.045 C 
BRANCH  81  82
ATOM     82  CG  GLU d   9    2476.678 763.403-2574.255  0.00  0.00     0.116 C 
BRANCH  82  83
ATOM     83  CD  GLU d   9    2477.380 763.190-2572.927  0.00  0.00     0.172 C 
ATOM     84  OE1 GLU d   9    2476.859 762.500-2572.030  0.00  0.00    -0.648 OA
ATOM     85  OE2 GLU d   9    2478.500 763.727-2572.796  0.00  0.00    -0.648 OA
ENDBRANCH  82  83
ENDBRANCH  81  82
ENDBRANCH   5  81
ENDBRANCH   1   5
BRANCH   3  86
ATOM     86  CA  HIS d  10    2476.562 760.602-2578.174  0.00  0.00     0.182 C 
BRANCH  86  87
ATOM     87  C   HIS d  10    2476.196 761.166-2579.526  0.00  0.00     0.241 C 
ATOM     88  O   HIS d  10    2477.048 761.630-2580.298  0.00  0.00    -0.271 OA
ATOM     89  N   VAL d  11    2474.958 761.166-2579.888  0.00  0.00    -0.346 N 
ATOM     90  H   VAL d  11    2474.245 760.794-2579.278  0.00  0.00     0.163 HD
BRANCH  89  91
ATOM     91  CA  VAL d  11    2474.603 761.711-2581.196  0.00  0.00     0.180 C 
BRANCH  91  92
ATOM     92  C   VAL d  11    2475.068 763.142-2581.329  0.00  0.00     0.241 C 
ATOM     93  O   VAL d  11    2475.669 763.546-2582.332  0.00  0.00    -0.271 OA
ATOM     94  N   GLN d  12    2474.832 763.968-2580.367  0.00  0.00    -0.346 N 
ATOM     95  H   GLN d  12    2474.343 763.662-2579.537  0.00  0.00     0.163 HD
BRANCH  94  96
ATOM     96  CA  GLN d  12    2475.281 765.351-2580.495  0.00  0.00     0.177 C 
BRANCH  96  97
ATOM     97  C   GLN d  12    2476.771 765.417-2580.733  0.00  0.00     0.241 C 
ATOM     98  O   GLN d  12    2477.258 766.125-2581.612  0.00  0.00    -0.271 OA
ATOM     99  N   ARG d  13    2477.555 764.710-2579.992  0.00  0.00    -0.346 N 
ATOM    100  H   ARG d  13    2477.179 764.121-2579.263  0.00  0.00     0.163 HD
BRANCH  99 101
ATOM    101  CA  ARG d  13    2478.995 764.775-2580.223  0.00  0.00     0.176 C 
BRANCH 101 102
ATOM    102  C   ARG d  13    2479.331 764.403-2581.648  0.00  0.00     0.241 C 
ATOM    103  O   ARG d  13    2480.100 765.074-2582.333  0.00  0.00    -0.271 OA
ATOM    104  N   VAL d  14    2478.794 763.348-2582.161  0.00  0.00    -0.346 N 
ATOM    105  H   VAL d  14    2478.159 762.780-2581.619  0.00  0.00     0.163 HD
BRANCH 104 106
ATOM    106  CA  VAL d  14    2479.119 762.988-2583.539  0.00  0.00     0.180 C 
BRANCH 106 107
ATOM    107  C   VAL d  14    2478.789 764.118-2584.485  0.00  0.00     0.241 C 
ATOM    108  O   VAL d  14    2479.582 764.499-2585.354  0.00  0.00    -0.271 OA
ATOM    109  N   ASP d  15    2477.645 764.704-2584.383  0.00  0.00    -0.345 N 
ATOM    110  H   ASP d  15    2476.979 764.412-2583.681  0.00  0.00     0.163 HD
BRANCH 109 111
ATOM    111  CA  ASP d  15    2477.325 765.796-2585.297  0.00  0.00     0.186 C 
BRANCH 111 112
ATOM    112  C   ASP d  15    2478.355 766.896-2585.210  0.00  0.00     0.241 C 
ATOM    113  O   ASP d  15    2478.859 767.406-2586.223  0.00  0.00    -0.271 OA
ATOM    114  N   ARG d  16    2478.724 767.317-2584.048  0.00  0.00    -0.347 N 
ATOM    115  H   ARG d  16    2478.329 766.917-2583.208  0.00  0.00     0.163 HD
BRANCH 114 116
ATOM    116  CA  ARG d  16    2479.721 768.380-2583.964  0.00  0.00     0.162 C 
BRANCH 116 117
ATOM    117  C   ARG d  16    2480.992 767.986-2584.680  0.00  0.00     0.219 C 
ATOM    118  O   ARG d  16    2481.105 766.910-2585.261  0.00  0.00    -0.287 OA
ENDBRANCH 116 117
BRANCH 116 119
ATOM    119  CB  ARG d  16    2479.990 768.698-2582.466  0.00  0.00     0.035 C 
BRANCH 119 120
ATOM    120  CG  ARG d  16    2480.816 769.987-2582.193  0.00  0.00     0.023 C 
BRANCH 120 121
ATOM    121  CD  ARG d  16    2481.066 770.206-2580.692  0.00  0.00     0.138 C 
BRANCH 121 122
ATOM    122  NE  ARG d  16    2481.843 771.465-2580.491  0.00  0.00    -0.227 N 
ATOM    123  CZ  ARG d  16    2482.234 771.947-2579.316  0.00  0.00     0.665 C 
ATOM    124  NH1 ARG d  16    2481.985 771.363-2578.177  0.00  0.00    -0.235 N 
ATOM    125  NH2 ARG d  16    2482.898 773.060-2579.297  0.00  0.00    -0.235 N 
ATOM    126 11HH ARG d  16    2481.459 770.491-2578.261  0.00  0.00     0.174 HD
ATOM    127 12HH ARG d  16    2482.320 771.799-2577.316  0.00  0.00     0.174 HD
ATOM    128 21HH ARG d  16    2483.084 773.502-2580.199  0.00  0.00     0.174 HD
ATOM    129 22HH ARG d  16    2483.189 773.415-2578.385  0.00  0.00     0.174 HD
ATOM    130  HE  ARG d  16    2482.122 772.045-2581.288  0.00  0.00     0.177 HD
ENDBRANCH 121 122
ENDBRANCH 120 121
ENDBRANCH 119 120
ENDBRANCH 116 119
ENDBRANCH 114 116
ENDBRANCH 111 112
BRANCH 111 131
ATOM    131  CB  ASP d  15    2475.899 766.347-2585.013  0.00  0.00     0.147 C 
BRANCH 131 132
ATOM    132  CG  ASP d  15    2475.418 767.456-2585.960  0.00  0.00     0.175 C 
ATOM    133  OD1 ASP d  15    2475.727 767.401-2587.168  0.00  0.00    -0.648 OA
ATOM    134  OD2 ASP d  15    2474.767 768.409-2585.483  0.00  0.00    -0.648 OA
ENDBRANCH 131 132
ENDBRANCH 111 131
ENDBRANCH 109 111
ENDBRANCH 106 107
BRANCH 106 135
ATOM    135  CB  VAL d  14    2478.346 761.671-2583.945  0.00  0.00     0.009 C 
ATOM    136  CG1 VAL d  14    2478.435 761.252-2585.438  0.00  0.00     0.012 C 
ATOM    137  CG2 VAL d  14    2478.778 760.419-2583.144  0.00  0.00     0.012 C 
ENDBRANCH 106 135
ENDBRANCH 104 106
ENDBRANCH 101 102
BRANCH 101 138
ATOM    138  CB  ARG d  13    2479.708 763.837-2579.208  0.00  0.00     0.036 C 
BRANCH 138 139
ATOM    139  CG  ARG d  13    2481.254 763.990-2579.128  0.00  0.00     0.023 C 
BRANCH 139 140
ATOM    140  CD  ARG d  13    2481.881 763.003-2578.130  0.00  0.00     0.138 C 
BRANCH 140 141
ATOM    141  NE  ARG d  13    2483.358 763.209-2578.080  0.00  0.00    -0.227 N 
ATOM    142  CZ  ARG d  13    2484.206 762.518-2577.324  0.00  0.00     0.665 C 
ATOM    143  NH1 ARG d  13    2483.841 761.555-2576.526  0.00  0.00    -0.235 N 
ATOM    144  NH2 ARG d  13    2485.466 762.817-2577.382  0.00  0.00    -0.235 N 
ATOM    145 11HH ARG d  13    2482.835 761.369-2576.529  0.00  0.00     0.174 HD
ATOM    146 12HH ARG d  13    2484.554 761.072-2575.977  0.00  0.00     0.174 HD
ATOM    147 21HH ARG d  13    2485.733 763.574-2578.014  0.00  0.00     0.174 HD
ATOM    148 22HH ARG d  13    2486.101 762.276-2576.793  0.00  0.00     0.174 HD
ATOM    149  HE  ARG d  13    2483.809 763.931-2578.651  0.00  0.00     0.177 HD
ENDBRANCH 140 141
ENDBRANCH 139 140
ENDBRANCH 138 139
ENDBRANCH 101 138
ENDBRANCH  99 101
ENDBRANCH  96  97
BRANCH  96 150
ATOM    150  CB  GLN d  12    2474.890 766.119-2579.212  0.00  0.00     0.044 C 
BRANCH 150 151
ATOM    151  CG  GLN d  12    2475.252 767.641-2579.182  0.00  0.00     0.105 C 
BRANCH 151 152
ATOM    152  CD  GLN d  12    2474.950 768.455-2577.918  0.00  0.00     0.215 C 
ATOM    153  NE2 GLN d  12    2474.383 767.879-2576.888  0.00  0.00    -0.370 N 
ATOM    154 21HE GLN d  12    2474.277 768.474-2576.065  0.00  0.00     0.159 HD
ATOM    155 22HE GLN d  12    2474.219 766.876-2576.991  0.00  0.00     0.159 HD
ATOM    156  OE1 GLN d  12    2475.253 769.636-2577.841  0.00  0.00    -0.274 OA
ENDBRANCH 151 152
ENDBRANCH 150 151
ENDBRANCH  96 150
ENDBRANCH  94  96
ENDBRANCH  91  92
BRANCH  91 157
ATOM    157  CB  VAL d  11    2473.041 761.605-2581.415  0.00  0.00     0.009 C 
ATOM    158  CG1 VAL d  11    2472.473 762.309-2582.677  0.00  0.00     0.012 C 
ATOM    159  CG2 VAL d  11    2472.516 760.151-2581.487  0.00  0.00     0.012 C 
ENDBRANCH  91 157
ENDBRANCH  89  91
ENDBRANCH  86  87
BRANCH  86 160
ATOM    160  CB  HIS d  10    2476.398 759.073-2578.169  0.00  0.00     0.095 C 
BRANCH 160 161
ATOM    161  CG  HIS d  10    2477.683 758.362-2577.861  0.00  0.00     0.053 A 
ATOM    162  CD2 HIS d  10    2478.065 758.028-2576.568  0.00  0.00     0.116 A 
ATOM    163  NE2 HIS d  10    2479.279 757.396-2576.635  0.00  0.00    -0.359 N 
ATOM    164  CE1 HIS d  10    2479.541 757.398-2577.970  0.00  0.00     0.207 A 
ATOM    165  2HE HIS d  10    2479.846 757.019-2575.862  0.00  0.00     0.166 HD
ATOM    166  ND1 HIS d  10    2478.635 757.956-2578.793  0.00  0.00    -0.247 NA
ENDBRANCH 160 161
ENDBRANCH  86 160
ENDBRANCH   3  86
TORSDOF 67
