@<TRIPOS>MOLECULE
1-18
265 266 16              
SMALL
USER_CHARGES
@<TRIPOS>ATOM
1	   N	148.537	29.259	-119.055	N.3	1	GLU1	-0.516	
2	  CA	149.096	30.608	-119.055	C.3	1	GLU1	0.040	
3	   C	150.605	30.568	-119.055	C.2	1	GLU1	0.537	
4	   O	151.281	31.267	-119.823	O.2	1	GLU1	-0.582	
5	  CB	148.573	31.393	-117.818	C.3	1	GLU1	0.056	
6	  CG	149.048	32.878	-117.707	C.3	1	GLU1	0.014	
7	  CD	148.624	33.682	-116.492	C.2	1	GLU1	0.805	
8	 OE1	147.896	33.180	-115.614	O.co2	1	GLU1	-0.819	
9	 OE2	149.054	34.852	-116.420	O.co2	1	GLU1	-0.819	
10	   H	149.164	28.380	-119.055	 H	1	GLU1	0.294	
11	  HA	148.770	31.126	-119.975	 H	1	GLU1	0.111	
12	 2HB	148.862	30.862	-116.888	 H	1	GLU1	-0.017	
13	 3HB	147.466	31.383	-117.805	 H	1	GLU1	-0.017	
14	 2HG	148.738	33.463	-118.588	 H	1	GLU1	-0.043	
15	 3HG	150.148	32.945	-117.678	 H	1	GLU1	-0.043	
16	   N	151.210	29.782	-118.229	N.am	2	ASN2	-0.416	
17	  CA	152.669	29.744	-118.229	C.3	2	ASN2	0.014	
18	   C	153.200	29.388	-119.598	C.2	2	ASN2	0.597	
19	   O	154.115	30.019	-120.127	O.2	2	ASN2	-0.568	
20	  CB	153.161	28.721	-117.165	C.3	2	ASN2	-0.204	
21	  CG	152.698	28.945	-115.722	C.2	2	ASN2	0.713	
22	 ND2	153.293	29.860	-115.004	N.pl3	2	ASN2	-0.919	
23	 OD1	151.778	28.311	-115.228	O.2	2	ASN2	-0.593	
24	   H	150.682	29.203	-117.593	 H	2	ASN2	0.272	
25	  HA	153.047	30.754	-117.984	 H	2	ASN2	0.105	
26	 2HB	154.266	28.662	-117.169	 H	2	ASN2	0.080	
27	 3HB	152.832	27.703	-117.451	 H	2	ASN2	0.080	
28	1HD2	152.812	30.033	-114.117	 H	2	ASN2	0.420	
29	2HD2	153.994	30.431	-115.473	 H	2	ASN2	0.420	
30	   N	152.679	28.393	-120.232	N.am	3	PRO3	-0.255	
31	  CA	153.131	27.984	-121.554	C.3	3	PRO3	-0.027	
32	   C	152.732	29.007	-122.631	C.2	3	PRO3	0.590	
33	   O	153.556	29.391	-123.462	O.2	3	PRO3	-0.575	
34	  CB	152.427	26.629	-121.723	C.3	3	PRO3	-0.007	
35	  CG	151.143	26.781	-120.893	C.3	3	PRO3	0.019	
36	  CD	151.601	27.600	-119.683	C.3	3	PRO3	0.019	
37	  HA	154.217	27.864	-121.568	 H	3	PRO3	0.064	
38	 2HB	153.050	25.848	-121.282	 H	3	PRO3	0.025	
39	 3HB	152.229	26.381	-122.768	 H	3	PRO3	0.025	
40	 2HG	150.716	25.819	-120.602	 H	3	PRO3	0.021	
41	 3HG	150.406	27.352	-121.460	 H	3	PRO3	0.021	
42	 2HD	151.991	26.950	-118.896	 H	3	PRO3	0.039	
43	 3HD	150.804	28.236	-119.290	 H	3	PRO3	0.039	
44	   N	151.528	29.467	-122.663	N.am	4	GLU4	-0.516	
45	  CA	151.168	30.438	-123.692	C.3	4	GLU4	0.040	
46	   C	152.066	31.649	-123.631	C.2	4	GLU4	0.537	
47	   O	152.593	32.129	-124.646	O.2	4	GLU4	-0.582	
48	  CB	149.679	30.857	-123.522	C.3	4	GLU4	0.056	
49	  CG	149.131	31.860	-124.588	C.3	4	GLU4	0.014	
50	  CD	147.704	32.357	-124.444	C.2	4	GLU4	0.805	
51	 OE1	146.978	31.958	-123.513	O.co2	4	GLU4	-0.819	
52	 OE2	147.314	33.186	-125.292	O.co2	4	GLU4	-0.819	
53	   H	150.844	29.160	-121.986	 H	4	GLU4	0.294	
54	  HA	151.299	29.968	-124.684	 H	4	GLU4	0.111	
55	 2HB	149.527	31.296	-122.515	 H	4	GLU4	-0.017	
56	 3HB	149.031	29.959	-123.528	 H	4	GLU4	-0.017	
57	 2HG	149.212	31.445	-125.605	 H	4	GLU4	-0.043	
58	 3HG	149.719	32.793	-124.599	 H	4	GLU4	-0.043	
59	   N	152.294	32.202	-122.488	N.am	5	SER5	-0.416	
60	  CA	153.163	33.374	-122.430	C.3	5	SER5	-0.025	
61	   C	154.522	33.068	-123.016	C.2	5	SER5	0.597	
62	   O	155.069	33.822	-123.820	O.2	5	SER5	-0.568	
63	  CB	153.275	33.906	-120.979	C.3	5	SER5	0.212	
64	  OG	154.007	33.027	-120.118	O.3	5	SER5	-0.655	
65	   H	151.877	31.830	-121.647	 H	5	SER5	0.272	
66	  HA	152.713	34.164	-123.059	 H	5	SER5	0.084	
67	 2HB	152.275	34.099	-120.546	 H	5	SER5	0.035	
68	 3HB	153.780	34.892	-120.982	 H	5	SER5	0.035	
69	  HG	153.518	32.202	-120.068	 H	5	SER5	0.428	
70	   N	155.127	31.985	-122.661	N.am	6	ILE6	-0.416	
71	  CA	156.440	31.691	-123.228	C.3	6	ILE6	-0.060	
72	   C	156.383	31.653	-124.736	C.2	6	ILE6	0.597	
73	   O	157.217	32.241	-125.440	O.2	6	ILE6	-0.568	
74	  CB	157.040	30.355	-122.628	C.3	6	ILE6	0.130	
75	 CG1	157.060	30.293	-121.067	C.3	6	ILE6	-0.043	
76	 CG2	158.482	30.054	-123.143	C.3	6	ILE6	-0.320	
77	 CD1	157.330	28.904	-120.452	C.3	6	ILE6	-0.066	
78	   H	154.699	31.351	-122.003	 H	6	ILE6	0.272	
79	  HA	157.114	32.525	-122.960	 H	6	ILE6	0.087	
80	  HB	156.383	29.529	-122.972	 H	6	ILE6	0.019	
81	2HG1	156.078	30.612	-120.671	 H	6	ILE6	0.024	
82	3HG1	157.776	31.035	-120.662	 H	6	ILE6	0.024	
83	1HG2	158.540	29.960	-124.242	 H	6	ILE6	0.088	
84	2HG2	159.204	30.836	-122.841	 H	6	ILE6	0.088	
85	3HG2	158.872	29.092	-122.765	 H	6	ILE6	0.088	
86	1HD1	156.602	28.149	-120.807	 H	6	ILE6	0.019	
87	2HD1	158.341	28.525	-120.688	 H	6	ILE6	0.019	
88	3HD1	157.254	28.933	-119.349	 H	6	ILE6	0.019	
89	   N	155.437	30.990	-125.309	N.am	7	LEU7	-0.416	
90	  CA	155.382	30.954	-126.768	C.3	7	LEU7	-0.052	
91	   C	155.309	32.349	-127.340	C.2	7	LEU7	0.597	
92	   O	156.030	32.712	-128.282	O.2	7	LEU7	-0.568	
93	  CB	154.179	30.093	-127.248	C.3	7	LEU7	-0.110	
94	  CG	154.107	28.614	-126.782	C.3	7	LEU7	0.353	
95	 CD1	152.917	27.907	-127.447	C.3	7	LEU7	-0.412	
96	 CD2	155.401	27.835	-127.073	C.3	7	LEU7	-0.412	
97	   H	154.745	30.502	-124.758	 H	7	LEU7	0.272	
98	  HA	156.324	30.514	-127.142	 H	7	LEU7	0.092	
99	 2HB	154.156	30.109	-128.356	 H	7	LEU7	0.046	
100	 3HB	153.239	30.595	-126.944	 H	7	LEU7	0.046	
101	  HG	153.937	28.605	-125.684	 H	7	LEU7	-0.036	
102	1HD1	151.960	28.416	-127.224	 H	7	LEU7	0.100	
103	2HD1	153.016	27.867	-128.548	 H	7	LEU7	0.100	
104	3HD1	152.810	26.866	-127.091	 H	7	LEU7	0.100	
105	1HD2	155.676	27.865	-128.143	 H	7	LEU7	0.100	
106	2HD2	156.254	28.246	-126.502	 H	7	LEU7	0.100	
107	3HD2	155.319	26.772	-126.777	 H	7	LEU7	0.100	
108	   N	154.472	33.189	-126.834	N.am	8	ASP8	-0.516	
109	  CA	154.401	34.539	-127.387	C.3	8	ASP8	0.038	
110	   C	155.747	35.219	-127.330	C.2	8	ASP8	0.537	
111	   O	156.220	35.824	-128.304	O.2	8	ASP8	-0.582	
112	  CB	153.323	35.377	-126.645	C.3	8	ASP8	-0.030	
113	  CG	153.103	36.798	-127.186	C.2	8	ASP8	0.799	
114	 OD1	153.167	36.997	-128.416	O.co2	8	ASP8	-0.801	
115	 OD2	152.911	37.724	-126.370	O.co2	8	ASP8	-0.801	
116	   H	153.874	32.918	-126.066	 H	8	ASP8	0.294	
117	  HA	154.118	34.461	-128.454	 H	8	ASP8	0.088	
118	 2HB	153.580	35.461	-125.573	 H	8	ASP8	-0.012	
119	 3HB	152.344	34.872	-126.678	 H	8	ASP8	-0.012	
120	   N	156.427	35.169	-126.235	N.am	9	GLU9	-0.516	
121	  CA	157.730	35.827	-126.179	C.3	9	GLU9	0.040	
122	   C	158.648	35.300	-127.255	C.2	9	GLU9	0.537	
123	   O	159.312	36.055	-127.981	O.2	9	GLU9	-0.582	
124	  CB	158.363	35.620	-124.774	C.3	9	GLU9	0.056	
125	  CG	159.746	36.312	-124.545	C.3	9	GLU9	0.014	
126	  CD	160.448	36.099	-123.216	C.2	9	GLU9	0.805	
127	 OE1	159.926	35.408	-122.320	O.co2	9	GLU9	-0.819	
128	 OE2	161.567	36.637	-123.085	O.co2	9	GLU9	-0.819	
129	   H	156.064	34.683	-125.428	 H	9	GLU9	0.294	
130	  HA	157.587	36.909	-126.354	 H	9	GLU9	0.111	
131	 2HB	158.477	34.535	-124.571	 H	9	GLU9	-0.017	
132	 3HB	157.666	35.973	-123.990	 H	9	GLU9	-0.017	
133	 2HG	159.673	37.403	-124.684	 H	9	GLU9	-0.043	
134	 3HG	160.492	35.968	-125.279	 H	9	GLU9	-0.043	
135	   N	158.745	34.025	-127.425	N.am	10	HIS10	-0.416	
136	  CA	159.633	33.514	-128.465	C.3	10	HIS10	-0.058	
137	   C	159.266	34.079	-129.816	C.2	10	HIS10	0.597	
138	   O	160.118	34.544	-130.588	O.2	10	HIS10	-0.568	
139	  CB	159.470	31.985	-128.461	C.3	10	HIS10	-0.007	
140	  CG	160.756	31.275	-128.153	C.2	10	HIS10	0.187	
141	 CD2	161.137	30.940	-126.860	C.2	10	HIS10	-0.221	
142	 ND1	161.708	30.870	-129.085	N.2	10	HIS10	-0.543	
143	 CE1	162.614	30.312	-128.262	C.2	10	HIS10	0.163	
144	 NE2	162.352	30.309	-126.927	N.pl3	10	HIS10	-0.280	
145	   H	158.214	33.389	-126.846	 H	10	HIS10	0.272	
146	  HA	160.652	33.872	-128.240	 H	10	HIS10	0.136	
147	 2HB	159.104	31.618	-129.441	 H	10	HIS10	0.037	
148	 3HB	158.714	31.648	-127.721	 H	10	HIS10	0.037	
149	 2HD	160.551	31.155	-125.971	 H	10	HIS10	0.186	
150	 1HE	163.505	29.892	-128.709	 H	10	HIS10	0.144	
151	 2HE	162.919	29.932	-126.154	 H	10	HIS10	0.334	
152	   N	158.028	34.077	-130.179	N.am	11	VAL11	-0.416	
153	  CA	157.673	34.623	-131.486	C.3	11	VAL11	-0.087	
154	   C	158.136	36.054	-131.618	C.2	11	VAL11	0.597	
155	   O	158.737	36.460	-132.621	O.2	11	VAL11	-0.568	
156	  CB	156.111	34.516	-131.705	C.3	11	VAL11	0.299	
157	 CG1	155.542	35.220	-132.968	C.3	11	VAL11	-0.319	
158	 CG2	155.587	33.062	-131.779	C.3	11	VAL11	-0.319	
159	   H	157.315	33.704	-129.569	 H	11	VAL11	0.272	
160	  HA	158.192	34.041	-132.269	 H	11	VAL11	0.097	
161	  HB	155.624	34.996	-130.830	 H	11	VAL11	-0.030	
162	1HG1	155.981	34.829	-133.905	 H	11	VAL11	0.079	
163	2HG1	154.444	35.112	-133.050	 H	11	VAL11	0.079	
164	3HG1	155.720	36.312	-132.958	 H	11	VAL11	0.079	
165	1HG2	155.877	32.475	-130.888	 H	11	VAL11	0.079	
166	2HG2	154.482	33.024	-131.821	 H	11	VAL11	0.079	
167	3HG2	155.969	32.521	-132.665	 H	11	VAL11	0.079	
168	   N	157.899	36.880	-130.656	N.am	12	GLN12	-0.416	
169	  CA	158.347	38.263	-130.783	C.3	12	GLN12	-0.003	
170	   C	159.837	38.331	-131.021	C.2	12	GLN12	0.597	
171	   O	160.324	39.040	-131.899	O.2	12	GLN12	-0.568	
172	  CB	157.956	39.030	-129.500	C.3	12	GLN12	-0.004	
173	  CG	158.315	40.552	-129.469	C.3	12	GLN12	-0.064	
174	  CD	158.012	41.365	-128.204	C.2	12	GLN12	0.695	
175	 NE2	157.446	40.788	-127.175	N.pl3	12	GLN12	-0.941	
176	 OE1	158.314	42.546	-128.126	O.2	12	GLN12	-0.609	
177	   H	157.410	36.573	-129.827	 H	12	GLN12	0.272	
178	  HA	157.847	38.719	-131.658	 H	12	GLN12	0.085	
179	 2HB	158.432	38.530	-128.631	 H	12	GLN12	0.017	
180	 3HB	156.865	38.922	-129.337	 H	12	GLN12	0.017	
181	 2HG	157.838	41.073	-130.319	 H	12	GLN12	0.035	
182	 3HG	159.399	40.694	-129.634	 H	12	GLN12	0.035	
183	1HE2	157.338	41.382	-126.351	 H	12	GLN12	0.425	
184	2HE2	157.283	39.784	-127.278	 H	12	GLN12	0.425	
185	   N	160.622	37.624	-130.280	N.am	13	ARG13	-0.348	
186	  CA	162.062	37.691	-130.511	C.3	13	ARG13	-0.264	
187	   C	162.398	37.320	-131.936	C.2	13	ARG13	0.734	
188	   O	163.167	37.992	-132.620	O.2	13	ARG13	-0.589	
189	  CB	162.776	36.752	-129.497	C.3	13	ARG13	-0.001	
190	  CG	164.321	36.906	-129.416	C.3	13	ARG13	0.039	
191	  CD	164.948	35.918	-128.418	C.3	13	ARG13	0.049	
192	  NE	166.425	36.126	-128.368	N.pl3	13	ARG13	-0.530	
193	  CZ	167.273	35.435	-127.612	C.cat	13	ARG13	0.808	
194	 NH1	166.909	34.470	-126.815	N.pl3	13	ARG13	-0.863	
195	 NH2	168.533	35.734	-127.669	N.pl3	13	ARG13	-0.863	
196	   H	160.246	37.034	-129.551	 H	13	ARG13	0.275	
197	  HA	162.386	38.737	-130.352	 H	13	ARG13	0.156	
198	 2HB	162.510	35.701	-129.736	 H	13	ARG13	0.033	
199	 3HB	162.350	36.918	-128.486	 H	13	ARG13	0.033	
200	 2HG	164.568	37.950	-129.136	 H	13	ARG13	0.029	
201	 3HG	164.771	36.750	-130.417	 H	13	ARG13	0.029	
202	 2HD	164.704	34.878	-128.727	 H	13	ARG13	0.069	
203	 3HD	164.491	36.063	-127.416	 H	13	ARG13	0.069	
204	  HE	166.876	36.848	-128.938	 H	13	ARG13	0.346	
205	1HH1	165.903	34.283	-126.818	 H	13	ARG13	0.448	
206	2HH1	167.622	33.987	-126.267	 H	13	ARG13	0.448	
207	1HH2	168.800	36.492	-128.300	 H	13	ARG13	0.448	
208	2HH2	169.168	35.193	-127.081	 H	13	ARG13	0.448	
209	   N	161.863	36.265	-132.450	N.am	14	VAL14	-0.416	
210	  CA	162.188	35.906	-133.828	C.3	14	VAL14	-0.087	
211	   C	161.857	37.036	-134.773	C.2	14	VAL14	0.597	
212	   O	162.650	37.418	-135.643	O.2	14	VAL14	-0.568	
213	  CB	161.416	34.589	-134.235	C.3	14	VAL14	0.299	
214	 CG1	161.505	34.171	-135.728	C.3	14	VAL14	-0.319	
215	 CG2	161.848	33.337	-133.435	C.3	14	VAL14	-0.319	
216	   H	161.228	35.696	-131.908	 H	14	VAL14	0.272	
217	  HA	163.276	35.730	-133.902	 H	14	VAL14	0.097	
218	  HB	160.339	34.760	-134.019	 H	14	VAL14	-0.030	
219	1HG1	162.547	33.994	-136.057	 H	14	VAL14	0.079	
220	2HG1	160.933	33.247	-135.941	 H	14	VAL14	0.079	
221	3HG1	161.076	34.933	-136.407	 H	14	VAL14	0.079	
222	1HG2	161.761	33.495	-132.344	 H	14	VAL14	0.079	
223	2HG2	161.213	32.460	-133.667	 H	14	VAL14	0.079	
224	3HG2	162.896	33.047	-133.641	 H	14	VAL14	0.079	
225	   N	160.712	37.622	-134.671	N.am	15	MET15	-0.416	
226	  CA	160.391	38.714	-135.585	C.3	15	MET15	-0.024	
227	   C	161.421	39.815	-135.497	C.2	15	MET15	0.597	
228	   O	161.923	40.326	-136.509	O.2	15	MET15	-0.568	
229	  CB	158.970	39.259	-135.276	C.3	15	MET15	0.034	
230	  CG	157.808	38.261	-135.468	C.3	15	MET15	0.002	
231	  SD	156.234	39.126	-135.353	S.3	15	MET15	-0.274	
232	  CE	155.153	37.696	-135.217	C.3	15	MET15	-0.054	
233	   H	160.047	37.328	-133.970	 H	15	MET15	0.272	
234	  HA	160.417	38.327	-136.620	 H	15	MET15	0.088	
235	 2HB	158.767	40.138	-135.918	 H	15	MET15	0.024	
236	 3HB	158.934	39.652	-134.239	 H	15	MET15	0.024	
237	 2HG	157.851	37.475	-134.690	 H	15	MET15	0.044	
238	 3HG	157.871	37.746	-136.444	 H	15	MET15	0.044	
239	 1HE	155.297	37.008	-136.069	 H	15	MET15	0.068	
240	 2HE	155.363	37.143	-134.284	 H	15	MET15	0.068	
241	 3HE	154.095	38.011	-135.200	 H	15	MET15	0.068	
242	   N	161.789	40.236	-134.334	N.am	16	ARG16	-0.348	
243	  CA	162.786	41.300	-134.251	C.3	16	ARG16	-0.264	
244	   C	164.056	40.908	-134.967	C.2	16	ARG16	0.734	
245	   O	164.171	39.831	-135.548	O.2	16	ARG16	-0.589	
246	  CB	163.054	41.618	-132.752	C.3	16	ARG16	-0.001	
247	  CG	163.879	42.907	-132.479	C.3	16	ARG16	0.039	
248	  CD	164.129	43.126	-130.978	C.3	16	ARG16	0.049	
249	  NE	164.904	44.385	-130.777	N.pl3	16	ARG16	-0.530	
250	  CZ	165.295	44.868	-129.601	C.cat	16	ARG16	0.808	
251	 NH1	165.048	44.283	-128.462	N.pl3	16	ARG16	-0.863	
252	 NH2	165.959	45.980	-129.582	N.pl3	16	ARG16	-0.863	
253	   H	161.395	39.835	-133.495	 H	16	ARG16	0.275	
254	  HA	162.376	42.193	-134.760	 H	16	ARG16	0.156	
255	 2HB	163.552	40.742	-132.286	 H	16	ARG16	0.033	
256	 3HB	162.086	41.698	-132.218	 H	16	ARG16	0.033	
257	 2HG	163.348	43.778	-132.916	 H	16	ARG16	0.029	
258	 3HG	164.853	42.854	-133.008	 H	16	ARG16	0.029	
259	 2HD	164.678	42.251	-130.565	 H	16	ARG16	0.069	
260	 3HD	163.156	43.168	-130.442	 H	16	ARG16	0.069	
261	  HE	165.183	44.967	-131.574	 H	16	ARG16	0.346	
262	1HH1	164.523	43.410	-128.547	 H	16	ARG16	0.448	
263	2HH1	165.382	44.718	-127.601	 H	16	ARG16	0.448	
264	1HH2	166.144	46.424	-130.484	 H	16	ARG16	0.448	
265	2HH2	166.249	46.335	-128.669	 H	16	ARG16	0.448	
@<TRIPOS>BOND
1 1 2 1
2 1 10 1
3 2 3 1
4 2 5 1
5 2 11 1
6 3 4 2
7 3 16 1
8 5 6 1
9 6 7 1
10 7 8 2
11 7 9 1
12 5 12 1
13 5 13 1
14 6 14 1
15 6 15 1
16 16 17 1
17 16 24 1
18 17 18 1
19 17 20 1
20 17 25 1
21 18 19 2
22 18 30 1
23 20 21 1
24 21 22 1
25 21 23 2
26 20 26 1
27 20 27 1
28 22 28 1
29 22 29 1
30 30 31 1
31 30 36 1
32 31 32 1
33 31 34 1
34 31 37 1
35 32 33 2
36 32 44 1
37 34 35 1
38 35 36 1
39 34 38 1
40 34 39 1
41 35 40 1
42 35 41 1
43 36 42 1
44 36 43 1
45 44 45 1
46 44 53 1
47 45 46 1
48 45 48 1
49 45 54 1
50 46 47 2
51 46 59 1
52 48 49 1
53 49 50 1
54 50 51 2
55 50 52 1
56 48 55 1
57 48 56 1
58 49 57 1
59 49 58 1
60 59 60 1
61 59 65 1
62 60 61 1
63 60 63 1
64 60 66 1
65 61 62 2
66 61 70 1
67 63 64 1
68 63 67 1
69 63 68 1
70 64 69 1
71 70 71 1
72 70 78 1
73 71 72 1
74 71 74 1
75 71 79 1
76 72 73 2
77 72 89 1
78 74 75 1
79 74 76 1
80 75 77 1
81 74 80 1
82 75 81 1
83 75 82 1
84 76 83 1
85 76 84 1
86 76 85 1
87 77 86 1
88 77 87 1
89 77 88 1
90 89 90 1
91 89 97 1
92 90 91 1
93 90 93 1
94 90 98 1
95 91 92 2
96 91 108 1
97 93 94 1
98 94 95 1
99 94 96 1
100 93 99 1
101 93 100 1
102 94 101 1
103 95 102 1
104 95 103 1
105 95 104 1
106 96 105 1
107 96 106 1
108 96 107 1
109 108 109 1
110 108 116 1
111 109 110 1
112 109 112 1
113 109 117 1
114 110 111 2
115 110 120 1
116 112 113 1
117 113 114 2
118 113 115 1
119 112 118 1
120 112 119 1
121 120 121 1
122 120 129 1
123 121 122 1
124 121 124 1
125 121 130 1
126 122 123 2
127 122 135 1
128 124 125 1
129 125 126 1
130 126 127 2
131 126 128 1
132 124 131 1
133 124 132 1
134 125 133 1
135 125 134 1
136 135 136 1
137 135 145 1
138 136 137 1
139 136 139 1
140 136 146 1
141 137 138 2
142 137 152 1
143 139 140 1
144 140 141 2
145 141 144 1
146 140 142 1
147 142 143 2
148 143 144 1
149 139 147 1
150 139 148 1
151 141 149 1
152 143 150 1
153 144 151 1
154 152 153 1
155 152 159 1
156 153 154 1
157 153 156 1
158 153 160 1
159 154 155 2
160 154 168 1
161 156 157 1
162 156 158 1
163 156 161 1
164 157 162 1
165 157 163 1
166 157 164 1
167 158 165 1
168 158 166 1
169 158 167 1
170 168 169 1
171 168 177 1
172 169 170 1
173 169 172 1
174 169 178 1
175 170 171 2
176 170 185 1
177 172 173 1
178 173 174 1
179 174 175 1
180 174 176 2
181 172 179 1
182 172 180 1
183 173 181 1
184 173 182 1
185 175 183 1
186 175 184 1
187 185 186 1
188 185 196 1
189 186 187 1
190 186 189 1
191 186 197 1
192 187 188 2
193 187 209 1
194 189 190 1
195 190 191 1
196 191 192 1
197 192 193 1
198 193 194 2
199 193 195 1
200 189 198 1
201 189 199 1
202 190 200 1
203 190 201 1
204 191 202 1
205 191 203 1
206 192 204 1
207 194 205 1
208 194 206 1
209 195 207 1
210 195 208 1
211 209 210 1
212 209 216 1
213 210 211 1
214 210 213 1
215 210 217 1
216 211 212 2
217 211 225 1
218 213 214 1
219 213 215 1
220 213 218 1
221 214 219 1
222 214 220 1
223 214 221 1
224 215 222 1
225 215 223 1
226 215 224 1
227 225 226 1
228 225 233 1
229 226 227 1
230 226 229 1
231 226 234 1
232 227 228 2
233 227 242 1
234 229 230 1
235 230 231 1
236 231 232 1
237 229 235 1
238 229 236 1
239 230 237 1
240 230 238 1
241 232 239 1
242 232 240 1
243 232 241 1
244 242 243 1
245 242 253 1
246 243 244 1
247 243 246 1
248 243 254 1
249 244 245 2
250 246 247 1
251 247 248 1
252 248 249 1
253 249 250 1
254 250 251 2
255 250 252 1
256 246 255 1
257 246 256 1
258 247 257 1
259 247 258 1
260 248 259 1
261 248 260 1
262 249 261 1
263 251 262 1
264 251 263 1
265 252 264 1
266 252 265 1
@<TRIPOS>SUBSTRUCTURE
1	GLU1	1	RESIDUE	1 ****	GLU
2	ASN2	16	RESIDUE	1 ****	ASN
3	PRO3	30	RESIDUE	1 ****	PRO
4	GLU4	44	RESIDUE	1 ****	GLU
5	SER5	59	RESIDUE	1 ****	SER
6	ILE6	70	RESIDUE	1 ****	ILE
7	LEU7	89	RESIDUE	1 ****	LEU
8	ASP8	108	RESIDUE	1 ****	ASP
9	GLU9	120	RESIDUE	1 ****	GLU
10	HIS10	135	RESIDUE	1 ****	HIS
11	VAL11	152	RESIDUE	1 ****	VAL
12	GLN12	168	RESIDUE	1 ****	GLN
13	ARG13	185	RESIDUE	1 ****	ARG
14	VAL14	209	RESIDUE	1 ****	VAL
15	MET15	225	RESIDUE	1 ****	MET
16	ARG16	242	RESIDUE	1 ****	ARG
