@<TRIPOS>MOLECULE
12-8
268 270 16              
SMALL
USER_CHARGES
@<TRIPOS>ATOM
1	   N	1903.140	573.216	-1955.780	N.3	1	GLU1	-0.516	
2	  CA	1903.699	574.565	-1955.780	C.3	1	GLU1	0.040	
3	   C	1905.208	574.525	-1955.780	C.2	1	GLU1	0.537	
4	   O	1905.884	575.224	-1956.549	O.2	1	GLU1	-0.582	
5	  CB	1903.176	575.350	-1954.543	C.3	1	GLU1	0.056	
6	  CG	1903.651	576.835	-1954.432	C.3	1	GLU1	0.014	
7	  CD	1903.227	577.639	-1953.217	C.2	1	GLU1	0.805	
8	 OE1	1902.499	577.137	-1952.339	O.co2	1	GLU1	-0.819	
9	 OE2	1903.657	578.809	-1953.145	O.co2	1	GLU1	-0.819	
10	   H	1903.767	572.337	-1955.780	 H	1	GLU1	0.294	
11	  HA	1903.373	575.083	-1956.700	 H	1	GLU1	0.111	
12	 2HB	1903.465	574.819	-1953.613	 H	1	GLU1	-0.017	
13	 3HB	1902.069	575.340	-1954.530	 H	1	GLU1	-0.017	
14	 2HG	1903.341	577.420	-1955.313	 H	1	GLU1	-0.043	
15	 3HG	1904.751	576.902	-1954.403	 H	1	GLU1	-0.043	
16	   N	1905.813	573.739	-1954.955	N.am	2	ASN2	-0.416	
17	  CA	1907.272	573.700	-1954.955	C.3	2	ASN2	0.014	
18	   C	1907.803	573.345	-1956.324	C.2	2	ASN2	0.597	
19	   O	1908.718	573.975	-1956.852	O.2	2	ASN2	-0.568	
20	  CB	1907.764	572.677	-1953.891	C.3	2	ASN2	-0.204	
21	  CG	1907.301	572.901	-1952.447	C.2	2	ASN2	0.713	
22	 ND2	1907.895	573.816	-1951.729	N.pl3	2	ASN2	-0.919	
23	 OD1	1906.380	572.268	-1951.953	O.2	2	ASN2	-0.593	
24	   H	1905.285	573.159	-1954.319	 H	2	ASN2	0.272	
25	  HA	1907.650	574.710	-1954.710	 H	2	ASN2	0.105	
26	 2HB	1908.869	572.618	-1953.894	 H	2	ASN2	0.080	
27	 3HB	1907.435	571.659	-1954.177	 H	2	ASN2	0.080	
28	1HD2	1907.415	573.989	-1950.843	 H	2	ASN2	0.420	
29	2HD2	1908.597	574.388	-1952.198	 H	2	ASN2	0.420	
30	   N	1907.282	572.350	-1956.958	N.am	3	PRO3	-0.255	
31	  CA	1907.734	571.941	-1958.279	C.3	3	PRO3	-0.027	
32	   C	1907.336	572.964	-1959.356	C.2	3	PRO3	0.590	
33	   O	1908.159	573.347	-1960.188	O.2	3	PRO3	-0.575	
34	  CB	1907.030	570.586	-1958.449	C.3	3	PRO3	-0.007	
35	  CG	1905.746	570.738	-1957.618	C.3	3	PRO3	0.019	
36	  CD	1906.204	571.557	-1956.409	C.3	3	PRO3	0.019	
37	  HA	1908.819	571.821	-1958.293	 H	3	PRO3	0.064	
38	 2HB	1907.652	569.805	-1958.008	 H	3	PRO3	0.025	
39	 3HB	1906.831	570.337	-1959.494	 H	3	PRO3	0.025	
40	 2HG	1905.319	569.776	-1957.327	 H	3	PRO3	0.021	
41	 3HG	1905.009	571.309	-1958.186	 H	3	PRO3	0.021	
42	 2HD	1906.593	570.907	-1955.621	 H	3	PRO3	0.039	
43	 3HD	1905.407	572.193	-1956.016	 H	3	PRO3	0.039	
44	   N	1906.131	573.424	-1959.388	N.am	4	GLU4	-0.516	
45	  CA	1905.771	574.395	-1960.418	C.3	4	GLU4	0.040	
46	   C	1906.670	575.606	-1960.357	C.2	4	GLU4	0.537	
47	   O	1907.197	576.086	-1961.372	O.2	4	GLU4	-0.582	
48	  CB	1904.283	574.814	-1960.248	C.3	4	GLU4	0.056	
49	  CG	1903.735	575.817	-1961.313	C.3	4	GLU4	0.014	
50	  CD	1902.308	576.314	-1961.170	C.2	4	GLU4	0.805	
51	 OE1	1901.582	575.916	-1960.239	O.co2	4	GLU4	-0.819	
52	 OE2	1901.918	577.143	-1962.018	O.co2	4	GLU4	-0.819	
53	   H	1905.447	573.117	-1958.712	 H	4	GLU4	0.294	
54	  HA	1905.902	573.925	-1961.409	 H	4	GLU4	0.111	
55	 2HB	1904.130	575.254	-1959.241	 H	4	GLU4	-0.017	
56	 3HB	1903.635	573.916	-1960.254	 H	4	GLU4	-0.017	
57	 2HG	1903.816	575.403	-1962.331	 H	4	GLU4	-0.043	
58	 3HG	1904.323	576.750	-1961.325	 H	4	GLU4	-0.043	
59	   N	1906.898	576.159	-1959.214	N.am	5	SER5	-0.416	
60	  CA	1907.767	577.330	-1959.155	C.3	5	SER5	-0.025	
61	   C	1909.126	577.025	-1959.741	C.2	5	SER5	0.597	
62	   O	1909.673	577.778	-1960.546	O.2	5	SER5	-0.568	
63	  CB	1907.879	577.862	-1957.705	C.3	5	SER5	0.212	
64	  OG	1908.610	576.983	-1956.844	O.3	5	SER5	-0.655	
65	   H	1906.481	575.787	-1958.372	 H	5	SER5	0.272	
66	  HA	1907.318	578.120	-1959.785	 H	5	SER5	0.084	
67	 2HB	1906.879	578.056	-1957.272	 H	5	SER5	0.035	
68	 3HB	1908.384	578.848	-1957.707	 H	5	SER5	0.035	
69	  HG	1908.122	576.158	-1956.793	 H	5	SER5	0.428	
70	   N	1909.731	575.942	-1959.387	N.am	6	ILE6	-0.416	
71	  CA	1911.044	575.647	-1959.953	C.3	6	ILE6	-0.060	
72	   C	1910.987	575.609	-1961.461	C.2	6	ILE6	0.597	
73	   O	1911.821	576.197	-1962.165	O.2	6	ILE6	-0.568	
74	  CB	1911.644	574.311	-1959.353	C.3	6	ILE6	0.130	
75	 CG1	1911.663	574.249	-1957.792	C.3	6	ILE6	-0.043	
76	 CG2	1913.085	574.009	-1959.868	C.3	6	ILE6	-0.320	
77	 CD1	1911.933	572.859	-1957.177	C.3	6	ILE6	-0.066	
78	   H	1909.303	575.307	-1958.728	 H	6	ILE6	0.272	
79	  HA	1911.718	576.481	-1959.685	 H	6	ILE6	0.087	
80	  HB	1910.986	573.485	-1959.697	 H	6	ILE6	0.019	
81	2HG1	1910.681	574.568	-1957.396	 H	6	ILE6	0.024	
82	3HG1	1912.379	574.991	-1957.387	 H	6	ILE6	0.024	
83	1HG2	1913.144	573.916	-1960.967	 H	6	ILE6	0.088	
84	2HG2	1913.807	574.792	-1959.566	 H	6	ILE6	0.088	
85	3HG2	1913.475	573.047	-1959.490	 H	6	ILE6	0.088	
86	1HD1	1911.205	572.105	-1957.532	 H	6	ILE6	0.019	
87	2HD1	1912.944	572.481	-1957.413	 H	6	ILE6	0.019	
88	3HD1	1911.857	572.889	-1956.074	 H	6	ILE6	0.019	
89	   N	1910.041	574.946	-1962.034	N.am	7	LEU7	-0.416	
90	  CA	1909.986	574.910	-1963.493	C.3	7	LEU7	-0.052	
91	   C	1909.913	576.305	-1964.065	C.2	7	LEU7	0.597	
92	   O	1910.634	576.668	-1965.007	O.2	7	LEU7	-0.568	
93	  CB	1908.783	574.049	-1963.973	C.3	7	LEU7	-0.110	
94	  CG	1908.711	572.570	-1963.507	C.3	7	LEU7	0.353	
95	 CD1	1907.521	571.864	-1964.172	C.3	7	LEU7	-0.412	
96	 CD2	1910.004	571.791	-1963.798	C.3	7	LEU7	-0.412	
97	   H	1909.349	574.458	-1961.483	 H	7	LEU7	0.272	
98	  HA	1910.928	574.470	-1963.867	 H	7	LEU7	0.092	
99	 2HB	1908.760	574.065	-1965.081	 H	7	LEU7	0.046	
100	 3HB	1907.843	574.552	-1963.669	 H	7	LEU7	0.046	
101	  HG	1908.541	572.562	-1962.410	 H	7	LEU7	-0.036	
102	1HD1	1906.564	572.373	-1963.950	 H	7	LEU7	0.100	
103	2HD1	1907.620	571.823	-1965.274	 H	7	LEU7	0.100	
104	3HD1	1907.414	570.823	-1963.816	 H	7	LEU7	0.100	
105	1HD2	1910.280	571.821	-1964.868	 H	7	LEU7	0.100	
106	2HD2	1910.858	572.203	-1963.227	 H	7	LEU7	0.100	
107	3HD2	1909.923	570.729	-1963.502	 H	7	LEU7	0.100	
108	   N	1909.076	577.145	-1963.559	N.am	8	ASP8	-0.516	
109	  CA	1909.005	578.495	-1964.112	C.3	8	ASP8	0.038	
110	   C	1910.352	579.175	-1964.055	C.2	8	ASP8	0.537	
111	   O	1910.824	579.780	-1965.030	O.2	8	ASP8	-0.582	
112	  CB	1907.927	579.333	-1963.371	C.3	8	ASP8	-0.030	
113	  CG	1907.708	580.754	-1963.911	C.2	8	ASP8	0.799	
114	 OD1	1907.772	580.954	-1965.141	O.co2	8	ASP8	-0.801	
115	 OD2	1907.516	581.680	-1963.095	O.co2	8	ASP8	-0.801	
116	   H	1908.478	576.874	-1962.792	 H	8	ASP8	0.294	
117	  HA	1908.723	578.417	-1965.179	 H	8	ASP8	0.088	
118	 2HB	1908.184	579.417	-1962.299	 H	8	ASP8	-0.012	
119	 3HB	1906.948	578.828	-1963.404	 H	8	ASP8	-0.012	
120	   N	1911.032	579.125	-1962.960	N.am	9	GLU9	-0.516	
121	  CA	1912.334	579.783	-1962.904	C.3	9	GLU9	0.040	
122	   C	1913.252	579.256	-1963.980	C.2	9	GLU9	0.537	
123	   O	1913.916	580.011	-1964.705	O.2	9	GLU9	-0.582	
124	  CB	1912.968	579.575	-1961.499	C.3	9	GLU9	0.056	
125	  CG	1914.350	580.268	-1961.269	C.3	9	GLU9	0.014	
126	  CD	1915.052	580.055	-1959.941	C.2	9	GLU9	0.805	
127	 OE1	1914.530	579.363	-1959.045	O.co2	9	GLU9	-0.819	
128	 OE2	1916.170	580.593	-1959.809	O.co2	9	GLU9	-0.819	
129	   H	1910.668	578.638	-1962.153	 H	9	GLU9	0.294	
130	  HA	1912.192	580.865	-1963.079	 H	9	GLU9	0.111	
131	 2HB	1913.081	578.491	-1961.296	 H	9	GLU9	-0.017	
132	 3HB	1912.270	579.928	-1960.714	 H	9	GLU9	-0.017	
133	 2HG	1914.278	581.359	-1961.408	 H	9	GLU9	-0.043	
134	 3HG	1915.097	579.923	-1962.003	 H	9	GLU9	-0.043	
135	   N	1913.349	577.981	-1964.150	N.am	10	HIS10	-0.416	
136	  CA	1914.238	577.470	-1965.190	C.3	10	HIS10	-0.058	
137	   C	1913.871	578.035	-1966.541	C.2	10	HIS10	0.597	
138	   O	1914.723	578.500	-1967.313	O.2	10	HIS10	-0.568	
139	  CB	1914.074	575.941	-1965.186	C.3	10	HIS10	-0.007	
140	  CG	1915.360	575.231	-1964.878	C.2	10	HIS10	0.187	
141	 CD2	1915.741	574.896	-1963.585	C.2	10	HIS10	-0.221	
142	 ND1	1916.312	574.826	-1965.810	N.2	10	HIS10	-0.543	
143	 CE1	1917.219	574.267	-1964.987	C.2	10	HIS10	0.163	
144	 NE2	1916.956	574.264	-1963.652	N.pl3	10	HIS10	-0.280	
145	   H	1912.819	577.345	-1963.572	 H	10	HIS10	0.272	
146	  HA	1915.257	577.828	-1964.965	 H	10	HIS10	0.136	
147	 2HB	1913.709	575.574	-1966.166	 H	10	HIS10	0.037	
148	 3HB	1913.318	575.604	-1964.446	 H	10	HIS10	0.037	
149	 2HD	1915.155	575.110	-1962.696	 H	10	HIS10	0.186	
150	 1HE	1918.110	573.847	-1965.434	 H	10	HIS10	0.144	
151	 2HE	1917.522	573.887	-1962.878	 H	10	HIS10	0.334	
152	   N	1912.633	578.034	-1966.904	N.am	11	VAL11	-0.416	
153	  CA	1912.278	578.580	-1968.211	C.3	11	VAL11	-0.087	
154	   C	1912.742	580.011	-1968.343	C.2	11	VAL11	0.597	
155	   O	1913.343	580.416	-1969.346	O.2	11	VAL11	-0.568	
156	  CB	1910.717	578.473	-1968.431	C.3	11	VAL11	0.299	
157	 CG1	1910.148	579.177	-1969.694	C.3	11	VAL11	-0.319	
158	 CG2	1910.193	577.018	-1968.505	C.3	11	VAL11	-0.319	
159	   H	1911.920	577.660	-1966.294	 H	11	VAL11	0.272	
160	  HA	1912.798	577.998	-1968.994	 H	11	VAL11	0.097	
161	  HB	1910.229	578.953	-1967.556	 H	11	VAL11	-0.030	
162	1HG1	1910.587	578.786	-1970.631	 H	11	VAL11	0.079	
163	2HG1	1909.050	579.069	-1969.776	 H	11	VAL11	0.079	
164	3HG1	1910.326	580.269	-1969.684	 H	11	VAL11	0.079	
165	1HG2	1910.483	576.431	-1967.614	 H	11	VAL11	0.079	
166	2HG2	1909.087	576.981	-1968.548	 H	11	VAL11	0.079	
167	3HG2	1910.575	576.478	-1969.391	 H	11	VAL11	0.079	
168	   N	1912.504	580.836	-1967.380	N.am	12	PHE12	-0.416	
169	  CA	1912.953	582.219	-1967.507	C.3	12	PHE12	-0.002	
170	   C	1914.443	582.287	-1967.745	C.2	12	PHE12	0.597	
171	   O	1914.943	583.015	-1968.647	O.2	12	PHE12	-0.568	
172	  CB	1912.614	583.012	-1966.208	C.3	12	PHE12	-0.034	
173	  CG	1911.133	583.056	-1965.799	C.2	12	PHE12	0.012	
174	 CD1	1910.611	582.044	-1964.986	C.2	12	PHE12	-0.126	
175	 CD2	1910.287	584.059	-1966.280	C.2	12	PHE12	-0.126	
176	 CE1	1909.255	582.025	-1964.674	C.2	12	PHE12	-0.170	
177	 CE2	1908.933	584.045	-1965.958	C.2	12	PHE12	-0.170	
178	  CZ	1908.417	583.027	-1965.158	C.2	12	PHE12	-0.107	
179	   H	1912.015	580.529	-1966.552	 H	12	PHE12	0.272	
180	  HA	1912.446	582.683	-1968.375	 H	12	PHE12	0.098	
181	 2HB	1912.980	584.054	-1966.307	 H	12	PHE12	0.030	
182	 3HB	1913.207	582.610	-1965.361	 H	12	PHE12	0.030	
183	 1HD	1911.250	581.246	-1964.633	 H	12	PHE12	0.133	
184	 2HD	1910.677	584.839	-1966.919	 H	12	PHE12	0.133	
185	 1HE	1908.856	581.223	-1964.071	 H	12	PHE12	0.143	
186	 2HE	1908.281	584.818	-1966.338	 H	12	PHE12	0.143	
187	  HZ	1907.365	583.007	-1964.918	 H	12	PHE12	0.130	
188	   N	1915.227	581.580	-1967.004	N.am	13	ARG13	-0.348	
189	  CA	1916.667	581.646	-1967.234	C.3	13	ARG13	-0.264	
190	   C	1917.004	581.275	-1968.659	C.2	13	ARG13	0.734	
191	   O	1917.773	581.947	-1969.343	O.2	13	ARG13	-0.589	
192	  CB	1917.380	580.706	-1966.220	C.3	13	ARG13	-0.001	
193	  CG	1918.925	580.859	-1966.139	C.3	13	ARG13	0.039	
194	  CD	1919.552	579.872	-1965.141	C.3	13	ARG13	0.049	
195	  NE	1921.029	580.079	-1965.090	N.pl3	13	ARG13	-0.530	
196	  CZ	1921.877	579.387	-1964.335	C.cat	13	ARG13	0.808	
197	 NH1	1921.512	578.422	-1963.538	N.pl3	13	ARG13	-0.863	
198	 NH2	1923.137	579.686	-1964.391	N.pl3	13	ARG13	-0.863	
199	   H	1914.851	580.990	-1966.276	 H	13	ARG13	0.275	
200	  HA	1916.992	582.692	-1967.075	 H	13	ARG13	0.156	
201	 2HB	1917.114	579.656	-1966.460	 H	13	ARG13	0.033	
202	 3HB	1916.955	580.873	-1965.210	 H	13	ARG13	0.033	
203	 2HG	1919.173	581.904	-1965.859	 H	13	ARG13	0.029	
204	 3HG	1919.376	580.704	-1967.140	 H	13	ARG13	0.029	
205	 2HD	1919.308	578.831	-1965.451	 H	13	ARG13	0.069	
206	 3HD	1919.095	580.017	-1964.139	 H	13	ARG13	0.069	
207	  HE	1921.481	580.801	-1965.661	 H	13	ARG13	0.346	
208	1HH1	1920.506	578.236	-1963.542	 H	13	ARG13	0.448	
209	2HH1	1922.225	577.939	-1962.989	 H	13	ARG13	0.448	
210	1HH2	1923.404	580.444	-1965.022	 H	13	ARG13	0.448	
211	2HH2	1923.772	579.144	-1963.803	 H	13	ARG13	0.448	
212	   N	1916.468	580.221	-1969.174	N.am	14	VAL14	-0.416	
213	  CA	1916.793	579.862	-1970.552	C.3	14	VAL14	-0.087	
214	   C	1916.464	580.992	-1971.497	C.2	14	VAL14	0.597	
215	   O	1917.258	581.374	-1972.366	O.2	14	VAL14	-0.568	
216	  CB	1916.021	578.545	-1970.959	C.3	14	VAL14	0.299	
217	 CG1	1916.111	578.127	-1972.453	C.3	14	VAL14	-0.319	
218	 CG2	1916.453	577.292	-1970.159	C.3	14	VAL14	-0.319	
219	   H	1915.833	579.652	-1968.633	 H	14	VAL14	0.272	
220	  HA	1917.882	579.685	-1970.626	 H	14	VAL14	0.097	
221	  HB	1914.945	578.716	-1970.744	 H	14	VAL14	-0.030	
222	1HG1	1917.152	577.950	-1972.781	 H	14	VAL14	0.079	
223	2HG1	1915.538	577.204	-1972.666	 H	14	VAL14	0.079	
224	3HG1	1915.682	578.889	-1973.131	 H	14	VAL14	0.079	
225	1HG2	1916.365	577.450	-1969.069	 H	14	VAL14	0.079	
226	2HG2	1915.817	576.416	-1970.392	 H	14	VAL14	0.079	
227	3HG2	1917.501	577.003	-1970.365	 H	14	VAL14	0.079	
228	   N	1915.319	581.578	-1971.396	N.am	15	MET15	-0.416	
229	  CA	1914.999	582.671	-1972.309	C.3	15	MET15	-0.024	
230	   C	1916.029	583.771	-1972.221	C.2	15	MET15	0.597	
231	   O	1916.532	584.282	-1973.233	O.2	15	MET15	-0.568	
232	  CB	1913.578	583.217	-1972.001	C.3	15	MET15	0.034	
233	  CG	1912.416	582.219	-1972.193	C.3	15	MET15	0.002	
234	  SD	1910.842	583.085	-1972.079	S.3	15	MET15	-0.274	
235	  CE	1909.760	581.655	-1971.944	C.3	15	MET15	-0.054	
236	   H	1914.654	581.285	-1970.694	 H	15	MET15	0.272	
237	  HA	1915.025	582.284	-1973.345	 H	15	MET15	0.088	
238	 2HB	1913.376	584.095	-1972.643	 H	15	MET15	0.024	
239	 3HB	1913.542	583.609	-1970.964	 H	15	MET15	0.024	
240	 2HG	1912.458	581.433	-1971.416	 H	15	MET15	0.044	
241	 3HG	1912.479	581.704	-1973.169	 H	15	MET15	0.044	
242	 1HE	1909.904	580.967	-1972.796	 H	15	MET15	0.068	
243	 2HE	1909.969	581.102	-1971.011	 H	15	MET15	0.068	
244	 3HE	1908.703	581.970	-1971.927	 H	15	MET15	0.068	
245	   N	1916.398	584.191	-1971.058	N.am	16	ARG16	-0.348	
246	  CA	1917.394	585.255	-1970.974	C.3	16	ARG16	-0.264	
247	   C	1918.665	584.863	-1971.689	C.2	16	ARG16	0.734	
248	   O	1918.779	583.786	-1972.271	O.2	16	ARG16	-0.589	
249	  CB	1917.663	585.572	-1969.475	C.3	16	ARG16	-0.001	
250	  CG	1918.488	586.861	-1969.202	C.3	16	ARG16	0.039	
251	  CD	1918.737	587.080	-1967.700	C.3	16	ARG16	0.049	
252	  NE	1919.513	588.339	-1967.498	N.pl3	16	ARG16	-0.530	
253	  CZ	1919.904	588.821	-1966.322	C.cat	16	ARG16	0.808	
254	 NH1	1919.656	588.236	-1965.184	N.pl3	16	ARG16	-0.863	
255	 NH2	1920.568	589.933	-1966.303	N.pl3	16	ARG16	-0.863	
256	   H	1916.003	583.791	-1970.219	 H	16	ARG16	0.275	
257	  HA	1916.985	586.148	-1971.483	 H	16	ARG16	0.156	
258	 2HB	1918.159	584.696	-1969.009	 H	16	ARG16	0.033	
259	 3HB	1916.694	585.653	-1968.942	 H	16	ARG16	0.033	
260	 2HG	1917.958	587.733	-1969.639	 H	16	ARG16	0.029	
261	 3HG	1919.462	586.809	-1969.730	 H	16	ARG16	0.029	
262	 2HD	1919.286	586.205	-1967.287	 H	16	ARG16	0.069	
263	 3HD	1917.764	587.123	-1967.165	 H	16	ARG16	0.069	
264	  HE	1919.792	588.920	-1968.295	 H	16	ARG16	0.346	
265	1HH1	1919.130	587.363	-1965.269	 H	16	ARG16	0.448	
266	2HH1	1919.990	588.671	-1964.323	 H	16	ARG16	0.448	
267	1HH2	1920.754	590.377	-1967.205	 H	16	ARG16	0.448	
268	2HH2	1920.858	590.288	-1965.391	 H	16	ARG16	0.448	
@<TRIPOS>BOND
1 1 2 1
2 1 10 1
3 2 3 1
4 2 5 1
5 2 11 1
6 3 4 2
7 3 16 1
8 5 6 1
9 6 7 1
10 7 8 2
11 7 9 1
12 5 12 1
13 5 13 1
14 6 14 1
15 6 15 1
16 16 17 1
17 16 24 1
18 17 18 1
19 17 20 1
20 17 25 1
21 18 19 2
22 18 30 1
23 20 21 1
24 21 22 1
25 21 23 2
26 20 26 1
27 20 27 1
28 22 28 1
29 22 29 1
30 30 31 1
31 30 36 1
32 31 32 1
33 31 34 1
34 31 37 1
35 32 33 2
36 32 44 1
37 34 35 1
38 35 36 1
39 34 38 1
40 34 39 1
41 35 40 1
42 35 41 1
43 36 42 1
44 36 43 1
45 44 45 1
46 44 53 1
47 45 46 1
48 45 48 1
49 45 54 1
50 46 47 2
51 46 59 1
52 48 49 1
53 49 50 1
54 50 51 2
55 50 52 1
56 48 55 1
57 48 56 1
58 49 57 1
59 49 58 1
60 59 60 1
61 59 65 1
62 60 61 1
63 60 63 1
64 60 66 1
65 61 62 2
66 61 70 1
67 63 64 1
68 63 67 1
69 63 68 1
70 64 69 1
71 70 71 1
72 70 78 1
73 71 72 1
74 71 74 1
75 71 79 1
76 72 73 2
77 72 89 1
78 74 75 1
79 74 76 1
80 75 77 1
81 74 80 1
82 75 81 1
83 75 82 1
84 76 83 1
85 76 84 1
86 76 85 1
87 77 86 1
88 77 87 1
89 77 88 1
90 89 90 1
91 89 97 1
92 90 91 1
93 90 93 1
94 90 98 1
95 91 92 2
96 91 108 1
97 93 94 1
98 94 95 1
99 94 96 1
100 93 99 1
101 93 100 1
102 94 101 1
103 95 102 1
104 95 103 1
105 95 104 1
106 96 105 1
107 96 106 1
108 96 107 1
109 108 109 1
110 108 116 1
111 109 110 1
112 109 112 1
113 109 117 1
114 110 111 2
115 110 120 1
116 112 113 1
117 113 114 2
118 113 115 1
119 112 118 1
120 112 119 1
121 120 121 1
122 120 129 1
123 121 122 1
124 121 124 1
125 121 130 1
126 122 123 2
127 122 135 1
128 124 125 1
129 125 126 1
130 126 127 2
131 126 128 1
132 124 131 1
133 124 132 1
134 125 133 1
135 125 134 1
136 135 136 1
137 135 145 1
138 136 137 1
139 136 139 1
140 136 146 1
141 137 138 2
142 137 152 1
143 139 140 1
144 140 141 2
145 141 144 1
146 140 142 1
147 142 143 2
148 143 144 1
149 139 147 1
150 139 148 1
151 141 149 1
152 143 150 1
153 144 151 1
154 152 153 1
155 152 159 1
156 153 154 1
157 153 156 1
158 153 160 1
159 154 155 2
160 154 168 1
161 156 157 1
162 156 158 1
163 156 161 1
164 157 162 1
165 157 163 1
166 157 164 1
167 158 165 1
168 158 166 1
169 158 167 1
170 168 169 1
171 168 179 1
172 169 170 1
173 169 172 1
174 169 180 1
175 170 171 2
176 170 188 1
177 172 173 1
178 173 174 2
179 173 175 1
180 175 177 2
181 174 176 1
182 177 178 1
183 176 178 2
184 172 181 1
185 172 182 1
186 174 183 1
187 175 184 1
188 176 185 1
189 177 186 1
190 178 187 1
191 188 189 1
192 188 199 1
193 189 190 1
194 189 192 1
195 189 200 1
196 190 191 2
197 190 212 1
198 192 193 1
199 193 194 1
200 194 195 1
201 195 196 1
202 196 197 2
203 196 198 1
204 192 201 1
205 192 202 1
206 193 203 1
207 193 204 1
208 194 205 1
209 194 206 1
210 195 207 1
211 197 208 1
212 197 209 1
213 198 210 1
214 198 211 1
215 212 213 1
216 212 219 1
217 213 214 1
218 213 216 1
219 213 220 1
220 214 215 2
221 214 228 1
222 216 217 1
223 216 218 1
224 216 221 1
225 217 222 1
226 217 223 1
227 217 224 1
228 218 225 1
229 218 226 1
230 218 227 1
231 228 229 1
232 228 236 1
233 229 230 1
234 229 232 1
235 229 237 1
236 230 231 2
237 230 245 1
238 232 233 1
239 233 234 1
240 234 235 1
241 232 238 1
242 232 239 1
243 233 240 1
244 233 241 1
245 235 242 1
246 235 243 1
247 235 244 1
248 245 246 1
249 245 256 1
250 246 247 1
251 246 249 1
252 246 257 1
253 247 248 2
254 249 250 1
255 250 251 1
256 251 252 1
257 252 253 1
258 253 254 2
259 253 255 1
260 249 258 1
261 249 259 1
262 250 260 1
263 250 261 1
264 251 262 1
265 251 263 1
266 252 264 1
267 254 265 1
268 254 266 1
269 255 267 1
270 255 268 1
@<TRIPOS>SUBSTRUCTURE
1	GLU1	1	RESIDUE	1 ****	GLU
2	ASN2	16	RESIDUE	1 ****	ASN
3	PRO3	30	RESIDUE	1 ****	PRO
4	GLU4	44	RESIDUE	1 ****	GLU
5	SER5	59	RESIDUE	1 ****	SER
6	ILE6	70	RESIDUE	1 ****	ILE
7	LEU7	89	RESIDUE	1 ****	LEU
8	ASP8	108	RESIDUE	1 ****	ASP
9	GLU9	120	RESIDUE	1 ****	GLU
10	HIS10	135	RESIDUE	1 ****	HIS
11	VAL11	152	RESIDUE	1 ****	VAL
12	PHE12	168	RESIDUE	1 ****	PHE
13	ARG13	188	RESIDUE	1 ****	ARG
14	VAL14	212	RESIDUE	1 ****	VAL
15	MET15	228	RESIDUE	1 ****	MET
16	ARG16	245	RESIDUE	1 ****	ARG
