@<TRIPOS>MOLECULE
14-7
268 269 16              
SMALL
USER_CHARGES
@<TRIPOS>ATOM
1	   N	2217.250	676.811	-2301.857	N.3	1	GLU1	-0.516	
2	  CA	2217.809	678.160	-2301.857	C.3	1	GLU1	0.040	
3	   C	2219.318	678.120	-2301.857	C.2	1	GLU1	0.537	
4	   O	2219.993	678.819	-2302.625	O.2	1	GLU1	-0.582	
5	  CB	2217.285	678.945	-2300.620	C.3	1	GLU1	0.056	
6	  CG	2217.760	680.430	-2300.509	C.3	1	GLU1	0.014	
7	  CD	2217.336	681.234	-2299.294	C.2	1	GLU1	0.805	
8	 OE1	2216.608	680.732	-2298.416	O.co2	1	GLU1	-0.819	
9	 OE2	2217.767	682.404	-2299.222	O.co2	1	GLU1	-0.819	
10	   H	2217.876	675.932	-2301.857	 H	1	GLU1	0.294	
11	  HA	2217.482	678.678	-2302.777	 H	1	GLU1	0.111	
12	 2HB	2217.574	678.414	-2299.690	 H	1	GLU1	-0.017	
13	 3HB	2216.178	678.935	-2300.607	 H	1	GLU1	-0.017	
14	 2HG	2217.450	681.015	-2301.390	 H	1	GLU1	-0.043	
15	 3HG	2218.861	680.497	-2300.480	 H	1	GLU1	-0.043	
16	   N	2219.922	677.334	-2301.032	N.am	2	ASN2	-0.416	
17	  CA	2221.381	677.295	-2301.031	C.3	2	ASN2	0.014	
18	   C	2221.913	676.940	-2302.400	C.2	2	ASN2	0.597	
19	   O	2222.828	677.570	-2302.928	O.2	2	ASN2	-0.568	
20	  CB	2221.873	676.272	-2299.967	C.3	2	ASN2	-0.204	
21	  CG	2221.410	676.496	-2298.524	C.2	2	ASN2	0.713	
22	 ND2	2222.004	677.411	-2297.805	N.pl3	2	ASN2	-0.919	
23	 OD1	2220.489	675.863	-2298.030	O.2	2	ASN2	-0.593	
24	   H	2219.394	676.755	-2300.395	 H	2	ASN2	0.272	
25	  HA	2221.759	678.305	-2300.786	 H	2	ASN2	0.105	
26	 2HB	2222.977	676.213	-2299.970	 H	2	ASN2	0.080	
27	 3HB	2221.544	675.254	-2300.253	 H	2	ASN2	0.080	
28	1HD2	2221.523	677.584	-2296.919	 H	2	ASN2	0.420	
29	2HD2	2222.706	677.983	-2298.274	 H	2	ASN2	0.420	
30	   N	2221.391	675.945	-2303.034	N.am	3	PRO3	-0.255	
31	  CA	2221.844	675.536	-2304.356	C.3	3	PRO3	-0.027	
32	   C	2221.446	676.559	-2305.433	C.2	3	PRO3	0.590	
33	   O	2222.269	676.942	-2306.264	O.2	3	PRO3	-0.575	
34	  CB	2221.139	674.181	-2304.525	C.3	3	PRO3	-0.007	
35	  CG	2219.855	674.333	-2303.696	C.3	3	PRO3	0.019	
36	  CD	2220.313	675.152	-2302.486	C.3	3	PRO3	0.019	
37	  HA	2222.929	675.415	-2304.369	 H	3	PRO3	0.064	
38	 2HB	2221.762	673.400	-2304.084	 H	3	PRO3	0.025	
39	 3HB	2220.941	673.933	-2305.571	 H	3	PRO3	0.025	
40	 2HG	2219.428	673.371	-2303.405	 H	3	PRO3	0.021	
41	 3HG	2219.118	674.905	-2304.263	 H	3	PRO3	0.021	
42	 2HD	2220.702	674.502	-2301.698	 H	3	PRO3	0.039	
43	 3HD	2219.516	675.788	-2302.093	 H	3	PRO3	0.039	
44	   N	2220.241	677.019	-2305.466	N.am	4	GLU4	-0.516	
45	  CA	2219.882	677.990	-2306.495	C.3	4	GLU4	0.040	
46	   C	2220.781	679.201	-2306.434	C.2	4	GLU4	0.537	
47	   O	2221.308	679.681	-2307.448	O.2	4	GLU4	-0.582	
48	  CB	2218.393	678.410	-2306.326	C.3	4	GLU4	0.056	
49	  CG	2217.846	679.413	-2307.391	C.3	4	GLU4	0.014	
50	  CD	2216.419	679.910	-2307.248	C.2	4	GLU4	0.805	
51	 OE1	2215.693	679.512	-2306.318	O.co2	4	GLU4	-0.819	
52	 OE2	2216.031	680.740	-2308.097	O.co2	4	GLU4	-0.819	
53	   H	2219.556	676.713	-2304.789	 H	4	GLU4	0.294	
54	  HA	2220.013	677.520	-2307.487	 H	4	GLU4	0.111	
55	 2HB	2218.240	678.849	-2305.319	 H	4	GLU4	-0.017	
56	 3HB	2217.745	677.512	-2306.332	 H	4	GLU4	-0.017	
57	 2HG	2217.928	678.998	-2308.409	 H	4	GLU4	-0.043	
58	 3HG	2218.434	680.345	-2307.402	 H	4	GLU4	-0.043	
59	   N	2221.008	679.754	-2305.291	N.am	5	SER5	-0.416	
60	  CA	2221.878	680.925	-2305.232	C.3	5	SER5	-0.025	
61	   C	2223.237	680.619	-2305.817	C.2	5	SER5	0.597	
62	   O	2223.785	681.372	-2306.622	O.2	5	SER5	-0.568	
63	  CB	2221.989	681.457	-2303.781	C.3	5	SER5	0.212	
64	  OG	2222.720	680.577	-2302.920	O.3	5	SER5	-0.655	
65	   H	2220.591	679.382	-2304.449	 H	5	SER5	0.272	
66	  HA	2221.429	681.715	-2305.861	 H	5	SER5	0.084	
67	 2HB	2220.989	681.651	-2303.348	 H	5	SER5	0.035	
68	 3HB	2222.495	682.443	-2303.783	 H	5	SER5	0.035	
69	  HG	2222.231	679.753	-2302.869	 H	5	SER5	0.428	
70	   N	2223.841	679.535	-2305.463	N.am	6	ILE6	-0.416	
71	  CA	2225.154	679.240	-2306.029	C.3	6	ILE6	-0.060	
72	   C	2225.097	679.202	-2307.536	C.2	6	ILE6	0.597	
73	   O	2225.932	679.790	-2308.240	O.2	6	ILE6	-0.568	
74	  CB	2225.753	677.904	-2305.428	C.3	6	ILE6	0.130	
75	 CG1	2225.772	677.841	-2303.867	C.3	6	ILE6	-0.043	
76	 CG2	2227.195	677.601	-2305.943	C.3	6	ILE6	-0.320	
77	 CD1	2226.042	676.452	-2303.252	C.3	6	ILE6	-0.066	
78	   H	2223.412	678.901	-2304.804	 H	6	ILE6	0.272	
79	  HA	2225.829	680.074	-2305.761	 H	6	ILE6	0.087	
80	  HB	2225.095	677.078	-2305.773	 H	6	ILE6	0.019	
81	2HG1	2224.790	678.161	-2303.472	 H	6	ILE6	0.024	
82	3HG1	2226.488	678.583	-2303.462	 H	6	ILE6	0.024	
83	1HG2	2227.254	677.508	-2307.042	 H	6	ILE6	0.088	
84	2HG2	2227.917	678.383	-2305.641	 H	6	ILE6	0.088	
85	3HG2	2227.584	676.639	-2305.564	 H	6	ILE6	0.088	
86	1HD1	2225.313	675.698	-2303.607	 H	6	ILE6	0.019	
87	2HD1	2227.052	676.073	-2303.488	 H	6	ILE6	0.019	
88	3HD1	2225.965	676.482	-2302.150	 H	6	ILE6	0.019	
89	   N	2224.151	678.539	-2308.110	N.am	7	LEU7	-0.416	
90	  CA	2224.096	678.503	-2309.568	C.3	7	LEU7	-0.052	
91	   C	2224.024	679.898	-2310.141	C.2	7	LEU7	0.597	
92	   O	2224.745	680.260	-2311.084	O.2	7	LEU7	-0.568	
93	  CB	2222.893	677.643	-2310.049	C.3	7	LEU7	-0.110	
94	  CG	2222.820	676.164	-2309.582	C.3	7	LEU7	0.353	
95	 CD1	2221.630	675.458	-2310.248	C.3	7	LEU7	-0.412	
96	 CD2	2224.113	675.384	-2309.874	C.3	7	LEU7	-0.412	
97	   H	2223.459	678.052	-2307.559	 H	7	LEU7	0.272	
98	  HA	2225.038	678.063	-2309.943	 H	7	LEU7	0.092	
99	 2HB	2222.870	677.659	-2311.156	 H	7	LEU7	0.046	
100	 3HB	2221.953	678.146	-2309.745	 H	7	LEU7	0.046	
101	  HG	2222.650	676.156	-2308.485	 H	7	LEU7	-0.036	
102	1HD1	2220.672	675.968	-2310.025	 H	7	LEU7	0.100	
103	2HD1	2221.729	675.418	-2311.349	 H	7	LEU7	0.100	
104	3HD1	2221.522	674.417	-2309.892	 H	7	LEU7	0.100	
105	1HD2	2224.388	675.414	-2310.944	 H	7	LEU7	0.100	
106	2HD2	2224.966	675.795	-2309.302	 H	7	LEU7	0.100	
107	3HD2	2224.031	674.322	-2309.578	 H	7	LEU7	0.100	
108	   N	2223.187	680.740	-2309.635	N.am	8	ASP8	-0.516	
109	  CA	2223.117	682.089	-2310.189	C.3	8	ASP8	0.038	
110	   C	2224.465	682.768	-2310.133	C.2	8	ASP8	0.537	
111	   O	2224.938	683.372	-2311.108	O.2	8	ASP8	-0.582	
112	  CB	2222.040	682.929	-2309.448	C.3	8	ASP8	-0.030	
113	  CG	2221.822	684.349	-2309.990	C.2	8	ASP8	0.799	
114	 OD1	2221.886	684.548	-2311.221	O.co2	8	ASP8	-0.801	
115	 OD2	2221.630	685.276	-2309.175	O.co2	8	ASP8	-0.801	
116	   H	2222.589	680.469	-2308.868	 H	8	ASP8	0.294	
117	  HA	2222.834	682.010	-2311.257	 H	8	ASP8	0.088	
118	 2HB	2222.297	683.013	-2308.377	 H	8	ASP8	-0.012	
119	 3HB	2221.061	682.424	-2309.481	 H	8	ASP8	-0.012	
120	   N	2225.145	682.718	-2309.038	N.am	9	GLU9	-0.516	
121	  CA	2226.448	683.375	-2308.983	C.3	9	GLU9	0.040	
122	   C	2227.365	682.847	-2310.059	C.2	9	GLU9	0.537	
123	   O	2228.029	683.600	-2310.785	O.2	9	GLU9	-0.582	
124	  CB	2227.081	683.168	-2307.578	C.3	9	GLU9	0.056	
125	  CG	2228.464	683.860	-2307.349	C.3	9	GLU9	0.014	
126	  CD	2229.166	683.647	-2306.021	C.2	9	GLU9	0.805	
127	 OE1	2228.645	682.957	-2305.124	O.co2	9	GLU9	-0.819	
128	 OE2	2230.286	684.184	-2305.889	O.co2	9	GLU9	-0.819	
129	   H	2224.781	682.233	-2308.230	 H	9	GLU9	0.294	
130	  HA	2226.306	684.457	-2309.159	 H	9	GLU9	0.111	
131	 2HB	2227.194	682.084	-2307.374	 H	9	GLU9	-0.017	
132	 3HB	2226.385	683.522	-2306.793	 H	9	GLU9	-0.017	
133	 2HG	2228.393	684.950	-2307.489	 H	9	GLU9	-0.043	
134	 3HG	2229.211	683.514	-2308.083	 H	9	GLU9	-0.043	
135	   N	2227.461	681.571	-2310.228	N.am	10	HIS10	-0.416	
136	  CA	2228.348	681.059	-2311.268	C.3	10	HIS10	-0.058	
137	   C	2227.981	681.623	-2312.619	C.2	10	HIS10	0.597	
138	   O	2228.834	682.087	-2313.392	O.2	10	HIS10	-0.568	
139	  CB	2228.184	679.530	-2311.262	C.3	10	HIS10	-0.007	
140	  CG	2229.469	678.819	-2310.954	C.2	10	HIS10	0.187	
141	 CD2	2229.851	678.485	-2309.662	C.2	10	HIS10	-0.221	
142	 ND1	2230.421	678.413	-2311.887	N.2	10	HIS10	-0.543	
143	 CE1	2231.327	677.855	-2311.064	C.2	10	HIS10	0.163	
144	 NE2	2231.065	677.853	-2309.729	N.pl3	10	HIS10	-0.280	
145	   H	2226.930	680.936	-2309.649	 H	10	HIS10	0.272	
146	  HA	2229.368	681.416	-2311.044	 H	10	HIS10	0.136	
147	 2HB	2227.818	679.163	-2312.242	 H	10	HIS10	0.037	
148	 3HB	2227.428	679.194	-2310.522	 H	10	HIS10	0.037	
149	 2HD	2229.265	678.701	-2308.773	 H	10	HIS10	0.186	
150	 1HE	2232.218	677.433	-2311.511	 H	10	HIS10	0.144	
151	 2HE	2231.632	677.476	-2308.955	 H	10	HIS10	0.334	
152	   N	2226.744	681.623	-2312.982	N.am	11	VAL11	-0.416	
153	  CA	2226.388	682.168	-2314.289	C.3	11	VAL11	-0.087	
154	   C	2226.854	683.599	-2314.423	C.2	11	VAL11	0.597	
155	   O	2227.455	684.003	-2315.426	O.2	11	VAL11	-0.568	
156	  CB	2224.827	682.062	-2314.508	C.3	11	VAL11	0.299	
157	 CG1	2224.259	682.766	-2315.771	C.3	11	VAL11	-0.319	
158	 CG2	2224.302	680.608	-2314.580	C.3	11	VAL11	-0.319	
159	   H	2226.031	681.251	-2312.371	 H	11	VAL11	0.272	
160	  HA	2226.908	681.585	-2315.072	 H	11	VAL11	0.097	
161	  HB	2224.340	682.543	-2313.633	 H	11	VAL11	-0.030	
162	1HG1	2224.697	682.373	-2316.708	 H	11	VAL11	0.079	
163	2HG1	2223.160	682.659	-2315.853	 H	11	VAL11	0.079	
164	3HG1	2224.438	683.858	-2315.763	 H	11	VAL11	0.079	
165	1HG2	2224.592	680.022	-2313.689	 H	11	VAL11	0.079	
166	2HG2	2223.196	680.572	-2314.623	 H	11	VAL11	0.079	
167	3HG2	2224.683	680.067	-2315.467	 H	11	VAL11	0.079	
168	   N	2226.617	684.425	-2313.460	N.am	12	GLN12	-0.416	
169	  CA	2227.067	685.807	-2313.588	C.3	12	GLN12	-0.003	
170	   C	2228.556	685.874	-2313.827	C.2	12	GLN12	0.597	
171	   O	2229.044	686.581	-2314.706	O.2	12	GLN12	-0.568	
172	  CB	2226.676	686.576	-2312.306	C.3	12	GLN12	-0.004	
173	  CG	2227.038	688.097	-2312.276	C.3	12	GLN12	-0.064	
174	  CD	2226.736	688.912	-2311.011	C.2	12	GLN12	0.695	
175	 NE2	2226.169	688.336	-2309.982	N.pl3	12	GLN12	-0.941	
176	 OE1	2227.039	690.093	-2310.935	O.2	12	GLN12	-0.609	
177	   H	2226.129	684.119	-2312.631	 H	12	GLN12	0.272	
178	  HA	2226.567	686.264	-2314.464	 H	12	GLN12	0.085	
179	 2HB	2227.152	686.076	-2311.437	 H	12	GLN12	0.017	
180	 3HB	2225.586	686.469	-2312.143	 H	12	GLN12	0.017	
181	 2HG	2226.560	688.618	-2313.127	 H	12	GLN12	0.035	
182	 3HG	2228.121	688.239	-2312.442	 H	12	GLN12	0.035	
183	1HE2	2226.062	688.931	-2309.159	 H	12	GLN12	0.425	
184	2HE2	2226.005	687.333	-2310.085	 H	12	GLN12	0.425	
185	   N	2229.341	685.167	-2313.085	N.am	13	ARG13	-0.348	
186	  CA	2230.781	685.232	-2313.317	C.3	13	ARG13	-0.264	
187	   C	2231.117	684.860	-2314.741	C.2	13	ARG13	0.734	
188	   O	2231.886	685.531	-2315.426	O.2	13	ARG13	-0.589	
189	  CB	2231.494	684.294	-2312.302	C.3	13	ARG13	-0.001	
190	  CG	2233.040	684.447	-2312.222	C.3	13	ARG13	0.039	
191	  CD	2233.667	683.460	-2311.224	C.3	13	ARG13	0.049	
192	  NE	2235.144	683.666	-2311.174	N.pl3	13	ARG13	-0.530	
193	  CZ	2235.992	682.975	-2310.418	C.cat	13	ARG13	0.808	
194	 NH1	2235.627	682.012	-2309.620	N.pl3	13	ARG13	-0.863	
195	 NH2	2237.251	683.274	-2310.476	N.pl3	13	ARG13	-0.863	
196	   H	2228.965	684.578	-2312.356	 H	13	ARG13	0.275	
197	  HA	2231.106	686.278	-2313.159	 H	13	ARG13	0.156	
198	 2HB	2231.228	683.243	-2312.541	 H	13	ARG13	0.033	
199	 3HB	2231.070	684.461	-2311.292	 H	13	ARG13	0.033	
200	 2HG	2233.288	685.492	-2311.943	 H	13	ARG13	0.029	
201	 3HG	2233.490	684.290	-2313.223	 H	13	ARG13	0.029	
202	 2HD	2233.422	682.419	-2311.532	 H	13	ARG13	0.069	
203	 3HD	2233.211	683.606	-2310.221	 H	13	ARG13	0.069	
204	  HE	2235.595	684.388	-2311.745	 H	13	ARG13	0.346	
205	1HH1	2234.621	681.826	-2309.623	 H	13	ARG13	0.448	
206	2HH1	2236.340	681.529	-2309.071	 H	13	ARG13	0.448	
207	1HH2	2237.519	684.031	-2311.107	 H	13	ARG13	0.448	
208	2HH2	2237.887	682.732	-2309.887	 H	13	ARG13	0.448	
209	   N	2230.580	683.805	-2315.255	N.am	14	LEU14	-0.416	
210	  CA	2230.905	683.446	-2316.633	C.3	14	LEU14	-0.052	
211	   C	2230.575	684.576	-2317.578	C.2	14	LEU14	0.597	
212	   O	2231.371	684.958	-2318.449	O.2	14	LEU14	-0.568	
213	  CB	2230.165	682.142	-2317.045	C.3	14	LEU14	-0.110	
214	  CG	2230.412	680.862	-2316.201	C.3	14	LEU14	0.353	
215	 CD1	2229.686	679.666	-2316.831	C.3	14	LEU14	-0.412	
216	 CD2	2231.906	680.536	-2316.041	C.3	14	LEU14	-0.412	
217	   H	2229.945	683.237	-2314.713	 H	14	LEU14	0.272	
218	  HA	2231.997	683.290	-2316.705	 H	14	LEU14	0.092	
219	 2HB	2230.416	681.915	-2318.101	 H	14	LEU14	0.046	
220	 3HB	2229.075	682.341	-2317.057	 H	14	LEU14	0.046	
221	  HG	2229.983	681.028	-2315.191	 H	14	LEU14	-0.036	
222	1HD1	2228.598	679.847	-2316.924	 H	14	LEU14	0.100	
223	2HD1	2230.064	679.431	-2317.844	 H	14	LEU14	0.100	
224	3HD1	2229.801	678.752	-2316.219	 H	14	LEU14	0.100	
225	1HD2	2232.419	680.433	-2317.015	 H	14	LEU14	0.100	
226	2HD2	2232.431	681.327	-2315.474	 H	14	LEU14	0.100	
227	3HD2	2232.067	679.599	-2315.477	 H	14	LEU14	0.100	
228	   N	2229.430	685.162	-2317.476	N.am	15	MET15	-0.416	
229	  CA	2229.110	686.255	-2318.389	C.3	15	MET15	-0.024	
230	   C	2230.141	687.354	-2318.301	C.2	15	MET15	0.597	
231	   O	2230.644	687.865	-2319.313	O.2	15	MET15	-0.568	
232	  CB	2227.689	686.801	-2318.080	C.3	15	MET15	0.034	
233	  CG	2226.527	685.803	-2318.272	C.3	15	MET15	0.002	
234	  SD	2224.953	686.670	-2318.157	S.3	15	MET15	-0.274	
235	  CE	2223.871	685.240	-2318.021	C.3	15	MET15	-0.054	
236	   H	2228.766	684.869	-2316.774	 H	15	MET15	0.272	
237	  HA	2229.136	685.868	-2319.425	 H	15	MET15	0.088	
238	 2HB	2227.487	687.680	-2318.722	 H	15	MET15	0.024	
239	 3HB	2227.654	687.193	-2317.043	 H	15	MET15	0.024	
240	 2HG	2226.570	685.017	-2317.494	 H	15	MET15	0.044	
241	 3HG	2226.589	685.288	-2319.248	 H	15	MET15	0.044	
242	 1HE	2224.015	684.552	-2318.873	 H	15	MET15	0.068	
243	 2HE	2224.081	684.687	-2317.088	 H	15	MET15	0.068	
244	 3HE	2222.814	685.555	-2318.004	 H	15	MET15	0.068	
245	   N	2230.510	687.775	-2317.139	N.am	16	ARG16	-0.348	
246	  CA	2231.506	688.838	-2317.055	C.3	16	ARG16	-0.264	
247	   C	2232.777	688.446	-2317.771	C.2	16	ARG16	0.734	
248	   O	2232.891	687.370	-2318.353	O.2	16	ARG16	-0.589	
249	  CB	2231.775	689.156	-2315.556	C.3	16	ARG16	-0.001	
250	  CG	2232.601	690.445	-2315.282	C.3	16	ARG16	0.039	
251	  CD	2232.850	690.663	-2313.781	C.3	16	ARG16	0.049	
252	  NE	2233.626	691.922	-2313.580	N.pl3	16	ARG16	-0.530	
253	  CZ	2234.018	692.404	-2312.404	C.cat	16	ARG16	0.808	
254	 NH1	2233.769	691.819	-2311.265	N.pl3	16	ARG16	-0.863	
255	 NH2	2234.682	693.516	-2312.385	N.pl3	16	ARG16	-0.863	
256	   H	2230.115	687.375	-2316.300	 H	16	ARG16	0.275	
257	  HA	2231.098	689.732	-2317.564	 H	16	ARG16	0.156	
258	 2HB	2232.272	688.280	-2315.090	 H	16	ARG16	0.033	
259	 3HB	2230.806	689.237	-2315.022	 H	16	ARG16	0.033	
260	 2HG	2232.070	691.316	-2315.719	 H	16	ARG16	0.029	
261	 3HG	2233.574	690.391	-2315.811	 H	16	ARG16	0.029	
262	 2HD	2233.398	689.788	-2313.368	 H	16	ARG16	0.069	
263	 3HD	2231.877	690.706	-2313.246	 H	16	ARG16	0.069	
264	  HE	2233.905	692.503	-2314.376	 H	16	ARG16	0.346	
265	1HH1	2233.243	690.946	-2311.350	 H	16	ARG16	0.448	
266	2HH1	2234.104	692.254	-2310.404	 H	16	ARG16	0.448	
267	1HH2	2234.867	693.959	-2313.286	 H	16	ARG16	0.448	
268	2HH2	2234.972	693.871	-2311.472	 H	16	ARG16	0.448	
@<TRIPOS>BOND
1 1 2 1
2 1 10 1
3 2 3 1
4 2 5 1
5 2 11 1
6 3 4 2
7 3 16 1
8 5 6 1
9 6 7 1
10 7 8 2
11 7 9 1
12 5 12 1
13 5 13 1
14 6 14 1
15 6 15 1
16 16 17 1
17 16 24 1
18 17 18 1
19 17 20 1
20 17 25 1
21 18 19 2
22 18 30 1
23 20 21 1
24 21 22 1
25 21 23 2
26 20 26 1
27 20 27 1
28 22 28 1
29 22 29 1
30 30 31 1
31 30 36 1
32 31 32 1
33 31 34 1
34 31 37 1
35 32 33 2
36 32 44 1
37 34 35 1
38 35 36 1
39 34 38 1
40 34 39 1
41 35 40 1
42 35 41 1
43 36 42 1
44 36 43 1
45 44 45 1
46 44 53 1
47 45 46 1
48 45 48 1
49 45 54 1
50 46 47 2
51 46 59 1
52 48 49 1
53 49 50 1
54 50 51 2
55 50 52 1
56 48 55 1
57 48 56 1
58 49 57 1
59 49 58 1
60 59 60 1
61 59 65 1
62 60 61 1
63 60 63 1
64 60 66 1
65 61 62 2
66 61 70 1
67 63 64 1
68 63 67 1
69 63 68 1
70 64 69 1
71 70 71 1
72 70 78 1
73 71 72 1
74 71 74 1
75 71 79 1
76 72 73 2
77 72 89 1
78 74 75 1
79 74 76 1
80 75 77 1
81 74 80 1
82 75 81 1
83 75 82 1
84 76 83 1
85 76 84 1
86 76 85 1
87 77 86 1
88 77 87 1
89 77 88 1
90 89 90 1
91 89 97 1
92 90 91 1
93 90 93 1
94 90 98 1
95 91 92 2
96 91 108 1
97 93 94 1
98 94 95 1
99 94 96 1
100 93 99 1
101 93 100 1
102 94 101 1
103 95 102 1
104 95 103 1
105 95 104 1
106 96 105 1
107 96 106 1
108 96 107 1
109 108 109 1
110 108 116 1
111 109 110 1
112 109 112 1
113 109 117 1
114 110 111 2
115 110 120 1
116 112 113 1
117 113 114 2
118 113 115 1
119 112 118 1
120 112 119 1
121 120 121 1
122 120 129 1
123 121 122 1
124 121 124 1
125 121 130 1
126 122 123 2
127 122 135 1
128 124 125 1
129 125 126 1
130 126 127 2
131 126 128 1
132 124 131 1
133 124 132 1
134 125 133 1
135 125 134 1
136 135 136 1
137 135 145 1
138 136 137 1
139 136 139 1
140 136 146 1
141 137 138 2
142 137 152 1
143 139 140 1
144 140 141 2
145 141 144 1
146 140 142 1
147 142 143 2
148 143 144 1
149 139 147 1
150 139 148 1
151 141 149 1
152 143 150 1
153 144 151 1
154 152 153 1
155 152 159 1
156 153 154 1
157 153 156 1
158 153 160 1
159 154 155 2
160 154 168 1
161 156 157 1
162 156 158 1
163 156 161 1
164 157 162 1
165 157 163 1
166 157 164 1
167 158 165 1
168 158 166 1
169 158 167 1
170 168 169 1
171 168 177 1
172 169 170 1
173 169 172 1
174 169 178 1
175 170 171 2
176 170 185 1
177 172 173 1
178 173 174 1
179 174 175 1
180 174 176 2
181 172 179 1
182 172 180 1
183 173 181 1
184 173 182 1
185 175 183 1
186 175 184 1
187 185 186 1
188 185 196 1
189 186 187 1
190 186 189 1
191 186 197 1
192 187 188 2
193 187 209 1
194 189 190 1
195 190 191 1
196 191 192 1
197 192 193 1
198 193 194 2
199 193 195 1
200 189 198 1
201 189 199 1
202 190 200 1
203 190 201 1
204 191 202 1
205 191 203 1
206 192 204 1
207 194 205 1
208 194 206 1
209 195 207 1
210 195 208 1
211 209 210 1
212 209 217 1
213 210 211 1
214 210 213 1
215 210 218 1
216 211 212 2
217 211 228 1
218 213 214 1
219 214 215 1
220 214 216 1
221 213 219 1
222 213 220 1
223 214 221 1
224 215 222 1
225 215 223 1
226 215 224 1
227 216 225 1
228 216 226 1
229 216 227 1
230 228 229 1
231 228 236 1
232 229 230 1
233 229 232 1
234 229 237 1
235 230 231 2
236 230 245 1
237 232 233 1
238 233 234 1
239 234 235 1
240 232 238 1
241 232 239 1
242 233 240 1
243 233 241 1
244 235 242 1
245 235 243 1
246 235 244 1
247 245 246 1
248 245 256 1
249 246 247 1
250 246 249 1
251 246 257 1
252 247 248 2
253 249 250 1
254 250 251 1
255 251 252 1
256 252 253 1
257 253 254 2
258 253 255 1
259 249 258 1
260 249 259 1
261 250 260 1
262 250 261 1
263 251 262 1
264 251 263 1
265 252 264 1
266 254 265 1
267 254 266 1
268 255 267 1
269 255 268 1
@<TRIPOS>SUBSTRUCTURE
1	GLU1	1	RESIDUE	1 ****	GLU
2	ASN2	16	RESIDUE	1 ****	ASN
3	PRO3	30	RESIDUE	1 ****	PRO
4	GLU4	44	RESIDUE	1 ****	GLU
5	SER5	59	RESIDUE	1 ****	SER
6	ILE6	70	RESIDUE	1 ****	ILE
7	LEU7	89	RESIDUE	1 ****	LEU
8	ASP8	108	RESIDUE	1 ****	ASP
9	GLU9	120	RESIDUE	1 ****	GLU
10	HIS10	135	RESIDUE	1 ****	HIS
11	VAL11	152	RESIDUE	1 ****	VAL
12	GLN12	168	RESIDUE	1 ****	GLN
13	ARG13	185	RESIDUE	1 ****	ARG
14	LEU14	209	RESIDUE	1 ****	LEU
15	MET15	228	RESIDUE	1 ****	MET
16	ARG16	245	RESIDUE	1 ****	ARG
