REMARK WARNING: 32 MAX_TORS EXCEEDED!!!
REMARK  67 active torsions:
REMARK  status: ('A' for Active; 'I' for Inactive)
REMARK    1  A    between atoms: N_1  and  CA_2 
REMARK    2  A    between atoms: CA_2  and  C_3 
REMARK    3  A    between atoms: CA_2  and  CB_5 
REMARK       I    between atoms: C_3  and  N_11 
REMARK    4  A    between atoms: CB_5  and  CG_6 
REMARK    5  A    between atoms: CG_6  and  CD_7 
REMARK    6  A    between atoms: N_11  and  CA_12 
REMARK    7  A    between atoms: CA_12  and  C_13 
REMARK    8  A    between atoms: CA_12  and  CB_15 
REMARK       I    between atoms: C_13  and  N_22 
REMARK    9  A    between atoms: CB_15  and  CG_16 
REMARK       I    between atoms: CG_16  and  ND2_17 
REMARK   10  A    between atoms: CA_23  and  C_24 
REMARK       I    between atoms: C_24  and  N_29 
REMARK   11  A    between atoms: N_29  and  CA_30 
REMARK   12  A    between atoms: CA_30  and  C_31 
REMARK   13  A    between atoms: CA_30  and  CB_33 
REMARK       I    between atoms: C_31  and  N_39 
REMARK   14  A    between atoms: CB_33  and  CG_34 
REMARK   15  A    between atoms: CG_34  and  CD_35 
REMARK   16  A    between atoms: N_39  and  CA_40 
REMARK   17  A    between atoms: CA_40  and  C_41 
REMARK   18  A    between atoms: CA_40  and  CB_43 
REMARK       I    between atoms: C_41  and  N_47 
REMARK   19  A    between atoms: CB_43  and  OG_44 
REMARK   20  A    between atoms: N_47  and  CA_48 
REMARK   21  A    between atoms: CA_48  and  C_49 
REMARK   22  A    between atoms: CA_48  and  CB_51 
REMARK       I    between atoms: C_49  and  N_56 
REMARK   23  A    between atoms: CB_51  and  CG1_52 
REMARK   24  A    between atoms: N_56  and  CA_57 
REMARK   25  A    between atoms: CA_57  and  C_58 
REMARK   26  A    between atoms: CA_57  and  CB_60 
REMARK       I    between atoms: C_58  and  N_65 
REMARK   27  A    between atoms: CB_60  and  CG_61 
REMARK   28  A    between atoms: N_65  and  CA_66 
REMARK   29  A    between atoms: CA_66  and  C_67 
REMARK   30  A    between atoms: CA_66  and  CB_69 
REMARK       I    between atoms: C_67  and  N_74 
REMARK   31  A    between atoms: CB_69  and  CG_70 
REMARK   32  A    between atoms: N_74  and  CA_75 
REMARK   33  A    between atoms: CA_75  and  C_76 
REMARK   34  A    between atoms: CA_75  and  CB_78 
REMARK       I    between atoms: C_76  and  N_84 
REMARK   35  A    between atoms: CB_78  and  CG_79 
REMARK   36  A    between atoms: CG_79  and  CD_80 
REMARK   37  A    between atoms: N_84  and  CA_85 
REMARK   38  A    between atoms: CA_85  and  C_86 
REMARK   39  A    between atoms: CA_85  and  CB_88 
REMARK       I    between atoms: C_86  and  N_96 
REMARK   40  A    between atoms: CB_88  and  CG_89 
REMARK   41  A    between atoms: N_96  and  CA_97 
REMARK   42  A    between atoms: CA_97  and  C_98 
REMARK   43  A    between atoms: CA_97  and  CB_100 
REMARK       I    between atoms: C_98  and  N_104 
REMARK   44  A    between atoms: N_104  and  CA_105 
REMARK   45  A    between atoms: CA_105  and  C_106 
REMARK   46  A    between atoms: CA_105  and  CB_108 
REMARK       I    between atoms: C_106  and  N_116 
REMARK   47  A    between atoms: CB_108  and  CG_109 
REMARK   48  A    between atoms: CG_109  and  CD_110 
REMARK       I    between atoms: CD_110  and  NE2_111 
REMARK   49  A    between atoms: N_116  and  CA_117 
REMARK   50  A    between atoms: CA_117  and  C_118 
REMARK   51  A    between atoms: CA_117  and  CB_120 
REMARK       I    between atoms: C_118  and  N_133 
REMARK   52  A    between atoms: CB_120  and  CG_121 
REMARK   53  A    between atoms: CG_121  and  CD_122 
REMARK   54  A    between atoms: CD_122  and  NE_123 
REMARK       I    between atoms: NE_123  and  CZ_124 
REMARK       I    between atoms: CZ_124  and  NH1_125 
REMARK       I    between atoms: CZ_124  and  NH2_126 
REMARK   55  A    between atoms: N_133  and  CA_134 
REMARK   56  A    between atoms: CA_134  and  C_135 
REMARK   57  A    between atoms: CA_134  and  CB_137 
REMARK       I    between atoms: C_135  and  N_141 
REMARK   58  A    between atoms: N_141  and  CA_142 
REMARK   59  A    between atoms: CA_142  and  C_143 
REMARK   60  A    between atoms: CA_142  and  CB_145 
REMARK       I    between atoms: C_143  and  N_149 
REMARK   61  A    between atoms: CB_145  and  OG_146 
REMARK   62  A    between atoms: N_149  and  CA_150 
REMARK   63  A    between atoms: CA_150  and  C_151 
REMARK   64  A    between atoms: CA_150  and  CB_153 
REMARK   65  A    between atoms: CB_153  and  CG_154 
REMARK   66  A    between atoms: CG_154  and  CD_155 
REMARK   67  A    between atoms: CD_155  and  NE_156 
REMARK       I    between atoms: NE_156  and  CZ_157 
REMARK       I    between atoms: CZ_157  and  NH1_158 
ROOT
ATOM      1  C   GLU d   9    2442.409 751.737-2541.725  0.00  0.00     0.241 C 
ATOM      2  O   GLU d   9    2443.073 752.491-2542.451  0.00  0.00    -0.271 OA
ATOM      3  N   HIS d  10    2442.505 750.462-2541.893  0.00  0.00    -0.346 N 
ATOM      4  H   HIS d  10    2441.974 749.827-2541.314  0.00  0.00     0.163 HD
ENDROOT
BRANCH   1   5
ATOM      5  CA  GLU d   9    2441.491 752.266-2540.649  0.00  0.00     0.177 C 
BRANCH   5   6
ATOM      6  N   GLU d   9    2440.188 751.609-2540.703  0.00  0.00    -0.346 N 
ATOM      7  C   ASP d   8    2439.508 751.658-2541.799  0.00  0.00     0.241 C 
ATOM      8  O   ASP d   8    2439.981 752.262-2542.774  0.00  0.00    -0.271 OA
ATOM      9  H   GLU d   9    2439.825 751.123-2539.896  0.00  0.00     0.163 HD
BRANCH   7  10
ATOM     10  CA  ASP d   8    2438.161 750.979-2541.855  0.00  0.00     0.186 C 
BRANCH  10  11
ATOM     11  N   ASP d   8    2438.231 749.630-2541.301  0.00  0.00    -0.346 N 
ATOM     12  C   LEU d   7    2439.068 748.789-2541.807  0.00  0.00     0.241 C 
ATOM     13  O   LEU d   7    2439.789 749.150-2542.750  0.00  0.00    -0.271 OA
ATOM     14  H   ASP d   8    2437.633 749.360-2540.533  0.00  0.00     0.163 HD
BRANCH  12  15
ATOM     15  CA  LEU d   7    2439.140 747.393-2541.234  0.00  0.00     0.177 C 
BRANCH  15  16
ATOM     16  N   LEU d   7    2439.195 747.430-2539.776  0.00  0.00    -0.346 N 
ATOM     17  C   ILE d   6    2440.141 748.093-2539.202  0.00  0.00     0.241 C 
ATOM     18  O   ILE d   6    2440.976 748.680-2539.906  0.00  0.00    -0.271 OA
ATOM     19  H   LEU d   7    2438.503 746.943-2539.224  0.00  0.00     0.163 HD
BRANCH  17  20
ATOM     20  CA  ILE d   6    2440.198 748.130-2537.694  0.00  0.00     0.180 C 
BRANCH  20  21
ATOM     21  N   ILE d   6    2438.885 748.426-2537.128  0.00  0.00    -0.346 N 
ATOM     22  C   SER d   5    2438.281 749.509-2537.483  0.00  0.00     0.243 C 
ATOM     23  O   SER d   5    2438.828 750.263-2538.287  0.00  0.00    -0.271 OA
ATOM     24  H   ILE d   6    2438.456 747.792-2536.470  0.00  0.00     0.163 HD
BRANCH  22  25
ATOM     25  CA  SER d   5    2436.922 749.815-2536.897  0.00  0.00     0.200 C 
BRANCH  25  26
ATOM     26  N   SER d   5    2436.052 748.644-2536.956  0.00  0.00    -0.344 N 
ATOM     27  C   GLU d   4    2435.825 748.091-2538.100  0.00  0.00     0.241 C 
ATOM     28  O   GLU d   4    2436.352 748.571-2539.114  0.00  0.00    -0.271 OA
ATOM     29  H   SER d   5    2435.634 748.273-2536.115  0.00  0.00     0.163 HD
BRANCH  27  30
ATOM     30  CA  GLU d   4    2434.926 746.881-2538.161  0.00  0.00     0.177 C 
BRANCH  30  31
ATOM     31  N   GLU d   4    2435.285 745.910-2537.131  0.00  0.00    -0.346 N 
ATOM     32  C   PRO d   3    2436.490 745.450-2537.099  0.00  0.00     0.241 C 
ATOM     33  O   PRO d   3    2437.313 745.833-2537.930  0.00  0.00    -0.271 OA
ATOM     34  H   GLU d   4    2434.600 745.603-2536.455  0.00  0.00     0.163 HD
BRANCH  32  35
ATOM     35  CA  PRO d   3    2436.887 744.426-2536.021  0.00  0.00     0.179 C 
ATOM     36  N   PRO d   3    2436.435 744.835-2534.700  0.00  0.00    -0.337 N 
ATOM     37  C   ASN d   2    2436.957 745.830-2534.066  0.00  0.00     0.243 C 
ATOM     38  CD  PRO d   3    2435.357 744.042-2534.151  0.00  0.00     0.127 C 
ATOM     39  O   ASN d   2    2437.872 746.460-2534.594  0.00  0.00    -0.271 OA
ATOM     40  CG  PRO d   3    2434.899 743.224-2535.361  0.00  0.00     0.022 C 
ATOM     41  CB  PRO d   3    2436.183 743.071-2536.191  0.00  0.00     0.037 C 
BRANCH  37  42
ATOM     42  CA  ASN d   2    2436.425 746.186-2532.697  0.00  0.00     0.185 C 
BRANCH  42  43
ATOM     43  N   ASN d   2    2434.966 746.225-2532.698  0.00  0.00    -0.346 N 
ATOM     44  C   GLU d   1    2434.361 747.010-2533.523  0.00  0.00     0.242 C 
ATOM     45  O   GLU d   1    2435.037 747.710-2534.291  0.00  0.00    -0.271 OA
ATOM     46  H   ASN d   2    2434.438 745.645-2532.061  0.00  0.00     0.163 HD
BRANCH  44  47
ATOM     47  CA  GLU d   1    2432.852 747.051-2533.523  0.00  0.00     0.191 C 
BRANCH  47  48
ATOM     48  N   GLU d   1    2432.293 745.702-2533.523  0.00  0.00    -0.326 NA
ATOM     49  H   GLU d   1    2432.920 744.823-2533.523  0.00  0.00     0.180 HD
ENDBRANCH  47  48
BRANCH  47  50
ATOM     50  CB  GLU d   1    2432.329 747.836-2532.286  0.00  0.00     0.047 C 
BRANCH  50  51
ATOM     51  CG  GLU d   1    2432.804 749.320-2532.175  0.00  0.00     0.116 C 
BRANCH  51  52
ATOM     52  CD  GLU d   1    2432.380 750.125-2530.960  0.00  0.00     0.172 C 
ATOM     53  OE1 GLU d   1    2431.652 749.622-2530.082  0.00  0.00    -0.648 OA
ATOM     54  OE2 GLU d   1    2432.810 751.294-2530.888  0.00  0.00    -0.648 OA
ENDBRANCH  51  52
ENDBRANCH  50  51
ENDBRANCH  47  50
ENDBRANCH  44  47
ENDBRANCH  42  43
BRANCH  42  55
ATOM     55  CB  ASN d   2    2436.917 745.163-2531.633  0.00  0.00     0.137 C 
BRANCH  55  56
ATOM     56  CG  ASN d   2    2436.453 745.387-2530.190  0.00  0.00     0.217 C 
ATOM     57  ND2 ASN d   2    2437.047 746.301-2529.471  0.00  0.00    -0.370 N 
ATOM     58 21HD ASN d   2    2436.566 746.475-2528.585  0.00  0.00     0.159 HD
ATOM     59 22HD ASN d   2    2437.749 746.873-2529.940  0.00  0.00     0.159 HD
ATOM     60  OD1 ASN d   2    2435.532 744.753-2529.696  0.00  0.00    -0.274 OA
ENDBRANCH  55  56
ENDBRANCH  42  55
ENDBRANCH  37  42
ENDBRANCH  32  35
ENDBRANCH  30  31
BRANCH  30  61
ATOM     61  CB  GLU d   4    2433.437 747.300-2537.991  0.00  0.00     0.045 C 
BRANCH  61  62
ATOM     62  CG  GLU d   4    2432.890 748.304-2539.057  0.00  0.00     0.116 C 
BRANCH  62  63
ATOM     63  CD  GLU d   4    2431.463 748.801-2538.914  0.00  0.00     0.172 C 
ATOM     64  OE1 GLU d   4    2430.736 748.402-2537.984  0.00  0.00    -0.648 OA
ATOM     65  OE2 GLU d   4    2431.074 749.630-2539.763  0.00  0.00    -0.648 OA
ENDBRANCH  62  63
ENDBRANCH  61  62
ENDBRANCH  30  61
ENDBRANCH  27  30
ENDBRANCH  25  26
BRANCH  25  66
ATOM     66  CB  SER d   5    2437.033 750.347-2535.447  0.00  0.00     0.199 C 
BRANCH  66  67
ATOM     67  OG  SER d   5    2437.764 749.468-2534.586  0.00  0.00    -0.398 OA
ATOM     68  HG  SER d   5    2437.275 748.643-2534.535  0.00  0.00     0.209 HD
ENDBRANCH  66  67
ENDBRANCH  25  66
ENDBRANCH  22  25
ENDBRANCH  20  21
BRANCH  20  69
ATOM     69  CB  ILE d   6    2440.797 746.794-2537.094  0.00  0.00     0.013 C 
ATOM     70  CG2 ILE d   6    2442.238 746.492-2537.609  0.00  0.00     0.012 C 
BRANCH  69  71
ATOM     71  CG1 ILE d   6    2440.816 746.732-2535.533  0.00  0.00     0.002 C 
ATOM     72  CD1 ILE d   6    2441.085 745.342-2534.918  0.00  0.00     0.005 C 
ENDBRANCH  69  71
ENDBRANCH  20  69
ENDBRANCH  17  20
ENDBRANCH  15  16
BRANCH  15  73
ATOM     73  CB  LEU d   7    2437.937 746.534-2541.715  0.00  0.00     0.038 C 
BRANCH  73  74
ATOM     74  CG  LEU d   7    2437.863 745.054-2541.248  0.00  0.00    -0.020 C 
ATOM     75  CD1 LEU d   7    2436.673 744.349-2541.913  0.00  0.00     0.009 C 
ATOM     76  CD2 LEU d   7    2439.157 744.275-2541.540  0.00  0.00     0.009 C 
ENDBRANCH  73  74
ENDBRANCH  15  73
ENDBRANCH  12  15
ENDBRANCH  10  11
BRANCH  10  77
ATOM     77  CB  ASP d   8    2437.083 751.819-2541.114  0.00  0.00     0.147 C 
BRANCH  77  78
ATOM     78  CG  ASP d   8    2436.865 753.240-2541.656  0.00  0.00     0.175 C 
ATOM     79  OD1 ASP d   8    2436.930 753.438-2542.886  0.00  0.00    -0.648 OA
ATOM     80  OD2 ASP d   8    2436.674 754.166-2540.841  0.00  0.00    -0.648 OA
ENDBRANCH  77  78
ENDBRANCH  10  77
ENDBRANCH   7  10
ENDBRANCH   5   6
BRANCH   5  81
ATOM     81  CB  GLU d   9    2442.125 752.058-2539.243  0.00  0.00     0.045 C 
BRANCH  81  82
ATOM     82  CG  GLU d   9    2443.508 752.750-2539.015  0.00  0.00     0.116 C 
BRANCH  82  83
ATOM     83  CD  GLU d   9    2444.210 752.537-2537.686  0.00  0.00     0.172 C 
ATOM     84  OE1 GLU d   9    2443.688 751.847-2536.790  0.00  0.00    -0.648 OA
ATOM     85  OE2 GLU d   9    2445.329 753.075-2537.555  0.00  0.00    -0.648 OA
ENDBRANCH  82  83
ENDBRANCH  81  82
ENDBRANCH   5  81
ENDBRANCH   1   5
BRANCH   3  86
ATOM     86  CA  HIS d  10    2443.392 749.949-2542.934  0.00  0.00     0.182 C 
BRANCH  86  87
ATOM     87  C   HIS d  10    2443.025 750.514-2544.285  0.00  0.00     0.241 C 
ATOM     88  O   HIS d  10    2443.878 750.978-2545.057  0.00  0.00    -0.271 OA
ATOM     89  N   VAL d  11    2441.787 750.513-2544.648  0.00  0.00    -0.346 N 
ATOM     90  H   VAL d  11    2441.074 750.141-2544.037  0.00  0.00     0.163 HD
BRANCH  89  91
ATOM     91  CA  VAL d  11    2441.432 751.059-2545.955  0.00  0.00     0.180 C 
BRANCH  91  92
ATOM     92  C   VAL d  11    2441.897 752.489-2546.088  0.00  0.00     0.241 C 
ATOM     93  O   VAL d  11    2442.499 752.893-2547.092  0.00  0.00    -0.271 OA
ATOM     94  N   GLN d  12    2441.661 753.315-2545.126  0.00  0.00    -0.346 N 
ATOM     95  H   GLN d  12    2441.172 753.010-2544.297  0.00  0.00     0.163 HD
BRANCH  94  96
ATOM     96  CA  GLN d  12    2442.110 754.698-2545.254  0.00  0.00     0.177 C 
BRANCH  96  97
ATOM     97  C   GLN d  12    2443.600 754.764-2545.492  0.00  0.00     0.241 C 
ATOM     98  O   GLN d  12    2444.087 755.472-2546.372  0.00  0.00    -0.271 OA
ATOM     99  N   ARG d  13    2444.385 754.058-2544.751  0.00  0.00    -0.346 N 
ATOM    100  H   ARG d  13    2444.008 753.468-2544.022  0.00  0.00     0.163 HD
BRANCH  99 101
ATOM    101  CA  ARG d  13    2445.825 754.123-2544.982  0.00  0.00     0.176 C 
BRANCH 101 102
ATOM    102  C   ARG d  13    2446.161 753.750-2546.407  0.00  0.00     0.241 C 
ATOM    103  O   ARG d  13    2446.929 754.421-2547.092  0.00  0.00    -0.271 OA
ATOM    104  N   VAL d  14    2445.624 752.696-2546.921  0.00  0.00    -0.346 N 
ATOM    105  H   VAL d  14    2444.989 752.127-2546.378  0.00  0.00     0.163 HD
BRANCH 104 106
ATOM    106  CA  VAL d  14    2445.948 752.335-2548.298  0.00  0.00     0.180 C 
BRANCH 106 107
ATOM    107  C   VAL d  14    2445.619 753.465-2549.244  0.00  0.00     0.241 C 
ATOM    108  O   VAL d  14    2446.412 753.846-2550.114  0.00  0.00    -0.271 OA
ATOM    109  N   SER d  15    2444.474 754.051-2549.143  0.00  0.00    -0.344 N 
ATOM    110  H   SER d  15    2443.809 753.759-2548.441  0.00  0.00     0.163 HD
BRANCH 109 111
ATOM    111  CA  SER d  15    2444.155 755.143-2550.057  0.00  0.00     0.200 C 
BRANCH 111 112
ATOM    112  C   SER d  15    2445.188 756.242-2549.969  0.00  0.00     0.243 C 
ATOM    113  O   SER d  15    2445.689 756.748-2550.972  0.00  0.00    -0.271 OA
ATOM    114  N   ARG d  16    2445.556 756.663-2548.806  0.00  0.00    -0.347 N 
ATOM    115  H   ARG d  16    2445.160 756.264-2547.967  0.00  0.00     0.163 HD
BRANCH 114 116
ATOM    116  CA  ARG d  16    2446.555 757.725-2548.721  0.00  0.00     0.162 C 
BRANCH 116 117
ATOM    117  C   ARG d  16    2447.825 757.330-2549.436  0.00  0.00     0.219 C 
ATOM    118  O   ARG d  16    2447.938 756.253-2550.017  0.00  0.00    -0.287 OA
ENDBRANCH 116 117
BRANCH 116 119
ATOM    119  CB  ARG d  16    2446.823 758.043-2547.222  0.00  0.00     0.035 C 
BRANCH 119 120
ATOM    120  CG  ARG d  16    2447.650 759.330-2546.949  0.00  0.00     0.023 C 
BRANCH 120 121
ATOM    121  CD  ARG d  16    2447.898 759.549-2545.448  0.00  0.00     0.138 C 
BRANCH 121 122
ATOM    122  NE  ARG d  16    2448.677 760.807-2545.246  0.00  0.00    -0.227 N 
ATOM    123  CZ  ARG d  16    2449.067 761.289-2544.070  0.00  0.00     0.665 C 
ATOM    124  NH1 ARG d  16    2448.817 760.705-2542.931  0.00  0.00    -0.235 N 
ATOM    125  NH2 ARG d  16    2449.733 762.400-2544.051  0.00  0.00    -0.235 N 
ATOM    126 11HH ARG d  16    2448.290 759.833-2543.016  0.00  0.00     0.174 HD
ATOM    127 12HH ARG d  16    2449.151 761.140-2542.070  0.00  0.00     0.174 HD
ATOM    128 21HH ARG d  16    2449.921 762.843-2544.953  0.00  0.00     0.174 HD
ATOM    129 22HH ARG d  16    2450.023 762.755-2543.138  0.00  0.00     0.174 HD
ATOM    130  HE  ARG d  16    2448.957 761.387-2546.043  0.00  0.00     0.177 HD
ENDBRANCH 121 122
ENDBRANCH 120 121
ENDBRANCH 119 120
ENDBRANCH 116 119
ENDBRANCH 114 116
ENDBRANCH 111 112
BRANCH 111 131
ATOM    131  CB  SER d  15    2442.727 755.682-2549.796  0.00  0.00     0.199 C 
BRANCH 131 132
ATOM    132  OG  SER d  15    2442.613 756.379-2548.550  0.00  0.00    -0.398 OA
ATOM    133  HG  SER d  15    2442.797 755.747-2547.851  0.00  0.00     0.209 HD
ENDBRANCH 131 132
ENDBRANCH 111 131
ENDBRANCH 109 111
ENDBRANCH 106 107
BRANCH 106 134
ATOM    134  CB  VAL d  14    2445.176 751.018-2548.704  0.00  0.00     0.009 C 
ATOM    135  CG1 VAL d  14    2445.264 750.599-2550.198  0.00  0.00     0.012 C 
ATOM    136  CG2 VAL d  14    2445.607 749.766-2547.904  0.00  0.00     0.012 C 
ENDBRANCH 106 134
ENDBRANCH 104 106
ENDBRANCH 101 102
BRANCH 101 137
ATOM    137  CB  ARG d  13    2446.538 753.184-2543.968  0.00  0.00     0.036 C 
BRANCH 137 138
ATOM    138  CG  ARG d  13    2448.083 753.337-2543.888  0.00  0.00     0.023 C 
BRANCH 138 139
ATOM    139  CD  ARG d  13    2448.710 752.350-2542.889  0.00  0.00     0.138 C 
BRANCH 139 140
ATOM    140  NE  ARG d  13    2450.187 752.557-2542.839  0.00  0.00    -0.227 N 
ATOM    141  CZ  ARG d  13    2451.036 751.865-2542.084  0.00  0.00     0.665 C 
ATOM    142  NH1 ARG d  13    2450.671 750.902-2541.286  0.00  0.00    -0.235 N 
ATOM    143  NH2 ARG d  13    2452.295 752.164-2542.141  0.00  0.00    -0.235 N 
ATOM    144 11HH ARG d  13    2449.665 750.716-2541.288  0.00  0.00     0.174 HD
ATOM    145 12HH ARG d  13    2451.384 750.419-2540.737  0.00  0.00     0.174 HD
ATOM    146 21HH ARG d  13    2452.563 752.922-2542.773  0.00  0.00     0.174 HD
ATOM    147 22HH ARG d  13    2452.931 751.623-2541.553  0.00  0.00     0.174 HD
ATOM    148  HE  ARG d  13    2450.639 753.278-2543.411  0.00  0.00     0.177 HD
ENDBRANCH 139 140
ENDBRANCH 138 139
ENDBRANCH 137 138
ENDBRANCH 101 137
ENDBRANCH  99 101
ENDBRANCH  96  97
BRANCH  96 149
ATOM    149  CB  GLN d  12    2441.720 755.466-2543.972  0.00  0.00     0.044 C 
BRANCH 149 150
ATOM    150  CG  GLN d  12    2442.081 756.988-2543.942  0.00  0.00     0.105 C 
BRANCH 150 151
ATOM    151  CD  GLN d  12    2441.780 757.802-2542.677  0.00  0.00     0.215 C 
ATOM    152  NE2 GLN d  12    2441.213 757.227-2541.648  0.00  0.00    -0.370 N 
ATOM    153 21HE GLN d  12    2441.106 757.821-2540.825  0.00  0.00     0.159 HD
ATOM    154 22HE GLN d  12    2441.048 756.223-2541.751  0.00  0.00     0.159 HD
ATOM    155  OE1 GLN d  12    2442.082 758.983-2542.600  0.00  0.00    -0.274 OA
ENDBRANCH 150 151
ENDBRANCH 149 150
ENDBRANCH  96 149
ENDBRANCH  94  96
ENDBRANCH  91  92
BRANCH  91 156
ATOM    156  CB  VAL d  11    2439.871 750.953-2546.174  0.00  0.00     0.009 C 
ATOM    157  CG1 VAL d  11    2439.302 751.656-2547.437  0.00  0.00     0.012 C 
ATOM    158  CG2 VAL d  11    2439.346 749.499-2546.246  0.00  0.00     0.012 C 
ENDBRANCH  91 156
ENDBRANCH  89  91
ENDBRANCH  86  87
BRANCH  86 159
ATOM    159  CB  HIS d  10    2443.228 748.421-2542.928  0.00  0.00     0.095 C 
BRANCH 159 160
ATOM    160  CG  HIS d  10    2444.513 747.710-2542.620  0.00  0.00     0.053 A 
ATOM    161  CD2 HIS d  10    2444.894 747.375-2541.328  0.00  0.00     0.116 A 
ATOM    162  NE2 HIS d  10    2446.109 746.743-2541.394  0.00  0.00    -0.359 N 
ATOM    163  CE1 HIS d  10    2446.371 746.745-2542.729  0.00  0.00     0.207 A 
ATOM    164  2HE HIS d  10    2446.676 746.366-2540.621  0.00  0.00     0.166 HD
ATOM    165  ND1 HIS d  10    2445.464 747.303-2543.553  0.00  0.00    -0.247 NA
ENDBRANCH 159 160
ENDBRANCH  86 159
ENDBRANCH   3  86
TORSDOF 67
