@<TRIPOS>MOLECULE
15-12
259 260 16              
SMALL
USER_CHARGES
@<TRIPOS>ATOM
1	   N	2423.999	743.095	-2524.813	N.3	1	GLU1	-0.516	
2	  CA	2424.558	744.444	-2524.813	C.3	1	GLU1	0.040	
3	   C	2426.067	744.404	-2524.813	C.2	1	GLU1	0.537	
4	   O	2426.743	745.103	-2525.582	O.2	1	GLU1	-0.582	
5	  CB	2424.035	745.229	-2523.576	C.3	1	GLU1	0.056	
6	  CG	2424.510	746.714	-2523.465	C.3	1	GLU1	0.014	
7	  CD	2424.086	747.518	-2522.250	C.2	1	GLU1	0.805	
8	 OE1	2423.358	747.016	-2521.372	O.co2	1	GLU1	-0.819	
9	 OE2	2424.516	748.688	-2522.178	O.co2	1	GLU1	-0.819	
10	   H	2424.626	742.216	-2524.813	 H	1	GLU1	0.294	
11	  HA	2424.232	744.962	-2525.733	 H	1	GLU1	0.111	
12	 2HB	2424.324	744.698	-2522.646	 H	1	GLU1	-0.017	
13	 3HB	2422.928	745.219	-2523.563	 H	1	GLU1	-0.017	
14	 2HG	2424.200	747.299	-2524.346	 H	1	GLU1	-0.043	
15	 3HG	2425.610	746.781	-2523.436	 H	1	GLU1	-0.043	
16	   N	2426.672	743.618	-2523.988	N.am	2	ASN2	-0.416	
17	  CA	2428.131	743.579	-2523.988	C.3	2	ASN2	0.014	
18	   C	2428.662	743.224	-2525.356	C.2	2	ASN2	0.597	
19	   O	2429.577	743.854	-2525.884	O.2	2	ASN2	-0.568	
20	  CB	2428.623	742.556	-2522.923	C.3	2	ASN2	-0.204	
21	  CG	2428.159	742.780	-2521.480	C.2	2	ASN2	0.713	
22	 ND2	2428.753	743.695	-2520.761	N.pl3	2	ASN2	-0.919	
23	 OD1	2427.238	742.147	-2520.986	O.2	2	ASN2	-0.593	
24	   H	2426.143	743.039	-2523.351	 H	2	ASN2	0.272	
25	  HA	2428.509	744.589	-2523.742	 H	2	ASN2	0.105	
26	 2HB	2429.727	742.497	-2522.926	 H	2	ASN2	0.080	
27	 3HB	2428.293	741.538	-2523.209	 H	2	ASN2	0.080	
28	1HD2	2428.272	743.868	-2519.875	 H	2	ASN2	0.420	
29	2HD2	2429.455	744.267	-2521.230	 H	2	ASN2	0.420	
30	   N	2428.141	742.229	-2525.990	N.am	3	PRO3	-0.255	
31	  CA	2428.593	741.820	-2527.312	C.3	3	PRO3	-0.027	
32	   C	2428.195	742.843	-2528.389	C.2	3	PRO3	0.590	
33	   O	2429.019	743.226	-2529.220	O.2	3	PRO3	-0.575	
34	  CB	2427.889	740.465	-2527.481	C.3	3	PRO3	-0.007	
35	  CG	2426.605	740.617	-2526.652	C.3	3	PRO3	0.019	
36	  CD	2427.062	741.436	-2525.442	C.3	3	PRO3	0.019	
37	  HA	2429.679	741.700	-2527.325	 H	3	PRO3	0.064	
38	 2HB	2428.511	739.684	-2527.041	 H	3	PRO3	0.025	
39	 3HB	2427.691	740.217	-2528.527	 H	3	PRO3	0.025	
40	 2HG	2426.177	739.655	-2526.361	 H	3	PRO3	0.021	
41	 3HG	2425.868	741.189	-2527.219	 H	3	PRO3	0.021	
42	 2HD	2427.451	740.786	-2524.654	 H	3	PRO3	0.039	
43	 3HD	2426.266	742.072	-2525.049	 H	3	PRO3	0.039	
44	   N	2426.990	743.304	-2528.422	N.am	4	GLU4	-0.516	
45	  CA	2426.631	744.275	-2529.451	C.3	4	GLU4	0.040	
46	   C	2427.531	745.485	-2529.390	C.2	4	GLU4	0.537	
47	   O	2428.057	745.965	-2530.404	O.2	4	GLU4	-0.582	
48	  CB	2425.143	744.694	-2529.282	C.3	4	GLU4	0.056	
49	  CG	2424.595	745.697	-2530.347	C.3	4	GLU4	0.014	
50	  CD	2423.169	746.194	-2530.204	C.2	4	GLU4	0.805	
51	 OE1	2422.442	745.796	-2529.274	O.co2	4	GLU4	-0.819	
52	 OE2	2422.780	747.024	-2531.053	O.co2	4	GLU4	-0.819	
53	   H	2426.306	742.997	-2527.745	 H	4	GLU4	0.294	
54	  HA	2426.763	743.804	-2530.443	 H	4	GLU4	0.111	
55	 2HB	2424.990	745.133	-2528.275	 H	4	GLU4	-0.017	
56	 3HB	2424.495	743.796	-2529.288	 H	4	GLU4	-0.017	
57	 2HG	2424.677	745.283	-2531.365	 H	4	GLU4	-0.043	
58	 3HG	2425.184	746.630	-2530.358	 H	4	GLU4	-0.043	
59	   N	2427.758	746.038	-2528.247	N.am	5	SER5	-0.416	
60	  CA	2428.627	747.209	-2528.188	C.3	5	SER5	-0.025	
61	   C	2429.986	746.903	-2528.773	C.2	5	SER5	0.597	
62	   O	2430.534	747.656	-2529.578	O.2	5	SER5	-0.568	
63	  CB	2428.739	747.741	-2526.737	C.3	5	SER5	0.212	
64	  OG	2429.470	746.861	-2525.876	O.3	5	SER5	-0.655	
65	   H	2427.340	745.666	-2527.405	 H	5	SER5	0.272	
66	  HA	2428.178	748.000	-2528.817	 H	5	SER5	0.084	
67	 2HB	2427.739	747.935	-2526.304	 H	5	SER5	0.035	
68	 3HB	2429.244	748.727	-2526.739	 H	5	SER5	0.035	
69	  HG	2428.981	746.037	-2525.825	 H	5	SER5	0.428	
70	   N	2430.591	745.820	-2528.419	N.am	6	ILE6	-0.416	
71	  CA	2431.904	745.524	-2528.985	C.3	6	ILE6	-0.060	
72	   C	2431.847	745.487	-2530.492	C.2	6	ILE6	0.597	
73	   O	2432.681	746.074	-2531.196	O.2	6	ILE6	-0.568	
74	  CB	2432.503	744.188	-2528.384	C.3	6	ILE6	0.130	
75	 CG1	2432.522	744.125	-2526.823	C.3	6	ILE6	-0.043	
76	 CG2	2433.944	743.885	-2528.899	C.3	6	ILE6	-0.320	
77	 CD1	2432.791	742.736	-2526.208	C.3	6	ILE6	-0.066	
78	   H	2430.162	745.185	-2527.760	 H	6	ILE6	0.272	
79	  HA	2432.578	746.358	-2528.717	 H	6	ILE6	0.087	
80	  HB	2431.845	743.362	-2528.729	 H	6	ILE6	0.019	
81	2HG1	2431.540	744.446	-2526.428	 H	6	ILE6	0.024	
82	3HG1	2433.238	744.867	-2526.418	 H	6	ILE6	0.024	
83	1HG2	2434.003	743.792	-2529.998	 H	6	ILE6	0.088	
84	2HG2	2434.667	744.668	-2528.597	 H	6	ILE6	0.088	
85	3HG2	2434.334	742.923	-2528.521	 H	6	ILE6	0.088	
86	1HD1	2432.062	741.982	-2526.563	 H	6	ILE6	0.019	
87	2HD1	2433.802	742.357	-2526.444	 H	6	ILE6	0.019	
88	3HD1	2432.715	742.766	-2525.106	 H	6	ILE6	0.019	
89	   N	2430.901	744.823	-2531.066	N.am	7	LEU7	-0.416	
90	  CA	2430.846	744.787	-2532.524	C.3	7	LEU7	-0.052	
91	   C	2430.774	746.182	-2533.097	C.2	7	LEU7	0.597	
92	   O	2431.495	746.544	-2534.040	O.2	7	LEU7	-0.568	
93	  CB	2429.642	743.927	-2533.005	C.3	7	LEU7	-0.110	
94	  CG	2429.569	742.448	-2532.538	C.3	7	LEU7	0.353	
95	 CD1	2428.379	741.742	-2533.204	C.3	7	LEU7	-0.412	
96	 CD2	2430.863	741.668	-2532.830	C.3	7	LEU7	-0.412	
97	   H	2430.208	744.336	-2530.515	 H	7	LEU7	0.272	
98	  HA	2431.787	744.347	-2532.899	 H	7	LEU7	0.092	
99	 2HB	2429.619	743.943	-2534.113	 H	7	LEU7	0.046	
100	 3HB	2428.703	744.430	-2532.701	 H	7	LEU7	0.046	
101	  HG	2429.399	742.440	-2531.441	 H	7	LEU7	-0.036	
102	1HD1	2427.422	742.252	-2532.981	 H	7	LEU7	0.100	
103	2HD1	2428.478	741.702	-2534.305	 H	7	LEU7	0.100	
104	3HD1	2428.272	740.701	-2532.848	 H	7	LEU7	0.100	
105	1HD2	2431.138	741.699	-2533.900	 H	7	LEU7	0.100	
106	2HD2	2431.716	742.080	-2532.258	 H	7	LEU7	0.100	
107	3HD2	2430.781	740.606	-2532.534	 H	7	LEU7	0.100	
108	   N	2429.937	747.024	-2532.592	N.am	8	ASP8	-0.516	
109	  CA	2429.867	748.373	-2533.146	C.3	8	ASP8	0.038	
110	   C	2431.214	749.052	-2533.089	C.2	8	ASP8	0.537	
111	   O	2431.687	749.656	-2534.064	O.2	8	ASP8	-0.582	
112	  CB	2428.789	749.213	-2532.405	C.3	8	ASP8	-0.030	
113	  CG	2428.571	750.633	-2532.946	C.2	8	ASP8	0.799	
114	 OD1	2428.636	750.832	-2534.177	O.co2	8	ASP8	-0.801	
115	 OD2	2428.380	751.560	-2532.131	O.co2	8	ASP8	-0.801	
116	   H	2429.339	746.753	-2531.824	 H	8	ASP8	0.294	
117	  HA	2429.584	748.295	-2534.213	 H	8	ASP8	0.088	
118	 2HB	2429.047	749.297	-2531.333	 H	8	ASP8	-0.012	
119	 3HB	2427.810	748.708	-2532.437	 H	8	ASP8	-0.012	
120	   N	2431.894	749.003	-2531.994	N.am	9	GLU9	-0.516	
121	  CA	2433.197	749.659	-2531.939	C.3	9	GLU9	0.040	
122	   C	2434.115	749.131	-2533.015	C.2	9	GLU9	0.537	
123	   O	2434.779	749.884	-2533.741	O.2	9	GLU9	-0.582	
124	  CB	2433.831	749.452	-2530.534	C.3	9	GLU9	0.056	
125	  CG	2435.214	750.144	-2530.305	C.3	9	GLU9	0.014	
126	  CD	2435.916	749.931	-2528.977	C.2	9	GLU9	0.805	
127	 OE1	2435.394	749.241	-2528.080	O.co2	9	GLU9	-0.819	
128	 OE2	2437.035	750.468	-2528.845	O.co2	9	GLU9	-0.819	
129	   H	2431.531	748.517	-2531.186	 H	9	GLU9	0.294	
130	  HA	2433.055	750.741	-2532.115	 H	9	GLU9	0.111	
131	 2HB	2433.943	748.368	-2530.330	 H	9	GLU9	-0.017	
132	 3HB	2433.134	749.806	-2529.749	 H	9	GLU9	-0.017	
133	 2HG	2435.142	751.235	-2530.445	 H	9	GLU9	-0.043	
134	 3HG	2435.960	749.798	-2531.039	 H	9	GLU9	-0.043	
135	   N	2434.211	747.855	-2533.184	N.am	10	HIS10	-0.416	
136	  CA	2435.098	747.343	-2534.224	C.3	10	HIS10	-0.058	
137	   C	2434.731	747.907	-2535.575	C.2	10	HIS10	0.597	
138	   O	2435.584	748.371	-2536.348	O.2	10	HIS10	-0.568	
139	  CB	2434.933	745.814	-2534.219	C.3	10	HIS10	-0.007	
140	  CG	2436.219	745.103	-2533.910	C.2	10	HIS10	0.187	
141	 CD2	2436.600	744.769	-2532.618	C.2	10	HIS10	-0.221	
142	 ND1	2437.170	744.697	-2534.843	N.2	10	HIS10	-0.543	
143	 CE1	2438.077	744.139	-2534.020	C.2	10	HIS10	0.163	
144	 NE2	2437.814	744.137	-2532.685	N.pl3	10	HIS10	-0.280	
145	   H	2433.680	747.221	-2532.605	 H	10	HIS10	0.272	
146	  HA	2436.117	747.700	-2534.000	 H	10	HIS10	0.136	
147	 2HB	2434.567	745.447	-2535.198	 H	10	HIS10	0.037	
148	 3HB	2434.178	745.478	-2533.478	 H	10	HIS10	0.037	
149	 2HD	2436.015	744.985	-2531.729	 H	10	HIS10	0.186	
150	 1HE	2438.967	743.717	-2534.467	 H	10	HIS10	0.144	
151	 2HE	2438.381	743.760	-2531.911	 H	10	HIS10	0.334	
152	   N	2433.493	747.907	-2535.938	N.am	11	VAL11	-0.416	
153	  CA	2433.138	748.452	-2537.245	C.3	11	VAL11	-0.087	
154	   C	2433.603	749.883	-2537.379	C.2	11	VAL11	0.597	
155	   O	2434.204	750.287	-2538.382	O.2	11	VAL11	-0.568	
156	  CB	2431.577	748.346	-2537.464	C.3	11	VAL11	0.299	
157	 CG1	2431.008	749.050	-2538.727	C.3	11	VAL11	-0.319	
158	 CG2	2431.052	746.893	-2537.536	C.3	11	VAL11	-0.319	
159	   H	2432.780	747.535	-2535.327	 H	11	VAL11	0.272	
160	  HA	2433.657	747.869	-2538.028	 H	11	VAL11	0.097	
161	  HB	2431.090	748.827	-2536.589	 H	11	VAL11	-0.030	
162	1HG1	2431.447	748.657	-2539.664	 H	11	VAL11	0.079	
163	2HG1	2429.909	748.943	-2538.809	 H	11	VAL11	0.079	
164	3HG1	2431.187	750.142	-2538.719	 H	11	VAL11	0.079	
165	1HG2	2431.341	746.306	-2536.646	 H	11	VAL11	0.079	
166	2HG2	2429.946	746.856	-2537.579	 H	11	VAL11	0.079	
167	3HG2	2431.433	746.351	-2538.423	 H	11	VAL11	0.079	
168	   N	2433.367	750.709	-2536.417	N.am	12	GLN12	-0.416	
169	  CA	2433.816	752.092	-2536.544	C.3	12	GLN12	-0.003	
170	   C	2435.306	752.158	-2536.783	C.2	12	GLN12	0.597	
171	   O	2435.793	752.866	-2537.662	O.2	12	GLN12	-0.568	
172	  CB	2433.426	752.860	-2535.262	C.3	12	GLN12	-0.004	
173	  CG	2433.787	754.382	-2535.232	C.3	12	GLN12	-0.064	
174	  CD	2433.486	755.196	-2533.968	C.2	12	GLN12	0.695	
175	 NE2	2432.918	754.620	-2532.938	N.pl3	12	GLN12	-0.941	
176	 OE1	2433.788	756.377	-2533.891	O.2	12	GLN12	-0.609	
177	   H	2432.878	750.403	-2535.587	 H	12	GLN12	0.272	
178	  HA	2433.317	752.548	-2537.420	 H	12	GLN12	0.085	
179	 2HB	2433.902	752.360	-2534.393	 H	12	GLN12	0.017	
180	 3HB	2432.336	752.753	-2535.099	 H	12	GLN12	0.017	
181	 2HG	2433.310	754.902	-2536.083	 H	12	GLN12	0.035	
182	 3HG	2434.871	754.523	-2535.398	 H	12	GLN12	0.035	
183	1HE2	2432.812	755.215	-2532.115	 H	12	GLN12	0.425	
184	2HE2	2432.754	753.617	-2533.041	 H	12	GLN12	0.425	
185	   N	2436.091	751.451	-2536.042	N.am	13	ARG13	-0.348	
186	  CA	2437.531	751.516	-2536.273	C.3	13	ARG13	-0.264	
187	   C	2437.866	751.144	-2537.698	C.2	13	ARG13	0.734	
188	   O	2438.635	751.815	-2538.382	O.2	13	ARG13	-0.589	
189	  CB	2438.244	750.578	-2535.258	C.3	13	ARG13	-0.001	
190	  CG	2439.789	750.731	-2535.178	C.3	13	ARG13	0.039	
191	  CD	2440.416	749.744	-2534.180	C.3	13	ARG13	0.049	
192	  NE	2441.893	749.950	-2534.130	N.pl3	13	ARG13	-0.530	
193	  CZ	2442.741	749.259	-2533.374	C.cat	13	ARG13	0.808	
194	 NH1	2442.376	748.296	-2532.576	N.pl3	13	ARG13	-0.863	
195	 NH2	2444.001	749.558	-2533.432	N.pl3	13	ARG13	-0.863	
196	   H	2435.714	750.862	-2535.312	 H	13	ARG13	0.275	
197	  HA	2437.855	752.562	-2536.115	 H	13	ARG13	0.156	
198	 2HB	2437.978	749.528	-2535.497	 H	13	ARG13	0.033	
199	 3HB	2437.819	750.745	-2534.248	 H	13	ARG13	0.033	
200	 2HG	2440.038	751.776	-2534.899	 H	13	ARG13	0.029	
201	 3HG	2440.240	750.574	-2536.179	 H	13	ARG13	0.029	
202	 2HD	2440.171	748.703	-2534.488	 H	13	ARG13	0.069	
203	 3HD	2439.960	749.890	-2533.177	 H	13	ARG13	0.069	
204	  HE	2442.344	750.672	-2534.701	 H	13	ARG13	0.346	
205	1HH1	2441.371	748.110	-2532.579	 H	13	ARG13	0.448	
206	2HH1	2443.090	747.813	-2532.027	 H	13	ARG13	0.448	
207	1HH2	2444.269	750.315	-2534.063	 H	13	ARG13	0.448	
208	2HH2	2444.636	749.017	-2532.843	 H	13	ARG13	0.448	
209	   N	2437.330	750.089	-2538.211	N.am	14	VAL14	-0.416	
210	  CA	2437.654	749.729	-2539.589	C.3	14	VAL14	-0.087	
211	   C	2437.324	750.859	-2540.535	C.2	14	VAL14	0.597	
212	   O	2438.117	751.240	-2541.404	O.2	14	VAL14	-0.568	
213	  CB	2436.881	748.412	-2539.995	C.3	14	VAL14	0.299	
214	 CG1	2436.970	747.993	-2541.488	C.3	14	VAL14	-0.319	
215	 CG2	2437.313	747.160	-2539.194	C.3	14	VAL14	-0.319	
216	   H	2436.695	749.521	-2537.669	 H	14	VAL14	0.272	
217	  HA	2438.742	749.552	-2539.664	 H	14	VAL14	0.097	
218	  HB	2435.805	748.584	-2539.778	 H	14	VAL14	-0.030	
219	1HG1	2438.011	747.815	-2541.817	 H	14	VAL14	0.079	
220	2HG1	2436.397	747.070	-2541.700	 H	14	VAL14	0.079	
221	3HG1	2436.541	748.755	-2542.166	 H	14	VAL14	0.079	
222	1HG2	2437.226	747.319	-2538.103	 H	14	VAL14	0.079	
223	2HG2	2436.677	746.284	-2539.425	 H	14	VAL14	0.079	
224	3HG2	2438.361	746.870	-2539.399	 H	14	VAL14	0.079	
225	   N	2436.180	751.445	-2540.433	N.am	15	CYS15	-0.416	
226	  CA	2435.859	752.537	-2541.347	C.3	15	CYS15	0.021	
227	   C	2436.891	753.637	-2541.259	C.2	15	CYS15	0.597	
228	   O	2437.395	754.148	-2542.270	O.2	15	CYS15	-0.568	
229	  CB	2434.437	753.038	-2541.032	C.3	15	CYS15	-0.123	
230	  SG	2433.908	754.270	-2542.245	S.3	15	CYS15	-0.312	
231	   H	2435.515	751.152	-2539.731	 H	15	CYS15	0.272	
232	  HA	2435.886	752.145	-2542.380	 H	15	CYS15	0.112	
233	 2HB	2434.376	753.476	-2540.015	 H	15	CYS15	0.111	
234	 3HB	2433.707	752.209	-2541.051	 H	15	CYS15	0.111	
235	  HG	2434.043	755.335	-2541.460	 H	15	CYS15	0.193	
236	   N	2437.260	754.057	-2540.096	N.am	16	ARG16	-0.348	
237	  CA	2438.257	755.120	-2540.011	C.3	16	ARG16	-0.264	
238	   C	2439.528	754.727	-2540.727	C.2	16	ARG16	0.734	
239	   O	2439.641	753.651	-2541.309	O.2	16	ARG16	-0.589	
240	  CB	2438.525	755.438	-2538.513	C.3	16	ARG16	-0.001	
241	  CG	2439.351	756.726	-2538.239	C.3	16	ARG16	0.039	
242	  CD	2439.600	756.944	-2536.737	C.3	16	ARG16	0.049	
243	  NE	2440.377	758.203	-2536.535	N.pl3	16	ARG16	-0.530	
244	  CZ	2440.768	758.684	-2535.359	C.cat	16	ARG16	0.808	
245	 NH1	2440.519	758.100	-2534.221	N.pl3	16	ARG16	-0.863	
246	 NH2	2441.433	759.796	-2535.340	N.pl3	16	ARG16	-0.863	
247	   H	2436.864	753.657	-2539.258	 H	16	ARG16	0.275	
248	  HA	2437.849	756.014	-2540.521	 H	16	ARG16	0.156	
249	 2HB	2439.021	754.561	-2538.046	 H	16	ARG16	0.033	
250	 3HB	2437.556	755.519	-2537.980	 H	16	ARG16	0.033	
251	 2HG	2438.822	757.598	-2538.676	 H	16	ARG16	0.029	
252	 3HG	2440.325	756.672	-2538.767	 H	16	ARG16	0.029	
253	 2HD	2440.147	756.069	-2536.324	 H	16	ARG16	0.069	
254	 3HD	2438.626	756.988	-2536.203	 H	16	ARG16	0.069	
255	  HE	2440.656	758.784	-2537.332	 H	16	ARG16	0.346	
256	1HH1	2439.992	757.227	-2534.306	 H	16	ARG16	0.448	
257	2HH1	2440.853	758.535	-2533.359	 H	16	ARG16	0.448	
258	1HH2	2441.619	760.240	-2536.241	 H	16	ARG16	0.448	
259	2HH2	2441.722	760.151	-2534.427	 H	16	ARG16	0.448	
@<TRIPOS>BOND
1 1 2 1
2 1 10 1
3 2 3 1
4 2 5 1
5 2 11 1
6 3 4 2
7 3 16 1
8 5 6 1
9 6 7 1
10 7 8 2
11 7 9 1
12 5 12 1
13 5 13 1
14 6 14 1
15 6 15 1
16 16 17 1
17 16 24 1
18 17 18 1
19 17 20 1
20 17 25 1
21 18 19 2
22 18 30 1
23 20 21 1
24 21 22 1
25 21 23 2
26 20 26 1
27 20 27 1
28 22 28 1
29 22 29 1
30 30 31 1
31 30 36 1
32 31 32 1
33 31 34 1
34 31 37 1
35 32 33 2
36 32 44 1
37 34 35 1
38 35 36 1
39 34 38 1
40 34 39 1
41 35 40 1
42 35 41 1
43 36 42 1
44 36 43 1
45 44 45 1
46 44 53 1
47 45 46 1
48 45 48 1
49 45 54 1
50 46 47 2
51 46 59 1
52 48 49 1
53 49 50 1
54 50 51 2
55 50 52 1
56 48 55 1
57 48 56 1
58 49 57 1
59 49 58 1
60 59 60 1
61 59 65 1
62 60 61 1
63 60 63 1
64 60 66 1
65 61 62 2
66 61 70 1
67 63 64 1
68 63 67 1
69 63 68 1
70 64 69 1
71 70 71 1
72 70 78 1
73 71 72 1
74 71 74 1
75 71 79 1
76 72 73 2
77 72 89 1
78 74 75 1
79 74 76 1
80 75 77 1
81 74 80 1
82 75 81 1
83 75 82 1
84 76 83 1
85 76 84 1
86 76 85 1
87 77 86 1
88 77 87 1
89 77 88 1
90 89 90 1
91 89 97 1
92 90 91 1
93 90 93 1
94 90 98 1
95 91 92 2
96 91 108 1
97 93 94 1
98 94 95 1
99 94 96 1
100 93 99 1
101 93 100 1
102 94 101 1
103 95 102 1
104 95 103 1
105 95 104 1
106 96 105 1
107 96 106 1
108 96 107 1
109 108 109 1
110 108 116 1
111 109 110 1
112 109 112 1
113 109 117 1
114 110 111 2
115 110 120 1
116 112 113 1
117 113 114 2
118 113 115 1
119 112 118 1
120 112 119 1
121 120 121 1
122 120 129 1
123 121 122 1
124 121 124 1
125 121 130 1
126 122 123 2
127 122 135 1
128 124 125 1
129 125 126 1
130 126 127 2
131 126 128 1
132 124 131 1
133 124 132 1
134 125 133 1
135 125 134 1
136 135 136 1
137 135 145 1
138 136 137 1
139 136 139 1
140 136 146 1
141 137 138 2
142 137 152 1
143 139 140 1
144 140 141 2
145 141 144 1
146 140 142 1
147 142 143 2
148 143 144 1
149 139 147 1
150 139 148 1
151 141 149 1
152 143 150 1
153 144 151 1
154 152 153 1
155 152 159 1
156 153 154 1
157 153 156 1
158 153 160 1
159 154 155 2
160 154 168 1
161 156 157 1
162 156 158 1
163 156 161 1
164 157 162 1
165 157 163 1
166 157 164 1
167 158 165 1
168 158 166 1
169 158 167 1
170 168 169 1
171 168 177 1
172 169 170 1
173 169 172 1
174 169 178 1
175 170 171 2
176 170 185 1
177 172 173 1
178 173 174 1
179 174 175 1
180 174 176 2
181 172 179 1
182 172 180 1
183 173 181 1
184 173 182 1
185 175 183 1
186 175 184 1
187 185 186 1
188 185 196 1
189 186 187 1
190 186 189 1
191 186 197 1
192 187 188 2
193 187 209 1
194 189 190 1
195 190 191 1
196 191 192 1
197 192 193 1
198 193 194 2
199 193 195 1
200 189 198 1
201 189 199 1
202 190 200 1
203 190 201 1
204 191 202 1
205 191 203 1
206 192 204 1
207 194 205 1
208 194 206 1
209 195 207 1
210 195 208 1
211 209 210 1
212 209 216 1
213 210 211 1
214 210 213 1
215 210 217 1
216 211 212 2
217 211 225 1
218 213 214 1
219 213 215 1
220 213 218 1
221 214 219 1
222 214 220 1
223 214 221 1
224 215 222 1
225 215 223 1
226 215 224 1
227 225 226 1
228 225 231 1
229 226 227 1
230 226 229 1
231 226 232 1
232 227 228 2
233 227 236 1
234 229 230 1
235 229 233 1
236 229 234 1
237 230 235 1
238 236 237 1
239 236 247 1
240 237 238 1
241 237 240 1
242 237 248 1
243 238 239 2
244 240 241 1
245 241 242 1
246 242 243 1
247 243 244 1
248 244 245 2
249 244 246 1
250 240 249 1
251 240 250 1
252 241 251 1
253 241 252 1
254 242 253 1
255 242 254 1
256 243 255 1
257 245 256 1
258 245 257 1
259 246 258 1
260 246 259 1
@<TRIPOS>SUBSTRUCTURE
1	GLU1	1	RESIDUE	1 ****	GLU
2	ASN2	16	RESIDUE	1 ****	ASN
3	PRO3	30	RESIDUE	1 ****	PRO
4	GLU4	44	RESIDUE	1 ****	GLU
5	SER5	59	RESIDUE	1 ****	SER
6	ILE6	70	RESIDUE	1 ****	ILE
7	LEU7	89	RESIDUE	1 ****	LEU
8	ASP8	108	RESIDUE	1 ****	ASP
9	GLU9	120	RESIDUE	1 ****	GLU
10	HIS10	135	RESIDUE	1 ****	HIS
11	VAL11	152	RESIDUE	1 ****	VAL
12	GLN12	168	RESIDUE	1 ****	GLN
13	ARG13	185	RESIDUE	1 ****	ARG
14	VAL14	209	RESIDUE	1 ****	VAL
15	CYS15	225	RESIDUE	1 ****	CYS
16	ARG16	236	RESIDUE	1 ****	ARG
