@<TRIPOS>MOLECULE
6-4
262 263 16              
SMALL
USER_CHARGES
@<TRIPOS>ATOM
1	   N	885.075	238.914	-852.663	N.3	1	GLU1	-0.516	
2	  CA	885.634	240.263	-852.663	C.3	1	GLU1	0.040	
3	   C	887.143	240.223	-852.663	C.2	1	GLU1	0.537	
4	   O	887.818	240.922	-853.432	O.2	1	GLU1	-0.582	
5	  CB	885.111	241.048	-851.426	C.3	1	GLU1	0.056	
6	  CG	885.586	242.533	-851.315	C.3	1	GLU1	0.014	
7	  CD	885.162	243.337	-850.100	C.2	1	GLU1	0.805	
8	 OE1	884.434	242.835	-849.222	O.co2	1	GLU1	-0.819	
9	 OE2	885.592	244.507	-850.028	O.co2	1	GLU1	-0.819	
10	   H	885.702	238.035	-852.663	 H	1	GLU1	0.294	
11	  HA	885.308	240.781	-853.583	 H	1	GLU1	0.111	
12	 2HB	885.400	240.517	-850.496	 H	1	GLU1	-0.017	
13	 3HB	884.004	241.038	-851.413	 H	1	GLU1	-0.017	
14	 2HG	885.276	243.118	-852.196	 H	1	GLU1	-0.043	
15	 3HG	886.686	242.600	-851.286	 H	1	GLU1	-0.043	
16	   N	887.747	239.437	-851.838	N.am	2	ASN2	-0.416	
17	  CA	889.207	239.398	-851.838	C.3	2	ASN2	0.014	
18	   C	889.738	239.043	-853.207	C.2	2	ASN2	0.597	
19	   O	890.653	239.674	-853.736	O.2	2	ASN2	-0.568	
20	  CB	889.699	238.375	-850.774	C.3	2	ASN2	-0.204	
21	  CG	889.236	238.599	-849.331	C.2	2	ASN2	0.713	
22	 ND2	889.830	239.514	-848.612	N.pl3	2	ASN2	-0.919	
23	 OD1	888.315	237.965	-848.836	O.2	2	ASN2	-0.593	
24	   H	887.219	238.857	-851.202	 H	2	ASN2	0.272	
25	  HA	889.584	240.408	-851.593	 H	2	ASN2	0.105	
26	 2HB	890.803	238.316	-850.778	 H	2	ASN2	0.080	
27	 3HB	889.370	237.357	-851.060	 H	2	ASN2	0.080	
28	1HD2	889.349	239.687	-847.726	 H	2	ASN2	0.420	
29	2HD2	890.532	240.086	-849.082	 H	2	ASN2	0.420	
30	   N	889.216	238.048	-853.841	N.am	3	PRO3	-0.255	
31	  CA	889.668	237.639	-855.163	C.3	3	PRO3	-0.027	
32	   C	889.270	238.662	-856.240	C.2	3	PRO3	0.590	
33	   O	890.094	239.045	-857.071	O.2	3	PRO3	-0.575	
34	  CB	888.964	236.284	-855.332	C.3	3	PRO3	-0.007	
35	  CG	887.681	236.436	-854.502	C.3	3	PRO3	0.019	
36	  CD	888.138	237.254	-853.292	C.3	3	PRO3	0.019	
37	  HA	890.754	237.519	-855.176	 H	3	PRO3	0.064	
38	 2HB	889.587	235.503	-854.891	 H	3	PRO3	0.025	
39	 3HB	888.766	236.035	-856.377	 H	3	PRO3	0.025	
40	 2HG	887.254	235.473	-854.211	 H	3	PRO3	0.021	
41	 3HG	886.943	237.007	-855.069	 H	3	PRO3	0.021	
42	 2HD	888.528	236.605	-852.505	 H	3	PRO3	0.039	
43	 3HD	887.342	237.890	-852.899	 H	3	PRO3	0.039	
44	   N	888.065	239.122	-856.272	N.am	4	GLU4	-0.516	
45	  CA	887.706	240.093	-857.302	C.3	4	GLU4	0.040	
46	   C	888.604	241.304	-857.240	C.2	4	GLU4	0.537	
47	   O	889.131	241.784	-858.255	O.2	4	GLU4	-0.582	
48	  CB	886.217	240.511	-857.131	C.3	4	GLU4	0.056	
49	  CG	885.669	241.515	-858.197	C.3	4	GLU4	0.014	
50	  CD	884.242	242.011	-858.054	C.2	4	GLU4	0.805	
51	 OE1	883.516	241.613	-857.123	O.co2	4	GLU4	-0.819	
52	 OE2	883.852	242.840	-858.902	O.co2	4	GLU4	-0.819	
53	   H	887.381	238.815	-855.595	 H	4	GLU4	0.294	
54	  HA	887.837	239.622	-858.293	 H	4	GLU4	0.111	
55	 2HB	886.064	240.951	-856.125	 H	4	GLU4	-0.017	
56	 3HB	885.569	239.613	-857.138	 H	4	GLU4	-0.017	
57	 2HG	885.750	241.100	-859.215	 H	4	GLU4	-0.043	
58	 3HG	886.257	242.447	-858.208	 H	4	GLU4	-0.043	
59	   N	888.831	241.857	-856.097	N.am	5	SER5	-0.416	
60	  CA	889.701	243.028	-856.039	C.3	5	SER5	-0.025	
61	   C	891.060	242.723	-856.624	C.2	5	SER5	0.597	
62	   O	891.607	243.476	-857.429	O.2	5	SER5	-0.568	
63	  CB	889.812	243.561	-854.588	C.3	5	SER5	0.212	
64	  OG	890.544	242.682	-853.727	O.3	5	SER5	-0.655	
65	   H	888.414	241.485	-855.256	 H	5	SER5	0.272	
66	  HA	889.251	243.818	-856.668	 H	5	SER5	0.084	
67	 2HB	888.812	243.754	-854.155	 H	5	SER5	0.035	
68	 3HB	890.317	244.547	-854.591	 H	5	SER5	0.035	
69	  HG	890.055	241.857	-853.677	 H	5	SER5	0.428	
70	   N	891.665	241.640	-856.270	N.am	6	VAL6	-0.416	
71	  CA	892.978	241.345	-856.836	C.3	6	VAL6	-0.087	
72	   C	892.920	241.307	-858.345	C.2	6	VAL6	0.597	
73	   O	893.753	241.894	-859.048	O.2	6	VAL6	-0.568	
74	  CB	893.515	239.975	-856.260	C.3	6	VAL6	0.299	
75	 CG1	894.818	239.422	-856.899	C.3	6	VAL6	-0.319	
76	 CG2	893.787	240.000	-854.736	C.3	6	VAL6	-0.319	
77	   H	891.236	241.006	-855.611	 H	6	VAL6	0.272	
78	  HA	893.675	242.157	-856.559	 H	6	VAL6	0.097	
79	  HB	892.727	239.213	-856.439	 H	6	VAL6	-0.030	
80	1HG1	895.671	240.119	-856.795	 H	6	VAL6	0.079	
81	2HG1	895.127	238.456	-856.454	 H	6	VAL6	0.079	
82	3HG1	894.702	239.211	-857.979	 H	6	VAL6	0.079	
83	1HG2	892.896	240.319	-854.165	 H	6	VAL6	0.079	
84	2HG2	894.055	238.998	-854.350	 H	6	VAL6	0.079	
85	3HG2	894.611	240.688	-854.468	 H	6	VAL6	0.079	
86	   N	891.974	240.644	-858.917	N.am	7	LEU7	-0.416	
87	  CA	891.919	240.607	-860.376	C.3	7	LEU7	-0.052	
88	   C	891.846	242.002	-860.949	C.2	7	LEU7	0.597	
89	   O	892.566	242.365	-861.891	O.2	7	LEU7	-0.568	
90	  CB	890.715	239.747	-860.855	C.3	7	LEU7	-0.110	
91	  CG	890.643	238.267	-860.388	C.3	7	LEU7	0.353	
92	 CD1	889.453	237.561	-861.053	C.3	7	LEU7	-0.412	
93	 CD2	891.936	237.488	-860.680	C.3	7	LEU7	-0.412	
94	   H	891.283	240.157	-858.366	 H	7	LEU7	0.272	
95	  HA	892.860	240.167	-860.751	 H	7	LEU7	0.092	
96	 2HB	890.692	239.762	-861.963	 H	7	LEU7	0.046	
97	 3HB	889.776	240.249	-860.551	 H	7	LEU7	0.046	
98	  HG	890.474	238.260	-859.291	 H	7	LEU7	-0.036	
99	1HD1	888.496	238.070	-860.830	 H	7	LEU7	0.100	
100	2HD1	889.551	237.521	-862.154	 H	7	LEU7	0.100	
101	3HD1	889.346	236.520	-860.697	 H	7	LEU7	0.100	
102	1HD2	892.211	237.518	-861.751	 H	7	LEU7	0.100	
103	2HD2	892.790	237.900	-860.110	 H	7	LEU7	0.100	
104	3HD2	891.855	236.426	-860.384	 H	7	LEU7	0.100	
105	   N	891.009	242.843	-860.442	N.am	8	ASP8	-0.516	
106	  CA	890.938	244.192	-860.996	C.3	8	ASP8	0.038	
107	   C	892.284	244.872	-860.940	C.2	8	ASP8	0.537	
108	   O	892.757	245.477	-861.915	O.2	8	ASP8	-0.582	
109	  CB	889.860	245.031	-860.254	C.3	8	ASP8	-0.030	
110	  CG	889.641	246.452	-860.794	C.2	8	ASP8	0.799	
111	 OD1	889.704	246.651	-862.025	O.co2	8	ASP8	-0.801	
112	 OD2	889.449	247.378	-859.979	O.co2	8	ASP8	-0.801	
113	   H	890.411	242.572	-859.674	 H	8	ASP8	0.294	
114	  HA	890.654	244.114	-862.063	 H	8	ASP8	0.088	
115	 2HB	890.118	245.115	-859.182	 H	8	ASP8	-0.012	
116	 3HB	888.881	244.526	-860.286	 H	8	ASP8	-0.012	
117	   N	892.965	244.823	-859.845	N.am	9	GLU9	-0.516	
118	  CA	894.268	245.480	-859.790	C.3	9	GLU9	0.040	
119	   C	895.185	244.953	-860.867	C.2	9	GLU9	0.537	
120	   O	895.848	245.707	-861.593	O.2	9	GLU9	-0.582	
121	  CB	894.902	245.273	-858.385	C.3	9	GLU9	0.056	
122	  CG	896.285	245.966	-858.157	C.3	9	GLU9	0.014	
123	  CD	896.987	245.753	-856.829	C.2	9	GLU9	0.805	
124	 OE1	896.466	245.062	-855.932	O.co2	9	GLU9	-0.819	
125	 OE2	898.106	246.291	-856.698	O.co2	9	GLU9	-0.819	
126	   H	892.602	244.336	-859.037	 H	9	GLU9	0.294	
127	  HA	894.125	246.562	-859.966	 H	9	GLU9	0.111	
128	 2HB	895.015	244.189	-858.182	 H	9	GLU9	-0.017	
129	 3HB	894.205	245.627	-857.601	 H	9	GLU9	-0.017	
130	 2HG	896.212	247.057	-858.297	 H	9	GLU9	-0.043	
131	 3HG	897.031	245.621	-858.891	 H	9	GLU9	-0.043	
132	   N	895.282	243.678	-861.036	N.am	10	HIS10	-0.416	
133	  CA	896.169	243.166	-862.077	C.3	10	HIS10	-0.058	
134	   C	895.801	243.730	-863.428	C.2	10	HIS10	0.597	
135	   O	896.653	244.195	-864.200	O.2	10	HIS10	-0.568	
136	  CB	896.005	241.637	-862.072	C.3	10	HIS10	-0.007	
137	  CG	897.292	240.927	-861.764	C.2	10	HIS10	0.187	
138	 CD2	897.673	240.592	-860.472	C.2	10	HIS10	-0.221	
139	 ND1	898.243	240.522	-862.697	N.2	10	HIS10	-0.543	
140	 CE1	899.150	239.964	-861.874	C.2	10	HIS10	0.163	
141	 NE2	898.888	239.961	-860.539	N.pl3	10	HIS10	-0.280	
142	   H	894.751	243.042	-860.457	 H	10	HIS10	0.272	
143	  HA	897.188	243.524	-861.852	 H	10	HIS10	0.136	
144	 2HB	895.640	241.270	-863.051	 H	10	HIS10	0.037	
145	 3HB	895.250	241.300	-861.331	 H	10	HIS10	0.037	
146	 2HD	897.088	240.808	-859.582	 H	10	HIS10	0.186	
147	 1HE	900.041	239.543	-862.322	 H	10	HIS10	0.144	
148	 2HE	899.456	239.584	-859.766	 H	10	HIS10	0.334	
149	   N	894.563	243.729	-863.790	N.am	11	VAL11	-0.416	
150	  CA	894.207	244.275	-865.097	C.3	11	VAL11	-0.087	
151	   C	894.671	245.706	-865.230	C.2	11	VAL11	0.597	
152	   O	895.272	246.111	-866.233	O.2	11	VAL11	-0.568	
153	  CB	892.646	244.168	-865.315	C.3	11	VAL11	0.299	
154	 CG1	892.076	244.872	-866.578	C.3	11	VAL11	-0.319	
155	 CG2	892.122	242.714	-865.388	C.3	11	VAL11	-0.319	
156	   H	893.851	243.356	-863.179	 H	11	VAL11	0.272	
157	  HA	894.726	243.693	-865.879	 H	11	VAL11	0.097	
158	  HB	892.159	244.648	-864.440	 H	11	VAL11	-0.030	
159	1HG1	892.514	244.480	-867.515	 H	11	VAL11	0.079	
160	2HG1	890.977	244.764	-866.659	 H	11	VAL11	0.079	
161	3HG1	892.254	245.964	-866.569	 H	11	VAL11	0.079	
162	1HG2	892.412	242.127	-864.497	 H	11	VAL11	0.079	
163	2HG2	891.016	242.676	-865.430	 H	11	VAL11	0.079	
164	3HG2	892.503	242.173	-866.275	 H	11	VAL11	0.079	
165	   N	894.435	246.531	-864.267	N.am	12	GLN12	-0.416	
166	  CA	894.883	247.914	-864.395	C.3	12	GLN12	-0.003	
167	   C	896.373	247.982	-864.634	C.2	12	GLN12	0.597	
168	   O	896.859	248.690	-865.513	O.2	12	GLN12	-0.568	
169	  CB	894.493	248.682	-863.112	C.3	12	GLN12	-0.004	
170	  CG	894.853	250.204	-863.082	C.3	12	GLN12	-0.064	
171	  CD	894.551	251.017	-861.817	C.2	12	GLN12	0.695	
172	 NE2	893.984	250.441	-860.787	N.pl3	12	GLN12	-0.941	
173	 OE1	894.853	252.199	-861.740	O.2	12	GLN12	-0.609	
174	   H	893.946	246.225	-863.438	 H	12	GLN12	0.272	
175	  HA	894.383	248.371	-865.270	 H	12	GLN12	0.085	
176	 2HB	894.969	248.182	-862.243	 H	12	GLN12	0.017	
177	 3HB	893.402	248.575	-862.948	 H	12	GLN12	0.017	
178	 2HG	894.375	250.724	-863.932	 H	12	GLN12	0.035	
179	 3HG	895.936	250.346	-863.248	 H	12	GLN12	0.035	
180	1HE2	893.878	251.036	-859.964	 H	12	GLN12	0.425	
181	2HE2	893.821	249.438	-860.891	 H	12	GLN12	0.425	
182	   N	897.158	247.275	-863.893	N.am	13	ARG13	-0.348	
183	  CA	898.598	247.341	-864.125	C.3	13	ARG13	-0.264	
184	   C	898.933	246.970	-865.550	C.2	13	ARG13	0.734	
185	   O	899.701	247.641	-866.234	O.2	13	ARG13	-0.589	
186	  CB	899.312	246.402	-863.111	C.3	13	ARG13	-0.001	
187	  CG	900.857	246.556	-863.031	C.3	13	ARG13	0.039	
188	  CD	901.484	245.568	-862.033	C.3	13	ARG13	0.049	
189	  NE	902.962	245.776	-861.984	N.pl3	13	ARG13	-0.530	
190	  CZ	903.810	245.084	-861.229	C.cat	13	ARG13	0.808	
191	 NH1	903.446	244.120	-860.431	N.pl3	13	ARG13	-0.863	
192	 NH2	905.070	245.383	-861.287	N.pl3	13	ARG13	-0.863	
193	   H	896.782	246.686	-863.164	 H	13	ARG13	0.275	
194	  HA	898.922	248.387	-863.967	 H	13	ARG13	0.156	
195	 2HB	899.045	245.352	-863.350	 H	13	ARG13	0.033	
196	 3HB	898.887	246.569	-862.100	 H	13	ARG13	0.033	
197	 2HG	901.105	247.600	-862.752	 H	13	ARG13	0.029	
198	 3HG	901.307	246.400	-864.033	 H	13	ARG13	0.029	
199	 2HD	901.240	244.528	-862.342	 H	13	ARG13	0.069	
200	 3HD	901.029	245.714	-861.031	 H	13	ARG13	0.069	
201	  HE	903.412	246.498	-862.555	 H	13	ARG13	0.346	
202	1HH1	902.440	243.934	-860.434	 H	13	ARG13	0.448	
203	2HH1	904.159	243.637	-859.883	 H	13	ARG13	0.448	
204	1HH2	905.337	246.141	-861.918	 H	13	ARG13	0.448	
205	2HH2	905.705	244.842	-860.698	 H	13	ARG13	0.448	
206	   N	898.397	245.915	-866.064	N.am	14	VAL14	-0.416	
207	  CA	898.721	245.556	-867.441	C.3	14	VAL14	-0.087	
208	   C	898.390	246.685	-868.387	C.2	14	VAL14	0.597	
209	   O	899.183	247.067	-869.257	O.2	14	VAL14	-0.568	
210	  CB	897.949	244.238	-867.848	C.3	14	VAL14	0.299	
211	 CG1	898.037	243.820	-869.341	C.3	14	VAL14	-0.319	
212	 CG2	898.381	242.986	-867.048	C.3	14	VAL14	-0.319	
213	   H	897.762	245.346	-865.522	 H	14	VAL14	0.272	
214	  HA	899.809	245.379	-867.517	 H	14	VAL14	0.097	
215	  HB	896.873	244.409	-867.631	 H	14	VAL14	-0.030	
216	1HG1	899.078	243.643	-869.671	 H	14	VAL14	0.079	
217	2HG1	897.464	242.897	-869.554	 H	14	VAL14	0.079	
218	3HG1	897.608	244.582	-870.019	 H	14	VAL14	0.079	
219	1HG2	898.295	243.145	-865.957	 H	14	VAL14	0.079	
220	2HG2	897.745	242.110	-867.279	 H	14	VAL14	0.079	
221	3HG2	899.429	242.696	-867.254	 H	14	VAL14	0.079	
222	   N	897.246	247.271	-868.285	N.am	15	MET15	-0.416	
223	  CA	896.925	248.364	-869.198	C.3	15	MET15	-0.024	
224	   C	897.955	249.464	-869.111	C.2	15	MET15	0.597	
225	   O	898.457	249.974	-870.124	O.2	15	MET15	-0.568	
226	  CB	895.503	248.909	-868.888	C.3	15	MET15	0.034	
227	  CG	894.341	247.911	-869.079	C.3	15	MET15	0.002	
228	  SD	892.767	248.777	-868.964	S.3	15	MET15	-0.274	
229	  CE	891.686	247.347	-868.827	C.3	15	MET15	-0.054	
230	   H	896.581	246.978	-867.583	 H	15	MET15	0.272	
231	  HA	896.950	247.976	-870.234	 H	15	MET15	0.088	
232	 2HB	895.300	249.788	-869.531	 H	15	MET15	0.024	
233	 3HB	895.468	249.302	-867.852	 H	15	MET15	0.024	
234	 2HG	894.385	247.125	-868.302	 H	15	MET15	0.044	
235	 3HG	894.404	247.396	-870.056	 H	15	MET15	0.044	
236	 1HE	891.830	246.659	-869.679	 H	15	MET15	0.068	
237	 2HE	891.896	246.794	-867.894	 H	15	MET15	0.068	
238	 3HE	890.629	247.662	-868.810	 H	15	MET15	0.068	
239	   N	898.324	249.885	-867.949	N.am	16	ARG16	-0.348	
240	  CA	899.320	250.949	-867.866	C.3	16	ARG16	-0.264	
241	   C	900.591	250.556	-868.583	C.2	16	ARG16	0.734	
242	   O	900.704	249.480	-869.164	O.2	16	ARG16	-0.589	
243	  CB	899.590	251.267	-866.368	C.3	16	ARG16	-0.001	
244	  CG	900.415	252.556	-866.096	C.3	16	ARG16	0.039	
245	  CD	900.666	252.776	-864.595	C.3	16	ARG16	0.049	
246	  NE	901.442	254.035	-864.394	N.pl3	16	ARG16	-0.530	
247	  CZ	901.834	254.517	-863.219	C.cat	16	ARG16	0.808	
248	 NH1	901.587	253.933	-862.080	N.pl3	16	ARG16	-0.863	
249	 NH2	902.498	255.630	-863.201	N.pl3	16	ARG16	-0.863	
250	   H	897.930	249.485	-867.110	 H	16	ARG16	0.275	
251	  HA	898.911	251.842	-868.376	 H	16	ARG16	0.156	
252	 2HB	900.087	250.391	-865.902	 H	16	ARG16	0.033	
253	 3HB	898.622	251.348	-865.834	 H	16	ARG16	0.033	
254	 2HG	899.885	253.427	-866.533	 H	16	ARG16	0.029	
255	 3HG	901.389	252.503	-866.625	 H	16	ARG16	0.029	
256	 2HD	901.215	251.901	-864.181	 H	16	ARG16	0.069	
257	 3HD	899.693	252.818	-864.059	 H	16	ARG16	0.069	
258	  HE	901.720	254.616	-865.191	 H	16	ARG16	0.346	
259	1HH1	901.061	253.060	-862.164	 H	16	ARG16	0.448	
260	2HH1	901.922	254.369	-861.219	 H	16	ARG16	0.448	
261	1HH2	902.683	256.073	-864.103	 H	16	ARG16	0.448	
262	2HH2	902.788	255.985	-862.288	 H	16	ARG16	0.448	
@<TRIPOS>BOND
1 1 2 1
2 1 10 1
3 2 3 1
4 2 5 1
5 2 11 1
6 3 4 2
7 3 16 1
8 5 6 1
9 6 7 1
10 7 8 2
11 7 9 1
12 5 12 1
13 5 13 1
14 6 14 1
15 6 15 1
16 16 17 1
17 16 24 1
18 17 18 1
19 17 20 1
20 17 25 1
21 18 19 2
22 18 30 1
23 20 21 1
24 21 22 1
25 21 23 2
26 20 26 1
27 20 27 1
28 22 28 1
29 22 29 1
30 30 31 1
31 30 36 1
32 31 32 1
33 31 34 1
34 31 37 1
35 32 33 2
36 32 44 1
37 34 35 1
38 35 36 1
39 34 38 1
40 34 39 1
41 35 40 1
42 35 41 1
43 36 42 1
44 36 43 1
45 44 45 1
46 44 53 1
47 45 46 1
48 45 48 1
49 45 54 1
50 46 47 2
51 46 59 1
52 48 49 1
53 49 50 1
54 50 51 2
55 50 52 1
56 48 55 1
57 48 56 1
58 49 57 1
59 49 58 1
60 59 60 1
61 59 65 1
62 60 61 1
63 60 63 1
64 60 66 1
65 61 62 2
66 61 70 1
67 63 64 1
68 63 67 1
69 63 68 1
70 64 69 1
71 70 71 1
72 70 77 1
73 71 72 1
74 71 74 1
75 71 78 1
76 72 73 2
77 72 86 1
78 74 75 1
79 74 76 1
80 74 79 1
81 75 80 1
82 75 81 1
83 75 82 1
84 76 83 1
85 76 84 1
86 76 85 1
87 86 87 1
88 86 94 1
89 87 88 1
90 87 90 1
91 87 95 1
92 88 89 2
93 88 105 1
94 90 91 1
95 91 92 1
96 91 93 1
97 90 96 1
98 90 97 1
99 91 98 1
100 92 99 1
101 92 100 1
102 92 101 1
103 93 102 1
104 93 103 1
105 93 104 1
106 105 106 1
107 105 113 1
108 106 107 1
109 106 109 1
110 106 114 1
111 107 108 2
112 107 117 1
113 109 110 1
114 110 111 2
115 110 112 1
116 109 115 1
117 109 116 1
118 117 118 1
119 117 126 1
120 118 119 1
121 118 121 1
122 118 127 1
123 119 120 2
124 119 132 1
125 121 122 1
126 122 123 1
127 123 124 2
128 123 125 1
129 121 128 1
130 121 129 1
131 122 130 1
132 122 131 1
133 132 133 1
134 132 142 1
135 133 134 1
136 133 136 1
137 133 143 1
138 134 135 2
139 134 149 1
140 136 137 1
141 137 138 2
142 138 141 1
143 137 139 1
144 139 140 2
145 140 141 1
146 136 144 1
147 136 145 1
148 138 146 1
149 140 147 1
150 141 148 1
151 149 150 1
152 149 156 1
153 150 151 1
154 150 153 1
155 150 157 1
156 151 152 2
157 151 165 1
158 153 154 1
159 153 155 1
160 153 158 1
161 154 159 1
162 154 160 1
163 154 161 1
164 155 162 1
165 155 163 1
166 155 164 1
167 165 166 1
168 165 174 1
169 166 167 1
170 166 169 1
171 166 175 1
172 167 168 2
173 167 182 1
174 169 170 1
175 170 171 1
176 171 172 1
177 171 173 2
178 169 176 1
179 169 177 1
180 170 178 1
181 170 179 1
182 172 180 1
183 172 181 1
184 182 183 1
185 182 193 1
186 183 184 1
187 183 186 1
188 183 194 1
189 184 185 2
190 184 206 1
191 186 187 1
192 187 188 1
193 188 189 1
194 189 190 1
195 190 191 2
196 190 192 1
197 186 195 1
198 186 196 1
199 187 197 1
200 187 198 1
201 188 199 1
202 188 200 1
203 189 201 1
204 191 202 1
205 191 203 1
206 192 204 1
207 192 205 1
208 206 207 1
209 206 213 1
210 207 208 1
211 207 210 1
212 207 214 1
213 208 209 2
214 208 222 1
215 210 211 1
216 210 212 1
217 210 215 1
218 211 216 1
219 211 217 1
220 211 218 1
221 212 219 1
222 212 220 1
223 212 221 1
224 222 223 1
225 222 230 1
226 223 224 1
227 223 226 1
228 223 231 1
229 224 225 2
230 224 239 1
231 226 227 1
232 227 228 1
233 228 229 1
234 226 232 1
235 226 233 1
236 227 234 1
237 227 235 1
238 229 236 1
239 229 237 1
240 229 238 1
241 239 240 1
242 239 250 1
243 240 241 1
244 240 243 1
245 240 251 1
246 241 242 2
247 243 244 1
248 244 245 1
249 245 246 1
250 246 247 1
251 247 248 2
252 247 249 1
253 243 252 1
254 243 253 1
255 244 254 1
256 244 255 1
257 245 256 1
258 245 257 1
259 246 258 1
260 248 259 1
261 248 260 1
262 249 261 1
263 249 262 1
@<TRIPOS>SUBSTRUCTURE
1	GLU1	1	RESIDUE	1 ****	GLU
2	ASN2	16	RESIDUE	1 ****	ASN
3	PRO3	30	RESIDUE	1 ****	PRO
4	GLU4	44	RESIDUE	1 ****	GLU
5	SER5	59	RESIDUE	1 ****	SER
6	VAL6	70	RESIDUE	1 ****	VAL
7	LEU7	86	RESIDUE	1 ****	LEU
8	ASP8	105	RESIDUE	1 ****	ASP
9	GLU9	117	RESIDUE	1 ****	GLU
10	HIS10	132	RESIDUE	1 ****	HIS
11	VAL11	149	RESIDUE	1 ****	VAL
12	GLN12	165	RESIDUE	1 ****	GLN
13	ARG13	182	RESIDUE	1 ****	ARG
14	VAL14	206	RESIDUE	1 ****	VAL
15	MET15	222	RESIDUE	1 ****	MET
16	ARG16	239	RESIDUE	1 ****	ARG
