@<TRIPOS>MOLECULE
4-5
267 268 16              
SMALL
USER_CHARGES
@<TRIPOS>ATOM
1	   N	565.978	135.833	-508.782	N.3	1	GLU1	-0.516	
2	  CA	566.537	137.182	-508.782	C.3	1	GLU1	0.040	
3	   C	568.046	137.142	-508.782	C.2	1	GLU1	0.537	
4	   O	568.722	137.841	-509.550	O.2	1	GLU1	-0.582	
5	  CB	566.014	137.967	-507.545	C.3	1	GLU1	0.056	
6	  CG	566.489	139.452	-507.434	C.3	1	GLU1	0.014	
7	  CD	566.065	140.256	-506.219	C.2	1	GLU1	0.805	
8	 OE1	565.337	139.754	-505.341	O.co2	1	GLU1	-0.819	
9	 OE2	566.495	141.426	-506.147	O.co2	1	GLU1	-0.819	
10	   H	566.605	134.954	-508.782	 H	1	GLU1	0.294	
11	  HA	566.211	137.700	-509.702	 H	1	GLU1	0.111	
12	 2HB	566.303	137.436	-506.615	 H	1	GLU1	-0.017	
13	 3HB	564.907	137.957	-507.532	 H	1	GLU1	-0.017	
14	 2HG	566.179	140.037	-508.315	 H	1	GLU1	-0.043	
15	 3HG	567.589	139.519	-507.405	 H	1	GLU1	-0.043	
16	   N	568.651	136.356	-507.956	N.am	2	ASN2	-0.416	
17	  CA	570.110	136.318	-507.956	C.3	2	ASN2	0.014	
18	   C	570.641	135.962	-509.325	C.2	2	ASN2	0.597	
19	   O	571.556	136.593	-509.854	O.2	2	ASN2	-0.568	
20	  CB	570.602	135.295	-506.892	C.3	2	ASN2	-0.204	
21	  CG	570.139	135.518	-505.449	C.2	2	ASN2	0.713	
22	 ND2	570.733	136.433	-504.731	N.pl3	2	ASN2	-0.919	
23	 OD1	569.219	134.885	-504.955	O.2	2	ASN2	-0.593	
24	   H	568.123	135.776	-507.320	 H	2	ASN2	0.272	
25	  HA	570.487	137.327	-507.711	 H	2	ASN2	0.105	
26	 2HB	571.707	135.236	-506.896	 H	2	ASN2	0.080	
27	 3HB	570.273	134.276	-507.178	 H	2	ASN2	0.080	
28	1HD2	570.253	136.606	-503.844	 H	2	ASN2	0.420	
29	2HD2	571.435	137.005	-505.200	 H	2	ASN2	0.420	
30	   N	570.120	134.967	-509.959	N.am	3	PRO3	-0.255	
31	  CA	570.572	134.558	-511.281	C.3	3	PRO3	-0.027	
32	   C	570.174	135.581	-512.358	C.2	3	PRO3	0.590	
33	   O	570.997	135.965	-513.189	O.2	3	PRO3	-0.575	
34	  CB	569.868	133.203	-511.450	C.3	3	PRO3	-0.007	
35	  CG	568.585	133.355	-510.620	C.3	3	PRO3	0.019	
36	  CD	569.042	134.174	-509.410	C.3	3	PRO3	0.019	
37	  HA	571.658	134.438	-511.294	 H	3	PRO3	0.064	
38	 2HB	570.491	132.422	-511.009	 H	3	PRO3	0.025	
39	 3HB	569.670	132.954	-512.495	 H	3	PRO3	0.025	
40	 2HG	568.157	132.393	-510.329	 H	3	PRO3	0.021	
41	 3HG	567.847	133.926	-511.187	 H	3	PRO3	0.021	
42	 2HD	569.431	133.524	-508.623	 H	3	PRO3	0.039	
43	 3HD	568.245	134.809	-509.017	 H	3	PRO3	0.039	
44	   N	568.969	136.041	-512.390	N.am	4	MET4	-0.416	
45	  CA	568.609	137.012	-513.419	C.3	4	MET4	-0.024	
46	   C	569.506	138.224	-513.359	C.2	4	MET4	0.597	
47	   O	570.031	138.703	-514.376	O.2	4	MET4	-0.568	
48	  CB	567.117	137.418	-513.261	C.3	4	MET4	0.034	
49	  CG	566.086	136.283	-513.443	C.3	4	MET4	0.002	
50	  SD	564.426	136.973	-513.518	S.3	4	MET4	-0.274	
51	  CE	563.494	135.447	-513.329	C.3	4	MET4	-0.054	
52	   H	568.285	135.734	-511.713	 H	4	MET4	0.272	
53	  HA	568.758	136.546	-514.411	 H	4	MET4	0.088	
54	 2HB	566.875	138.212	-513.993	 H	4	MET4	0.024	
55	 3HB	566.958	137.888	-512.270	 H	4	MET4	0.024	
56	 2HG	566.150	135.574	-512.596	 H	4	MET4	0.044	
57	 3HG	566.281	135.700	-514.362	 H	4	MET4	0.044	
58	 1HE	563.778	134.711	-514.103	 H	4	MET4	0.068	
59	 2HE	563.686	135.000	-512.338	 H	4	MET4	0.068	
60	 3HE	562.411	135.642	-513.415	 H	4	MET4	0.068	
61	   N	569.734	138.778	-512.217	N.am	5	SER5	-0.416	
62	  CA	570.603	139.950	-512.160	C.3	5	SER5	-0.025	
63	   C	571.961	139.645	-512.747	C.2	5	SER5	0.597	
64	   O	572.507	140.399	-513.554	O.2	5	SER5	-0.568	
65	  CB	570.716	140.484	-510.711	C.3	5	SER5	0.212	
66	  OG	571.449	139.606	-509.850	O.3	5	SER5	-0.655	
67	   H	569.319	138.407	-511.375	 H	5	SER5	0.272	
68	  HA	570.152	140.739	-512.790	 H	5	SER5	0.084	
69	 2HB	569.716	140.677	-510.276	 H	5	SER5	0.035	
70	 3HB	571.220	141.470	-510.714	 H	5	SER5	0.035	
71	  HG	570.961	138.781	-509.797	 H	5	SER5	0.428	
72	   N	572.567	138.563	-512.393	N.am	6	ILE6	-0.416	
73	  CA	573.880	138.269	-512.961	C.3	6	ILE6	-0.060	
74	   C	573.821	138.230	-514.468	C.2	6	ILE6	0.597	
75	   O	574.655	138.818	-515.174	O.2	6	ILE6	-0.568	
76	  CB	574.482	136.934	-512.360	C.3	6	ILE6	0.130	
77	 CG1	574.503	136.874	-510.799	C.3	6	ILE6	-0.043	
78	 CG2	575.923	136.633	-512.877	C.3	6	ILE6	-0.320	
79	 CD1	574.775	135.485	-510.183	C.3	6	ILE6	-0.066	
80	   H	572.140	137.929	-511.733	 H	6	ILE6	0.272	
81	  HA	574.554	139.104	-512.694	 H	6	ILE6	0.087	
82	  HB	573.824	136.107	-512.702	 H	6	ILE6	0.019	
83	2HG1	573.521	137.193	-510.402	 H	6	ILE6	0.024	
84	3HG1	575.219	137.617	-510.396	 H	6	ILE6	0.024	
85	1HG2	575.981	136.539	-513.975	 H	6	ILE6	0.088	
86	2HG2	576.645	137.416	-512.576	 H	6	ILE6	0.088	
87	3HG2	576.314	135.672	-512.497	 H	6	ILE6	0.088	
88	1HD1	574.047	134.730	-510.536	 H	6	ILE6	0.019	
89	2HD1	575.786	135.107	-510.419	 H	6	ILE6	0.019	
90	3HD1	574.700	135.516	-509.080	 H	6	ILE6	0.019	
91	   N	572.875	137.565	-515.040	N.am	7	LEU7	-0.416	
92	  CA	572.819	137.527	-516.499	C.3	7	LEU7	-0.052	
93	   C	572.744	138.922	-517.072	C.2	7	LEU7	0.597	
94	   O	573.464	139.285	-518.015	O.2	7	LEU7	-0.568	
95	  CB	571.616	136.665	-516.977	C.3	7	LEU7	-0.110	
96	  CG	571.545	135.187	-516.509	C.3	7	LEU7	0.353	
97	 CD1	570.355	134.479	-517.172	C.3	7	LEU7	-0.412	
98	 CD2	572.839	134.408	-516.801	C.3	7	LEU7	-0.412	
99	   H	572.185	137.078	-514.488	 H	7	LEU7	0.272	
100	  HA	573.761	137.088	-516.874	 H	7	LEU7	0.092	
101	 2HB	571.591	136.680	-518.084	 H	7	LEU7	0.046	
102	 3HB	570.676	137.168	-516.672	 H	7	LEU7	0.046	
103	  HG	571.377	135.179	-515.411	 H	7	LEU7	-0.036	
104	1HD1	569.398	134.987	-516.949	 H	7	LEU7	0.100	
105	2HD1	570.453	134.437	-518.273	 H	7	LEU7	0.100	
106	3HD1	570.250	133.438	-516.815	 H	7	LEU7	0.100	
107	1HD2	573.113	134.438	-517.871	 H	7	LEU7	0.100	
108	2HD2	573.693	134.821	-516.231	 H	7	LEU7	0.100	
109	3HD2	572.759	133.346	-516.504	 H	7	LEU7	0.100	
110	   N	571.907	139.762	-516.566	N.am	8	ASP8	-0.516	
111	  CA	571.835	141.111	-517.120	C.3	8	ASP8	0.038	
112	   C	573.181	141.792	-517.065	C.2	8	ASP8	0.537	
113	   O	573.652	142.397	-518.041	O.2	8	ASP8	-0.582	
114	  CB	570.756	141.950	-516.378	C.3	8	ASP8	-0.030	
115	  CG	570.536	143.370	-516.920	C.2	8	ASP8	0.799	
116	 OD1	570.598	143.568	-518.151	O.co2	8	ASP8	-0.801	
117	 OD2	570.344	144.296	-516.105	O.co2	8	ASP8	-0.801	
118	   H	571.310	139.491	-515.797	 H	8	ASP8	0.294	
119	  HA	571.551	141.032	-518.187	 H	8	ASP8	0.088	
120	 2HB	571.015	142.034	-515.307	 H	8	ASP8	-0.012	
121	 3HB	569.778	141.444	-516.410	 H	8	ASP8	-0.012	
122	   N	573.862	141.744	-515.971	N.am	9	GLU9	-0.516	
123	  CA	575.164	142.403	-515.917	C.3	9	GLU9	0.040	
124	   C	576.081	141.876	-516.993	C.2	9	GLU9	0.537	
125	   O	576.744	142.630	-517.720	O.2	9	GLU9	-0.582	
126	  CB	575.799	142.197	-514.512	C.3	9	GLU9	0.056	
127	  CG	577.181	142.891	-514.285	C.3	9	GLU9	0.014	
128	  CD	577.884	142.680	-512.957	C.2	9	GLU9	0.805	
129	 OE1	577.365	141.989	-512.060	O.co2	9	GLU9	-0.819	
130	 OE2	579.003	143.219	-512.827	O.co2	9	GLU9	-0.819	
131	   H	573.500	141.258	-515.163	 H	9	GLU9	0.294	
132	  HA	575.020	143.485	-516.093	 H	9	GLU9	0.111	
133	 2HB	575.913	141.113	-514.308	 H	9	GLU9	-0.017	
134	 3HB	575.102	142.551	-513.728	 H	9	GLU9	-0.017	
135	 2HG	577.108	143.982	-514.426	 H	9	GLU9	-0.043	
136	 3HG	577.927	142.546	-515.019	 H	9	GLU9	-0.043	
137	   N	576.179	140.600	-517.162	N.am	10	HIS10	-0.416	
138	  CA	577.066	140.089	-518.203	C.3	10	HIS10	-0.058	
139	   C	576.698	140.652	-519.554	C.2	10	HIS10	0.597	
140	   O	577.549	141.117	-520.327	O.2	10	HIS10	-0.568	
141	  CB	576.904	138.560	-518.197	C.3	10	HIS10	-0.007	
142	  CG	578.191	137.852	-517.889	C.2	10	HIS10	0.187	
143	 CD2	578.573	137.518	-516.597	C.2	10	HIS10	-0.221	
144	 ND1	579.142	137.446	-518.822	N.2	10	HIS10	-0.543	
145	 CE1	580.050	136.889	-518.000	C.2	10	HIS10	0.163	
146	 NE2	579.789	136.887	-516.664	N.pl3	10	HIS10	-0.280	
147	   H	575.649	139.965	-516.583	 H	10	HIS10	0.272	
148	  HA	578.085	140.448	-517.979	 H	10	HIS10	0.136	
149	 2HB	576.538	138.192	-519.176	 H	10	HIS10	0.037	
150	 3HB	576.150	138.223	-517.456	 H	10	HIS10	0.037	
151	 2HD	577.989	137.733	-515.707	 H	10	HIS10	0.186	
152	 1HE	580.941	136.469	-518.447	 H	10	HIS10	0.144	
153	 2HE	580.357	136.511	-515.891	 H	10	HIS10	0.334	
154	   N	575.459	140.650	-519.916	N.am	11	VAL11	-0.416	
155	  CA	575.103	141.194	-521.223	C.3	11	VAL11	-0.087	
156	   C	575.565	142.625	-521.357	C.2	11	VAL11	0.597	
157	   O	576.165	143.030	-522.361	O.2	11	VAL11	-0.568	
158	  CB	573.541	141.086	-521.441	C.3	11	VAL11	0.299	
159	 CG1	572.971	141.788	-522.703	C.3	11	VAL11	-0.319	
160	 CG2	573.018	139.631	-521.512	C.3	11	VAL11	-0.319	
161	   H	574.747	140.276	-519.304	 H	11	VAL11	0.272	
162	  HA	575.622	140.612	-522.005	 H	11	VAL11	0.097	
163	  HB	573.054	141.566	-520.565	 H	11	VAL11	-0.030	
164	1HG1	573.409	141.396	-523.641	 H	11	VAL11	0.079	
165	2HG1	571.872	141.680	-522.784	 H	11	VAL11	0.079	
166	3HG1	573.148	142.881	-522.695	 H	11	VAL11	0.079	
167	1HG2	573.309	139.045	-520.621	 H	11	VAL11	0.079	
168	2HG2	571.912	139.593	-521.554	 H	11	VAL11	0.079	
169	3HG2	573.400	139.090	-522.399	 H	11	VAL11	0.079	
170	   N	575.328	143.452	-520.395	N.am	12	GLN12	-0.416	
171	  CA	575.775	144.835	-520.523	C.3	12	GLN12	-0.003	
172	   C	577.265	144.904	-520.763	C.2	12	GLN12	0.597	
173	   O	577.750	145.612	-521.642	O.2	12	GLN12	-0.568	
174	  CB	575.385	145.603	-519.241	C.3	12	GLN12	-0.004	
175	  CG	575.743	147.125	-519.211	C.3	12	GLN12	-0.064	
176	  CD	575.441	147.939	-517.946	C.2	12	GLN12	0.695	
177	 NE2	574.876	147.363	-516.916	N.pl3	12	GLN12	-0.941	
178	 OE1	575.742	149.120	-517.870	O.2	12	GLN12	-0.609	
179	   H	574.840	143.145	-519.565	 H	12	GLN12	0.272	
180	  HA	575.274	145.290	-521.398	 H	12	GLN12	0.085	
181	 2HB	575.862	145.104	-518.371	 H	12	GLN12	0.017	
182	 3HB	574.295	145.494	-519.076	 H	12	GLN12	0.017	
183	 2HG	575.264	147.645	-520.062	 H	12	GLN12	0.035	
184	 3HG	576.826	147.268	-519.378	 H	12	GLN12	0.035	
185	1HE2	574.769	147.958	-516.093	 H	12	GLN12	0.425	
186	2HE2	574.713	146.359	-517.019	 H	12	GLN12	0.425	
187	   N	578.051	144.198	-520.022	N.am	13	ARG13	-0.348	
188	  CA	579.491	144.266	-520.254	C.3	13	ARG13	-0.264	
189	   C	579.826	143.894	-521.679	C.2	13	ARG13	0.734	
190	   O	580.593	144.566	-522.365	O.2	13	ARG13	-0.589	
191	  CB	580.206	143.328	-519.241	C.3	13	ARG13	-0.001	
192	  CG	581.751	143.483	-519.161	C.3	13	ARG13	0.039	
193	  CD	582.380	142.497	-518.163	C.3	13	ARG13	0.049	
194	  NE	583.857	142.706	-518.115	N.pl3	13	ARG13	-0.530	
195	  CZ	584.707	142.015	-517.360	C.cat	13	ARG13	0.808	
196	 NH1	584.344	141.051	-516.562	N.pl3	13	ARG13	-0.863	
197	 NH2	585.966	142.316	-517.418	N.pl3	13	ARG13	-0.863	
198	   H	577.676	143.608	-519.293	 H	13	ARG13	0.275	
199	  HA	579.814	145.312	-520.097	 H	13	ARG13	0.156	
200	 2HB	579.941	142.277	-519.479	 H	13	ARG13	0.033	
201	 3HB	579.782	143.495	-518.230	 H	13	ARG13	0.033	
202	 2HG	581.998	144.528	-518.883	 H	13	ARG13	0.029	
203	 3HG	582.201	143.327	-520.163	 H	13	ARG13	0.029	
204	 2HD	582.137	141.456	-518.472	 H	13	ARG13	0.069	
205	 3HD	581.924	142.642	-517.161	 H	13	ARG13	0.069	
206	  HE	584.307	143.428	-518.686	 H	13	ARG13	0.346	
207	1HH1	583.338	140.864	-516.563	 H	13	ARG13	0.448	
208	2HH1	585.058	140.569	-516.013	 H	13	ARG13	0.448	
209	1HH2	586.232	143.073	-518.050	 H	13	ARG13	0.448	
210	2HH2	586.602	141.776	-516.830	 H	13	ARG13	0.448	
211	   N	579.290	142.838	-522.193	N.am	14	VAL14	-0.416	
212	  CA	579.614	142.478	-523.570	C.3	14	VAL14	-0.087	
213	   C	579.282	143.607	-524.516	C.2	14	VAL14	0.597	
214	   O	580.074	143.989	-525.387	O.2	14	VAL14	-0.568	
215	  CB	578.843	141.160	-523.976	C.3	14	VAL14	0.299	
216	 CG1	578.931	140.741	-525.469	C.3	14	VAL14	-0.319	
217	 CG2	579.277	139.909	-523.175	C.3	14	VAL14	-0.319	
218	   H	578.657	142.269	-521.650	 H	14	VAL14	0.272	
219	  HA	580.703	142.303	-523.646	 H	14	VAL14	0.097	
220	  HB	577.767	141.330	-523.759	 H	14	VAL14	-0.030	
221	1HG1	579.972	140.565	-525.799	 H	14	VAL14	0.079	
222	2HG1	578.359	139.817	-525.681	 H	14	VAL14	0.079	
223	3HG1	578.501	141.502	-526.147	 H	14	VAL14	0.079	
224	1HG2	579.191	140.068	-522.085	 H	14	VAL14	0.079	
225	2HG2	578.642	139.032	-523.406	 H	14	VAL14	0.079	
226	3HG2	580.325	139.620	-523.382	 H	14	VAL14	0.079	
227	   N	578.137	144.192	-524.414	N.am	15	MET15	-0.416	
228	  CA	577.814	145.284	-525.328	C.3	15	MET15	-0.024	
229	   C	578.843	146.385	-525.242	C.2	15	MET15	0.597	
230	   O	579.345	146.895	-526.255	O.2	15	MET15	-0.568	
231	  CB	576.393	145.828	-525.018	C.3	15	MET15	0.034	
232	  CG	575.232	144.828	-525.208	C.3	15	MET15	0.002	
233	  SD	573.657	145.693	-525.093	S.3	15	MET15	-0.274	
234	  CE	572.577	144.262	-524.955	C.3	15	MET15	-0.054	
235	   H	577.473	143.899	-523.711	 H	15	MET15	0.272	
236	  HA	577.840	144.896	-526.363	 H	15	MET15	0.088	
237	 2HB	576.189	146.706	-525.661	 H	15	MET15	0.024	
238	 3HB	576.358	146.221	-523.982	 H	15	MET15	0.024	
239	 2HG	575.276	144.043	-524.430	 H	15	MET15	0.044	
240	 3HG	575.294	144.313	-526.184	 H	15	MET15	0.044	
241	 1HE	572.721	143.573	-525.807	 H	15	MET15	0.068	
242	 2HE	572.788	143.710	-524.021	 H	15	MET15	0.068	
243	 3HE	571.519	144.576	-524.937	 H	15	MET15	0.068	
244	   N	579.213	146.807	-524.080	N.am	16	ARG16	-0.348	
245	  CA	580.208	147.872	-523.998	C.3	16	ARG16	-0.264	
246	   C	581.478	147.480	-524.715	C.2	16	ARG16	0.734	
247	   O	581.593	146.404	-525.296	O.2	16	ARG16	-0.589	
248	  CB	580.478	148.191	-522.500	C.3	16	ARG16	-0.001	
249	  CG	581.302	149.481	-522.229	C.3	16	ARG16	0.039	
250	  CD	581.553	149.702	-520.728	C.3	16	ARG16	0.049	
251	  NE	582.328	150.962	-520.529	N.pl3	16	ARG16	-0.530	
252	  CZ	582.720	151.446	-519.354	C.cat	16	ARG16	0.808	
253	 NH1	582.474	150.862	-518.215	N.pl3	16	ARG16	-0.863	
254	 NH2	583.383	152.559	-519.337	N.pl3	16	ARG16	-0.863	
255	   H	578.819	146.407	-523.240	 H	16	ARG16	0.275	
256	  HA	579.798	148.764	-524.508	 H	16	ARG16	0.156	
257	 2HB	580.977	147.316	-522.034	 H	16	ARG16	0.033	
258	 3HB	579.510	148.272	-521.966	 H	16	ARG16	0.033	
259	 2HG	580.771	150.351	-522.667	 H	16	ARG16	0.029	
260	 3HG	582.275	149.429	-522.759	 H	16	ARG16	0.029	
261	 2HD	582.103	148.828	-520.315	 H	16	ARG16	0.069	
262	 3HD	580.581	149.744	-520.192	 H	16	ARG16	0.069	
263	  HE	582.605	151.543	-521.327	 H	16	ARG16	0.346	
264	1HH1	581.949	149.988	-518.298	 H	16	ARG16	0.448	
265	2HH1	582.809	151.298	-517.354	 H	16	ARG16	0.448	
266	1HH2	583.567	153.002	-520.239	 H	16	ARG16	0.448	
267	2HH2	583.673	152.915	-518.425	 H	16	ARG16	0.448	
@<TRIPOS>BOND
1 1 2 1
2 1 10 1
3 2 3 1
4 2 5 1
5 2 11 1
6 3 4 2
7 3 16 1
8 5 6 1
9 6 7 1
10 7 8 2
11 7 9 1
12 5 12 1
13 5 13 1
14 6 14 1
15 6 15 1
16 16 17 1
17 16 24 1
18 17 18 1
19 17 20 1
20 17 25 1
21 18 19 2
22 18 30 1
23 20 21 1
24 21 22 1
25 21 23 2
26 20 26 1
27 20 27 1
28 22 28 1
29 22 29 1
30 30 31 1
31 30 36 1
32 31 32 1
33 31 34 1
34 31 37 1
35 32 33 2
36 32 44 1
37 34 35 1
38 35 36 1
39 34 38 1
40 34 39 1
41 35 40 1
42 35 41 1
43 36 42 1
44 36 43 1
45 44 45 1
46 44 52 1
47 45 46 1
48 45 48 1
49 45 53 1
50 46 47 2
51 46 61 1
52 48 49 1
53 49 50 1
54 50 51 1
55 48 54 1
56 48 55 1
57 49 56 1
58 49 57 1
59 51 58 1
60 51 59 1
61 51 60 1
62 61 62 1
63 61 67 1
64 62 63 1
65 62 65 1
66 62 68 1
67 63 64 2
68 63 72 1
69 65 66 1
70 65 69 1
71 65 70 1
72 66 71 1
73 72 73 1
74 72 80 1
75 73 74 1
76 73 76 1
77 73 81 1
78 74 75 2
79 74 91 1
80 76 77 1
81 76 78 1
82 77 79 1
83 76 82 1
84 77 83 1
85 77 84 1
86 78 85 1
87 78 86 1
88 78 87 1
89 79 88 1
90 79 89 1
91 79 90 1
92 91 92 1
93 91 99 1
94 92 93 1
95 92 95 1
96 92 100 1
97 93 94 2
98 93 110 1
99 95 96 1
100 96 97 1
101 96 98 1
102 95 101 1
103 95 102 1
104 96 103 1
105 97 104 1
106 97 105 1
107 97 106 1
108 98 107 1
109 98 108 1
110 98 109 1
111 110 111 1
112 110 118 1
113 111 112 1
114 111 114 1
115 111 119 1
116 112 113 2
117 112 122 1
118 114 115 1
119 115 116 2
120 115 117 1
121 114 120 1
122 114 121 1
123 122 123 1
124 122 131 1
125 123 124 1
126 123 126 1
127 123 132 1
128 124 125 2
129 124 137 1
130 126 127 1
131 127 128 1
132 128 129 2
133 128 130 1
134 126 133 1
135 126 134 1
136 127 135 1
137 127 136 1
138 137 138 1
139 137 147 1
140 138 139 1
141 138 141 1
142 138 148 1
143 139 140 2
144 139 154 1
145 141 142 1
146 142 143 2
147 143 146 1
148 142 144 1
149 144 145 2
150 145 146 1
151 141 149 1
152 141 150 1
153 143 151 1
154 145 152 1
155 146 153 1
156 154 155 1
157 154 161 1
158 155 156 1
159 155 158 1
160 155 162 1
161 156 157 2
162 156 170 1
163 158 159 1
164 158 160 1
165 158 163 1
166 159 164 1
167 159 165 1
168 159 166 1
169 160 167 1
170 160 168 1
171 160 169 1
172 170 171 1
173 170 179 1
174 171 172 1
175 171 174 1
176 171 180 1
177 172 173 2
178 172 187 1
179 174 175 1
180 175 176 1
181 176 177 1
182 176 178 2
183 174 181 1
184 174 182 1
185 175 183 1
186 175 184 1
187 177 185 1
188 177 186 1
189 187 188 1
190 187 198 1
191 188 189 1
192 188 191 1
193 188 199 1
194 189 190 2
195 189 211 1
196 191 192 1
197 192 193 1
198 193 194 1
199 194 195 1
200 195 196 2
201 195 197 1
202 191 200 1
203 191 201 1
204 192 202 1
205 192 203 1
206 193 204 1
207 193 205 1
208 194 206 1
209 196 207 1
210 196 208 1
211 197 209 1
212 197 210 1
213 211 212 1
214 211 218 1
215 212 213 1
216 212 215 1
217 212 219 1
218 213 214 2
219 213 227 1
220 215 216 1
221 215 217 1
222 215 220 1
223 216 221 1
224 216 222 1
225 216 223 1
226 217 224 1
227 217 225 1
228 217 226 1
229 227 228 1
230 227 235 1
231 228 229 1
232 228 231 1
233 228 236 1
234 229 230 2
235 229 244 1
236 231 232 1
237 232 233 1
238 233 234 1
239 231 237 1
240 231 238 1
241 232 239 1
242 232 240 1
243 234 241 1
244 234 242 1
245 234 243 1
246 244 245 1
247 244 255 1
248 245 246 1
249 245 248 1
250 245 256 1
251 246 247 2
252 248 249 1
253 249 250 1
254 250 251 1
255 251 252 1
256 252 253 2
257 252 254 1
258 248 257 1
259 248 258 1
260 249 259 1
261 249 260 1
262 250 261 1
263 250 262 1
264 251 263 1
265 253 264 1
266 253 265 1
267 254 266 1
268 254 267 1
@<TRIPOS>SUBSTRUCTURE
1	GLU1	1	RESIDUE	1 ****	GLU
2	ASN2	16	RESIDUE	1 ****	ASN
3	PRO3	30	RESIDUE	1 ****	PRO
4	MET4	44	RESIDUE	1 ****	MET
5	SER5	61	RESIDUE	1 ****	SER
6	ILE6	72	RESIDUE	1 ****	ILE
7	LEU7	91	RESIDUE	1 ****	LEU
8	ASP8	110	RESIDUE	1 ****	ASP
9	GLU9	122	RESIDUE	1 ****	GLU
10	HIS10	137	RESIDUE	1 ****	HIS
11	VAL11	154	RESIDUE	1 ****	VAL
12	GLN12	170	RESIDUE	1 ****	GLN
13	ARG13	187	RESIDUE	1 ****	ARG
14	VAL14	211	RESIDUE	1 ****	VAL
15	MET15	227	RESIDUE	1 ****	MET
16	ARG16	244	RESIDUE	1 ****	ARG
