REMARK WARNING: 32 MAX_TORS EXCEEDED!!!
REMARK  67 active torsions:
REMARK  status: ('A' for Active; 'I' for Inactive)
REMARK    1  A    between atoms: N_1  and  CA_2 
REMARK    2  A    between atoms: CA_2  and  C_3 
REMARK    3  A    between atoms: CA_2  and  CB_5 
REMARK       I    between atoms: C_3  and  N_11 
REMARK    4  A    between atoms: CB_5  and  CG_6 
REMARK    5  A    between atoms: CG_6  and  CD_7 
REMARK    6  A    between atoms: N_11  and  CA_12 
REMARK    7  A    between atoms: CA_12  and  C_13 
REMARK    8  A    between atoms: CA_12  and  CB_15 
REMARK       I    between atoms: C_13  and  N_22 
REMARK    9  A    between atoms: CB_15  and  CG_16 
REMARK       I    between atoms: CG_16  and  ND2_17 
REMARK   10  A    between atoms: CA_23  and  C_24 
REMARK       I    between atoms: C_24  and  N_29 
REMARK   11  A    between atoms: N_29  and  CA_30 
REMARK   12  A    between atoms: CA_30  and  C_31 
REMARK   13  A    between atoms: CA_30  and  CB_33 
REMARK       I    between atoms: C_31  and  N_39 
REMARK   14  A    between atoms: CB_33  and  CG_34 
REMARK   15  A    between atoms: CG_34  and  CD_35 
REMARK   16  A    between atoms: N_39  and  CA_40 
REMARK   17  A    between atoms: CA_40  and  C_41 
REMARK   18  A    between atoms: CA_40  and  CB_43 
REMARK       I    between atoms: C_41  and  N_47 
REMARK   19  A    between atoms: CB_43  and  OG_44 
REMARK   20  A    between atoms: N_47  and  CA_48 
REMARK   21  A    between atoms: CA_48  and  C_49 
REMARK   22  A    between atoms: CA_48  and  CB_51 
REMARK       I    between atoms: C_49  and  N_56 
REMARK   23  A    between atoms: CB_51  and  CG1_52 
REMARK   24  A    between atoms: N_56  and  CA_57 
REMARK   25  A    between atoms: CA_57  and  C_58 
REMARK   26  A    between atoms: CA_57  and  CB_60 
REMARK       I    between atoms: C_58  and  N_65 
REMARK   27  A    between atoms: CB_60  and  CG_61 
REMARK   28  A    between atoms: N_65  and  CA_66 
REMARK   29  A    between atoms: CA_66  and  C_67 
REMARK   30  A    between atoms: CA_66  and  CB_69 
REMARK       I    between atoms: C_67  and  N_74 
REMARK   31  A    between atoms: CB_69  and  CG_70 
REMARK   32  A    between atoms: N_74  and  CA_75 
REMARK   33  A    between atoms: CA_75  and  C_76 
REMARK   34  A    between atoms: CA_75  and  CB_78 
REMARK       I    between atoms: C_76  and  N_84 
REMARK   35  A    between atoms: CB_78  and  CG_79 
REMARK   36  A    between atoms: CG_79  and  CD_80 
REMARK   37  A    between atoms: N_84  and  CA_85 
REMARK   38  A    between atoms: CA_85  and  C_86 
REMARK   39  A    between atoms: CA_85  and  CB_88 
REMARK       I    between atoms: C_86  and  N_96 
REMARK   40  A    between atoms: CB_88  and  CG_89 
REMARK   41  A    between atoms: N_96  and  CA_97 
REMARK   42  A    between atoms: CA_97  and  C_98 
REMARK   43  A    between atoms: CA_97  and  CB_100 
REMARK       I    between atoms: C_98  and  N_104 
REMARK   44  A    between atoms: N_104  and  CA_105 
REMARK   45  A    between atoms: CA_105  and  C_106 
REMARK   46  A    between atoms: CA_105  and  CB_108 
REMARK       I    between atoms: C_106  and  N_116 
REMARK   47  A    between atoms: CB_108  and  CG_109 
REMARK   48  A    between atoms: CG_109  and  CD_110 
REMARK       I    between atoms: CD_110  and  NE2_111 
REMARK   49  A    between atoms: N_116  and  CA_117 
REMARK   50  A    between atoms: CA_117  and  C_118 
REMARK   51  A    between atoms: CA_117  and  CB_120 
REMARK       I    between atoms: C_118  and  N_133 
REMARK   52  A    between atoms: CB_120  and  CG_121 
REMARK   53  A    between atoms: CG_121  and  CD_122 
REMARK   54  A    between atoms: CD_122  and  NE_123 
REMARK       I    between atoms: NE_123  and  CZ_124 
REMARK       I    between atoms: CZ_124  and  NH1_125 
REMARK       I    between atoms: CZ_124  and  NH2_126 
REMARK   55  A    between atoms: N_133  and  CA_134 
REMARK   56  A    between atoms: CA_134  and  C_135 
REMARK       I    between atoms: C_135  and  N_139 
REMARK   57  A    between atoms: N_139  and  CA_140 
REMARK   58  A    between atoms: CA_140  and  C_141 
REMARK   59  A    between atoms: CA_140  and  CB_143 
REMARK       I    between atoms: C_141  and  N_148 
REMARK   60  A    between atoms: CB_143  and  CG_144 
REMARK   61  A    between atoms: CG_144  and  SD_145 
REMARK   62  A    between atoms: N_148  and  CA_149 
REMARK   63  A    between atoms: CA_149  and  C_150 
REMARK   64  A    between atoms: CA_149  and  CB_152 
REMARK   65  A    between atoms: CB_152  and  CG_153 
REMARK   66  A    between atoms: CG_153  and  CD_154 
REMARK   67  A    between atoms: CD_154  and  NE_155 
REMARK       I    between atoms: NE_155  and  CZ_156 
REMARK       I    between atoms: CZ_156  and  NH1_157 
ROOT
ATOM      1  C   GLU d   9    2178.268 666.870-2257.084  0.00  0.00     0.241 C 
ATOM      2  O   GLU d   9    2178.932 667.624-2257.810  0.00  0.00    -0.271 OA
ATOM      3  N   HIS d  10    2178.364 665.595-2257.253  0.00  0.00    -0.346 N 
ATOM      4  H   HIS d  10    2177.833 664.960-2256.674  0.00  0.00     0.163 HD
ENDROOT
BRANCH   1   5
ATOM      5  CA  GLU d   9    2177.351 667.399-2256.008  0.00  0.00     0.177 C 
BRANCH   5   6
ATOM      6  N   GLU d   9    2176.047 666.742-2256.063  0.00  0.00    -0.346 N 
ATOM      7  C   ASP d   8    2175.367 666.791-2257.158  0.00  0.00     0.241 C 
ATOM      8  O   ASP d   8    2175.840 667.395-2258.133  0.00  0.00    -0.271 OA
ATOM      9  H   GLU d   9    2175.684 666.256-2255.256  0.00  0.00     0.163 HD
BRANCH   7  10
ATOM     10  CA  ASP d   8    2174.020 666.112-2257.215  0.00  0.00     0.186 C 
BRANCH  10  11
ATOM     11  N   ASP d   8    2174.090 664.763-2256.661  0.00  0.00    -0.346 N 
ATOM     12  C   LEU d   7    2174.927 663.922-2257.167  0.00  0.00     0.241 C 
ATOM     13  O   LEU d   7    2175.648 664.283-2258.109  0.00  0.00    -0.271 OA
ATOM     14  H   ASP d   8    2173.492 664.493-2255.893  0.00  0.00     0.163 HD
BRANCH  12  15
ATOM     15  CA  LEU d   7    2174.999 662.526-2256.594  0.00  0.00     0.177 C 
BRANCH  15  16
ATOM     16  N   LEU d   7    2175.054 662.563-2255.135  0.00  0.00    -0.346 N 
ATOM     17  C   ILE d   6    2176.000 663.226-2254.562  0.00  0.00     0.241 C 
ATOM     18  O   ILE d   6    2176.835 663.813-2255.266  0.00  0.00    -0.271 OA
ATOM     19  H   LEU d   7    2174.362 662.076-2254.584  0.00  0.00     0.163 HD
BRANCH  17  20
ATOM     20  CA  ILE d   6    2176.057 663.263-2253.054  0.00  0.00     0.180 C 
BRANCH  20  21
ATOM     21  N   ILE d   6    2174.744 663.559-2252.488  0.00  0.00    -0.346 N 
ATOM     22  C   SER d   5    2174.140 664.642-2252.842  0.00  0.00     0.243 C 
ATOM     23  O   SER d   5    2174.688 665.396-2253.647  0.00  0.00    -0.271 OA
ATOM     24  H   ILE d   6    2174.315 662.925-2251.829  0.00  0.00     0.163 HD
BRANCH  22  25
ATOM     25  CA  SER d   5    2172.781 664.948-2252.257  0.00  0.00     0.200 C 
BRANCH  25  26
ATOM     26  N   SER d   5    2171.911 663.777-2252.316  0.00  0.00    -0.344 N 
ATOM     27  C   GLU d   4    2171.684 663.224-2253.459  0.00  0.00     0.241 C 
ATOM     28  O   GLU d   4    2172.211 663.704-2254.473  0.00  0.00    -0.271 OA
ATOM     29  H   SER d   5    2171.493 663.406-2251.475  0.00  0.00     0.163 HD
BRANCH  27  30
ATOM     30  CA  GLU d   4    2170.785 662.014-2253.521  0.00  0.00     0.177 C 
BRANCH  30  31
ATOM     31  N   GLU d   4    2171.144 661.043-2252.491  0.00  0.00    -0.346 N 
ATOM     32  C   PRO d   3    2172.349 660.583-2252.458  0.00  0.00     0.241 C 
ATOM     33  O   PRO d   3    2173.172 660.966-2253.290  0.00  0.00    -0.271 OA
ATOM     34  H   GLU d   4    2170.459 660.736-2251.814  0.00  0.00     0.163 HD
BRANCH  32  35
ATOM     35  CA  PRO d   3    2172.746 659.559-2251.381  0.00  0.00     0.179 C 
ATOM     36  N   PRO d   3    2172.294 659.968-2250.060  0.00  0.00    -0.337 N 
ATOM     37  C   ASN d   2    2172.816 660.963-2249.426  0.00  0.00     0.243 C 
ATOM     38  CD  PRO d   3    2171.216 659.175-2249.511  0.00  0.00     0.127 C 
ATOM     39  O   ASN d   2    2173.731 661.593-2249.954  0.00  0.00    -0.271 OA
ATOM     40  CG  PRO d   3    2170.758 658.357-2250.721  0.00  0.00     0.022 C 
ATOM     41  CB  PRO d   3    2172.042 658.204-2251.551  0.00  0.00     0.037 C 
BRANCH  37  42
ATOM     42  CA  ASN d   2    2172.284 661.319-2248.057  0.00  0.00     0.185 C 
BRANCH  42  43
ATOM     43  N   ASN d   2    2170.825 661.358-2248.057  0.00  0.00    -0.346 N 
ATOM     44  C   GLU d   1    2170.220 662.143-2248.882  0.00  0.00     0.242 C 
ATOM     45  O   GLU d   1    2170.896 662.843-2249.651  0.00  0.00    -0.271 OA
ATOM     46  H   ASN d   2    2170.297 660.778-2247.421  0.00  0.00     0.163 HD
BRANCH  44  47
ATOM     47  CA  GLU d   1    2168.711 662.184-2248.882  0.00  0.00     0.191 C 
BRANCH  47  48
ATOM     48  N   GLU d   1    2168.152 660.835-2248.882  0.00  0.00    -0.326 NA
ATOM     49  H   GLU d   1    2168.779 659.956-2248.882  0.00  0.00     0.180 HD
ENDBRANCH  47  48
BRANCH  47  50
ATOM     50  CB  GLU d   1    2168.188 662.969-2247.646  0.00  0.00     0.047 C 
BRANCH  50  51
ATOM     51  CG  GLU d   1    2168.663 664.453-2247.534  0.00  0.00     0.116 C 
BRANCH  51  52
ATOM     52  CD  GLU d   1    2168.239 665.258-2246.319  0.00  0.00     0.172 C 
ATOM     53  OE1 GLU d   1    2167.511 664.755-2245.441  0.00  0.00    -0.648 OA
ATOM     54  OE2 GLU d   1    2168.669 666.427-2246.247  0.00  0.00    -0.648 OA
ENDBRANCH  51  52
ENDBRANCH  50  51
ENDBRANCH  47  50
ENDBRANCH  44  47
ENDBRANCH  42  43
BRANCH  42  55
ATOM     55  CB  ASN d   2    2172.776 660.296-2246.992  0.00  0.00     0.137 C 
BRANCH  55  56
ATOM     56  CG  ASN d   2    2172.312 660.520-2245.549  0.00  0.00     0.217 C 
ATOM     57  ND2 ASN d   2    2172.906 661.434-2244.831  0.00  0.00    -0.370 N 
ATOM     58 21HD ASN d   2    2172.426 661.608-2243.945  0.00  0.00     0.159 HD
ATOM     59 22HD ASN d   2    2173.608 662.006-2245.300  0.00  0.00     0.159 HD
ATOM     60  OD1 ASN d   2    2171.391 659.886-2245.055  0.00  0.00    -0.274 OA
ENDBRANCH  55  56
ENDBRANCH  42  55
ENDBRANCH  37  42
ENDBRANCH  32  35
ENDBRANCH  30  31
BRANCH  30  61
ATOM     61  CB  GLU d   4    2169.296 662.433-2253.351  0.00  0.00     0.045 C 
BRANCH  61  62
ATOM     62  CG  GLU d   4    2168.749 663.437-2254.417  0.00  0.00     0.116 C 
BRANCH  62  63
ATOM     63  CD  GLU d   4    2167.322 663.934-2254.274  0.00  0.00     0.172 C 
ATOM     64  OE1 GLU d   4    2166.595 663.535-2253.343  0.00  0.00    -0.648 OA
ATOM     65  OE2 GLU d   4    2166.933 664.763-2255.122  0.00  0.00    -0.648 OA
ENDBRANCH  62  63
ENDBRANCH  61  62
ENDBRANCH  30  61
ENDBRANCH  27  30
ENDBRANCH  25  26
BRANCH  25  66
ATOM     66  CB  SER d   5    2172.892 665.480-2250.807  0.00  0.00     0.199 C 
BRANCH  66  67
ATOM     67  OG  SER d   5    2173.623 664.601-2249.946  0.00  0.00    -0.398 OA
ATOM     68  HG  SER d   5    2173.134 663.776-2249.895  0.00  0.00     0.209 HD
ENDBRANCH  66  67
ENDBRANCH  25  66
ENDBRANCH  22  25
ENDBRANCH  20  21
BRANCH  20  69
ATOM     69  CB  ILE d   6    2176.656 661.927-2252.454  0.00  0.00     0.013 C 
ATOM     70  CG2 ILE d   6    2178.097 661.625-2252.969  0.00  0.00     0.012 C 
BRANCH  69  71
ATOM     71  CG1 ILE d   6    2176.675 661.865-2250.893  0.00  0.00     0.002 C 
ATOM     72  CD1 ILE d   6    2176.945 660.475-2250.278  0.00  0.00     0.005 C 
ENDBRANCH  69  71
ENDBRANCH  20  69
ENDBRANCH  17  20
ENDBRANCH  15  16
BRANCH  15  73
ATOM     73  CB  LEU d   7    2173.796 661.667-2257.074  0.00  0.00     0.038 C 
BRANCH  73  74
ATOM     74  CG  LEU d   7    2173.722 660.187-2256.608  0.00  0.00    -0.020 C 
ATOM     75  CD1 LEU d   7    2172.532 659.482-2257.273  0.00  0.00     0.009 C 
ATOM     76  CD2 LEU d   7    2175.016 659.408-2256.899  0.00  0.00     0.009 C 
ENDBRANCH  73  74
ENDBRANCH  15  73
ENDBRANCH  12  15
ENDBRANCH  10  11
BRANCH  10  77
ATOM     77  CB  ASP d   8    2172.943 666.952-2256.474  0.00  0.00     0.147 C 
BRANCH  77  78
ATOM     78  CG  ASP d   8    2172.725 668.373-2257.015  0.00  0.00     0.175 C 
ATOM     79  OD1 ASP d   8    2172.789 668.571-2258.246  0.00  0.00    -0.648 OA
ATOM     80  OD2 ASP d   8    2172.533 669.299-2256.200  0.00  0.00    -0.648 OA
ENDBRANCH  77  78
ENDBRANCH  10  77
ENDBRANCH   7  10
ENDBRANCH   5   6
BRANCH   5  81
ATOM     81  CB  GLU d   9    2177.984 667.191-2254.603  0.00  0.00     0.045 C 
BRANCH  81  82
ATOM     82  CG  GLU d   9    2179.367 667.883-2254.374  0.00  0.00     0.116 C 
BRANCH  82  83
ATOM     83  CD  GLU d   9    2180.069 667.670-2253.046  0.00  0.00     0.172 C 
ATOM     84  OE1 GLU d   9    2179.547 666.980-2252.149  0.00  0.00    -0.648 OA
ATOM     85  OE2 GLU d   9    2181.188 668.208-2252.915  0.00  0.00    -0.648 OA
ENDBRANCH  82  83
ENDBRANCH  81  82
ENDBRANCH   5  81
ENDBRANCH   1   5
BRANCH   3  86
ATOM     86  CA  HIS d  10    2179.251 665.082-2258.293  0.00  0.00     0.182 C 
BRANCH  86  87
ATOM     87  C   HIS d  10    2178.884 665.647-2259.645  0.00  0.00     0.241 C 
ATOM     88  O   HIS d  10    2179.737 666.111-2260.417  0.00  0.00    -0.271 OA
ATOM     89  N   VAL d  11    2177.646 665.646-2260.008  0.00  0.00    -0.346 N 
ATOM     90  H   VAL d  11    2176.933 665.274-2259.397  0.00  0.00     0.163 HD
BRANCH  89  91
ATOM     91  CA  VAL d  11    2177.291 666.192-2261.315  0.00  0.00     0.180 C 
BRANCH  91  92
ATOM     92  C   VAL d  11    2177.757 667.622-2261.448  0.00  0.00     0.241 C 
ATOM     93  O   VAL d  11    2178.358 668.026-2262.451  0.00  0.00    -0.271 OA
ATOM     94  N   GLN d  12    2177.520 668.448-2260.486  0.00  0.00    -0.346 N 
ATOM     95  H   GLN d  12    2177.031 668.143-2259.656  0.00  0.00     0.163 HD
BRANCH  94  96
ATOM     96  CA  GLN d  12    2177.969 669.831-2260.614  0.00  0.00     0.177 C 
BRANCH  96  97
ATOM     97  C   GLN d  12    2179.459 669.897-2260.852  0.00  0.00     0.241 C 
ATOM     98  O   GLN d  12    2179.947 670.605-2261.731  0.00  0.00    -0.271 OA
ATOM     99  N   ARG d  13    2180.244 669.191-2260.111  0.00  0.00    -0.346 N 
ATOM    100  H   ARG d  13    2179.867 668.601-2259.382  0.00  0.00     0.163 HD
BRANCH  99 101
ATOM    101  CA  ARG d  13    2181.684 669.256-2260.342  0.00  0.00     0.176 C 
BRANCH 101 102
ATOM    102  C   ARG d  13    2182.020 668.883-2261.767  0.00  0.00     0.241 C 
ATOM    103  O   ARG d  13    2182.789 669.554-2262.452  0.00  0.00    -0.271 OA
ATOM    104  N   ALA d  14    2181.483 667.829-2262.281  0.00  0.00    -0.346 N 
ATOM    105  H   ALA d  14    2180.848 667.260-2261.739  0.00  0.00     0.163 HD
BRANCH 104 106
ATOM    106  CA  ALA d  14    2181.808 667.469-2263.658  0.00  0.00     0.172 C 
ATOM    107  CB  ALA d  14    2181.052 666.172-2263.993  0.00  0.00     0.042 C 
BRANCH 106 108
ATOM    108  C   ALA d  14    2181.478 668.600-2264.603  0.00  0.00     0.240 C 
ATOM    109  O   ALA d  14    2182.271 668.981-2265.472  0.00  0.00    -0.271 OA
ATOM    110  N   MET d  15    2180.333 669.186-2264.501  0.00  0.00    -0.346 N 
ATOM    111  H   MET d  15    2179.668 668.893-2263.800  0.00  0.00     0.163 HD
BRANCH 110 112
ATOM    112  CA  MET d  15    2180.013 670.279-2265.415  0.00  0.00     0.177 C 
BRANCH 112 113
ATOM    113  C   MET d  15    2181.043 671.378-2265.326  0.00  0.00     0.241 C 
ATOM    114  O   MET d  15    2181.546 671.890-2266.339  0.00  0.00    -0.271 OA
ATOM    115  N   ARG d  16    2181.412 671.799-2264.164  0.00  0.00    -0.347 N 
ATOM    116  H   ARG d  16    2181.017 671.398-2263.324  0.00  0.00     0.163 HD
BRANCH 115 117
ATOM    117  CA  ARG d  16    2182.409 672.862-2264.079  0.00  0.00     0.162 C 
BRANCH 117 118
ATOM    118  C   ARG d  16    2183.679 672.469-2264.796  0.00  0.00     0.219 C 
ATOM    119  O   ARG d  16    2183.793 671.393-2265.377  0.00  0.00    -0.287 OA
ENDBRANCH 117 118
BRANCH 117 120
ATOM    120  CB  ARG d  16    2182.678 673.180-2262.581  0.00  0.00     0.035 C 
BRANCH 120 121
ATOM    121  CG  ARG d  16    2183.504 674.468-2262.308  0.00  0.00     0.023 C 
BRANCH 121 122
ATOM    122  CD  ARG d  16    2183.753 674.687-2260.806  0.00  0.00     0.138 C 
BRANCH 122 123
ATOM    123  NE  ARG d  16    2184.530 675.945-2260.605  0.00  0.00    -0.227 N 
ATOM    124  CZ  ARG d  16    2184.922 676.427-2259.429  0.00  0.00     0.665 C 
ATOM    125  NH1 ARG d  16    2184.674 675.843-2258.291  0.00  0.00    -0.235 N 
ATOM    126  NH2 ARG d  16    2185.586 677.540-2259.410  0.00  0.00    -0.235 N 
ATOM    127 11HH ARG d  16    2184.148 674.970-2258.375  0.00  0.00     0.174 HD
ATOM    128 12HH ARG d  16    2185.008 676.278-2257.430  0.00  0.00     0.174 HD
ATOM    129 21HH ARG d  16    2185.772 677.983-2260.312  0.00  0.00     0.174 HD
ATOM    130 22HH ARG d  16    2185.876 677.894-2258.498  0.00  0.00     0.174 HD
ATOM    131  HE  ARG d  16    2184.809 676.526-2261.402  0.00  0.00     0.177 HD
ENDBRANCH 122 123
ENDBRANCH 121 122
ENDBRANCH 120 121
ENDBRANCH 117 120
ENDBRANCH 115 117
ENDBRANCH 112 113
BRANCH 112 132
ATOM    132  CB  MET d  15    2178.592 670.825-2265.105  0.00  0.00     0.045 C 
BRANCH 132 133
ATOM    133  CG  MET d  15    2177.429 669.827-2265.298  0.00  0.00     0.076 C 
BRANCH 133 134
ATOM    134  SD  MET d  15    2175.856 670.694-2265.183  0.00  0.00    -0.173 SA
ATOM    135  CE  MET d  15    2174.774 669.264-2265.047  0.00  0.00     0.089 C 
ENDBRANCH 133 134
ENDBRANCH 132 133
ENDBRANCH 112 132
ENDBRANCH 110 112
ENDBRANCH 106 108
ENDBRANCH 104 106
ENDBRANCH 101 102
BRANCH 101 136
ATOM    136  CB  ARG d  13    2182.397 668.317-2259.328  0.00  0.00     0.036 C 
BRANCH 136 137
ATOM    137  CG  ARG d  13    2183.942 668.470-2259.247  0.00  0.00     0.023 C 
BRANCH 137 138
ATOM    138  CD  ARG d  13    2184.569 667.483-2258.249  0.00  0.00     0.138 C 
BRANCH 138 139
ATOM    139  NE  ARG d  13    2186.046 667.690-2258.199  0.00  0.00    -0.227 N 
ATOM    140  CZ  ARG d  13    2186.895 666.998-2257.444  0.00  0.00     0.665 C 
ATOM    141  NH1 ARG d  13    2186.530 666.035-2256.645  0.00  0.00    -0.235 N 
ATOM    142  NH2 ARG d  13    2188.154 667.297-2257.501  0.00  0.00    -0.235 N 
ATOM    143 11HH ARG d  13    2185.524 665.849-2256.648  0.00  0.00     0.174 HD
ATOM    144 12HH ARG d  13    2187.243 665.552-2256.096  0.00  0.00     0.174 HD
ATOM    145 21HH ARG d  13    2188.422 668.055-2258.133  0.00  0.00     0.174 HD
ATOM    146 22HH ARG d  13    2188.790 666.756-2256.912  0.00  0.00     0.174 HD
ATOM    147  HE  ARG d  13    2186.498 668.411-2258.771  0.00  0.00     0.177 HD
ENDBRANCH 138 139
ENDBRANCH 137 138
ENDBRANCH 136 137
ENDBRANCH 101 136
ENDBRANCH  99 101
ENDBRANCH  96  97
BRANCH  96 148
ATOM    148  CB  GLN d  12    2177.579 670.599-2259.332  0.00  0.00     0.044 C 
BRANCH 148 149
ATOM    149  CG  GLN d  12    2177.940 672.121-2259.301  0.00  0.00     0.105 C 
BRANCH 149 150
ATOM    150  CD  GLN d  12    2177.639 672.935-2258.037  0.00  0.00     0.215 C 
ATOM    151  NE2 GLN d  12    2177.072 672.360-2257.008  0.00  0.00    -0.370 N 
ATOM    152 21HE GLN d  12    2176.965 672.954-2256.184  0.00  0.00     0.159 HD
ATOM    153 22HE GLN d  12    2176.907 671.356-2257.110  0.00  0.00     0.159 HD
ATOM    154  OE1 GLN d  12    2177.941 674.116-2257.960  0.00  0.00    -0.274 OA
ENDBRANCH 149 150
ENDBRANCH 148 149
ENDBRANCH  96 148
ENDBRANCH  94  96
ENDBRANCH  91  92
BRANCH  91 155
ATOM    155  CB  VAL d  11    2175.730 666.086-2261.534  0.00  0.00     0.009 C 
ATOM    156  CG1 VAL d  11    2175.162 666.789-2262.797  0.00  0.00     0.012 C 
ATOM    157  CG2 VAL d  11    2175.205 664.632-2261.606  0.00  0.00     0.012 C 
ENDBRANCH  91 155
ENDBRANCH  89  91
ENDBRANCH  86  87
BRANCH  86 158
ATOM    158  CB  HIS d  10    2179.087 663.554-2258.288  0.00  0.00     0.095 C 
BRANCH 158 159
ATOM    159  CG  HIS d  10    2180.372 662.843-2257.980  0.00  0.00     0.053 A 
ATOM    160  CD2 HIS d  10    2180.753 662.508-2256.687  0.00  0.00     0.116 A 
ATOM    161  NE2 HIS d  10    2181.968 661.876-2256.754  0.00  0.00    -0.359 N 
ATOM    162  CE1 HIS d  10    2182.230 661.878-2258.089  0.00  0.00     0.207 A 
ATOM    163  2HE HIS d  10    2182.535 661.499-2255.981  0.00  0.00     0.166 HD
ATOM    164  ND1 HIS d  10    2181.323 662.436-2258.912  0.00  0.00    -0.247 NA
ENDBRANCH 158 159
ENDBRANCH  86 158
ENDBRANCH   3  86
TORSDOF 67
