REMARK WARNING: 32 MAX_TORS EXCEEDED!!!
REMARK  67 active torsions:
REMARK  status: ('A' for Active; 'I' for Inactive)
REMARK    1  A    between atoms: N_1  and  CA_2 
REMARK    2  A    between atoms: CA_2  and  C_3 
REMARK    3  A    between atoms: CA_2  and  CB_5 
REMARK       I    between atoms: C_3  and  N_9 
REMARK    4  A    between atoms: CB_5  and  OG_6 
REMARK    5  A    between atoms: N_9  and  CA_10 
REMARK    6  A    between atoms: CA_10  and  C_11 
REMARK    7  A    between atoms: CA_10  and  CB_13 
REMARK       I    between atoms: C_11  and  N_20 
REMARK    8  A    between atoms: CB_13  and  CG_14 
REMARK       I    between atoms: CG_14  and  ND2_15 
REMARK    9  A    between atoms: CA_21  and  C_22 
REMARK       I    between atoms: C_22  and  N_27 
REMARK   10  A    between atoms: N_27  and  CA_28 
REMARK   11  A    between atoms: CA_28  and  C_29 
REMARK   12  A    between atoms: CA_28  and  CB_31 
REMARK       I    between atoms: C_29  and  N_37 
REMARK   13  A    between atoms: CB_31  and  CG_32 
REMARK   14  A    between atoms: CG_32  and  CD_33 
REMARK   15  A    between atoms: N_37  and  CA_38 
REMARK   16  A    between atoms: CA_38  and  C_39 
REMARK   17  A    between atoms: CA_38  and  CB_41 
REMARK       I    between atoms: C_39  and  N_45 
REMARK   18  A    between atoms: CB_41  and  OG_42 
REMARK   19  A    between atoms: N_45  and  CA_46 
REMARK   20  A    between atoms: CA_46  and  C_47 
REMARK   21  A    between atoms: CA_46  and  CB_49 
REMARK       I    between atoms: C_47  and  N_54 
REMARK   22  A    between atoms: CB_49  and  CG1_50 
REMARK   23  A    between atoms: N_54  and  CA_55 
REMARK   24  A    between atoms: CA_55  and  C_56 
REMARK   25  A    between atoms: CA_55  and  CB_58 
REMARK       I    between atoms: C_56  and  N_63 
REMARK   26  A    between atoms: CB_58  and  CG_59 
REMARK   27  A    between atoms: N_63  and  CA_64 
REMARK   28  A    between atoms: CA_64  and  C_65 
REMARK   29  A    between atoms: CA_64  and  CB_67 
REMARK       I    between atoms: C_65  and  N_72 
REMARK   30  A    between atoms: CB_67  and  CG_68 
REMARK   31  A    between atoms: N_72  and  CA_73 
REMARK   32  A    between atoms: CA_73  and  C_74 
REMARK   33  A    between atoms: CA_73  and  CB_76 
REMARK       I    between atoms: C_74  and  N_82 
REMARK   34  A    between atoms: CB_76  and  CG_77 
REMARK   35  A    between atoms: CG_77  and  CD_78 
REMARK   36  A    between atoms: N_82  and  CA_83 
REMARK   37  A    between atoms: CA_83  and  C_84 
REMARK   38  A    between atoms: CA_83  and  CB_86 
REMARK       I    between atoms: C_84  and  N_94 
REMARK   39  A    between atoms: CB_86  and  CG_87 
REMARK   40  A    between atoms: N_94  and  CA_95 
REMARK   41  A    between atoms: CA_95  and  C_96 
REMARK   42  A    between atoms: CA_95  and  CB_98 
REMARK       I    between atoms: C_96  and  N_102 
REMARK   43  A    between atoms: N_102  and  CA_103 
REMARK   44  A    between atoms: CA_103  and  C_104 
REMARK   45  A    between atoms: CA_103  and  CB_106 
REMARK       I    between atoms: C_104  and  N_114 
REMARK   46  A    between atoms: CB_106  and  CG_107 
REMARK   47  A    between atoms: CG_107  and  CD_108 
REMARK       I    between atoms: CD_108  and  NE2_109 
REMARK   48  A    between atoms: N_114  and  CA_115 
REMARK   49  A    between atoms: CA_115  and  C_116 
REMARK   50  A    between atoms: CA_115  and  CB_118 
REMARK       I    between atoms: C_116  and  N_131 
REMARK   51  A    between atoms: CB_118  and  CG_119 
REMARK   52  A    between atoms: CG_119  and  CD_120 
REMARK   53  A    between atoms: CD_120  and  NE_121 
REMARK       I    between atoms: NE_121  and  CZ_122 
REMARK       I    between atoms: CZ_122  and  NH1_123 
REMARK       I    between atoms: CZ_122  and  NH2_124 
REMARK   54  A    between atoms: N_131  and  CA_132 
REMARK   55  A    between atoms: CA_132  and  C_133 
REMARK   56  A    between atoms: CA_132  and  CB_135 
REMARK       I    between atoms: C_133  and  N_139 
REMARK   57  A    between atoms: N_139  and  CA_140 
REMARK   58  A    between atoms: CA_140  and  C_141 
REMARK   59  A    between atoms: CA_140  and  CB_143 
REMARK       I    between atoms: C_141  and  N_148 
REMARK   60  A    between atoms: CB_143  and  CG_144 
REMARK   61  A    between atoms: CG_144  and  SD_145 
REMARK   62  A    between atoms: N_148  and  CA_149 
REMARK   63  A    between atoms: CA_149  and  C_150 
REMARK   64  A    between atoms: CA_149  and  CB_152 
REMARK   65  A    between atoms: CB_152  and  CG_153 
REMARK   66  A    between atoms: CG_153  and  CD_154 
REMARK   67  A    between atoms: CD_154  and  NE_155 
REMARK       I    between atoms: NE_155  and  CZ_156 
REMARK       I    between atoms: CZ_156  and  NH1_157 
ROOT
ATOM      1  C   GLU d   9     116.183  21.058 -83.187  0.00  0.00     0.241 C 
ATOM      2  O   GLU d   9     116.886  21.776 -83.913  0.00  0.00    -0.271 OA
ATOM      3  N   HIS d  10     116.212  19.779 -83.357  0.00  0.00    -0.346 N 
ATOM      4  H   HIS d  10     115.649  19.173 -82.778  0.00  0.00     0.163 HD
ENDROOT
BRANCH   3   5
ATOM      5  CA  HIS d  10     117.071  19.222 -84.398  0.00  0.00     0.182 C 
BRANCH   5   6
ATOM      6  C   HIS d  10     116.735  19.805 -85.748  0.00  0.00     0.241 C 
ATOM      7  O   HIS d  10     117.610  20.224 -86.520  0.00  0.00    -0.271 OA
ATOM      8  N   VAL d  11     115.498  19.870 -86.111  0.00  0.00    -0.346 N 
ATOM      9  H   VAL d  11     114.767  19.535 -85.500  0.00  0.00     0.163 HD
BRANCH   8  10
ATOM     10  CA  VAL d  11     115.172  20.434 -87.418  0.00  0.00     0.180 C 
BRANCH  10  11
ATOM     11  C   VAL d  11     115.712  21.838 -87.550  0.00  0.00     0.241 C 
ATOM     12  O   VAL d  11     116.333  22.211 -88.553  0.00  0.00    -0.271 OA
ATOM     13  N   GLN d  12     115.519  22.675 -86.588  0.00  0.00    -0.346 N 
ATOM     14  H   GLN d  12     115.015  22.395 -85.758  0.00  0.00     0.163 HD
BRANCH  13  15
ATOM     15  CA  GLN d  12     116.040  24.032 -86.715  0.00  0.00     0.177 C 
BRANCH  15  16
ATOM     16  C   GLN d  12     117.531  24.021 -86.953  0.00  0.00     0.241 C 
ATOM     17  O   GLN d  12     118.055  24.702 -87.832  0.00  0.00    -0.271 OA
ATOM     18  N   ARG d  13     118.278  23.273 -86.212  0.00  0.00    -0.346 N 
ATOM     19  H   ARG d  13     117.871  22.704 -85.484  0.00  0.00     0.163 HD
BRANCH  18  20
ATOM     20  CA  ARG d  13     119.719  23.263 -86.444  0.00  0.00     0.176 C 
BRANCH  20  21
ATOM     21  C   ARG d  13     120.035  22.874 -87.869  0.00  0.00     0.241 C 
ATOM     22  O   ARG d  13     120.838  23.504 -88.553  0.00  0.00    -0.271 OA
ATOM     23  N   VAL d  14     119.444  21.850 -88.383  0.00  0.00    -0.346 N 
ATOM     24  H   VAL d  14     118.780  21.315 -87.841  0.00  0.00     0.163 HD
BRANCH  23  25
ATOM     25  CA  VAL d  14     119.749  21.474 -89.761  0.00  0.00     0.180 C 
BRANCH  25  26
ATOM     26  C   VAL d  14     119.478  22.620 -90.706  0.00  0.00     0.241 C 
ATOM     27  O   VAL d  14     120.291  22.959 -91.576  0.00  0.00    -0.271 OA
ATOM     28  N   MET d  15     118.366  23.266 -90.604  0.00  0.00    -0.346 N 
ATOM     29  H   MET d  15     117.687  23.008 -89.902  0.00  0.00     0.163 HD
BRANCH  28  30
ATOM     30  CA  MET d  15     118.104  24.374 -91.517  0.00  0.00     0.177 C 
BRANCH  30  31
ATOM     31  C   MET d  15     119.191  25.418 -91.430  0.00  0.00     0.241 C 
ATOM     32  O   MET d  15     119.720  25.901 -92.442  0.00  0.00    -0.271 OA
ATOM     33  N   ARG d  16     119.582  25.818 -90.268  0.00  0.00    -0.347 N 
ATOM     34  H   ARG d  16     119.167  25.440 -89.428  0.00  0.00     0.163 HD
BRANCH  33  35
ATOM     35  CA  ARG d  16     120.633  26.828 -90.184  0.00  0.00     0.162 C 
BRANCH  35  36
ATOM     36  C   ARG d  16     121.881  26.369 -90.901  0.00  0.00     0.219 C 
ATOM     37  O   ARG d  16     121.938  25.288 -91.482  0.00  0.00    -0.287 OA
ENDBRANCH  35  36
BRANCH  35  38
ATOM     38  CB  ARG d  16     120.919  27.131 -88.686  0.00  0.00     0.035 C 
BRANCH  38  39
ATOM     39  CG  ARG d  16     121.812  28.374 -88.413  0.00  0.00     0.023 C 
BRANCH  39  40
ATOM     40  CD  ARG d  16     122.073  28.580 -86.912  0.00  0.00     0.138 C 
BRANCH  40  41
ATOM     41  NE  ARG d  16     122.915  29.796 -86.711  0.00  0.00    -0.227 N 
ATOM     42  CZ  ARG d  16     123.331  30.257 -85.535  0.00  0.00     0.665 C 
ATOM     43  NH1 ARG d  16     123.053  29.686 -84.397  0.00  0.00    -0.235 N 
ATOM     44  NH2 ARG d  16     124.053  31.333 -85.517  0.00  0.00    -0.235 N 
ATOM     45 11HH ARG d  16     122.482  28.842 -84.481  0.00  0.00     0.174 HD
ATOM     46 12HH ARG d  16     123.411  30.103 -83.536  0.00  0.00     0.174 HD
ATOM     47 21HH ARG d  16     124.262  31.766 -86.419  0.00  0.00     0.174 HD
ATOM     48 22HH ARG d  16     124.362  31.672 -84.604  0.00  0.00     0.174 HD
ATOM     49  HE  ARG d  16     123.223  30.362 -87.508  0.00  0.00     0.177 HD
ENDBRANCH  40  41
ENDBRANCH  39  40
ENDBRANCH  38  39
ENDBRANCH  35  38
ENDBRANCH  33  35
ENDBRANCH  30  31
BRANCH  30  50
ATOM     50  CB  MET d  15     116.714  24.994 -91.208  0.00  0.00     0.045 C 
BRANCH  50  51
ATOM     51  CG  MET d  15     115.500  24.059 -91.399  0.00  0.00     0.076 C 
BRANCH  51  52
ATOM     52  SD  MET d  15     113.974  25.007 -91.284  0.00  0.00    -0.173 SA
ATOM     53  CE  MET d  15     112.819  23.637 -91.148  0.00  0.00     0.089 C 
ENDBRANCH  51  52
ENDBRANCH  50  51
ENDBRANCH  30  50
ENDBRANCH  28  30
ENDBRANCH  25  26
BRANCH  25  54
ATOM     54  CB  VAL d  14     118.907  20.200 -90.168  0.00  0.00     0.009 C 
ATOM     55  CG1 VAL d  14     118.974  19.778 -91.661  0.00  0.00     0.012 C 
ATOM     56  CG2 VAL d  14     119.273  18.926 -89.368  0.00  0.00     0.012 C 
ENDBRANCH  25  54
ENDBRANCH  23  25
ENDBRANCH  20  21
BRANCH  20  57
ATOM     57  CB  ARG d  13     120.382  22.287 -85.430  0.00  0.00     0.036 C 
BRANCH  57  58
ATOM     58  CG  ARG d  13     121.933  22.358 -85.349  0.00  0.00     0.023 C 
BRANCH  58  59
ATOM     59  CD  ARG d  13     122.507  21.339 -84.352  0.00  0.00     0.138 C 
BRANCH  59  60
ATOM     60  NE  ARG d  13     123.993  21.468 -84.302  0.00  0.00    -0.227 N 
ATOM     61  CZ  ARG d  13     124.804  20.732 -83.547  0.00  0.00     0.665 C 
ATOM     62  NH1 ARG d  13     124.388  19.788 -82.750  0.00  0.00    -0.235 N 
ATOM     63  NH2 ARG d  13     126.077  20.964 -83.604  0.00  0.00    -0.235 N 
ATOM     64 11HH ARG d  13     123.374  19.655 -82.753  0.00  0.00     0.174 HD
ATOM     65 12HH ARG d  13     125.075  19.268 -82.201  0.00  0.00     0.174 HD
ATOM     66 21HH ARG d  13     126.384  21.706 -84.235  0.00  0.00     0.174 HD
ATOM     67 22HH ARG d  13     126.683  20.389 -83.016  0.00  0.00     0.174 HD
ATOM     68  HE  ARG d  13     124.482  22.165 -84.873  0.00  0.00     0.177 HD
ENDBRANCH  59  60
ENDBRANCH  58  59
ENDBRANCH  57  58
ENDBRANCH  20  57
ENDBRANCH  18  20
ENDBRANCH  15  16
BRANCH  15  69
ATOM     69  CB  GLN d  12     115.691  24.819 -85.432  0.00  0.00     0.044 C 
BRANCH  69  70
ATOM     70  CG  GLN d  12     116.131  26.320 -85.401  0.00  0.00     0.105 C 
BRANCH  70  71
ATOM     71  CD  GLN d  12     115.872  27.148 -84.136  0.00  0.00     0.215 C 
ATOM     72  NE2 GLN d  12     115.276  26.602 -83.107  0.00  0.00    -0.370 N 
ATOM     73 21HE GLN d  12     115.201  27.201 -82.283  0.00  0.00     0.159 HD
ATOM     74 22HE GLN d  12     115.059  25.609 -83.210  0.00  0.00     0.159 HD
ATOM     75  OE1 GLN d  12     116.236  28.311 -84.058  0.00  0.00    -0.274 OA
ENDBRANCH  70  71
ENDBRANCH  69  70
ENDBRANCH  15  69
ENDBRANCH  13  15
ENDBRANCH  10  11
BRANCH  10  76
ATOM     76  CB  VAL d  11     113.607  20.410 -87.637  0.00  0.00     0.009 C 
ATOM     77  CG1 VAL d  11     113.077  21.144 -88.899  0.00  0.00     0.012 C 
ATOM     78  CG2 VAL d  11     113.007  18.986 -87.710  0.00  0.00     0.012 C 
ENDBRANCH  10  76
ENDBRANCH   8  10
ENDBRANCH   5   6
BRANCH   5  79
ATOM     79  CB  HIS d  10     116.827  17.704 -84.393  0.00  0.00     0.095 C 
BRANCH  79  80
ATOM     80  CG  HIS d  10     118.073  16.926 -84.085  0.00  0.00     0.053 A 
ATOM     81  CD2 HIS d  10     118.436  16.571 -82.793  0.00  0.00     0.116 A 
ATOM     82  NE2 HIS d  10     119.616  15.876 -82.860  0.00  0.00    -0.359 N 
ATOM     83  CE1 HIS d  10     119.878  15.865 -84.195  0.00  0.00     0.207 A 
ATOM     84  2HE HIS d  10     120.162  15.469 -82.087  0.00  0.00     0.166 HD
ATOM     85  ND1 HIS d  10     119.002  16.471 -85.018  0.00  0.00    -0.247 NA
ENDBRANCH  79  80
ENDBRANCH   5  79
ENDBRANCH   3   5
BRANCH   1  86
ATOM     86  CA  GLU d   9     115.295  21.633 -82.111  0.00  0.00     0.177 C 
BRANCH  86  87
ATOM     87  N   GLU d   9     113.959  21.046 -82.166  0.00  0.00    -0.346 N 
ATOM     88  C   ASP d   8     113.283  21.132 -83.261  0.00  0.00     0.241 C 
ATOM     89  O   ASP d   8     113.787  21.711 -84.236  0.00  0.00    -0.271 OA
ATOM     90  H   GLU d   9     113.571  20.579 -81.359  0.00  0.00     0.163 HD
BRANCH  88  91
ATOM     91  CA  ASP d   8     111.902  20.524 -83.318  0.00  0.00     0.186 C 
BRANCH  91  92
ATOM     92  N   ASP d   8     111.901  19.173 -82.764  0.00  0.00    -0.346 N 
ATOM     93  C   LEU d   7     112.692  18.289 -83.271  0.00  0.00     0.241 C 
ATOM     94  O   LEU d   7     113.431  18.613 -84.213  0.00  0.00    -0.271 OA
ATOM     95  H   ASP d   8     111.290  18.934 -81.997  0.00  0.00     0.163 HD
BRANCH  93  96
ATOM     96  CA  LEU d   7     112.690  16.892 -82.699  0.00  0.00     0.177 C 
BRANCH  96  97
ATOM     97  N   LEU d   7     112.748  16.925 -81.240  0.00  0.00    -0.346 N 
ATOM     98  C   ILE d   6     113.728  17.537 -80.667  0.00  0.00     0.241 C 
ATOM     99  O   ILE d   6     114.592  18.080 -81.371  0.00  0.00    -0.271 OA
ATOM    100  H   LEU d   7     112.031  16.475 -80.689  0.00  0.00     0.163 HD
BRANCH  98 101
ATOM    101  CA  ILE d   6     113.787  17.572 -79.159  0.00  0.00     0.180 C 
BRANCH 101 102
ATOM    102  N   ILE d   6     112.492  17.936 -78.592  0.00  0.00    -0.346 N 
ATOM    103  C   SER d   5     111.945  19.049 -78.946  0.00  0.00     0.243 C 
ATOM    104  O   SER d   5     112.532  19.773 -79.751  0.00  0.00    -0.271 OA
ATOM    105  H   ILE d   6     112.031  17.325 -77.933  0.00  0.00     0.163 HD
BRANCH 103 106
ATOM    106  CA  SER d   5     110.605  19.427 -78.360  0.00  0.00     0.200 C 
BRANCH 106 107
ATOM    107  N   SER d   5     109.674  18.303 -78.418  0.00  0.00    -0.344 N 
ATOM    108  C   GLU d   4     109.418  17.764 -79.561  0.00  0.00     0.241 C 
ATOM    109  O   GLU d   4     109.968  18.214 -80.576  0.00  0.00    -0.271 OA
ATOM    110  H   SER d   5     109.239  17.954 -77.577  0.00  0.00     0.163 HD
BRANCH 108 111
ATOM    111  CA  GLU d   4     108.455  16.602 -79.622  0.00  0.00     0.177 C 
BRANCH 111 112
ATOM    112  N   GLU d   4     108.763  15.613 -78.593  0.00  0.00    -0.346 N 
ATOM    113  C   PRO d   3     109.942  15.090 -78.561  0.00  0.00     0.241 C 
ATOM    114  O   PRO d   3     110.784  15.429 -79.393  0.00  0.00    -0.271 OA
ATOM    115  H   GLU d   4     108.064  15.343 -77.916  0.00  0.00     0.163 HD
BRANCH 113 116
ATOM    116  CA  PRO d   3     110.285  14.047 -77.484  0.00  0.00     0.179 C 
ATOM    117  N   PRO d   3     109.856  14.479 -76.162  0.00  0.00    -0.337 N 
ATOM    118  C   ASN d   2     110.430  15.445 -75.529  0.00  0.00     0.243 C 
ATOM    119  CD  PRO d   3     108.738  13.745 -75.613  0.00  0.00     0.127 C 
ATOM    120  O   ASN d   2     111.377  16.026 -76.058  0.00  0.00    -0.271 OA
ATOM    121  CG  PRO d   3     108.237  12.952 -76.823  0.00  0.00     0.022 C 
ATOM    122  CB  PRO d   3     109.510  12.731 -77.653  0.00  0.00     0.037 C 
BRANCH 118 123
ATOM    123  CA  ASN d   2     109.919  15.828 -74.160  0.00  0.00     0.185 C 
BRANCH 123 124
ATOM    124  N   ASN d   2     108.464  15.945 -74.159  0.00  0.00    -0.345 N 
ATOM    125  C   SER d   1     107.902  16.762 -74.984  0.00  0.00     0.244 C 
ATOM    126  O   SER d   1     108.609  17.419 -75.748  0.00  0.00    -0.271 OA
ATOM    127  H   ASN d   2     107.906  15.394 -73.523  0.00  0.00     0.163 HD
BRANCH 125 128
ATOM    128  CA  SER d   1     106.396  16.883 -74.984  0.00  0.00     0.214 C 
BRANCH 128 129
ATOM    129  N   SER d   1     105.766  15.566 -74.984  0.00  0.00    -0.324 NA
ATOM    130  H   SER d   1     106.344  14.654 -74.984  0.00  0.00     0.180 HD
ENDBRANCH 128 129
BRANCH 128 131
ATOM    131  CB  SER d   1     105.893  17.735 -73.792  0.00  0.00     0.200 C 
BRANCH 131 132
ATOM    132  OG  SER d   1     106.358  17.252 -72.527  0.00  0.00    -0.398 OA
ATOM    133  HG  SER d   1     105.994  16.372 -72.404  0.00  0.00     0.209 HD
ENDBRANCH 131 132
ENDBRANCH 128 131
ENDBRANCH 125 128
ENDBRANCH 123 124
BRANCH 123 134
ATOM    134  CB  ASN d   2     110.357  14.781 -73.096  0.00  0.00     0.137 C 
BRANCH 134 135
ATOM    135  CG  ASN d   2     109.907  15.029 -71.652  0.00  0.00     0.217 C 
ATOM    136  ND2 ASN d   2     110.549  15.911 -70.934  0.00  0.00    -0.370 N 
ATOM    137 21HD ASN d   2     110.079  16.109 -70.047  0.00  0.00     0.159 HD
ATOM    138 22HD ASN d   2     111.280  16.444 -71.404  0.00  0.00     0.159 HD
ATOM    139  OD1 ASN d   2     108.954  14.445 -71.158  0.00  0.00    -0.274 OA
ENDBRANCH 134 135
ENDBRANCH 123 134
ENDBRANCH 118 123
ENDBRANCH 113 116
ENDBRANCH 111 112
BRANCH 111 140
ATOM    140  CB  GLU d   4     106.991  17.099 -79.451  0.00  0.00     0.045 C 
BRANCH 140 141
ATOM    141  CG  GLU d   4     106.497  18.131 -80.517  0.00  0.00     0.116 C 
BRANCH 141 142
ATOM    142  CD  GLU d   4     105.099  18.703 -80.373  0.00  0.00     0.172 C 
ATOM    143  OE1 GLU d   4     104.353  18.343 -79.441  0.00  0.00    -0.648 OA
ATOM    144  OE2 GLU d   4     104.754  19.551 -81.221  0.00  0.00    -0.648 OA
ENDBRANCH 141 142
ENDBRANCH 140 141
ENDBRANCH 111 140
ENDBRANCH 108 111
ENDBRANCH 106 107
BRANCH 106 145
ATOM    145  CB  SER d   5     110.745  19.952 -76.910  0.00  0.00     0.199 C 
BRANCH 145 146
ATOM    146  OG  SER d   5     111.430  19.035 -76.049  0.00  0.00    -0.398 OA
ATOM    147  HG  SER d   5     110.898  18.238 -75.998  0.00  0.00     0.209 HD
ENDBRANCH 145 146
ENDBRANCH 106 145
ENDBRANCH 103 106
ENDBRANCH 101 102
BRANCH 101 148
ATOM    148  CB  ILE d   6     114.315  16.205 -78.559  0.00  0.00     0.013 C 
ATOM    149  CG2 ILE d   6     115.739  15.828 -79.075  0.00  0.00     0.012 C 
BRANCH 148 150
ATOM    150  CG1 ILE d   6     114.332  16.142 -76.998  0.00  0.00     0.002 C 
ATOM    151  CD1 ILE d   6     114.528  14.741 -76.384  0.00  0.00     0.005 C 
ENDBRANCH 148 150
ENDBRANCH 101 148
ENDBRANCH  98 101
ENDBRANCH  96  97
BRANCH  96 152
ATOM    152  CB  LEU d   7     111.443  16.097 -83.179  0.00  0.00     0.038 C 
BRANCH 152 153
ATOM    153  CG  LEU d   7     111.292  14.623 -82.712  0.00  0.00    -0.020 C 
ATOM    154  CD1 LEU d   7     110.066  13.982 -83.377  0.00  0.00     0.009 C 
ATOM    155  CD2 LEU d   7     112.542  13.776 -83.004  0.00  0.00     0.009 C 
ENDBRANCH 152 153
ENDBRANCH  96 152
ENDBRANCH  93  96
ENDBRANCH  91  92
BRANCH  91 156
ATOM    156  CB  ASP d   8     110.870  21.419 -82.576  0.00  0.00     0.147 C 
BRANCH 156 157
ATOM    157  CG  ASP d   8     110.727  22.850 -83.116  0.00  0.00     0.175 C 
ATOM    158  OD1 ASP d   8     110.801  23.045 -84.346  0.00  0.00    -0.648 OA
ATOM    159  OD2 ASP d   8     110.584  23.784 -82.300  0.00  0.00    -0.648 OA
ENDBRANCH 156 157
ENDBRANCH  91 156
ENDBRANCH  88  91
ENDBRANCH  86  87
BRANCH  86 160
ATOM    160  CB  GLU d   9     115.917  21.392 -80.706  0.00  0.00     0.045 C 
BRANCH 160 161
ATOM    161  CG  GLU d   9     117.335  22.010 -80.477  0.00  0.00     0.116 C 
BRANCH 161 162
ATOM    162  CD  GLU d   9     118.025  21.760 -79.149  0.00  0.00     0.172 C 
ATOM    163  OE1 GLU d   9     117.467  21.097 -78.252  0.00  0.00    -0.648 OA
ATOM    164  OE2 GLU d   9     119.171  22.237 -79.017  0.00  0.00    -0.648 OA
ENDBRANCH 161 162
ENDBRANCH 160 161
ENDBRANCH  86 160
ENDBRANCH   1  86
TORSDOF 67
