@<TRIPOS>MOLECULE
13-5
258 259 16              
SMALL
USER_CHARGES
@<TRIPOS>ATOM
1	   N	2041.027	618.178	-2107.138	N.3	1	GLU1	-0.516	
2	  CA	2041.586	619.527	-2107.138	C.3	1	GLU1	0.040	
3	   C	2043.095	619.487	-2107.138	C.2	1	GLU1	0.537	
4	   O	2043.771	620.186	-2107.906	O.2	1	GLU1	-0.582	
5	  CB	2041.063	620.312	-2105.901	C.3	1	GLU1	0.056	
6	  CG	2041.538	621.797	-2105.790	C.3	1	GLU1	0.014	
7	  CD	2041.114	622.601	-2104.575	C.2	1	GLU1	0.805	
8	 OE1	2040.386	622.099	-2103.697	O.co2	1	GLU1	-0.819	
9	 OE2	2041.544	623.771	-2104.503	O.co2	1	GLU1	-0.819	
10	   H	2041.654	617.299	-2107.138	 H	1	GLU1	0.294	
11	  HA	2041.260	620.045	-2108.058	 H	1	GLU1	0.111	
12	 2HB	2041.352	619.781	-2104.971	 H	1	GLU1	-0.017	
13	 3HB	2039.956	620.302	-2105.888	 H	1	GLU1	-0.017	
14	 2HG	2041.228	622.382	-2106.671	 H	1	GLU1	-0.043	
15	 3HG	2042.638	621.864	-2105.761	 H	1	GLU1	-0.043	
16	   N	2043.699	618.701	-2106.312	N.am	2	ASN2	-0.416	
17	  CA	2045.159	618.662	-2106.312	C.3	2	ASN2	0.014	
18	   C	2045.690	618.307	-2107.681	C.2	2	ASN2	0.597	
19	   O	2046.605	618.937	-2108.210	O.2	2	ASN2	-0.568	
20	  CB	2045.651	617.639	-2105.248	C.3	2	ASN2	-0.204	
21	  CG	2045.187	617.863	-2103.805	C.2	2	ASN2	0.713	
22	 ND2	2045.782	618.778	-2103.087	N.pl3	2	ASN2	-0.919	
23	 OD1	2044.267	617.230	-2103.311	O.2	2	ASN2	-0.593	
24	   H	2043.171	618.121	-2105.676	 H	2	ASN2	0.272	
25	  HA	2045.536	619.672	-2106.067	 H	2	ASN2	0.105	
26	 2HB	2046.755	617.581	-2105.252	 H	2	ASN2	0.080	
27	 3HB	2045.322	616.621	-2105.534	 H	2	ASN2	0.080	
28	1HD2	2045.301	618.951	-2102.200	 H	2	ASN2	0.420	
29	2HD2	2046.484	619.350	-2103.556	 H	2	ASN2	0.420	
30	   N	2045.168	617.312	-2108.315	N.am	3	PRO3	-0.255	
31	  CA	2045.620	616.902	-2109.636	C.3	3	PRO3	-0.027	
32	   C	2045.222	617.926	-2110.714	C.2	3	PRO3	0.590	
33	   O	2046.046	618.309	-2111.545	O.2	3	PRO3	-0.575	
34	  CB	2044.916	615.548	-2109.806	C.3	3	PRO3	-0.007	
35	  CG	2043.633	615.700	-2108.976	C.3	3	PRO3	0.019	
36	  CD	2044.090	616.519	-2107.766	C.3	3	PRO3	0.019	
37	  HA	2046.706	616.782	-2109.650	 H	3	PRO3	0.064	
38	 2HB	2045.539	614.766	-2109.365	 H	3	PRO3	0.025	
39	 3HB	2044.718	615.299	-2110.851	 H	3	PRO3	0.025	
40	 2HG	2043.205	614.738	-2108.684	 H	3	PRO3	0.021	
41	 3HG	2042.895	616.271	-2109.543	 H	3	PRO3	0.021	
42	 2HD	2044.479	615.869	-2106.978	 H	3	PRO3	0.039	
43	 3HD	2043.294	617.155	-2107.373	 H	3	PRO3	0.039	
44	   N	2044.017	618.386	-2110.746	N.am	4	GLU4	-0.516	
45	  CA	2043.657	619.357	-2111.776	C.3	4	GLU4	0.040	
46	   C	2044.556	620.568	-2111.715	C.2	4	GLU4	0.537	
47	   O	2045.083	621.047	-2112.729	O.2	4	GLU4	-0.582	
48	  CB	2042.169	619.775	-2111.606	C.3	4	GLU4	0.056	
49	  CG	2041.621	620.778	-2112.672	C.3	4	GLU4	0.014	
50	  CD	2040.194	621.275	-2112.529	C.2	4	GLU4	0.805	
51	 OE1	2039.468	620.877	-2111.598	O.co2	4	GLU4	-0.819	
52	 OE2	2039.805	622.104	-2113.377	O.co2	4	GLU4	-0.819	
53	   H	2043.333	618.079	-2110.070	 H	4	GLU4	0.294	
54	  HA	2043.789	618.886	-2112.767	 H	4	GLU4	0.111	
55	 2HB	2042.016	620.215	-2110.599	 H	4	GLU4	-0.017	
56	 3HB	2041.521	618.878	-2111.612	 H	4	GLU4	-0.017	
57	 2HG	2041.703	620.364	-2113.690	 H	4	GLU4	-0.043	
58	 3HG	2042.209	621.711	-2112.683	 H	4	GLU4	-0.043	
59	   N	2044.784	621.120	-2110.572	N.am	5	SER5	-0.416	
60	  CA	2045.653	622.291	-2110.513	C.3	5	SER5	-0.025	
61	   C	2047.012	621.986	-2111.099	C.2	5	SER5	0.597	
62	   O	2047.560	622.739	-2111.904	O.2	5	SER5	-0.568	
63	  CB	2045.765	622.823	-2109.063	C.3	5	SER5	0.212	
64	  OG	2046.497	621.944	-2108.202	O.3	5	SER5	-0.655	
65	   H	2044.367	620.749	-2109.730	 H	5	SER5	0.272	
66	  HA	2045.204	623.082	-2111.143	 H	5	SER5	0.084	
67	 2HB	2044.765	623.017	-2108.630	 H	5	SER5	0.035	
68	 3HB	2046.271	623.809	-2109.065	 H	5	SER5	0.035	
69	  HG	2046.008	621.119	-2108.151	 H	5	SER5	0.428	
70	   N	2047.617	620.902	-2110.745	N.am	6	ILE6	-0.416	
71	  CA	2048.930	620.607	-2111.311	C.3	6	ILE6	-0.060	
72	   C	2048.873	620.570	-2112.819	C.2	6	ILE6	0.597	
73	   O	2049.707	621.157	-2113.523	O.2	6	ILE6	-0.568	
74	  CB	2049.529	619.270	-2110.711	C.3	6	ILE6	0.130	
75	 CG1	2049.548	619.208	-2109.150	C.3	6	ILE6	-0.043	
76	 CG2	2050.970	618.969	-2111.227	C.3	6	ILE6	-0.320	
77	 CD1	2049.818	617.819	-2108.536	C.3	6	ILE6	-0.066	
78	   H	2047.188	620.268	-2110.086	 H	6	ILE6	0.272	
79	  HA	2049.604	621.441	-2111.043	 H	6	ILE6	0.087	
80	  HB	2048.871	618.445	-2111.056	 H	6	ILE6	0.019	
81	2HG1	2048.566	619.528	-2108.755	 H	6	ILE6	0.024	
82	3HG1	2050.264	619.950	-2108.746	 H	6	ILE6	0.024	
83	1HG2	2051.029	618.875	-2112.325	 H	6	ILE6	0.088	
84	2HG2	2051.693	619.750	-2110.924	 H	6	ILE6	0.088	
85	3HG2	2051.360	618.006	-2110.848	 H	6	ILE6	0.088	
86	1HD1	2049.089	617.065	-2108.891	 H	6	ILE6	0.019	
87	2HD1	2050.828	617.440	-2108.771	 H	6	ILE6	0.019	
88	3HD1	2049.741	617.848	-2107.433	 H	6	ILE6	0.019	
89	   N	2047.927	619.907	-2113.393	N.am	7	LEU7	-0.416	
90	  CA	2047.872	619.871	-2114.852	C.3	7	LEU7	-0.052	
91	   C	2047.800	621.266	-2115.424	C.2	7	LEU7	0.597	
92	   O	2048.521	621.629	-2116.366	O.2	7	LEU7	-0.568	
93	  CB	2046.668	619.011	-2115.332	C.3	7	LEU7	-0.110	
94	  CG	2046.595	617.531	-2114.866	C.3	7	LEU7	0.353	
95	 CD1	2045.405	616.826	-2115.531	C.3	7	LEU7	-0.412	
96	 CD2	2047.889	616.752	-2115.157	C.3	7	LEU7	-0.412	
97	   H	2047.235	619.420	-2112.842	 H	7	LEU7	0.272	
98	  HA	2048.813	619.431	-2115.226	 H	7	LEU7	0.092	
99	 2HB	2046.645	619.027	-2116.439	 H	7	LEU7	0.046	
100	 3HB	2045.729	619.514	-2115.028	 H	7	LEU7	0.046	
101	  HG	2046.426	617.524	-2113.768	 H	7	LEU7	-0.036	
102	1HD1	2044.448	617.335	-2115.308	 H	7	LEU7	0.100	
103	2HD1	2045.504	616.786	-2116.632	 H	7	LEU7	0.100	
104	3HD1	2045.298	615.785	-2115.175	 H	7	LEU7	0.100	
105	1HD2	2048.164	616.782	-2116.227	 H	7	LEU7	0.100	
106	2HD2	2048.742	617.163	-2114.586	 H	7	LEU7	0.100	
107	3HD2	2047.807	615.690	-2114.861	 H	7	LEU7	0.100	
108	   N	2046.963	622.107	-2114.917	N.am	8	ASP8	-0.516	
109	  CA	2046.893	623.457	-2115.471	C.3	8	ASP8	0.038	
110	   C	2048.239	624.137	-2115.413	C.2	8	ASP8	0.537	
111	   O	2048.712	624.742	-2116.388	O.2	8	ASP8	-0.582	
112	  CB	2045.814	624.296	-2114.729	C.3	8	ASP8	-0.030	
113	  CG	2045.596	625.717	-2115.269	C.2	8	ASP8	0.799	
114	 OD1	2045.660	625.916	-2116.500	O.co2	8	ASP8	-0.801	
115	 OD2	2045.404	626.643	-2114.453	O.co2	8	ASP8	-0.801	
116	   H	2046.365	621.836	-2114.150	 H	8	ASP8	0.294	
117	  HA	2046.609	623.379	-2116.538	 H	8	ASP8	0.088	
118	 2HB	2046.072	624.379	-2113.657	 H	8	ASP8	-0.012	
119	 3HB	2044.835	623.791	-2114.762	 H	8	ASP8	-0.012	
120	   N	2048.919	624.087	-2114.318	N.am	9	GLU9	-0.516	
121	  CA	2050.221	624.744	-2114.262	C.3	9	GLU9	0.040	
122	   C	2051.140	624.216	-2115.338	C.2	9	GLU9	0.537	
123	   O	2051.804	624.971	-2116.063	O.2	9	GLU9	-0.582	
124	  CB	2050.855	624.536	-2112.857	C.3	9	GLU9	0.056	
125	  CG	2052.237	625.229	-2112.627	C.3	9	GLU9	0.014	
126	  CD	2052.939	625.015	-2111.299	C.2	9	GLU9	0.805	
127	 OE1	2052.417	624.324	-2110.403	O.co2	9	GLU9	-0.819	
128	 OE2	2054.058	625.553	-2111.167	O.co2	9	GLU9	-0.819	
129	   H	2048.555	623.600	-2113.511	 H	9	GLU9	0.294	
130	  HA	2050.080	625.826	-2114.438	 H	9	GLU9	0.111	
131	 2HB	2050.968	623.452	-2112.654	 H	9	GLU9	-0.017	
132	 3HB	2050.158	624.890	-2112.073	 H	9	GLU9	-0.017	
133	 2HG	2052.166	626.319	-2112.767	 H	9	GLU9	-0.043	
134	 3HG	2052.984	624.883	-2113.361	 H	9	GLU9	-0.043	
135	   N	2051.236	622.941	-2115.508	N.am	10	HIS10	-0.416	
136	  CA	2052.125	622.430	-2116.548	C.3	10	HIS10	-0.058	
137	   C	2051.758	622.995	-2117.899	C.2	10	HIS10	0.597	
138	   O	2052.611	623.459	-2118.670	O.2	10	HIS10	-0.568	
139	  CB	2051.961	620.901	-2116.543	C.3	10	HIS10	-0.007	
140	  CG	2053.247	620.191	-2116.235	C.2	10	HIS10	0.187	
141	 CD2	2053.627	619.856	-2114.942	C.2	10	HIS10	-0.221	
142	 ND1	2054.199	619.785	-2117.167	N.2	10	HIS10	-0.543	
143	 CE1	2055.105	619.227	-2116.344	C.2	10	HIS10	0.163	
144	 NE2	2054.842	619.224	-2115.009	N.pl3	10	HIS10	-0.280	
145	   H	2050.705	622.306	-2114.929	 H	10	HIS10	0.272	
146	  HA	2053.144	622.787	-2116.322	 H	10	HIS10	0.136	
147	 2HB	2051.596	620.534	-2117.523	 H	10	HIS10	0.037	
148	 3HB	2051.205	620.564	-2115.803	 H	10	HIS10	0.037	
149	 2HD	2053.041	620.070	-2114.053	 H	10	HIS10	0.186	
150	 1HE	2055.997	618.807	-2116.791	 H	10	HIS10	0.144	
151	 2HE	2055.409	618.847	-2114.235	 H	10	HIS10	0.334	
152	   N	2050.521	622.994	-2118.262	N.am	11	VAL11	-0.416	
153	  CA	2050.166	623.540	-2119.569	C.3	11	VAL11	-0.087	
154	   C	2050.630	624.971	-2119.701	C.2	11	VAL11	0.597	
155	   O	2051.231	625.376	-2120.704	O.2	11	VAL11	-0.568	
156	  CB	2048.605	623.433	-2119.789	C.3	11	VAL11	0.299	
157	 CG1	2048.036	624.137	-2121.052	C.3	11	VAL11	-0.319	
158	 CG2	2048.080	621.979	-2119.863	C.3	11	VAL11	-0.319	
159	   H	2049.807	622.621	-2117.652	 H	11	VAL11	0.272	
160	  HA	2050.686	622.958	-2120.351	 H	11	VAL11	0.097	
161	  HB	2048.117	623.913	-2118.914	 H	11	VAL11	-0.030	
162	1HG1	2048.475	623.746	-2121.989	 H	11	VAL11	0.079	
163	2HG1	2046.938	624.030	-2121.135	 H	11	VAL11	0.079	
164	3HG1	2048.215	625.230	-2121.043	 H	11	VAL11	0.079	
165	1HG2	2048.370	621.392	-2118.972	 H	11	VAL11	0.079	
166	2HG2	2046.974	621.942	-2119.906	 H	11	VAL11	0.079	
167	3HG2	2048.462	621.438	-2120.749	 H	11	VAL11	0.079	
168	   N	2050.393	625.796	-2118.739	N.am	12	GLN12	-0.416	
169	  CA	2050.841	627.179	-2118.866	C.3	12	GLN12	-0.003	
170	   C	2052.332	627.246	-2119.104	C.2	12	GLN12	0.597	
171	   O	2052.819	627.954	-2119.983	O.2	12	GLN12	-0.568	
172	  CB	2050.450	627.947	-2117.584	C.3	12	GLN12	-0.004	
173	  CG	2050.811	629.469	-2117.553	C.3	12	GLN12	-0.064	
174	  CD	2050.508	630.282	-2116.288	C.2	12	GLN12	0.695	
175	 NE2	2049.940	629.706	-2115.259	N.pl3	12	GLN12	-0.941	
176	 OE1	2050.810	631.463	-2116.211	O.2	12	GLN12	-0.609	
177	   H	2049.904	625.490	-2117.910	 H	12	GLN12	0.272	
178	  HA	2050.342	627.635	-2119.742	 H	12	GLN12	0.085	
179	 2HB	2050.926	627.447	-2116.714	 H	12	GLN12	0.017	
180	 3HB	2049.360	627.840	-2117.421	 H	12	GLN12	0.017	
181	 2HG	2050.333	629.989	-2118.404	 H	12	GLN12	0.035	
182	 3HG	2051.894	629.611	-2117.719	 H	12	GLN12	0.035	
183	1HE2	2049.833	630.301	-2114.436	 H	12	GLN12	0.425	
184	2HE2	2049.777	628.703	-2115.363	 H	12	GLN12	0.425	
185	   N	2053.116	626.540	-2118.363	N.am	13	MET13	-0.416	
186	  CA	2054.556	626.605	-2118.592	C.3	13	MET13	-0.024	
187	   C	2054.896	626.233	-2120.015	C.2	13	MET13	0.597	
188	   O	2055.674	626.911	-2120.703	O.2	13	MET13	-0.568	
189	  CB	2055.293	625.677	-2117.586	C.3	13	MET13	0.034	
190	  CG	2055.137	626.042	-2116.094	C.3	13	MET13	0.002	
191	  SD	2056.273	625.059	-2115.104	S.3	13	MET13	-0.274	
192	  CE	2055.585	625.412	-2113.481	C.3	13	MET13	-0.054	
193	   H	2052.739	625.950	-2117.634	 H	13	MET13	0.272	
194	  HA	2054.891	627.648	-2118.440	 H	13	MET13	0.088	
195	 2HB	2056.375	625.670	-2117.819	 H	13	MET13	0.024	
196	 3HB	2054.965	624.628	-2117.732	 H	13	MET13	0.024	
197	 2HG	2054.100	625.848	-2115.763	 H	13	MET13	0.044	
198	 3HG	2055.331	627.116	-2115.916	 H	13	MET13	0.044	
199	 1HE	2055.553	626.500	-2113.292	 H	13	MET13	0.068	
200	 2HE	2054.558	625.015	-2113.404	 H	13	MET13	0.068	
201	 3HE	2056.197	624.942	-2112.691	 H	13	MET13	0.068	
202	   N	2054.361	625.179	-2120.531	N.am	14	VAL14	-0.416	
203	  CA	2054.690	624.819	-2121.908	C.3	14	VAL14	-0.087	
204	   C	2054.362	625.950	-2122.854	C.2	14	VAL14	0.597	
205	   O	2055.158	626.331	-2123.722	O.2	14	VAL14	-0.568	
206	  CB	2053.918	623.502	-2122.317	C.3	14	VAL14	0.299	
207	 CG1	2054.011	623.084	-2123.811	C.3	14	VAL14	-0.319	
208	 CG2	2054.348	622.250	-2121.516	C.3	14	VAL14	-0.319	
209	   H	2053.725	624.610	-2119.991	 H	14	VAL14	0.272	
210	  HA	2055.778	624.643	-2121.980	 H	14	VAL14	0.097	
211	  HB	2052.841	623.674	-2122.104	 H	14	VAL14	-0.030	
212	1HG1	2055.053	622.907	-2124.136	 H	14	VAL14	0.079	
213	2HG1	2053.439	622.161	-2124.025	 H	14	VAL14	0.079	
214	3HG1	2053.584	623.847	-2124.490	 H	14	VAL14	0.079	
215	1HG2	2054.257	622.409	-2120.425	 H	14	VAL14	0.079	
216	2HG2	2053.712	621.374	-2121.750	 H	14	VAL14	0.079	
217	3HG2	2055.396	621.960	-2121.719	 H	14	VAL14	0.079	
218	   N	2053.217	626.536	-2122.756	N.am	15	MET15	-0.416	
219	  CA	2052.900	627.628	-2123.670	C.3	15	MET15	-0.024	
220	   C	2053.930	628.728	-2123.579	C.2	15	MET15	0.597	
221	   O	2054.435	629.239	-2124.591	O.2	15	MET15	-0.568	
222	  CB	2051.478	628.174	-2123.365	C.3	15	MET15	0.034	
223	  CG	2050.316	627.177	-2123.561	C.3	15	MET15	0.002	
224	  SD	2048.742	628.043	-2123.451	S.3	15	MET15	-0.274	
225	  CE	2047.660	626.613	-2123.318	C.3	15	MET15	-0.054	
226	   H	2052.550	626.243	-2122.056	 H	15	MET15	0.272	
227	  HA	2052.928	627.241	-2124.706	 H	15	MET15	0.088	
228	 2HB	2051.277	629.053	-2124.008	 H	15	MET15	0.024	
229	 3HB	2051.439	628.566	-2122.329	 H	15	MET15	0.024	
230	 2HG	2050.356	626.391	-2122.783	 H	15	MET15	0.044	
231	 3HG	2050.382	626.661	-2124.537	 H	15	MET15	0.044	
232	 1HE	2047.806	625.925	-2124.170	 H	15	MET15	0.068	
233	 2HE	2047.866	626.060	-2122.385	 H	15	MET15	0.068	
234	 3HE	2046.602	626.929	-2123.304	 H	15	MET15	0.068	
235	   N	2054.295	629.149	-2122.416	N.am	16	ARG16	-0.348	
236	  CA	2055.291	630.213	-2122.329	C.3	16	ARG16	-0.264	
237	   C	2056.564	629.820	-2123.042	C.2	16	ARG16	0.734	
238	   O	2056.679	628.744	-2123.623	O.2	16	ARG16	-0.589	
239	  CB	2055.555	630.530	-2120.830	C.3	16	ARG16	-0.001	
240	  CG	2056.380	631.819	-2120.554	C.3	16	ARG16	0.039	
241	  CD	2056.625	632.038	-2119.052	C.3	16	ARG16	0.049	
242	  NE	2057.401	633.297	-2118.848	N.pl3	16	ARG16	-0.530	
243	  CZ	2057.788	633.779	-2117.671	C.cat	16	ARG16	0.808	
244	 NH1	2057.537	633.194	-2116.533	N.pl3	16	ARG16	-0.863	
245	 NH2	2058.452	634.891	-2117.650	N.pl3	16	ARG16	-0.863	
246	   H	2053.898	628.749	-2121.578	 H	16	ARG16	0.275	
247	  HA	2054.884	631.106	-2122.840	 H	16	ARG16	0.156	
248	 2HB	2056.051	629.654	-2120.362	 H	16	ARG16	0.033	
249	 3HB	2054.585	630.611	-2120.299	 H	16	ARG16	0.033	
250	 2HG	2055.851	632.690	-2120.992	 H	16	ARG16	0.029	
251	 3HG	2057.355	631.766	-2121.080	 H	16	ARG16	0.029	
252	 2HD	2057.173	631.163	-2118.637	 H	16	ARG16	0.069	
253	 3HD	2055.651	632.080	-2118.519	 H	16	ARG16	0.069	
254	  HE	2057.682	633.878	-2119.644	 H	16	ARG16	0.346	
255	1HH1	2057.012	632.321	-2116.620	 H	16	ARG16	0.448	
256	2HH1	2057.869	633.629	-2115.671	 H	16	ARG16	0.448	
257	1HH2	2058.640	635.335	-2118.551	 H	16	ARG16	0.448	
258	2HH2	2058.740	635.246	-2116.737	 H	16	ARG16	0.448	
@<TRIPOS>BOND
1 1 2 1
2 1 10 1
3 2 3 1
4 2 5 1
5 2 11 1
6 3 4 2
7 3 16 1
8 5 6 1
9 6 7 1
10 7 8 2
11 7 9 1
12 5 12 1
13 5 13 1
14 6 14 1
15 6 15 1
16 16 17 1
17 16 24 1
18 17 18 1
19 17 20 1
20 17 25 1
21 18 19 2
22 18 30 1
23 20 21 1
24 21 22 1
25 21 23 2
26 20 26 1
27 20 27 1
28 22 28 1
29 22 29 1
30 30 31 1
31 30 36 1
32 31 32 1
33 31 34 1
34 31 37 1
35 32 33 2
36 32 44 1
37 34 35 1
38 35 36 1
39 34 38 1
40 34 39 1
41 35 40 1
42 35 41 1
43 36 42 1
44 36 43 1
45 44 45 1
46 44 53 1
47 45 46 1
48 45 48 1
49 45 54 1
50 46 47 2
51 46 59 1
52 48 49 1
53 49 50 1
54 50 51 2
55 50 52 1
56 48 55 1
57 48 56 1
58 49 57 1
59 49 58 1
60 59 60 1
61 59 65 1
62 60 61 1
63 60 63 1
64 60 66 1
65 61 62 2
66 61 70 1
67 63 64 1
68 63 67 1
69 63 68 1
70 64 69 1
71 70 71 1
72 70 78 1
73 71 72 1
74 71 74 1
75 71 79 1
76 72 73 2
77 72 89 1
78 74 75 1
79 74 76 1
80 75 77 1
81 74 80 1
82 75 81 1
83 75 82 1
84 76 83 1
85 76 84 1
86 76 85 1
87 77 86 1
88 77 87 1
89 77 88 1
90 89 90 1
91 89 97 1
92 90 91 1
93 90 93 1
94 90 98 1
95 91 92 2
96 91 108 1
97 93 94 1
98 94 95 1
99 94 96 1
100 93 99 1
101 93 100 1
102 94 101 1
103 95 102 1
104 95 103 1
105 95 104 1
106 96 105 1
107 96 106 1
108 96 107 1
109 108 109 1
110 108 116 1
111 109 110 1
112 109 112 1
113 109 117 1
114 110 111 2
115 110 120 1
116 112 113 1
117 113 114 2
118 113 115 1
119 112 118 1
120 112 119 1
121 120 121 1
122 120 129 1
123 121 122 1
124 121 124 1
125 121 130 1
126 122 123 2
127 122 135 1
128 124 125 1
129 125 126 1
130 126 127 2
131 126 128 1
132 124 131 1
133 124 132 1
134 125 133 1
135 125 134 1
136 135 136 1
137 135 145 1
138 136 137 1
139 136 139 1
140 136 146 1
141 137 138 2
142 137 152 1
143 139 140 1
144 140 141 2
145 141 144 1
146 140 142 1
147 142 143 2
148 143 144 1
149 139 147 1
150 139 148 1
151 141 149 1
152 143 150 1
153 144 151 1
154 152 153 1
155 152 159 1
156 153 154 1
157 153 156 1
158 153 160 1
159 154 155 2
160 154 168 1
161 156 157 1
162 156 158 1
163 156 161 1
164 157 162 1
165 157 163 1
166 157 164 1
167 158 165 1
168 158 166 1
169 158 167 1
170 168 169 1
171 168 177 1
172 169 170 1
173 169 172 1
174 169 178 1
175 170 171 2
176 170 185 1
177 172 173 1
178 173 174 1
179 174 175 1
180 174 176 2
181 172 179 1
182 172 180 1
183 173 181 1
184 173 182 1
185 175 183 1
186 175 184 1
187 185 186 1
188 185 193 1
189 186 187 1
190 186 189 1
191 186 194 1
192 187 188 2
193 187 202 1
194 189 190 1
195 190 191 1
196 191 192 1
197 189 195 1
198 189 196 1
199 190 197 1
200 190 198 1
201 192 199 1
202 192 200 1
203 192 201 1
204 202 203 1
205 202 209 1
206 203 204 1
207 203 206 1
208 203 210 1
209 204 205 2
210 204 218 1
211 206 207 1
212 206 208 1
213 206 211 1
214 207 212 1
215 207 213 1
216 207 214 1
217 208 215 1
218 208 216 1
219 208 217 1
220 218 219 1
221 218 226 1
222 219 220 1
223 219 222 1
224 219 227 1
225 220 221 2
226 220 235 1
227 222 223 1
228 223 224 1
229 224 225 1
230 222 228 1
231 222 229 1
232 223 230 1
233 223 231 1
234 225 232 1
235 225 233 1
236 225 234 1
237 235 236 1
238 235 246 1
239 236 237 1
240 236 239 1
241 236 247 1
242 237 238 2
243 239 240 1
244 240 241 1
245 241 242 1
246 242 243 1
247 243 244 2
248 243 245 1
249 239 248 1
250 239 249 1
251 240 250 1
252 240 251 1
253 241 252 1
254 241 253 1
255 242 254 1
256 244 255 1
257 244 256 1
258 245 257 1
259 245 258 1
@<TRIPOS>SUBSTRUCTURE
1	GLU1	1	RESIDUE	1 ****	GLU
2	ASN2	16	RESIDUE	1 ****	ASN
3	PRO3	30	RESIDUE	1 ****	PRO
4	GLU4	44	RESIDUE	1 ****	GLU
5	SER5	59	RESIDUE	1 ****	SER
6	ILE6	70	RESIDUE	1 ****	ILE
7	LEU7	89	RESIDUE	1 ****	LEU
8	ASP8	108	RESIDUE	1 ****	ASP
9	GLU9	120	RESIDUE	1 ****	GLU
10	HIS10	135	RESIDUE	1 ****	HIS
11	VAL11	152	RESIDUE	1 ****	VAL
12	GLN12	168	RESIDUE	1 ****	GLN
13	MET13	185	RESIDUE	1 ****	MET
14	VAL14	202	RESIDUE	1 ****	VAL
15	MET15	218	RESIDUE	1 ****	MET
16	ARG16	235	RESIDUE	1 ****	ARG
