REMARK WARNING: 32 MAX_TORS EXCEEDED!!!
REMARK  69 active torsions:
REMARK  status: ('A' for Active; 'I' for Inactive)
REMARK    1  A    between atoms: N_1  and  CA_2 
REMARK    2  A    between atoms: CA_2  and  C_3 
REMARK    3  A    between atoms: CA_2  and  CB_5 
REMARK       I    between atoms: C_3  and  N_11 
REMARK    4  A    between atoms: CB_5  and  CG_6 
REMARK    5  A    between atoms: CG_6  and  CD_7 
REMARK    6  A    between atoms: N_11  and  CA_12 
REMARK    7  A    between atoms: CA_12  and  C_13 
REMARK    8  A    between atoms: CA_12  and  CB_15 
REMARK       I    between atoms: C_13  and  N_22 
REMARK    9  A    between atoms: CB_15  and  CG_16 
REMARK       I    between atoms: CG_16  and  ND2_17 
REMARK   10  A    between atoms: CA_23  and  C_24 
REMARK       I    between atoms: C_24  and  N_29 
REMARK   11  A    between atoms: N_29  and  CA_30 
REMARK   12  A    between atoms: CA_30  and  C_31 
REMARK   13  A    between atoms: CA_30  and  CB_33 
REMARK       I    between atoms: C_31  and  N_39 
REMARK   14  A    between atoms: CB_33  and  CG_34 
REMARK   15  A    between atoms: CG_34  and  CD_35 
REMARK   16  A    between atoms: N_39  and  CA_40 
REMARK   17  A    between atoms: CA_40  and  C_41 
REMARK   18  A    between atoms: CA_40  and  CB_43 
REMARK       I    between atoms: C_41  and  N_47 
REMARK   19  A    between atoms: CB_43  and  OG_44 
REMARK   20  A    between atoms: N_47  and  CA_48 
REMARK   21  A    between atoms: CA_48  and  C_49 
REMARK   22  A    between atoms: CA_48  and  CB_51 
REMARK       I    between atoms: C_49  and  N_56 
REMARK   23  A    between atoms: CB_51  and  CG1_52 
REMARK   24  A    between atoms: N_56  and  CA_57 
REMARK   25  A    between atoms: CA_57  and  C_58 
REMARK   26  A    between atoms: CA_57  and  CB_60 
REMARK       I    between atoms: C_58  and  N_65 
REMARK   27  A    between atoms: CB_60  and  CG_61 
REMARK   28  A    between atoms: N_65  and  CA_66 
REMARK   29  A    between atoms: CA_66  and  C_67 
REMARK   30  A    between atoms: CA_66  and  CB_69 
REMARK       I    between atoms: C_67  and  N_77 
REMARK   31  A    between atoms: CB_69  and  CG_70 
REMARK   32  A    between atoms: CG_70  and  CD_71 
REMARK       I    between atoms: CD_71  and  NE2_72 
REMARK   33  A    between atoms: N_77  and  CA_78 
REMARK   34  A    between atoms: CA_78  and  C_79 
REMARK   35  A    between atoms: CA_78  and  CB_81 
REMARK       I    between atoms: C_79  and  N_87 
REMARK   36  A    between atoms: CB_81  and  CG_82 
REMARK   37  A    between atoms: CG_82  and  CD_83 
REMARK   38  A    between atoms: N_87  and  CA_88 
REMARK   39  A    between atoms: CA_88  and  C_89 
REMARK   40  A    between atoms: CA_88  and  CB_91 
REMARK       I    between atoms: C_89  and  N_99 
REMARK   41  A    between atoms: CB_91  and  CG_92 
REMARK   42  A    between atoms: N_99  and  CA_100 
REMARK   43  A    between atoms: CA_100  and  C_101 
REMARK   44  A    between atoms: CA_100  and  CB_103 
REMARK       I    between atoms: C_101  and  N_107 
REMARK   45  A    between atoms: N_107  and  CA_108 
REMARK   46  A    between atoms: CA_108  and  C_109 
REMARK   47  A    between atoms: CA_108  and  CB_111 
REMARK       I    between atoms: C_109  and  N_119 
REMARK   48  A    between atoms: CB_111  and  CG_112 
REMARK   49  A    between atoms: CG_112  and  CD_113 
REMARK       I    between atoms: CD_113  and  NE2_114 
REMARK   50  A    between atoms: N_119  and  CA_120 
REMARK   51  A    between atoms: CA_120  and  C_121 
REMARK   52  A    between atoms: CA_120  and  CB_123 
REMARK       I    between atoms: C_121  and  N_136 
REMARK   53  A    between atoms: CB_123  and  CG_124 
REMARK   54  A    between atoms: CG_124  and  CD_125 
REMARK   55  A    between atoms: CD_125  and  NE_126 
REMARK       I    between atoms: NE_126  and  CZ_127 
REMARK       I    between atoms: CZ_127  and  NH1_128 
REMARK       I    between atoms: CZ_127  and  NH2_129 
REMARK   56  A    between atoms: N_136  and  CA_137 
REMARK   57  A    between atoms: CA_137  and  C_138 
REMARK   58  A    between atoms: CA_137  and  CB_140 
REMARK       I    between atoms: C_138  and  N_144 
REMARK   59  A    between atoms: N_144  and  CA_145 
REMARK   60  A    between atoms: CA_145  and  C_146 
REMARK   61  A    between atoms: CA_145  and  CB_148 
REMARK       I    between atoms: C_146  and  N_153 
REMARK   62  A    between atoms: CB_148  and  CG_149 
REMARK   63  A    between atoms: CG_149  and  SD_150 
REMARK   64  A    between atoms: N_153  and  CA_154 
REMARK   65  A    between atoms: CA_154  and  C_155 
REMARK   66  A    between atoms: CA_154  and  CB_157 
REMARK   67  A    between atoms: CB_157  and  CG_158 
REMARK   68  A    between atoms: CG_158  and  CD_159 
REMARK   69  A    between atoms: CD_159  and  NE_160 
REMARK       I    between atoms: NE_160  and  CZ_161 
REMARK       I    between atoms: CZ_161  and  NH1_162 
ROOT
ATOM      1  C   GLU d   9    1322.364 386.959-1324.032  0.00  0.00     0.241 C 
ATOM      2  O   GLU d   9    1323.027 387.714-1324.758  0.00  0.00    -0.271 OA
ATOM      3  N   HIS d  10    1322.462 385.684-1324.202  0.00  0.00    -0.346 N 
ATOM      4  H   HIS d  10    1321.932 385.048-1323.623  0.00  0.00     0.163 HD
ENDROOT
BRANCH   1   5
ATOM      5  CA  GLU d   9    1321.447 387.486-1322.956  0.00  0.00     0.177 C 
BRANCH   5   6
ATOM      6  N   GLU d   9    1320.144 386.827-1323.010  0.00  0.00    -0.346 N 
ATOM      7  C   GLN d   8    1319.464 386.877-1324.105  0.00  0.00     0.241 C 
ATOM      8  O   GLN d   8    1319.931 387.477-1325.071  0.00  0.00    -0.271 OA
ATOM      9  H   GLU d   9    1319.782 386.341-1322.203  0.00  0.00     0.163 HD
BRANCH   7  10
ATOM     10  CA  GLN d   8    1318.117 386.196-1324.162  0.00  0.00     0.177 C 
BRANCH  10  11
ATOM     11  N   GLN d   8    1318.187 384.847-1323.609  0.00  0.00    -0.346 N 
ATOM     12  C   LEU d   7    1319.025 384.007-1324.116  0.00  0.00     0.241 C 
ATOM     13  O   LEU d   7    1319.745 384.370-1325.058  0.00  0.00    -0.271 OA
ATOM     14  H   GLN d   8    1317.590 384.576-1322.842  0.00  0.00     0.163 HD
BRANCH  12  15
ATOM     15  CA  LEU d   7    1319.097 382.611-1323.544  0.00  0.00     0.177 C 
BRANCH  15  16
ATOM     16  N   LEU d   7    1319.152 382.647-1322.085  0.00  0.00    -0.346 N 
ATOM     17  C   ILE d   6    1320.098 383.311-1321.511  0.00  0.00     0.241 C 
ATOM     18  O   ILE d   6    1320.933 383.898-1322.215  0.00  0.00    -0.271 OA
ATOM     19  H   LEU d   7    1318.460 382.160-1321.534  0.00  0.00     0.163 HD
BRANCH  17  20
ATOM     20  CA  ILE d   6    1320.156 383.348-1320.004  0.00  0.00     0.180 C 
BRANCH  20  21
ATOM     21  N   ILE d   6    1318.842 383.643-1319.437  0.00  0.00    -0.346 N 
ATOM     22  C   SER d   5    1318.238 384.726-1319.791  0.00  0.00     0.243 C 
ATOM     23  O   SER d   5    1318.785 385.479-1320.596  0.00  0.00    -0.271 OA
ATOM     24  H   ILE d   6    1318.414 383.008-1318.778  0.00  0.00     0.163 HD
BRANCH  22  25
ATOM     25  CA  SER d   5    1316.879 385.031-1319.205  0.00  0.00     0.200 C 
BRANCH  25  26
ATOM     26  N   SER d   5    1316.009 383.860-1319.264  0.00  0.00    -0.344 N 
ATOM     27  C   GLU d   4    1315.782 383.307-1320.407  0.00  0.00     0.241 C 
ATOM     28  O   GLU d   4    1316.308 383.787-1321.421  0.00  0.00    -0.271 OA
ATOM     29  H   SER d   5    1315.593 383.488-1318.422  0.00  0.00     0.163 HD
BRANCH  27  30
ATOM     30  CA  GLU d   4    1314.883 382.096-1320.468  0.00  0.00     0.177 C 
BRANCH  30  31
ATOM     31  N   GLU d   4    1315.243 381.125-1319.438  0.00  0.00    -0.346 N 
ATOM     32  C   PRO d   3    1316.448 380.665-1319.406  0.00  0.00     0.241 C 
ATOM     33  O   PRO d   3    1317.271 381.048-1320.238  0.00  0.00    -0.271 OA
ATOM     34  H   GLU d   4    1314.559 380.818-1318.762  0.00  0.00     0.163 HD
BRANCH  32  35
ATOM     35  CA  PRO d   3    1316.846 379.641-1318.329  0.00  0.00     0.179 C 
ATOM     36  N   PRO d   3    1316.394 380.051-1317.008  0.00  0.00    -0.337 N 
ATOM     37  C   ASN d   2    1316.916 381.046-1316.374  0.00  0.00     0.243 C 
ATOM     38  CD  PRO d   3    1315.316 379.257-1316.459  0.00  0.00     0.127 C 
ATOM     39  O   ASN d   2    1317.830 381.676-1316.902  0.00  0.00    -0.271 OA
ATOM     40  CG  PRO d   3    1314.858 378.439-1317.668  0.00  0.00     0.022 C 
ATOM     41  CB  PRO d   3    1316.142 378.287-1318.499  0.00  0.00     0.037 C 
BRANCH  37  42
ATOM     42  CA  ASN d   2    1316.384 381.401-1315.005  0.00  0.00     0.185 C 
BRANCH  42  43
ATOM     43  N   ASN d   2    1314.925 381.440-1315.005  0.00  0.00    -0.346 N 
ATOM     44  C   GLU d   1    1314.320 382.226-1315.830  0.00  0.00     0.242 C 
ATOM     45  O   GLU d   1    1314.996 382.925-1316.599  0.00  0.00    -0.271 OA
ATOM     46  H   ASN d   2    1314.397 380.860-1314.369  0.00  0.00     0.163 HD
BRANCH  44  47
ATOM     47  CA  GLU d   1    1312.811 382.266-1315.830  0.00  0.00     0.191 C 
BRANCH  47  48
ATOM     48  N   GLU d   1    1312.252 380.917-1315.830  0.00  0.00    -0.326 NA
ATOM     49  H   GLU d   1    1312.879 380.038-1315.830  0.00  0.00     0.180 HD
ENDBRANCH  47  48
BRANCH  47  50
ATOM     50  CB  GLU d   1    1312.288 383.051-1314.593  0.00  0.00     0.047 C 
BRANCH  50  51
ATOM     51  CG  GLU d   1    1312.763 384.536-1314.482  0.00  0.00     0.116 C 
BRANCH  51  52
ATOM     52  CD  GLU d   1    1312.339 385.340-1313.267  0.00  0.00     0.172 C 
ATOM     53  OE1 GLU d   1    1311.611 384.838-1312.389  0.00  0.00    -0.648 OA
ATOM     54  OE2 GLU d   1    1312.769 386.510-1313.195  0.00  0.00    -0.648 OA
ENDBRANCH  51  52
ENDBRANCH  50  51
ENDBRANCH  47  50
ENDBRANCH  44  47
ENDBRANCH  42  43
BRANCH  42  55
ATOM     55  CB  ASN d   2    1316.876 380.378-1313.941  0.00  0.00     0.137 C 
BRANCH  55  56
ATOM     56  CG  ASN d   2    1316.413 380.602-1312.497  0.00  0.00     0.217 C 
ATOM     57  ND2 ASN d   2    1317.008 381.517-1311.779  0.00  0.00    -0.370 N 
ATOM     58 21HD ASN d   2    1316.527 381.690-1310.893  0.00  0.00     0.159 HD
ATOM     59 22HD ASN d   2    1317.709 382.089-1312.249  0.00  0.00     0.159 HD
ATOM     60  OD1 ASN d   2    1315.493 379.968-1312.003  0.00  0.00    -0.274 OA
ENDBRANCH  55  56
ENDBRANCH  42  55
ENDBRANCH  37  42
ENDBRANCH  32  35
ENDBRANCH  30  31
BRANCH  30  61
ATOM     61  CB  GLU d   4    1313.394 382.514-1320.297  0.00  0.00     0.045 C 
BRANCH  61  62
ATOM     62  CG  GLU d   4    1312.846 383.518-1321.363  0.00  0.00     0.116 C 
BRANCH  62  63
ATOM     63  CD  GLU d   4    1311.420 384.015-1321.219  0.00  0.00     0.172 C 
ATOM     64  OE1 GLU d   4    1310.693 383.616-1320.288  0.00  0.00    -0.648 OA
ATOM     65  OE2 GLU d   4    1311.030 384.844-1322.067  0.00  0.00    -0.648 OA
ENDBRANCH  62  63
ENDBRANCH  61  62
ENDBRANCH  30  61
ENDBRANCH  27  30
ENDBRANCH  25  26
BRANCH  25  66
ATOM     66  CB  SER d   5    1316.990 385.563-1317.755  0.00  0.00     0.199 C 
BRANCH  66  67
ATOM     67  OG  SER d   5    1317.722 384.684-1316.894  0.00  0.00    -0.398 OA
ATOM     68  HG  SER d   5    1317.234 383.859-1316.843  0.00  0.00     0.209 HD
ENDBRANCH  66  67
ENDBRANCH  25  66
ENDBRANCH  22  25
ENDBRANCH  20  21
BRANCH  20  69
ATOM     69  CB  ILE d   6    1320.755 382.012-1319.404  0.00  0.00     0.013 C 
ATOM     70  CG2 ILE d   6    1322.197 381.710-1319.919  0.00  0.00     0.012 C 
BRANCH  69  71
ATOM     71  CG1 ILE d   6    1320.775 381.949-1317.843  0.00  0.00     0.002 C 
ATOM     72  CD1 ILE d   6    1321.045 380.560-1317.228  0.00  0.00     0.005 C 
ENDBRANCH  69  71
ENDBRANCH  20  69
ENDBRANCH  17  20
ENDBRANCH  15  16
BRANCH  15  73
ATOM     73  CB  LEU d   7    1317.894 381.751-1324.024  0.00  0.00     0.038 C 
BRANCH  73  74
ATOM     74  CG  LEU d   7    1317.821 380.272-1323.558  0.00  0.00    -0.020 C 
ATOM     75  CD1 LEU d   7    1316.632 379.566-1324.223  0.00  0.00     0.009 C 
ATOM     76  CD2 LEU d   7    1319.115 379.493-1323.849  0.00  0.00     0.009 C 
ENDBRANCH  73  74
ENDBRANCH  15  73
ENDBRANCH  12  15
ENDBRANCH  10  11
BRANCH  10  77
ATOM     77  CB  GLN d   8    1317.057 386.999-1323.375  0.00  0.00     0.044 C 
BRANCH  77  78
ATOM     78  CG  GLN d   8    1316.805 388.466-1323.855  0.00  0.00     0.105 C 
BRANCH  78  79
ATOM     79  CD  GLN d   8    1315.812 389.344-1323.084  0.00  0.00     0.215 C 
ATOM     80  NE2 GLN d   8    1315.175 388.859-1322.048  0.00  0.00    -0.370 N 
ATOM     81 21HE GLN d   8    1314.583 389.527-1321.553  0.00  0.00     0.159 HD
ATOM     82 22HE GLN d   8    1315.434 387.904-1321.792  0.00  0.00     0.159 HD
ATOM     83  OE1 GLN d   8    1315.617 390.507-1323.404  0.00  0.00    -0.274 OA
ENDBRANCH  78  79
ENDBRANCH  77  78
ENDBRANCH  10  77
ENDBRANCH   7  10
ENDBRANCH   5   6
BRANCH   5  84
ATOM     84  CB  GLU d   9    1322.082 387.279-1321.551  0.00  0.00     0.045 C 
BRANCH  84  85
ATOM     85  CG  GLU d   9    1323.464 387.972-1321.323  0.00  0.00     0.116 C 
BRANCH  85  86
ATOM     86  CD  GLU d   9    1324.167 387.759-1319.995  0.00  0.00     0.172 C 
ATOM     87  OE1 GLU d   9    1323.646 387.067-1319.098  0.00  0.00    -0.648 OA
ATOM     88  OE2 GLU d   9    1325.286 388.297-1319.864  0.00  0.00    -0.648 OA
ENDBRANCH  85  86
ENDBRANCH  84  85
ENDBRANCH   5  84
ENDBRANCH   1   5
BRANCH   3  89
ATOM     89  CA  HIS d  10    1323.349 385.173-1325.243  0.00  0.00     0.182 C 
BRANCH  89  90
ATOM     90  C   HIS d  10    1322.981 385.738-1326.594  0.00  0.00     0.241 C 
ATOM     91  O   HIS d  10    1323.832 386.203-1327.366  0.00  0.00    -0.271 OA
ATOM     92  N   VAL d  11    1321.743 385.736-1326.956  0.00  0.00    -0.346 N 
ATOM     93  H   VAL d  11    1321.031 385.362-1326.344  0.00  0.00     0.163 HD
BRANCH  92  94
ATOM     94  CA  VAL d  11    1321.386 386.281-1328.262  0.00  0.00     0.180 C 
BRANCH  94  95
ATOM     95  C   VAL d  11    1321.849 387.713-1328.395  0.00  0.00     0.241 C 
ATOM     96  O   VAL d  11    1322.448 388.118-1329.399  0.00  0.00    -0.271 OA
ATOM     97  N   GLN d  12    1321.612 388.538-1327.432  0.00  0.00    -0.346 N 
ATOM     98  H   GLN d  12    1321.124 388.232-1326.603  0.00  0.00     0.163 HD
BRANCH  97  99
ATOM     99  CA  GLN d  12    1322.059 389.922-1327.560  0.00  0.00     0.177 C 
BRANCH  99 100
ATOM    100  C   GLN d  12    1323.549 389.990-1327.799  0.00  0.00     0.241 C 
ATOM    101  O   GLN d  12    1324.034 390.699-1328.678  0.00  0.00    -0.271 OA
ATOM    102  N   ARG d  13    1324.335 389.284-1327.059  0.00  0.00    -0.346 N 
ATOM    103  H   ARG d  13    1323.960 388.694-1326.330  0.00  0.00     0.163 HD
BRANCH 102 104
ATOM    104  CA  ARG d  13    1325.775 389.351-1327.291  0.00  0.00     0.176 C 
BRANCH 104 105
ATOM    105  C   ARG d  13    1326.110 388.980-1328.717  0.00  0.00     0.241 C 
ATOM    106  O   ARG d  13    1326.877 389.653-1329.401  0.00  0.00    -0.271 OA
ATOM    107  N   VAL d  14    1325.575 387.925-1329.231  0.00  0.00    -0.346 N 
ATOM    108  H   VAL d  14    1324.941 387.356-1328.688  0.00  0.00     0.163 HD
BRANCH 107 109
ATOM    109  CA  VAL d  14    1325.899 387.566-1330.608  0.00  0.00     0.180 C 
BRANCH 109 110
ATOM    110  C   VAL d  14    1325.567 388.696-1331.554  0.00  0.00     0.241 C 
ATOM    111  O   VAL d  14    1326.359 389.078-1332.424  0.00  0.00    -0.271 OA
ATOM    112  N   MET d  15    1324.421 389.281-1331.451  0.00  0.00    -0.346 N 
ATOM    113  H   MET d  15    1323.757 388.988-1330.749  0.00  0.00     0.163 HD
BRANCH 112 114
ATOM    114  CA  MET d  15    1324.099 390.373-1332.365  0.00  0.00     0.177 C 
BRANCH 114 115
ATOM    115  C   MET d  15    1325.129 391.474-1332.278  0.00  0.00     0.241 C 
ATOM    116  O   MET d  15    1325.631 391.985-1333.291  0.00  0.00    -0.271 OA
ATOM    117  N   ARG d  16    1325.498 391.895-1331.116  0.00  0.00    -0.347 N 
ATOM    118  H   ARG d  16    1325.104 391.495-1330.276  0.00  0.00     0.163 HD
BRANCH 117 119
ATOM    119  CA  ARG d  16    1326.494 392.960-1331.033  0.00  0.00     0.162 C 
BRANCH 119 120
ATOM    120  C   ARG d  16    1327.764 392.568-1331.750  0.00  0.00     0.219 C 
ATOM    121  O   ARG d  16    1327.879 391.492-1332.331  0.00  0.00    -0.287 OA
ENDBRANCH 119 120
BRANCH 119 122
ATOM    122  CB  ARG d  16    1326.764 393.278-1329.534  0.00  0.00     0.035 C 
BRANCH 122 123
ATOM    123  CG  ARG d  16    1327.588 394.568-1329.262  0.00  0.00     0.023 C 
BRANCH 123 124
ATOM    124  CD  ARG d  16    1327.838 394.787-1327.761  0.00  0.00     0.138 C 
BRANCH 124 125
ATOM    125  NE  ARG d  16    1328.614 396.047-1327.560  0.00  0.00    -0.227 N 
ATOM    126  CZ  ARG d  16    1329.005 396.529-1326.385  0.00  0.00     0.665 C 
ATOM    127  NH1 ARG d  16    1328.759 395.944-1325.246  0.00  0.00    -0.235 N 
ATOM    128  NH2 ARG d  16    1329.669 397.642-1326.367  0.00  0.00    -0.235 N 
ATOM    129 11HH ARG d  16    1328.234 395.071-1325.330  0.00  0.00     0.174 HD
ATOM    130 12HH ARG d  16    1329.094 396.380-1324.385  0.00  0.00     0.174 HD
ATOM    131 21HH ARG d  16    1329.853 398.085-1327.269  0.00  0.00     0.174 HD
ATOM    132 22HH ARG d  16    1329.959 397.997-1325.454  0.00  0.00     0.174 HD
ATOM    133  HE  ARG d  16    1328.891 396.628-1328.358  0.00  0.00     0.177 HD
ENDBRANCH 124 125
ENDBRANCH 123 124
ENDBRANCH 122 123
ENDBRANCH 119 122
ENDBRANCH 117 119
ENDBRANCH 114 115
BRANCH 114 134
ATOM    134  CB  MET d  15    1322.678 390.918-1332.055  0.00  0.00     0.045 C 
BRANCH 134 135
ATOM    135  CG  MET d  15    1321.516 389.919-1332.246  0.00  0.00     0.076 C 
BRANCH 135 136
ATOM    136  SD  MET d  15    1319.942 390.784-1332.131  0.00  0.00    -0.173 SA
ATOM    137  CE  MET d  15    1318.862 389.353-1331.994  0.00  0.00     0.089 C 
ENDBRANCH 135 136
ENDBRANCH 134 135
ENDBRANCH 114 134
ENDBRANCH 112 114
ENDBRANCH 109 110
BRANCH 109 138
ATOM    138  CB  VAL d  14    1325.127 386.249-1331.015  0.00  0.00     0.009 C 
ATOM    139  CG1 VAL d  14    1325.216 385.831-1332.509  0.00  0.00     0.012 C 
ATOM    140  CG2 VAL d  14    1325.561 384.997-1330.215  0.00  0.00     0.012 C 
ENDBRANCH 109 138
ENDBRANCH 107 109
ENDBRANCH 104 105
BRANCH 104 141
ATOM    141  CB  ARG d  13    1326.490 388.413-1326.278  0.00  0.00     0.036 C 
BRANCH 141 142
ATOM    142  CG  ARG d  13    1328.035 388.567-1326.198  0.00  0.00     0.023 C 
BRANCH 142 143
ATOM    143  CD  ARG d  13    1328.664 387.580-1325.201  0.00  0.00     0.138 C 
BRANCH 143 144
ATOM    144  NE  ARG d  13    1330.141 387.789-1325.152  0.00  0.00    -0.227 N 
ATOM    145  CZ  ARG d  13    1330.990 387.098-1324.398  0.00  0.00     0.665 C 
ATOM    146  NH1 ARG d  13    1330.627 386.133-1323.600  0.00  0.00    -0.235 N 
ATOM    147  NH2 ARG d  13    1332.249 387.398-1324.456  0.00  0.00    -0.235 N 
ATOM    148 11HH ARG d  13    1329.621 385.946-1323.602  0.00  0.00     0.174 HD
ATOM    149 12HH ARG d  13    1331.341 385.651-1323.052  0.00  0.00     0.174 HD
ATOM    150 21HH ARG d  13    1332.515 388.156-1325.087  0.00  0.00     0.174 HD
ATOM    151 22HH ARG d  13    1332.885 386.857-1323.868  0.00  0.00     0.174 HD
ATOM    152  HE  ARG d  13    1330.590 388.511-1325.723  0.00  0.00     0.177 HD
ENDBRANCH 143 144
ENDBRANCH 142 143
ENDBRANCH 141 142
ENDBRANCH 104 141
ENDBRANCH 102 104
ENDBRANCH  99 100
BRANCH  99 153
ATOM    153  CB  GLN d  12    1321.669 390.689-1326.277  0.00  0.00     0.044 C 
BRANCH 153 154
ATOM    154  CG  GLN d  12    1322.027 392.211-1326.246  0.00  0.00     0.105 C 
BRANCH 154 155
ATOM    155  CD  GLN d  12    1321.726 393.024-1324.981  0.00  0.00     0.215 C 
ATOM    156  NE2 GLN d  12    1321.160 392.447-1323.951  0.00  0.00    -0.370 N 
ATOM    157 21HE GLN d  12    1321.053 393.041-1323.128  0.00  0.00     0.159 HD
ATOM    158 22HE GLN d  12    1320.997 391.443-1324.055  0.00  0.00     0.159 HD
ATOM    159  OE1 GLN d  12    1322.026 394.205-1324.904  0.00  0.00    -0.274 OA
ENDBRANCH 154 155
ENDBRANCH 153 154
ENDBRANCH  99 153
ENDBRANCH  97  99
ENDBRANCH  94  95
BRANCH  94 160
ATOM    160  CB  VAL d  11    1319.825 386.173-1328.480  0.00  0.00     0.009 C 
ATOM    161  CG1 VAL d  11    1319.254 386.877-1329.742  0.00  0.00     0.012 C 
ATOM    162  CG2 VAL d  11    1319.301 384.719-1328.553  0.00  0.00     0.012 C 
ENDBRANCH  94 160
ENDBRANCH  92  94
ENDBRANCH  89  90
BRANCH  89 163
ATOM    163  CB  HIS d  10    1323.186 383.644-1325.238  0.00  0.00     0.095 C 
BRANCH 163 164
ATOM    164  CG  HIS d  10    1324.473 382.935-1324.931  0.00  0.00     0.053 A 
ATOM    165  CD2 HIS d  10    1324.855 382.600-1323.639  0.00  0.00     0.116 A 
ATOM    166  NE2 HIS d  10    1326.070 381.969-1323.707  0.00  0.00    -0.359 N 
ATOM    167  CE1 HIS d  10    1326.332 381.972-1325.042  0.00  0.00     0.207 A 
ATOM    168  2HE HIS d  10    1326.638 381.592-1322.934  0.00  0.00     0.166 HD
ATOM    169  ND1 HIS d  10    1325.424 382.530-1325.865  0.00  0.00    -0.247 NA
ENDBRANCH 163 164
ENDBRANCH  89 163
ENDBRANCH   3  89
TORSDOF 69
