@<TRIPOS>MOLECULE
10-17
260 260 16              
SMALL
USER_CHARGES
@<TRIPOS>ATOM
1	   N	1648.427	491.102	-1679.865	N.3	1	GLU1	-0.516	
2	  CA	1648.986	492.451	-1679.865	C.3	1	GLU1	0.040	
3	   C	1650.495	492.411	-1679.865	C.2	1	GLU1	0.537	
4	   O	1651.171	493.110	-1680.633	O.2	1	GLU1	-0.582	
5	  CB	1648.463	493.236	-1678.628	C.3	1	GLU1	0.056	
6	  CG	1648.938	494.721	-1678.517	C.3	1	GLU1	0.014	
7	  CD	1648.514	495.525	-1677.302	C.2	1	GLU1	0.805	
8	 OE1	1647.786	495.023	-1676.424	O.co2	1	GLU1	-0.819	
9	 OE2	1648.944	496.695	-1677.230	O.co2	1	GLU1	-0.819	
10	   H	1649.054	490.223	-1679.865	 H	1	GLU1	0.294	
11	  HA	1648.660	492.969	-1680.785	 H	1	GLU1	0.111	
12	 2HB	1648.752	492.705	-1677.698	 H	1	GLU1	-0.017	
13	 3HB	1647.356	493.226	-1678.615	 H	1	GLU1	-0.017	
14	 2HG	1648.628	495.306	-1679.398	 H	1	GLU1	-0.043	
15	 3HG	1650.038	494.788	-1678.488	 H	1	GLU1	-0.043	
16	   N	1651.100	491.625	-1679.040	N.am	2	ASN2	-0.416	
17	  CA	1652.559	491.587	-1679.040	C.3	2	ASN2	0.014	
18	   C	1653.090	491.231	-1680.408	C.2	2	ASN2	0.597	
19	   O	1654.005	491.862	-1680.937	O.2	2	ASN2	-0.568	
20	  CB	1653.051	490.564	-1677.975	C.3	2	ASN2	-0.204	
21	  CG	1652.588	490.788	-1676.532	C.2	2	ASN2	0.713	
22	 ND2	1653.182	491.702	-1675.814	N.pl3	2	ASN2	-0.919	
23	 OD1	1651.667	490.154	-1676.038	O.2	2	ASN2	-0.593	
24	   H	1650.571	491.046	-1678.403	 H	2	ASN2	0.272	
25	  HA	1652.936	492.597	-1678.794	 H	2	ASN2	0.105	
26	 2HB	1654.155	490.505	-1677.979	 H	2	ASN2	0.080	
27	 3HB	1652.722	489.546	-1678.261	 H	2	ASN2	0.080	
28	1HD2	1652.702	491.875	-1674.927	 H	2	ASN2	0.420	
29	2HD2	1653.884	492.274	-1676.283	 H	2	ASN2	0.420	
30	   N	1652.569	490.236	-1681.042	N.am	3	PRO3	-0.255	
31	  CA	1653.020	489.827	-1682.364	C.3	3	PRO3	-0.027	
32	   C	1652.622	490.850	-1683.441	C.2	3	PRO3	0.590	
33	   O	1653.445	491.233	-1684.272	O.2	3	PRO3	-0.575	
34	  CB	1652.316	488.472	-1682.533	C.3	3	PRO3	-0.007	
35	  CG	1651.033	488.624	-1681.703	C.3	3	PRO3	0.019	
36	  CD	1651.491	489.443	-1680.493	C.3	3	PRO3	0.019	
37	  HA	1654.106	489.707	-1682.378	 H	3	PRO3	0.064	
38	 2HB	1652.939	487.691	-1682.093	 H	3	PRO3	0.025	
39	 3HB	1652.118	488.223	-1683.579	 H	3	PRO3	0.025	
40	 2HG	1650.605	487.662	-1681.412	 H	3	PRO3	0.021	
41	 3HG	1650.295	489.195	-1682.270	 H	3	PRO3	0.021	
42	 2HD	1651.880	488.793	-1679.706	 H	3	PRO3	0.039	
43	 3HD	1650.694	490.079	-1680.100	 H	3	PRO3	0.039	
44	   N	1651.417	491.310	-1683.473	N.am	4	GLU4	-0.516	
45	  CA	1651.057	492.281	-1684.503	C.3	4	GLU4	0.040	
46	   C	1651.956	493.492	-1684.442	C.2	4	GLU4	0.537	
47	   O	1652.483	493.972	-1685.456	O.2	4	GLU4	-0.582	
48	  CB	1649.569	492.700	-1684.332	C.3	4	GLU4	0.056	
49	  CG	1649.021	493.703	-1685.398	C.3	4	GLU4	0.014	
50	  CD	1647.594	494.200	-1685.254	C.2	4	GLU4	0.805	
51	 OE1	1646.868	493.802	-1684.323	O.co2	4	GLU4	-0.819	
52	 OE2	1647.204	495.029	-1686.102	O.co2	4	GLU4	-0.819	
53	   H	1650.733	491.003	-1682.796	 H	4	GLU4	0.294	
54	  HA	1651.188	491.811	-1685.494	 H	4	GLU4	0.111	
55	 2HB	1649.417	493.140	-1683.325	 H	4	GLU4	-0.017	
56	 3HB	1648.921	491.802	-1684.338	 H	4	GLU4	-0.017	
57	 2HG	1649.102	493.289	-1686.415	 H	4	GLU4	-0.043	
58	 3HG	1649.609	494.636	-1685.409	 H	4	GLU4	-0.043	
59	   N	1652.184	494.045	-1683.298	N.am	5	SER5	-0.416	
60	  CA	1653.053	495.217	-1683.240	C.3	5	SER5	-0.025	
61	   C	1654.412	494.911	-1683.826	C.2	5	SER5	0.597	
62	   O	1654.959	495.665	-1684.631	O.2	5	SER5	-0.568	
63	  CB	1653.165	495.749	-1681.789	C.3	5	SER5	0.212	
64	  OG	1653.897	494.869	-1680.929	O.3	5	SER5	-0.655	
65	   H	1651.767	493.673	-1682.457	 H	5	SER5	0.272	
66	  HA	1652.604	496.007	-1683.869	 H	5	SER5	0.084	
67	 2HB	1652.165	495.942	-1681.356	 H	5	SER5	0.035	
68	 3HB	1653.670	496.734	-1681.792	 H	5	SER5	0.035	
69	  HG	1653.408	494.044	-1680.878	 H	5	SER5	0.428	
70	   N	1655.017	493.828	-1683.472	N.am	6	ILE6	-0.416	
71	  CA	1656.330	493.533	-1684.038	C.3	6	ILE6	-0.060	
72	   C	1656.273	493.496	-1685.546	C.2	6	ILE6	0.597	
73	   O	1657.107	494.084	-1686.250	O.2	6	ILE6	-0.568	
74	  CB	1656.930	492.197	-1683.438	C.3	6	ILE6	0.130	
75	 CG1	1656.949	492.135	-1681.877	C.3	6	ILE6	-0.043	
76	 CG2	1658.371	491.896	-1683.954	C.3	6	ILE6	-0.320	
77	 CD1	1657.219	490.746	-1681.263	C.3	6	ILE6	-0.066	
78	   H	1654.589	493.194	-1682.813	 H	6	ILE6	0.272	
79	  HA	1657.004	494.368	-1683.770	 H	6	ILE6	0.087	
80	  HB	1656.272	491.371	-1683.783	 H	6	ILE6	0.019	
81	2HG1	1655.967	492.455	-1681.482	 H	6	ILE6	0.024	
82	3HG1	1657.665	492.877	-1681.473	 H	6	ILE6	0.024	
83	1HG2	1658.430	491.802	-1685.052	 H	6	ILE6	0.088	
84	2HG2	1659.093	492.678	-1683.652	 H	6	ILE6	0.088	
85	3HG2	1658.761	490.933	-1683.575	 H	6	ILE6	0.088	
86	1HD1	1656.491	489.991	-1681.617	 H	6	ILE6	0.019	
87	2HD1	1658.230	490.367	-1681.499	 H	6	ILE6	0.019	
88	3HD1	1657.143	490.775	-1680.160	 H	6	ILE6	0.019	
89	   N	1655.327	492.833	-1686.120	N.am	7	LEU7	-0.416	
90	  CA	1655.272	492.797	-1687.578	C.3	7	LEU7	-0.052	
91	   C	1655.199	494.192	-1688.150	C.2	7	LEU7	0.597	
92	   O	1655.920	494.555	-1689.092	O.2	7	LEU7	-0.568	
93	  CB	1654.069	491.936	-1688.059	C.3	7	LEU7	-0.110	
94	  CG	1653.996	490.457	-1687.592	C.3	7	LEU7	0.353	
95	 CD1	1652.806	489.751	-1688.258	C.3	7	LEU7	-0.412	
96	 CD2	1655.290	489.678	-1687.884	C.3	7	LEU7	-0.412	
97	   H	1654.635	492.345	-1685.568	 H	7	LEU7	0.272	
98	  HA	1656.214	492.357	-1687.953	 H	7	LEU7	0.092	
99	 2HB	1654.045	491.953	-1689.166	 H	7	LEU7	0.046	
100	 3HB	1653.129	492.439	-1687.754	 H	7	LEU7	0.046	
101	  HG	1653.826	490.449	-1686.495	 H	7	LEU7	-0.036	
102	1HD1	1651.849	490.260	-1688.035	 H	7	LEU7	0.100	
103	2HD1	1652.905	489.711	-1689.359	 H	7	LEU7	0.100	
104	3HD1	1652.699	488.710	-1687.902	 H	7	LEU7	0.100	
105	1HD2	1655.565	489.708	-1688.954	 H	7	LEU7	0.100	
106	2HD2	1656.143	490.089	-1687.313	 H	7	LEU7	0.100	
107	3HD2	1655.208	488.616	-1687.588	 H	7	LEU7	0.100	
108	   N	1654.362	495.033	-1687.644	N.am	8	ASP8	-0.516	
109	  CA	1654.292	496.382	-1688.197	C.3	8	ASP8	0.038	
110	   C	1655.638	497.062	-1688.139	C.2	8	ASP8	0.537	
111	   O	1656.111	497.668	-1689.114	O.2	8	ASP8	-0.582	
112	  CB	1653.213	497.221	-1687.455	C.3	8	ASP8	-0.030	
113	  CG	1652.994	498.642	-1687.995	C.2	8	ASP8	0.799	
114	 OD1	1653.058	498.841	-1689.225	O.co2	8	ASP8	-0.801	
115	 OD2	1652.802	499.568	-1687.179	O.co2	8	ASP8	-0.801	
116	   H	1653.764	494.761	-1686.876	 H	8	ASP8	0.294	
117	  HA	1654.009	496.305	-1689.264	 H	8	ASP8	0.088	
118	 2HB	1653.471	497.304	-1686.383	 H	8	ASP8	-0.012	
119	 3HB	1652.234	496.716	-1687.488	 H	8	ASP8	-0.012	
120	   N	1656.318	497.012	-1687.044	N.am	9	GLU9	-0.516	
121	  CA	1657.620	497.670	-1686.989	C.3	9	GLU9	0.040	
122	   C	1658.539	497.143	-1688.065	C.2	9	GLU9	0.537	
123	   O	1659.202	497.897	-1688.790	O.2	9	GLU9	-0.582	
124	  CB	1658.254	497.462	-1685.583	C.3	9	GLU9	0.056	
125	  CG	1659.637	498.154	-1685.354	C.3	9	GLU9	0.014	
126	  CD	1660.339	497.940	-1684.026	C.2	9	GLU9	0.805	
127	 OE1	1659.817	497.249	-1683.130	O.co2	9	GLU9	-0.819	
128	 OE2	1661.458	498.478	-1683.894	O.co2	9	GLU9	-0.819	
129	   H	1655.955	496.525	-1686.237	 H	9	GLU9	0.294	
130	  HA	1657.478	498.751	-1687.164	 H	9	GLU9	0.111	
131	 2HB	1658.367	496.377	-1685.381	 H	9	GLU9	-0.017	
132	 3HB	1657.557	497.815	-1684.799	 H	9	GLU9	-0.017	
133	 2HG	1659.565	499.245	-1685.493	 H	9	GLU9	-0.043	
134	 3HG	1660.384	497.809	-1686.088	 H	9	GLU9	-0.043	
135	   N	1658.635	495.868	-1688.235	N.am	10	ASP10	-0.516	
136	  CA	1659.523	495.358	-1689.276	C.3	10	ASP10	0.038	
137	   C	1659.156	495.923	-1690.627	C.2	10	ASP10	0.537	
138	   O	1660.008	496.389	-1691.399	O.2	10	ASP10	-0.582	
139	  CB	1659.501	493.803	-1689.300	C.3	10	ASP10	-0.030	
140	  CG	1660.453	493.144	-1690.309	C.2	10	ASP10	0.799	
141	 OD1	1661.573	493.656	-1690.512	O.co2	10	ASP10	-0.801	
142	 OD2	1660.057	492.137	-1690.932	O.co2	10	ASP10	-0.801	
143	   H	1658.105	495.232	-1687.657	 H	10	ASP10	0.294	
144	  HA	1660.552	495.694	-1689.049	 H	10	ASP10	0.088	
145	 2HB	1658.478	493.443	-1689.516	 H	10	ASP10	-0.012	
146	 3HB	1659.757	493.394	-1688.309	 H	10	ASP10	-0.012	
147	   N	1657.917	495.922	-1690.990	N.am	11	VAL11	-0.416	
148	  CA	1657.562	496.469	-1692.296	C.3	11	VAL11	-0.087	
149	   C	1658.026	497.900	-1692.427	C.2	11	VAL11	0.597	
150	   O	1658.627	498.306	-1693.430	O.2	11	VAL11	-0.568	
151	  CB	1656.001	496.362	-1692.515	C.3	11	VAL11	0.299	
152	 CG1	1655.432	497.067	-1693.777	C.3	11	VAL11	-0.319	
153	 CG2	1655.477	494.908	-1692.590	C.3	11	VAL11	-0.319	
154	   H	1657.205	495.548	-1690.379	 H	11	VAL11	0.272	
155	  HA	1658.082	495.887	-1693.079	 H	11	VAL11	0.097	
156	  HB	1655.513	496.841	-1691.639	 H	11	VAL11	-0.030	
157	1HG1	1655.870	496.676	-1694.715	 H	11	VAL11	0.079	
158	2HG1	1654.333	496.959	-1693.859	 H	11	VAL11	0.079	
159	3HG1	1655.610	498.159	-1693.767	 H	11	VAL11	0.079	
160	1HG2	1655.767	494.320	-1691.699	 H	11	VAL11	0.079	
161	2HG2	1654.371	494.870	-1692.632	 H	11	VAL11	0.079	
162	3HG2	1655.859	494.368	-1693.477	 H	11	VAL11	0.079	
163	   N	1657.789	498.725	-1691.464	N.am	12	GLN12	-0.416	
164	  CA	1658.237	500.108	-1691.590	C.3	12	GLN12	-0.003	
165	   C	1659.727	500.176	-1691.829	C.2	12	GLN12	0.597	
166	   O	1660.213	500.885	-1692.707	O.2	12	GLN12	-0.568	
167	  CB	1657.846	500.874	-1690.307	C.3	12	GLN12	-0.004	
168	  CG	1658.206	502.396	-1690.275	C.3	12	GLN12	-0.064	
169	  CD	1657.903	503.209	-1689.009	C.2	12	GLN12	0.695	
170	 NE2	1657.337	502.631	-1687.981	N.pl3	12	GLN12	-0.941	
171	 OE1	1658.205	504.390	-1688.931	O.2	12	GLN12	-0.609	
172	   H	1657.300	498.418	-1690.635	 H	12	GLN12	0.272	
173	  HA	1657.737	500.565	-1692.465	 H	12	GLN12	0.085	
174	 2HB	1658.322	500.374	-1689.438	 H	12	GLN12	0.017	
175	 3HB	1656.756	500.766	-1690.144	 H	12	GLN12	0.017	
176	 2HG	1657.728	502.917	-1691.125	 H	12	GLN12	0.035	
177	 3HG	1659.289	502.539	-1690.441	 H	12	GLN12	0.035	
178	1HE2	1657.229	503.225	-1687.157	 H	12	GLN12	0.425	
179	2HE2	1657.173	501.628	-1688.085	 H	12	GLN12	0.425	
180	   N	1660.512	499.469	-1691.089	N.am	13	ARG13	-0.348	
181	  CA	1661.952	499.536	-1691.320	C.3	13	ARG13	-0.264	
182	   C	1662.288	499.165	-1692.745	C.2	13	ARG13	0.734	
183	   O	1663.056	499.838	-1693.429	O.2	13	ARG13	-0.589	
184	  CB	1662.666	498.596	-1690.307	C.3	13	ARG13	-0.001	
185	  CG	1664.211	498.750	-1690.226	C.3	13	ARG13	0.039	
186	  CD	1664.839	497.761	-1689.230	C.3	13	ARG13	0.049	
187	  NE	1666.316	497.969	-1689.180	N.pl3	13	ARG13	-0.530	
188	  CZ	1667.165	497.277	-1688.425	C.cat	13	ARG13	0.808	
189	 NH1	1666.800	496.312	-1687.629	N.pl3	13	ARG13	-0.863	
190	 NH2	1668.424	497.577	-1688.483	N.pl3	13	ARG13	-0.863	
191	   H	1660.136	498.878	-1690.360	 H	13	ARG13	0.275	
192	  HA	1662.276	500.582	-1691.161	 H	13	ARG13	0.156	
193	 2HB	1662.400	497.546	-1690.547	 H	13	ARG13	0.033	
194	 3HB	1662.241	498.762	-1689.296	 H	13	ARG13	0.033	
195	 2HG	1664.459	499.794	-1689.946	 H	13	ARG13	0.029	
196	 3HG	1664.661	498.595	-1691.228	 H	13	ARG13	0.029	
197	 2HD	1664.595	496.721	-1689.540	 H	13	ARG13	0.069	
198	 3HD	1664.383	497.906	-1688.227	 H	13	ARG13	0.069	
199	  HE	1666.767	498.692	-1689.750	 H	13	ARG13	0.346	
200	1HH1	1665.795	496.125	-1687.632	 H	13	ARG13	0.448	
201	2HH1	1667.514	495.829	-1687.081	 H	13	ARG13	0.448	
202	1HH2	1668.691	498.335	-1689.113	 H	13	ARG13	0.448	
203	2HH2	1669.059	497.035	-1687.895	 H	13	ARG13	0.448	
204	   N	1661.752	498.111	-1693.260	N.am	14	VAL14	-0.416	
205	  CA	1662.076	497.753	-1694.638	C.3	14	VAL14	-0.087	
206	   C	1661.745	498.884	-1695.583	C.2	14	VAL14	0.597	
207	   O	1662.538	499.266	-1696.453	O.2	14	VAL14	-0.568	
208	  CB	1661.304	496.436	-1695.046	C.3	14	VAL14	0.299	
209	 CG1	1661.393	496.019	-1696.540	C.3	14	VAL14	-0.319	
210	 CG2	1661.737	495.183	-1694.247	C.3	14	VAL14	-0.319	
211	   H	1661.117	497.542	-1692.719	 H	14	VAL14	0.272	
212	  HA	1663.164	497.577	-1694.714	 H	14	VAL14	0.097	
213	  HB	1660.228	496.607	-1694.830	 H	14	VAL14	-0.030	
214	1HG1	1662.434	495.843	-1696.870	 H	14	VAL14	0.079	
215	2HG1	1660.820	495.096	-1696.753	 H	14	VAL14	0.079	
216	3HG1	1660.963	496.782	-1697.217	 H	14	VAL14	0.079	
217	1HG2	1661.650	495.341	-1693.156	 H	14	VAL14	0.079	
218	2HG2	1661.101	494.307	-1694.479	 H	14	VAL14	0.079	
219	3HG2	1662.785	494.894	-1694.453	 H	14	VAL14	0.079	
220	   N	1660.600	499.469	-1695.480	N.am	15	MET15	-0.416	
221	  CA	1660.279	500.563	-1696.393	C.3	15	MET15	-0.024	
222	   C	1661.309	501.663	-1696.305	C.2	15	MET15	0.597	
223	   O	1661.811	502.175	-1697.317	O.2	15	MET15	-0.568	
224	  CB	1658.858	501.107	-1696.083	C.3	15	MET15	0.034	
225	  CG	1657.696	500.109	-1696.275	C.3	15	MET15	0.002	
226	  SD	1656.122	500.974	-1696.159	S.3	15	MET15	-0.274	
227	  CE	1655.041	499.544	-1696.023	C.3	15	MET15	-0.054	
228	   H	1659.936	499.176	-1694.779	 H	15	MET15	0.272	
229	  HA	1660.304	500.176	-1697.429	 H	15	MET15	0.088	
230	 2HB	1658.655	501.986	-1696.724	 H	15	MET15	0.024	
231	 3HB	1658.822	501.499	-1695.046	 H	15	MET15	0.024	
232	 2HG	1657.740	499.322	-1695.498	 H	15	MET15	0.044	
233	 3HG	1657.759	499.594	-1697.251	 H	15	MET15	0.044	
234	 1HE	1655.185	498.856	-1696.876	 H	15	MET15	0.068	
235	 2HE	1655.251	498.990	-1695.090	 H	15	MET15	0.068	
236	 3HE	1653.983	499.859	-1696.005	 H	15	MET15	0.068	
237	   N	1661.678	502.083	-1695.142	N.am	16	ARG16	-0.348	
238	  CA	1662.674	503.147	-1695.058	C.3	16	ARG16	-0.264	
239	   C	1663.944	502.755	-1695.775	C.2	16	ARG16	0.734	
240	   O	1664.058	501.679	-1696.358	O.2	16	ARG16	-0.589	
241	  CB	1662.944	503.464	-1693.560	C.3	16	ARG16	-0.001	
242	  CG	1663.769	504.753	-1693.286	C.3	16	ARG16	0.039	
243	  CD	1664.019	504.971	-1691.785	C.3	16	ARG16	0.049	
244	  NE	1664.795	506.230	-1691.583	N.pl3	16	ARG16	-0.530	
245	  CZ	1665.187	506.712	-1690.407	C.cat	16	ARG16	0.808	
246	 NH1	1664.940	506.126	-1689.269	N.pl3	16	ARG16	-0.863	
247	 NH2	1665.850	507.824	-1690.388	N.pl3	16	ARG16	-0.863	
248	   H	1661.284	501.682	-1694.303	 H	16	ARG16	0.275	
249	  HA	1662.265	504.040	-1695.567	 H	16	ARG16	0.156	
250	 2HB	1663.441	502.588	-1693.094	 H	16	ARG16	0.033	
251	 3HB	1661.975	503.544	-1693.025	 H	16	ARG16	0.033	
252	 2HG	1663.238	505.624	-1693.723	 H	16	ARG16	0.029	
253	 3HG	1664.742	504.701	-1693.816	 H	16	ARG16	0.029	
254	 2HD	1664.568	504.096	-1691.373	 H	16	ARG16	0.069	
255	 3HD	1663.046	505.013	-1691.249	 H	16	ARG16	0.069	
256	  HE	1665.073	506.812	-1692.380	 H	16	ARG16	0.346	
257	1HH1	1664.414	505.253	-1689.354	 H	16	ARG16	0.448	
258	2HH1	1665.274	506.561	-1688.408	 H	16	ARG16	0.448	
259	1HH2	1666.035	508.268	-1691.290	 H	16	ARG16	0.448	
260	2HH2	1666.141	508.179	-1689.476	 H	16	ARG16	0.448	
@<TRIPOS>BOND
1 1 2 1
2 1 10 1
3 2 3 1
4 2 5 1
5 2 11 1
6 3 4 2
7 3 16 1
8 5 6 1
9 6 7 1
10 7 8 2
11 7 9 1
12 5 12 1
13 5 13 1
14 6 14 1
15 6 15 1
16 16 17 1
17 16 24 1
18 17 18 1
19 17 20 1
20 17 25 1
21 18 19 2
22 18 30 1
23 20 21 1
24 21 22 1
25 21 23 2
26 20 26 1
27 20 27 1
28 22 28 1
29 22 29 1
30 30 31 1
31 30 36 1
32 31 32 1
33 31 34 1
34 31 37 1
35 32 33 2
36 32 44 1
37 34 35 1
38 35 36 1
39 34 38 1
40 34 39 1
41 35 40 1
42 35 41 1
43 36 42 1
44 36 43 1
45 44 45 1
46 44 53 1
47 45 46 1
48 45 48 1
49 45 54 1
50 46 47 2
51 46 59 1
52 48 49 1
53 49 50 1
54 50 51 2
55 50 52 1
56 48 55 1
57 48 56 1
58 49 57 1
59 49 58 1
60 59 60 1
61 59 65 1
62 60 61 1
63 60 63 1
64 60 66 1
65 61 62 2
66 61 70 1
67 63 64 1
68 63 67 1
69 63 68 1
70 64 69 1
71 70 71 1
72 70 78 1
73 71 72 1
74 71 74 1
75 71 79 1
76 72 73 2
77 72 89 1
78 74 75 1
79 74 76 1
80 75 77 1
81 74 80 1
82 75 81 1
83 75 82 1
84 76 83 1
85 76 84 1
86 76 85 1
87 77 86 1
88 77 87 1
89 77 88 1
90 89 90 1
91 89 97 1
92 90 91 1
93 90 93 1
94 90 98 1
95 91 92 2
96 91 108 1
97 93 94 1
98 94 95 1
99 94 96 1
100 93 99 1
101 93 100 1
102 94 101 1
103 95 102 1
104 95 103 1
105 95 104 1
106 96 105 1
107 96 106 1
108 96 107 1
109 108 109 1
110 108 116 1
111 109 110 1
112 109 112 1
113 109 117 1
114 110 111 2
115 110 120 1
116 112 113 1
117 113 114 2
118 113 115 1
119 112 118 1
120 112 119 1
121 120 121 1
122 120 129 1
123 121 122 1
124 121 124 1
125 121 130 1
126 122 123 2
127 122 135 1
128 124 125 1
129 125 126 1
130 126 127 2
131 126 128 1
132 124 131 1
133 124 132 1
134 125 133 1
135 125 134 1
136 135 136 1
137 135 143 1
138 136 137 1
139 136 139 1
140 136 144 1
141 137 138 2
142 137 147 1
143 139 140 1
144 140 141 2
145 140 142 1
146 139 145 1
147 139 146 1
148 147 148 1
149 147 154 1
150 148 149 1
151 148 151 1
152 148 155 1
153 149 150 2
154 149 163 1
155 151 152 1
156 151 153 1
157 151 156 1
158 152 157 1
159 152 158 1
160 152 159 1
161 153 160 1
162 153 161 1
163 153 162 1
164 163 164 1
165 163 172 1
166 164 165 1
167 164 167 1
168 164 173 1
169 165 166 2
170 165 180 1
171 167 168 1
172 168 169 1
173 169 170 1
174 169 171 2
175 167 174 1
176 167 175 1
177 168 176 1
178 168 177 1
179 170 178 1
180 170 179 1
181 180 181 1
182 180 191 1
183 181 182 1
184 181 184 1
185 181 192 1
186 182 183 2
187 182 204 1
188 184 185 1
189 185 186 1
190 186 187 1
191 187 188 1
192 188 189 2
193 188 190 1
194 184 193 1
195 184 194 1
196 185 195 1
197 185 196 1
198 186 197 1
199 186 198 1
200 187 199 1
201 189 200 1
202 189 201 1
203 190 202 1
204 190 203 1
205 204 205 1
206 204 211 1
207 205 206 1
208 205 208 1
209 205 212 1
210 206 207 2
211 206 220 1
212 208 209 1
213 208 210 1
214 208 213 1
215 209 214 1
216 209 215 1
217 209 216 1
218 210 217 1
219 210 218 1
220 210 219 1
221 220 221 1
222 220 228 1
223 221 222 1
224 221 224 1
225 221 229 1
226 222 223 2
227 222 237 1
228 224 225 1
229 225 226 1
230 226 227 1
231 224 230 1
232 224 231 1
233 225 232 1
234 225 233 1
235 227 234 1
236 227 235 1
237 227 236 1
238 237 238 1
239 237 248 1
240 238 239 1
241 238 241 1
242 238 249 1
243 239 240 2
244 241 242 1
245 242 243 1
246 243 244 1
247 244 245 1
248 245 246 2
249 245 247 1
250 241 250 1
251 241 251 1
252 242 252 1
253 242 253 1
254 243 254 1
255 243 255 1
256 244 256 1
257 246 257 1
258 246 258 1
259 247 259 1
260 247 260 1
@<TRIPOS>SUBSTRUCTURE
1	GLU1	1	RESIDUE	1 ****	GLU
2	ASN2	16	RESIDUE	1 ****	ASN
3	PRO3	30	RESIDUE	1 ****	PRO
4	GLU4	44	RESIDUE	1 ****	GLU
5	SER5	59	RESIDUE	1 ****	SER
6	ILE6	70	RESIDUE	1 ****	ILE
7	LEU7	89	RESIDUE	1 ****	LEU
8	ASP8	108	RESIDUE	1 ****	ASP
9	GLU9	120	RESIDUE	1 ****	GLU
10	ASP10	135	RESIDUE	1 ****	ASP
11	VAL11	147	RESIDUE	1 ****	VAL
12	GLN12	163	RESIDUE	1 ****	GLN
13	ARG13	180	RESIDUE	1 ****	ARG
14	VAL14	204	RESIDUE	1 ****	VAL
15	MET15	220	RESIDUE	1 ****	MET
16	ARG16	237	RESIDUE	1 ****	ARG
