REMARK WARNING: 32 MAX_TORS EXCEEDED!!!
REMARK  65 active torsions:
REMARK  status: ('A' for Active; 'I' for Inactive)
REMARK    1  A    between atoms: N_1  and  CA_2 
REMARK    2  A    between atoms: CA_2  and  C_3 
REMARK    3  A    between atoms: CA_2  and  CB_5 
REMARK       I    between atoms: C_3  and  N_11 
REMARK    4  A    between atoms: CB_5  and  CG_6 
REMARK    5  A    between atoms: CG_6  and  CD_7 
REMARK    6  A    between atoms: N_11  and  CA_12 
REMARK    7  A    between atoms: CA_12  and  C_13 
REMARK    8  A    between atoms: CA_12  and  CB_15 
REMARK       I    between atoms: C_13  and  N_22 
REMARK    9  A    between atoms: CB_15  and  CG_16 
REMARK       I    between atoms: CG_16  and  ND2_17 
REMARK   10  A    between atoms: CA_23  and  C_24 
REMARK       I    between atoms: C_24  and  N_29 
REMARK   11  A    between atoms: N_29  and  CA_30 
REMARK   12  A    between atoms: CA_30  and  C_31 
REMARK   13  A    between atoms: CA_30  and  CB_33 
REMARK       I    between atoms: C_31  and  N_39 
REMARK   14  A    between atoms: CB_33  and  CG_34 
REMARK   15  A    between atoms: CG_34  and  CD_35 
REMARK   16  A    between atoms: N_39  and  CA_40 
REMARK   17  A    between atoms: CA_40  and  C_41 
REMARK   18  A    between atoms: CA_40  and  CB_43 
REMARK       I    between atoms: C_41  and  N_47 
REMARK   19  A    between atoms: CB_43  and  OG_44 
REMARK   20  A    between atoms: N_47  and  CA_48 
REMARK   21  A    between atoms: CA_48  and  C_49 
REMARK   22  A    between atoms: CA_48  and  CB_51 
REMARK       I    between atoms: C_49  and  N_56 
REMARK   23  A    between atoms: CB_51  and  CG1_52 
REMARK   24  A    between atoms: N_56  and  CA_57 
REMARK   25  A    between atoms: CA_57  and  C_58 
REMARK   26  A    between atoms: CA_57  and  CB_60 
REMARK       I    between atoms: C_58  and  N_65 
REMARK   27  A    between atoms: CB_60  and  CG_61 
REMARK   28  A    between atoms: N_65  and  CA_66 
REMARK   29  A    between atoms: CA_66  and  C_67 
REMARK   30  A    between atoms: CA_66  and  CB_69 
REMARK       I    between atoms: C_67  and  N_74 
REMARK   31  A    between atoms: CB_69  and  CG_70 
REMARK   32  A    between atoms: N_74  and  CA_75 
REMARK   33  A    between atoms: CA_75  and  C_76 
REMARK   34  A    between atoms: CA_75  and  CB_78 
REMARK       I    between atoms: C_76  and  N_84 
REMARK   35  A    between atoms: CB_78  and  CG_79 
REMARK   36  A    between atoms: CG_79  and  CD_80 
REMARK   37  A    between atoms: N_84  and  CA_85 
REMARK   38  A    between atoms: CA_85  and  C_86 
REMARK   39  A    between atoms: CA_85  and  CB_88 
REMARK       I    between atoms: C_86  and  N_96 
REMARK   40  A    between atoms: CB_88  and  CG_89 
REMARK   41  A    between atoms: N_96  and  CA_97 
REMARK   42  A    between atoms: CA_97  and  C_98 
REMARK   43  A    between atoms: CA_97  and  CB_100 
REMARK       I    between atoms: C_98  and  N_104 
REMARK   44  A    between atoms: N_104  and  CA_105 
REMARK   45  A    between atoms: CA_105  and  C_106 
REMARK       I    between atoms: C_106  and  N_110 
REMARK   46  A    between atoms: N_110  and  CA_111 
REMARK   47  A    between atoms: CA_111  and  C_112 
REMARK   48  A    between atoms: CA_111  and  CB_114 
REMARK       I    between atoms: C_112  and  N_127 
REMARK   49  A    between atoms: CB_114  and  CG_115 
REMARK   50  A    between atoms: CG_115  and  CD_116 
REMARK   51  A    between atoms: CD_116  and  NE_117 
REMARK       I    between atoms: NE_117  and  CZ_118 
REMARK       I    between atoms: CZ_118  and  NH1_119 
REMARK       I    between atoms: CZ_118  and  NH2_120 
REMARK   52  A    between atoms: N_127  and  CA_128 
REMARK   53  A    between atoms: CA_128  and  C_129 
REMARK   54  A    between atoms: CA_128  and  CB_131 
REMARK       I    between atoms: C_129  and  N_135 
REMARK   55  A    between atoms: N_135  and  CA_136 
REMARK   56  A    between atoms: CA_136  and  C_137 
REMARK   57  A    between atoms: CA_136  and  CB_139 
REMARK       I    between atoms: C_137  and  N_144 
REMARK   58  A    between atoms: CB_139  and  CG_140 
REMARK   59  A    between atoms: CG_140  and  SD_141 
REMARK   60  A    between atoms: N_144  and  CA_145 
REMARK   61  A    between atoms: CA_145  and  C_146 
REMARK   62  A    between atoms: CA_145  and  CB_148 
REMARK   63  A    between atoms: CB_148  and  CG_149 
REMARK   64  A    between atoms: CG_149  and  CD_150 
REMARK   65  A    between atoms: CD_150  and  NE_151 
REMARK       I    between atoms: NE_151  and  CZ_152 
REMARK       I    between atoms: CZ_152  and  NH1_153 
ROOT
ATOM      1  CA  GLU d   9    1854.802 561.630-1900.959  0.00  0.00     0.177 C 
ENDROOT
BRANCH   1   2
ATOM      2  N   GLU d   9    1853.499 560.972-1901.014  0.00  0.00    -0.346 N 
ATOM      3  C   ASP d   8    1852.820 561.022-1902.110  0.00  0.00     0.241 C 
ATOM      4  O   ASP d   8    1853.292 561.627-1903.084  0.00  0.00    -0.271 OA
ATOM      5  H   GLU d   9    1853.136 560.485-1900.208  0.00  0.00     0.163 HD
BRANCH   3   6
ATOM      6  CA  ASP d   8    1851.473 560.342-1902.167  0.00  0.00     0.186 C 
BRANCH   6   7
ATOM      7  N   ASP d   8    1851.544 558.992-1901.614  0.00  0.00    -0.346 N 
ATOM      8  C   LEU d   7    1852.381 558.152-1902.120  0.00  0.00     0.241 C 
ATOM      9  O   LEU d   7    1853.102 558.515-1903.062  0.00  0.00    -0.271 OA
ATOM     10  H   ASP d   8    1850.946 558.721-1900.846  0.00  0.00     0.163 HD
BRANCH   8  11
ATOM     11  CA  LEU d   7    1852.454 556.757-1901.548  0.00  0.00     0.177 C 
BRANCH  11  12
ATOM     12  N   LEU d   7    1852.509 556.793-1900.089  0.00  0.00    -0.346 N 
ATOM     13  C   ILE d   6    1853.454 557.456-1899.515  0.00  0.00     0.241 C 
ATOM     14  O   ILE d   6    1854.289 558.044-1900.219  0.00  0.00    -0.271 OA
ATOM     15  H   LEU d   7    1851.817 556.305-1899.538  0.00  0.00     0.163 HD
BRANCH  13  16
ATOM     16  CA  ILE d   6    1853.512 557.494-1898.008  0.00  0.00     0.180 C 
BRANCH  16  17
ATOM     17  N   ILE d   6    1852.199 557.789-1897.441  0.00  0.00    -0.346 N 
ATOM     18  C   SER d   5    1851.594 558.872-1897.796  0.00  0.00     0.243 C 
ATOM     19  O   SER d   5    1852.141 559.625-1898.601  0.00  0.00    -0.271 OA
ATOM     20  H   ILE d   6    1851.770 557.154-1896.782  0.00  0.00     0.163 HD
BRANCH  18  21
ATOM     21  CA  SER d   5    1850.235 559.177-1897.210  0.00  0.00     0.200 C 
BRANCH  21  22
ATOM     22  N   SER d   5    1849.365 558.006-1897.268  0.00  0.00    -0.344 N 
ATOM     23  C   GLU d   4    1849.138 557.453-1898.412  0.00  0.00     0.241 C 
ATOM     24  O   GLU d   4    1849.664 557.933-1899.426  0.00  0.00    -0.271 OA
ATOM     25  H   SER d   5    1848.948 557.634-1896.427  0.00  0.00     0.163 HD
BRANCH  23  26
ATOM     26  CA  GLU d   4    1848.239 556.242-1898.473  0.00  0.00     0.177 C 
BRANCH  26  27
ATOM     27  N   GLU d   4    1848.599 555.271-1897.443  0.00  0.00    -0.346 N 
ATOM     28  C   PRO d   3    1849.803 554.811-1897.411  0.00  0.00     0.241 C 
ATOM     29  O   PRO d   3    1850.627 555.194-1898.242  0.00  0.00    -0.271 OA
ATOM     30  H   GLU d   4    1847.914 554.964-1896.766  0.00  0.00     0.163 HD
BRANCH  28  31
ATOM     31  CA  PRO d   3    1850.201 553.788-1896.334  0.00  0.00     0.179 C 
ATOM     32  N   PRO d   3    1849.750 554.197-1895.012  0.00  0.00    -0.337 N 
ATOM     33  C   ASN d   2    1850.271 555.192-1894.378  0.00  0.00     0.243 C 
ATOM     34  CD  PRO d   3    1848.672 553.404-1894.463  0.00  0.00     0.127 C 
ATOM     35  O   ASN d   2    1851.186 555.822-1894.907  0.00  0.00    -0.271 OA
ATOM     36  CG  PRO d   3    1848.214 552.585-1895.673  0.00  0.00     0.022 C 
ATOM     37  CB  PRO d   3    1849.497 552.433-1896.503  0.00  0.00     0.037 C 
BRANCH  33  38
ATOM     38  CA  ASN d   2    1849.740 555.547-1893.010  0.00  0.00     0.185 C 
BRANCH  38  39
ATOM     39  N   ASN d   2    1848.281 555.586-1893.010  0.00  0.00    -0.346 N 
ATOM     40  C   GLU d   1    1847.676 556.372-1893.835  0.00  0.00     0.242 C 
ATOM     41  O   GLU d   1    1848.352 557.071-1894.604  0.00  0.00    -0.271 OA
ATOM     42  H   ASN d   2    1847.753 555.007-1892.373  0.00  0.00     0.163 HD
BRANCH  40  43
ATOM     43  CA  GLU d   1    1846.167 556.412-1893.835  0.00  0.00     0.191 C 
BRANCH  43  44
ATOM     44  N   GLU d   1    1845.608 555.063-1893.835  0.00  0.00    -0.326 NA
ATOM     45  H   GLU d   1    1846.235 554.184-1893.835  0.00  0.00     0.180 HD
ENDBRANCH  43  44
BRANCH  43  46
ATOM     46  CB  GLU d   1    1845.644 557.197-1892.598  0.00  0.00     0.047 C 
BRANCH  46  47
ATOM     47  CG  GLU d   1    1846.119 558.682-1892.487  0.00  0.00     0.116 C 
BRANCH  47  48
ATOM     48  CD  GLU d   1    1845.695 559.486-1891.272  0.00  0.00     0.172 C 
ATOM     49  OE1 GLU d   1    1844.967 558.984-1890.394  0.00  0.00    -0.648 OA
ATOM     50  OE2 GLU d   1    1846.125 560.656-1891.200  0.00  0.00    -0.648 OA
ENDBRANCH  47  48
ENDBRANCH  46  47
ENDBRANCH  43  46
ENDBRANCH  40  43
ENDBRANCH  38  39
BRANCH  38  51
ATOM     51  CB  ASN d   2    1850.232 554.524-1891.945  0.00  0.00     0.137 C 
BRANCH  51  52
ATOM     52  CG  ASN d   2    1849.769 554.748-1890.502  0.00  0.00     0.217 C 
ATOM     53  ND2 ASN d   2    1850.363 555.663-1889.784  0.00  0.00    -0.370 N 
ATOM     54 21HD ASN d   2    1849.882 555.836-1888.897  0.00  0.00     0.159 HD
ATOM     55 22HD ASN d   2    1851.065 556.235-1890.253  0.00  0.00     0.159 HD
ATOM     56  OD1 ASN d   2    1848.848 554.115-1890.008  0.00  0.00    -0.274 OA
ENDBRANCH  51  52
ENDBRANCH  38  51
ENDBRANCH  33  38
ENDBRANCH  28  31
ENDBRANCH  26  27
BRANCH  26  57
ATOM     57  CB  GLU d   4    1846.750 556.661-1898.302  0.00  0.00     0.045 C 
BRANCH  57  58
ATOM     58  CG  GLU d   4    1846.203 557.664-1899.368  0.00  0.00     0.116 C 
BRANCH  58  59
ATOM     59  CD  GLU d   4    1844.776 558.161-1899.224  0.00  0.00     0.172 C 
ATOM     60  OE1 GLU d   4    1844.050 557.763-1898.294  0.00  0.00    -0.648 OA
ATOM     61  OE2 GLU d   4    1844.386 558.991-1900.073  0.00  0.00    -0.648 OA
ENDBRANCH  58  59
ENDBRANCH  57  58
ENDBRANCH  26  57
ENDBRANCH  23  26
ENDBRANCH  21  22
BRANCH  21  62
ATOM     62  CB  SER d   5    1850.346 559.709-1895.760  0.00  0.00     0.199 C 
BRANCH  62  63
ATOM     63  OG  SER d   5    1851.078 558.830-1894.898  0.00  0.00    -0.398 OA
ATOM     64  HG  SER d   5    1850.589 558.005-1894.848  0.00  0.00     0.209 HD
ENDBRANCH  62  63
ENDBRANCH  21  62
ENDBRANCH  18  21
ENDBRANCH  16  17
BRANCH  16  65
ATOM     65  CB  ILE d   6    1854.112 556.158-1897.408  0.00  0.00     0.013 C 
ATOM     66  CG2 ILE d   6    1855.553 555.856-1897.923  0.00  0.00     0.012 C 
BRANCH  65  67
ATOM     67  CG1 ILE d   6    1854.131 556.096-1895.847  0.00  0.00     0.002 C 
ATOM     68  CD1 ILE d   6    1854.401 554.706-1895.232  0.00  0.00     0.005 C 
ENDBRANCH  65  67
ENDBRANCH  16  65
ENDBRANCH  13  16
ENDBRANCH  11  12
BRANCH  11  69
ATOM     69  CB  LEU d   7    1851.251 555.896-1902.028  0.00  0.00     0.038 C 
BRANCH  69  70
ATOM     70  CG  LEU d   7    1851.178 554.417-1901.562  0.00  0.00    -0.020 C 
ATOM     71  CD1 LEU d   7    1849.989 553.711-1902.227  0.00  0.00     0.009 C 
ATOM     72  CD2 LEU d   7    1852.472 553.638-1901.853  0.00  0.00     0.009 C 
ENDBRANCH  69  70
ENDBRANCH  11  69
ENDBRANCH   8  11
ENDBRANCH   6   7
BRANCH   6  73
ATOM     73  CB  ASP d   8    1850.395 561.180-1901.425  0.00  0.00     0.147 C 
BRANCH  73  74
ATOM     74  CG  ASP d   8    1850.176 562.601-1901.965  0.00  0.00     0.175 C 
ATOM     75  OD1 ASP d   8    1850.240 562.801-1903.196  0.00  0.00    -0.648 OA
ATOM     76  OD2 ASP d   8    1849.983 563.527-1901.150  0.00  0.00    -0.648 OA
ENDBRANCH  73  74
ENDBRANCH   6  73
ENDBRANCH   3   6
ENDBRANCH   1   2
BRANCH   1  77
ATOM     77  C   GLU d   9    1855.720 561.103-1902.035  0.00  0.00     0.241 C 
ATOM     78  O   GLU d   9    1856.384 561.858-1902.760  0.00  0.00    -0.271 OA
ATOM     79  N   HIS d  10    1855.817 559.828-1902.204  0.00  0.00    -0.346 N 
ATOM     80  H   HIS d  10    1855.286 559.192-1901.626  0.00  0.00     0.163 HD
BRANCH  79  81
ATOM     81  CA  HIS d  10    1856.705 559.317-1903.245  0.00  0.00     0.182 C 
BRANCH  81  82
ATOM     82  C   HIS d  10    1856.339 559.882-1904.596  0.00  0.00     0.241 C 
ATOM     83  O   HIS d  10    1857.191 560.347-1905.367  0.00  0.00    -0.271 OA
ATOM     84  N   VAL d  11    1855.101 559.881-1904.959  0.00  0.00    -0.346 N 
ATOM     85  H   VAL d  11    1854.388 559.507-1904.349  0.00  0.00     0.163 HD
BRANCH  84  86
ATOM     86  CA  VAL d  11    1854.746 560.427-1906.266  0.00  0.00     0.180 C 
BRANCH  86  87
ATOM     87  C   VAL d  11    1855.210 561.858-1906.398  0.00  0.00     0.241 C 
ATOM     88  O   VAL d  11    1855.811 562.263-1907.401  0.00  0.00    -0.271 OA
ATOM     89  N   ALA d  12    1854.972 562.683-1905.435  0.00  0.00    -0.346 N 
ATOM     90  H   ALA d  12    1854.483 562.377-1904.606  0.00  0.00     0.163 HD
BRANCH  89  91
ATOM     91  CA  ALA d  12    1855.421 564.066-1905.563  0.00  0.00     0.172 C 
ATOM     92  CB  ALA d  12    1854.986 564.817-1904.292  0.00  0.00     0.042 C 
BRANCH  91  93
ATOM     93  C   ALA d  12    1856.910 564.132-1905.800  0.00  0.00     0.240 C 
ATOM     94  O   ALA d  12    1857.403 564.843-1906.684  0.00  0.00    -0.271 OA
ATOM     95  N   ARG d  13    1857.693 563.424-1905.058  0.00  0.00    -0.346 N 
ATOM     96  H   ARG d  13    1857.316 562.835-1904.330  0.00  0.00     0.163 HD
BRANCH  95  97
ATOM     97  CA  ARG d  13    1859.134 563.487-1905.288  0.00  0.00     0.176 C 
BRANCH  97  98
ATOM     98  C   ARG d  13    1859.470 563.115-1906.713  0.00  0.00     0.241 C 
ATOM     99  O   ARG d  13    1860.240 563.785-1907.397  0.00  0.00    -0.271 OA
ATOM    100  N   VAL d  14    1858.933 562.061-1907.228  0.00  0.00    -0.346 N 
ATOM    101  H   VAL d  14    1858.297 561.493-1906.686  0.00  0.00     0.163 HD
BRANCH 100 102
ATOM    102  CA  VAL d  14    1859.258 561.701-1908.604  0.00  0.00     0.180 C 
BRANCH 102 103
ATOM    103  C   VAL d  14    1858.931 562.831-1909.551  0.00  0.00     0.241 C 
ATOM    104  O   VAL d  14    1859.725 563.210-1910.420  0.00  0.00    -0.271 OA
ATOM    105  N   MET d  15    1857.787 563.419-1909.450  0.00  0.00    -0.346 N 
ATOM    106  H   MET d  15    1857.121 563.127-1908.749  0.00  0.00     0.163 HD
BRANCH 105 107
ATOM    107  CA  MET d  15    1857.469 564.511-1910.364  0.00  0.00     0.177 C 
BRANCH 107 108
ATOM    108  C   MET d  15    1858.501 565.610-1910.276  0.00  0.00     0.241 C 
ATOM    109  O   MET d  15    1859.005 566.119-1911.289  0.00  0.00    -0.271 OA
ATOM    110  N   ARG d  16    1858.870 566.031-1909.114  0.00  0.00    -0.347 N 
ATOM    111  H   ARG d  16    1858.474 565.632-1908.275  0.00  0.00     0.163 HD
BRANCH 110 112
ATOM    112  CA  ARG d  16    1859.868 567.093-1909.031  0.00  0.00     0.162 C 
BRANCH 112 113
ATOM    113  C   ARG d  16    1861.138 566.698-1909.746  0.00  0.00     0.219 C 
ATOM    114  O   ARG d  16    1861.251 565.621-1910.327  0.00  0.00    -0.287 OA
ENDBRANCH 112 113
BRANCH 112 115
ATOM    115  CB  ARG d  16    1860.137 567.411-1907.532  0.00  0.00     0.035 C 
BRANCH 115 116
ATOM    116  CG  ARG d  16    1860.964 568.699-1907.260  0.00  0.00     0.023 C 
BRANCH 116 117
ATOM    117  CD  ARG d  16    1861.213 568.919-1905.759  0.00  0.00     0.138 C 
BRANCH 117 118
ATOM    118  NE  ARG d  16    1861.992 570.176-1905.558  0.00  0.00    -0.227 N 
ATOM    119  CZ  ARG d  16    1862.383 570.659-1904.382  0.00  0.00     0.665 C 
ATOM    120  NH1 ARG d  16    1862.134 570.075-1903.244  0.00  0.00    -0.235 N 
ATOM    121  NH2 ARG d  16    1863.049 571.770-1904.364  0.00  0.00    -0.235 N 
ATOM    122 11HH ARG d  16    1861.607 569.203-1903.328  0.00  0.00     0.174 HD
ATOM    123 12HH ARG d  16    1862.469 570.511-1902.383  0.00  0.00     0.174 HD
ATOM    124 21HH ARG d  16    1863.236 572.212-1905.266  0.00  0.00     0.174 HD
ATOM    125 22HH ARG d  16    1863.339 572.125-1903.452  0.00  0.00     0.174 HD
ATOM    126  HE  ARG d  16    1862.272 570.756-1906.355  0.00  0.00     0.177 HD
ENDBRANCH 117 118
ENDBRANCH 116 117
ENDBRANCH 115 116
ENDBRANCH 112 115
ENDBRANCH 110 112
ENDBRANCH 107 108
BRANCH 107 127
ATOM    127  CB  MET d  15    1856.048 565.060-1910.057  0.00  0.00     0.045 C 
BRANCH 127 128
ATOM    128  CG  MET d  15    1854.885 564.063-1910.249  0.00  0.00     0.076 C 
BRANCH 128 129
ATOM    129  SD  MET d  15    1853.312 564.932-1910.136  0.00  0.00    -0.173 SA
ATOM    130  CE  MET d  15    1852.228 563.505-1909.999  0.00  0.00     0.089 C 
ENDBRANCH 128 129
ENDBRANCH 127 128
ENDBRANCH 107 127
ENDBRANCH 105 107
ENDBRANCH 102 103
BRANCH 102 131
ATOM    131  CB  VAL d  14    1858.484 560.385-1909.012  0.00  0.00     0.009 C 
ATOM    132  CG1 VAL d  14    1858.573 559.966-1910.505  0.00  0.00     0.012 C 
ATOM    133  CG2 VAL d  14    1858.913 559.132-1908.210  0.00  0.00     0.012 C 
ENDBRANCH 102 131
ENDBRANCH 100 102
ENDBRANCH  97  98
BRANCH  97 134
ATOM    134  CB  ARG d  13    1859.845 562.548-1904.274  0.00  0.00     0.036 C 
BRANCH 134 135
ATOM    135  CG  ARG d  13    1861.390 562.698-1904.192  0.00  0.00     0.023 C 
BRANCH 135 136
ATOM    136  CD  ARG d  13    1862.015 561.710-1903.193  0.00  0.00     0.138 C 
BRANCH 136 137
ATOM    137  NE  ARG d  13    1863.492 561.915-1903.142  0.00  0.00    -0.227 N 
ATOM    138  CZ  ARG d  13    1864.339 561.222-1902.386  0.00  0.00     0.665 C 
ATOM    139  NH1 ARG d  13    1863.972 560.259-1901.588  0.00  0.00    -0.235 N 
ATOM    140  NH2 ARG d  13    1865.599 561.519-1902.442  0.00  0.00    -0.235 N 
ATOM    141 11HH ARG d  13    1862.966 560.074-1901.592  0.00  0.00     0.174 HD
ATOM    142 12HH ARG d  13    1864.684 559.775-1901.039  0.00  0.00     0.174 HD
ATOM    143 21HH ARG d  13    1865.868 562.276-1903.073  0.00  0.00     0.174 HD
ATOM    144 22HH ARG d  13    1866.233 560.977-1901.853  0.00  0.00     0.174 HD
ATOM    145  HE  ARG d  13    1863.945 562.636-1903.713  0.00  0.00     0.177 HD
ENDBRANCH 136 137
ENDBRANCH 135 136
ENDBRANCH 134 135
ENDBRANCH  97 134
ENDBRANCH  95  97
ENDBRANCH  91  93
ENDBRANCH  89  91
ENDBRANCH  86  87
BRANCH  86 146
ATOM    146  CB  VAL d  11    1853.185 560.320-1906.486  0.00  0.00     0.009 C 
ATOM    147  CG1 VAL d  11    1852.616 561.024-1907.748  0.00  0.00     0.012 C 
ATOM    148  CG2 VAL d  11    1852.661 558.865-1906.559  0.00  0.00     0.012 C 
ENDBRANCH  86 146
ENDBRANCH  84  86
ENDBRANCH  81  82
BRANCH  81 149
ATOM    149  CB  HIS d  10    1856.542 557.788-1903.240  0.00  0.00     0.095 C 
BRANCH 149 150
ATOM    150  CG  HIS d  10    1857.828 557.078-1902.932  0.00  0.00     0.053 A 
ATOM    151  CD2 HIS d  10    1858.208 556.743-1901.640  0.00  0.00     0.116 A 
ATOM    152  NE2 HIS d  10    1859.423 556.111-1901.706  0.00  0.00    -0.359 N 
ATOM    153  CE1 HIS d  10    1859.686 556.114-1903.042  0.00  0.00     0.207 A 
ATOM    154  2HE HIS d  10    1859.990 555.734-1900.933  0.00  0.00     0.166 HD
ATOM    155  ND1 HIS d  10    1858.780 556.673-1903.865  0.00  0.00    -0.247 NA
ENDBRANCH 149 150
ENDBRANCH  81 149
ENDBRANCH  79  81
ENDBRANCH   1  77
BRANCH   1 156
ATOM    156  CB  GLU d   9    1855.435 561.422-1899.553  0.00  0.00     0.045 C 
BRANCH 156 157
ATOM    157  CG  GLU d   9    1856.818 562.115-1899.324  0.00  0.00     0.116 C 
BRANCH 157 158
ATOM    158  CD  GLU d   9    1857.519 561.902-1897.995  0.00  0.00     0.172 C 
ATOM    159  OE1 GLU d   9    1856.998 561.210-1897.099  0.00  0.00    -0.648 OA
ATOM    160  OE2 GLU d   9    1858.638 562.440-1897.863  0.00  0.00    -0.648 OA
ENDBRANCH 157 158
ENDBRANCH 156 157
ENDBRANCH   1 156
TORSDOF 65
