REMARK WARNING: 32 MAX_TORS EXCEEDED!!!
REMARK  66 active torsions:
REMARK  status: ('A' for Active; 'I' for Inactive)
REMARK    1  A    between atoms: N_1  and  CA_2 
REMARK    2  A    between atoms: CA_2  and  C_3 
REMARK    3  A    between atoms: CA_2  and  CB_5 
REMARK       I    between atoms: C_3  and  N_11 
REMARK    4  A    between atoms: CB_5  and  CG_6 
REMARK    5  A    between atoms: CG_6  and  CD_7 
REMARK    6  A    between atoms: N_11  and  CA_12 
REMARK    7  A    between atoms: CA_12  and  C_13 
REMARK    8  A    between atoms: CA_12  and  CB_15 
REMARK       I    between atoms: C_13  and  N_22 
REMARK    9  A    between atoms: CB_15  and  CG_16 
REMARK       I    between atoms: CG_16  and  ND2_17 
REMARK   10  A    between atoms: CA_23  and  C_24 
REMARK       I    between atoms: C_24  and  N_29 
REMARK   11  A    between atoms: N_29  and  CA_30 
REMARK   12  A    between atoms: CA_30  and  C_31 
REMARK   13  A    between atoms: CA_30  and  CB_33 
REMARK       I    between atoms: C_31  and  N_39 
REMARK   14  A    between atoms: CB_33  and  CG_34 
REMARK   15  A    between atoms: CG_34  and  CD_35 
REMARK   16  A    between atoms: N_39  and  CA_40 
REMARK   17  A    between atoms: CA_40  and  C_41 
REMARK   18  A    between atoms: CA_40  and  CB_43 
REMARK       I    between atoms: C_41  and  N_47 
REMARK   19  A    between atoms: CB_43  and  OG_44 
REMARK   20  A    between atoms: N_47  and  CA_48 
REMARK   21  A    between atoms: CA_48  and  C_49 
REMARK   22  A    between atoms: CA_48  and  CB_51 
REMARK       I    between atoms: C_49  and  N_56 
REMARK   23  A    between atoms: CB_51  and  CG1_52 
REMARK   24  A    between atoms: N_56  and  CA_57 
REMARK   25  A    between atoms: CA_57  and  C_58 
REMARK   26  A    between atoms: CA_57  and  CB_60 
REMARK       I    between atoms: C_58  and  N_65 
REMARK   27  A    between atoms: CB_60  and  CG_61 
REMARK   28  A    between atoms: N_65  and  CA_66 
REMARK   29  A    between atoms: CA_66  and  C_67 
REMARK   30  A    between atoms: CA_66  and  CB_69 
REMARK       I    between atoms: C_67  and  N_74 
REMARK   31  A    between atoms: CB_69  and  CG_70 
REMARK   32  A    between atoms: N_74  and  CA_75 
REMARK   33  A    between atoms: CA_75  and  C_76 
REMARK   34  A    between atoms: CA_75  and  CB_78 
REMARK       I    between atoms: C_76  and  N_84 
REMARK   35  A    between atoms: CB_78  and  CG_79 
REMARK   36  A    between atoms: CG_79  and  CD_80 
REMARK   37  A    between atoms: N_84  and  CA_85 
REMARK   38  A    between atoms: CA_85  and  C_86 
REMARK   39  A    between atoms: CA_85  and  CB_88 
REMARK       I    between atoms: C_86  and  N_96 
REMARK   40  A    between atoms: CB_88  and  CG_89 
REMARK   41  A    between atoms: CA_97  and  C_98 
REMARK       I    between atoms: C_98  and  N_103 
REMARK   42  A    between atoms: N_103  and  CA_104 
REMARK   43  A    between atoms: CA_104  and  C_105 
REMARK   44  A    between atoms: CA_104  and  CB_107 
REMARK       I    between atoms: C_105  and  N_115 
REMARK   45  A    between atoms: CB_107  and  CG_108 
REMARK   46  A    between atoms: CG_108  and  CD_109 
REMARK       I    between atoms: CD_109  and  NE2_110 
REMARK   47  A    between atoms: N_115  and  CA_116 
REMARK   48  A    between atoms: CA_116  and  C_117 
REMARK   49  A    between atoms: CA_116  and  CB_119 
REMARK       I    between atoms: C_117  and  N_132 
REMARK   50  A    between atoms: CB_119  and  CG_120 
REMARK   51  A    between atoms: CG_120  and  CD_121 
REMARK   52  A    between atoms: CD_121  and  NE_122 
REMARK       I    between atoms: NE_122  and  CZ_123 
REMARK       I    between atoms: CZ_123  and  NH1_124 
REMARK       I    between atoms: CZ_123  and  NH2_125 
REMARK   53  A    between atoms: N_132  and  CA_133 
REMARK   54  A    between atoms: CA_133  and  C_134 
REMARK   55  A    between atoms: CA_133  and  CB_136 
REMARK       I    between atoms: C_134  and  N_140 
REMARK   56  A    between atoms: N_140  and  CA_141 
REMARK   57  A    between atoms: CA_141  and  C_142 
REMARK   58  A    between atoms: CA_141  and  CB_144 
REMARK       I    between atoms: C_142  and  N_149 
REMARK   59  A    between atoms: CB_144  and  CG_145 
REMARK   60  A    between atoms: CG_145  and  SD_146 
REMARK   61  A    between atoms: N_149  and  CA_150 
REMARK   62  A    between atoms: CA_150  and  C_151 
REMARK   63  A    between atoms: CA_150  and  CB_153 
REMARK   64  A    between atoms: CB_153  and  CG_154 
REMARK   65  A    between atoms: CG_154  and  CD_155 
REMARK   66  A    between atoms: CD_155  and  NE_156 
REMARK       I    between atoms: NE_156  and  CZ_157 
REMARK       I    between atoms: CZ_157  and  NH1_158 
ROOT
ATOM      1  C   GLU d   9    1699.799 510.317-1732.766  0.00  0.00     0.241 C 
ATOM      2  O   GLU d   9    1700.463 511.072-1733.491  0.00  0.00    -0.271 OA
ATOM      3  N   HIS d  10    1699.896 509.042-1732.936  0.00  0.00    -0.346 N 
ATOM      4  H   HIS d  10    1699.365 508.407-1732.358  0.00  0.00     0.163 HD
ENDROOT
BRANCH   1   5
ATOM      5  CA  GLU d   9    1698.881 510.844-1731.689  0.00  0.00     0.177 C 
BRANCH   5   6
ATOM      6  N   GLU d   9    1697.579 510.187-1731.745  0.00  0.00    -0.346 N 
ATOM      7  C   ASP d   8    1696.899 510.237-1732.840  0.00  0.00     0.241 C 
ATOM      8  O   ASP d   8    1697.372 510.842-1733.814  0.00  0.00    -0.271 OA
ATOM      9  H   GLU d   9    1697.216 509.700-1730.938  0.00  0.00     0.163 HD
BRANCH   7  10
ATOM     10  CA  ASP d   8    1695.552 509.557-1732.897  0.00  0.00     0.186 C 
BRANCH  10  11
ATOM     11  N   ASP d   8    1695.623 508.207-1732.344  0.00  0.00    -0.346 N 
ATOM     12  C   LEU d   7    1696.460 507.367-1732.851  0.00  0.00     0.241 C 
ATOM     13  O   LEU d   7    1697.181 507.730-1733.793  0.00  0.00    -0.271 OA
ATOM     14  H   ASP d   8    1695.025 507.936-1731.577  0.00  0.00     0.163 HD
BRANCH  12  15
ATOM     15  CA  LEU d   7    1696.533 505.971-1732.279  0.00  0.00     0.177 C 
BRANCH  15  16
ATOM     16  N   LEU d   7    1696.588 506.007-1730.820  0.00  0.00    -0.346 N 
ATOM     17  C   ILE d   6    1697.534 506.671-1730.247  0.00  0.00     0.241 C 
ATOM     18  O   ILE d   6    1698.368 507.259-1730.951  0.00  0.00    -0.271 OA
ATOM     19  H   LEU d   7    1695.896 505.520-1730.269  0.00  0.00     0.163 HD
BRANCH  17  20
ATOM     20  CA  ILE d   6    1697.591 506.708-1728.739  0.00  0.00     0.180 C 
BRANCH  20  21
ATOM     21  N   ILE d   6    1696.278 507.003-1728.172  0.00  0.00    -0.346 N 
ATOM     22  C   SER d   5    1695.673 508.086-1728.526  0.00  0.00     0.243 C 
ATOM     23  O   SER d   5    1696.220 508.839-1729.331  0.00  0.00    -0.271 OA
ATOM     24  H   ILE d   6    1695.849 506.368-1727.514  0.00  0.00     0.163 HD
BRANCH  22  25
ATOM     25  CA  SER d   5    1694.314 508.391-1727.941  0.00  0.00     0.200 C 
BRANCH  25  26
ATOM     26  N   SER d   5    1693.445 507.220-1727.999  0.00  0.00    -0.344 N 
ATOM     27  C   GLU d   4    1693.217 506.667-1729.142  0.00  0.00     0.241 C 
ATOM     28  O   GLU d   4    1693.743 507.147-1730.157  0.00  0.00    -0.271 OA
ATOM     29  H   SER d   5    1693.028 506.848-1727.158  0.00  0.00     0.163 HD
BRANCH  27  30
ATOM     30  CA  GLU d   4    1692.318 505.456-1729.203  0.00  0.00     0.177 C 
BRANCH  30  31
ATOM     31  N   GLU d   4    1692.678 504.485-1728.174  0.00  0.00    -0.346 N 
ATOM     32  C   PRO d   3    1693.883 504.025-1728.142  0.00  0.00     0.241 C 
ATOM     33  O   PRO d   3    1694.706 504.408-1728.973  0.00  0.00    -0.271 OA
ATOM     34  H   GLU d   4    1691.994 504.178-1727.497  0.00  0.00     0.163 HD
BRANCH  32  35
ATOM     35  CA  PRO d   3    1694.281 503.001-1727.065  0.00  0.00     0.179 C 
ATOM     36  N   PRO d   3    1693.829 503.411-1725.743  0.00  0.00    -0.337 N 
ATOM     37  C   ASN d   2    1694.351 504.406-1725.109  0.00  0.00     0.243 C 
ATOM     38  CD  PRO d   3    1692.751 502.617-1725.194  0.00  0.00     0.127 C 
ATOM     39  O   ASN d   2    1695.266 505.036-1725.638  0.00  0.00    -0.271 OA
ATOM     40  CG  PRO d   3    1692.294 501.799-1726.404  0.00  0.00     0.022 C 
ATOM     41  CB  PRO d   3    1693.577 501.647-1727.234  0.00  0.00     0.037 C 
BRANCH  37  42
ATOM     42  CA  ASN d   2    1693.820 504.761-1723.740  0.00  0.00     0.185 C 
BRANCH  42  43
ATOM     43  N   ASN d   2    1692.360 504.800-1723.740  0.00  0.00    -0.346 N 
ATOM     44  C   GLU d   1    1691.756 505.586-1724.566  0.00  0.00     0.242 C 
ATOM     45  O   GLU d   1    1692.432 506.285-1725.334  0.00  0.00    -0.271 OA
ATOM     46  H   ASN d   2    1691.832 504.220-1723.104  0.00  0.00     0.163 HD
BRANCH  44  47
ATOM     47  CA  GLU d   1    1690.247 505.626-1724.566  0.00  0.00     0.191 C 
BRANCH  47  48
ATOM     48  N   GLU d   1    1689.688 504.277-1724.566  0.00  0.00    -0.326 NA
ATOM     49  H   GLU d   1    1690.315 503.398-1724.566  0.00  0.00     0.180 HD
ENDBRANCH  47  48
BRANCH  47  50
ATOM     50  CB  GLU d   1    1689.724 506.411-1723.328  0.00  0.00     0.047 C 
BRANCH  50  51
ATOM     51  CG  GLU d   1    1690.199 507.896-1723.218  0.00  0.00     0.116 C 
BRANCH  51  52
ATOM     52  CD  GLU d   1    1689.775 508.700-1722.002  0.00  0.00     0.172 C 
ATOM     53  OE1 GLU d   1    1689.047 508.198-1721.125  0.00  0.00    -0.648 OA
ATOM     54  OE2 GLU d   1    1690.205 509.870-1721.931  0.00  0.00    -0.648 OA
ENDBRANCH  51  52
ENDBRANCH  50  51
ENDBRANCH  47  50
ENDBRANCH  44  47
ENDBRANCH  42  43
BRANCH  42  55
ATOM     55  CB  ASN d   2    1694.312 503.738-1722.676  0.00  0.00     0.137 C 
BRANCH  55  56
ATOM     56  CG  ASN d   2    1693.849 503.962-1721.233  0.00  0.00     0.217 C 
ATOM     57  ND2 ASN d   2    1694.443 504.877-1720.515  0.00  0.00    -0.370 N 
ATOM     58 21HD ASN d   2    1693.962 505.050-1719.628  0.00  0.00     0.159 HD
ATOM     59 22HD ASN d   2    1695.145 505.449-1720.984  0.00  0.00     0.159 HD
ATOM     60  OD1 ASN d   2    1692.928 503.328-1720.739  0.00  0.00    -0.274 OA
ENDBRANCH  55  56
ENDBRANCH  42  55
ENDBRANCH  37  42
ENDBRANCH  32  35
ENDBRANCH  30  31
BRANCH  30  61
ATOM     61  CB  GLU d   4    1690.830 505.875-1729.033  0.00  0.00     0.045 C 
BRANCH  61  62
ATOM     62  CG  GLU d   4    1690.281 506.878-1730.098  0.00  0.00     0.116 C 
BRANCH  62  63
ATOM     63  CD  GLU d   4    1688.855 507.375-1729.954  0.00  0.00     0.172 C 
ATOM     64  OE1 GLU d   4    1688.129 506.976-1729.024  0.00  0.00    -0.648 OA
ATOM     65  OE2 GLU d   4    1688.465 508.204-1730.803  0.00  0.00    -0.648 OA
ENDBRANCH  62  63
ENDBRANCH  61  62
ENDBRANCH  30  61
ENDBRANCH  27  30
ENDBRANCH  25  26
BRANCH  25  66
ATOM     66  CB  SER d   5    1694.426 508.923-1726.490  0.00  0.00     0.199 C 
BRANCH  66  67
ATOM     67  OG  SER d   5    1695.158 508.044-1725.629  0.00  0.00    -0.398 OA
ATOM     68  HG  SER d   5    1694.669 507.219-1725.579  0.00  0.00     0.209 HD
ENDBRANCH  66  67
ENDBRANCH  25  66
ENDBRANCH  22  25
ENDBRANCH  20  21
BRANCH  20  69
ATOM     69  CB  ILE d   6    1698.191 505.372-1728.139  0.00  0.00     0.013 C 
ATOM     70  CG2 ILE d   6    1699.632 505.070-1728.655  0.00  0.00     0.012 C 
BRANCH  69  71
ATOM     71  CG1 ILE d   6    1698.210 505.310-1726.578  0.00  0.00     0.002 C 
ATOM     72  CD1 ILE d   6    1698.480 503.920-1725.963  0.00  0.00     0.005 C 
ENDBRANCH  69  71
ENDBRANCH  20  69
ENDBRANCH  17  20
ENDBRANCH  15  16
BRANCH  15  73
ATOM     73  CB  LEU d   7    1695.330 505.111-1732.759  0.00  0.00     0.038 C 
BRANCH  73  74
ATOM     74  CG  LEU d   7    1695.257 503.632-1732.293  0.00  0.00    -0.020 C 
ATOM     75  CD1 LEU d   7    1694.067 502.926-1732.959  0.00  0.00     0.009 C 
ATOM     76  CD2 LEU d   7    1696.550 502.853-1732.585  0.00  0.00     0.009 C 
ENDBRANCH  73  74
ENDBRANCH  15  73
ENDBRANCH  12  15
ENDBRANCH  10  11
BRANCH  10  77
ATOM     77  CB  ASP d   8    1694.474 510.396-1732.155  0.00  0.00     0.147 C 
BRANCH  77  78
ATOM     78  CG  ASP d   8    1694.255 511.817-1732.696  0.00  0.00     0.175 C 
ATOM     79  OD1 ASP d   8    1694.319 512.016-1733.926  0.00  0.00    -0.648 OA
ATOM     80  OD2 ASP d   8    1694.063 512.742-1731.880  0.00  0.00    -0.648 OA
ENDBRANCH  77  78
ENDBRANCH  10  77
ENDBRANCH   7  10
ENDBRANCH   5   6
BRANCH   5  81
ATOM     81  CB  GLU d   9    1699.515 510.636-1730.284  0.00  0.00     0.045 C 
BRANCH  81  82
ATOM     82  CG  GLU d   9    1700.898 511.329-1730.055  0.00  0.00     0.116 C 
BRANCH  82  83
ATOM     83  CD  GLU d   9    1701.600 511.115-1728.727  0.00  0.00     0.172 C 
ATOM     84  OE1 GLU d   9    1701.078 510.423-1727.831  0.00  0.00    -0.648 OA
ATOM     85  OE2 GLU d   9    1702.719 511.653-1728.595  0.00  0.00    -0.648 OA
ENDBRANCH  82  83
ENDBRANCH  81  82
ENDBRANCH   5  81
ENDBRANCH   1   5
BRANCH   3  86
ATOM     86  CA  HIS d  10    1700.784 508.531-1733.977  0.00  0.00     0.182 C 
BRANCH  86  87
ATOM     87  C   HIS d  10    1700.417 509.097-1735.328  0.00  0.00     0.243 C 
ATOM     88  O   HIS d  10    1701.269 509.562-1736.099  0.00  0.00    -0.271 OA
ATOM     89  N   PRO d  11    1699.179 509.096-1735.691  0.00  0.00    -0.337 N 
ATOM     90  CA  PRO d  11    1698.739 509.621-1736.975  0.00  0.00     0.179 C 
ATOM     91  CD  PRO d  11    1698.123 508.573-1734.852  0.00  0.00     0.127 C 
ATOM     92  CB  PRO d  11    1697.286 509.129-1737.037  0.00  0.00     0.037 C 
ATOM     93  CG  PRO d  11    1696.860 509.067-1735.562  0.00  0.00     0.022 C 
BRANCH  90  94
ATOM     94  C   PRO d  11    1698.858 511.154-1737.030  0.00  0.00     0.241 C 
ATOM     95  O   PRO d  11    1699.372 511.705-1738.004  0.00  0.00    -0.271 OA
ATOM     96  N   GLN d  12    1698.416 511.867-1736.050  0.00  0.00    -0.346 N 
ATOM     97  H   GLN d  12    1697.992 511.426-1735.246  0.00  0.00     0.163 HD
BRANCH  96  98
ATOM     98  CA  GLN d  12    1698.537 513.319-1736.120  0.00  0.00     0.177 C 
BRANCH  98  99
ATOM     99  C   GLN d  12    1699.977 513.735-1736.311  0.00  0.00     0.241 C 
ATOM    100  O   GLN d  12    1700.308 514.568-1737.151  0.00  0.00    -0.271 OA
ATOM    101  N   ARG d  13    1700.886 513.200-1735.569  0.00  0.00    -0.346 N 
ATOM    102  H   ARG d  13    1700.639 512.513-1734.871  0.00  0.00     0.163 HD
BRANCH 101 103
ATOM    103  CA  ARG d  13    1702.277 513.602-1735.754  0.00  0.00     0.176 C 
BRANCH 103 104
ATOM    104  C   ARG d  13    1702.722 513.371-1737.179  0.00  0.00     0.241 C 
ATOM    105  O   ARG d  13    1703.330 514.226-1737.818  0.00  0.00    -0.271 OA
ATOM    106  N   VAL d  14    1702.454 512.242-1737.742  0.00  0.00    -0.346 N 
ATOM    107  H   VAL d  14    1701.955 511.523-1737.237  0.00  0.00     0.163 HD
BRANCH 106 108
ATOM    108  CA  VAL d  14    1702.883 512.018-1739.119  0.00  0.00     0.180 C 
BRANCH 108 109
ATOM    109  C   VAL d  14    1702.323 513.077-1740.039  0.00  0.00     0.241 C 
ATOM    110  O   VAL d  14    1703.027 513.662-1740.872  0.00  0.00    -0.271 OA
ATOM    111  N   MET d  15    1701.073 513.381-1739.953  0.00  0.00    -0.346 N 
ATOM    112  H   MET d  15    1700.478 512.917-1739.281  0.00  0.00     0.163 HD
BRANCH 111 113
ATOM    113  CA  MET d  15    1700.530 514.404-1740.842  0.00  0.00     0.177 C 
BRANCH 113 114
ATOM    114  C   MET d  15    1701.277 515.707-1740.688  0.00  0.00     0.241 C 
ATOM    115  O   MET d  15    1701.671 516.357-1741.669  0.00  0.00    -0.271 OA
ATOM    116  N   ARG d  16    1701.513 516.157-1739.503  0.00  0.00    -0.347 N 
ATOM    117  H   ARG d  16    1701.202 515.646-1738.689  0.00  0.00     0.163 HD
BRANCH 116 118
ATOM    118  CA  ARG d  16    1702.236 517.417-1739.356  0.00  0.00     0.162 C 
BRANCH 118 119
ATOM    119  C   ARG d  16    1703.579 517.353-1740.045  0.00  0.00     0.219 C 
ATOM    120  O   ARG d  16    1703.950 516.354-1740.656  0.00  0.00    -0.287 OA
ENDBRANCH 118 119
BRANCH 118 121
ATOM    121  CB  ARG d  16    1702.391 517.732-1737.841  0.00  0.00     0.035 C 
BRANCH 121 122
ATOM    122  CG  ARG d  16    1702.892 519.164-1737.503  0.00  0.00     0.023 C 
BRANCH 122 123
ATOM    123  CD  ARG d  16    1703.051 519.379-1735.988  0.00  0.00     0.138 C 
BRANCH 123 124
ATOM    124  NE  ARG d  16    1703.512 520.773-1735.725  0.00  0.00    -0.227 N 
ATOM    125  CZ  ARG d  16    1703.755 521.288-1734.523  0.00  0.00     0.665 C 
ATOM    126  NH1 ARG d  16    1703.624 520.620-1733.411  0.00  0.00    -0.235 N 
ATOM    127  NH2 ARG d  16    1704.145 522.522-1734.450  0.00  0.00    -0.235 N 
ATOM    128 11HH ARG d  16    1703.315 519.654-1733.539  0.00  0.00     0.174 HD
ATOM    129 12HH ARG d  16    1703.829 521.088-1732.528  0.00  0.00     0.174 HD
ATOM    130 21HH ARG d  16    1704.244 523.029-1735.331  0.00  0.00     0.174 HD
ATOM    131 22HH ARG d  16    1704.325 522.900-1733.518  0.00  0.00     0.174 HD
ATOM    132  HE  ARG d  16    1703.667 521.432-1736.494  0.00  0.00     0.177 HD
ENDBRANCH 123 124
ENDBRANCH 122 123
ENDBRANCH 121 122
ENDBRANCH 118 121
ENDBRANCH 116 118
ENDBRANCH 113 114
BRANCH 113 133
ATOM    133  CB  MET d  15    1699.015 514.598-1740.559  0.00  0.00     0.045 C 
BRANCH 133 134
ATOM    134  CG  MET d  15    1698.118 513.368-1740.816  0.00  0.00     0.076 C 
BRANCH 134 135
ATOM    135  SD  MET d  15    1696.385 513.845-1740.723  0.00  0.00    -0.173 SA
ATOM    136  CE  MET d  15    1695.659 512.202-1740.664  0.00  0.00     0.089 C 
ENDBRANCH 134 135
ENDBRANCH 133 134
ENDBRANCH 113 133
ENDBRANCH 111 113
ENDBRANCH 108 109
BRANCH 108 137
ATOM    137  CB  VAL d  14    1702.444 510.575-1739.590  0.00  0.00     0.009 C 
ATOM    138  CG1 VAL d  14    1702.660 510.244-1741.092  0.00  0.00     0.012 C 
ATOM    139  CG2 VAL d  14    1703.134 509.426-1738.816  0.00  0.00     0.012 C 
ENDBRANCH 108 137
ENDBRANCH 106 108
ENDBRANCH 103 104
BRANCH 103 140
ATOM    140  CB  ARG d  13    1703.165 512.815-1734.748  0.00  0.00     0.036 C 
BRANCH 140 141
ATOM    141  CG  ARG d  13    1704.631 513.314-1734.616  0.00  0.00     0.023 C 
BRANCH 141 142
ATOM    142  CD  ARG d  13    1705.446 512.460-1733.631  0.00  0.00     0.138 C 
BRANCH 142 143
ATOM    143  NE  ARG d  13    1706.834 512.998-1733.529  0.00  0.00    -0.227 N 
ATOM    144  CZ  ARG d  13    1707.802 512.491-1732.771  0.00  0.00     0.665 C 
ATOM    145  NH1 ARG d  13    1707.650 511.440-1732.015  0.00  0.00    -0.235 N 
ATOM    146  NH2 ARG d  13    1708.959 513.073-1732.780  0.00  0.00    -0.235 N 
ATOM    147 11HH ARG d  13    1706.715 511.029-1732.055  0.00  0.00     0.174 HD
ATOM    148 12HH ARG d  13    1708.443 511.113-1731.460  0.00  0.00     0.174 HD
ATOM    149 21HH ARG d  13    1709.060 513.895-1733.378  0.00  0.00     0.174 HD
ATOM    150 22HH ARG d  13    1709.689 512.670-1732.189  0.00  0.00     0.174 HD
ATOM    151  HE  ARG d  13    1707.120 513.825-1734.063  0.00  0.00     0.177 HD
ENDBRANCH 142 143
ENDBRANCH 141 142
ENDBRANCH 140 141
ENDBRANCH 103 140
ENDBRANCH 101 103
ENDBRANCH  98  99
BRANCH  98 152
ATOM    152  CB  GLN d  12    1697.952 513.928-1734.827  0.00  0.00     0.044 C 
BRANCH 152 153
ATOM    153  CG  GLN d  12    1697.952 515.490-1734.737  0.00  0.00     0.105 C 
BRANCH 153 154
ATOM    154  CD  GLN d  12    1697.442 516.164-1733.457  0.00  0.00     0.215 C 
ATOM    155  NE2 GLN d  12    1697.000 515.435-1732.464  0.00  0.00    -0.370 N 
ATOM    156 21HE GLN d  12    1696.741 515.958-1731.626  0.00  0.00     0.159 HD
ATOM    157 22HE GLN d  12    1697.074 514.426-1732.604  0.00  0.00     0.159 HD
ATOM    158  OE1 GLN d  12    1697.463 517.379-1733.333  0.00  0.00    -0.274 OA
ENDBRANCH 153 154
ENDBRANCH 152 153
ENDBRANCH  98 152
ENDBRANCH  96  98
ENDBRANCH  90  94
ENDBRANCH  86  87
BRANCH  86 159
ATOM    159  CB  HIS d  10    1700.620 507.003-1733.973  0.00  0.00     0.095 C 
BRANCH 159 160
ATOM    160  CG  HIS d  10    1701.905 506.292-1733.665  0.00  0.00     0.053 A 
ATOM    161  CD2 HIS d  10    1702.286 505.956-1732.373  0.00  0.00     0.116 A 
ATOM    162  NE2 HIS d  10    1703.501 505.324-1732.440  0.00  0.00    -0.359 N 
ATOM    163  CE1 HIS d  10    1703.763 505.328-1733.775  0.00  0.00     0.207 A 
ATOM    164  2HE HIS d  10    1704.068 504.946-1731.667  0.00  0.00     0.166 HD
ATOM    165  ND1 HIS d  10    1702.857 505.887-1734.598  0.00  0.00    -0.247 NA
ENDBRANCH 159 160
ENDBRANCH  86 159
ENDBRANCH   3  86
TORSDOF 66
