REMARK WARNING: 32 MAX_TORS EXCEEDED!!!
REMARK  70 active torsions:
REMARK  status: ('A' for Active; 'I' for Inactive)
REMARK    1  A    between atoms: N_1  and  CA_2 
REMARK    2  A    between atoms: CA_2  and  C_3 
REMARK    3  A    between atoms: CA_2  and  CB_5 
REMARK       I    between atoms: C_3  and  N_11 
REMARK    4  A    between atoms: CB_5  and  CG_6 
REMARK    5  A    between atoms: CG_6  and  CD_7 
REMARK    6  A    between atoms: N_11  and  CA_12 
REMARK    7  A    between atoms: CA_12  and  C_13 
REMARK    8  A    between atoms: CA_12  and  CB_15 
REMARK       I    between atoms: C_13  and  N_22 
REMARK    9  A    between atoms: CB_15  and  CG_16 
REMARK       I    between atoms: CG_16  and  ND2_17 
REMARK   10  A    between atoms: CA_23  and  C_24 
REMARK       I    between atoms: C_24  and  N_29 
REMARK   11  A    between atoms: N_29  and  CA_30 
REMARK   12  A    between atoms: CA_30  and  C_31 
REMARK   13  A    between atoms: CA_30  and  CB_33 
REMARK       I    between atoms: C_31  and  N_39 
REMARK   14  A    between atoms: CB_33  and  CG_34 
REMARK   15  A    between atoms: CG_34  and  CD_35 
REMARK   16  A    between atoms: N_39  and  CA_40 
REMARK   17  A    between atoms: CA_40  and  C_41 
REMARK   18  A    between atoms: CA_40  and  CB_43 
REMARK       I    between atoms: C_41  and  N_47 
REMARK   19  A    between atoms: CB_43  and  OG_44 
REMARK   20  A    between atoms: N_47  and  CA_48 
REMARK   21  A    between atoms: CA_48  and  C_49 
REMARK   22  A    between atoms: CA_48  and  CB_51 
REMARK       I    between atoms: C_49  and  N_64 
REMARK   23  A    between atoms: CB_51  and  CG_52 
REMARK   24  A    between atoms: CG_52  and  CD_53 
REMARK   25  A    between atoms: CD_53  and  NE_54 
REMARK       I    between atoms: NE_54  and  CZ_55 
REMARK       I    between atoms: CZ_55  and  NH1_56 
REMARK       I    between atoms: CZ_55  and  NH2_57 
REMARK   26  A    between atoms: N_64  and  CA_65 
REMARK   27  A    between atoms: CA_65  and  C_66 
REMARK   28  A    between atoms: CA_65  and  CB_68 
REMARK       I    between atoms: C_66  and  N_73 
REMARK   29  A    between atoms: CB_68  and  CG_69 
REMARK   30  A    between atoms: N_73  and  CA_74 
REMARK   31  A    between atoms: CA_74  and  C_75 
REMARK   32  A    between atoms: CA_74  and  CB_77 
REMARK       I    between atoms: C_75  and  N_82 
REMARK   33  A    between atoms: CB_77  and  CG_78 
REMARK   34  A    between atoms: N_82  and  CA_83 
REMARK   35  A    between atoms: CA_83  and  C_84 
REMARK   36  A    between atoms: CA_83  and  CB_86 
REMARK       I    between atoms: C_84  and  N_92 
REMARK   37  A    between atoms: CB_86  and  CG_87 
REMARK   38  A    between atoms: CG_87  and  CD_88 
REMARK   39  A    between atoms: N_92  and  CA_93 
REMARK   40  A    between atoms: CA_93  and  C_94 
REMARK   41  A    between atoms: CA_93  and  CB_96 
REMARK       I    between atoms: C_94  and  N_104 
REMARK   42  A    between atoms: CB_96  and  CG_97 
REMARK   43  A    between atoms: N_104  and  CA_105 
REMARK   44  A    between atoms: CA_105  and  C_106 
REMARK   45  A    between atoms: CA_105  and  CB_108 
REMARK       I    between atoms: C_106  and  N_112 
REMARK   46  A    between atoms: N_112  and  CA_113 
REMARK   47  A    between atoms: CA_113  and  C_114 
REMARK   48  A    between atoms: CA_113  and  CB_116 
REMARK       I    between atoms: C_114  and  N_124 
REMARK   49  A    between atoms: CB_116  and  CG_117 
REMARK   50  A    between atoms: CG_117  and  CD_118 
REMARK       I    between atoms: CD_118  and  NE2_119 
REMARK   51  A    between atoms: N_124  and  CA_125 
REMARK   52  A    between atoms: CA_125  and  C_126 
REMARK   53  A    between atoms: CA_125  and  CB_128 
REMARK       I    between atoms: C_126  and  N_141 
REMARK   54  A    between atoms: CB_128  and  CG_129 
REMARK   55  A    between atoms: CG_129  and  CD_130 
REMARK   56  A    between atoms: CD_130  and  NE_131 
REMARK       I    between atoms: NE_131  and  CZ_132 
REMARK       I    between atoms: CZ_132  and  NH1_133 
REMARK       I    between atoms: CZ_132  and  NH2_134 
REMARK   57  A    between atoms: N_141  and  CA_142 
REMARK   58  A    between atoms: CA_142  and  C_143 
REMARK   59  A    between atoms: CA_142  and  CB_145 
REMARK       I    between atoms: C_143  and  N_149 
REMARK   60  A    between atoms: N_149  and  CA_150 
REMARK   61  A    between atoms: CA_150  and  C_151 
REMARK   62  A    between atoms: CA_150  and  CB_153 
REMARK       I    between atoms: C_151  and  N_158 
REMARK   63  A    between atoms: CB_153  and  CG_154 
REMARK   64  A    between atoms: CG_154  and  SD_155 
REMARK   65  A    between atoms: N_158  and  CA_159 
REMARK   66  A    between atoms: CA_159  and  C_160 
REMARK   67  A    between atoms: CA_159  and  CB_162 
REMARK   68  A    between atoms: CB_162  and  CG_163 
REMARK   69  A    between atoms: CG_163  and  CD_164 
REMARK   70  A    between atoms: CD_164  and  NE_165 
REMARK       I    between atoms: NE_165  and  CZ_166 
REMARK       I    between atoms: CZ_166  and  NH1_167 
ROOT
ATOM      1  CA  GLU d   9    1026.400 288.999-1002.780  0.00  0.00     0.177 C 
ENDROOT
BRANCH   1   2
ATOM      2  N   GLU d   9    1025.097 288.341-1002.834  0.00  0.00    -0.346 N 
ATOM      3  C   ASP d   8    1024.416 288.390-1003.928  0.00  0.00     0.241 C 
ATOM      4  O   ASP d   8    1024.888 288.996-1004.903  0.00  0.00    -0.271 OA
ATOM      5  H   GLU d   9    1024.735 287.854-1002.026  0.00  0.00     0.163 HD
BRANCH   3   6
ATOM      6  CA  ASP d   8    1023.070 287.710-1003.984  0.00  0.00     0.186 C 
BRANCH   6   7
ATOM      7  N   ASP d   8    1023.141 286.361-1003.431  0.00  0.00    -0.346 N 
ATOM      8  C   LEU d   7    1023.978 285.520-1003.939  0.00  0.00     0.241 C 
ATOM      9  O   LEU d   7    1024.698 285.884-1004.881  0.00  0.00    -0.271 OA
ATOM     10  H   ASP d   8    1022.544 286.089-1002.663  0.00  0.00     0.163 HD
BRANCH   8  11
ATOM     11  CA  LEU d   7    1024.052 284.125-1003.366  0.00  0.00     0.177 C 
BRANCH  11  12
ATOM     12  N   LEU d   7    1024.108 284.161-1001.908  0.00  0.00    -0.346 N 
ATOM     13  C   ARG d   6    1025.054 284.825-1001.335  0.00  0.00     0.241 C 
ATOM     14  O   ARG d   6    1025.880 285.407-1002.034  0.00  0.00    -0.271 OA
ATOM     15  H   LEU d   7    1023.417 283.674-1001.356  0.00  0.00     0.163 HD
BRANCH  13  16
ATOM     16  CA  ARG d   6    1025.113 284.862-999.826  0.00  0.00     0.176 C 
BRANCH  16  17
ATOM     17  N   ARG d   6    1023.800 285.156-999.260  0.00  0.00    -0.346 N 
ATOM     18  C   SER d   5    1023.195 286.239-999.614  0.00  0.00     0.243 C 
ATOM     19  O   SER d   5    1023.742 286.993-1000.419  0.00  0.00    -0.271 OA
ATOM     20  H   ARG d   6    1023.372 284.522-998.601  0.00  0.00     0.163 HD
BRANCH  18  21
ATOM     21  CA  SER d   5    1021.836 286.545-999.029  0.00  0.00     0.200 C 
BRANCH  21  22
ATOM     22  N   SER d   5    1020.966 285.373-999.087  0.00  0.00    -0.344 N 
ATOM     23  C   GLU d   4    1020.739 284.821-1000.231  0.00  0.00     0.241 C 
ATOM     24  O   GLU d   4    1021.266 285.300-1001.245  0.00  0.00    -0.271 OA
ATOM     25  H   SER d   5    1020.549 285.002-998.246  0.00  0.00     0.163 HD
BRANCH  23  26
ATOM     26  CA  GLU d   4    1019.840 283.609-1000.292  0.00  0.00     0.177 C 
BRANCH  26  27
ATOM     27  N   GLU d   4    1020.200 282.638-999.262  0.00  0.00    -0.346 N 
ATOM     28  C   PRO d   3    1021.405 282.179-999.230  0.00  0.00     0.241 C 
ATOM     29  O   PRO d   3    1022.228 282.562-1000.061  0.00  0.00    -0.271 OA
ATOM     30  H   GLU d   4    1019.516 282.332-998.585  0.00  0.00     0.163 HD
BRANCH  28  31
ATOM     31  CA  PRO d   3    1021.803 281.155-998.153  0.00  0.00     0.179 C 
ATOM     32  N   PRO d   3    1021.351 281.564-996.831  0.00  0.00    -0.337 N 
ATOM     33  C   ASN d   2    1021.873 282.559-996.197  0.00  0.00     0.243 C 
ATOM     34  CD  PRO d   3    1020.273 280.771-996.282  0.00  0.00     0.127 C 
ATOM     35  O   ASN d   2    1022.788 283.190-996.726  0.00  0.00    -0.271 OA
ATOM     36  CG  PRO d   3    1019.816 279.952-997.492  0.00  0.00     0.022 C 
ATOM     37  CB  PRO d   3    1021.099 279.800-998.322  0.00  0.00     0.037 C 
BRANCH  33  38
ATOM     38  CA  ASN d   2    1021.341 282.915-994.829  0.00  0.00     0.185 C 
BRANCH  38  39
ATOM     39  N   ASN d   2    1019.882 282.954-994.829  0.00  0.00    -0.346 N 
ATOM     40  C   GLU d   1    1019.277 283.739-995.654  0.00  0.00     0.242 C 
ATOM     41  O   GLU d   1    1019.953 284.439-996.422  0.00  0.00    -0.271 OA
ATOM     42  H   ASN d   2    1019.354 282.374-994.192  0.00  0.00     0.163 HD
BRANCH  40  43
ATOM     43  CA  GLU d   1    1017.768 283.779-995.654  0.00  0.00     0.191 C 
BRANCH  43  44
ATOM     44  N   GLU d   1    1017.209 282.430-995.654  0.00  0.00    -0.326 NA
ATOM     45  H   GLU d   1    1017.836 281.551-995.654  0.00  0.00     0.180 HD
ENDBRANCH  43  44
BRANCH  43  46
ATOM     46  CB  GLU d   1    1017.245 284.564-994.417  0.00  0.00     0.047 C 
BRANCH  46  47
ATOM     47  CG  GLU d   1    1017.720 286.049-994.306  0.00  0.00     0.116 C 
BRANCH  47  48
ATOM     48  CD  GLU d   1    1017.296 286.853-993.091  0.00  0.00     0.172 C 
ATOM     49  OE1 GLU d   1    1016.568 286.351-992.213  0.00  0.00    -0.648 OA
ATOM     50  OE2 GLU d   1    1017.727 288.023-993.019  0.00  0.00    -0.648 OA
ENDBRANCH  47  48
ENDBRANCH  46  47
ENDBRANCH  43  46
ENDBRANCH  40  43
ENDBRANCH  38  39
BRANCH  38  51
ATOM     51  CB  ASN d   2    1021.833 281.892-993.764  0.00  0.00     0.137 C 
BRANCH  51  52
ATOM     52  CG  ASN d   2    1021.370 282.116-992.321  0.00  0.00     0.217 C 
ATOM     53  ND2 ASN d   2    1021.965 283.031-991.603  0.00  0.00    -0.370 N 
ATOM     54 21HD ASN d   2    1021.484 283.204-990.716  0.00  0.00     0.159 HD
ATOM     55 22HD ASN d   2    1022.666 283.602-992.072  0.00  0.00     0.159 HD
ATOM     56  OD1 ASN d   2    1020.450 281.482-991.827  0.00  0.00    -0.274 OA
ENDBRANCH  51  52
ENDBRANCH  38  51
ENDBRANCH  33  38
ENDBRANCH  28  31
ENDBRANCH  26  27
BRANCH  26  57
ATOM     57  CB  GLU d   4    1018.352 284.028-1000.122  0.00  0.00     0.045 C 
BRANCH  57  58
ATOM     58  CG  GLU d   4    1017.804 285.031-1001.187  0.00  0.00     0.116 C 
BRANCH  58  59
ATOM     59  CD  GLU d   4    1016.377 285.528-1001.044  0.00  0.00     0.172 C 
ATOM     60  OE1 GLU d   4    1015.651 285.129-1000.113  0.00  0.00    -0.648 OA
ATOM     61  OE2 GLU d   4    1015.987 286.357-1001.892  0.00  0.00    -0.648 OA
ENDBRANCH  58  59
ENDBRANCH  57  58
ENDBRANCH  26  57
ENDBRANCH  23  26
ENDBRANCH  21  22
BRANCH  21  62
ATOM     62  CB  SER d   5    1021.947 287.077-997.578  0.00  0.00     0.199 C 
BRANCH  62  63
ATOM     63  OG  SER d   5    1022.679 286.198-996.717  0.00  0.00    -0.398 OA
ATOM     64  HG  SER d   5    1022.190 285.373-996.667  0.00  0.00     0.209 HD
ENDBRANCH  62  63
ENDBRANCH  21  62
ENDBRANCH  18  21
ENDBRANCH  16  17
BRANCH  16  65
ATOM     65  CB  ARG d   6    1025.618 283.511-999.245  0.00  0.00     0.036 C 
BRANCH  65  66
ATOM     66  CG  ARG d   6    1027.111 283.178-999.525  0.00  0.00     0.023 C 
BRANCH  66  67
ATOM     67  CD  ARG d   6    1027.516 281.812-998.947  0.00  0.00     0.138 C 
BRANCH  67  68
ATOM     68  NE  ARG d   6    1028.960 281.558-999.227  0.00  0.00    -0.227 N 
ATOM     69  CZ  ARG d   6    1029.631 280.466-998.872  0.00  0.00     0.665 C 
ATOM     70  NH1 ARG d   6    1029.095 279.466-998.230  0.00  0.00    -0.235 N 
ATOM     71  NH2 ARG d   6    1030.887 280.389-999.180  0.00  0.00    -0.235 N 
ATOM     72 11HH ARG d   6    1028.102 279.590-998.019  0.00  0.00     0.174 HD
ATOM     73 12HH ARG d   6    1029.679 278.663-997.992  0.00  0.00     0.174 HD
ATOM     74 21HH ARG d   6    1031.290 281.181-999.684  0.00  0.00     0.174 HD
ATOM     75 22HH ARG d   6    1031.386 279.543-998.897  0.00  0.00     0.174 HD
ATOM     76  HE  ARG d   6    1029.530 282.247-999.728  0.00  0.00     0.177 HD
ENDBRANCH  67  68
ENDBRANCH  66  67
ENDBRANCH  65  66
ENDBRANCH  16  65
ENDBRANCH  13  16
ENDBRANCH  11  12
BRANCH  11  77
ATOM     77  CB  LEU d   7    1022.848 283.264-1003.846  0.00  0.00     0.038 C 
BRANCH  77  78
ATOM     78  CG  LEU d   7    1022.776 281.785-1003.379  0.00  0.00    -0.020 C 
ATOM     79  CD1 LEU d   7    1021.586 281.079-1004.044  0.00  0.00     0.009 C 
ATOM     80  CD2 LEU d   7    1024.070 281.006-1003.672  0.00  0.00     0.009 C 
ENDBRANCH  77  78
ENDBRANCH  11  77
ENDBRANCH   8  11
ENDBRANCH   6   7
BRANCH   6  81
ATOM     81  CB  ASP d   8    1021.992 288.549-1003.241  0.00  0.00     0.147 C 
BRANCH  81  82
ATOM     82  CG  ASP d   8    1021.772 289.969-1003.781  0.00  0.00     0.175 C 
ATOM     83  OD1 ASP d   8    1021.835 290.169-1005.012  0.00  0.00    -0.648 OA
ATOM     84  OD2 ASP d   8    1021.581 290.895-1002.965  0.00  0.00    -0.648 OA
ENDBRANCH  81  82
ENDBRANCH   6  81
ENDBRANCH   3   6
ENDBRANCH   1   2
BRANCH   1  85
ATOM     85  C   GLU d   9    1027.317 288.471-1003.857  0.00  0.00     0.241 C 
ATOM     86  O   GLU d   9    1027.980 289.226-1004.583  0.00  0.00    -0.271 OA
ATOM     87  N   HIS d  10    1027.414 287.196-1004.027  0.00  0.00    -0.346 N 
ATOM     88  H   HIS d  10    1026.884 286.560-1003.448  0.00  0.00     0.163 HD
BRANCH  87  89
ATOM     89  CA  HIS d  10    1028.301 286.686-1005.068  0.00  0.00     0.182 C 
BRANCH  89  90
ATOM     90  C   HIS d  10    1027.932 287.251-1006.419  0.00  0.00     0.241 C 
ATOM     91  O   HIS d  10    1028.784 287.716-1007.191  0.00  0.00    -0.271 OA
ATOM     92  N   VAL d  11    1026.694 287.249-1006.781  0.00  0.00    -0.346 N 
ATOM     93  H   VAL d  11    1025.982 286.876-1006.169  0.00  0.00     0.163 HD
BRANCH  92  94
ATOM     94  CA  VAL d  11    1026.337 287.796-1008.087  0.00  0.00     0.180 C 
BRANCH  94  95
ATOM     95  C   VAL d  11    1026.801 289.227-1008.219  0.00  0.00     0.241 C 
ATOM     96  O   VAL d  11    1027.401 289.633-1009.222  0.00  0.00    -0.271 OA
ATOM     97  N   GLN d  12    1026.564 290.052-1007.256  0.00  0.00    -0.346 N 
ATOM     98  H   GLN d  12    1026.077 289.745-1006.426  0.00  0.00     0.163 HD
BRANCH  97  99
ATOM     99  CA  GLN d  12    1027.012 291.435-1007.383  0.00  0.00     0.177 C 
BRANCH  99 100
ATOM    100  C   GLN d  12    1028.502 291.503-1007.622  0.00  0.00     0.241 C 
ATOM    101  O   GLN d  12    1028.988 292.213-1008.501  0.00  0.00    -0.271 OA
ATOM    102  N   ARG d  13    1029.287 290.797-1006.882  0.00  0.00    -0.346 N 
ATOM    103  H   ARG d  13    1028.912 290.206-1006.154  0.00  0.00     0.163 HD
BRANCH 102 104
ATOM    104  CA  ARG d  13    1030.727 290.863-1007.115  0.00  0.00     0.176 C 
BRANCH 104 105
ATOM    105  C   ARG d  13    1031.062 290.493-1008.540  0.00  0.00     0.241 C 
ATOM    106  O   ARG d  13    1031.830 291.166-1009.225  0.00  0.00    -0.271 OA
ATOM    107  N   VAL d  14    1030.526 289.439-1009.055  0.00  0.00    -0.346 N 
ATOM    108  H   VAL d  14    1029.892 288.869-1008.513  0.00  0.00     0.163 HD
BRANCH 107 109
ATOM    109  CA  VAL d  14    1030.850 289.080-1010.433  0.00  0.00     0.180 C 
BRANCH 109 110
ATOM    110  C   VAL d  14    1030.518 290.211-1011.377  0.00  0.00     0.241 C 
ATOM    111  O   VAL d  14    1031.311 290.593-1012.248  0.00  0.00    -0.271 OA
ATOM    112  N   MET d  15    1029.373 290.796-1011.274  0.00  0.00    -0.346 N 
ATOM    113  H   MET d  15    1028.709 290.502-1010.572  0.00  0.00     0.163 HD
BRANCH 112 114
ATOM    114  CA  MET d  15    1029.052 291.889-1012.187  0.00  0.00     0.177 C 
BRANCH 114 115
ATOM    115  C   MET d  15    1030.081 292.989-1012.100  0.00  0.00     0.241 C 
ATOM    116  O   MET d  15    1030.583 293.501-1013.113  0.00  0.00    -0.271 OA
ATOM    117  N   ARG d  16    1030.451 293.410-1010.938  0.00  0.00    -0.347 N 
ATOM    118  H   ARG d  16    1030.057 293.010-1010.098  0.00  0.00     0.163 HD
BRANCH 117 119
ATOM    119  CA  ARG d  16    1031.447 294.475-1010.855  0.00  0.00     0.162 C 
BRANCH 119 120
ATOM    120  C   ARG d  16    1032.717 294.083-1011.572  0.00  0.00     0.219 C 
ATOM    121  O   ARG d  16    1032.831 293.007-1012.154  0.00  0.00    -0.287 OA
ENDBRANCH 119 120
BRANCH 119 122
ATOM    122  CB  ARG d  16    1031.717 294.792-1009.357  0.00  0.00     0.035 C 
BRANCH 122 123
ATOM    123  CG  ARG d  16    1032.542 296.082-1009.084  0.00  0.00     0.023 C 
BRANCH 123 124
ATOM    124  CD  ARG d  16    1032.793 296.301-1007.583  0.00  0.00     0.138 C 
BRANCH 124 125
ATOM    125  NE  ARG d  16    1033.569 297.560-1007.383  0.00  0.00    -0.227 N 
ATOM    126  CZ  ARG d  16    1033.961 298.042-1006.207  0.00  0.00     0.665 C 
ATOM    127  NH1 ARG d  16    1033.715 297.457-1005.069  0.00  0.00    -0.235 N 
ATOM    128  NH2 ARG d  16    1034.624 299.155-1006.189  0.00  0.00    -0.235 N 
ATOM    129 11HH ARG d  16    1033.190 296.584-1005.153  0.00  0.00     0.174 HD
ATOM    130 12HH ARG d  16    1034.050 297.893-1004.208  0.00  0.00     0.174 HD
ATOM    131 21HH ARG d  16    1034.809 299.599-1007.091  0.00  0.00     0.174 HD
ATOM    132 22HH ARG d  16    1034.915 299.510-1005.277  0.00  0.00     0.174 HD
ATOM    133  HE  ARG d  16    1033.846 298.141-1008.180  0.00  0.00     0.177 HD
ENDBRANCH 124 125
ENDBRANCH 123 124
ENDBRANCH 122 123
ENDBRANCH 119 122
ENDBRANCH 117 119
ENDBRANCH 114 115
BRANCH 114 134
ATOM    134  CB  MET d  15    1027.630 292.434-1011.876  0.00  0.00     0.045 C 
BRANCH 134 135
ATOM    135  CG  MET d  15    1026.468 291.435-1012.067  0.00  0.00     0.076 C 
BRANCH 135 136
ATOM    136  SD  MET d  15    1024.894 292.300-1011.951  0.00  0.00    -0.173 SA
ATOM    137  CE  MET d  15    1023.814 290.869-1011.814  0.00  0.00     0.089 C 
ENDBRANCH 135 136
ENDBRANCH 134 135
ENDBRANCH 114 134
ENDBRANCH 112 114
ENDBRANCH 109 110
BRANCH 109 138
ATOM    138  CB  VAL d  14    1030.078 287.763-1010.840  0.00  0.00     0.009 C 
ATOM    139  CG1 VAL d  14    1030.166 287.346-1012.334  0.00  0.00     0.012 C 
ATOM    140  CG2 VAL d  14    1030.512 286.511-1010.041  0.00  0.00     0.012 C 
ENDBRANCH 109 138
ENDBRANCH 107 109
ENDBRANCH 104 105
BRANCH 104 141
ATOM    141  CB  ARG d  13    1031.443 289.924-1006.102  0.00  0.00     0.036 C 
BRANCH 141 142
ATOM    142  CG  ARG d  13    1032.988 290.078-1006.023  0.00  0.00     0.023 C 
BRANCH 142 143
ATOM    143  CD  ARG d  13    1033.616 289.090-1005.026  0.00  0.00     0.138 C 
BRANCH 143 144
ATOM    144  NE  ARG d  13    1035.093 289.298-1004.977  0.00  0.00    -0.227 N 
ATOM    145  CZ  ARG d  13    1035.943 288.607-1004.224  0.00  0.00     0.665 C 
ATOM    146  NH1 ARG d  13    1035.579 287.642-1003.426  0.00  0.00    -0.235 N 
ATOM    147  NH2 ARG d  13    1037.202 288.906-1004.282  0.00  0.00    -0.235 N 
ATOM    148 11HH ARG d  13    1034.574 287.455-1003.429  0.00  0.00     0.174 HD
ATOM    149 12HH ARG d  13    1036.293 287.159-1002.879  0.00  0.00     0.174 HD
ATOM    150 21HH ARG d  13    1037.468 289.665-1004.913  0.00  0.00     0.174 HD
ATOM    151 22HH ARG d  13    1037.838 288.365-1003.694  0.00  0.00     0.174 HD
ATOM    152  HE  ARG d  13    1035.543 290.021-1005.548  0.00  0.00     0.177 HD
ENDBRANCH 143 144
ENDBRANCH 142 143
ENDBRANCH 141 142
ENDBRANCH 104 141
ENDBRANCH 102 104
ENDBRANCH  99 100
BRANCH  99 153
ATOM    153  CB  GLN d  12    1026.622 292.202-1006.099  0.00  0.00     0.044 C 
BRANCH 153 154
ATOM    154  CG  GLN d  12    1026.982 293.724-1006.068  0.00  0.00     0.105 C 
BRANCH 154 155
ATOM    155  CD  GLN d  12    1026.680 294.536-1004.802  0.00  0.00     0.215 C 
ATOM    156  NE2 GLN d  12    1026.114 293.959-1003.773  0.00  0.00    -0.370 N 
ATOM    157 21HE GLN d  12    1026.008 294.553-1002.949  0.00  0.00     0.159 HD
ATOM    158 22HE GLN d  12    1025.951 292.955-1003.877  0.00  0.00     0.159 HD
ATOM    159  OE1 GLN d  12    1026.981 295.717-1004.724  0.00  0.00    -0.274 OA
ENDBRANCH 154 155
ENDBRANCH 153 154
ENDBRANCH  99 153
ENDBRANCH  97  99
ENDBRANCH  94  95
BRANCH  94 160
ATOM    160  CB  VAL d  11    1024.776 287.689-1008.305  0.00  0.00     0.009 C 
ATOM    161  CG1 VAL d  11    1024.206 288.393-1009.567  0.00  0.00     0.012 C 
ATOM    162  CG2 VAL d  11    1024.252 286.234-1008.378  0.00  0.00     0.012 C 
ENDBRANCH  94 160
ENDBRANCH  92  94
ENDBRANCH  89  90
BRANCH  89 163
ATOM    163  CB  HIS d  10    1028.138 285.157-1005.064  0.00  0.00     0.095 C 
BRANCH 163 164
ATOM    164  CG  HIS d  10    1029.424 284.447-1004.758  0.00  0.00     0.053 A 
ATOM    165  CD2 HIS d  10    1029.806 284.112-1003.465  0.00  0.00     0.116 A 
ATOM    166  NE2 HIS d  10    1031.022 283.481-1003.534  0.00  0.00    -0.359 N 
ATOM    167  CE1 HIS d  10    1031.283 283.484-1004.869  0.00  0.00     0.207 A 
ATOM    168  2HE HIS d  10    1031.589 283.103-1002.761  0.00  0.00     0.166 HD
ATOM    169  ND1 HIS d  10    1030.375 284.042-1005.691  0.00  0.00    -0.247 NA
ENDBRANCH 163 164
ENDBRANCH  89 163
ENDBRANCH  87  89
ENDBRANCH   1  85
BRANCH   1 170
ATOM    170  CB  GLU d   9    1027.035 288.791-1001.375  0.00  0.00     0.045 C 
BRANCH 170 171
ATOM    171  CG  GLU d   9    1028.417 289.483-1001.147  0.00  0.00     0.116 C 
BRANCH 171 172
ATOM    172  CD  GLU d   9    1029.121 289.270-999.820  0.00  0.00     0.172 C 
ATOM    173  OE1 GLU d   9    1028.600 288.579-998.923  0.00  0.00    -0.648 OA
ATOM    174  OE2 GLU d   9    1030.240 289.808-999.689  0.00  0.00    -0.648 OA
ENDBRANCH 171 172
ENDBRANCH 170 171
ENDBRANCH   1 170
TORSDOF 70
