@<TRIPOS>MOLECULE
15-20
272 273 16              
SMALL
USER_CHARGES
@<TRIPOS>ATOM
1	   N	2490.318	764.607	-2595.479	N.3	1	GLU1	-0.516	
2	  CA	2490.877	765.956	-2595.479	C.3	1	GLU1	0.040	
3	   C	2492.386	765.916	-2595.479	C.2	1	GLU1	0.537	
4	   O	2493.062	766.615	-2596.248	O.2	1	GLU1	-0.582	
5	  CB	2490.354	766.741	-2594.242	C.3	1	GLU1	0.056	
6	  CG	2490.829	768.226	-2594.131	C.3	1	GLU1	0.014	
7	  CD	2490.405	769.030	-2592.916	C.2	1	GLU1	0.805	
8	 OE1	2489.677	768.528	-2592.038	O.co2	1	GLU1	-0.819	
9	 OE2	2490.835	770.200	-2592.844	O.co2	1	GLU1	-0.819	
10	   H	2490.945	763.728	-2595.479	 H	1	GLU1	0.294	
11	  HA	2490.551	766.474	-2596.399	 H	1	GLU1	0.111	
12	 2HB	2490.643	766.210	-2593.312	 H	1	GLU1	-0.017	
13	 3HB	2489.247	766.731	-2594.229	 H	1	GLU1	-0.017	
14	 2HG	2490.519	768.811	-2595.012	 H	1	GLU1	-0.043	
15	 3HG	2491.929	768.293	-2594.102	 H	1	GLU1	-0.043	
16	   N	2492.991	765.130	-2594.654	N.am	2	ASN2	-0.416	
17	  CA	2494.450	765.091	-2594.654	C.3	2	ASN2	0.014	
18	   C	2494.982	764.735	-2596.022	C.2	2	ASN2	0.597	
19	   O	2495.897	765.365	-2596.551	O.2	2	ASN2	-0.568	
20	  CB	2494.942	764.068	-2593.589	C.3	2	ASN2	-0.204	
21	  CG	2494.479	764.292	-2592.146	C.2	2	ASN2	0.713	
22	 ND2	2495.073	765.206	-2591.428	N.pl3	2	ASN2	-0.919	
23	 OD1	2493.557	763.658	-2591.652	O.2	2	ASN2	-0.593	
24	   H	2492.463	764.550	-2594.018	 H	2	ASN2	0.272	
25	  HA	2494.828	766.100	-2594.408	 H	2	ASN2	0.105	
26	 2HB	2496.046	764.009	-2593.593	 H	2	ASN2	0.080	
27	 3HB	2494.613	763.049	-2593.875	 H	2	ASN2	0.080	
28	1HD2	2494.592	765.380	-2590.541	 H	2	ASN2	0.420	
29	2HD2	2495.774	765.778	-2591.897	 H	2	ASN2	0.420	
30	   N	2494.460	763.740	-2596.657	N.am	3	PRO3	-0.255	
31	  CA	2494.912	763.331	-2597.978	C.3	3	PRO3	-0.027	
32	   C	2494.515	764.355	-2599.055	C.2	3	PRO3	0.590	
33	   O	2495.338	764.738	-2599.886	O.2	3	PRO3	-0.575	
34	  CB	2494.208	761.976	-2598.148	C.3	3	PRO3	-0.007	
35	  CG	2492.924	762.129	-2597.318	C.3	3	PRO3	0.019	
36	  CD	2493.382	762.947	-2596.108	C.3	3	PRO3	0.019	
37	  HA	2495.998	763.211	-2597.991	 H	3	PRO3	0.064	
38	 2HB	2494.831	761.195	-2597.707	 H	3	PRO3	0.025	
39	 3HB	2494.010	761.728	-2599.193	 H	3	PRO3	0.025	
40	 2HG	2492.497	761.167	-2597.027	 H	3	PRO3	0.021	
41	 3HG	2492.187	762.700	-2597.885	 H	3	PRO3	0.021	
42	 2HD	2493.771	762.298	-2595.321	 H	3	PRO3	0.039	
43	 3HD	2492.585	763.583	-2595.715	 H	3	PRO3	0.039	
44	   N	2493.310	764.815	-2599.088	N.am	4	GLU4	-0.516	
45	  CA	2492.951	765.786	-2600.118	C.3	4	GLU4	0.040	
46	   C	2493.850	766.997	-2600.056	C.2	4	GLU4	0.537	
47	   O	2494.377	767.476	-2601.070	O.2	4	GLU4	-0.582	
48	  CB	2491.462	766.205	-2599.948	C.3	4	GLU4	0.056	
49	  CG	2490.915	767.209	-2601.014	C.3	4	GLU4	0.014	
50	  CD	2489.488	767.706	-2600.871	C.2	4	GLU4	0.805	
51	 OE1	2488.761	767.307	-2599.940	O.co2	4	GLU4	-0.819	
52	 OE2	2489.099	768.535	-2601.719	O.co2	4	GLU4	-0.819	
53	   H	2492.625	764.508	-2598.411	 H	4	GLU4	0.294	
54	  HA	2493.082	765.315	-2601.109	 H	4	GLU4	0.111	
55	 2HB	2491.309	766.645	-2598.941	 H	4	GLU4	-0.017	
56	 3HB	2490.814	765.307	-2599.954	 H	4	GLU4	-0.017	
57	 2HG	2490.997	766.794	-2602.032	 H	4	GLU4	-0.043	
58	 3HG	2491.503	768.141	-2601.025	 H	4	GLU4	-0.043	
59	   N	2494.077	767.549	-2598.913	N.am	5	SER5	-0.416	
60	  CA	2494.947	768.720	-2598.854	C.3	5	SER5	-0.025	
61	   C	2496.306	768.414	-2599.439	C.2	5	SER5	0.597	
62	   O	2496.854	769.168	-2600.244	O.2	5	SER5	-0.568	
63	  CB	2495.058	769.252	-2597.404	C.3	5	SER5	0.212	
64	  OG	2495.789	768.373	-2596.542	O.3	5	SER5	-0.655	
65	   H	2493.659	767.178	-2598.072	 H	5	SER5	0.272	
66	  HA	2494.498	769.511	-2599.483	 H	5	SER5	0.084	
67	 2HB	2494.058	769.446	-2596.970	 H	5	SER5	0.035	
68	 3HB	2495.563	770.238	-2597.406	 H	5	SER5	0.035	
69	  HG	2495.300	767.548	-2596.492	 H	5	SER5	0.428	
70	   N	2496.910	767.331	-2599.085	N.am	6	ILE6	-0.416	
71	  CA	2498.223	767.035	-2599.651	C.3	6	ILE6	-0.060	
72	   C	2498.166	766.998	-2601.159	C.2	6	ILE6	0.597	
73	   O	2499.001	767.585	-2601.863	O.2	6	ILE6	-0.568	
74	  CB	2498.822	765.699	-2599.051	C.3	6	ILE6	0.130	
75	 CG1	2498.841	765.637	-2597.490	C.3	6	ILE6	-0.043	
76	 CG2	2500.263	765.397	-2599.566	C.3	6	ILE6	-0.320	
77	 CD1	2499.111	764.247	-2596.875	C.3	6	ILE6	-0.066	
78	   H	2496.481	766.697	-2598.426	 H	6	ILE6	0.272	
79	  HA	2498.897	767.869	-2599.383	 H	6	ILE6	0.087	
80	  HB	2498.164	764.873	-2599.395	 H	6	ILE6	0.019	
81	2HG1	2497.859	765.957	-2597.094	 H	6	ILE6	0.024	
82	3HG1	2499.557	766.379	-2597.085	 H	6	ILE6	0.024	
83	1HG2	2500.323	765.303	-2600.664	 H	6	ILE6	0.088	
84	2HG2	2500.986	766.179	-2599.263	 H	6	ILE6	0.088	
85	3HG2	2500.653	764.435	-2599.187	 H	6	ILE6	0.088	
86	1HD1	2498.382	763.494	-2597.229	 H	6	ILE6	0.019	
87	2HD1	2500.121	763.869	-2597.110	 H	6	ILE6	0.019	
88	3HD1	2499.034	764.278	-2595.772	 H	6	ILE6	0.019	
89	   N	2497.220	766.335	-2601.732	N.am	7	LEU7	-0.416	
90	  CA	2497.165	766.298	-2603.191	C.3	7	LEU7	-0.052	
91	   C	2497.093	767.694	-2603.764	C.2	7	LEU7	0.597	
92	   O	2497.814	768.055	-2604.706	O.2	7	LEU7	-0.568	
93	  CB	2495.962	765.439	-2603.671	C.3	7	LEU7	-0.110	
94	  CG	2495.888	763.959	-2603.205	C.3	7	LEU7	0.353	
95	 CD1	2494.698	763.254	-2603.870	C.3	7	LEU7	-0.412	
96	 CD2	2497.182	763.180	-2603.496	C.3	7	LEU7	-0.412	
97	   H	2496.528	765.848	-2601.181	 H	7	LEU7	0.272	
98	  HA	2498.107	765.858	-2603.565	 H	7	LEU7	0.092	
99	 2HB	2495.938	765.454	-2604.779	 H	7	LEU7	0.046	
100	 3HB	2495.022	765.941	-2603.367	 H	7	LEU7	0.046	
101	  HG	2495.719	763.951	-2602.107	 H	7	LEU7	-0.036	
102	1HD1	2493.741	763.763	-2603.647	 H	7	LEU7	0.100	
103	2HD1	2494.798	763.213	-2604.971	 H	7	LEU7	0.100	
104	3HD1	2494.591	762.213	-2603.514	 H	7	LEU7	0.100	
105	1HD2	2497.457	763.210	-2604.566	 H	7	LEU7	0.100	
106	2HD2	2498.035	763.591	-2602.925	 H	7	LEU7	0.100	
107	3HD2	2497.100	762.117	-2603.200	 H	7	LEU7	0.100	
108	   N	2496.256	768.535	-2603.258	N.am	8	ASP8	-0.516	
109	  CA	2496.186	769.884	-2603.812	C.3	8	ASP8	0.038	
110	   C	2497.533	770.563	-2603.755	C.2	8	ASP8	0.537	
111	   O	2498.006	771.167	-2604.730	O.2	8	ASP8	-0.582	
112	  CB	2495.109	770.724	-2603.071	C.3	8	ASP8	-0.030	
113	  CG	2494.891	772.145	-2603.612	C.2	8	ASP8	0.799	
114	 OD1	2494.955	772.343	-2604.843	O.co2	8	ASP8	-0.801	
115	 OD2	2494.699	773.071	-2602.797	O.co2	8	ASP8	-0.801	
116	   H	2495.658	768.265	-2602.490	 H	8	ASP8	0.294	
117	  HA	2495.903	769.806	-2604.879	 H	8	ASP8	0.088	
118	 2HB	2495.366	770.808	-2601.999	 H	8	ASP8	-0.012	
119	 3HB	2494.129	770.219	-2603.104	 H	8	ASP8	-0.012	
120	   N	2498.213	770.514	-2602.660	N.am	9	GLU9	-0.516	
121	  CA	2499.517	771.171	-2602.605	C.3	9	GLU9	0.040	
122	   C	2500.434	770.642	-2603.681	C.2	9	GLU9	0.537	
123	   O	2501.098	771.396	-2604.407	O.2	9	GLU9	-0.582	
124	  CB	2500.150	770.963	-2601.200	C.3	9	GLU9	0.056	
125	  CG	2501.533	771.655	-2600.971	C.3	9	GLU9	0.014	
126	  CD	2502.235	771.442	-2599.643	C.2	9	GLU9	0.805	
127	 OE1	2501.713	770.752	-2598.746	O.co2	9	GLU9	-0.819	
128	 OE2	2503.354	771.980	-2599.512	O.co2	9	GLU9	-0.819	
129	   H	2497.850	770.028	-2601.853	 H	9	GLU9	0.294	
130	  HA	2499.375	772.253	-2602.781	 H	9	GLU9	0.111	
131	 2HB	2500.262	769.879	-2600.996	 H	9	GLU9	-0.017	
132	 3HB	2499.453	771.318	-2600.416	 H	9	GLU9	-0.017	
133	 2HG	2501.461	772.746	-2601.111	 H	9	GLU9	-0.043	
134	 3HG	2502.280	771.310	-2601.705	 H	9	GLU9	-0.043	
135	   N	2500.530	769.367	-2603.850	N.am	10	HIS10	-0.416	
136	  CA	2501.417	768.854	-2604.890	C.3	10	HIS10	-0.058	
137	   C	2501.050	769.419	-2606.242	C.2	10	HIS10	0.597	
138	   O	2501.903	769.883	-2607.014	O.2	10	HIS10	-0.568	
139	  CB	2501.253	767.326	-2604.885	C.3	10	HIS10	-0.007	
140	  CG	2502.538	766.615	-2604.577	C.2	10	HIS10	0.187	
141	 CD2	2502.919	766.280	-2603.284	C.2	10	HIS10	-0.221	
142	 ND1	2503.490	766.208	-2605.509	N.2	10	HIS10	-0.543	
143	 CE1	2504.396	765.650	-2604.686	C.2	10	HIS10	0.163	
144	 NE2	2504.134	765.648	-2603.351	N.pl3	10	HIS10	-0.280	
145	   H	2499.999	768.732	-2603.271	 H	10	HIS10	0.272	
146	  HA	2502.437	769.212	-2604.666	 H	10	HIS10	0.136	
147	 2HB	2500.887	766.958	-2605.864	 H	10	HIS10	0.037	
148	 3HB	2500.497	766.989	-2604.144	 H	10	HIS10	0.037	
149	 2HD	2502.334	766.496	-2602.395	 H	10	HIS10	0.186	
150	 1HE	2505.287	765.228	-2605.133	 H	10	HIS10	0.144	
151	 2HE	2504.701	765.271	-2602.578	 H	10	HIS10	0.334	
152	   N	2499.812	769.418	-2606.604	N.am	11	VAL11	-0.416	
153	  CA	2499.457	769.964	-2607.912	C.3	11	VAL11	-0.087	
154	   C	2499.923	771.394	-2608.045	C.2	11	VAL11	0.597	
155	   O	2500.524	771.798	-2609.048	O.2	11	VAL11	-0.568	
156	  CB	2497.896	769.858	-2608.131	C.3	11	VAL11	0.299	
157	 CG1	2497.328	770.561	-2609.394	C.3	11	VAL11	-0.319	
158	 CG2	2497.371	768.404	-2608.203	C.3	11	VAL11	-0.319	
159	   H	2499.099	769.046	-2605.994	 H	11	VAL11	0.272	
160	  HA	2499.977	769.380	-2608.694	 H	11	VAL11	0.097	
161	  HB	2497.409	770.339	-2607.256	 H	11	VAL11	-0.030	
162	1HG1	2497.766	770.169	-2610.331	 H	11	VAL11	0.079	
163	2HG1	2496.229	770.454	-2609.476	 H	11	VAL11	0.079	
164	3HG1	2497.506	771.654	-2609.385	 H	11	VAL11	0.079	
165	1HG2	2497.660	767.817	-2607.312	 H	11	VAL11	0.079	
166	2HG2	2496.265	768.367	-2608.245	 H	11	VAL11	0.079	
167	3HG2	2497.752	767.862	-2609.089	 H	11	VAL11	0.079	
168	   N	2499.686	772.220	-2607.083	N.am	12	GLN12	-0.416	
169	  CA	2500.135	773.603	-2607.211	C.3	12	GLN12	-0.003	
170	   C	2501.625	773.669	-2607.449	C.2	12	GLN12	0.597	
171	   O	2502.113	774.377	-2608.328	O.2	12	GLN12	-0.568	
172	  CB	2499.745	774.371	-2605.928	C.3	12	GLN12	-0.004	
173	  CG	2500.106	775.893	-2605.898	C.3	12	GLN12	-0.064	
174	  CD	2499.805	776.707	-2604.634	C.2	12	GLN12	0.695	
175	 NE2	2499.238	776.132	-2603.604	N.pl3	12	GLN12	-0.941	
176	 OE1	2500.107	777.888	-2604.557	O.2	12	GLN12	-0.609	
177	   H	2499.198	771.915	-2606.253	 H	12	GLN12	0.272	
178	  HA	2499.636	774.059	-2608.086	 H	12	GLN12	0.085	
179	 2HB	2500.221	773.871	-2605.059	 H	12	GLN12	0.017	
180	 3HB	2498.655	774.265	-2605.765	 H	12	GLN12	0.017	
181	 2HG	2499.629	776.414	-2606.749	 H	12	GLN12	0.035	
182	 3HG	2501.190	776.034	-2606.064	 H	12	GLN12	0.035	
183	1HE2	2499.131	776.727	-2602.781	 H	12	GLN12	0.425	
184	2HE2	2499.073	775.128	-2603.707	 H	12	GLN12	0.425	
185	   N	2502.410	772.963	-2606.708	N.am	13	ARG13	-0.348	
186	  CA	2503.850	773.028	-2606.939	C.3	13	ARG13	-0.264	
187	   C	2504.186	772.655	-2608.364	C.2	13	ARG13	0.734	
188	   O	2504.955	773.326	-2609.049	O.2	13	ARG13	-0.589	
189	  CB	2504.563	772.089	-2605.925	C.3	13	ARG13	-0.001	
190	  CG	2506.108	772.242	-2605.844	C.3	13	ARG13	0.039	
191	  CD	2506.735	771.255	-2604.846	C.3	13	ARG13	0.049	
192	  NE	2508.212	771.462	-2604.796	N.pl3	13	ARG13	-0.530	
193	  CZ	2509.061	770.771	-2604.041	C.cat	13	ARG13	0.808	
194	 NH1	2508.696	769.807	-2603.242	N.pl3	13	ARG13	-0.863	
195	 NH2	2510.320	771.069	-2604.098	N.pl3	13	ARG13	-0.863	
196	   H	2502.033	772.373	-2605.979	 H	13	ARG13	0.275	
197	  HA	2504.175	774.074	-2606.781	 H	13	ARG13	0.156	
198	 2HB	2504.297	771.039	-2606.163	 H	13	ARG13	0.033	
199	 3HB	2504.138	772.257	-2604.914	 H	13	ARG13	0.033	
200	 2HG	2506.357	773.287	-2605.566	 H	13	ARG13	0.029	
201	 3HG	2506.559	772.085	-2606.846	 H	13	ARG13	0.029	
202	 2HD	2506.490	770.215	-2605.154	 H	13	ARG13	0.069	
203	 3HD	2506.280	771.402	-2603.843	 H	13	ARG13	0.069	
204	  HE	2508.664	772.183	-2605.367	 H	13	ARG13	0.346	
205	1HH1	2507.690	769.621	-2603.245	 H	13	ARG13	0.448	
206	2HH1	2509.409	769.324	-2602.693	 H	13	ARG13	0.448	
207	1HH2	2510.588	771.827	-2604.730	 H	13	ARG13	0.448	
208	2HH2	2510.956	770.528	-2603.509	 H	13	ARG13	0.448	
209	   N	2503.649	771.601	-2608.877	N.am	14	VAL14	-0.416	
210	  CA	2503.974	771.240	-2610.255	C.3	14	VAL14	-0.087	
211	   C	2503.644	772.370	-2611.201	C.2	14	VAL14	0.597	
212	   O	2504.437	772.751	-2612.071	O.2	14	VAL14	-0.568	
213	  CB	2503.201	769.923	-2610.661	C.3	14	VAL14	0.299	
214	 CG1	2503.289	769.504	-2612.154	C.3	14	VAL14	-0.319	
215	 CG2	2503.632	768.671	-2609.860	C.3	14	VAL14	-0.319	
216	   H	2503.014	771.032	-2608.335	 H	14	VAL14	0.272	
217	  HA	2505.062	771.063	-2610.330	 H	14	VAL14	0.097	
218	  HB	2502.125	770.095	-2610.445	 H	14	VAL14	-0.030	
219	1HG1	2504.331	769.327	-2612.483	 H	14	VAL14	0.079	
220	2HG1	2502.716	768.581	-2612.366	 H	14	VAL14	0.079	
221	3HG1	2502.860	770.266	-2612.833	 H	14	VAL14	0.079	
222	1HG2	2503.545	768.831	-2608.769	 H	14	VAL14	0.079	
223	2HG2	2502.996	767.795	-2610.091	 H	14	VAL14	0.079	
224	3HG2	2504.680	768.381	-2610.066	 H	14	VAL14	0.079	
225	   N	2502.499	772.956	-2611.099	N.am	15	ARG15	-0.348	
226	  CA	2502.180	774.049	-2612.014	C.3	15	ARG15	-0.264	
227	   C	2503.212	775.147	-2611.925	C.2	15	ARG15	0.734	
228	   O	2503.713	775.653	-2612.926	O.2	15	ARG15	-0.589	
229	  CB	2500.756	774.580	-2611.681	C.3	15	ARG15	-0.001	
230	  CG	2500.146	775.555	-2612.727	C.3	15	ARG15	0.039	
231	  CD	2498.756	776.059	-2612.304	C.3	15	ARG15	0.049	
232	  NE	2498.212	776.972	-2613.353	N.pl3	15	ARG15	-0.530	
233	  CZ	2497.035	777.588	-2613.301	C.cat	15	ARG15	0.808	
234	 NH1	2496.202	777.470	-2612.304	N.pl3	15	ARG15	-0.863	
235	 NH2	2496.694	778.348	-2614.293	N.pl3	15	ARG15	-0.863	
236	   H	2501.834	772.664	-2610.397	 H	15	ARG15	0.275	
237	  HA	2502.204	773.649	-2613.045	 H	15	ARG15	0.156	
238	 2HB	2500.780	775.060	-2610.681	 H	15	ARG15	0.033	
239	 3HB	2500.068	773.720	-2611.555	 H	15	ARG15	0.033	
240	 2HG	2500.092	775.046	-2613.711	 H	15	ARG15	0.029	
241	 3HG	2500.820	776.424	-2612.876	 H	15	ARG15	0.029	
242	 2HD	2498.836	776.582	-2611.325	 H	15	ARG15	0.069	
243	 3HD	2498.080	775.192	-2612.142	 H	15	ARG15	0.069	
244	  HE	2498.746	777.174	-2614.204	 H	15	ARG15	0.346	
245	1HH1	2496.532	776.859	-2611.554	 H	15	ARG15	0.448	
246	2HH1	2495.316	777.976	-2612.340	 H	15	ARG15	0.448	
247	1HH2	2497.359	778.429	-2615.064	 H	15	ARG15	0.448	
248	2HH2	2495.785	778.811	-2614.235	 H	15	ARG15	0.448	
249	   N	2503.580	775.567	-2610.761	N.am	16	ARG16	-0.348	
250	  CA	2504.579	776.629	-2610.676	C.3	16	ARG16	-0.264	
251	   C	2505.850	776.234	-2611.391	C.2	16	ARG16	0.734	
252	   O	2505.962	775.158	-2611.973	O.2	16	ARG16	-0.589	
253	  CB	2504.847	776.945	-2609.177	C.3	16	ARG16	-0.001	
254	  CG	2505.674	778.232	-2608.902	C.3	16	ARG16	0.039	
255	  CD	2505.923	778.449	-2607.400	C.3	16	ARG16	0.049	
256	  NE	2506.701	779.707	-2607.198	N.pl3	16	ARG16	-0.530	
257	  CZ	2507.092	780.187	-2606.021	C.cat	16	ARG16	0.808	
258	 NH1	2506.842	779.603	-2604.883	N.pl3	16	ARG16	-0.863	
259	 NH2	2507.758	781.299	-2606.001	N.pl3	16	ARG16	-0.863	
260	   H	2503.184	775.167	-2609.923	 H	16	ARG16	0.275	
261	  HA	2504.172	777.523	-2611.186	 H	16	ARG16	0.156	
262	 2HB	2505.342	776.068	-2608.711	 H	16	ARG16	0.033	
263	 3HB	2503.878	777.027	-2608.644	 H	16	ARG16	0.033	
264	 2HG	2505.146	779.104	-2609.339	 H	16	ARG16	0.029	
265	 3HG	2506.648	778.178	-2609.430	 H	16	ARG16	0.029	
266	 2HD	2506.469	777.573	-2606.987	 H	16	ARG16	0.069	
267	 3HD	2504.949	778.494	-2606.866	 H	16	ARG16	0.069	
268	  HE	2506.981	780.288	-2607.994	 H	16	ARG16	0.346	
269	1HH1	2506.315	778.731	-2604.969	 H	16	ARG16	0.448	
270	2HH1	2507.176	780.037	-2604.021	 H	16	ARG16	0.448	
271	1HH2	2507.945	781.742	-2606.902	 H	16	ARG16	0.448	
272	2HH2	2508.048	781.653	-2605.088	 H	16	ARG16	0.448	
@<TRIPOS>BOND
1 1 2 1
2 1 10 1
3 2 3 1
4 2 5 1
5 2 11 1
6 3 4 2
7 3 16 1
8 5 6 1
9 6 7 1
10 7 8 2
11 7 9 1
12 5 12 1
13 5 13 1
14 6 14 1
15 6 15 1
16 16 17 1
17 16 24 1
18 17 18 1
19 17 20 1
20 17 25 1
21 18 19 2
22 18 30 1
23 20 21 1
24 21 22 1
25 21 23 2
26 20 26 1
27 20 27 1
28 22 28 1
29 22 29 1
30 30 31 1
31 30 36 1
32 31 32 1
33 31 34 1
34 31 37 1
35 32 33 2
36 32 44 1
37 34 35 1
38 35 36 1
39 34 38 1
40 34 39 1
41 35 40 1
42 35 41 1
43 36 42 1
44 36 43 1
45 44 45 1
46 44 53 1
47 45 46 1
48 45 48 1
49 45 54 1
50 46 47 2
51 46 59 1
52 48 49 1
53 49 50 1
54 50 51 2
55 50 52 1
56 48 55 1
57 48 56 1
58 49 57 1
59 49 58 1
60 59 60 1
61 59 65 1
62 60 61 1
63 60 63 1
64 60 66 1
65 61 62 2
66 61 70 1
67 63 64 1
68 63 67 1
69 63 68 1
70 64 69 1
71 70 71 1
72 70 78 1
73 71 72 1
74 71 74 1
75 71 79 1
76 72 73 2
77 72 89 1
78 74 75 1
79 74 76 1
80 75 77 1
81 74 80 1
82 75 81 1
83 75 82 1
84 76 83 1
85 76 84 1
86 76 85 1
87 77 86 1
88 77 87 1
89 77 88 1
90 89 90 1
91 89 97 1
92 90 91 1
93 90 93 1
94 90 98 1
95 91 92 2
96 91 108 1
97 93 94 1
98 94 95 1
99 94 96 1
100 93 99 1
101 93 100 1
102 94 101 1
103 95 102 1
104 95 103 1
105 95 104 1
106 96 105 1
107 96 106 1
108 96 107 1
109 108 109 1
110 108 116 1
111 109 110 1
112 109 112 1
113 109 117 1
114 110 111 2
115 110 120 1
116 112 113 1
117 113 114 2
118 113 115 1
119 112 118 1
120 112 119 1
121 120 121 1
122 120 129 1
123 121 122 1
124 121 124 1
125 121 130 1
126 122 123 2
127 122 135 1
128 124 125 1
129 125 126 1
130 126 127 2
131 126 128 1
132 124 131 1
133 124 132 1
134 125 133 1
135 125 134 1
136 135 136 1
137 135 145 1
138 136 137 1
139 136 139 1
140 136 146 1
141 137 138 2
142 137 152 1
143 139 140 1
144 140 141 2
145 141 144 1
146 140 142 1
147 142 143 2
148 143 144 1
149 139 147 1
150 139 148 1
151 141 149 1
152 143 150 1
153 144 151 1
154 152 153 1
155 152 159 1
156 153 154 1
157 153 156 1
158 153 160 1
159 154 155 2
160 154 168 1
161 156 157 1
162 156 158 1
163 156 161 1
164 157 162 1
165 157 163 1
166 157 164 1
167 158 165 1
168 158 166 1
169 158 167 1
170 168 169 1
171 168 177 1
172 169 170 1
173 169 172 1
174 169 178 1
175 170 171 2
176 170 185 1
177 172 173 1
178 173 174 1
179 174 175 1
180 174 176 2
181 172 179 1
182 172 180 1
183 173 181 1
184 173 182 1
185 175 183 1
186 175 184 1
187 185 186 1
188 185 196 1
189 186 187 1
190 186 189 1
191 186 197 1
192 187 188 2
193 187 209 1
194 189 190 1
195 190 191 1
196 191 192 1
197 192 193 1
198 193 194 2
199 193 195 1
200 189 198 1
201 189 199 1
202 190 200 1
203 190 201 1
204 191 202 1
205 191 203 1
206 192 204 1
207 194 205 1
208 194 206 1
209 195 207 1
210 195 208 1
211 209 210 1
212 209 216 1
213 210 211 1
214 210 213 1
215 210 217 1
216 211 212 2
217 211 225 1
218 213 214 1
219 213 215 1
220 213 218 1
221 214 219 1
222 214 220 1
223 214 221 1
224 215 222 1
225 215 223 1
226 215 224 1
227 225 226 1
228 225 236 1
229 226 227 1
230 226 229 1
231 226 237 1
232 227 228 2
233 227 249 1
234 229 230 1
235 230 231 1
236 231 232 1
237 232 233 1
238 233 234 2
239 233 235 1
240 229 238 1
241 229 239 1
242 230 240 1
243 230 241 1
244 231 242 1
245 231 243 1
246 232 244 1
247 234 245 1
248 234 246 1
249 235 247 1
250 235 248 1
251 249 250 1
252 249 260 1
253 250 251 1
254 250 253 1
255 250 261 1
256 251 252 2
257 253 254 1
258 254 255 1
259 255 256 1
260 256 257 1
261 257 258 2
262 257 259 1
263 253 262 1
264 253 263 1
265 254 264 1
266 254 265 1
267 255 266 1
268 255 267 1
269 256 268 1
270 258 269 1
271 258 270 1
272 259 271 1
273 259 272 1
@<TRIPOS>SUBSTRUCTURE
1	GLU1	1	RESIDUE	1 ****	GLU
2	ASN2	16	RESIDUE	1 ****	ASN
3	PRO3	30	RESIDUE	1 ****	PRO
4	GLU4	44	RESIDUE	1 ****	GLU
5	SER5	59	RESIDUE	1 ****	SER
6	ILE6	70	RESIDUE	1 ****	ILE
7	LEU7	89	RESIDUE	1 ****	LEU
8	ASP8	108	RESIDUE	1 ****	ASP
9	GLU9	120	RESIDUE	1 ****	GLU
10	HIS10	135	RESIDUE	1 ****	HIS
11	VAL11	152	RESIDUE	1 ****	VAL
12	GLN12	168	RESIDUE	1 ****	GLN
13	ARG13	185	RESIDUE	1 ****	ARG
14	VAL14	209	RESIDUE	1 ****	VAL
15	ARG15	225	RESIDUE	1 ****	ARG
16	ARG16	249	RESIDUE	1 ****	ARG
