@<TRIPOS>MOLECULE
5-14
268 269 16              
SMALL
USER_CHARGES
@<TRIPOS>ATOM
1	   N	803.234	212.371	-763.729	N.3	1	GLU1	-0.516	
2	  CA	803.793	213.720	-763.729	C.3	1	GLU1	0.040	
3	   C	805.302	213.680	-763.729	C.2	1	GLU1	0.537	
4	   O	805.978	214.379	-764.497	O.2	1	GLU1	-0.582	
5	  CB	803.270	214.505	-762.492	C.3	1	GLU1	0.056	
6	  CG	803.745	215.990	-762.381	C.3	1	GLU1	0.014	
7	  CD	803.321	216.794	-761.166	C.2	1	GLU1	0.805	
8	 OE1	802.593	216.292	-760.288	O.co2	1	GLU1	-0.819	
9	 OE2	803.751	217.964	-761.094	O.co2	1	GLU1	-0.819	
10	   H	803.861	211.492	-763.729	 H	1	GLU1	0.294	
11	  HA	803.467	214.238	-764.649	 H	1	GLU1	0.111	
12	 2HB	803.559	213.974	-761.562	 H	1	GLU1	-0.017	
13	 3HB	802.163	214.495	-762.479	 H	1	GLU1	-0.017	
14	 2HG	803.435	216.575	-763.262	 H	1	GLU1	-0.043	
15	 3HG	804.845	216.057	-762.352	 H	1	GLU1	-0.043	
16	   N	805.906	212.894	-762.903	N.am	2	ASN2	-0.416	
17	  CA	807.366	212.855	-762.903	C.3	2	ASN2	0.014	
18	   C	807.897	212.500	-764.272	C.2	2	ASN2	0.597	
19	   O	808.812	213.131	-764.801	O.2	2	ASN2	-0.568	
20	  CB	807.858	211.832	-761.839	C.3	2	ASN2	-0.204	
21	  CG	807.395	212.056	-760.396	C.2	2	ASN2	0.713	
22	 ND2	807.989	212.971	-759.678	N.pl3	2	ASN2	-0.919	
23	 OD1	806.474	211.422	-759.902	O.2	2	ASN2	-0.593	
24	   H	805.378	212.314	-762.267	 H	2	ASN2	0.272	
25	  HA	807.743	213.865	-762.658	 H	2	ASN2	0.105	
26	 2HB	808.962	211.773	-761.843	 H	2	ASN2	0.080	
27	 3HB	807.529	210.814	-762.125	 H	2	ASN2	0.080	
28	1HD2	807.508	213.144	-758.791	 H	2	ASN2	0.420	
29	2HD2	808.691	213.543	-760.147	 H	2	ASN2	0.420	
30	   N	807.376	211.505	-764.906	N.am	3	PRO3	-0.255	
31	  CA	807.828	211.096	-766.228	C.3	3	PRO3	-0.027	
32	   C	807.429	212.119	-767.305	C.2	3	PRO3	0.590	
33	   O	808.253	212.502	-768.136	O.2	3	PRO3	-0.575	
34	  CB	807.124	209.741	-766.397	C.3	3	PRO3	-0.007	
35	  CG	805.840	209.893	-765.567	C.3	3	PRO3	0.019	
36	  CD	806.298	210.712	-764.357	C.3	3	PRO3	0.019	
37	  HA	808.914	210.976	-766.242	 H	3	PRO3	0.064	
38	 2HB	807.747	208.960	-765.956	 H	3	PRO3	0.025	
39	 3HB	806.926	209.492	-767.443	 H	3	PRO3	0.025	
40	 2HG	805.413	208.930	-765.276	 H	3	PRO3	0.021	
41	 3HG	805.103	210.464	-766.134	 H	3	PRO3	0.021	
42	 2HD	806.687	210.062	-763.570	 H	3	PRO3	0.039	
43	 3HD	805.501	211.347	-763.964	 H	3	PRO3	0.039	
44	   N	806.225	212.579	-767.337	N.am	4	GLU4	-0.516	
45	  CA	805.865	213.550	-768.367	C.3	4	GLU4	0.040	
46	   C	806.764	214.761	-768.306	C.2	4	GLU4	0.537	
47	   O	807.290	215.241	-769.320	O.2	4	GLU4	-0.582	
48	  CB	804.376	213.968	-768.197	C.3	4	GLU4	0.056	
49	  CG	803.828	214.972	-769.262	C.3	4	GLU4	0.014	
50	  CD	802.401	215.468	-769.119	C.2	4	GLU4	0.805	
51	 OE1	801.675	215.070	-768.188	O.co2	4	GLU4	-0.819	
52	 OE2	802.012	216.297	-769.967	O.co2	4	GLU4	-0.819	
53	   H	805.540	212.272	-766.660	 H	4	GLU4	0.294	
54	  HA	805.996	213.079	-769.358	 H	4	GLU4	0.111	
55	 2HB	804.224	214.408	-767.190	 H	4	GLU4	-0.017	
56	 3HB	803.729	213.070	-768.203	 H	4	GLU4	-0.017	
57	 2HG	803.910	214.557	-770.280	 H	4	GLU4	-0.043	
58	 3HG	804.416	215.904	-769.273	 H	4	GLU4	-0.043	
59	   N	806.991	215.314	-767.162	N.am	5	THR5	-0.416	
60	  CA	807.860	216.485	-767.104	C.3	5	THR5	-0.039	
61	   C	809.218	216.181	-767.688	C.2	5	THR5	0.597	
62	   O	809.758	216.926	-768.482	O.2	5	THR5	-0.568	
63	  CB	807.993	216.997	-765.630	C.3	5	THR5	0.365	
64	 CG2	808.895	218.231	-765.413	C.3	5	THR5	-0.244	
65	 OG1	806.725	217.389	-765.120	O.3	5	THR5	-0.676	
66	   H	806.574	214.942	-766.321	 H	5	THR5	0.272	
67	  HA	807.408	217.285	-767.717	 H	5	THR5	0.101	
68	  HB	808.384	216.165	-765.005	 H	5	THR5	0.004	
69	 1HG	806.868	217.622	-764.198	 H	5	THR5	0.410	
70	1HG2	808.922	218.547	-764.353	 H	5	THR5	0.064	
71	2HG2	809.948	218.041	-765.695	 H	5	THR5	0.064	
72	3HG2	808.551	219.100	-766.005	 H	5	THR5	0.064	
73	   N	809.824	215.099	-767.334	N.am	6	ILE6	-0.416	
74	  CA	811.138	214.806	-767.900	C.3	6	ILE6	-0.060	
75	   C	811.081	214.769	-769.408	C.2	6	ILE6	0.597	
76	   O	811.916	215.358	-770.111	O.2	6	ILE6	-0.568	
77	  CB	811.739	213.470	-767.300	C.3	6	ILE6	0.130	
78	 CG1	811.757	213.407	-765.739	C.3	6	ILE6	-0.043	
79	 CG2	813.181	213.170	-767.815	C.3	6	ILE6	-0.320	
80	 CD1	812.029	212.018	-765.125	C.3	6	ILE6	-0.066	
81	   H	809.396	214.464	-766.676	 H	6	ILE6	0.272	
82	  HA	811.811	215.641	-767.631	 H	6	ILE6	0.087	
83	  HB	811.082	212.643	-767.645	 H	6	ILE6	0.019	
84	2HG1	810.775	213.726	-765.344	 H	6	ILE6	0.024	
85	3HG1	812.472	214.150	-765.334	 H	6	ILE6	0.024	
86	1HG2	813.240	213.077	-768.913	 H	6	ILE6	0.088	
87	2HG2	813.902	213.953	-767.512	 H	6	ILE6	0.088	
88	3HG2	813.572	212.208	-767.436	 H	6	ILE6	0.088	
89	1HD1	811.301	211.263	-765.480	 H	6	ILE6	0.019	
90	2HD1	813.040	211.640	-765.360	 H	6	ILE6	0.019	
91	3HD1	811.952	212.047	-764.022	 H	6	ILE6	0.019	
92	   N	810.137	214.105	-769.982	N.am	7	LEU7	-0.416	
93	  CA	810.082	214.069	-771.441	C.3	7	LEU7	-0.052	
94	   C	810.009	215.465	-772.013	C.2	7	LEU7	0.597	
95	   O	810.729	215.829	-772.954	O.2	7	LEU7	-0.568	
96	  CB	808.880	213.208	-771.922	C.3	7	LEU7	-0.110	
97	  CG	808.809	211.728	-771.456	C.3	7	LEU7	0.353	
98	 CD1	807.620	211.021	-772.123	C.3	7	LEU7	-0.412	
99	 CD2	810.104	210.950	-771.747	C.3	7	LEU7	-0.412	
100	   H	809.445	213.616	-769.431	 H	7	LEU7	0.272	
101	  HA	811.025	213.630	-771.815	 H	7	LEU7	0.092	
102	 2HB	808.858	213.224	-773.029	 H	7	LEU7	0.046	
103	 3HB	807.940	213.709	-771.618	 H	7	LEU7	0.046	
104	  HG	808.639	211.719	-770.359	 H	7	LEU7	-0.036	
105	1HD1	806.662	211.529	-771.900	 H	7	LEU7	0.100	
106	2HD1	807.720	210.981	-773.224	 H	7	LEU7	0.100	
107	3HD1	807.514	209.980	-771.767	 H	7	LEU7	0.100	
108	1HD2	810.379	210.981	-772.817	 H	7	LEU7	0.100	
109	2HD2	810.956	211.363	-771.176	 H	7	LEU7	0.100	
110	3HD2	810.023	209.888	-771.452	 H	7	LEU7	0.100	
111	   N	809.170	216.304	-771.506	N.am	8	ASP8	-0.516	
112	  CA	809.098	217.654	-772.059	C.3	8	ASP8	0.038	
113	   C	810.444	218.335	-772.001	C.2	8	ASP8	0.537	
114	   O	810.917	218.941	-772.975	O.2	8	ASP8	-0.582	
115	  CB	808.019	218.491	-771.318	C.3	8	ASP8	-0.030	
116	  CG	807.799	219.912	-771.858	C.2	8	ASP8	0.799	
117	 OD1	807.863	220.111	-773.088	O.co2	8	ASP8	-0.801	
118	 OD2	807.605	220.837	-771.042	O.co2	8	ASP8	-0.801	
119	   H	808.572	216.032	-770.739	 H	8	ASP8	0.294	
120	  HA	808.816	217.576	-773.126	 H	8	ASP8	0.088	
121	 2HB	808.276	218.574	-770.245	 H	8	ASP8	-0.012	
122	 3HB	807.041	217.985	-771.351	 H	8	ASP8	-0.012	
123	   N	811.123	218.286	-770.905	N.am	9	GLU9	-0.516	
124	  CA	812.425	218.945	-770.849	C.3	9	GLU9	0.040	
125	   C	813.345	218.418	-771.924	C.2	9	GLU9	0.537	
126	   O	814.008	219.174	-772.649	O.2	9	GLU9	-0.582	
127	  CB	813.058	218.737	-769.443	C.3	9	GLU9	0.056	
128	  CG	814.440	219.431	-769.213	C.3	9	GLU9	0.014	
129	  CD	815.141	219.218	-767.884	C.2	9	GLU9	0.805	
130	 OE1	814.620	218.526	-766.988	O.co2	9	GLU9	-0.819	
131	 OE2	816.260	219.757	-767.751	O.co2	9	GLU9	-0.819	
132	   H	810.760	217.798	-770.099	 H	9	GLU9	0.294	
133	  HA	812.282	220.026	-771.024	 H	9	GLU9	0.111	
134	 2HB	813.172	217.652	-769.240	 H	9	GLU9	-0.017	
135	 3HB	812.360	219.089	-768.659	 H	9	GLU9	-0.017	
136	 2HG	814.367	220.521	-769.352	 H	9	GLU9	-0.043	
137	 3HG	815.187	219.087	-769.946	 H	9	GLU9	-0.043	
138	   N	813.443	217.143	-772.094	N.am	10	HIS10	-0.416	
139	  CA	814.332	216.634	-773.134	C.3	10	HIS10	-0.058	
140	   C	813.966	217.199	-774.485	C.2	10	HIS10	0.597	
141	   O	814.818	217.665	-775.256	O.2	10	HIS10	-0.568	
142	  CB	814.170	215.105	-773.130	C.3	10	HIS10	-0.007	
143	  CG	815.457	214.396	-772.822	C.2	10	HIS10	0.187	
144	 CD2	815.837	214.060	-771.529	C.2	10	HIS10	-0.221	
145	 ND1	816.410	213.992	-773.754	N.2	10	HIS10	-0.543	
146	 CE1	817.316	213.434	-772.930	C.2	10	HIS10	0.163	
147	 NE2	817.053	213.430	-771.595	N.pl3	10	HIS10	-0.280	
148	   H	812.913	216.507	-771.516	 H	10	HIS10	0.272	
149	  HA	815.351	216.992	-772.908	 H	10	HIS10	0.136	
150	 2HB	813.806	214.738	-774.111	 H	10	HIS10	0.037	
151	 3HB	813.414	214.766	-772.391	 H	10	HIS10	0.037	
152	 2HD	815.251	214.274	-770.640	 H	10	HIS10	0.186	
153	 1HE	818.208	213.015	-773.377	 H	10	HIS10	0.144	
154	 2HE	817.619	213.053	-770.822	 H	10	HIS10	0.334	
155	   N	812.728	217.196	-774.849	N.am	11	VAL11	-0.416	
156	  CA	812.373	217.743	-776.156	C.3	11	VAL11	-0.087	
157	   C	812.836	219.174	-776.287	C.2	11	VAL11	0.597	
158	   O	813.437	219.580	-777.290	O.2	11	VAL11	-0.568	
159	  CB	810.812	217.634	-776.376	C.3	11	VAL11	0.299	
160	 CG1	810.243	218.338	-777.639	C.3	11	VAL11	-0.319	
161	 CG2	810.289	216.179	-776.451	C.3	11	VAL11	-0.319	
162	   H	812.015	216.822	-774.239	 H	11	VAL11	0.272	
163	  HA	812.894	217.161	-776.938	 H	11	VAL11	0.097	
164	  HB	810.323	218.113	-775.501	 H	11	VAL11	-0.030	
165	1HG1	810.683	217.947	-778.576	 H	11	VAL11	0.079	
166	2HG1	809.145	218.229	-777.722	 H	11	VAL11	0.079	
167	3HG1	810.420	219.430	-777.629	 H	11	VAL11	0.079	
168	1HG2	810.579	215.592	-775.560	 H	11	VAL11	0.079	
169	2HG2	809.184	216.141	-776.494	 H	11	VAL11	0.079	
170	3HG2	810.672	215.639	-777.337	 H	11	VAL11	0.079	
171	   N	812.597	219.999	-775.325	N.am	12	GLN12	-0.416	
172	  CA	813.044	221.382	-775.451	C.3	12	GLN12	-0.003	
173	   C	814.534	221.452	-775.688	C.2	12	GLN12	0.597	
174	   O	815.020	222.161	-776.566	O.2	12	GLN12	-0.568	
175	  CB	812.651	222.149	-774.168	C.3	12	GLN12	-0.004	
176	  CG	813.009	223.671	-774.136	C.3	12	GLN12	-0.064	
177	  CD	812.705	224.483	-772.871	C.2	12	GLN12	0.695	
178	 NE2	812.138	223.906	-771.843	N.pl3	12	GLN12	-0.941	
179	 OE1	813.005	225.665	-772.793	O.2	12	GLN12	-0.609	
180	   H	812.108	219.692	-774.496	 H	12	GLN12	0.272	
181	  HA	812.544	221.838	-776.326	 H	12	GLN12	0.085	
182	 2HB	813.127	221.649	-773.299	 H	12	GLN12	0.017	
183	 3HB	811.561	222.040	-774.005	 H	12	GLN12	0.017	
184	 2HG	812.531	224.191	-774.987	 H	12	GLN12	0.035	
185	 3HG	814.092	223.814	-774.301	 H	12	GLN12	0.035	
186	1HE2	812.029	224.499	-771.019	 H	12	GLN12	0.425	
187	2HE2	811.976	222.902	-771.947	 H	12	GLN12	0.425	
188	   N	815.319	220.746	-774.947	N.am	13	ARG13	-0.348	
189	  CA	816.759	220.814	-775.177	C.3	13	ARG13	-0.264	
190	   C	817.096	220.443	-776.602	C.2	13	ARG13	0.734	
191	   O	817.865	221.116	-777.285	O.2	13	ARG13	-0.589	
192	  CB	817.473	219.875	-774.163	C.3	13	ARG13	-0.001	
193	  CG	819.018	220.030	-774.081	C.3	13	ARG13	0.039	
194	  CD	819.645	219.043	-773.083	C.3	13	ARG13	0.049	
195	  NE	821.122	219.252	-773.032	N.pl3	13	ARG13	-0.530	
196	  CZ	821.971	218.561	-772.277	C.cat	13	ARG13	0.808	
197	 NH1	821.606	217.596	-771.480	N.pl3	13	ARG13	-0.863	
198	 NH2	823.230	218.862	-772.333	N.pl3	13	ARG13	-0.863	
199	   H	814.943	220.155	-774.219	 H	13	ARG13	0.275	
200	  HA	817.082	221.860	-775.018	 H	13	ARG13	0.156	
201	 2HB	817.208	218.824	-774.403	 H	13	ARG13	0.033	
202	 3HB	817.047	220.040	-773.153	 H	13	ARG13	0.033	
203	 2HG	819.264	221.075	-773.801	 H	13	ARG13	0.029	
204	 3HG	819.469	219.875	-775.082	 H	13	ARG13	0.029	
205	 2HD	819.403	218.002	-773.393	 H	13	ARG13	0.069	
206	 3HD	819.188	219.187	-772.081	 H	13	ARG13	0.069	
207	  HE	821.573	219.975	-773.602	 H	13	ARG13	0.346	
208	1HH1	820.601	217.408	-771.484	 H	13	ARG13	0.448	
209	2HH1	822.320	217.113	-770.931	 H	13	ARG13	0.448	
210	1HH2	823.497	219.620	-772.963	 H	13	ARG13	0.448	
211	2HH2	823.865	218.321	-771.744	 H	13	ARG13	0.448	
212	   N	816.562	219.388	-777.117	N.am	14	VAL14	-0.416	
213	  CA	816.888	219.030	-778.495	C.3	14	VAL14	-0.087	
214	   C	816.557	220.160	-779.440	C.2	14	VAL14	0.597	
215	   O	817.351	220.543	-780.309	O.2	14	VAL14	-0.568	
216	  CB	816.118	217.712	-778.903	C.3	14	VAL14	0.299	
217	 CG1	816.208	217.295	-780.396	C.3	14	VAL14	-0.319	
218	 CG2	816.551	216.460	-778.103	C.3	14	VAL14	-0.319	
219	   H	815.928	218.819	-776.576	 H	14	VAL14	0.272	
220	  HA	817.977	218.855	-778.569	 H	14	VAL14	0.097	
221	  HB	815.041	217.882	-778.687	 H	14	VAL14	-0.030	
222	1HG1	817.250	217.120	-780.725	 H	14	VAL14	0.079	
223	2HG1	815.637	216.371	-780.610	 H	14	VAL14	0.079	
224	3HG1	815.778	218.057	-781.074	 H	14	VAL14	0.079	
225	1HG2	816.463	216.618	-777.012	 H	14	VAL14	0.079	
226	2HG2	815.916	215.583	-778.336	 H	14	VAL14	0.079	
227	3HG2	817.599	216.172	-778.308	 H	14	VAL14	0.079	
228	   N	815.411	220.745	-779.338	N.am	15	MET15	-0.416	
229	  CA	815.090	221.838	-780.252	C.3	15	MET15	-0.024	
230	   C	816.119	222.939	-780.163	C.2	15	MET15	0.597	
231	   O	816.621	223.451	-781.175	O.2	15	MET15	-0.568	
232	  CB	813.668	222.381	-779.943	C.3	15	MET15	0.034	
233	  CG	812.507	221.382	-780.136	C.3	15	MET15	0.002	
234	  SD	810.932	222.246	-780.022	S.3	15	MET15	-0.274	
235	  CE	809.853	220.815	-779.887	C.3	15	MET15	-0.054	
236	   H	814.747	220.451	-778.637	 H	15	MET15	0.272	
237	  HA	815.117	221.451	-781.287	 H	15	MET15	0.088	
238	 2HB	813.465	223.260	-780.585	 H	15	MET15	0.024	
239	 3HB	813.631	222.773	-778.907	 H	15	MET15	0.024	
240	 2HG	812.551	220.596	-779.359	 H	15	MET15	0.044	
241	 3HG	812.571	220.867	-781.112	 H	15	MET15	0.044	
242	 1HE	809.998	220.127	-780.739	 H	15	MET15	0.068	
243	 2HE	810.062	220.262	-778.954	 H	15	MET15	0.068	
244	 3HE	808.795	221.128	-779.870	 H	15	MET15	0.068	
245	   N	816.486	223.359	-779.000	N.am	16	ARG16	-0.348	
246	  CA	817.482	224.425	-778.915	C.3	16	ARG16	-0.264	
247	   C	818.753	224.034	-779.631	C.2	16	ARG16	0.734	
248	   O	818.869	222.958	-780.213	O.2	16	ARG16	-0.589	
249	  CB	817.749	224.742	-777.416	C.3	16	ARG16	-0.001	
250	  CG	818.573	226.032	-777.142	C.3	16	ARG16	0.039	
251	  CD	818.821	226.251	-775.641	C.3	16	ARG16	0.049	
252	  NE	819.595	227.511	-775.439	N.pl3	16	ARG16	-0.530	
253	  CZ	819.985	227.993	-774.262	C.cat	16	ARG16	0.808	
254	 NH1	819.738	227.407	-773.124	N.pl3	16	ARG16	-0.863	
255	 NH2	820.648	229.106	-774.243	N.pl3	16	ARG16	-0.863	
256	   H	816.092	222.958	-778.161	 H	16	ARG16	0.275	
257	  HA	817.072	225.317	-779.425	 H	16	ARG16	0.156	
258	 2HB	818.247	223.866	-776.950	 H	16	ARG16	0.033	
259	 3HB	816.780	224.821	-776.883	 H	16	ARG16	0.033	
260	 2HG	818.041	226.902	-777.579	 H	16	ARG16	0.029	
261	 3HG	819.547	225.981	-777.671	 H	16	ARG16	0.029	
262	 2HD	819.371	225.377	-775.228	 H	16	ARG16	0.069	
263	 3HD	817.848	226.292	-775.106	 H	16	ARG16	0.069	
264	  HE	819.874	228.092	-776.235	 H	16	ARG16	0.346	
265	1HH1	819.213	226.534	-773.210	 H	16	ARG16	0.448	
266	2HH1	820.071	227.843	-772.263	 H	16	ARG16	0.448	
267	1HH2	820.833	229.550	-775.144	 H	16	ARG16	0.448	
268	2HH2	820.937	229.461	-773.330	 H	16	ARG16	0.448	
@<TRIPOS>BOND
1 1 2 1
2 1 10 1
3 2 3 1
4 2 5 1
5 2 11 1
6 3 4 2
7 3 16 1
8 5 6 1
9 6 7 1
10 7 8 2
11 7 9 1
12 5 12 1
13 5 13 1
14 6 14 1
15 6 15 1
16 16 17 1
17 16 24 1
18 17 18 1
19 17 20 1
20 17 25 1
21 18 19 2
22 18 30 1
23 20 21 1
24 21 22 1
25 21 23 2
26 20 26 1
27 20 27 1
28 22 28 1
29 22 29 1
30 30 31 1
31 30 36 1
32 31 32 1
33 31 34 1
34 31 37 1
35 32 33 2
36 32 44 1
37 34 35 1
38 35 36 1
39 34 38 1
40 34 39 1
41 35 40 1
42 35 41 1
43 36 42 1
44 36 43 1
45 44 45 1
46 44 53 1
47 45 46 1
48 45 48 1
49 45 54 1
50 46 47 2
51 46 59 1
52 48 49 1
53 49 50 1
54 50 51 2
55 50 52 1
56 48 55 1
57 48 56 1
58 49 57 1
59 49 58 1
60 59 60 1
61 59 66 1
62 60 61 1
63 60 63 1
64 60 67 1
65 61 62 2
66 61 73 1
67 63 64 1
68 63 65 1
69 63 68 1
70 65 69 1
71 64 70 1
72 64 71 1
73 64 72 1
74 73 74 1
75 73 81 1
76 74 75 1
77 74 77 1
78 74 82 1
79 75 76 2
80 75 92 1
81 77 78 1
82 77 79 1
83 78 80 1
84 77 83 1
85 78 84 1
86 78 85 1
87 79 86 1
88 79 87 1
89 79 88 1
90 80 89 1
91 80 90 1
92 80 91 1
93 92 93 1
94 92 100 1
95 93 94 1
96 93 96 1
97 93 101 1
98 94 95 2
99 94 111 1
100 96 97 1
101 97 98 1
102 97 99 1
103 96 102 1
104 96 103 1
105 97 104 1
106 98 105 1
107 98 106 1
108 98 107 1
109 99 108 1
110 99 109 1
111 99 110 1
112 111 112 1
113 111 119 1
114 112 113 1
115 112 115 1
116 112 120 1
117 113 114 2
118 113 123 1
119 115 116 1
120 116 117 2
121 116 118 1
122 115 121 1
123 115 122 1
124 123 124 1
125 123 132 1
126 124 125 1
127 124 127 1
128 124 133 1
129 125 126 2
130 125 138 1
131 127 128 1
132 128 129 1
133 129 130 2
134 129 131 1
135 127 134 1
136 127 135 1
137 128 136 1
138 128 137 1
139 138 139 1
140 138 148 1
141 139 140 1
142 139 142 1
143 139 149 1
144 140 141 2
145 140 155 1
146 142 143 1
147 143 144 2
148 144 147 1
149 143 145 1
150 145 146 2
151 146 147 1
152 142 150 1
153 142 151 1
154 144 152 1
155 146 153 1
156 147 154 1
157 155 156 1
158 155 162 1
159 156 157 1
160 156 159 1
161 156 163 1
162 157 158 2
163 157 171 1
164 159 160 1
165 159 161 1
166 159 164 1
167 160 165 1
168 160 166 1
169 160 167 1
170 161 168 1
171 161 169 1
172 161 170 1
173 171 172 1
174 171 180 1
175 172 173 1
176 172 175 1
177 172 181 1
178 173 174 2
179 173 188 1
180 175 176 1
181 176 177 1
182 177 178 1
183 177 179 2
184 175 182 1
185 175 183 1
186 176 184 1
187 176 185 1
188 178 186 1
189 178 187 1
190 188 189 1
191 188 199 1
192 189 190 1
193 189 192 1
194 189 200 1
195 190 191 2
196 190 212 1
197 192 193 1
198 193 194 1
199 194 195 1
200 195 196 1
201 196 197 2
202 196 198 1
203 192 201 1
204 192 202 1
205 193 203 1
206 193 204 1
207 194 205 1
208 194 206 1
209 195 207 1
210 197 208 1
211 197 209 1
212 198 210 1
213 198 211 1
214 212 213 1
215 212 219 1
216 213 214 1
217 213 216 1
218 213 220 1
219 214 215 2
220 214 228 1
221 216 217 1
222 216 218 1
223 216 221 1
224 217 222 1
225 217 223 1
226 217 224 1
227 218 225 1
228 218 226 1
229 218 227 1
230 228 229 1
231 228 236 1
232 229 230 1
233 229 232 1
234 229 237 1
235 230 231 2
236 230 245 1
237 232 233 1
238 233 234 1
239 234 235 1
240 232 238 1
241 232 239 1
242 233 240 1
243 233 241 1
244 235 242 1
245 235 243 1
246 235 244 1
247 245 246 1
248 245 256 1
249 246 247 1
250 246 249 1
251 246 257 1
252 247 248 2
253 249 250 1
254 250 251 1
255 251 252 1
256 252 253 1
257 253 254 2
258 253 255 1
259 249 258 1
260 249 259 1
261 250 260 1
262 250 261 1
263 251 262 1
264 251 263 1
265 252 264 1
266 254 265 1
267 254 266 1
268 255 267 1
269 255 268 1
@<TRIPOS>SUBSTRUCTURE
1	GLU1	1	RESIDUE	1 ****	GLU
2	ASN2	16	RESIDUE	1 ****	ASN
3	PRO3	30	RESIDUE	1 ****	PRO
4	GLU4	44	RESIDUE	1 ****	GLU
5	THR5	59	RESIDUE	1 ****	THR
6	ILE6	73	RESIDUE	1 ****	ILE
7	LEU7	92	RESIDUE	1 ****	LEU
8	ASP8	111	RESIDUE	1 ****	ASP
9	GLU9	123	RESIDUE	1 ****	GLU
10	HIS10	138	RESIDUE	1 ****	HIS
11	VAL11	155	RESIDUE	1 ****	VAL
12	GLN12	171	RESIDUE	1 ****	GLN
13	ARG13	188	RESIDUE	1 ****	ARG
14	VAL14	212	RESIDUE	1 ****	VAL
15	MET15	228	RESIDUE	1 ****	MET
16	ARG16	245	RESIDUE	1 ****	ARG
