REMARK WARNING: 32 MAX_TORS EXCEEDED!!!
REMARK  67 active torsions:
REMARK  status: ('A' for Active; 'I' for Inactive)
REMARK    1  A    between atoms: N_1  and  CA_2 
REMARK    2  A    between atoms: CA_2  and  C_3 
REMARK    3  A    between atoms: CA_2  and  CB_5 
REMARK       I    between atoms: C_3  and  N_11 
REMARK    4  A    between atoms: CB_5  and  CG_6 
REMARK    5  A    between atoms: CG_6  and  CD_7 
REMARK    6  A    between atoms: N_11  and  CA_12 
REMARK    7  A    between atoms: CA_12  and  C_13 
REMARK    8  A    between atoms: CA_12  and  CB_15 
REMARK       I    between atoms: C_13  and  N_22 
REMARK    9  A    between atoms: CB_15  and  CG_16 
REMARK       I    between atoms: CG_16  and  ND2_17 
REMARK   10  A    between atoms: CA_23  and  C_24 
REMARK       I    between atoms: C_24  and  N_29 
REMARK   11  A    between atoms: N_29  and  CA_30 
REMARK   12  A    between atoms: CA_30  and  C_31 
REMARK   13  A    between atoms: CA_30  and  CB_33 
REMARK       I    between atoms: C_31  and  N_39 
REMARK   14  A    between atoms: CB_33  and  CG_34 
REMARK   15  A    between atoms: CG_34  and  CD_35 
REMARK   16  A    between atoms: N_39  and  CA_40 
REMARK   17  A    between atoms: CA_40  and  C_41 
REMARK   18  A    between atoms: CA_40  and  CB_43 
REMARK       I    between atoms: C_41  and  N_47 
REMARK   19  A    between atoms: CB_43  and  OG_44 
REMARK   20  A    between atoms: N_47  and  CA_48 
REMARK   21  A    between atoms: CA_48  and  C_49 
REMARK   22  A    between atoms: CA_48  and  CB_51 
REMARK       I    between atoms: C_49  and  N_56 
REMARK   23  A    between atoms: CB_51  and  CG1_52 
REMARK   24  A    between atoms: N_56  and  CA_57 
REMARK   25  A    between atoms: CA_57  and  C_58 
REMARK   26  A    between atoms: CA_57  and  CB_60 
REMARK       I    between atoms: C_58  and  N_65 
REMARK   27  A    between atoms: CB_60  and  CG_61 
REMARK   28  A    between atoms: N_65  and  CA_66 
REMARK   29  A    between atoms: CA_66  and  C_67 
REMARK   30  A    between atoms: CA_66  and  CB_69 
REMARK       I    between atoms: C_67  and  N_74 
REMARK   31  A    between atoms: CB_69  and  CG_70 
REMARK   32  A    between atoms: N_74  and  CA_75 
REMARK   33  A    between atoms: CA_75  and  C_76 
REMARK   34  A    between atoms: CA_75  and  CB_78 
REMARK       I    between atoms: C_76  and  N_84 
REMARK   35  A    between atoms: CB_78  and  CG_79 
REMARK   36  A    between atoms: CG_79  and  CD_80 
REMARK   37  A    between atoms: N_84  and  CA_85 
REMARK   38  A    between atoms: CA_85  and  C_86 
REMARK   39  A    between atoms: CA_85  and  CB_88 
REMARK       I    between atoms: C_86  and  N_96 
REMARK   40  A    between atoms: CB_88  and  CG_89 
REMARK   41  A    between atoms: N_96  and  CA_97 
REMARK   42  A    between atoms: CA_97  and  C_98 
REMARK   43  A    between atoms: CA_97  and  CB_100 
REMARK       I    between atoms: C_98  and  N_104 
REMARK   44  A    between atoms: N_104  and  CA_105 
REMARK   45  A    between atoms: CA_105  and  C_106 
REMARK   46  A    between atoms: CA_105  and  CB_108 
REMARK       I    between atoms: C_106  and  N_116 
REMARK   47  A    between atoms: CB_108  and  CG_109 
REMARK   48  A    between atoms: CG_109  and  CD_110 
REMARK       I    between atoms: CD_110  and  NE2_111 
REMARK   49  A    between atoms: N_116  and  CA_117 
REMARK   50  A    between atoms: CA_117  and  C_118 
REMARK   51  A    between atoms: CA_117  and  CB_120 
REMARK       I    between atoms: C_118  and  N_128 
REMARK   52  A    between atoms: CB_120  and  CG_121 
REMARK   53  A    between atoms: CG_121  and  CD_122 
REMARK       I    between atoms: CD_122  and  NE2_123 
REMARK   54  A    between atoms: N_128  and  CA_129 
REMARK   55  A    between atoms: CA_129  and  C_130 
REMARK   56  A    between atoms: CA_129  and  CB_132 
REMARK       I    between atoms: C_130  and  N_136 
REMARK   57  A    between atoms: N_136  and  CA_137 
REMARK   58  A    between atoms: CA_137  and  C_138 
REMARK   59  A    between atoms: CA_137  and  CB_140 
REMARK       I    between atoms: C_138  and  N_145 
REMARK   60  A    between atoms: CB_140  and  CG_141 
REMARK   61  A    between atoms: CG_141  and  SD_142 
REMARK   62  A    between atoms: N_145  and  CA_146 
REMARK   63  A    between atoms: CA_146  and  C_147 
REMARK   64  A    between atoms: CA_146  and  CB_149 
REMARK   65  A    between atoms: CB_149  and  CG_150 
REMARK   66  A    between atoms: CG_150  and  CD_151 
REMARK   67  A    between atoms: CD_151  and  NE_152 
REMARK       I    between atoms: NE_152  and  CZ_153 
REMARK       I    between atoms: CZ_153  and  NH1_154 
ROOT
ATOM      1  CA  GLU d   9    2137.257 654.190-2211.544  0.00  0.00     0.177 C 
ENDROOT
BRANCH   1   2
ATOM      2  N   GLU d   9    2135.954 653.533-2211.598  0.00  0.00    -0.346 N 
ATOM      3  C   ASP d   8    2135.274 653.583-2212.694  0.00  0.00     0.241 C 
ATOM      4  O   ASP d   8    2135.747 654.187-2213.669  0.00  0.00    -0.271 OA
ATOM      5  H   GLU d   9    2135.590 653.047-2210.791  0.00  0.00     0.163 HD
BRANCH   3   6
ATOM      6  CA  ASP d   8    2133.927 652.904-2212.750  0.00  0.00     0.186 C 
BRANCH   6   7
ATOM      7  N   ASP d   8    2133.996 651.555-2212.196  0.00  0.00    -0.346 N 
ATOM      8  C   LEU d   7    2134.833 650.713-2212.702  0.00  0.00     0.241 C 
ATOM      9  O   LEU d   7    2135.554 651.075-2213.645  0.00  0.00    -0.271 OA
ATOM     10  H   ASP d   8    2133.398 651.284-2211.428  0.00  0.00     0.163 HD
BRANCH   8  11
ATOM     11  CA  LEU d   7    2134.905 649.318-2212.129  0.00  0.00     0.177 C 
BRANCH  11  12
ATOM     12  N   LEU d   7    2134.960 649.354-2210.671  0.00  0.00    -0.346 N 
ATOM     13  C   ILE d   6    2135.906 650.017-2210.097  0.00  0.00     0.241 C 
ATOM     14  O   ILE d   6    2136.741 650.605-2210.801  0.00  0.00    -0.271 OA
ATOM     15  H   LEU d   7    2134.268 648.867-2210.119  0.00  0.00     0.163 HD
BRANCH  13  16
ATOM     16  CA  ILE d   6    2135.963 650.055-2208.589  0.00  0.00     0.180 C 
BRANCH  16  17
ATOM     17  N   ILE d   6    2134.650 650.350-2208.023  0.00  0.00    -0.346 N 
ATOM     18  C   SER d   5    2134.046 651.434-2208.378  0.00  0.00     0.243 C 
ATOM     19  O   SER d   5    2134.594 652.187-2209.182  0.00  0.00    -0.271 OA
ATOM     20  H   ILE d   6    2134.221 649.716-2207.365  0.00  0.00     0.163 HD
BRANCH  18  21
ATOM     21  CA  SER d   5    2132.687 651.740-2207.792  0.00  0.00     0.200 C 
BRANCH  21  22
ATOM     22  N   SER d   5    2131.817 650.569-2207.851  0.00  0.00    -0.344 N 
ATOM     23  C   GLU d   4    2131.590 650.016-2208.995  0.00  0.00     0.241 C 
ATOM     24  O   GLU d   4    2132.117 650.495-2210.009  0.00  0.00    -0.271 OA
ATOM     25  H   SER d   5    2131.400 650.197-2207.010  0.00  0.00     0.163 HD
BRANCH  23  26
ATOM     26  CA  GLU d   4    2130.691 648.805-2209.056  0.00  0.00     0.177 C 
BRANCH  26  27
ATOM     27  N   GLU d   4    2131.050 647.834-2208.026  0.00  0.00    -0.346 N 
ATOM     28  C   PRO d   3    2132.255 647.374-2207.994  0.00  0.00     0.241 C 
ATOM     29  O   PRO d   3    2133.078 647.757-2208.825  0.00  0.00    -0.271 OA
ATOM     30  H   GLU d   4    2130.365 647.528-2207.350  0.00  0.00     0.163 HD
BRANCH  28  31
ATOM     31  CA  PRO d   3    2132.653 646.350-2206.917  0.00  0.00     0.179 C 
ATOM     32  N   PRO d   3    2132.200 646.760-2205.595  0.00  0.00    -0.337 N 
ATOM     33  C   ASN d   2    2132.722 647.755-2204.961  0.00  0.00     0.243 C 
ATOM     34  CD  PRO d   3    2131.122 645.967-2205.046  0.00  0.00     0.127 C 
ATOM     35  O   ASN d   2    2133.637 648.385-2205.489  0.00  0.00    -0.271 OA
ATOM     36  CG  PRO d   3    2130.665 645.148-2206.256  0.00  0.00     0.022 C 
ATOM     37  CB  PRO d   3    2131.948 644.996-2207.086  0.00  0.00     0.037 C 
BRANCH  33  38
ATOM     38  CA  ASN d   2    2132.190 648.110-2203.592  0.00  0.00     0.185 C 
BRANCH  38  39
ATOM     39  N   ASN d   2    2130.731 648.149-2203.593  0.00  0.00    -0.346 N 
ATOM     40  C   GLU d   1    2130.127 648.935-2204.418  0.00  0.00     0.242 C 
ATOM     41  O   GLU d   1    2130.802 649.634-2205.186  0.00  0.00    -0.271 OA
ATOM     42  H   ASN d   2    2130.203 647.570-2202.956  0.00  0.00     0.163 HD
BRANCH  40  43
ATOM     43  CA  GLU d   1    2128.618 648.975-2204.418  0.00  0.00     0.191 C 
BRANCH  43  44
ATOM     44  N   GLU d   1    2128.059 647.626-2204.418  0.00  0.00    -0.326 NA
ATOM     45  H   GLU d   1    2128.686 646.747-2204.418  0.00  0.00     0.180 HD
ENDBRANCH  43  44
BRANCH  43  46
ATOM     46  CB  GLU d   1    2128.094 649.760-2203.181  0.00  0.00     0.047 C 
BRANCH  46  47
ATOM     47  CG  GLU d   1    2128.570 651.245-2203.070  0.00  0.00     0.116 C 
BRANCH  47  48
ATOM     48  CD  GLU d   1    2128.146 652.049-2201.855  0.00  0.00     0.172 C 
ATOM     49  OE1 GLU d   1    2127.417 651.547-2200.977  0.00  0.00    -0.648 OA
ATOM     50  OE2 GLU d   1    2128.576 653.219-2201.783  0.00  0.00    -0.648 OA
ENDBRANCH  47  48
ENDBRANCH  46  47
ENDBRANCH  43  46
ENDBRANCH  40  43
ENDBRANCH  38  39
BRANCH  38  51
ATOM     51  CB  ASN d   2    2132.682 647.087-2202.528  0.00  0.00     0.137 C 
BRANCH  51  52
ATOM     52  CG  ASN d   2    2132.219 647.311-2201.085  0.00  0.00     0.217 C 
ATOM     53  ND2 ASN d   2    2132.813 648.226-2200.366  0.00  0.00    -0.370 N 
ATOM     54 21HD ASN d   2    2132.332 648.399-2199.480  0.00  0.00     0.159 HD
ATOM     55 22HD ASN d   2    2133.515 648.797-2200.835  0.00  0.00     0.159 HD
ATOM     56  OD1 ASN d   2    2131.298 646.678-2200.591  0.00  0.00    -0.274 OA
ENDBRANCH  51  52
ENDBRANCH  38  51
ENDBRANCH  33  38
ENDBRANCH  28  31
ENDBRANCH  26  27
BRANCH  26  57
ATOM     57  CB  GLU d   4    2129.202 649.224-2208.886  0.00  0.00     0.045 C 
BRANCH  57  58
ATOM     58  CG  GLU d   4    2128.655 650.228-2209.952  0.00  0.00     0.116 C 
BRANCH  58  59
ATOM     59  CD  GLU d   4    2127.229 650.725-2209.809  0.00  0.00     0.172 C 
ATOM     60  OE1 GLU d   4    2126.502 650.327-2208.879  0.00  0.00    -0.648 OA
ATOM     61  OE2 GLU d   4    2126.840 651.554-2210.658  0.00  0.00    -0.648 OA
ENDBRANCH  58  59
ENDBRANCH  57  58
ENDBRANCH  26  57
ENDBRANCH  23  26
ENDBRANCH  21  22
BRANCH  21  62
ATOM     62  CB  SER d   5    2132.798 652.272-2206.342  0.00  0.00     0.199 C 
BRANCH  62  63
ATOM     63  OG  SER d   5    2133.529 651.392-2205.481  0.00  0.00    -0.398 OA
ATOM     64  HG  SER d   5    2133.040 650.568-2205.430  0.00  0.00     0.209 HD
ENDBRANCH  62  63
ENDBRANCH  21  62
ENDBRANCH  18  21
ENDBRANCH  16  17
BRANCH  16  65
ATOM     65  CB  ILE d   6    2136.562 648.719-2207.989  0.00  0.00     0.013 C 
ATOM     66  CG2 ILE d   6    2138.004 648.416-2208.504  0.00  0.00     0.012 C 
BRANCH  65  67
ATOM     67  CG1 ILE d   6    2136.581 648.656-2206.428  0.00  0.00     0.002 C 
ATOM     68  CD1 ILE d   6    2136.851 647.267-2205.813  0.00  0.00     0.005 C 
ENDBRANCH  65  67
ENDBRANCH  16  65
ENDBRANCH  13  16
ENDBRANCH  11  12
BRANCH  11  69
ATOM     69  CB  LEU d   7    2133.702 648.458-2212.610  0.00  0.00     0.038 C 
BRANCH  69  70
ATOM     70  CG  LEU d   7    2133.629 646.979-2212.143  0.00  0.00    -0.020 C 
ATOM     71  CD1 LEU d   7    2132.439 646.273-2212.808  0.00  0.00     0.009 C 
ATOM     72  CD2 LEU d   7    2134.922 646.199-2212.435  0.00  0.00     0.009 C 
ENDBRANCH  69  70
ENDBRANCH  11  69
ENDBRANCH   8  11
ENDBRANCH   6   7
BRANCH   6  73
ATOM     73  CB  ASP d   8    2132.849 653.744-2212.009  0.00  0.00     0.147 C 
BRANCH  73  74
ATOM     74  CG  ASP d   8    2132.631 655.164-2212.551  0.00  0.00     0.175 C 
ATOM     75  OD1 ASP d   8    2132.695 655.362-2213.781  0.00  0.00    -0.648 OA
ATOM     76  OD2 ASP d   8    2132.439 656.091-2211.736  0.00  0.00    -0.648 OA
ENDBRANCH  73  74
ENDBRANCH   6  73
ENDBRANCH   3   6
ENDBRANCH   1   2
BRANCH   1  77
ATOM     77  C   GLU d   9    2138.174 653.662-2212.620  0.00  0.00     0.241 C 
ATOM     78  O   GLU d   9    2138.838 654.415-2213.346  0.00  0.00    -0.271 OA
ATOM     79  N   HIS d  10    2138.270 652.386-2212.788  0.00  0.00    -0.346 N 
ATOM     80  H   HIS d  10    2137.740 651.751-2212.209  0.00  0.00     0.163 HD
BRANCH  79  81
ATOM     81  CA  HIS d  10    2139.157 651.874-2213.829  0.00  0.00     0.182 C 
BRANCH  81  82
ATOM     82  C   HIS d  10    2138.791 652.438-2215.180  0.00  0.00     0.241 C 
ATOM     83  O   HIS d  10    2139.643 652.902-2215.952  0.00  0.00    -0.271 OA
ATOM     84  N   VAL d  11    2137.553 652.438-2215.543  0.00  0.00    -0.346 N 
ATOM     85  H   VAL d  11    2136.840 652.066-2214.932  0.00  0.00     0.163 HD
BRANCH  84  86
ATOM     86  CA  VAL d  11    2137.198 652.983-2216.850  0.00  0.00     0.180 C 
BRANCH  86  87
ATOM     87  C   VAL d  11    2137.663 654.413-2216.983  0.00  0.00     0.241 C 
ATOM     88  O   VAL d  11    2138.264 654.818-2217.987  0.00  0.00    -0.271 OA
ATOM     89  N   GLN d  12    2137.427 655.240-2216.021  0.00  0.00    -0.346 N 
ATOM     90  H   GLN d  12    2136.938 654.934-2215.192  0.00  0.00     0.163 HD
BRANCH  89  91
ATOM     91  CA  GLN d  12    2137.876 656.622-2216.149  0.00  0.00     0.177 C 
BRANCH  91  92
ATOM     92  C   GLN d  12    2139.365 656.689-2216.387  0.00  0.00     0.241 C 
ATOM     93  O   GLN d  12    2139.853 657.396-2217.267  0.00  0.00    -0.271 OA
ATOM     94  N   GLN d  13    2140.150 655.982-2215.646  0.00  0.00    -0.346 N 
ATOM     95  H   GLN d  13    2139.773 655.393-2214.918  0.00  0.00     0.163 HD
BRANCH  94  96
ATOM     96  CA  GLN d  13    2141.589 656.046-2215.877  0.00  0.00     0.177 C 
BRANCH  96  97
ATOM     97  C   GLN d  13    2141.928 655.674-2217.301  0.00  0.00     0.241 C 
ATOM     98  O   GLN d  13    2142.699 656.346-2217.983  0.00  0.00    -0.271 OA
ATOM     99  N   VAL d  14    2141.393 654.620-2217.816  0.00  0.00    -0.346 N 
ATOM    100  H   VAL d  14    2140.756 654.051-2217.276  0.00  0.00     0.163 HD
BRANCH  99 101
ATOM    101  CA  VAL d  14    2141.721 654.260-2219.193  0.00  0.00     0.180 C 
BRANCH 101 102
ATOM    102  C   VAL d  14    2141.393 655.391-2220.139  0.00  0.00     0.241 C 
ATOM    103  O   VAL d  14    2142.189 655.772-2221.007  0.00  0.00    -0.271 OA
ATOM    104  N   MET d  15    2140.249 655.977-2220.040  0.00  0.00    -0.346 N 
ATOM    105  H   MET d  15    2139.582 655.685-2219.340  0.00  0.00     0.163 HD
BRANCH 104 106
ATOM    106  CA  MET d  15    2139.931 657.070-2220.954  0.00  0.00     0.177 C 
BRANCH 106 107
ATOM    107  C   MET d  15    2140.961 658.169-2220.864  0.00  0.00     0.241 C 
ATOM    108  O   MET d  15    2141.467 658.680-2221.875  0.00  0.00    -0.271 OA
ATOM    109  N   ARG d  16    2141.327 658.590-2219.700  0.00  0.00    -0.347 N 
ATOM    110  H   ARG d  16    2140.930 658.190-2218.863  0.00  0.00     0.163 HD
BRANCH 109 111
ATOM    111  CA  ARG d  16    2142.324 659.653-2219.614  0.00  0.00     0.162 C 
BRANCH 111 112
ATOM    112  C   ARG d  16    2143.596 659.260-2220.327  0.00  0.00     0.219 C 
ATOM    113  O   ARG d  16    2143.711 658.184-2220.908  0.00  0.00    -0.287 OA
ENDBRANCH 111 112
BRANCH 111 114
ATOM    114  CB  ARG d  16    2142.590 659.971-2218.115  0.00  0.00     0.035 C 
BRANCH 114 115
ATOM    115  CG  ARG d  16    2143.415 661.259-2217.839  0.00  0.00     0.023 C 
BRANCH 115 116
ATOM    116  CD  ARG d  16    2143.661 661.478-2216.337  0.00  0.00     0.138 C 
BRANCH 116 117
ATOM    117  NE  ARG d  16    2144.437 662.736-2216.134  0.00  0.00    -0.227 N 
ATOM    118  CZ  ARG d  16    2144.825 663.218-2214.957  0.00  0.00     0.665 C 
ATOM    119  NH1 ARG d  16    2144.574 662.634-2213.819  0.00  0.00    -0.235 N 
ATOM    120  NH2 ARG d  16    2145.490 664.330-2214.937  0.00  0.00    -0.235 N 
ATOM    121 11HH ARG d  16    2144.049 661.761-2213.906  0.00  0.00     0.174 HD
ATOM    122 12HH ARG d  16    2144.907 663.068-2212.958  0.00  0.00     0.174 HD
ATOM    123 21HH ARG d  16    2145.678 664.774-2215.838  0.00  0.00     0.174 HD
ATOM    124 22HH ARG d  16    2145.778 664.685-2214.023  0.00  0.00     0.174 HD
ATOM    125  HE  ARG d  16    2144.718 663.317-2216.930  0.00  0.00     0.177 HD
ENDBRANCH 116 117
ENDBRANCH 115 116
ENDBRANCH 114 115
ENDBRANCH 111 114
ENDBRANCH 109 111
ENDBRANCH 106 107
BRANCH 106 126
ATOM    126  CB  MET d  15    2138.509 657.617-2220.648  0.00  0.00     0.045 C 
BRANCH 126 127
ATOM    127  CG  MET d  15    2137.347 656.619-2220.843  0.00  0.00     0.076 C 
BRANCH 127 128
ATOM    128  SD  MET d  15    2135.773 657.486-2220.731  0.00  0.00    -0.173 SA
ATOM    129  CE  MET d  15    2134.691 656.057-2220.597  0.00  0.00     0.089 C 
ENDBRANCH 127 128
ENDBRANCH 126 127
ENDBRANCH 106 126
ENDBRANCH 104 106
ENDBRANCH 101 102
BRANCH 101 130
ATOM    130  CB  VAL d  14    2140.948 652.944-2219.602  0.00  0.00     0.009 C 
ATOM    131  CG1 VAL d  14    2141.041 652.525-2221.095  0.00  0.00     0.012 C 
ATOM    132  CG2 VAL d  14    2141.378 651.691-2218.801  0.00  0.00     0.012 C 
ENDBRANCH 101 130
ENDBRANCH  99 101
ENDBRANCH  96  97
BRANCH  96 133
ATOM    133  CB  GLN d  13    2142.293 655.103-2214.876  0.00  0.00     0.044 C 
BRANCH 133 134
ATOM    134  CG  GLN d  13    2143.856 655.070-2214.939  0.00  0.00     0.105 C 
BRANCH 134 135
ATOM    135  CD  GLN d  13    2144.621 654.112-2214.018  0.00  0.00     0.215 C 
ATOM    136  NE2 GLN d  13    2143.968 653.347-2213.181  0.00  0.00    -0.370 N 
ATOM    137 21HE GLN d  13    2144.547 652.694-2212.651  0.00  0.00     0.159 HD
ATOM    138 22HE GLN d  13    2142.950 653.415-2213.240  0.00  0.00     0.159 HD
ATOM    139  OE1 GLN d  13    2145.839 654.029-2214.065  0.00  0.00    -0.274 OA
ENDBRANCH 134 135
ENDBRANCH 133 134
ENDBRANCH  96 133
ENDBRANCH  94  96
ENDBRANCH  91  92
BRANCH  91 140
ATOM    140  CB  GLN d  12    2137.485 657.391-2214.867  0.00  0.00     0.044 C 
BRANCH 140 141
ATOM    141  CG  GLN d  12    2137.847 658.912-2214.837  0.00  0.00     0.105 C 
BRANCH 141 142
ATOM    142  CD  GLN d  12    2137.545 659.727-2213.572  0.00  0.00     0.215 C 
ATOM    143  NE2 GLN d  12    2136.978 659.151-2212.543  0.00  0.00    -0.370 N 
ATOM    144 21HE GLN d  12    2136.872 659.746-2211.720  0.00  0.00     0.159 HD
ATOM    145 22HE GLN d  12    2136.814 658.148-2212.646  0.00  0.00     0.159 HD
ATOM    146  OE1 GLN d  12    2137.848 660.908-2213.495  0.00  0.00    -0.274 OA
ENDBRANCH 141 142
ENDBRANCH 140 141
ENDBRANCH  91 140
ENDBRANCH  89  91
ENDBRANCH  86  87
BRANCH  86 147
ATOM    147  CB  VAL d  11    2135.636 652.877-2217.069  0.00  0.00     0.009 C 
ATOM    148  CG1 VAL d  11    2135.068 653.581-2218.332  0.00  0.00     0.012 C 
ATOM    149  CG2 VAL d  11    2135.111 651.423-2217.141  0.00  0.00     0.012 C 
ENDBRANCH  86 147
ENDBRANCH  84  86
ENDBRANCH  81  82
BRANCH  81 150
ATOM    150  CB  HIS d  10    2138.993 650.345-2213.823  0.00  0.00     0.095 C 
BRANCH 150 151
ATOM    151  CG  HIS d  10    2140.278 649.634-2213.515  0.00  0.00     0.053 A 
ATOM    152  CD2 HIS d  10    2140.660 649.300-2212.223  0.00  0.00     0.116 A 
ATOM    153  NE2 HIS d  10    2141.874 648.667-2212.289  0.00  0.00    -0.359 N 
ATOM    154  CE1 HIS d  10    2142.136 648.670-2213.625  0.00  0.00     0.207 A 
ATOM    155  2HE HIS d  10    2142.441 648.290-2211.516  0.00  0.00     0.166 HD
ATOM    156  ND1 HIS d  10    2141.230 649.228-2214.448  0.00  0.00    -0.247 NA
ENDBRANCH 150 151
ENDBRANCH  81 150
ENDBRANCH  79  81
ENDBRANCH   1  77
BRANCH   1 157
ATOM    157  CB  GLU d   9    2137.890 653.983-2210.138  0.00  0.00     0.045 C 
BRANCH 157 158
ATOM    158  CG  GLU d   9    2139.273 654.675-2209.910  0.00  0.00     0.116 C 
BRANCH 158 159
ATOM    159  CD  GLU d   9    2139.975 654.462-2208.581  0.00  0.00     0.172 C 
ATOM    160  OE1 GLU d   9    2139.454 653.771-2207.685  0.00  0.00    -0.648 OA
ATOM    161  OE2 GLU d   9    2141.095 654.999-2208.450  0.00  0.00    -0.648 OA
ENDBRANCH 158 159
ENDBRANCH 157 158
ENDBRANCH   1 157
TORSDOF 67
