@<TRIPOS>MOLECULE
3-16
268 268 16              
SMALL
USER_CHARGES
@<TRIPOS>ATOM
1	   N	484.449	112.083	-435.443	N.3	1	GLU1	-0.516	
2	  CA	485.008	113.432	-435.443	C.3	1	GLU1	0.040	
3	   C	486.517	113.392	-435.443	C.2	1	GLU1	0.537	
4	   O	487.193	114.091	-436.212	O.2	1	GLU1	-0.582	
5	  CB	484.485	114.217	-434.206	C.3	1	GLU1	0.056	
6	  CG	484.960	115.702	-434.095	C.3	1	GLU1	0.014	
7	  CD	484.536	116.506	-432.880	C.2	1	GLU1	0.805	
8	 OE1	483.808	116.004	-432.002	O.co2	1	GLU1	-0.819	
9	 OE2	484.966	117.676	-432.808	O.co2	1	GLU1	-0.819	
10	   H	485.076	111.204	-435.443	 H	1	GLU1	0.294	
11	  HA	484.682	113.950	-436.363	 H	1	GLU1	0.111	
12	 2HB	484.774	113.686	-433.276	 H	1	GLU1	-0.017	
13	 3HB	483.378	114.207	-434.193	 H	1	GLU1	-0.017	
14	 2HG	484.650	116.287	-434.976	 H	1	GLU1	-0.043	
15	 3HG	486.060	115.769	-434.066	 H	1	GLU1	-0.043	
16	   N	487.121	112.606	-434.618	N.am	2	ASN2	-0.416	
17	  CA	488.581	112.567	-434.618	C.3	2	ASN2	0.014	
18	   C	489.112	112.212	-435.987	C.2	2	ASN2	0.597	
19	   O	490.027	112.842	-436.516	O.2	2	ASN2	-0.568	
20	  CB	489.073	111.544	-433.554	C.3	2	ASN2	-0.204	
21	  CG	488.610	111.768	-432.111	C.2	2	ASN2	0.713	
22	 ND2	489.204	112.683	-431.393	N.pl3	2	ASN2	-0.919	
23	 OD1	487.689	111.134	-431.616	O.2	2	ASN2	-0.593	
24	   H	486.593	112.026	-433.982	 H	2	ASN2	0.272	
25	  HA	488.958	113.577	-434.373	 H	2	ASN2	0.105	
26	 2HB	490.177	111.485	-433.558	 H	2	ASN2	0.080	
27	 3HB	488.744	110.526	-433.840	 H	2	ASN2	0.080	
28	1HD2	488.724	112.856	-430.506	 H	2	ASN2	0.420	
29	2HD2	489.906	113.255	-431.862	 H	2	ASN2	0.420	
30	   N	488.590	111.217	-436.621	N.am	3	GLN3	-0.416	
31	  CA	489.103	110.873	-437.943	C.3	3	GLN3	-0.003	
32	   C	489.010	112.050	-438.884	C.2	3	GLN3	0.597	
33	   O	489.952	112.389	-439.598	O.2	3	GLN3	-0.568	
34	  CB	488.305	109.666	-438.486	C.3	3	GLN3	-0.004	
35	  CG	488.744	109.120	-439.884	C.3	3	GLN3	-0.064	
36	  CD	487.959	107.963	-440.514	C.2	3	GLN3	0.695	
37	 NE2	486.946	107.435	-439.875	N.pl3	3	GLN3	-0.941	
38	 OE1	488.246	107.535	-441.622	O.2	3	GLN3	-0.609	
39	   H	487.839	110.683	-436.208	 H	3	GLN3	0.272	
40	  HA	490.172	110.602	-437.851	 H	3	GLN3	0.085	
41	 2HB	487.231	109.944	-438.529	 H	3	GLN3	0.017	
42	 3HB	488.362	108.840	-437.751	 H	3	GLN3	0.017	
43	 2HG	489.809	108.823	-439.859	 H	3	GLN3	0.035	
44	 3HG	488.703	109.924	-440.641	 H	3	GLN3	0.035	
45	1HE2	486.438	106.714	-440.391	 H	3	GLN3	0.425	
46	2HE2	486.715	107.883	-438.987	 H	3	GLN3	0.425	
47	   N	487.909	112.720	-438.941	N.am	4	GLU4	-0.516	
48	  CA	487.819	113.859	-439.851	C.3	4	GLU4	0.040	
49	   C	488.900	114.871	-439.559	C.2	4	GLU4	0.537	
50	   O	489.594	115.369	-440.456	O.2	4	GLU4	-0.582	
51	  CB	486.413	114.515	-439.734	C.3	4	GLU4	0.056	
52	  CG	486.147	115.723	-440.689	C.3	4	GLU4	0.014	
53	  CD	484.818	116.448	-440.583	C.2	4	GLU4	0.805	
54	 OE1	483.949	116.076	-439.771	O.co2	4	GLU4	-0.819	
55	 OE2	484.658	117.431	-441.335	O.co2	4	GLU4	-0.819	
56	   H	487.121	112.461	-438.365	 H	4	GLU4	0.294	
57	  HA	487.963	113.497	-440.885	 H	4	GLU4	0.111	
58	 2HB	486.242	114.848	-438.690	 H	4	GLU4	-0.017	
59	 3HB	485.627	113.756	-439.911	 H	4	GLU4	-0.017	
60	 2HG	486.255	115.429	-441.745	 H	4	GLU4	-0.043	
61	 3HG	486.883	116.529	-440.529	 H	4	GLU4	-0.043	
62	   N	489.106	115.230	-438.337	N.am	5	SER5	-0.416	
63	  CA	490.152	116.209	-438.055	C.3	5	SER5	-0.025	
64	   C	491.489	115.738	-438.576	C.2	5	SER5	0.597	
65	   O	492.230	116.473	-439.227	O.2	5	SER5	-0.568	
66	  CB	490.212	116.531	-436.540	C.3	5	SER5	0.212	
67	  OG	490.698	115.436	-435.757	O.3	5	SER5	-0.655	
68	   H	488.554	114.839	-437.587	 H	5	SER5	0.272	
69	  HA	489.905	117.139	-438.600	 H	5	SER5	0.084	
70	 2HB	489.222	116.847	-436.159	 H	5	SER5	0.035	
71	 3HB	490.874	117.402	-436.371	 H	5	SER5	0.035	
72	  HG	490.074	114.713	-435.856	 H	5	SER5	0.428	
73	   N	491.865	114.529	-438.331	N.am	6	ILE6	-0.416	
74	  CA	493.158	114.074	-438.835	C.3	6	ILE6	-0.060	
75	   C	493.240	114.232	-440.333	C.2	6	ILE6	0.597	
76	   O	494.226	114.742	-440.887	O.2	6	ILE6	-0.568	
77	  CB	493.463	112.588	-438.382	C.3	6	ILE6	0.130	
78	 CG1	493.322	112.333	-436.847	C.3	6	ILE6	-0.043	
79	 CG2	494.875	112.097	-438.827	C.3	6	ILE6	-0.320	
80	 CD1	493.293	110.853	-436.410	C.3	6	ILE6	-0.066	
81	   H	491.275	113.906	-437.798	 H	6	ILE6	0.272	
82	  HA	493.934	114.734	-438.406	 H	6	ILE6	0.087	
83	  HB	492.711	111.943	-438.883	 H	6	ILE6	0.019	
84	2HG1	492.374	112.774	-436.484	 H	6	ILE6	0.024	
85	3HG1	494.111	112.879	-436.293	 H	6	ILE6	0.024	
86	1HG2	495.023	112.130	-439.921	 H	6	ILE6	0.088	
87	2HG2	495.687	112.694	-438.368	 H	6	ILE6	0.088	
88	3HG2	495.059	111.042	-438.557	 H	6	ILE6	0.088	
89	1HD1	492.485	110.292	-436.917	 H	6	ILE6	0.019	
90	2HD1	494.243	110.331	-436.622	 H	6	ILE6	0.019	
91	3HD1	493.117	110.761	-435.323	 H	6	ILE6	0.019	
92	   N	492.255	113.825	-441.060	N.am	7	LEU7	-0.416	
93	  CA	492.335	113.978	-442.510	C.3	7	LEU7	-0.052	
94	   C	492.555	115.423	-442.889	C.2	7	LEU7	0.597	
95	   O	493.413	115.763	-443.717	O.2	7	LEU7	-0.568	
96	  CB	491.056	113.414	-443.191	C.3	7	LEU7	-0.110	
97	  CG	490.690	111.926	-442.938	C.3	7	LEU7	0.353	
98	 CD1	489.467	111.533	-443.780	C.3	7	LEU7	-0.412	
99	 CD2	491.855	110.968	-443.239	C.3	7	LEU7	-0.412	
100	   H	491.441	113.406	-440.633	 H	7	LEU7	0.272	
101	  HA	493.221	113.425	-442.872	 H	7	LEU7	0.092	
102	 2HB	491.142	113.569	-444.284	 H	7	LEU7	0.046	
103	 3HB	490.190	114.036	-442.890	 H	7	LEU7	0.046	
104	  HG	490.417	111.814	-441.868	 H	7	LEU7	-0.036	
105	1HD1	488.593	112.175	-443.560	 H	7	LEU7	0.100	
106	2HD1	489.664	111.610	-444.866	 H	7	LEU7	0.100	
107	3HD1	489.153	110.492	-443.579	 H	7	LEU7	0.100	
108	1HD2	492.233	111.079	-444.272	 H	7	LEU7	0.100	
109	2HD2	492.707	111.147	-442.556	 H	7	LEU7	0.100	
110	3HD2	491.568	109.910	-443.098	 H	7	LEU7	0.100	
111	   N	491.827	116.332	-442.335	N.am	8	ASP8	-0.516	
112	  CA	492.039	117.730	-442.701	C.3	8	ASP8	0.038	
113	   C	493.469	118.144	-442.453	C.2	8	ASP8	0.537	
114	   O	494.128	118.769	-443.298	O.2	8	ASP8	-0.582	
115	  CB	491.052	118.652	-441.932	C.3	8	ASP8	-0.030	
116	  CG	491.129	120.144	-442.286	C.2	8	ASP8	0.799	
117	 OD1	491.343	120.478	-443.470	O.co2	8	ASP8	-0.801	
118	 OD2	491.018	120.983	-441.368	O.co2	8	ASP8	-0.801	
119	   H	491.121	116.081	-441.657	 H	8	ASP8	0.294	
120	  HA	491.850	117.835	-443.786	 H	8	ASP8	0.088	
121	 2HB	491.215	118.556	-440.843	 H	8	ASP8	-0.012	
122	 3HB	490.009	118.339	-442.105	 H	8	ASP8	-0.012	
123	   N	494.022	117.839	-441.328	N.am	9	GLU9	-0.516	
124	  CA	495.406	118.240	-441.088	C.3	9	GLU9	0.040	
125	   C	496.321	117.691	-442.156	C.2	9	GLU9	0.537	
126	   O	497.169	118.397	-442.720	O.2	9	GLU9	-0.582	
127	  CB	495.857	117.751	-439.682	C.3	9	GLU9	0.056	
128	  CG	497.308	118.150	-439.259	C.3	9	GLU9	0.014	
129	  CD	497.833	117.653	-437.925	C.2	9	GLU9	0.805	
130	 OE1	497.119	116.962	-437.173	O.co2	9	GLU9	-0.819	
131	 OE2	499.009	117.960	-437.639	O.co2	9	GLU9	-0.819	
132	   H	493.506	117.331	-440.624	 H	9	GLU9	0.294	
133	  HA	495.466	119.342	-441.123	 H	9	GLU9	0.111	
134	 2HB	495.766	116.647	-439.622	 H	9	GLU9	-0.017	
135	 3HB	495.158	118.125	-438.910	 H	9	GLU9	-0.017	
136	 2HG	497.435	119.244	-439.253	 H	9	GLU9	-0.043	
137	 3HG	498.053	117.768	-439.977	 H	9	GLU9	-0.043	
138	   N	496.216	116.450	-442.492	N.am	10	HIS10	-0.416	
139	  CA	497.101	115.918	-443.525	C.3	10	HIS10	-0.058	
140	   C	496.966	116.701	-444.809	C.2	10	HIS10	0.597	
141	   O	497.955	117.096	-445.445	O.2	10	HIS10	-0.568	
142	  CB	496.682	114.455	-443.742	C.3	10	HIS10	-0.007	
143	  CG	497.793	113.493	-443.441	C.2	10	HIS10	0.187	
144	 CD2	497.986	112.939	-442.183	C.2	10	HIS10	-0.221	
145	 ND1	498.748	113.040	-444.349	N.2	10	HIS10	-0.543	
146	 CE1	499.464	112.231	-443.546	C.2	10	HIS10	0.163	
147	 NE2	499.078	112.112	-442.247	N.pl3	10	HIS10	-0.280	
148	   H	495.533	115.854	-442.046	 H	10	HIS10	0.272	
149	  HA	498.139	116.056	-443.179	 H	10	HIS10	0.136	
150	 2HB	496.355	114.283	-444.787	 H	10	HIS10	0.037	
151	 3HB	495.812	114.171	-443.113	 H	10	HIS10	0.037	
152	 2HD	497.363	113.145	-441.318	 H	10	HIS10	0.186	
153	 1HE	500.310	111.714	-443.980	 H	10	HIS10	0.144	
154	 2HE	499.496	111.547	-441.493	 H	10	HIS10	0.334	
155	   N	495.787	116.967	-445.258	N.am	11	VAL11	-0.416	
156	  CA	495.656	117.724	-446.500	C.3	11	VAL11	-0.087	
157	   C	496.366	119.053	-446.400	C.2	11	VAL11	0.597	
158	   O	497.120	119.463	-447.291	O.2	11	VAL11	-0.568	
159	  CB	494.128	117.928	-446.845	C.3	11	VAL11	0.299	
160	 CG1	493.810	118.872	-448.037	C.3	11	VAL11	-0.319	
161	 CG2	493.375	116.612	-447.156	C.3	11	VAL11	-0.319	
162	   H	494.966	116.657	-444.758	 H	11	VAL11	0.272	
163	  HA	496.143	117.158	-447.315	 H	11	VAL11	0.097	
164	  HB	493.646	118.377	-445.950	 H	11	VAL11	-0.030	
165	1HG1	494.264	118.526	-448.985	 H	11	VAL11	0.079	
166	2HG1	492.722	118.975	-448.213	 H	11	VAL11	0.079	
167	3HG1	494.168	119.905	-447.865	 H	11	VAL11	0.079	
168	1HG2	493.474	115.878	-446.335	 H	11	VAL11	0.079	
169	2HG2	492.288	116.780	-447.284	 H	11	VAL11	0.079	
170	3HG2	493.743	116.124	-448.078	 H	11	VAL11	0.079	
171	   N	496.180	119.784	-445.353	N.am	12	GLN12	-0.416	
172	  CA	496.866	121.069	-445.256	C.3	12	GLN12	-0.003	
173	   C	498.361	120.895	-445.373	C.2	12	GLN12	0.597	
174	   O	499.043	121.607	-446.107	O.2	12	GLN12	-0.568	
175	  CB	496.488	121.731	-443.912	C.3	12	GLN12	-0.004	
176	  CG	497.096	123.148	-443.646	C.3	12	GLN12	-0.064	
177	  CD	496.815	123.841	-442.307	C.2	12	GLN12	0.695	
178	 NE2	496.062	123.254	-441.411	N.pl3	12	GLN12	-0.941	
179	 OE1	497.303	124.930	-442.046	O.2	12	GLN12	-0.609	
180	   H	495.569	119.472	-444.612	 H	12	GLN12	0.272	
181	  HA	496.537	121.711	-446.094	 H	12	GLN12	0.085	
182	 2HB	496.787	121.051	-443.087	 H	12	GLN12	0.017	
183	 3HB	495.385	121.802	-443.845	 H	12	GLN12	0.017	
184	 2HG	496.797	123.846	-444.449	 H	12	GLN12	0.035	
185	 3HG	498.198	123.112	-443.711	 H	12	GLN12	0.035	
186	1HE2	495.978	123.753	-440.524	 H	12	GLN12	0.425	
187	2HE2	495.742	122.317	-441.663	 H	12	GLN12	0.425	
188	   N	498.941	119.974	-444.681	N.am	13	ARG13	-0.348	
189	  CA	500.387	119.807	-444.794	C.3	13	ARG13	-0.264	
190	   C	500.791	119.559	-446.228	C.2	13	ARG13	0.734	
191	   O	501.724	120.160	-446.756	O.2	13	ARG13	-0.589	
192	  CB	500.831	118.638	-443.869	C.3	13	ARG13	-0.001	
193	  CG	502.364	118.500	-443.655	C.3	13	ARG13	0.039	
194	  CD	502.717	117.301	-442.760	C.3	13	ARG13	0.049	
195	  NE	504.196	117.231	-442.573	N.pl3	13	ARG13	-0.530	
196	  CZ	504.838	116.311	-441.861	C.cat	13	ARG13	0.808	
197	 NH1	504.241	115.338	-441.232	N.pl3	13	ARG13	-0.863	
198	 NH2	506.130	116.383	-441.784	N.pl3	13	ARG13	-0.863	
199	   H	498.402	119.376	-444.070	 H	13	ARG13	0.275	
200	  HA	500.866	120.750	-444.470	 H	13	ARG13	0.156	
201	 2HB	500.415	117.690	-444.270	 H	13	ARG13	0.033	
202	 3HB	500.345	118.753	-442.879	 H	13	ARG13	0.033	
203	 2HG	502.757	119.440	-443.218	 H	13	ARG13	0.029	
204	 3HG	502.876	118.389	-444.633	 H	13	ARG13	0.029	
205	 2HD	502.331	116.367	-443.226	 H	13	ARG13	0.069	
206	 3HD	502.197	117.402	-441.783	 H	13	ARG13	0.069	
207	  HE	504.815	117.925	-443.005	 H	13	ARG13	0.346	
208	1HH1	503.224	115.337	-441.334	 H	13	ARG13	0.448	
209	2HH1	504.806	114.671	-440.704	 H	13	ARG13	0.448	
210	1HH2	506.581	117.152	-442.283	 H	13	ARG13	0.448	
211	2HH2	506.605	115.668	-441.230	 H	13	ARG13	0.448	
212	   N	500.136	118.689	-446.921	N.am	14	VAL14	-0.416	
213	  CA	500.527	118.448	-448.307	C.3	14	VAL14	-0.087	
214	   C	500.484	119.727	-449.110	C.2	14	VAL14	0.597	
215	   O	501.411	120.063	-449.858	O.2	14	VAL14	-0.568	
216	  CB	499.586	117.352	-448.946	C.3	14	VAL14	0.299	
217	 CG1	499.746	117.110	-450.473	C.3	14	VAL14	-0.319	
218	 CG2	499.721	115.954	-448.296	C.3	14	VAL14	-0.319	
219	   H	499.365	118.182	-446.510	 H	14	VAL14	0.272	
220	  HA	501.572	118.089	-448.325	 H	14	VAL14	0.097	
221	  HB	498.538	117.686	-448.788	 H	14	VAL14	-0.030	
222	1HG1	500.769	116.791	-450.746	 H	14	VAL14	0.079	
223	2HG1	499.049	116.339	-450.851	 H	14	VAL14	0.079	
224	3HG1	499.519	118.015	-451.069	 H	14	VAL14	0.079	
225	1HG2	499.558	115.991	-447.204	 H	14	VAL14	0.079	
226	2HG2	498.972	115.241	-448.693	 H	14	VAL14	0.079	
227	3HG2	500.720	115.508	-448.463	 H	14	VAL14	0.079	
228	   N	499.451	120.492	-449.012	N.am	15	MET15	-0.416	
229	  CA	499.408	121.728	-449.788	C.3	15	MET15	-0.024	
230	   C	500.596	122.605	-449.475	C.2	15	MET15	0.597	
231	   O	501.273	123.137	-450.368	O.2	15	MET15	-0.568	
232	  CB	498.077	122.478	-449.512	C.3	15	MET15	0.034	
233	  CG	496.787	121.737	-449.923	C.3	15	MET15	0.002	
234	  SD	495.378	122.851	-449.807	S.3	15	MET15	-0.274	
235	  CE	494.063	121.634	-449.947	C.3	15	MET15	-0.054	
236	   H	498.681	120.240	-448.408	 H	15	MET15	0.272	
237	  HA	499.468	121.472	-450.863	 H	15	MET15	0.088	
238	 2HB	498.088	123.451	-450.040	 H	15	MET15	0.024	
239	 3HB	498.008	122.741	-448.437	 H	15	MET15	0.024	
240	 2HG	496.621	120.867	-449.260	 H	15	MET15	0.044	
241	 3HG	496.855	121.342	-450.954	 H	15	MET15	0.044	
242	 1HE	494.169	121.041	-450.873	 H	15	MET15	0.068	
243	 2HE	494.085	120.942	-449.086	 H	15	MET15	0.068	
244	 3HE	493.077	122.130	-449.965	 H	15	MET15	0.068	
245	   N	500.917	122.808	-448.242	N.am	16	ARG16	-0.348	
246	  CA	502.066	123.656	-447.940	C.3	16	ARG16	-0.264	
247	   C	503.315	123.132	-448.609	C.2	16	ARG16	0.734	
248	   O	503.301	122.132	-449.323	O.2	16	ARG16	-0.589	
249	  CB	502.240	123.735	-446.397	C.3	16	ARG16	-0.001	
250	  CG	503.241	124.811	-445.890	C.3	16	ARG16	0.039	
251	  CD	503.379	124.796	-444.359	C.3	16	ARG16	0.049	
252	  NE	504.333	125.861	-443.930	N.pl3	16	ARG16	-0.530	
253	  CZ	504.685	126.117	-442.674	C.cat	16	ARG16	0.808	
254	 NH1	504.234	125.452	-441.648	N.pl3	16	ARG16	-0.863	
255	 NH2	505.523	127.081	-442.454	N.pl3	16	ARG16	-0.863	
256	   H	500.382	122.385	-447.497	 H	16	ARG16	0.275	
257	  HA	501.865	124.664	-448.351	 H	16	ARG16	0.156	
258	 2HB	502.535	122.733	-446.020	 H	16	ARG16	0.033	
259	 3HB	501.252	123.923	-445.929	 H	16	ARG16	0.033	
260	 2HG	502.910	125.810	-446.241	 H	16	ARG16	0.029	
261	 3HG	504.238	124.649	-446.349	 H	16	ARG16	0.029	
262	 2HD	503.729	123.793	-444.030	 H	16	ARG16	0.069	
263	 3HD	502.380	124.947	-443.895	 H	16	ARG16	0.069	
264	  HE	504.781	126.475	-444.617	 H	16	ARG16	0.346	
265	1HH1	503.580	124.705	-441.890	 H	16	ARG16	0.448	
266	2HH1	504.553	125.711	-440.713	 H	16	ARG16	0.448	
267	1HH2	505.866	127.591	-443.271	 H	16	ARG16	0.448	
268	2HH2	505.780	127.264	-441.483	 H	16	ARG16	0.448	
@<TRIPOS>BOND
1 1 2 1
2 1 10 1
3 2 3 1
4 2 5 1
5 2 11 1
6 3 4 2
7 3 16 1
8 5 6 1
9 6 7 1
10 7 8 2
11 7 9 1
12 5 12 1
13 5 13 1
14 6 14 1
15 6 15 1
16 16 17 1
17 16 24 1
18 17 18 1
19 17 20 1
20 17 25 1
21 18 19 2
22 18 30 1
23 20 21 1
24 21 22 1
25 21 23 2
26 20 26 1
27 20 27 1
28 22 28 1
29 22 29 1
30 30 31 1
31 30 39 1
32 31 32 1
33 31 34 1
34 31 40 1
35 32 33 2
36 32 47 1
37 34 35 1
38 35 36 1
39 36 37 1
40 36 38 2
41 34 41 1
42 34 42 1
43 35 43 1
44 35 44 1
45 37 45 1
46 37 46 1
47 47 48 1
48 47 56 1
49 48 49 1
50 48 51 1
51 48 57 1
52 49 50 2
53 49 62 1
54 51 52 1
55 52 53 1
56 53 54 2
57 53 55 1
58 51 58 1
59 51 59 1
60 52 60 1
61 52 61 1
62 62 63 1
63 62 68 1
64 63 64 1
65 63 66 1
66 63 69 1
67 64 65 2
68 64 73 1
69 66 67 1
70 66 70 1
71 66 71 1
72 67 72 1
73 73 74 1
74 73 81 1
75 74 75 1
76 74 77 1
77 74 82 1
78 75 76 2
79 75 92 1
80 77 78 1
81 77 79 1
82 78 80 1
83 77 83 1
84 78 84 1
85 78 85 1
86 79 86 1
87 79 87 1
88 79 88 1
89 80 89 1
90 80 90 1
91 80 91 1
92 92 93 1
93 92 100 1
94 93 94 1
95 93 96 1
96 93 101 1
97 94 95 2
98 94 111 1
99 96 97 1
100 97 98 1
101 97 99 1
102 96 102 1
103 96 103 1
104 97 104 1
105 98 105 1
106 98 106 1
107 98 107 1
108 99 108 1
109 99 109 1
110 99 110 1
111 111 112 1
112 111 119 1
113 112 113 1
114 112 115 1
115 112 120 1
116 113 114 2
117 113 123 1
118 115 116 1
119 116 117 2
120 116 118 1
121 115 121 1
122 115 122 1
123 123 124 1
124 123 132 1
125 124 125 1
126 124 127 1
127 124 133 1
128 125 126 2
129 125 138 1
130 127 128 1
131 128 129 1
132 129 130 2
133 129 131 1
134 127 134 1
135 127 135 1
136 128 136 1
137 128 137 1
138 138 139 1
139 138 148 1
140 139 140 1
141 139 142 1
142 139 149 1
143 140 141 2
144 140 155 1
145 142 143 1
146 143 144 2
147 144 147 1
148 143 145 1
149 145 146 2
150 146 147 1
151 142 150 1
152 142 151 1
153 144 152 1
154 146 153 1
155 147 154 1
156 155 156 1
157 155 162 1
158 156 157 1
159 156 159 1
160 156 163 1
161 157 158 2
162 157 171 1
163 159 160 1
164 159 161 1
165 159 164 1
166 160 165 1
167 160 166 1
168 160 167 1
169 161 168 1
170 161 169 1
171 161 170 1
172 171 172 1
173 171 180 1
174 172 173 1
175 172 175 1
176 172 181 1
177 173 174 2
178 173 188 1
179 175 176 1
180 176 177 1
181 177 178 1
182 177 179 2
183 175 182 1
184 175 183 1
185 176 184 1
186 176 185 1
187 178 186 1
188 178 187 1
189 188 189 1
190 188 199 1
191 189 190 1
192 189 192 1
193 189 200 1
194 190 191 2
195 190 212 1
196 192 193 1
197 193 194 1
198 194 195 1
199 195 196 1
200 196 197 2
201 196 198 1
202 192 201 1
203 192 202 1
204 193 203 1
205 193 204 1
206 194 205 1
207 194 206 1
208 195 207 1
209 197 208 1
210 197 209 1
211 198 210 1
212 198 211 1
213 212 213 1
214 212 219 1
215 213 214 1
216 213 216 1
217 213 220 1
218 214 215 2
219 214 228 1
220 216 217 1
221 216 218 1
222 216 221 1
223 217 222 1
224 217 223 1
225 217 224 1
226 218 225 1
227 218 226 1
228 218 227 1
229 228 229 1
230 228 236 1
231 229 230 1
232 229 232 1
233 229 237 1
234 230 231 2
235 230 245 1
236 232 233 1
237 233 234 1
238 234 235 1
239 232 238 1
240 232 239 1
241 233 240 1
242 233 241 1
243 235 242 1
244 235 243 1
245 235 244 1
246 245 246 1
247 245 256 1
248 246 247 1
249 246 249 1
250 246 257 1
251 247 248 2
252 249 250 1
253 250 251 1
254 251 252 1
255 252 253 1
256 253 254 2
257 253 255 1
258 249 258 1
259 249 259 1
260 250 260 1
261 250 261 1
262 251 262 1
263 251 263 1
264 252 264 1
265 254 265 1
266 254 266 1
267 255 267 1
268 255 268 1
@<TRIPOS>SUBSTRUCTURE
1	GLU1	1	RESIDUE	1 ****	GLU
2	ASN2	16	RESIDUE	1 ****	ASN
3	GLN3	30	RESIDUE	1 ****	GLN
4	GLU4	47	RESIDUE	1 ****	GLU
5	SER5	62	RESIDUE	1 ****	SER
6	ILE6	73	RESIDUE	1 ****	ILE
7	LEU7	92	RESIDUE	1 ****	LEU
8	ASP8	111	RESIDUE	1 ****	ASP
9	GLU9	123	RESIDUE	1 ****	GLU
10	HIS10	138	RESIDUE	1 ****	HIS
11	VAL11	155	RESIDUE	1 ****	VAL
12	GLN12	171	RESIDUE	1 ****	GLN
13	ARG13	188	RESIDUE	1 ****	ARG
14	VAL14	212	RESIDUE	1 ****	VAL
15	MET15	228	RESIDUE	1 ****	MET
16	ARG16	245	RESIDUE	1 ****	ARG
