REMARK WARNING: 32 MAX_TORS EXCEEDED!!!
REMARK  72 active torsions:
REMARK  status: ('A' for Active; 'I' for Inactive)
REMARK    1  A    between atoms: N_1  and  CA_2 
REMARK    2  A    between atoms: CA_2  and  C_3 
REMARK    3  A    between atoms: CA_2  and  CB_5 
REMARK       I    between atoms: C_3  and  N_11 
REMARK    4  A    between atoms: CB_5  and  CG_6 
REMARK    5  A    between atoms: CG_6  and  CD_7 
REMARK    6  A    between atoms: N_11  and  CA_12 
REMARK    7  A    between atoms: CA_12  and  C_13 
REMARK    8  A    between atoms: CA_12  and  CB_15 
REMARK       I    between atoms: C_13  and  N_22 
REMARK    9  A    between atoms: CB_15  and  CG_16 
REMARK       I    between atoms: CG_16  and  ND2_17 
REMARK   10  A    between atoms: CA_23  and  C_24 
REMARK       I    between atoms: C_24  and  N_29 
REMARK   11  A    between atoms: N_29  and  CA_30 
REMARK   12  A    between atoms: CA_30  and  C_31 
REMARK   13  A    between atoms: CA_30  and  CB_33 
REMARK       I    between atoms: C_31  and  N_39 
REMARK   14  A    between atoms: CB_33  and  CG_34 
REMARK   15  A    between atoms: CG_34  and  CD_35 
REMARK   16  A    between atoms: N_39  and  CA_40 
REMARK   17  A    between atoms: CA_40  and  C_41 
REMARK   18  A    between atoms: CA_40  and  CB_43 
REMARK       I    between atoms: C_41  and  N_47 
REMARK   19  A    between atoms: CB_43  and  OG_44 
REMARK   20  A    between atoms: N_47  and  CA_48 
REMARK   21  A    between atoms: CA_48  and  C_49 
REMARK   22  A    between atoms: CA_48  and  CB_51 
REMARK       I    between atoms: C_49  and  N_56 
REMARK   23  A    between atoms: CB_51  and  CG1_52 
REMARK   24  A    between atoms: N_56  and  CA_57 
REMARK   25  A    between atoms: CA_57  and  C_58 
REMARK   26  A    between atoms: CA_57  and  CB_60 
REMARK       I    between atoms: C_58  and  N_65 
REMARK   27  A    between atoms: CB_60  and  CG_61 
REMARK   28  A    between atoms: N_65  and  CA_66 
REMARK   29  A    between atoms: CA_66  and  C_67 
REMARK   30  A    between atoms: CA_66  and  CB_69 
REMARK       I    between atoms: C_67  and  N_74 
REMARK   31  A    between atoms: CB_69  and  CG_70 
REMARK   32  A    between atoms: N_74  and  CA_75 
REMARK   33  A    between atoms: CA_75  and  C_76 
REMARK   34  A    between atoms: CA_75  and  CB_78 
REMARK       I    between atoms: C_76  and  N_84 
REMARK   35  A    between atoms: CB_78  and  CG_79 
REMARK   36  A    between atoms: CG_79  and  CD_80 
REMARK   37  A    between atoms: N_84  and  CA_85 
REMARK   38  A    between atoms: CA_85  and  C_86 
REMARK   39  A    between atoms: CA_85  and  CB_88 
REMARK       I    between atoms: C_86  and  N_96 
REMARK   40  A    between atoms: CB_88  and  CG_89 
REMARK   41  A    between atoms: N_96  and  CA_97 
REMARK   42  A    between atoms: CA_97  and  C_98 
REMARK   43  A    between atoms: CA_97  and  CB_100 
REMARK       I    between atoms: C_98  and  N_104 
REMARK   44  A    between atoms: N_104  and  CA_105 
REMARK   45  A    between atoms: CA_105  and  C_106 
REMARK   46  A    between atoms: CA_105  and  CB_108 
REMARK       I    between atoms: C_106  and  N_116 
REMARK   47  A    between atoms: CB_108  and  CG_109 
REMARK   48  A    between atoms: CG_109  and  CD_110 
REMARK       I    between atoms: CD_110  and  NE2_111 
REMARK   49  A    between atoms: N_116  and  CA_117 
REMARK   50  A    between atoms: CA_117  and  C_118 
REMARK   51  A    between atoms: CA_117  and  CB_120 
REMARK       I    between atoms: C_118  and  N_133 
REMARK   52  A    between atoms: CB_120  and  CG_121 
REMARK   53  A    between atoms: CG_121  and  CD_122 
REMARK   54  A    between atoms: CD_122  and  NE_123 
REMARK       I    between atoms: NE_123  and  CZ_124 
REMARK       I    between atoms: CZ_124  and  NH1_125 
REMARK       I    between atoms: CZ_124  and  NH2_126 
REMARK   55  A    between atoms: N_133  and  CA_134 
REMARK   56  A    between atoms: CA_134  and  C_135 
REMARK   57  A    between atoms: CA_134  and  CB_137 
REMARK       I    between atoms: C_135  and  N_146 
REMARK   58  A    between atoms: CB_137  and  CG_138 
REMARK   59  A    between atoms: CG_138  and  CD_139 
REMARK   60  A    between atoms: CD_139  and  CE_140 
REMARK   61  A    between atoms: CE_140  and  NZ_141 
REMARK   62  A    between atoms: N_146  and  CA_147 
REMARK   63  A    between atoms: CA_147  and  C_148 
REMARK   64  A    between atoms: CA_147  and  CB_150 
REMARK       I    between atoms: C_148  and  N_155 
REMARK   65  A    between atoms: CB_150  and  CG_151 
REMARK   66  A    between atoms: CG_151  and  SD_152 
REMARK   67  A    between atoms: N_155  and  CA_156 
REMARK   68  A    between atoms: CA_156  and  C_157 
REMARK   69  A    between atoms: CA_156  and  CB_159 
REMARK   70  A    between atoms: CB_159  and  CG_160 
REMARK   71  A    between atoms: CG_160  and  CD_161 
REMARK   72  A    between atoms: CD_161  and  NE_162 
REMARK       I    between atoms: NE_162  and  CZ_163 
REMARK       I    between atoms: CZ_163  and  NH1_164 
ROOT
ATOM      1  CA  HIS d  10    2327.536 712.800-2417.922  0.00  0.00     0.182 C 
ENDROOT
BRANCH   1   2
ATOM      2  N   HIS d  10    2326.648 713.312-2416.882  0.00  0.00    -0.346 N 
ATOM      3  C   GLU d   9    2326.552 714.587-2416.713  0.00  0.00     0.241 C 
ATOM      4  O   GLU d   9    2327.216 715.341-2417.439  0.00  0.00    -0.271 OA
ATOM      5  H   HIS d  10    2326.118 712.677-2416.303  0.00  0.00     0.163 HD
BRANCH   3   6
ATOM      6  CA  GLU d   9    2325.635 715.116-2415.637  0.00  0.00     0.177 C 
BRANCH   6   7
ATOM      7  N   GLU d   9    2324.332 714.459-2415.692  0.00  0.00    -0.346 N 
ATOM      8  C   ASP d   8    2323.652 714.509-2416.787  0.00  0.00     0.241 C 
ATOM      9  O   ASP d   8    2324.125 715.113-2417.762  0.00  0.00    -0.271 OA
ATOM     10  H   GLU d   9    2323.968 713.973-2414.885  0.00  0.00     0.163 HD
BRANCH   8  11
ATOM     11  CA  ASP d   8    2322.305 713.830-2416.844  0.00  0.00     0.186 C 
BRANCH  11  12
ATOM     12  N   ASP d   8    2322.375 712.480-2416.290  0.00  0.00    -0.346 N 
ATOM     13  C   LEU d   7    2323.211 711.639-2416.796  0.00  0.00     0.241 C 
ATOM     14  O   LEU d   7    2323.932 712.001-2417.738  0.00  0.00    -0.271 OA
ATOM     15  H   ASP d   8    2321.777 712.210-2415.522  0.00  0.00     0.163 HD
BRANCH  13  16
ATOM     16  CA  LEU d   7    2323.283 710.244-2416.223  0.00  0.00     0.177 C 
BRANCH  16  17
ATOM     17  N   LEU d   7    2323.338 710.280-2414.764  0.00  0.00    -0.346 N 
ATOM     18  C   ILE d   6    2324.284 710.943-2414.191  0.00  0.00     0.241 C 
ATOM     19  O   ILE d   6    2325.119 711.530-2414.895  0.00  0.00    -0.271 OA
ATOM     20  H   LEU d   7    2322.646 709.793-2414.213  0.00  0.00     0.163 HD
BRANCH  18  21
ATOM     21  CA  ILE d   6    2324.342 710.981-2412.683  0.00  0.00     0.180 C 
BRANCH  21  22
ATOM     22  N   ILE d   6    2323.028 711.276-2412.117  0.00  0.00    -0.346 N 
ATOM     23  C   SER d   5    2322.424 712.359-2412.471  0.00  0.00     0.243 C 
ATOM     24  O   SER d   5    2322.972 713.113-2413.276  0.00  0.00    -0.271 OA
ATOM     25  H   ILE d   6    2322.599 710.642-2411.458  0.00  0.00     0.163 HD
BRANCH  23  26
ATOM     26  CA  SER d   5    2321.065 712.666-2411.886  0.00  0.00     0.200 C 
BRANCH  26  27
ATOM     27  N   SER d   5    2320.195 711.495-2411.945  0.00  0.00    -0.344 N 
ATOM     28  C   GLU d   4    2319.968 710.942-2413.088  0.00  0.00     0.241 C 
ATOM     29  O   GLU d   4    2320.495 711.421-2414.102  0.00  0.00    -0.271 OA
ATOM     30  H   SER d   5    2319.778 711.123-2411.104  0.00  0.00     0.163 HD
BRANCH  28  31
ATOM     31  CA  GLU d   4    2319.069 709.731-2413.150  0.00  0.00     0.177 C 
BRANCH  31  32
ATOM     32  N   GLU d   4    2319.428 708.760-2412.120  0.00  0.00    -0.346 N 
ATOM     33  C   PRO d   3    2320.633 708.300-2412.087  0.00  0.00     0.241 C 
ATOM     34  O   PRO d   3    2321.457 708.683-2412.918  0.00  0.00    -0.271 OA
ATOM     35  H   GLU d   4    2318.744 708.454-2411.443  0.00  0.00     0.163 HD
BRANCH  33  36
ATOM     36  CA  PRO d   3    2321.031 707.276-2411.010  0.00  0.00     0.179 C 
ATOM     37  N   PRO d   3    2320.579 707.686-2409.689  0.00  0.00    -0.337 N 
ATOM     38  C   ASN d   2    2321.100 708.680-2409.054  0.00  0.00     0.243 C 
ATOM     39  CD  PRO d   3    2319.500 706.893-2409.140  0.00  0.00     0.127 C 
ATOM     40  O   ASN d   2    2322.015 709.311-2409.583  0.00  0.00    -0.271 OA
ATOM     41  CG  PRO d   3    2319.043 706.074-2410.350  0.00  0.00     0.022 C 
ATOM     42  CB  PRO d   3    2320.326 705.922-2411.180  0.00  0.00     0.037 C 
BRANCH  38  43
ATOM     43  CA  ASN d   2    2320.569 709.036-2407.686  0.00  0.00     0.185 C 
BRANCH  43  44
ATOM     44  N   ASN d   2    2319.109 709.075-2407.686  0.00  0.00    -0.346 N 
ATOM     45  C   GLU d   1    2318.505 709.861-2408.511  0.00  0.00     0.242 C 
ATOM     46  O   GLU d   1    2319.181 710.560-2409.280  0.00  0.00    -0.271 OA
ATOM     47  H   ASN d   2    2318.581 708.495-2407.050  0.00  0.00     0.163 HD
BRANCH  45  48
ATOM     48  CA  GLU d   1    2316.996 709.901-2408.511  0.00  0.00     0.191 C 
BRANCH  48  49
ATOM     49  N   GLU d   1    2316.437 708.552-2408.511  0.00  0.00    -0.326 NA
ATOM     50  H   GLU d   1    2317.064 707.673-2408.511  0.00  0.00     0.180 HD
ENDBRANCH  48  49
BRANCH  48  51
ATOM     51  CB  GLU d   1    2316.473 710.686-2407.274  0.00  0.00     0.047 C 
BRANCH  51  52
ATOM     52  CG  GLU d   1    2316.948 712.171-2407.163  0.00  0.00     0.116 C 
BRANCH  52  53
ATOM     53  CD  GLU d   1    2316.524 712.975-2405.948  0.00  0.00     0.172 C 
ATOM     54  OE1 GLU d   1    2315.796 712.473-2405.070  0.00  0.00    -0.648 OA
ATOM     55  OE2 GLU d   1    2316.954 714.145-2405.876  0.00  0.00    -0.648 OA
ENDBRANCH  52  53
ENDBRANCH  51  52
ENDBRANCH  48  51
ENDBRANCH  45  48
ENDBRANCH  43  44
BRANCH  43  56
ATOM     56  CB  ASN d   2    2321.060 708.013-2406.621  0.00  0.00     0.137 C 
BRANCH  56  57
ATOM     57  CG  ASN d   2    2320.597 708.237-2405.178  0.00  0.00     0.217 C 
ATOM     58  ND2 ASN d   2    2321.191 709.152-2404.460  0.00  0.00    -0.370 N 
ATOM     59 21HD ASN d   2    2320.710 709.325-2403.573  0.00  0.00     0.159 HD
ATOM     60 22HD ASN d   2    2321.893 709.723-2404.929  0.00  0.00     0.159 HD
ATOM     61  OD1 ASN d   2    2319.676 707.603-2404.684  0.00  0.00    -0.274 OA
ENDBRANCH  56  57
ENDBRANCH  43  56
ENDBRANCH  38  43
ENDBRANCH  33  36
ENDBRANCH  31  32
BRANCH  31  62
ATOM     62  CB  GLU d   4    2317.581 710.150-2412.980  0.00  0.00     0.045 C 
BRANCH  62  63
ATOM     63  CG  GLU d   4    2317.033 711.154-2414.046  0.00  0.00     0.116 C 
BRANCH  63  64
ATOM     64  CD  GLU d   4    2315.607 711.651-2413.903  0.00  0.00     0.172 C 
ATOM     65  OE1 GLU d   4    2314.880 711.253-2412.972  0.00  0.00    -0.648 OA
ATOM     66  OE2 GLU d   4    2315.218 712.480-2414.751  0.00  0.00    -0.648 OA
ENDBRANCH  63  64
ENDBRANCH  62  63
ENDBRANCH  31  62
ENDBRANCH  28  31
ENDBRANCH  26  27
BRANCH  26  67
ATOM     67  CB  SER d   5    2321.177 713.198-2410.436  0.00  0.00     0.199 C 
BRANCH  67  68
ATOM     68  OG  SER d   5    2321.907 712.318-2409.574  0.00  0.00    -0.398 OA
ATOM     69  HG  SER d   5    2321.418 711.493-2409.524  0.00  0.00     0.209 HD
ENDBRANCH  67  68
ENDBRANCH  26  67
ENDBRANCH  23  26
ENDBRANCH  21  22
BRANCH  21  70
ATOM     70  CB  ILE d   6    2324.941 709.644-2412.083  0.00  0.00     0.013 C 
ATOM     71  CG2 ILE d   6    2326.382 709.342-2412.598  0.00  0.00     0.012 C 
BRANCH  70  72
ATOM     72  CG1 ILE d   6    2324.959 709.582-2410.522  0.00  0.00     0.002 C 
ATOM     73  CD1 ILE d   6    2325.229 708.193-2409.906  0.00  0.00     0.005 C 
ENDBRANCH  70  72
ENDBRANCH  21  70
ENDBRANCH  18  21
ENDBRANCH  16  17
BRANCH  16  74
ATOM     74  CB  LEU d   7    2322.080 709.384-2416.703  0.00  0.00     0.038 C 
BRANCH  74  75
ATOM     75  CG  LEU d   7    2322.007 707.905-2416.237  0.00  0.00    -0.020 C 
ATOM     76  CD1 LEU d   7    2320.817 707.199-2416.902  0.00  0.00     0.009 C 
ATOM     77  CD2 LEU d   7    2323.300 707.125-2416.528  0.00  0.00     0.009 C 
ENDBRANCH  74  75
ENDBRANCH  16  74
ENDBRANCH  13  16
ENDBRANCH  11  12
BRANCH  11  78
ATOM     78  CB  ASP d   8    2321.227 714.670-2416.103  0.00  0.00     0.147 C 
BRANCH  78  79
ATOM     79  CG  ASP d   8    2321.009 716.090-2416.644  0.00  0.00     0.175 C 
ATOM     80  OD1 ASP d   8    2321.073 716.288-2417.875  0.00  0.00    -0.648 OA
ATOM     81  OD2 ASP d   8    2320.818 717.017-2415.829  0.00  0.00    -0.648 OA
ENDBRANCH  78  79
ENDBRANCH  11  78
ENDBRANCH   8  11
ENDBRANCH   6   7
BRANCH   6  82
ATOM     82  CB  GLU d   9    2326.269 714.909-2414.232  0.00  0.00     0.045 C 
BRANCH  82  83
ATOM     83  CG  GLU d   9    2327.652 715.601-2414.003  0.00  0.00     0.116 C 
BRANCH  83  84
ATOM     84  CD  GLU d   9    2328.354 715.387-2412.675  0.00  0.00     0.172 C 
ATOM     85  OE1 GLU d   9    2327.832 714.697-2411.778  0.00  0.00    -0.648 OA
ATOM     86  OE2 GLU d   9    2329.473 715.925-2412.544  0.00  0.00    -0.648 OA
ENDBRANCH  83  84
ENDBRANCH  82  83
ENDBRANCH   6  82
ENDBRANCH   3   6
ENDBRANCH   1   2
BRANCH   1  87
ATOM     87  C   HIS d  10    2327.169 713.364-2419.274  0.00  0.00     0.241 C 
ATOM     88  O   HIS d  10    2328.021 713.828-2420.046  0.00  0.00    -0.271 OA
ATOM     89  N   VAL d  11    2325.931 713.364-2419.636  0.00  0.00    -0.346 N 
ATOM     90  H   VAL d  11    2325.218 712.991-2419.026  0.00  0.00     0.163 HD
BRANCH  89  91
ATOM     91  CA  VAL d  11    2325.576 713.909-2420.944  0.00  0.00     0.180 C 
BRANCH  91  92
ATOM     92  C   VAL d  11    2326.041 715.339-2421.077  0.00  0.00     0.241 C 
ATOM     93  O   VAL d  11    2326.642 715.744-2422.080  0.00  0.00    -0.271 OA
ATOM     94  N   GLN d  12    2325.805 716.166-2420.115  0.00  0.00    -0.346 N 
ATOM     95  H   GLN d  12    2325.316 715.860-2419.285  0.00  0.00     0.163 HD
BRANCH  94  96
ATOM     96  CA  GLN d  12    2326.254 717.548-2420.243  0.00  0.00     0.177 C 
BRANCH  96  97
ATOM     97  C   GLN d  12    2327.744 717.615-2420.481  0.00  0.00     0.241 C 
ATOM     98  O   GLN d  12    2328.231 718.322-2421.360  0.00  0.00    -0.271 OA
ATOM     99  N   ARG d  13    2328.528 716.908-2419.740  0.00  0.00    -0.346 N 
ATOM    100  H   ARG d  13    2328.152 716.319-2419.011  0.00  0.00     0.163 HD
BRANCH  99 101
ATOM    101  CA  ARG d  13    2329.969 716.973-2419.971  0.00  0.00     0.176 C 
BRANCH 101 102
ATOM    102  C   ARG d  13    2330.304 716.601-2421.396  0.00  0.00     0.241 C 
ATOM    103  O   ARG d  13    2331.073 717.272-2422.081  0.00  0.00    -0.271 OA
ATOM    104  N   LYS d  14    2329.768 715.546-2421.909  0.00  0.00    -0.346 N 
ATOM    105  H   LYS d  14    2329.133 714.978-2421.367  0.00  0.00     0.163 HD
BRANCH 104 106
ATOM    106  CA  LYS d  14    2330.092 715.185-2423.287  0.00  0.00     0.176 C 
BRANCH 106 107
ATOM    107  C   LYS d  14    2329.762 716.315-2424.234  0.00  0.00     0.241 C 
ATOM    108  O   LYS d  14    2330.557 716.695-2425.105  0.00  0.00    -0.271 OA
ATOM    109  N   MET d  15    2328.618 716.902-2424.133  0.00  0.00    -0.346 N 
ATOM    110  H   MET d  15    2327.952 716.611-2423.431  0.00  0.00     0.163 HD
BRANCH 109 111
ATOM    111  CA  MET d  15    2328.298 717.994-2425.048  0.00  0.00     0.177 C 
BRANCH 111 112
ATOM    112  C   MET d  15    2329.330 719.093-2424.961  0.00  0.00     0.241 C 
ATOM    113  O   MET d  15    2329.833 719.602-2425.974  0.00  0.00    -0.271 OA
ATOM    114  N   ARG d  16    2329.698 719.515-2423.799  0.00  0.00    -0.347 N 
ATOM    115  H   ARG d  16    2329.303 719.116-2422.959  0.00  0.00     0.163 HD
BRANCH 114 116
ATOM    116  CA  ARG d  16    2330.696 720.578-2423.717  0.00  0.00     0.162 C 
BRANCH 116 117
ATOM    117  C   ARG d  16    2331.966 720.183-2424.432  0.00  0.00     0.219 C 
ATOM    118  O   ARG d  16    2332.079 719.106-2425.012  0.00  0.00    -0.287 OA
ENDBRANCH 116 117
BRANCH 116 119
ATOM    119  CB  ARG d  16    2330.965 720.898-2422.219  0.00  0.00     0.035 C 
BRANCH 119 120
ATOM    120  CG  ARG d  16    2331.792 722.186-2421.947  0.00  0.00     0.023 C 
BRANCH 120 121
ATOM    121  CD  ARG d  16    2332.041 722.407-2420.446  0.00  0.00     0.138 C 
BRANCH 121 122
ATOM    122  NE  ARG d  16    2332.819 723.666-2420.247  0.00  0.00    -0.227 N 
ATOM    123  CZ  ARG d  16    2333.210 724.149-2419.072  0.00  0.00     0.665 C 
ATOM    124  NH1 ARG d  16    2332.962 723.566-2417.933  0.00  0.00    -0.235 N 
ATOM    125  NH2 ARG d  16    2333.875 725.261-2419.054  0.00  0.00    -0.235 N 
ATOM    126 11HH ARG d  16    2332.436 722.694-2418.016  0.00  0.00     0.174 HD
ATOM    127 12HH ARG d  16    2333.297 724.003-2417.072  0.00  0.00     0.174 HD
ATOM    128 21HH ARG d  16    2334.061 725.703-2419.957  0.00  0.00     0.174 HD
ATOM    129 22HH ARG d  16    2334.166 725.617-2418.142  0.00  0.00     0.174 HD
ATOM    130  HE  ARG d  16    2333.098 724.245-2421.045  0.00  0.00     0.177 HD
ENDBRANCH 121 122
ENDBRANCH 120 121
ENDBRANCH 119 120
ENDBRANCH 116 119
ENDBRANCH 114 116
ENDBRANCH 111 112
BRANCH 111 131
ATOM    131  CB  MET d  15    2326.878 718.542-2424.739  0.00  0.00     0.045 C 
BRANCH 131 132
ATOM    132  CG  MET d  15    2325.715 717.544-2424.930  0.00  0.00     0.076 C 
BRANCH 132 133
ATOM    133  SD  MET d  15    2324.141 718.412-2424.816  0.00  0.00    -0.173 SA
ATOM    134  CE  MET d  15    2323.059 716.984-2424.678  0.00  0.00     0.089 C 
ENDBRANCH 132 133
ENDBRANCH 131 132
ENDBRANCH 111 131
ENDBRANCH 109 111
ENDBRANCH 106 107
BRANCH 106 135
ATOM    135  CB  LYS d  14    2329.325 713.892-2423.676  0.00  0.00     0.035 C 
BRANCH 135 136
ATOM    136  CG  LYS d  14    2329.661 713.382-2425.100  0.00  0.00     0.004 C 
BRANCH 136 137
ATOM    137  CD  LYS d  14    2328.875 712.145-2425.543  0.00  0.00     0.027 C 
BRANCH 137 138
ATOM    138  CE  LYS d  14    2329.253 711.797-2426.989  0.00  0.00     0.229 C 
BRANCH 138 139
ATOM    139  NZ  LYS d  14    2328.634 710.513-2427.362  0.00  0.00    -0.079 N 
ATOM    140  3HZ LYS d  14    2329.256 709.790-2427.030  0.00  0.00     0.274 HD
ATOM    141  1HZ LYS d  14    2327.699 710.427-2426.945  0.00  0.00     0.274 HD
ATOM    142  2HZ LYS d  14    2328.501 710.443-2428.376  0.00  0.00     0.274 HD
ENDBRANCH 138 139
ENDBRANCH 137 138
ENDBRANCH 136 137
ENDBRANCH 135 136
ENDBRANCH 106 135
ENDBRANCH 104 106
ENDBRANCH 101 102
BRANCH 101 143
ATOM    143  CB  ARG d  13    2330.682 716.035-2418.957  0.00  0.00     0.036 C 
BRANCH 143 144
ATOM    144  CG  ARG d  13    2332.227 716.187-2418.876  0.00  0.00     0.023 C 
BRANCH 144 145
ATOM    145  CD  ARG d  13    2332.854 715.200-2417.878  0.00  0.00     0.138 C 
BRANCH 145 146
ATOM    146  NE  ARG d  13    2334.331 715.407-2417.828  0.00  0.00    -0.227 N 
ATOM    147  CZ  ARG d  13    2335.179 714.716-2417.073  0.00  0.00     0.665 C 
ATOM    148  NH1 ARG d  13    2334.814 713.752-2416.274  0.00  0.00    -0.235 N 
ATOM    149  NH2 ARG d  13    2336.439 715.014-2417.130  0.00  0.00    -0.235 N 
ATOM    150 11HH ARG d  13    2333.809 713.566-2416.277  0.00  0.00     0.174 HD
ATOM    151 12HH ARG d  13    2335.527 713.269-2415.725  0.00  0.00     0.174 HD
ATOM    152 21HH ARG d  13    2336.707 715.772-2417.762  0.00  0.00     0.174 HD
ATOM    153 22HH ARG d  13    2337.074 714.473-2416.541  0.00  0.00     0.174 HD
ATOM    154  HE  ARG d  13    2334.782 716.129-2418.399  0.00  0.00     0.177 HD
ENDBRANCH 145 146
ENDBRANCH 144 145
ENDBRANCH 143 144
ENDBRANCH 101 143
ENDBRANCH  99 101
ENDBRANCH  96  97
BRANCH  96 155
ATOM    155  CB  GLN d  12    2325.864 718.317-2418.960  0.00  0.00     0.044 C 
BRANCH 155 156
ATOM    156  CG  GLN d  12    2326.225 719.838-2418.930  0.00  0.00     0.105 C 
BRANCH 156 157
ATOM    157  CD  GLN d  12    2325.923 720.653-2417.666  0.00  0.00     0.215 C 
ATOM    158  NE2 GLN d  12    2325.356 720.077-2416.636  0.00  0.00    -0.370 N 
ATOM    159 21HE GLN d  12    2325.250 720.672-2415.813  0.00  0.00     0.159 HD
ATOM    160 22HE GLN d  12    2325.192 719.074-2416.739  0.00  0.00     0.159 HD
ATOM    161  OE1 GLN d  12    2326.226 721.833-2417.589  0.00  0.00    -0.274 OA
ENDBRANCH 156 157
ENDBRANCH 155 156
ENDBRANCH  96 155
ENDBRANCH  94  96
ENDBRANCH  91  92
BRANCH  91 162
ATOM    162  CB  VAL d  11    2324.014 713.803-2421.163  0.00  0.00     0.009 C 
ATOM    163  CG1 VAL d  11    2323.446 714.507-2422.426  0.00  0.00     0.012 C 
ATOM    164  CG2 VAL d  11    2323.489 712.349-2421.235  0.00  0.00     0.012 C 
ENDBRANCH  91 162
ENDBRANCH  89  91
ENDBRANCH   1  87
BRANCH   1 165
ATOM    165  CB  HIS d  10    2327.371 711.271-2417.917  0.00  0.00     0.095 C 
BRANCH 165 166
ATOM    166  CG  HIS d  10    2328.656 710.560-2417.609  0.00  0.00     0.053 A 
ATOM    167  CD2 HIS d  10    2329.038 710.226-2416.316  0.00  0.00     0.116 A 
ATOM    168  NE2 HIS d  10    2330.252 709.593-2416.383  0.00  0.00    -0.359 N 
ATOM    169  CE1 HIS d  10    2330.514 709.595-2417.718  0.00  0.00     0.207 A 
ATOM    170  2HE HIS d  10    2330.819 709.216-2415.610  0.00  0.00     0.166 HD
ATOM    171  ND1 HIS d  10    2329.608 710.154-2418.541  0.00  0.00    -0.247 NA
ENDBRANCH 165 166
ENDBRANCH   1 165
TORSDOF 72
