@<TRIPOS>MOLECULE
6-13
257 258 16              
SMALL
USER_CHARGES
@<TRIPOS>ATOM
1	   N	959.363	263.268	-932.592	N.3	1	GLU1	-0.516	
2	  CA	959.922	264.617	-932.592	C.3	1	GLU1	0.040	
3	   C	961.431	264.577	-932.592	C.2	1	GLU1	0.537	
4	   O	962.107	265.276	-933.360	O.2	1	GLU1	-0.582	
5	  CB	959.399	265.402	-931.355	C.3	1	GLU1	0.056	
6	  CG	959.874	266.887	-931.244	C.3	1	GLU1	0.014	
7	  CD	959.450	267.691	-930.029	C.2	1	GLU1	0.805	
8	 OE1	958.722	267.189	-929.151	O.co2	1	GLU1	-0.819	
9	 OE2	959.880	268.861	-929.957	O.co2	1	GLU1	-0.819	
10	   H	959.990	262.389	-932.592	 H	1	GLU1	0.294	
11	  HA	959.596	265.135	-933.512	 H	1	GLU1	0.111	
12	 2HB	959.688	264.871	-930.425	 H	1	GLU1	-0.017	
13	 3HB	958.292	265.392	-931.342	 H	1	GLU1	-0.017	
14	 2HG	959.564	267.472	-932.125	 H	1	GLU1	-0.043	
15	 3HG	960.974	266.954	-931.215	 H	1	GLU1	-0.043	
16	   N	962.036	263.791	-931.767	N.am	2	ASN2	-0.416	
17	  CA	963.495	263.752	-931.767	C.3	2	ASN2	0.014	
18	   C	964.026	263.397	-933.135	C.2	2	ASN2	0.597	
19	   O	964.941	264.027	-933.664	O.2	2	ASN2	-0.568	
20	  CB	963.987	262.729	-930.702	C.3	2	ASN2	-0.204	
21	  CG	963.524	262.953	-929.259	C.2	2	ASN2	0.713	
22	 ND2	964.118	263.868	-928.541	N.pl3	2	ASN2	-0.919	
23	 OD1	962.603	262.319	-928.765	O.2	2	ASN2	-0.593	
24	   H	961.507	263.211	-931.130	 H	2	ASN2	0.272	
25	  HA	963.872	264.762	-931.521	 H	2	ASN2	0.105	
26	 2HB	965.091	262.670	-930.706	 H	2	ASN2	0.080	
27	 3HB	963.658	261.711	-930.988	 H	2	ASN2	0.080	
28	1HD2	963.637	264.041	-927.654	 H	2	ASN2	0.420	
29	2HD2	964.820	264.440	-929.010	 H	2	ASN2	0.420	
30	   N	963.505	262.402	-933.769	N.am	3	PRO3	-0.255	
31	  CA	963.956	261.992	-935.091	C.3	3	PRO3	-0.027	
32	   C	963.558	263.016	-936.168	C.2	3	PRO3	0.590	
33	   O	964.382	263.399	-936.999	O.2	3	PRO3	-0.575	
34	  CB	963.252	260.638	-935.260	C.3	3	PRO3	-0.007	
35	  CG	961.969	260.790	-934.430	C.3	3	PRO3	0.019	
36	  CD	962.427	261.608	-933.220	C.3	3	PRO3	0.019	
37	  HA	965.042	261.873	-935.105	 H	3	PRO3	0.064	
38	 2HB	963.875	259.856	-934.820	 H	3	PRO3	0.025	
39	 3HB	963.054	260.389	-936.306	 H	3	PRO3	0.025	
40	 2HG	961.542	259.827	-934.139	 H	3	PRO3	0.021	
41	 3HG	961.232	261.361	-934.997	 H	3	PRO3	0.021	
42	 2HD	962.816	260.959	-932.433	 H	3	PRO3	0.039	
43	 3HD	961.630	262.244	-932.827	 H	3	PRO3	0.039	
44	   N	962.354	263.476	-936.200	N.am	4	GLU4	-0.516	
45	  CA	961.994	264.447	-937.230	C.3	4	GLU4	0.040	
46	   C	962.893	265.658	-937.169	C.2	4	GLU4	0.537	
47	   O	963.419	266.137	-938.183	O.2	4	GLU4	-0.582	
48	  CB	960.505	264.865	-937.060	C.3	4	GLU4	0.056	
49	  CG	959.957	265.869	-938.125	C.3	4	GLU4	0.014	
50	  CD	958.530	266.365	-937.982	C.2	4	GLU4	0.805	
51	 OE1	957.804	265.967	-937.051	O.co2	4	GLU4	-0.819	
52	 OE2	958.141	267.194	-938.830	O.co2	4	GLU4	-0.819	
53	   H	961.669	263.169	-935.523	 H	4	GLU4	0.294	
54	  HA	962.125	263.976	-938.221	 H	4	GLU4	0.111	
55	 2HB	960.353	265.305	-936.053	 H	4	GLU4	-0.017	
56	 3HB	959.858	263.967	-937.066	 H	4	GLU4	-0.017	
57	 2HG	960.039	265.454	-939.143	 H	4	GLU4	-0.043	
58	 3HG	960.545	266.801	-938.136	 H	4	GLU4	-0.043	
59	   N	963.120	266.211	-936.025	N.am	5	SER5	-0.416	
60	  CA	963.989	267.382	-935.967	C.3	5	SER5	-0.025	
61	   C	965.348	267.077	-936.552	C.2	5	SER5	0.597	
62	   O	965.895	267.830	-937.357	O.2	5	SER5	-0.568	
63	  CB	964.101	267.914	-934.516	C.3	5	SER5	0.212	
64	  OG	964.832	267.035	-933.655	O.3	5	SER5	-0.655	
65	   H	962.703	265.839	-935.184	 H	5	SER5	0.272	
66	  HA	963.540	268.172	-936.596	 H	5	SER5	0.084	
67	 2HB	963.101	268.108	-934.083	 H	5	SER5	0.035	
68	 3HB	964.606	268.900	-934.519	 H	5	SER5	0.035	
69	  HG	964.344	266.210	-933.605	 H	5	SER5	0.428	
70	   N	965.953	265.994	-936.198	N.am	6	SER6	-0.416	
71	  CA	967.266	265.700	-936.765	C.3	6	SER6	-0.025	
72	   C	967.208	265.662	-938.274	C.2	6	SER6	0.597	
73	   O	968.036	266.246	-938.972	O.2	6	SER6	-0.568	
74	  CB	967.835	264.381	-936.184	C.3	6	SER6	0.212	
75	  OG	967.121	263.223	-936.630	O.3	6	SER6	-0.655	
76	   H	965.525	265.359	-935.539	 H	6	SER6	0.272	
77	  HA	967.949	266.525	-936.491	 H	6	SER6	0.084	
78	 2HB	967.847	264.403	-935.077	 H	6	SER6	0.035	
79	 3HB	968.897	264.271	-936.478	 H	6	SER6	0.035	
80	  HG	966.221	263.297	-936.305	 H	6	SER6	0.428	
81	   N	966.262	264.999	-938.847	N.am	7	LEU7	-0.416	
82	  CA	966.207	264.963	-940.306	C.3	7	LEU7	-0.052	
83	   C	966.134	266.358	-940.878	C.2	7	LEU7	0.597	
84	   O	966.854	266.722	-941.820	O.2	7	LEU7	-0.568	
85	  CB	965.004	264.102	-940.786	C.3	7	LEU7	-0.110	
86	  CG	964.932	262.623	-940.320	C.3	7	LEU7	0.353	
87	 CD1	963.742	261.916	-940.985	C.3	7	LEU7	-0.412	
88	 CD2	966.226	261.844	-940.612	C.3	7	LEU7	-0.412	
89	   H	965.571	264.511	-938.296	 H	7	LEU7	0.272	
90	  HA	967.149	264.523	-940.681	 H	7	LEU7	0.092	
91	 2HB	964.980	264.119	-941.893	 H	7	LEU7	0.046	
92	 3HB	964.064	264.604	-940.481	 H	7	LEU7	0.046	
93	  HG	964.763	262.614	-939.223	 H	7	LEU7	-0.036	
94	1HD1	962.785	262.425	-940.762	 H	7	LEU7	0.100	
95	2HD1	963.841	261.877	-942.086	 H	7	LEU7	0.100	
96	3HD1	963.636	260.875	-940.629	 H	7	LEU7	0.100	
97	1HD2	966.501	261.875	-941.682	 H	7	LEU7	0.100	
98	2HD2	967.079	262.256	-940.041	 H	7	LEU7	0.100	
99	3HD2	966.145	260.782	-940.317	 H	7	LEU7	0.100	
100	   N	965.296	267.198	-940.371	N.am	8	ASP8	-0.516	
101	  CA	965.225	268.548	-940.923	C.3	8	ASP8	0.038	
102	   C	966.571	269.229	-940.866	C.2	8	ASP8	0.537	
103	   O	967.043	269.835	-941.841	O.2	8	ASP8	-0.582	
104	  CB	964.147	269.386	-940.181	C.3	8	ASP8	-0.030	
105	  CG	963.927	270.807	-940.721	C.2	8	ASP8	0.799	
106	 OD1	963.990	271.007	-941.951	O.co2	8	ASP8	-0.801	
107	 OD2	963.734	271.733	-939.905	O.co2	8	ASP8	-0.801	
108	   H	964.699	266.927	-939.603	 H	8	ASP8	0.294	
109	  HA	964.941	268.471	-941.990	 H	8	ASP8	0.088	
110	 2HB	964.404	269.469	-939.109	 H	8	ASP8	-0.012	
111	 3HB	963.168	268.881	-940.214	 H	8	ASP8	-0.012	
112	   N	967.251	269.178	-939.771	N.am	9	GLU9	-0.516	
113	  CA	968.554	269.837	-939.716	C.3	9	GLU9	0.040	
114	   C	969.472	269.310	-940.792	C.2	9	GLU9	0.537	
115	   O	970.135	270.065	-941.517	O.2	9	GLU9	-0.582	
116	  CB	969.188	269.628	-938.311	C.3	9	GLU9	0.056	
117	  CG	970.570	270.321	-938.081	C.3	9	GLU9	0.014	
118	  CD	971.272	270.108	-936.754	C.2	9	GLU9	0.805	
119	 OE1	970.751	269.416	-935.857	O.co2	9	GLU9	-0.819	
120	 OE2	972.391	270.646	-936.622	O.co2	9	GLU9	-0.819	
121	   H	966.888	268.691	-938.964	 H	9	GLU9	0.294	
122	  HA	968.411	270.918	-939.891	 H	9	GLU9	0.111	
123	 2HB	969.301	268.544	-938.108	 H	9	GLU9	-0.017	
124	 3HB	968.491	269.981	-937.526	 H	9	GLU9	-0.017	
125	 2HG	970.497	271.412	-938.221	 H	9	GLU9	-0.043	
126	 3HG	971.317	269.977	-938.816	 H	9	GLU9	-0.043	
127	   N	969.569	268.035	-940.963	N.am	10	HIS10	-0.416	
128	  CA	970.457	267.525	-942.004	C.3	10	HIS10	-0.058	
129	   C	970.089	268.090	-943.354	C.2	10	HIS10	0.597	
130	   O	970.941	268.556	-944.126	O.2	10	HIS10	-0.568	
131	  CB	970.294	265.996	-942.000	C.3	10	HIS10	-0.007	
132	  CG	971.580	265.286	-941.693	C.2	10	HIS10	0.187	
133	 CD2	971.962	264.950	-940.400	C.2	10	HIS10	-0.221	
134	 ND1	972.532	264.882	-942.626	N.2	10	HIS10	-0.543	
135	 CE1	973.439	264.324	-941.803	C.2	10	HIS10	0.163	
136	 NE2	973.177	264.320	-940.468	N.pl3	10	HIS10	-0.280	
137	   H	969.039	267.399	-940.384	 H	10	HIS10	0.272	
138	  HA	971.476	267.883	-941.779	 H	10	HIS10	0.136	
139	 2HB	969.929	265.629	-942.980	 H	10	HIS10	0.037	
140	 3HB	969.539	265.658	-941.260	 H	10	HIS10	0.037	
141	 2HD	971.376	265.165	-939.511	 H	10	HIS10	0.186	
142	 1HE	974.330	263.904	-942.250	 H	10	HIS10	0.144	
143	 2HE	973.744	263.942	-939.695	 H	10	HIS10	0.334	
144	   N	968.851	268.089	-943.717	N.am	11	VAL11	-0.416	
145	  CA	968.495	268.635	-945.023	C.3	11	VAL11	-0.087	
146	   C	968.959	270.066	-945.155	C.2	11	VAL11	0.597	
147	   O	969.560	270.472	-946.158	O.2	11	VAL11	-0.568	
148	  CB	966.934	268.528	-945.243	C.3	11	VAL11	0.299	
149	 CG1	966.365	269.232	-946.505	C.3	11	VAL11	-0.319	
150	 CG2	966.411	267.073	-945.316	C.3	11	VAL11	-0.319	
151	   H	968.139	267.715	-943.106	 H	11	VAL11	0.272	
152	  HA	969.015	268.054	-945.806	 H	11	VAL11	0.097	
153	  HB	966.447	269.007	-944.367	 H	11	VAL11	-0.030	
154	1HG1	966.803	268.841	-947.442	 H	11	VAL11	0.079	
155	2HG1	965.266	269.124	-946.586	 H	11	VAL11	0.079	
156	3HG1	966.542	270.324	-946.495	 H	11	VAL11	0.079	
157	1HG2	966.701	266.486	-944.426	 H	11	VAL11	0.079	
158	2HG2	965.305	267.035	-945.359	 H	11	VAL11	0.079	
159	3HG2	966.793	266.533	-946.203	 H	11	VAL11	0.079	
160	   N	968.721	270.891	-944.192	N.am	12	GLN12	-0.416	
161	  CA	969.169	272.275	-944.318	C.3	12	GLN12	-0.003	
162	   C	970.659	272.343	-944.556	C.2	12	GLN12	0.597	
163	   O	971.145	273.052	-945.434	O.2	12	GLN12	-0.568	
164	  CB	968.778	273.041	-943.035	C.3	12	GLN12	-0.004	
165	  CG	969.137	274.563	-943.003	C.3	12	GLN12	-0.064	
166	  CD	968.834	275.375	-941.738	C.2	12	GLN12	0.695	
167	 NE2	968.267	274.798	-940.709	N.pl3	12	GLN12	-0.941	
168	 OE1	969.135	276.556	-941.659	O.2	12	GLN12	-0.609	
169	   H	968.233	270.584	-943.363	 H	12	GLN12	0.272	
170	  HA	968.669	272.731	-945.193	 H	12	GLN12	0.085	
171	 2HB	969.254	272.540	-942.166	 H	12	GLN12	0.017	
172	 3HB	967.688	272.933	-942.872	 H	12	GLN12	0.017	
173	 2HG	968.659	275.084	-943.853	 H	12	GLN12	0.035	
174	 3HG	970.220	274.706	-943.169	 H	12	GLN12	0.035	
175	1HE2	968.160	275.392	-939.885	 H	12	GLN12	0.425	
176	2HE2	968.105	273.794	-940.813	 H	12	GLN12	0.425	
177	   N	971.444	271.636	-943.816	N.am	13	ARG13	-0.348	
178	  CA	972.884	271.703	-944.047	C.3	13	ARG13	-0.264	
179	   C	973.220	271.333	-945.472	C.2	13	ARG13	0.734	
180	   O	973.989	272.006	-946.156	O.2	13	ARG13	-0.589	
181	  CB	973.598	270.764	-943.034	C.3	13	ARG13	-0.001	
182	  CG	975.143	270.918	-942.953	C.3	13	ARG13	0.039	
183	  CD	975.771	269.930	-941.956	C.3	13	ARG13	0.049	
184	  NE	977.248	270.138	-941.905	N.pl3	13	ARG13	-0.530	
185	  CZ	978.096	269.446	-941.151	C.cat	13	ARG13	0.808	
186	 NH1	977.732	268.481	-940.354	N.pl3	13	ARG13	-0.863	
187	 NH2	979.356	269.746	-941.207	N.pl3	13	ARG13	-0.863	
188	   H	971.068	271.046	-943.088	 H	13	ARG13	0.275	
189	  HA	973.208	272.749	-943.888	 H	13	ARG13	0.156	
190	 2HB	973.332	269.713	-943.274	 H	13	ARG13	0.033	
191	 3HB	973.173	270.929	-942.023	 H	13	ARG13	0.033	
192	 2HG	975.390	271.962	-942.672	 H	13	ARG13	0.029	
193	 3HG	975.594	270.763	-943.954	 H	13	ARG13	0.029	
194	 2HD	975.527	268.890	-942.266	 H	13	ARG13	0.069	
195	 3HD	975.314	270.074	-940.953	 H	13	ARG13	0.069	
196	  HE	977.698	270.861	-942.475	 H	13	ARG13	0.346	
197	1HH1	976.727	268.294	-940.357	 H	13	ARG13	0.448	
198	2HH1	978.445	267.998	-939.806	 H	13	ARG13	0.448	
199	1HH2	979.622	270.505	-941.838	 H	13	ARG13	0.448	
200	2HH2	979.991	269.204	-940.619	 H	13	ARG13	0.448	
201	   N	972.685	270.279	-945.987	N.am	14	VAL14	-0.416	
202	  CA	973.010	269.921	-947.365	C.3	14	VAL14	-0.087	
203	   C	972.679	271.051	-948.310	C.2	14	VAL14	0.597	
204	   O	973.472	271.434	-949.179	O.2	14	VAL14	-0.568	
205	  CB	972.239	268.603	-947.773	C.3	14	VAL14	0.299	
206	 CG1	972.328	268.187	-949.267	C.3	14	VAL14	-0.319	
207	 CG2	972.671	267.351	-946.974	C.3	14	VAL14	-0.319	
208	   H	972.050	269.709	-945.446	 H	14	VAL14	0.272	
209	  HA	974.098	269.745	-947.440	 H	14	VAL14	0.097	
210	  HB	971.162	268.774	-947.557	 H	14	VAL14	-0.030	
211	1HG1	973.369	268.010	-949.596	 H	14	VAL14	0.079	
212	2HG1	971.756	267.263	-949.481	 H	14	VAL14	0.079	
213	3HG1	971.898	268.949	-949.945	 H	14	VAL14	0.079	
214	1HG2	972.584	267.508	-945.883	 H	14	VAL14	0.079	
215	2HG2	972.036	266.474	-947.207	 H	14	VAL14	0.079	
216	3HG2	973.719	267.062	-947.180	 H	14	VAL14	0.079	
217	   N	971.534	271.636	-948.208	N.am	15	MET15	-0.416	
218	  CA	971.213	272.730	-949.120	C.3	15	MET15	-0.024	
219	   C	972.242	273.830	-949.032	C.2	15	MET15	0.597	
220	   O	972.745	274.342	-950.044	O.2	15	MET15	-0.568	
221	  CB	969.791	273.274	-948.811	C.3	15	MET15	0.034	
222	  CG	968.630	272.275	-949.003	C.3	15	MET15	0.002	
223	  SD	967.055	273.140	-948.888	S.3	15	MET15	-0.274	
224	  CE	965.975	271.710	-948.753	C.3	15	MET15	-0.054	
225	   H	970.869	271.342	-947.506	 H	15	MET15	0.272	
226	  HA	971.239	272.343	-950.156	 H	15	MET15	0.088	
227	 2HB	969.588	274.153	-949.452	 H	15	MET15	0.024	
228	 3HB	969.755	273.666	-947.774	 H	15	MET15	0.024	
229	 2HG	968.673	271.489	-948.226	 H	15	MET15	0.044	
230	 3HG	968.693	271.761	-949.980	 H	15	MET15	0.044	
231	 1HE	966.119	271.022	-949.606	 H	15	MET15	0.068	
232	 2HE	966.185	271.156	-947.821	 H	15	MET15	0.068	
233	 3HE	964.917	272.024	-948.736	 H	15	MET15	0.068	
234	   N	972.611	274.250	-947.869	N.am	16	ARG16	-0.348	
235	  CA	973.607	275.315	-947.784	C.3	16	ARG16	-0.264	
236	   C	974.878	274.923	-948.501	C.2	16	ARG16	0.734	
237	   O	974.992	273.848	-949.084	O.2	16	ARG16	-0.589	
238	  CB	973.876	275.631	-946.286	C.3	16	ARG16	-0.001	
239	  CG	974.700	276.920	-946.012	C.3	16	ARG16	0.039	
240	  CD	974.950	277.139	-944.510	C.3	16	ARG16	0.049	
241	  NE	975.725	278.398	-944.308	N.pl3	16	ARG16	-0.530	
242	  CZ	976.116	278.879	-943.132	C.cat	16	ARG16	0.808	
243	 NH1	975.869	278.294	-941.994	N.pl3	16	ARG16	-0.863	
244	 NH2	976.780	279.992	-943.112	N.pl3	16	ARG16	-0.863	
245	   H	972.216	273.849	-947.030	 H	16	ARG16	0.275	
246	  HA	973.197	276.208	-948.293	 H	16	ARG16	0.156	
247	 2HB	974.373	274.755	-945.820	 H	16	ARG16	0.033	
248	 3HB	972.907	275.711	-945.752	 H	16	ARG16	0.033	
249	 2HG	974.169	277.792	-946.448	 H	16	ARG16	0.029	
250	 3HG	975.674	276.869	-946.541	 H	16	ARG16	0.029	
251	 2HD	975.499	276.264	-944.098	 H	16	ARG16	0.069	
252	 3HD	973.977	277.180	-943.975	 H	16	ARG16	0.069	
253	  HE	976.003	278.980	-945.105	 H	16	ARG16	0.346	
254	1HH1	975.344	277.420	-942.079	 H	16	ARG16	0.448	
255	2HH1	976.203	278.728	-941.133	 H	16	ARG16	0.448	
256	1HH2	976.965	280.436	-944.014	 H	16	ARG16	0.448	
257	2HH2	977.070	280.346	-942.200	 H	16	ARG16	0.448	
@<TRIPOS>BOND
1 1 2 1
2 1 10 1
3 2 3 1
4 2 5 1
5 2 11 1
6 3 4 2
7 3 16 1
8 5 6 1
9 6 7 1
10 7 8 2
11 7 9 1
12 5 12 1
13 5 13 1
14 6 14 1
15 6 15 1
16 16 17 1
17 16 24 1
18 17 18 1
19 17 20 1
20 17 25 1
21 18 19 2
22 18 30 1
23 20 21 1
24 21 22 1
25 21 23 2
26 20 26 1
27 20 27 1
28 22 28 1
29 22 29 1
30 30 31 1
31 30 36 1
32 31 32 1
33 31 34 1
34 31 37 1
35 32 33 2
36 32 44 1
37 34 35 1
38 35 36 1
39 34 38 1
40 34 39 1
41 35 40 1
42 35 41 1
43 36 42 1
44 36 43 1
45 44 45 1
46 44 53 1
47 45 46 1
48 45 48 1
49 45 54 1
50 46 47 2
51 46 59 1
52 48 49 1
53 49 50 1
54 50 51 2
55 50 52 1
56 48 55 1
57 48 56 1
58 49 57 1
59 49 58 1
60 59 60 1
61 59 65 1
62 60 61 1
63 60 63 1
64 60 66 1
65 61 62 2
66 61 70 1
67 63 64 1
68 63 67 1
69 63 68 1
70 64 69 1
71 70 71 1
72 70 76 1
73 71 72 1
74 71 74 1
75 71 77 1
76 72 73 2
77 72 81 1
78 74 75 1
79 74 78 1
80 74 79 1
81 75 80 1
82 81 82 1
83 81 89 1
84 82 83 1
85 82 85 1
86 82 90 1
87 83 84 2
88 83 100 1
89 85 86 1
90 86 87 1
91 86 88 1
92 85 91 1
93 85 92 1
94 86 93 1
95 87 94 1
96 87 95 1
97 87 96 1
98 88 97 1
99 88 98 1
100 88 99 1
101 100 101 1
102 100 108 1
103 101 102 1
104 101 104 1
105 101 109 1
106 102 103 2
107 102 112 1
108 104 105 1
109 105 106 2
110 105 107 1
111 104 110 1
112 104 111 1
113 112 113 1
114 112 121 1
115 113 114 1
116 113 116 1
117 113 122 1
118 114 115 2
119 114 127 1
120 116 117 1
121 117 118 1
122 118 119 2
123 118 120 1
124 116 123 1
125 116 124 1
126 117 125 1
127 117 126 1
128 127 128 1
129 127 137 1
130 128 129 1
131 128 131 1
132 128 138 1
133 129 130 2
134 129 144 1
135 131 132 1
136 132 133 2
137 133 136 1
138 132 134 1
139 134 135 2
140 135 136 1
141 131 139 1
142 131 140 1
143 133 141 1
144 135 142 1
145 136 143 1
146 144 145 1
147 144 151 1
148 145 146 1
149 145 148 1
150 145 152 1
151 146 147 2
152 146 160 1
153 148 149 1
154 148 150 1
155 148 153 1
156 149 154 1
157 149 155 1
158 149 156 1
159 150 157 1
160 150 158 1
161 150 159 1
162 160 161 1
163 160 169 1
164 161 162 1
165 161 164 1
166 161 170 1
167 162 163 2
168 162 177 1
169 164 165 1
170 165 166 1
171 166 167 1
172 166 168 2
173 164 171 1
174 164 172 1
175 165 173 1
176 165 174 1
177 167 175 1
178 167 176 1
179 177 178 1
180 177 188 1
181 178 179 1
182 178 181 1
183 178 189 1
184 179 180 2
185 179 201 1
186 181 182 1
187 182 183 1
188 183 184 1
189 184 185 1
190 185 186 2
191 185 187 1
192 181 190 1
193 181 191 1
194 182 192 1
195 182 193 1
196 183 194 1
197 183 195 1
198 184 196 1
199 186 197 1
200 186 198 1
201 187 199 1
202 187 200 1
203 201 202 1
204 201 208 1
205 202 203 1
206 202 205 1
207 202 209 1
208 203 204 2
209 203 217 1
210 205 206 1
211 205 207 1
212 205 210 1
213 206 211 1
214 206 212 1
215 206 213 1
216 207 214 1
217 207 215 1
218 207 216 1
219 217 218 1
220 217 225 1
221 218 219 1
222 218 221 1
223 218 226 1
224 219 220 2
225 219 234 1
226 221 222 1
227 222 223 1
228 223 224 1
229 221 227 1
230 221 228 1
231 222 229 1
232 222 230 1
233 224 231 1
234 224 232 1
235 224 233 1
236 234 235 1
237 234 245 1
238 235 236 1
239 235 238 1
240 235 246 1
241 236 237 2
242 238 239 1
243 239 240 1
244 240 241 1
245 241 242 1
246 242 243 2
247 242 244 1
248 238 247 1
249 238 248 1
250 239 249 1
251 239 250 1
252 240 251 1
253 240 252 1
254 241 253 1
255 243 254 1
256 243 255 1
257 244 256 1
258 244 257 1
@<TRIPOS>SUBSTRUCTURE
1	GLU1	1	RESIDUE	1 ****	GLU
2	ASN2	16	RESIDUE	1 ****	ASN
3	PRO3	30	RESIDUE	1 ****	PRO
4	GLU4	44	RESIDUE	1 ****	GLU
5	SER5	59	RESIDUE	1 ****	SER
6	SER6	70	RESIDUE	1 ****	SER
7	LEU7	81	RESIDUE	1 ****	LEU
8	ASP8	100	RESIDUE	1 ****	ASP
9	GLU9	112	RESIDUE	1 ****	GLU
10	HIS10	127	RESIDUE	1 ****	HIS
11	VAL11	144	RESIDUE	1 ****	VAL
12	GLN12	160	RESIDUE	1 ****	GLN
13	ARG13	177	RESIDUE	1 ****	ARG
14	VAL14	201	RESIDUE	1 ****	VAL
15	MET15	217	RESIDUE	1 ****	MET
16	ARG16	234	RESIDUE	1 ****	ARG
