REMARK WARNING: 32 MAX_TORS EXCEEDED!!!
REMARK  66 active torsions:
REMARK  status: ('A' for Active; 'I' for Inactive)
REMARK    1  A    between atoms: N_1  and  CA_2 
REMARK    2  A    between atoms: CA_2  and  C_3 
REMARK    3  A    between atoms: CA_2  and  CB_5 
REMARK       I    between atoms: C_3  and  N_11 
REMARK    4  A    between atoms: CB_5  and  CG_6 
REMARK    5  A    between atoms: CG_6  and  CD_7 
REMARK    6  A    between atoms: N_11  and  CA_12 
REMARK    7  A    between atoms: CA_12  and  C_13 
REMARK    8  A    between atoms: CA_12  and  CB_15 
REMARK       I    between atoms: C_13  and  N_22 
REMARK    9  A    between atoms: CB_15  and  CG_16 
REMARK       I    between atoms: CG_16  and  ND2_17 
REMARK   10  A    between atoms: CA_23  and  C_24 
REMARK       I    between atoms: C_24  and  N_29 
REMARK   11  A    between atoms: N_29  and  CA_30 
REMARK   12  A    between atoms: CA_30  and  C_31 
REMARK   13  A    between atoms: CA_30  and  CB_33 
REMARK       I    between atoms: C_31  and  N_39 
REMARK   14  A    between atoms: CB_33  and  CG_34 
REMARK   15  A    between atoms: CG_34  and  CD_35 
REMARK   16  A    between atoms: N_39  and  CA_40 
REMARK   17  A    between atoms: CA_40  and  C_41 
REMARK   18  A    between atoms: CA_40  and  CB_43 
REMARK       I    between atoms: C_41  and  N_47 
REMARK   19  A    between atoms: CB_43  and  OG_44 
REMARK   20  A    between atoms: N_47  and  CA_48 
REMARK   21  A    between atoms: CA_48  and  C_49 
REMARK   22  A    between atoms: CA_48  and  CB_51 
REMARK       I    between atoms: C_49  and  N_56 
REMARK   23  A    between atoms: CB_51  and  CG1_52 
REMARK   24  A    between atoms: N_56  and  CA_57 
REMARK   25  A    between atoms: CA_57  and  C_58 
REMARK   26  A    between atoms: CA_57  and  CB_60 
REMARK       I    between atoms: C_58  and  N_65 
REMARK   27  A    between atoms: CB_60  and  CG_61 
REMARK   28  A    between atoms: N_65  and  CA_66 
REMARK   29  A    between atoms: CA_66  and  C_67 
REMARK   30  A    between atoms: CA_66  and  CB_69 
REMARK       I    between atoms: C_67  and  N_74 
REMARK   31  A    between atoms: CB_69  and  CG_70 
REMARK   32  A    between atoms: N_74  and  CA_75 
REMARK   33  A    between atoms: CA_75  and  C_76 
REMARK   34  A    between atoms: CA_75  and  CB_78 
REMARK       I    between atoms: C_76  and  N_84 
REMARK   35  A    between atoms: CB_78  and  CG_79 
REMARK   36  A    between atoms: CG_79  and  CD_80 
REMARK   37  A    between atoms: N_84  and  CA_85 
REMARK   38  A    between atoms: CA_85  and  C_86 
REMARK   39  A    between atoms: CA_85  and  CB_88 
REMARK       I    between atoms: C_86  and  N_96 
REMARK   40  A    between atoms: CB_88  and  CG_89 
REMARK   41  A    between atoms: N_96  and  CA_97 
REMARK   42  A    between atoms: CA_97  and  C_98 
REMARK   43  A    between atoms: CA_97  and  CB_100 
REMARK       I    between atoms: C_98  and  N_104 
REMARK   44  A    between atoms: N_104  and  CA_105 
REMARK   45  A    between atoms: CA_105  and  C_106 
REMARK   46  A    between atoms: CA_105  and  CB_108 
REMARK       I    between atoms: C_106  and  N_116 
REMARK   47  A    between atoms: CB_108  and  CG_109 
REMARK   48  A    between atoms: CG_109  and  CD_110 
REMARK       I    between atoms: CD_110  and  NE2_111 
REMARK   49  A    between atoms: N_116  and  CA_117 
REMARK   50  A    between atoms: CA_117  and  C_118 
REMARK   51  A    between atoms: CA_117  and  CB_120 
REMARK       I    between atoms: C_118  and  N_128 
REMARK   52  A    between atoms: CB_120  and  CG_121 
REMARK   53  A    between atoms: N_128  and  CA_129 
REMARK   54  A    between atoms: CA_129  and  C_130 
REMARK   55  A    between atoms: CA_129  and  CB_132 
REMARK       I    between atoms: C_130  and  N_136 
REMARK   56  A    between atoms: N_136  and  CA_137 
REMARK   57  A    between atoms: CA_137  and  C_138 
REMARK   58  A    between atoms: CA_137  and  CB_140 
REMARK       I    between atoms: C_138  and  N_145 
REMARK   59  A    between atoms: CB_140  and  CG_141 
REMARK   60  A    between atoms: CG_141  and  SD_142 
REMARK   61  A    between atoms: N_145  and  CA_146 
REMARK   62  A    between atoms: CA_146  and  C_147 
REMARK   63  A    between atoms: CA_146  and  CB_149 
REMARK   64  A    between atoms: CB_149  and  CG_150 
REMARK   65  A    between atoms: CG_150  and  CD_151 
REMARK   66  A    between atoms: CD_151  and  NE_152 
REMARK       I    between atoms: NE_152  and  CZ_153 
REMARK       I    between atoms: CZ_153  and  NH1_154 
ROOT
ATOM      1  CA  GLU d   9    2074.062 632.779-2140.819  0.00  0.00     0.177 C 
ENDROOT
BRANCH   1   2
ATOM      2  N   GLU d   9    2072.759 632.122-2140.873  0.00  0.00    -0.346 N 
ATOM      3  C   ASP d   8    2072.079 632.171-2141.969  0.00  0.00     0.241 C 
ATOM      4  O   ASP d   8    2072.552 632.775-2142.944  0.00  0.00    -0.271 OA
ATOM      5  H   GLU d   9    2072.396 631.636-2140.066  0.00  0.00     0.163 HD
BRANCH   3   6
ATOM      6  CA  ASP d   8    2070.732 631.492-2142.025  0.00  0.00     0.186 C 
BRANCH   6   7
ATOM      7  N   ASP d   8    2070.802 630.143-2141.471  0.00  0.00    -0.346 N 
ATOM      8  C   LEU d   7    2071.639 629.302-2141.977  0.00  0.00     0.241 C 
ATOM      9  O   LEU d   7    2072.360 629.663-2142.919  0.00  0.00    -0.271 OA
ATOM     10  H   ASP d   8    2070.204 629.872-2140.703  0.00  0.00     0.163 HD
BRANCH   8  11
ATOM     11  CA  LEU d   7    2071.711 627.906-2141.404  0.00  0.00     0.177 C 
BRANCH  11  12
ATOM     12  N   LEU d   7    2071.766 627.943-2139.946  0.00  0.00    -0.346 N 
ATOM     13  C   ILE d   6    2072.712 628.606-2139.372  0.00  0.00     0.241 C 
ATOM     14  O   ILE d   6    2073.547 629.193-2140.076  0.00  0.00    -0.271 OA
ATOM     15  H   LEU d   7    2071.074 627.456-2139.394  0.00  0.00     0.163 HD
BRANCH  13  16
ATOM     16  CA  ILE d   6    2072.769 628.643-2137.864  0.00  0.00     0.180 C 
BRANCH  16  17
ATOM     17  N   ILE d   6    2071.456 628.939-2137.298  0.00  0.00    -0.346 N 
ATOM     18  C   SER d   5    2070.852 630.022-2137.653  0.00  0.00     0.243 C 
ATOM     19  O   SER d   5    2071.399 630.775-2138.457  0.00  0.00    -0.271 OA
ATOM     20  H   ILE d   6    2071.027 628.305-2136.640  0.00  0.00     0.163 HD
BRANCH  18  21
ATOM     21  CA  SER d   5    2069.493 630.328-2137.067  0.00  0.00     0.200 C 
BRANCH  21  22
ATOM     22  N   SER d   5    2068.623 629.157-2137.126  0.00  0.00    -0.344 N 
ATOM     23  C   GLU d   4    2068.396 628.604-2138.270  0.00  0.00     0.241 C 
ATOM     24  O   GLU d   4    2068.923 629.084-2139.284  0.00  0.00    -0.271 OA
ATOM     25  H   SER d   5    2068.205 628.786-2136.285  0.00  0.00     0.163 HD
BRANCH  23  26
ATOM     26  CA  GLU d   4    2067.497 627.394-2138.331  0.00  0.00     0.177 C 
BRANCH  26  27
ATOM     27  N   GLU d   4    2067.856 626.423-2137.301  0.00  0.00    -0.346 N 
ATOM     28  C   PRO d   3    2069.061 625.962-2137.269  0.00  0.00     0.241 C 
ATOM     29  O   PRO d   3    2069.884 626.345-2138.100  0.00  0.00    -0.271 OA
ATOM     30  H   GLU d   4    2067.171 626.116-2136.625  0.00  0.00     0.163 HD
BRANCH  28  31
ATOM     31  CA  PRO d   3    2069.458 624.939-2136.191  0.00  0.00     0.179 C 
ATOM     32  N   PRO d   3    2069.006 625.348-2134.870  0.00  0.00    -0.337 N 
ATOM     33  C   ASN d   2    2069.528 626.343-2134.236  0.00  0.00     0.243 C 
ATOM     34  CD  PRO d   3    2067.928 624.555-2134.321  0.00  0.00     0.127 C 
ATOM     35  O   ASN d   2    2070.443 626.973-2134.764  0.00  0.00    -0.271 OA
ATOM     36  CG  PRO d   3    2067.470 623.737-2135.531  0.00  0.00     0.022 C 
ATOM     37  CB  PRO d   3    2068.754 623.584-2136.361  0.00  0.00     0.037 C 
BRANCH  33  38
ATOM     38  CA  ASN d   2    2068.996 626.699-2132.867  0.00  0.00     0.185 C 
BRANCH  38  39
ATOM     39  N   ASN d   2    2067.537 626.738-2132.867  0.00  0.00    -0.346 N 
ATOM     40  C   GLU d   1    2066.932 627.523-2133.693  0.00  0.00     0.242 C 
ATOM     41  O   GLU d   1    2067.608 628.222-2134.461  0.00  0.00    -0.271 OA
ATOM     42  H   ASN d   2    2067.009 626.158-2132.231  0.00  0.00     0.163 HD
BRANCH  40  43
ATOM     43  CA  GLU d   1    2065.423 627.563-2133.693  0.00  0.00     0.191 C 
BRANCH  43  44
ATOM     44  N   GLU d   1    2064.864 626.214-2133.693  0.00  0.00    -0.326 NA
ATOM     45  H   GLU d   1    2065.491 625.335-2133.693  0.00  0.00     0.180 HD
ENDBRANCH  43  44
BRANCH  43  46
ATOM     46  CB  GLU d   1    2064.900 628.348-2132.456  0.00  0.00     0.047 C 
BRANCH  46  47
ATOM     47  CG  GLU d   1    2065.375 629.833-2132.345  0.00  0.00     0.116 C 
BRANCH  47  48
ATOM     48  CD  GLU d   1    2064.951 630.637-2131.130  0.00  0.00     0.172 C 
ATOM     49  OE1 GLU d   1    2064.223 630.135-2130.252  0.00  0.00    -0.648 OA
ATOM     50  OE2 GLU d   1    2065.381 631.807-2131.058  0.00  0.00    -0.648 OA
ENDBRANCH  47  48
ENDBRANCH  46  47
ENDBRANCH  43  46
ENDBRANCH  40  43
ENDBRANCH  38  39
BRANCH  38  51
ATOM     51  CB  ASN d   2    2069.488 625.676-2131.803  0.00  0.00     0.137 C 
BRANCH  51  52
ATOM     52  CG  ASN d   2    2069.024 625.899-2130.360  0.00  0.00     0.217 C 
ATOM     53  ND2 ASN d   2    2069.618 626.814-2129.641  0.00  0.00    -0.370 N 
ATOM     54 21HD ASN d   2    2069.137 626.988-2128.755  0.00  0.00     0.159 HD
ATOM     55 22HD ASN d   2    2070.320 627.386-2130.110  0.00  0.00     0.159 HD
ATOM     56  OD1 ASN d   2    2068.103 625.266-2129.865  0.00  0.00    -0.274 OA
ENDBRANCH  51  52
ENDBRANCH  38  51
ENDBRANCH  33  38
ENDBRANCH  28  31
ENDBRANCH  26  27
BRANCH  26  57
ATOM     57  CB  GLU d   4    2066.008 627.813-2138.161  0.00  0.00     0.045 C 
BRANCH  57  58
ATOM     58  CG  GLU d   4    2065.461 628.817-2139.227  0.00  0.00     0.116 C 
BRANCH  58  59
ATOM     59  CD  GLU d   4    2064.034 629.314-2139.084  0.00  0.00     0.172 C 
ATOM     60  OE1 GLU d   4    2063.307 628.915-2138.154  0.00  0.00    -0.648 OA
ATOM     61  OE2 GLU d   4    2063.645 630.143-2139.933  0.00  0.00    -0.648 OA
ENDBRANCH  58  59
ENDBRANCH  57  58
ENDBRANCH  26  57
ENDBRANCH  23  26
ENDBRANCH  21  22
BRANCH  21  62
ATOM     62  CB  SER d   5    2069.604 630.860-2135.617  0.00  0.00     0.199 C 
BRANCH  62  63
ATOM     63  OG  SER d   5    2070.335 629.981-2134.756  0.00  0.00    -0.398 OA
ATOM     64  HG  SER d   5    2069.846 629.156-2134.705  0.00  0.00     0.209 HD
ENDBRANCH  62  63
ENDBRANCH  21  62
ENDBRANCH  18  21
ENDBRANCH  16  17
BRANCH  16  65
ATOM     65  CB  ILE d   6    2073.368 627.307-2137.264  0.00  0.00     0.013 C 
ATOM     66  CG2 ILE d   6    2074.809 627.005-2137.779  0.00  0.00     0.012 C 
BRANCH  65  67
ATOM     67  CG1 ILE d   6    2073.387 627.245-2135.703  0.00  0.00     0.002 C 
ATOM     68  CD1 ILE d   6    2073.656 625.855-2135.088  0.00  0.00     0.005 C 
ENDBRANCH  65  67
ENDBRANCH  16  65
ENDBRANCH  13  16
ENDBRANCH  11  12
BRANCH  11  69
ATOM     69  CB  LEU d   7    2070.508 627.047-2141.885  0.00  0.00     0.038 C 
BRANCH  69  70
ATOM     70  CG  LEU d   7    2070.434 625.567-2141.418  0.00  0.00    -0.020 C 
ATOM     71  CD1 LEU d   7    2069.244 624.862-2142.083  0.00  0.00     0.009 C 
ATOM     72  CD2 LEU d   7    2071.728 624.787-2141.709  0.00  0.00     0.009 C 
ENDBRANCH  69  70
ENDBRANCH  11  69
ENDBRANCH   8  11
ENDBRANCH   6   7
BRANCH   6  73
ATOM     73  CB  ASP d   8    2069.655 632.332-2141.284  0.00  0.00     0.147 C 
BRANCH  73  74
ATOM     74  CG  ASP d   8    2069.437 633.753-2141.825  0.00  0.00     0.175 C 
ATOM     75  OD1 ASP d   8    2069.501 633.951-2143.056  0.00  0.00    -0.648 OA
ATOM     76  OD2 ASP d   8    2069.245 634.679-2141.011  0.00  0.00    -0.648 OA
ENDBRANCH  73  74
ENDBRANCH   6  73
ENDBRANCH   3   6
ENDBRANCH   1   2
BRANCH   1  77
ATOM     77  C   GLU d   9    2074.980 632.250-2141.895  0.00  0.00     0.241 C 
ATOM     78  O   GLU d   9    2075.644 633.004-2142.621  0.00  0.00    -0.271 OA
ATOM     79  N   HIS d  10    2075.076 630.975-2142.063  0.00  0.00    -0.346 N 
ATOM     80  H   HIS d  10    2074.545 630.340-2141.484  0.00  0.00     0.163 HD
BRANCH  79  81
ATOM     81  CA  HIS d  10    2075.963 630.462-2143.104  0.00  0.00     0.182 C 
BRANCH  81  82
ATOM     82  C   HIS d  10    2075.596 631.026-2144.455  0.00  0.00     0.241 C 
ATOM     83  O   HIS d  10    2076.449 631.490-2145.227  0.00  0.00    -0.271 OA
ATOM     84  N   VAL d  11    2074.358 631.026-2144.818  0.00  0.00    -0.346 N 
ATOM     85  H   VAL d  11    2073.645 630.654-2144.207  0.00  0.00     0.163 HD
BRANCH  84  86
ATOM     86  CA  VAL d  11    2074.003 631.572-2146.125  0.00  0.00     0.180 C 
BRANCH  86  87
ATOM     87  C   VAL d  11    2074.469 633.002-2146.258  0.00  0.00     0.241 C 
ATOM     88  O   VAL d  11    2075.070 633.406-2147.261  0.00  0.00    -0.271 OA
ATOM     89  N   GLN d  12    2074.232 633.828-2145.296  0.00  0.00    -0.346 N 
ATOM     90  H   GLN d  12    2073.743 633.523-2144.467  0.00  0.00     0.163 HD
BRANCH  89  91
ATOM     91  CA  GLN d  12    2074.681 635.211-2145.424  0.00  0.00     0.177 C 
BRANCH  91  92
ATOM     92  C   GLN d  12    2076.171 635.277-2145.662  0.00  0.00     0.241 C 
ATOM     93  O   GLN d  12    2076.658 635.985-2146.542  0.00  0.00    -0.271 OA
ATOM     94  N   PHE d  13    2076.955 634.570-2144.921  0.00  0.00    -0.346 N 
ATOM     95  H   PHE d  13    2076.579 633.981-2144.192  0.00  0.00     0.163 HD
BRANCH  94  96
ATOM     96  CA  PHE d  13    2078.396 634.635-2145.152  0.00  0.00     0.180 C 
BRANCH  96  97
ATOM     97  C   PHE d  13    2078.734 634.262-2146.576  0.00  0.00     0.241 C 
ATOM     98  O   PHE d  13    2079.525 634.953-2147.277  0.00  0.00    -0.271 OA
ATOM     99  N   VAL d  14    2078.198 633.208-2147.092  0.00  0.00    -0.346 N 
ATOM    100  H   VAL d  14    2077.562 632.640-2146.551  0.00  0.00     0.163 HD
BRANCH  99 101
ATOM    101  CA  VAL d  14    2078.525 632.849-2148.469  0.00  0.00     0.180 C 
BRANCH 101 102
ATOM    102  C   VAL d  14    2078.198 633.979-2149.415  0.00  0.00     0.241 C 
ATOM    103  O   VAL d  14    2078.993 634.360-2150.283  0.00  0.00    -0.271 OA
ATOM    104  N   MET d  15    2077.053 634.566-2149.315  0.00  0.00    -0.346 N 
ATOM    105  H   MET d  15    2076.386 634.273-2148.615  0.00  0.00     0.163 HD
BRANCH 104 106
ATOM    106  CA  MET d  15    2076.735 635.658-2150.229  0.00  0.00     0.177 C 
BRANCH 106 107
ATOM    107  C   MET d  15    2077.766 636.758-2150.140  0.00  0.00     0.241 C 
ATOM    108  O   MET d  15    2078.271 637.267-2151.152  0.00  0.00    -0.271 OA
ATOM    109  N   ARG d  16    2078.133 637.179-2148.978  0.00  0.00    -0.347 N 
ATOM    110  H   ARG d  16    2077.737 636.779-2148.139  0.00  0.00     0.163 HD
BRANCH 109 111
ATOM    111  CA  ARG d  16    2079.131 638.242-2148.893  0.00  0.00     0.162 C 
BRANCH 111 112
ATOM    112  C   ARG d  16    2080.402 637.848-2149.606  0.00  0.00     0.219 C 
ATOM    113  O   ARG d  16    2080.516 636.771-2150.187  0.00  0.00    -0.287 OA
ENDBRANCH 111 112
BRANCH 111 114
ATOM    114  CB  ARG d  16    2079.397 638.560-2147.394  0.00  0.00     0.035 C 
BRANCH 114 115
ATOM    115  CG  ARG d  16    2080.223 639.849-2147.120  0.00  0.00     0.023 C 
BRANCH 115 116
ATOM    116  CD  ARG d  16    2080.470 640.069-2145.619  0.00  0.00     0.138 C 
BRANCH 116 117
ATOM    117  NE  ARG d  16    2081.247 641.327-2145.417  0.00  0.00    -0.227 N 
ATOM    118  CZ  ARG d  16    2081.636 641.810-2144.241  0.00  0.00     0.665 C 
ATOM    119  NH1 ARG d  16    2081.386 641.226-2143.103  0.00  0.00    -0.235 N 
ATOM    120  NH2 ARG d  16    2082.301 642.922-2144.222  0.00  0.00    -0.235 N 
ATOM    121 11HH ARG d  16    2080.860 640.354-2143.188  0.00  0.00     0.174 HD
ATOM    122 12HH ARG d  16    2081.719 641.662-2142.241  0.00  0.00     0.174 HD
ATOM    123 21HH ARG d  16    2082.489 643.365-2145.124  0.00  0.00     0.174 HD
ATOM    124 22HH ARG d  16    2082.590 643.277-2143.309  0.00  0.00     0.174 HD
ATOM    125  HE  ARG d  16    2081.527 641.908-2146.214  0.00  0.00     0.177 HD
ENDBRANCH 116 117
ENDBRANCH 115 116
ENDBRANCH 114 115
ENDBRANCH 111 114
ENDBRANCH 109 111
ENDBRANCH 106 107
BRANCH 106 126
ATOM    126  CB  MET d  15    2075.314 636.206-2149.924  0.00  0.00     0.045 C 
BRANCH 126 127
ATOM    127  CG  MET d  15    2074.151 635.208-2150.117  0.00  0.00     0.076 C 
BRANCH 127 128
ATOM    128  SD  MET d  15    2072.578 636.076-2150.006  0.00  0.00    -0.173 SA
ATOM    129  CE  MET d  15    2071.495 634.648-2149.872  0.00  0.00     0.089 C 
ENDBRANCH 127 128
ENDBRANCH 126 127
ENDBRANCH 106 126
ENDBRANCH 104 106
ENDBRANCH 101 102
BRANCH 101 130
ATOM    130  CB  VAL d  14    2077.753 631.532-2148.877  0.00  0.00     0.009 C 
ATOM    131  CG1 VAL d  14    2077.844 631.114-2150.370  0.00  0.00     0.012 C 
ATOM    132  CG2 VAL d  14    2078.182 630.280-2148.076  0.00  0.00     0.012 C 
ENDBRANCH 101 130
ENDBRANCH  99 101
ENDBRANCH  96  97
BRANCH  96 133
ATOM    133  CB  PHE d  13    2079.135 633.658-2144.188  0.00  0.00     0.073 C 
BRANCH 133 134
ATOM    134  CG  PHE d  13    2078.911 633.880-2142.684  0.00  0.00    -0.056 A 
ATOM    135  CD1 PHE d  13    2077.834 633.254-2142.045  0.00  0.00     0.007 A 
ATOM    136  CE1 PHE d  13    2077.571 633.508-2140.704  0.00  0.00     0.001 A 
ATOM    137  CZ  PHE d  13    2078.390 634.376-2139.987  0.00  0.00     0.000 A 
ATOM    138  CE2 PHE d  13    2079.472 634.995-2140.613  0.00  0.00     0.001 A 
ATOM    139  CD2 PHE d  13    2079.730 634.749-2141.959  0.00  0.00     0.007 A 
ENDBRANCH 133 134
ENDBRANCH  96 133
ENDBRANCH  94  96
ENDBRANCH  91  92
BRANCH  91 140
ATOM    140  CB  GLN d  12    2074.291 635.979-2144.142  0.00  0.00     0.044 C 
BRANCH 140 141
ATOM    141  CG  GLN d  12    2074.652 637.501-2144.112  0.00  0.00     0.105 C 
BRANCH 141 142
ATOM    142  CD  GLN d  12    2074.351 638.315-2142.847  0.00  0.00     0.215 C 
ATOM    143  NE2 GLN d  12    2073.784 637.740-2141.818  0.00  0.00    -0.370 N 
ATOM    144 21HE GLN d  12    2073.677 638.334-2140.995  0.00  0.00     0.159 HD
ATOM    145 22HE GLN d  12    2073.619 636.736-2141.921  0.00  0.00     0.159 HD
ATOM    146  OE1 GLN d  12    2074.653 639.496-2142.770  0.00  0.00    -0.274 OA
ENDBRANCH 141 142
ENDBRANCH 140 141
ENDBRANCH  91 140
ENDBRANCH  89  91
ENDBRANCH  86  87
BRANCH  86 147
ATOM    147  CB  VAL d  11    2072.442 631.466-2146.344  0.00  0.00     0.009 C 
ATOM    148  CG1 VAL d  11    2071.874 632.169-2147.607  0.00  0.00     0.012 C 
ATOM    149  CG2 VAL d  11    2071.917 630.012-2146.416  0.00  0.00     0.012 C 
ENDBRANCH  86 147
ENDBRANCH  84  86
ENDBRANCH  81  82
BRANCH  81 150
ATOM    150  CB  HIS d  10    2075.799 628.934-2143.098  0.00  0.00     0.095 C 
BRANCH 150 151
ATOM    151  CG  HIS d  10    2077.084 628.223-2142.790  0.00  0.00     0.053 A 
ATOM    152  CD2 HIS d  10    2077.465 627.888-2141.498  0.00  0.00     0.116 A 
ATOM    153  NE2 HIS d  10    2078.680 627.256-2141.564  0.00  0.00    -0.359 N 
ATOM    154  CE1 HIS d  10    2078.942 627.258-2142.899  0.00  0.00     0.207 A 
ATOM    155  2HE HIS d  10    2079.247 626.879-2140.791  0.00  0.00     0.166 HD
ATOM    156  ND1 HIS d  10    2078.035 627.816-2143.723  0.00  0.00    -0.247 NA
ENDBRANCH 150 151
ENDBRANCH  81 150
ENDBRANCH  79  81
ENDBRANCH   1  77
BRANCH   1 157
ATOM    157  CB  GLU d   9    2074.696 632.571-2139.413  0.00  0.00     0.045 C 
BRANCH 157 158
ATOM    158  CG  GLU d   9    2076.079 633.263-2139.185  0.00  0.00     0.116 C 
BRANCH 158 159
ATOM    159  CD  GLU d   9    2076.781 633.050-2137.856  0.00  0.00     0.172 C 
ATOM    160  OE1 GLU d   9    2076.259 632.360-2136.959  0.00  0.00    -0.648 OA
ATOM    161  OE2 GLU d   9    2077.900 633.588-2137.725  0.00  0.00    -0.648 OA
ENDBRANCH 158 159
ENDBRANCH 157 158
ENDBRANCH   1 157
TORSDOF 66
