@<TRIPOS>MOLECULE
5-11
271 273 16              
SMALL
USER_CHARGES
@<TRIPOS>ATOM
1	   N	778.597	204.250	-737.190	N.3	1	GLU1	-0.516	
2	  CA	779.156	205.599	-737.190	C.3	1	GLU1	0.040	
3	   C	780.665	205.559	-737.190	C.2	1	GLU1	0.537	
4	   O	781.341	206.259	-737.958	O.2	1	GLU1	-0.582	
5	  CB	778.633	206.384	-735.953	C.3	1	GLU1	0.056	
6	  CG	779.108	207.869	-735.842	C.3	1	GLU1	0.014	
7	  CD	778.684	208.673	-734.627	C.2	1	GLU1	0.805	
8	 OE1	777.956	208.171	-733.749	O.co2	1	GLU1	-0.819	
9	 OE2	779.114	209.843	-734.555	O.co2	1	GLU1	-0.819	
10	   H	779.224	203.371	-737.190	 H	1	GLU1	0.294	
11	  HA	778.830	206.117	-738.110	 H	1	GLU1	0.111	
12	 2HB	778.922	205.853	-735.023	 H	1	GLU1	-0.017	
13	 3HB	777.526	206.374	-735.940	 H	1	GLU1	-0.017	
14	 2HG	778.798	208.454	-736.723	 H	1	GLU1	-0.043	
15	 3HG	780.208	207.936	-735.813	 H	1	GLU1	-0.043	
16	   N	781.270	204.774	-736.365	N.am	2	ASN2	-0.416	
17	  CA	782.729	204.735	-736.365	C.3	2	ASN2	0.014	
18	   C	783.260	204.380	-737.733	C.2	2	ASN2	0.597	
19	   O	784.175	205.010	-738.262	O.2	2	ASN2	-0.568	
20	  CB	783.221	203.712	-735.300	C.3	2	ASN2	-0.204	
21	  CG	782.758	203.936	-733.857	C.2	2	ASN2	0.713	
22	 ND2	783.352	204.851	-733.139	N.pl3	2	ASN2	-0.919	
23	 OD1	781.838	203.302	-733.363	O.2	2	ASN2	-0.593	
24	   H	780.742	204.194	-735.728	 H	2	ASN2	0.272	
25	  HA	783.106	205.745	-736.119	 H	2	ASN2	0.105	
26	 2HB	784.326	203.653	-735.304	 H	2	ASN2	0.080	
27	 3HB	782.892	202.694	-735.586	 H	2	ASN2	0.080	
28	1HD2	782.872	205.024	-732.252	 H	2	ASN2	0.420	
29	2HD2	784.054	205.422	-733.608	 H	2	ASN2	0.420	
30	   N	782.739	203.384	-738.367	N.am	3	PRO3	-0.255	
31	  CA	783.191	202.975	-739.689	C.3	3	PRO3	-0.027	
32	   C	782.793	203.999	-740.766	C.2	3	PRO3	0.590	
33	   O	783.616	204.382	-741.597	O.2	3	PRO3	-0.575	
34	  CB	782.487	201.620	-739.858	C.3	3	PRO3	-0.007	
35	  CG	781.204	201.772	-739.028	C.3	3	PRO3	0.019	
36	  CD	781.661	202.591	-737.818	C.3	3	PRO3	0.019	
37	  HA	784.277	202.855	-739.703	 H	3	PRO3	0.064	
38	 2HB	783.110	200.839	-739.418	 H	3	PRO3	0.025	
39	 3HB	782.289	201.372	-740.904	 H	3	PRO3	0.025	
40	 2HG	780.776	200.810	-738.737	 H	3	PRO3	0.021	
41	 3HG	780.466	202.343	-739.596	 H	3	PRO3	0.021	
42	 2HD	782.050	201.942	-737.031	 H	3	PRO3	0.039	
43	 3HD	780.864	203.227	-737.425	 H	3	PRO3	0.039	
44	   N	781.588	204.459	-740.798	N.am	4	GLU4	-0.516	
45	  CA	781.228	205.429	-741.828	C.3	4	GLU4	0.040	
46	   C	782.127	206.641	-741.767	C.2	4	GLU4	0.537	
47	   O	782.653	207.120	-742.781	O.2	4	GLU4	-0.582	
48	  CB	779.740	205.848	-741.658	C.3	4	GLU4	0.056	
49	  CG	779.191	206.851	-742.723	C.3	4	GLU4	0.014	
50	  CD	777.765	207.348	-742.580	C.2	4	GLU4	0.805	
51	 OE1	777.038	206.949	-741.649	O.co2	4	GLU4	-0.819	
52	 OE2	777.375	208.177	-743.428	O.co2	4	GLU4	-0.819	
53	   H	780.904	204.152	-740.122	 H	4	GLU4	0.294	
54	  HA	781.359	204.959	-742.819	 H	4	GLU4	0.111	
55	 2HB	779.587	206.288	-740.651	 H	4	GLU4	-0.017	
56	 3HB	779.092	204.950	-741.664	 H	4	GLU4	-0.017	
57	 2HG	779.273	206.437	-743.741	 H	4	GLU4	-0.043	
58	 3HG	779.779	207.784	-742.734	 H	4	GLU4	-0.043	
59	   N	782.354	207.194	-740.624	N.am	5	HIS5	-0.416	
60	  CA	783.223	208.365	-740.563	C.3	5	HIS5	-0.058	
61	   C	784.582	208.063	-741.147	C.2	5	HIS5	0.597	
62	   O	785.134	208.823	-741.957	O.2	5	HIS5	-0.568	
63	  CB	783.349	208.735	-739.076	C.3	5	HIS5	-0.007	
64	  CG	782.833	210.113	-738.785	C.2	5	HIS5	0.187	
65	 CD2	781.514	210.361	-738.428	C.2	5	HIS5	-0.221	
66	 ND1	783.577	211.290	-738.831	N.2	5	HIS5	-0.543	
67	 CE1	782.624	212.179	-738.495	C.2	5	HIS5	0.163	
68	 NE2	781.373	211.711	-738.236	N.pl3	5	HIS5	-0.280	
69	   H	781.937	206.822	-739.782	 H	5	HIS5	0.272	
70	  HA	782.774	209.148	-741.199	 H	5	HIS5	0.136	
71	 2HB	784.404	208.688	-738.739	 H	5	HIS5	0.037	
72	 3HB	782.800	208.025	-738.422	 H	5	HIS5	0.037	
73	 2HD	780.750	209.595	-738.327	 H	5	HIS5	0.186	
74	 1HE	782.907	213.222	-738.444	 H	5	HIS5	0.144	
75	 2HE	780.526	212.233	-737.966	 H	5	HIS5	0.334	
76	   N	785.188	206.980	-740.793	N.am	6	ILE6	-0.416	
77	  CA	786.502	206.687	-741.358	C.3	6	ILE6	-0.060	
78	   C	786.447	206.651	-742.866	C.2	6	ILE6	0.597	
79	   O	787.282	207.240	-743.568	O.2	6	ILE6	-0.568	
80	  CB	787.102	205.351	-740.759	C.3	6	ILE6	0.130	
81	 CG1	787.120	205.287	-739.198	C.3	6	ILE6	-0.043	
82	 CG2	788.545	205.051	-741.272	C.3	6	ILE6	-0.320	
83	 CD1	787.391	203.898	-738.584	C.3	6	ILE6	-0.066	
84	   H	784.759	206.344	-740.136	 H	6	ILE6	0.272	
85	  HA	787.175	207.522	-741.089	 H	6	ILE6	0.087	
86	  HB	786.446	204.525	-741.104	 H	6	ILE6	0.019	
87	2HG1	786.137	205.606	-738.803	 H	6	ILE6	0.024	
88	3HG1	787.834	206.030	-738.791	 H	6	ILE6	0.024	
89	1HG2	788.605	204.959	-742.371	 H	6	ILE6	0.088	
90	2HG2	789.266	205.834	-740.969	 H	6	ILE6	0.088	
91	3HG2	788.935	204.089	-740.894	 H	6	ILE6	0.088	
92	1HD1	786.664	203.143	-738.940	 H	6	ILE6	0.019	
93	2HD1	788.402	203.521	-738.819	 H	6	ILE6	0.019	
94	3HD1	787.313	203.927	-737.481	 H	6	ILE6	0.019	
95	   N	785.502	205.987	-743.442	N.am	7	LEU7	-0.416	
96	  CA	785.450	205.952	-744.900	C.3	7	LEU7	-0.052	
97	   C	785.376	207.348	-745.472	C.2	7	LEU7	0.597	
98	   O	786.098	207.712	-746.412	O.2	7	LEU7	-0.568	
99	  CB	784.248	205.091	-745.383	C.3	7	LEU7	-0.110	
100	  CG	784.177	203.611	-744.918	C.3	7	LEU7	0.353	
101	 CD1	782.988	202.904	-745.586	C.3	7	LEU7	-0.412	
102	 CD2	785.471	202.833	-745.209	C.3	7	LEU7	-0.412	
103	   H	784.810	205.498	-742.892	 H	7	LEU7	0.272	
104	  HA	786.392	205.514	-745.274	 H	7	LEU7	0.092	
105	 2HB	784.226	205.108	-746.491	 H	7	LEU7	0.046	
106	 3HB	783.307	205.592	-745.080	 H	7	LEU7	0.046	
107	  HG	784.005	203.602	-743.821	 H	7	LEU7	-0.036	
108	1HD1	782.030	203.412	-745.364	 H	7	LEU7	0.100	
109	2HD1	783.089	202.865	-746.687	 H	7	LEU7	0.100	
110	3HD1	782.882	201.863	-745.231	 H	7	LEU7	0.100	
111	1HD2	785.748	202.865	-746.278	 H	7	LEU7	0.100	
112	2HD2	786.324	203.246	-744.636	 H	7	LEU7	0.100	
113	3HD2	785.391	201.771	-744.914	 H	7	LEU7	0.100	
114	   N	784.537	208.187	-744.966	N.am	8	ASP8	-0.516	
115	  CA	784.466	209.537	-745.518	C.3	8	ASP8	0.038	
116	   C	785.811	210.218	-745.458	C.2	8	ASP8	0.537	
117	   O	786.285	210.825	-746.431	O.2	8	ASP8	-0.582	
118	  CB	783.386	210.374	-744.777	C.3	8	ASP8	-0.030	
119	  CG	783.166	211.795	-745.316	C.2	8	ASP8	0.799	
120	 OD1	783.231	211.995	-746.546	O.co2	8	ASP8	-0.801	
121	 OD2	782.971	212.719	-744.500	O.co2	8	ASP8	-0.801	
122	   H	783.939	207.914	-744.199	 H	8	ASP8	0.294	
123	  HA	784.184	209.460	-746.585	 H	8	ASP8	0.088	
124	 2HB	783.641	210.456	-743.704	 H	8	ASP8	-0.012	
125	 3HB	782.407	209.867	-744.811	 H	8	ASP8	-0.012	
126	   N	786.490	210.168	-744.362	N.am	9	GLU9	-0.516	
127	  CA	787.792	210.827	-744.304	C.3	9	GLU9	0.040	
128	   C	788.712	210.302	-745.379	C.2	9	GLU9	0.537	
129	   O	789.376	211.058	-746.103	O.2	9	GLU9	-0.582	
130	  CB	788.424	210.619	-742.898	C.3	9	GLU9	0.056	
131	  CG	789.805	211.313	-742.666	C.3	9	GLU9	0.014	
132	  CD	790.506	211.099	-741.337	C.2	9	GLU9	0.805	
133	 OE1	789.984	210.406	-740.443	O.co2	9	GLU9	-0.819	
134	 OE2	791.624	211.638	-741.204	O.co2	9	GLU9	-0.819	
135	   H	786.126	209.680	-743.556	 H	9	GLU9	0.294	
136	  HA	787.648	211.909	-744.478	 H	9	GLU9	0.111	
137	 2HB	788.538	209.534	-742.696	 H	9	GLU9	-0.017	
138	 3HB	787.725	210.971	-742.114	 H	9	GLU9	-0.017	
139	 2HG	789.732	212.404	-742.805	 H	9	GLU9	-0.043	
140	 3HG	790.553	210.970	-743.400	 H	9	GLU9	-0.043	
141	   N	788.810	209.027	-745.550	N.am	10	HIS10	-0.416	
142	  CA	789.700	208.518	-746.590	C.3	10	HIS10	-0.058	
143	   C	789.334	209.083	-747.941	C.2	10	HIS10	0.597	
144	   O	790.187	209.550	-748.711	O.2	10	HIS10	-0.568	
145	  CB	789.538	206.989	-746.587	C.3	10	HIS10	-0.007	
146	  CG	790.824	206.280	-746.278	C.2	10	HIS10	0.187	
147	 CD2	791.204	205.944	-744.985	C.2	10	HIS10	-0.221	
148	 ND1	791.778	205.876	-747.210	N.2	10	HIS10	-0.543	
149	 CE1	792.684	205.318	-746.386	C.2	10	HIS10	0.163	
150	 NE2	792.420	205.314	-745.051	N.pl3	10	HIS10	-0.280	
151	   H	788.279	208.390	-744.973	 H	10	HIS10	0.272	
152	  HA	790.718	208.876	-746.363	 H	10	HIS10	0.136	
153	 2HB	789.175	206.622	-747.568	 H	10	HIS10	0.037	
154	 3HB	788.782	206.650	-745.848	 H	10	HIS10	0.037	
155	 2HD	790.617	206.157	-744.097	 H	10	HIS10	0.186	
156	 1HE	793.576	204.899	-746.832	 H	10	HIS10	0.144	
157	 2HE	792.986	204.937	-744.277	 H	10	HIS10	0.334	
158	   N	788.097	209.081	-748.305	N.am	11	VAL11	-0.416	
159	  CA	787.743	209.628	-749.612	C.3	11	VAL11	-0.087	
160	   C	788.205	211.060	-749.742	C.2	11	VAL11	0.597	
161	   O	788.807	211.467	-750.744	O.2	11	VAL11	-0.568	
162	  CB	786.182	209.520	-749.834	C.3	11	VAL11	0.299	
163	 CG1	785.614	210.224	-751.096	C.3	11	VAL11	-0.319	
164	 CG2	785.659	208.065	-749.909	C.3	11	VAL11	-0.319	
165	   H	787.384	208.707	-747.696	 H	11	VAL11	0.272	
166	  HA	788.264	209.047	-750.394	 H	11	VAL11	0.097	
167	  HB	785.693	209.998	-748.958	 H	11	VAL11	-0.030	
168	1HG1	786.054	209.834	-752.033	 H	11	VAL11	0.079	
169	2HG1	784.515	210.116	-751.180	 H	11	VAL11	0.079	
170	3HG1	785.790	211.317	-751.086	 H	11	VAL11	0.079	
171	1HG2	785.949	207.477	-749.019	 H	11	VAL11	0.079	
172	2HG2	784.553	208.027	-749.953	 H	11	VAL11	0.079	
173	3HG2	786.043	207.526	-750.796	 H	11	VAL11	0.079	
174	   N	787.966	211.884	-748.780	N.am	12	GLN12	-0.416	
175	  CA	788.413	213.268	-748.905	C.3	12	GLN12	-0.003	
176	   C	789.903	213.337	-749.141	C.2	12	GLN12	0.597	
177	   O	790.390	214.047	-750.018	O.2	12	GLN12	-0.568	
178	  CB	788.019	214.033	-747.622	C.3	12	GLN12	-0.004	
179	  CG	788.377	215.555	-747.588	C.3	12	GLN12	-0.064	
180	  CD	788.072	216.367	-746.323	C.2	12	GLN12	0.695	
181	 NE2	787.505	215.789	-745.295	N.pl3	12	GLN12	-0.941	
182	 OE1	788.372	217.548	-746.244	O.2	12	GLN12	-0.609	
183	   H	787.477	211.576	-747.951	 H	12	GLN12	0.272	
184	  HA	787.914	213.724	-749.780	 H	12	GLN12	0.085	
185	 2HB	788.495	213.533	-746.752	 H	12	GLN12	0.017	
186	 3HB	786.929	213.924	-747.460	 H	12	GLN12	0.017	
187	 2HG	787.900	216.076	-748.439	 H	12	GLN12	0.035	
188	 3HG	789.461	215.699	-747.753	 H	12	GLN12	0.035	
189	1HE2	787.396	216.382	-744.471	 H	12	GLN12	0.425	
190	2HE2	787.343	214.785	-745.400	 H	12	GLN12	0.425	
191	   N	790.688	212.631	-748.400	N.am	13	ARG13	-0.348	
192	  CA	792.128	212.699	-748.629	C.3	13	ARG13	-0.264	
193	   C	792.466	212.329	-750.054	C.2	13	ARG13	0.734	
194	   O	793.235	213.003	-750.736	O.2	13	ARG13	-0.589	
195	  CB	792.842	211.760	-747.615	C.3	13	ARG13	-0.001	
196	  CG	794.386	211.915	-747.532	C.3	13	ARG13	0.039	
197	  CD	795.013	210.927	-746.535	C.3	13	ARG13	0.049	
198	  NE	796.490	211.136	-746.482	N.pl3	13	ARG13	-0.530	
199	  CZ	797.338	210.445	-745.727	C.cat	13	ARG13	0.808	
200	 NH1	796.974	209.479	-744.931	N.pl3	13	ARG13	-0.863	
201	 NH2	798.597	210.746	-745.782	N.pl3	13	ARG13	-0.863	
202	   H	790.311	212.040	-747.672	 H	13	ARG13	0.275	
203	  HA	792.451	213.745	-748.469	 H	13	ARG13	0.156	
204	 2HB	792.577	210.709	-747.856	 H	13	ARG13	0.033	
205	 3HB	792.415	211.925	-746.605	 H	13	ARG13	0.033	
206	 2HG	794.632	212.960	-747.251	 H	13	ARG13	0.029	
207	 3HG	794.838	211.760	-748.533	 H	13	ARG13	0.029	
208	 2HD	794.771	209.887	-746.845	 H	13	ARG13	0.069	
209	 3HD	794.555	211.071	-745.532	 H	13	ARG13	0.069	
210	  HE	796.941	211.860	-747.052	 H	13	ARG13	0.346	
211	1HH1	795.969	209.292	-744.935	 H	13	ARG13	0.448	
212	2HH1	797.687	208.997	-744.382	 H	13	ARG13	0.448	
213	1HH2	798.865	211.505	-746.412	 H	13	ARG13	0.448	
214	2HH2	799.233	210.205	-745.193	 H	13	ARG13	0.448	
215	   N	791.932	211.275	-750.570	N.am	14	VAL14	-0.416	
216	  CA	792.259	210.917	-751.947	C.3	14	VAL14	-0.087	
217	   C	791.928	212.048	-752.892	C.2	14	VAL14	0.597	
218	   O	792.722	212.431	-753.760	O.2	14	VAL14	-0.568	
219	  CB	791.489	209.600	-752.357	C.3	14	VAL14	0.299	
220	 CG1	791.580	209.183	-753.850	C.3	14	VAL14	-0.319	
221	 CG2	791.922	208.347	-751.557	C.3	14	VAL14	-0.319	
222	   H	791.297	210.705	-750.029	 H	14	VAL14	0.272	
223	  HA	793.348	210.742	-752.021	 H	14	VAL14	0.097	
224	  HB	790.412	209.769	-752.142	 H	14	VAL14	-0.030	
225	1HG1	792.622	209.008	-754.178	 H	14	VAL14	0.079	
226	2HG1	791.009	208.259	-754.065	 H	14	VAL14	0.079	
227	3HG1	791.151	209.946	-754.528	 H	14	VAL14	0.079	
228	1HG2	791.833	208.504	-750.467	 H	14	VAL14	0.079	
229	2HG2	791.287	207.470	-751.791	 H	14	VAL14	0.079	
230	3HG2	792.970	208.059	-751.762	 H	14	VAL14	0.079	
231	   N	790.783	212.632	-752.791	N.am	15	MET15	-0.416	
232	  CA	790.462	213.725	-753.704	C.3	15	MET15	-0.024	
233	   C	791.491	214.827	-753.614	C.2	15	MET15	0.597	
234	   O	791.994	215.339	-754.625	O.2	15	MET15	-0.568	
235	  CB	789.039	214.269	-753.395	C.3	15	MET15	0.034	
236	  CG	787.879	213.269	-753.589	C.3	15	MET15	0.002	
237	  SD	786.304	214.133	-753.476	S.3	15	MET15	-0.274	
238	  CE	785.224	212.702	-753.342	C.3	15	MET15	-0.054	
239	   H	790.117	212.338	-752.090	 H	15	MET15	0.272	
240	  HA	790.489	213.339	-754.740	 H	15	MET15	0.088	
241	 2HB	788.837	215.148	-754.037	 H	15	MET15	0.024	
242	 3HB	789.002	214.660	-752.359	 H	15	MET15	0.024	
243	 2HG	787.922	212.483	-752.813	 H	15	MET15	0.044	
244	 3HG	787.944	212.755	-754.566	 H	15	MET15	0.044	
245	 1HE	785.370	212.015	-754.195	 H	15	MET15	0.068	
246	 2HE	785.433	212.148	-752.409	 H	15	MET15	0.068	
247	 3HE	784.166	213.016	-753.326	 H	15	MET15	0.068	
248	   N	791.857	215.247	-752.450	N.am	16	ARG16	-0.348	
249	  CA	792.852	216.312	-752.365	C.3	16	ARG16	-0.264	
250	   C	794.124	215.922	-753.080	C.2	16	ARG16	0.734	
251	   O	794.240	214.846	-753.662	O.2	16	ARG16	-0.589	
252	  CB	793.119	216.629	-750.866	C.3	16	ARG16	-0.001	
253	  CG	793.943	217.919	-750.591	C.3	16	ARG16	0.039	
254	  CD	794.190	218.137	-749.089	C.3	16	ARG16	0.049	
255	  NE	794.965	219.396	-748.886	N.pl3	16	ARG16	-0.530	
256	  CZ	795.354	219.878	-747.709	C.cat	16	ARG16	0.808	
257	 NH1	795.106	219.292	-746.572	N.pl3	16	ARG16	-0.863	
258	 NH2	796.017	220.991	-747.689	N.pl3	16	ARG16	-0.863	
259	   H	791.462	214.846	-751.612	 H	16	ARG16	0.275	
260	  HA	792.443	217.205	-752.874	 H	16	ARG16	0.156	
261	 2HB	793.617	215.753	-750.400	 H	16	ARG16	0.033	
262	 3HB	792.150	216.708	-750.333	 H	16	ARG16	0.033	
263	 2HG	793.412	218.789	-751.027	 H	16	ARG16	0.029	
264	 3HG	794.917	217.867	-751.119	 H	16	ARG16	0.029	
265	 2HD	794.740	217.262	-748.676	 H	16	ARG16	0.069	
266	 3HD	793.217	218.178	-748.555	 H	16	ARG16	0.069	
267	  HE	795.243	219.979	-749.682	 H	16	ARG16	0.346	
268	1HH1	794.582	218.419	-746.658	 H	16	ARG16	0.448	
269	2HH1	795.439	219.727	-745.710	 H	16	ARG16	0.448	
270	1HH2	796.203	221.436	-748.590	 H	16	ARG16	0.448	
271	2HH2	796.306	221.346	-746.776	 H	16	ARG16	0.448	
@<TRIPOS>BOND
1 1 2 1
2 1 10 1
3 2 3 1
4 2 5 1
5 2 11 1
6 3 4 2
7 3 16 1
8 5 6 1
9 6 7 1
10 7 8 2
11 7 9 1
12 5 12 1
13 5 13 1
14 6 14 1
15 6 15 1
16 16 17 1
17 16 24 1
18 17 18 1
19 17 20 1
20 17 25 1
21 18 19 2
22 18 30 1
23 20 21 1
24 21 22 1
25 21 23 2
26 20 26 1
27 20 27 1
28 22 28 1
29 22 29 1
30 30 31 1
31 30 36 1
32 31 32 1
33 31 34 1
34 31 37 1
35 32 33 2
36 32 44 1
37 34 35 1
38 35 36 1
39 34 38 1
40 34 39 1
41 35 40 1
42 35 41 1
43 36 42 1
44 36 43 1
45 44 45 1
46 44 53 1
47 45 46 1
48 45 48 1
49 45 54 1
50 46 47 2
51 46 59 1
52 48 49 1
53 49 50 1
54 50 51 2
55 50 52 1
56 48 55 1
57 48 56 1
58 49 57 1
59 49 58 1
60 59 60 1
61 59 69 1
62 60 61 1
63 60 63 1
64 60 70 1
65 61 62 2
66 61 76 1
67 63 64 1
68 64 65 2
69 65 68 1
70 64 66 1
71 66 67 2
72 67 68 1
73 63 71 1
74 63 72 1
75 65 73 1
76 67 74 1
77 68 75 1
78 76 77 1
79 76 84 1
80 77 78 1
81 77 80 1
82 77 85 1
83 78 79 2
84 78 95 1
85 80 81 1
86 80 82 1
87 81 83 1
88 80 86 1
89 81 87 1
90 81 88 1
91 82 89 1
92 82 90 1
93 82 91 1
94 83 92 1
95 83 93 1
96 83 94 1
97 95 96 1
98 95 103 1
99 96 97 1
100 96 99 1
101 96 104 1
102 97 98 2
103 97 114 1
104 99 100 1
105 100 101 1
106 100 102 1
107 99 105 1
108 99 106 1
109 100 107 1
110 101 108 1
111 101 109 1
112 101 110 1
113 102 111 1
114 102 112 1
115 102 113 1
116 114 115 1
117 114 122 1
118 115 116 1
119 115 118 1
120 115 123 1
121 116 117 2
122 116 126 1
123 118 119 1
124 119 120 2
125 119 121 1
126 118 124 1
127 118 125 1
128 126 127 1
129 126 135 1
130 127 128 1
131 127 130 1
132 127 136 1
133 128 129 2
134 128 141 1
135 130 131 1
136 131 132 1
137 132 133 2
138 132 134 1
139 130 137 1
140 130 138 1
141 131 139 1
142 131 140 1
143 141 142 1
144 141 151 1
145 142 143 1
146 142 145 1
147 142 152 1
148 143 144 2
149 143 158 1
150 145 146 1
151 146 147 2
152 147 150 1
153 146 148 1
154 148 149 2
155 149 150 1
156 145 153 1
157 145 154 1
158 147 155 1
159 149 156 1
160 150 157 1
161 158 159 1
162 158 165 1
163 159 160 1
164 159 162 1
165 159 166 1
166 160 161 2
167 160 174 1
168 162 163 1
169 162 164 1
170 162 167 1
171 163 168 1
172 163 169 1
173 163 170 1
174 164 171 1
175 164 172 1
176 164 173 1
177 174 175 1
178 174 183 1
179 175 176 1
180 175 178 1
181 175 184 1
182 176 177 2
183 176 191 1
184 178 179 1
185 179 180 1
186 180 181 1
187 180 182 2
188 178 185 1
189 178 186 1
190 179 187 1
191 179 188 1
192 181 189 1
193 181 190 1
194 191 192 1
195 191 202 1
196 192 193 1
197 192 195 1
198 192 203 1
199 193 194 2
200 193 215 1
201 195 196 1
202 196 197 1
203 197 198 1
204 198 199 1
205 199 200 2
206 199 201 1
207 195 204 1
208 195 205 1
209 196 206 1
210 196 207 1
211 197 208 1
212 197 209 1
213 198 210 1
214 200 211 1
215 200 212 1
216 201 213 1
217 201 214 1
218 215 216 1
219 215 222 1
220 216 217 1
221 216 219 1
222 216 223 1
223 217 218 2
224 217 231 1
225 219 220 1
226 219 221 1
227 219 224 1
228 220 225 1
229 220 226 1
230 220 227 1
231 221 228 1
232 221 229 1
233 221 230 1
234 231 232 1
235 231 239 1
236 232 233 1
237 232 235 1
238 232 240 1
239 233 234 2
240 233 248 1
241 235 236 1
242 236 237 1
243 237 238 1
244 235 241 1
245 235 242 1
246 236 243 1
247 236 244 1
248 238 245 1
249 238 246 1
250 238 247 1
251 248 249 1
252 248 259 1
253 249 250 1
254 249 252 1
255 249 260 1
256 250 251 2
257 252 253 1
258 253 254 1
259 254 255 1
260 255 256 1
261 256 257 2
262 256 258 1
263 252 261 1
264 252 262 1
265 253 263 1
266 253 264 1
267 254 265 1
268 254 266 1
269 255 267 1
270 257 268 1
271 257 269 1
272 258 270 1
273 258 271 1
@<TRIPOS>SUBSTRUCTURE
1	GLU1	1	RESIDUE	1 ****	GLU
2	ASN2	16	RESIDUE	1 ****	ASN
3	PRO3	30	RESIDUE	1 ****	PRO
4	GLU4	44	RESIDUE	1 ****	GLU
5	HIS5	59	RESIDUE	1 ****	HIS
6	ILE6	76	RESIDUE	1 ****	ILE
7	LEU7	95	RESIDUE	1 ****	LEU
8	ASP8	114	RESIDUE	1 ****	ASP
9	GLU9	126	RESIDUE	1 ****	GLU
10	HIS10	141	RESIDUE	1 ****	HIS
11	VAL11	158	RESIDUE	1 ****	VAL
12	GLN12	174	RESIDUE	1 ****	GLN
13	ARG13	191	RESIDUE	1 ****	ARG
14	VAL14	215	RESIDUE	1 ****	VAL
15	MET15	231	RESIDUE	1 ****	MET
16	ARG16	248	RESIDUE	1 ****	ARG
