REMARK WARNING: 32 MAX_TORS EXCEEDED!!!
REMARK  69 active torsions:
REMARK  status: ('A' for Active; 'I' for Inactive)
REMARK    1  A    between atoms: N_1  and  CA_2 
REMARK    2  A    between atoms: CA_2  and  C_3 
REMARK    3  A    between atoms: CA_2  and  CB_5 
REMARK       I    between atoms: C_3  and  N_11 
REMARK    4  A    between atoms: CB_5  and  CG_6 
REMARK    5  A    between atoms: CG_6  and  CD_7 
REMARK    6  A    between atoms: N_11  and  CA_12 
REMARK    7  A    between atoms: CA_12  and  C_13 
REMARK    8  A    between atoms: CA_12  and  CB_15 
REMARK       I    between atoms: C_13  and  N_22 
REMARK    9  A    between atoms: CB_15  and  CG_16 
REMARK       I    between atoms: CG_16  and  ND2_17 
REMARK   10  A    between atoms: CA_23  and  C_24 
REMARK       I    between atoms: C_24  and  N_29 
REMARK   11  A    between atoms: N_29  and  CA_30 
REMARK   12  A    between atoms: CA_30  and  C_31 
REMARK   13  A    between atoms: CA_30  and  CB_33 
REMARK       I    between atoms: C_31  and  N_39 
REMARK   14  A    between atoms: CB_33  and  CG_34 
REMARK   15  A    between atoms: CG_34  and  CD_35 
REMARK   16  A    between atoms: N_39  and  CA_40 
REMARK   17  A    between atoms: CA_40  and  C_41 
REMARK   18  A    between atoms: CA_40  and  CB_43 
REMARK       I    between atoms: C_41  and  N_47 
REMARK   19  A    between atoms: CB_43  and  OG_44 
REMARK   20  A    between atoms: N_47  and  CA_48 
REMARK   21  A    between atoms: CA_48  and  C_49 
REMARK   22  A    between atoms: CA_48  and  CB_51 
REMARK       I    between atoms: C_49  and  N_56 
REMARK   23  A    between atoms: CB_51  and  CG1_52 
REMARK   24  A    between atoms: N_56  and  CA_57 
REMARK   25  A    between atoms: CA_57  and  C_58 
REMARK   26  A    between atoms: CA_57  and  CB_60 
REMARK       I    between atoms: C_58  and  N_65 
REMARK   27  A    between atoms: CB_60  and  CG_61 
REMARK   28  A    between atoms: N_65  and  CA_66 
REMARK   29  A    between atoms: CA_66  and  C_67 
REMARK   30  A    between atoms: CA_66  and  CB_69 
REMARK       I    between atoms: C_67  and  N_74 
REMARK   31  A    between atoms: CB_69  and  CG_70 
REMARK   32  A    between atoms: N_74  and  CA_75 
REMARK   33  A    between atoms: CA_75  and  C_76 
REMARK   34  A    between atoms: CA_75  and  CB_78 
REMARK       I    between atoms: C_76  and  N_84 
REMARK   35  A    between atoms: CB_78  and  CG_79 
REMARK   36  A    between atoms: CG_79  and  CD_80 
REMARK   37  A    between atoms: N_84  and  CA_85 
REMARK   38  A    between atoms: CA_85  and  C_86 
REMARK   39  A    between atoms: CA_85  and  CB_88 
REMARK       I    between atoms: C_86  and  N_96 
REMARK   40  A    between atoms: CB_88  and  CG_89 
REMARK   41  A    between atoms: N_96  and  CA_97 
REMARK   42  A    between atoms: CA_97  and  C_98 
REMARK   43  A    between atoms: CA_97  and  CB_100 
REMARK       I    between atoms: C_98  and  N_104 
REMARK   44  A    between atoms: N_104  and  CA_105 
REMARK   45  A    between atoms: CA_105  and  C_106 
REMARK   46  A    between atoms: CA_105  and  CB_108 
REMARK       I    between atoms: C_106  and  N_116 
REMARK   47  A    between atoms: CB_108  and  CG_109 
REMARK   48  A    between atoms: CG_109  and  CD_110 
REMARK       I    between atoms: CD_110  and  NE2_111 
REMARK   49  A    between atoms: N_116  and  CA_117 
REMARK   50  A    between atoms: CA_117  and  C_118 
REMARK   51  A    between atoms: CA_117  and  CB_120 
REMARK       I    between atoms: C_118  and  N_129 
REMARK   52  A    between atoms: CB_120  and  CG_121 
REMARK   53  A    between atoms: CG_121  and  CD_122 
REMARK   54  A    between atoms: CD_122  and  CE_123 
REMARK   55  A    between atoms: CE_123  and  NZ_124 
REMARK   56  A    between atoms: N_129  and  CA_130 
REMARK   57  A    between atoms: CA_130  and  C_131 
REMARK   58  A    between atoms: CA_130  and  CB_133 
REMARK       I    between atoms: C_131  and  N_137 
REMARK   59  A    between atoms: N_137  and  CA_138 
REMARK   60  A    between atoms: CA_138  and  C_139 
REMARK   61  A    between atoms: CA_138  and  CB_141 
REMARK       I    between atoms: C_139  and  N_146 
REMARK   62  A    between atoms: CB_141  and  CG_142 
REMARK   63  A    between atoms: CG_142  and  SD_143 
REMARK   64  A    between atoms: N_146  and  CA_147 
REMARK   65  A    between atoms: CA_147  and  C_148 
REMARK   66  A    between atoms: CA_147  and  CB_150 
REMARK   67  A    between atoms: CB_150  and  CG_151 
REMARK   68  A    between atoms: CG_151  and  CD_152 
REMARK   69  A    between atoms: CD_152  and  NE_153 
REMARK       I    between atoms: NE_153  and  CZ_154 
REMARK       I    between atoms: CZ_154  and  NH1_155 
ROOT
ATOM      1  CA  GLU d   9    2160.927 662.063-2238.181  0.00  0.00     0.177 C 
ENDROOT
BRANCH   1   2
ATOM      2  N   GLU d   9    2159.624 661.406-2238.236  0.00  0.00    -0.346 N 
ATOM      3  C   ASP d   8    2158.944 661.456-2239.331  0.00  0.00     0.241 C 
ATOM      4  O   ASP d   8    2159.417 662.060-2240.306  0.00  0.00    -0.271 OA
ATOM      5  H   GLU d   9    2159.260 660.920-2237.428  0.00  0.00     0.163 HD
BRANCH   3   6
ATOM      6  CA  ASP d   8    2157.597 660.777-2239.387  0.00  0.00     0.186 C 
BRANCH   6   7
ATOM      7  N   ASP d   8    2157.667 659.427-2238.833  0.00  0.00    -0.346 N 
ATOM      8  C   LEU d   7    2158.503 658.586-2239.339  0.00  0.00     0.241 C 
ATOM      9  O   LEU d   7    2159.224 658.948-2240.282  0.00  0.00    -0.271 OA
ATOM     10  H   ASP d   8    2157.069 659.157-2238.066  0.00  0.00     0.163 HD
BRANCH   8  11
ATOM     11  CA  LEU d   7    2158.575 657.191-2238.766  0.00  0.00     0.177 C 
BRANCH  11  12
ATOM     12  N   LEU d   7    2158.630 657.227-2237.308  0.00  0.00    -0.346 N 
ATOM     13  C   ILE d   6    2159.576 657.890-2236.734  0.00  0.00     0.241 C 
ATOM     14  O   ILE d   6    2160.411 658.477-2237.438  0.00  0.00    -0.271 OA
ATOM     15  H   LEU d   7    2157.938 656.740-2236.757  0.00  0.00     0.163 HD
BRANCH  13  16
ATOM     16  CA  ILE d   6    2159.634 657.928-2235.227  0.00  0.00     0.180 C 
BRANCH  16  17
ATOM     17  N   ILE d   6    2158.320 658.223-2234.661  0.00  0.00    -0.346 N 
ATOM     18  C   SER d   5    2157.716 659.307-2235.015  0.00  0.00     0.243 C 
ATOM     19  O   SER d   5    2158.264 660.060-2235.820  0.00  0.00    -0.271 OA
ATOM     20  H   ILE d   6    2157.891 657.589-2234.002  0.00  0.00     0.163 HD
BRANCH  18  21
ATOM     21  CA  SER d   5    2156.357 659.613-2234.430  0.00  0.00     0.200 C 
BRANCH  21  22
ATOM     22  N   SER d   5    2155.487 658.442-2234.489  0.00  0.00    -0.344 N 
ATOM     23  C   GLU d   4    2155.260 657.889-2235.632  0.00  0.00     0.241 C 
ATOM     24  O   GLU d   4    2155.787 658.368-2236.646  0.00  0.00    -0.271 OA
ATOM     25  H   SER d   5    2155.070 658.070-2233.647  0.00  0.00     0.163 HD
BRANCH  23  26
ATOM     26  CA  GLU d   4    2154.361 656.678-2235.693  0.00  0.00     0.177 C 
BRANCH  26  27
ATOM     27  N   GLU d   4    2154.720 655.707-2234.664  0.00  0.00    -0.346 N 
ATOM     28  C   PRO d   3    2155.925 655.247-2234.631  0.00  0.00     0.241 C 
ATOM     29  O   PRO d   3    2156.749 655.630-2235.462  0.00  0.00    -0.271 OA
ATOM     30  H   GLU d   4    2154.036 655.401-2233.987  0.00  0.00     0.163 HD
BRANCH  28  31
ATOM     31  CA  PRO d   3    2156.323 654.223-2233.554  0.00  0.00     0.179 C 
ATOM     32  N   PRO d   3    2155.871 654.633-2232.232  0.00  0.00    -0.337 N 
ATOM     33  C   ASN d   2    2156.392 655.627-2231.598  0.00  0.00     0.243 C 
ATOM     34  CD  PRO d   3    2154.792 653.840-2231.684  0.00  0.00     0.127 C 
ATOM     35  O   ASN d   2    2157.307 656.258-2232.126  0.00  0.00    -0.271 OA
ATOM     36  CG  PRO d   3    2154.335 653.021-2232.894  0.00  0.00     0.022 C 
ATOM     37  CB  PRO d   3    2155.618 652.869-2233.723  0.00  0.00     0.037 C 
BRANCH  33  38
ATOM     38  CA  ASN d   2    2155.861 655.983-2230.229  0.00  0.00     0.185 C 
BRANCH  38  39
ATOM     39  N   ASN d   2    2154.401 656.022-2230.230  0.00  0.00    -0.346 N 
ATOM     40  C   GLU d   1    2153.797 656.808-2231.055  0.00  0.00     0.242 C 
ATOM     41  O   GLU d   1    2154.473 657.507-2231.823  0.00  0.00    -0.271 OA
ATOM     42  H   ASN d   2    2153.873 655.442-2229.593  0.00  0.00     0.163 HD
BRANCH  40  43
ATOM     43  CA  GLU d   1    2152.288 656.848-2231.055  0.00  0.00     0.191 C 
BRANCH  43  44
ATOM     44  N   GLU d   1    2151.729 655.499-2231.055  0.00  0.00    -0.326 NA
ATOM     45  H   GLU d   1    2152.356 654.620-2231.055  0.00  0.00     0.180 HD
ENDBRANCH  43  44
BRANCH  43  46
ATOM     46  CB  GLU d   1    2151.765 657.633-2229.818  0.00  0.00     0.047 C 
BRANCH  46  47
ATOM     47  CG  GLU d   1    2152.240 659.118-2229.707  0.00  0.00     0.116 C 
BRANCH  47  48
ATOM     48  CD  GLU d   1    2151.816 659.922-2228.492  0.00  0.00     0.172 C 
ATOM     49  OE1 GLU d   1    2151.088 659.420-2227.614  0.00  0.00    -0.648 OA
ATOM     50  OE2 GLU d   1    2152.246 661.092-2228.420  0.00  0.00    -0.648 OA
ENDBRANCH  47  48
ENDBRANCH  46  47
ENDBRANCH  43  46
ENDBRANCH  40  43
ENDBRANCH  38  39
BRANCH  38  51
ATOM     51  CB  ASN d   2    2156.352 654.960-2229.165  0.00  0.00     0.137 C 
BRANCH  51  52
ATOM     52  CG  ASN d   2    2155.889 655.184-2227.722  0.00  0.00     0.217 C 
ATOM     53  ND2 ASN d   2    2156.483 656.099-2227.003  0.00  0.00    -0.370 N 
ATOM     54 21HD ASN d   2    2156.002 656.272-2226.117  0.00  0.00     0.159 HD
ATOM     55 22HD ASN d   2    2157.185 656.670-2227.472  0.00  0.00     0.159 HD
ATOM     56  OD1 ASN d   2    2154.968 654.550-2227.228  0.00  0.00    -0.274 OA
ENDBRANCH  51  52
ENDBRANCH  38  51
ENDBRANCH  33  38
ENDBRANCH  28  31
ENDBRANCH  26  27
BRANCH  26  57
ATOM     57  CB  GLU d   4    2152.873 657.097-2235.524  0.00  0.00     0.045 C 
BRANCH  57  58
ATOM     58  CG  GLU d   4    2152.325 658.101-2236.589  0.00  0.00     0.116 C 
BRANCH  58  59
ATOM     59  CD  GLU d   4    2150.899 658.598-2236.446  0.00  0.00     0.172 C 
ATOM     60  OE1 GLU d   4    2150.172 658.200-2235.516  0.00  0.00    -0.648 OA
ATOM     61  OE2 GLU d   4    2150.510 659.427-2237.295  0.00  0.00    -0.648 OA
ENDBRANCH  58  59
ENDBRANCH  57  58
ENDBRANCH  26  57
ENDBRANCH  23  26
ENDBRANCH  21  22
BRANCH  21  62
ATOM     62  CB  SER d   5    2156.469 660.145-2232.979  0.00  0.00     0.199 C 
BRANCH  62  63
ATOM     63  OG  SER d   5    2157.199 659.265-2232.118  0.00  0.00    -0.398 OA
ATOM     64  HG  SER d   5    2156.710 658.440-2232.067  0.00  0.00     0.209 HD
ENDBRANCH  62  63
ENDBRANCH  21  62
ENDBRANCH  18  21
ENDBRANCH  16  17
BRANCH  16  65
ATOM     65  CB  ILE d   6    2160.233 656.591-2234.626  0.00  0.00     0.013 C 
ATOM     66  CG2 ILE d   6    2161.674 656.289-2235.141  0.00  0.00     0.012 C 
BRANCH  65  67
ATOM     67  CG1 ILE d   6    2160.251 656.529-2233.065  0.00  0.00     0.002 C 
ATOM     68  CD1 ILE d   6    2160.521 655.140-2232.450  0.00  0.00     0.005 C 
ENDBRANCH  65  67
ENDBRANCH  16  65
ENDBRANCH  13  16
ENDBRANCH  11  12
BRANCH  11  69
ATOM     69  CB  LEU d   7    2157.372 656.331-2239.247  0.00  0.00     0.038 C 
BRANCH  69  70
ATOM     70  CG  LEU d   7    2157.299 654.852-2238.780  0.00  0.00    -0.020 C 
ATOM     71  CD1 LEU d   7    2156.109 654.146-2239.446  0.00  0.00     0.009 C 
ATOM     72  CD2 LEU d   7    2158.592 654.072-2239.072  0.00  0.00     0.009 C 
ENDBRANCH  69  70
ENDBRANCH  11  69
ENDBRANCH   8  11
ENDBRANCH   6   7
BRANCH   6  73
ATOM     73  CB  ASP d   8    2156.519 661.617-2238.646  0.00  0.00     0.147 C 
BRANCH  73  74
ATOM     74  CG  ASP d   8    2156.301 663.037-2239.188  0.00  0.00     0.175 C 
ATOM     75  OD1 ASP d   8    2156.365 663.235-2240.419  0.00  0.00    -0.648 OA
ATOM     76  OD2 ASP d   8    2156.110 663.964-2238.373  0.00  0.00    -0.648 OA
ENDBRANCH  73  74
ENDBRANCH   6  73
ENDBRANCH   3   6
ENDBRANCH   1   2
BRANCH   1  77
ATOM     77  C   GLU d   9    2161.844 661.534-2239.257  0.00  0.00     0.241 C 
ATOM     78  O   GLU d   9    2162.508 662.288-2239.983  0.00  0.00    -0.271 OA
ATOM     79  N   HIS d  10    2161.940 660.259-2239.426  0.00  0.00    -0.346 N 
ATOM     80  H   HIS d  10    2161.410 659.624-2238.847  0.00  0.00     0.163 HD
BRANCH  79  81
ATOM     81  CA  HIS d  10    2162.828 659.747-2240.466  0.00  0.00     0.182 C 
BRANCH  81  82
ATOM     82  C   HIS d  10    2162.461 660.311-2241.817  0.00  0.00     0.241 C 
ATOM     83  O   HIS d  10    2163.313 660.775-2242.590  0.00  0.00    -0.271 OA
ATOM     84  N   VAL d  11    2161.223 660.311-2242.180  0.00  0.00    -0.346 N 
ATOM     85  H   VAL d  11    2160.510 659.938-2241.569  0.00  0.00     0.163 HD
BRANCH  84  86
ATOM     86  CA  VAL d  11    2160.868 660.856-2243.487  0.00  0.00     0.180 C 
BRANCH  86  87
ATOM     87  C   VAL d  11    2161.333 662.286-2243.621  0.00  0.00     0.241 C 
ATOM     88  O   VAL d  11    2161.934 662.691-2244.624  0.00  0.00    -0.271 OA
ATOM     89  N   GLN d  12    2161.097 663.113-2242.658  0.00  0.00    -0.346 N 
ATOM     90  H   GLN d  12    2160.608 662.807-2241.829  0.00  0.00     0.163 HD
BRANCH  89  91
ATOM     91  CA  GLN d  12    2161.546 664.495-2242.786  0.00  0.00     0.177 C 
BRANCH  91  92
ATOM     92  C   GLN d  12    2163.036 664.562-2243.025  0.00  0.00     0.241 C 
ATOM     93  O   GLN d  12    2163.523 665.269-2243.904  0.00  0.00    -0.271 OA
ATOM     94  N   LYS d  13    2163.820 663.855-2242.284  0.00  0.00    -0.346 N 
ATOM     95  H   LYS d  13    2163.443 663.266-2241.555  0.00  0.00     0.163 HD
BRANCH  94  96
ATOM     96  CA  LYS d  13    2165.260 663.919-2242.514  0.00  0.00     0.176 C 
BRANCH  96  97
ATOM     97  C   LYS d  13    2165.598 663.546-2243.938  0.00  0.00     0.241 C 
ATOM     98  O   LYS d  13    2166.374 664.223-2244.628  0.00  0.00    -0.271 OA
ATOM     99  N   VAL d  14    2165.061 662.492-2244.453  0.00  0.00    -0.346 N 
ATOM    100  H   VAL d  14    2164.425 661.924-2243.911  0.00  0.00     0.163 HD
BRANCH  99 101
ATOM    101  CA  VAL d  14    2165.387 662.132-2245.830  0.00  0.00     0.180 C 
BRANCH 101 102
ATOM    102  C   VAL d  14    2165.059 663.261-2246.776  0.00  0.00     0.241 C 
ATOM    103  O   VAL d  14    2165.854 663.642-2247.645  0.00  0.00    -0.271 OA
ATOM    104  N   MET d  15    2163.915 663.849-2246.676  0.00  0.00    -0.346 N 
ATOM    105  H   MET d  15    2163.249 663.557-2245.974  0.00  0.00     0.163 HD
BRANCH 104 106
ATOM    106  CA  MET d  15    2163.596 664.941-2247.590  0.00  0.00     0.177 C 
BRANCH 106 107
ATOM    107  C   MET d  15    2164.627 666.040-2247.502  0.00  0.00     0.241 C 
ATOM    108  O   MET d  15    2165.131 666.550-2248.515  0.00  0.00    -0.271 OA
ATOM    109  N   ARG d  16    2164.996 666.461-2246.339  0.00  0.00    -0.347 N 
ATOM    110  H   ARG d  16    2164.600 666.062-2245.500  0.00  0.00     0.163 HD
BRANCH 109 111
ATOM    111  CA  ARG d  16    2165.993 667.524-2246.255  0.00  0.00     0.162 C 
BRANCH 111 112
ATOM    112  C   ARG d  16    2167.264 667.131-2246.971  0.00  0.00     0.219 C 
ATOM    113  O   ARG d  16    2167.377 666.054-2247.552  0.00  0.00    -0.287 OA
ENDBRANCH 111 112
BRANCH 111 114
ATOM    114  CB  ARG d  16    2166.261 667.843-2244.757  0.00  0.00     0.035 C 
BRANCH 114 115
ATOM    115  CG  ARG d  16    2167.088 669.131-2244.484  0.00  0.00     0.023 C 
BRANCH 115 116
ATOM    116  CD  ARG d  16    2167.336 669.351-2242.983  0.00  0.00     0.138 C 
BRANCH 116 117
ATOM    117  NE  ARG d  16    2168.114 670.609-2242.781  0.00  0.00    -0.227 N 
ATOM    118  CZ  ARG d  16    2168.505 671.092-2241.606  0.00  0.00     0.665 C 
ATOM    119  NH1 ARG d  16    2168.256 670.508-2240.468  0.00  0.00    -0.235 N 
ATOM    120  NH2 ARG d  16    2169.169 672.204-2241.588  0.00  0.00    -0.235 N 
ATOM    121 11HH ARG d  16    2167.729 669.635-2240.552  0.00  0.00     0.174 HD
ATOM    122 12HH ARG d  16    2168.590 670.943-2239.606  0.00  0.00     0.174 HD
ATOM    123 21HH ARG d  16    2169.356 672.646-2242.490  0.00  0.00     0.174 HD
ATOM    124 22HH ARG d  16    2169.460 672.559-2240.675  0.00  0.00     0.174 HD
ATOM    125  HE  ARG d  16    2168.393 671.190-2243.579  0.00  0.00     0.177 HD
ENDBRANCH 116 117
ENDBRANCH 115 116
ENDBRANCH 114 115
ENDBRANCH 111 114
ENDBRANCH 109 111
ENDBRANCH 106 107
BRANCH 106 126
ATOM    126  CB  MET d  15    2162.175 665.489-2247.282  0.00  0.00     0.045 C 
BRANCH 126 127
ATOM    127  CG  MET d  15    2161.012 664.491-2247.474  0.00  0.00     0.076 C 
BRANCH 127 128
ATOM    128  SD  MET d  15    2159.439 665.359-2247.362  0.00  0.00    -0.173 SA
ATOM    129  CE  MET d  15    2158.356 663.931-2247.225  0.00  0.00     0.089 C 
ENDBRANCH 127 128
ENDBRANCH 126 127
ENDBRANCH 106 126
ENDBRANCH 104 106
ENDBRANCH 101 102
BRANCH 101 130
ATOM    130  CB  VAL d  14    2164.614 660.815-2246.237  0.00  0.00     0.009 C 
ATOM    131  CG1 VAL d  14    2164.704 660.396-2247.730  0.00  0.00     0.012 C 
ATOM    132  CG2 VAL d  14    2165.044 659.563-2245.436  0.00  0.00     0.012 C 
ENDBRANCH 101 130
ENDBRANCH  99 101
ENDBRANCH  96  97
BRANCH  96 133
ATOM    133  CB  LYS d  13    2165.986 662.984-2241.509  0.00  0.00     0.035 C 
BRANCH 133 134
ATOM    134  CG  LYS d  13    2167.531 663.038-2241.621  0.00  0.00     0.004 C 
BRANCH 134 135
ATOM    135  CD  LYS d  13    2168.279 662.081-2240.689  0.00  0.00     0.027 C 
BRANCH 135 136
ATOM    136  CE  LYS d  13    2169.785 662.188-2240.958  0.00  0.00     0.229 C 
BRANCH 136 137
ATOM    137  NZ  LYS d  13    2170.520 661.401-2239.951  0.00  0.00    -0.079 N 
ATOM    138  3HZ LYS d  13    2170.625 662.000-2239.144  0.00  0.00     0.274 HD
ATOM    139  1HZ LYS d  13    2170.007 660.542-2239.719  0.00  0.00     0.274 HD
ATOM    140  2HZ LYS d  13    2171.433 661.102-2240.306  0.00  0.00     0.274 HD
ENDBRANCH 136 137
ENDBRANCH 135 136
ENDBRANCH 134 135
ENDBRANCH 133 134
ENDBRANCH  96 133
ENDBRANCH  94  96
ENDBRANCH  91  92
BRANCH  91 141
ATOM    141  CB  GLN d  12    2161.156 665.264-2241.504  0.00  0.00     0.044 C 
BRANCH 141 142
ATOM    142  CG  GLN d  12    2161.517 666.785-2241.474  0.00  0.00     0.105 C 
BRANCH 142 143
ATOM    143  CD  GLN d  12    2161.215 667.600-2240.209  0.00  0.00     0.215 C 
ATOM    144  NE2 GLN d  12    2160.648 667.024-2239.180  0.00  0.00    -0.370 N 
ATOM    145 21HE GLN d  12    2160.542 667.619-2238.357  0.00  0.00     0.159 HD
ATOM    146 22HE GLN d  12    2160.484 666.021-2239.283  0.00  0.00     0.159 HD
ATOM    147  OE1 GLN d  12    2161.518 668.780-2240.133  0.00  0.00    -0.274 OA
ENDBRANCH 142 143
ENDBRANCH 141 142
ENDBRANCH  91 141
ENDBRANCH  89  91
ENDBRANCH  86  87
BRANCH  86 148
ATOM    148  CB  VAL d  11    2159.306 660.750-2243.706  0.00  0.00     0.009 C 
ATOM    149  CG1 VAL d  11    2158.738 661.454-2244.969  0.00  0.00     0.012 C 
ATOM    150  CG2 VAL d  11    2158.781 659.296-2243.778  0.00  0.00     0.012 C 
ENDBRANCH  86 148
ENDBRANCH  84  86
ENDBRANCH  81  82
BRANCH  81 151
ATOM    151  CB  HIS d  10    2162.663 658.218-2240.460  0.00  0.00     0.095 C 
BRANCH 151 152
ATOM    152  CG  HIS d  10    2163.948 657.507-2240.152  0.00  0.00     0.053 A 
ATOM    153  CD2 HIS d  10    2164.330 657.173-2238.860  0.00  0.00     0.116 A 
ATOM    154  NE2 HIS d  10    2165.544 656.540-2238.927  0.00  0.00    -0.359 N 
ATOM    155  CE1 HIS d  10    2165.806 656.542-2240.262  0.00  0.00     0.207 A 
ATOM    156  2HE HIS d  10    2166.111 656.163-2238.153  0.00  0.00     0.166 HD
ATOM    157  ND1 HIS d  10    2164.900 657.101-2241.085  0.00  0.00    -0.247 NA
ENDBRANCH 151 152
ENDBRANCH  81 151
ENDBRANCH  79  81
ENDBRANCH   1  77
BRANCH   1 158
ATOM    158  CB  GLU d   9    2161.561 661.856-2236.776  0.00  0.00     0.045 C 
BRANCH 158 159
ATOM    159  CG  GLU d   9    2162.944 662.548-2236.547  0.00  0.00     0.116 C 
BRANCH 159 160
ATOM    160  CD  GLU d   9    2163.646 662.334-2235.219  0.00  0.00     0.172 C 
ATOM    161  OE1 GLU d   9    2163.124 661.644-2234.322  0.00  0.00    -0.648 OA
ATOM    162  OE2 GLU d   9    2164.765 662.872-2235.087  0.00  0.00    -0.648 OA
ENDBRANCH 159 160
ENDBRANCH 158 159
ENDBRANCH   1 158
TORSDOF 69
