@<TRIPOS>MOLECULE
2-15
265 266 16              
SMALL
USER_CHARGES
@<TRIPOS>ATOM
1	   N	289.248	60.597	-266.688	N.3	1	GLU1	-0.516	
2	  CA	289.807	61.946	-266.688	C.3	1	GLU1	0.040	
3	   C	291.316	61.906	-266.688	C.2	1	GLU1	0.537	
4	   O	291.992	62.605	-267.457	O.2	1	GLU1	-0.582	
5	  CB	289.284	62.731	-265.451	C.3	1	GLU1	0.056	
6	  CG	289.759	64.216	-265.340	C.3	1	GLU1	0.014	
7	  CD	289.335	65.020	-264.125	C.2	1	GLU1	0.805	
8	 OE1	288.607	64.518	-263.247	O.co2	1	GLU1	-0.819	
9	 OE2	289.765	66.190	-264.053	O.co2	1	GLU1	-0.819	
10	   H	289.875	59.718	-266.688	 H	1	GLU1	0.294	
11	  HA	289.481	62.464	-267.608	 H	1	GLU1	0.111	
12	 2HB	289.573	62.200	-264.521	 H	1	GLU1	-0.017	
13	 3HB	288.177	62.721	-265.438	 H	1	GLU1	-0.017	
14	 2HG	289.449	64.801	-266.221	 H	1	GLU1	-0.043	
15	 3HG	290.859	64.283	-265.311	 H	1	GLU1	-0.043	
16	   N	291.921	61.120	-265.863	N.am	2	ASN2	-0.416	
17	  CA	293.380	61.082	-265.863	C.3	2	ASN2	0.014	
18	   C	293.911	60.726	-267.232	C.2	2	ASN2	0.597	
19	   O	294.826	61.357	-267.761	O.2	2	ASN2	-0.568	
20	  CB	293.872	60.059	-264.799	C.3	2	ASN2	-0.204	
21	  CG	293.409	60.282	-263.356	C.2	2	ASN2	0.713	
22	 ND2	294.004	61.197	-262.637	N.pl3	2	ASN2	-0.919	
23	 OD1	292.489	59.649	-262.861	O.2	2	ASN2	-0.593	
24	   H	291.393	60.540	-265.227	 H	2	ASN2	0.272	
25	  HA	293.758	62.092	-265.618	 H	2	ASN2	0.105	
26	 2HB	294.977	60.000	-264.803	 H	2	ASN2	0.080	
27	 3HB	293.543	59.040	-265.085	 H	2	ASN2	0.080	
28	1HD2	293.523	61.370	-261.751	 H	2	ASN2	0.420	
29	2HD2	294.705	61.769	-263.107	 H	2	ASN2	0.420	
30	   N	293.390	59.731	-267.866	N.am	3	PRO3	-0.255	
31	  CA	293.842	59.322	-269.188	C.3	3	PRO3	-0.027	
32	   C	293.443	60.345	-270.264	C.2	3	PRO3	0.590	
33	   O	294.267	60.729	-271.096	O.2	3	PRO3	-0.575	
34	  CB	293.138	57.967	-269.357	C.3	3	PRO3	-0.007	
35	  CG	291.854	58.119	-268.527	C.3	3	PRO3	0.019	
36	  CD	292.312	58.938	-267.317	C.3	3	PRO3	0.019	
37	  HA	294.928	59.202	-269.201	 H	3	PRO3	0.064	
38	 2HB	293.761	57.186	-268.916	 H	3	PRO3	0.025	
39	 3HB	292.940	57.718	-270.402	 H	3	PRO3	0.025	
40	 2HG	291.427	57.157	-268.236	 H	3	PRO3	0.021	
41	 3HG	291.117	58.690	-269.094	 H	3	PRO3	0.021	
42	 2HD	292.702	58.288	-266.529	 H	3	PRO3	0.039	
43	 3HD	291.515	59.574	-266.924	 H	3	PRO3	0.039	
44	   N	292.239	60.805	-270.297	N.am	4	GLU4	-0.516	
45	  CA	291.879	61.776	-271.326	C.3	4	GLU4	0.040	
46	   C	292.777	62.987	-271.265	C.2	4	GLU4	0.537	
47	   O	293.304	63.467	-272.280	O.2	4	GLU4	-0.582	
48	  CB	290.390	62.194	-271.156	C.3	4	GLU4	0.056	
49	  CG	289.842	63.198	-272.222	C.3	4	GLU4	0.014	
50	  CD	288.415	63.694	-272.078	C.2	4	GLU4	0.805	
51	 OE1	287.689	63.296	-271.147	O.co2	4	GLU4	-0.819	
52	 OE2	288.025	64.523	-272.926	O.co2	4	GLU4	-0.819	
53	   H	291.555	60.498	-269.620	 H	4	GLU4	0.294	
54	  HA	292.010	61.306	-272.318	 H	4	GLU4	0.111	
55	 2HB	290.238	62.634	-270.149	 H	4	GLU4	-0.017	
56	 3HB	289.743	61.296	-271.162	 H	4	GLU4	-0.017	
57	 2HG	289.923	62.783	-273.239	 H	4	GLU4	-0.043	
58	 3HG	290.430	64.130	-272.233	 H	4	GLU4	-0.043	
59	   N	293.005	63.540	-270.122	N.am	5	SER5	-0.416	
60	  CA	293.874	64.711	-270.063	C.3	5	SER5	-0.025	
61	   C	295.233	64.406	-270.649	C.2	5	SER5	0.597	
62	   O	295.780	65.160	-271.454	O.2	5	SER5	-0.568	
63	  CB	293.985	65.244	-268.613	C.3	5	SER5	0.212	
64	  OG	294.717	64.365	-267.752	O.3	5	SER5	-0.655	
65	   H	292.588	63.168	-269.280	 H	5	SER5	0.272	
66	  HA	293.424	65.502	-270.693	 H	5	SER5	0.084	
67	 2HB	292.986	65.437	-268.180	 H	5	SER5	0.035	
68	 3HB	294.491	66.229	-268.615	 H	5	SER5	0.035	
69	  HG	294.229	63.539	-267.701	 H	5	SER5	0.428	
70	   N	295.838	63.323	-270.295	N.am	6	ILE6	-0.416	
71	  CA	297.151	63.029	-270.861	C.3	6	ILE6	-0.060	
72	   C	297.094	62.991	-272.369	C.2	6	ILE6	0.597	
73	   O	297.929	63.579	-273.073	O.2	6	ILE6	-0.568	
74	  CB	297.751	61.693	-270.261	C.3	6	ILE6	0.130	
75	 CG1	297.771	61.631	-268.700	C.3	6	ILE6	-0.043	
76	 CG2	299.193	61.391	-270.777	C.3	6	ILE6	-0.320	
77	 CD1	298.041	60.242	-268.085	C.3	6	ILE6	-0.066	
78	   H	295.410	62.689	-269.636	 H	6	ILE6	0.272	
79	  HA	297.825	63.863	-270.594	 H	6	ILE6	0.087	
80	  HB	297.094	60.867	-270.605	 H	6	ILE6	0.019	
81	2HG1	296.789	61.950	-268.305	 H	6	ILE6	0.024	
82	3HG1	298.487	62.373	-268.296	 H	6	ILE6	0.024	
83	1HG2	299.252	61.298	-271.875	 H	6	ILE6	0.088	
84	2HG2	299.915	62.174	-270.475	 H	6	ILE6	0.088	
85	3HG2	299.583	60.429	-270.398	 H	6	ILE6	0.088	
86	1HD1	297.313	59.487	-268.440	 H	6	ILE6	0.019	
87	2HD1	299.052	59.863	-268.321	 H	6	ILE6	0.019	
88	3HD1	297.965	60.271	-266.983	 H	6	ILE6	0.019	
89	   N	296.148	62.327	-272.943	N.am	7	LEU7	-0.416	
90	  CA	296.093	62.291	-274.401	C.3	7	LEU7	-0.052	
91	   C	296.021	63.687	-274.974	C.2	7	LEU7	0.597	
92	   O	296.741	64.050	-275.916	O.2	7	LEU7	-0.568	
93	  CB	294.891	61.431	-274.882	C.3	7	LEU7	-0.110	
94	  CG	294.818	59.951	-274.415	C.3	7	LEU7	0.353	
95	 CD1	293.629	59.245	-275.081	C.3	7	LEU7	-0.412	
96	 CD2	296.112	59.173	-274.707	C.3	7	LEU7	-0.412	
97	   H	295.457	61.840	-272.392	 H	7	LEU7	0.272	
98	  HA	297.035	61.852	-274.776	 H	7	LEU7	0.092	
99	 2HB	294.867	61.447	-275.989	 H	7	LEU7	0.046	
100	 3HB	293.951	61.933	-274.578	 H	7	LEU7	0.046	
101	  HG	294.649	59.943	-273.318	 H	7	LEU7	-0.036	
102	1HD1	292.671	59.754	-274.858	 H	7	LEU7	0.100	
103	2HD1	293.728	59.205	-276.182	 H	7	LEU7	0.100	
104	3HD1	293.522	58.204	-274.725	 H	7	LEU7	0.100	
105	1HD2	296.387	59.203	-275.777	 H	7	LEU7	0.100	
106	2HD2	296.965	59.584	-274.136	 H	7	LEU7	0.100	
107	3HD2	296.031	58.110	-274.411	 H	7	LEU7	0.100	
108	   N	295.183	64.527	-274.467	N.am	8	ASP8	-0.516	
109	  CA	295.112	65.877	-275.021	C.3	8	ASP8	0.038	
110	   C	296.458	66.557	-274.963	C.2	8	ASP8	0.537	
111	   O	296.931	67.162	-275.938	O.2	8	ASP8	-0.582	
112	  CB	294.034	66.715	-274.279	C.3	8	ASP8	-0.030	
113	  CG	293.814	68.136	-274.819	C.2	8	ASP8	0.799	
114	 OD1	293.878	68.335	-276.050	O.co2	8	ASP8	-0.801	
115	 OD2	293.622	69.061	-274.004	O.co2	8	ASP8	-0.801	
116	   H	294.585	64.256	-273.700	 H	8	ASP8	0.294	
117	  HA	294.829	65.799	-276.088	 H	8	ASP8	0.088	
118	 2HB	294.291	66.798	-273.207	 H	8	ASP8	-0.012	
119	 3HB	293.055	66.210	-274.312	 H	8	ASP8	-0.012	
120	   N	297.138	66.507	-273.868	N.am	9	GLU9	-0.516	
121	  CA	298.441	67.165	-273.813	C.3	9	GLU9	0.040	
122	   C	299.359	66.638	-274.888	C.2	9	GLU9	0.537	
123	   O	300.023	67.393	-275.614	O.2	9	GLU9	-0.582	
124	  CB	299.074	66.958	-272.407	C.3	9	GLU9	0.056	
125	  CG	300.456	67.651	-272.178	C.3	9	GLU9	0.014	
126	  CD	301.158	67.437	-270.849	C.2	9	GLU9	0.805	
127	 OE1	300.637	66.746	-269.953	O.co2	9	GLU9	-0.819	
128	 OE2	302.277	67.976	-270.718	O.co2	9	GLU9	-0.819	
129	   H	296.775	66.020	-273.061	 H	9	GLU9	0.294	
130	  HA	298.298	68.247	-273.988	 H	9	GLU9	0.111	
131	 2HB	299.188	65.873	-272.204	 H	9	GLU9	-0.017	
132	 3HB	298.377	67.311	-271.623	 H	9	GLU9	-0.017	
133	 2HG	300.384	68.741	-272.317	 H	9	GLU9	-0.043	
134	 3HG	301.203	67.306	-272.912	 H	9	GLU9	-0.043	
135	   N	299.456	65.363	-275.058	N.am	10	HIS10	-0.416	
136	  CA	300.344	64.852	-276.099	C.3	10	HIS10	-0.058	
137	   C	299.977	65.417	-277.450	C.2	10	HIS10	0.597	
138	   O	300.830	65.882	-278.221	O.2	10	HIS10	-0.568	
139	  CB	300.181	63.323	-276.094	C.3	10	HIS10	-0.007	
140	  CG	301.467	62.614	-275.786	C.2	10	HIS10	0.187	
141	 CD2	301.848	62.278	-274.493	C.2	10	HIS10	-0.221	
142	 ND1	302.419	62.208	-276.718	N.2	10	HIS10	-0.543	
143	 CE1	303.326	61.651	-275.895	C.2	10	HIS10	0.163	
144	 NE2	303.063	61.647	-274.560	N.pl3	10	HIS10	-0.280	
145	   H	298.926	64.727	-274.480	 H	10	HIS10	0.272	
146	  HA	301.363	65.210	-275.873	 H	10	HIS10	0.136	
147	 2HB	299.816	62.956	-277.074	 H	10	HIS10	0.037	
148	 3HB	299.426	62.986	-275.354	 H	10	HIS10	0.037	
149	 2HD	301.262	62.493	-273.604	 H	10	HIS10	0.186	
150	 1HE	304.217	61.230	-276.342	 H	10	HIS10	0.144	
151	 2HE	303.630	61.270	-273.787	 H	10	HIS10	0.334	
152	   N	298.739	65.415	-277.813	N.am	11	VAL11	-0.416	
153	  CA	298.384	65.961	-279.120	C.3	11	VAL11	-0.087	
154	   C	298.848	67.392	-279.252	C.2	11	VAL11	0.597	
155	   O	299.449	67.798	-280.255	O.2	11	VAL11	-0.568	
156	  CB	296.823	65.854	-279.339	C.3	11	VAL11	0.299	
157	 CG1	296.254	66.558	-280.602	C.3	11	VAL11	-0.319	
158	 CG2	296.299	64.400	-279.412	C.3	11	VAL11	-0.319	
159	   H	298.027	65.042	-277.202	 H	11	VAL11	0.272	
160	  HA	298.904	65.380	-279.902	 H	11	VAL11	0.097	
161	  HB	296.335	66.334	-278.464	 H	11	VAL11	-0.030	
162	1HG1	296.693	66.167	-281.539	 H	11	VAL11	0.079	
163	2HG1	295.155	66.450	-280.684	 H	11	VAL11	0.079	
164	3HG1	296.432	67.650	-280.592	 H	11	VAL11	0.079	
165	1HG2	296.589	63.813	-278.522	 H	11	VAL11	0.079	
166	2HG2	295.193	64.362	-279.455	 H	11	VAL11	0.079	
167	3HG2	296.681	63.859	-280.299	 H	11	VAL11	0.079	
168	   N	298.610	68.218	-278.289	N.am	12	GLN12	-0.416	
169	  CA	299.058	69.601	-278.416	C.3	12	GLN12	-0.003	
170	   C	300.548	69.669	-278.654	C.2	12	GLN12	0.597	
171	   O	301.035	70.378	-279.532	O.2	12	GLN12	-0.568	
172	  CB	298.667	70.368	-277.133	C.3	12	GLN12	-0.004	
173	  CG	299.026	71.890	-277.102	C.3	12	GLN12	-0.064	
174	  CD	298.723	72.703	-275.837	C.2	12	GLN12	0.695	
175	 NE2	298.156	72.126	-274.808	N.pl3	12	GLN12	-0.941	
176	 OE1	299.024	73.884	-275.759	O.2	12	GLN12	-0.609	
177	   H	298.121	67.911	-277.460	 H	12	GLN12	0.272	
178	  HA	298.558	70.057	-279.291	 H	12	GLN12	0.085	
179	 2HB	299.143	69.868	-276.264	 H	12	GLN12	0.017	
180	 3HB	297.576	70.260	-276.970	 H	12	GLN12	0.017	
181	 2HG	298.548	72.411	-277.952	 H	12	GLN12	0.035	
182	 3HG	300.109	72.033	-277.267	 H	12	GLN12	0.035	
183	1HE2	298.049	72.720	-273.985	 H	12	GLN12	0.425	
184	2HE2	297.993	71.122	-274.912	 H	12	GLN12	0.425	
185	   N	301.333	68.963	-277.913	N.am	13	ARG13	-0.348	
186	  CA	302.773	69.029	-278.144	C.3	13	ARG13	-0.264	
187	   C	303.110	68.658	-279.569	C.2	13	ARG13	0.734	
188	   O	303.878	69.331	-280.253	O.2	13	ARG13	-0.589	
189	  CB	303.487	68.091	-277.130	C.3	13	ARG13	-0.001	
190	  CG	305.032	68.244	-277.049	C.3	13	ARG13	0.039	
191	  CD	305.659	67.257	-276.051	C.3	13	ARG13	0.049	
192	  NE	307.136	67.465	-276.000	N.pl3	13	ARG13	-0.530	
193	  CZ	307.984	66.774	-275.245	C.cat	13	ARG13	0.808	
194	 NH1	307.620	65.809	-274.448	N.pl3	13	ARG13	-0.863	
195	 NH2	309.244	67.073	-275.302	N.pl3	13	ARG13	-0.863	
196	   H	300.957	68.373	-277.185	 H	13	ARG13	0.275	
197	  HA	303.097	70.075	-277.985	 H	13	ARG13	0.156	
198	 2HB	303.221	67.040	-277.369	 H	13	ARG13	0.033	
199	 3HB	303.061	68.257	-276.119	 H	13	ARG13	0.033	
200	 2HG	305.279	69.289	-276.769	 H	13	ARG13	0.029	
201	 3HG	305.482	68.089	-278.050	 H	13	ARG13	0.029	
202	 2HD	305.415	66.217	-276.360	 H	13	ARG13	0.069	
203	 3HD	305.202	67.402	-275.048	 H	13	ARG13	0.069	
204	  HE	307.587	68.187	-276.571	 H	13	ARG13	0.346	
205	1HH1	306.614	65.622	-274.451	 H	13	ARG13	0.448	
206	2HH1	308.333	65.326	-273.899	 H	13	ARG13	0.448	
207	1HH2	309.511	67.831	-275.933	 H	13	ARG13	0.448	
208	2HH2	309.879	66.532	-274.713	 H	13	ARG13	0.448	
209	   N	302.574	67.604	-280.083	N.am	14	VAL14	-0.416	
210	  CA	302.899	67.245	-281.461	C.3	14	VAL14	-0.087	
211	   C	302.569	68.375	-282.406	C.2	14	VAL14	0.597	
212	   O	303.362	68.757	-283.276	O.2	14	VAL14	-0.568	
213	  CB	302.128	65.928	-281.868	C.3	14	VAL14	0.299	
214	 CG1	302.217	65.510	-283.362	C.3	14	VAL14	-0.319	
215	 CG2	302.560	64.675	-281.068	C.3	14	VAL14	-0.319	
216	   H	301.939	67.035	-279.542	 H	14	VAL14	0.272	
217	  HA	303.988	67.069	-281.536	 H	14	VAL14	0.097	
218	  HB	301.051	66.098	-281.652	 H	14	VAL14	-0.030	
219	1HG1	303.259	65.333	-283.691	 H	14	VAL14	0.079	
220	2HG1	301.645	64.586	-283.575	 H	14	VAL14	0.079	
221	3HG1	301.788	66.272	-284.040	 H	14	VAL14	0.079	
222	1HG2	302.473	64.834	-279.978	 H	14	VAL14	0.079	
223	2HG2	301.925	63.799	-281.301	 H	14	VAL14	0.079	
224	3HG2	303.608	64.386	-281.274	 H	14	VAL14	0.079	
225	   N	301.424	68.960	-282.304	N.am	15	MET15	-0.416	
226	  CA	301.103	70.053	-283.218	C.3	15	MET15	-0.024	
227	   C	302.132	71.153	-283.130	C.2	15	MET15	0.597	
228	   O	302.635	71.665	-284.142	O.2	15	MET15	-0.568	
229	  CB	299.681	70.598	-282.909	C.3	15	MET15	0.034	
230	  CG	298.520	69.599	-283.101	C.3	15	MET15	0.002	
231	  SD	296.945	70.464	-282.987	S.3	15	MET15	-0.274	
232	  CE	295.865	69.034	-282.851	C.3	15	MET15	-0.054	
233	   H	300.759	68.667	-281.603	 H	15	MET15	0.272	
234	  HA	301.129	69.666	-284.254	 H	15	MET15	0.088	
235	 2HB	299.478	71.477	-283.551	 H	15	MET15	0.024	
236	 3HB	299.645	70.990	-281.873	 H	15	MET15	0.024	
237	 2HG	298.563	68.813	-282.324	 H	15	MET15	0.044	
238	 3HG	298.583	69.084	-284.078	 H	15	MET15	0.044	
239	 1HE	296.009	68.346	-283.703	 H	15	MET15	0.068	
240	 2HE	296.074	68.481	-281.918	 H	15	MET15	0.068	
241	 3HE	294.807	69.348	-282.834	 H	15	MET15	0.068	
242	   N	302.501	71.574	-281.967	N.am	16	ARG16	-0.348	
243	  CA	303.497	72.639	-281.883	C.3	16	ARG16	-0.264	
244	   C	304.767	72.247	-282.599	C.2	16	ARG16	0.734	
245	   O	304.882	71.171	-283.181	O.2	16	ARG16	-0.589	
246	  CB	303.765	72.956	-280.385	C.3	16	ARG16	-0.001	
247	  CG	304.590	74.246	-280.111	C.3	16	ARG16	0.039	
248	  CD	304.839	74.465	-278.610	C.3	16	ARG16	0.049	
249	  NE	305.614	75.724	-278.409	N.pl3	16	ARG16	-0.530	
250	  CZ	306.005	76.206	-277.233	C.cat	16	ARG16	0.808	
251	 NH1	305.758	75.622	-276.095	N.pl3	16	ARG16	-0.863	
252	 NH2	306.669	77.319	-277.214	N.pl3	16	ARG16	-0.863	
253	   H	302.106	71.174	-281.128	 H	16	ARG16	0.275	
254	  HA	303.087	73.531	-282.393	 H	16	ARG16	0.156	
255	 2HB	304.263	72.081	-279.919	 H	16	ARG16	0.033	
256	 3HB	302.796	73.037	-279.851	 H	16	ARG16	0.033	
257	 2HG	304.059	75.117	-280.548	 H	16	ARG16	0.029	
258	 3HG	305.563	74.194	-280.640	 H	16	ARG16	0.029	
259	 2HD	305.388	73.590	-278.197	 H	16	ARG16	0.069	
260	 3HD	303.866	74.507	-278.075	 H	16	ARG16	0.069	
261	  HE	305.893	76.306	-279.206	 H	16	ARG16	0.346	
262	1HH1	305.233	74.748	-276.179	 H	16	ARG16	0.448	
263	2HH1	306.092	76.057	-275.233	 H	16	ARG16	0.448	
264	1HH2	306.854	77.763	-278.116	 H	16	ARG16	0.448	
265	2HH2	306.959	77.674	-276.301	 H	16	ARG16	0.448	
@<TRIPOS>BOND
1 1 2 1
2 1 10 1
3 2 3 1
4 2 5 1
5 2 11 1
6 3 4 2
7 3 16 1
8 5 6 1
9 6 7 1
10 7 8 2
11 7 9 1
12 5 12 1
13 5 13 1
14 6 14 1
15 6 15 1
16 16 17 1
17 16 24 1
18 17 18 1
19 17 20 1
20 17 25 1
21 18 19 2
22 18 30 1
23 20 21 1
24 21 22 1
25 21 23 2
26 20 26 1
27 20 27 1
28 22 28 1
29 22 29 1
30 30 31 1
31 30 36 1
32 31 32 1
33 31 34 1
34 31 37 1
35 32 33 2
36 32 44 1
37 34 35 1
38 35 36 1
39 34 38 1
40 34 39 1
41 35 40 1
42 35 41 1
43 36 42 1
44 36 43 1
45 44 45 1
46 44 53 1
47 45 46 1
48 45 48 1
49 45 54 1
50 46 47 2
51 46 59 1
52 48 49 1
53 49 50 1
54 50 51 2
55 50 52 1
56 48 55 1
57 48 56 1
58 49 57 1
59 49 58 1
60 59 60 1
61 59 65 1
62 60 61 1
63 60 63 1
64 60 66 1
65 61 62 2
66 61 70 1
67 63 64 1
68 63 67 1
69 63 68 1
70 64 69 1
71 70 71 1
72 70 78 1
73 71 72 1
74 71 74 1
75 71 79 1
76 72 73 2
77 72 89 1
78 74 75 1
79 74 76 1
80 75 77 1
81 74 80 1
82 75 81 1
83 75 82 1
84 76 83 1
85 76 84 1
86 76 85 1
87 77 86 1
88 77 87 1
89 77 88 1
90 89 90 1
91 89 97 1
92 90 91 1
93 90 93 1
94 90 98 1
95 91 92 2
96 91 108 1
97 93 94 1
98 94 95 1
99 94 96 1
100 93 99 1
101 93 100 1
102 94 101 1
103 95 102 1
104 95 103 1
105 95 104 1
106 96 105 1
107 96 106 1
108 96 107 1
109 108 109 1
110 108 116 1
111 109 110 1
112 109 112 1
113 109 117 1
114 110 111 2
115 110 120 1
116 112 113 1
117 113 114 2
118 113 115 1
119 112 118 1
120 112 119 1
121 120 121 1
122 120 129 1
123 121 122 1
124 121 124 1
125 121 130 1
126 122 123 2
127 122 135 1
128 124 125 1
129 125 126 1
130 126 127 2
131 126 128 1
132 124 131 1
133 124 132 1
134 125 133 1
135 125 134 1
136 135 136 1
137 135 145 1
138 136 137 1
139 136 139 1
140 136 146 1
141 137 138 2
142 137 152 1
143 139 140 1
144 140 141 2
145 141 144 1
146 140 142 1
147 142 143 2
148 143 144 1
149 139 147 1
150 139 148 1
151 141 149 1
152 143 150 1
153 144 151 1
154 152 153 1
155 152 159 1
156 153 154 1
157 153 156 1
158 153 160 1
159 154 155 2
160 154 168 1
161 156 157 1
162 156 158 1
163 156 161 1
164 157 162 1
165 157 163 1
166 157 164 1
167 158 165 1
168 158 166 1
169 158 167 1
170 168 169 1
171 168 177 1
172 169 170 1
173 169 172 1
174 169 178 1
175 170 171 2
176 170 185 1
177 172 173 1
178 173 174 1
179 174 175 1
180 174 176 2
181 172 179 1
182 172 180 1
183 173 181 1
184 173 182 1
185 175 183 1
186 175 184 1
187 185 186 1
188 185 196 1
189 186 187 1
190 186 189 1
191 186 197 1
192 187 188 2
193 187 209 1
194 189 190 1
195 190 191 1
196 191 192 1
197 192 193 1
198 193 194 2
199 193 195 1
200 189 198 1
201 189 199 1
202 190 200 1
203 190 201 1
204 191 202 1
205 191 203 1
206 192 204 1
207 194 205 1
208 194 206 1
209 195 207 1
210 195 208 1
211 209 210 1
212 209 216 1
213 210 211 1
214 210 213 1
215 210 217 1
216 211 212 2
217 211 225 1
218 213 214 1
219 213 215 1
220 213 218 1
221 214 219 1
222 214 220 1
223 214 221 1
224 215 222 1
225 215 223 1
226 215 224 1
227 225 226 1
228 225 233 1
229 226 227 1
230 226 229 1
231 226 234 1
232 227 228 2
233 227 242 1
234 229 230 1
235 230 231 1
236 231 232 1
237 229 235 1
238 229 236 1
239 230 237 1
240 230 238 1
241 232 239 1
242 232 240 1
243 232 241 1
244 242 243 1
245 242 253 1
246 243 244 1
247 243 246 1
248 243 254 1
249 244 245 2
250 246 247 1
251 247 248 1
252 248 249 1
253 249 250 1
254 250 251 2
255 250 252 1
256 246 255 1
257 246 256 1
258 247 257 1
259 247 258 1
260 248 259 1
261 248 260 1
262 249 261 1
263 251 262 1
264 251 263 1
265 252 264 1
266 252 265 1
@<TRIPOS>SUBSTRUCTURE
1	GLU1	1	RESIDUE	1 ****	GLU
2	ASN2	16	RESIDUE	1 ****	ASN
3	PRO3	30	RESIDUE	1 ****	PRO
4	GLU4	44	RESIDUE	1 ****	GLU
5	SER5	59	RESIDUE	1 ****	SER
6	ILE6	70	RESIDUE	1 ****	ILE
7	LEU7	89	RESIDUE	1 ****	LEU
8	ASP8	108	RESIDUE	1 ****	ASP
9	GLU9	120	RESIDUE	1 ****	GLU
10	HIS10	135	RESIDUE	1 ****	HIS
11	VAL11	152	RESIDUE	1 ****	VAL
12	GLN12	168	RESIDUE	1 ****	GLN
13	ARG13	185	RESIDUE	1 ****	ARG
14	VAL14	209	RESIDUE	1 ****	VAL
15	MET15	225	RESIDUE	1 ****	MET
16	ARG16	242	RESIDUE	1 ****	ARG
