REMARK WARNING: 32 MAX_TORS EXCEEDED!!!
REMARK  69 active torsions:
REMARK  status: ('A' for Active; 'I' for Inactive)
REMARK    1  A    between atoms: N_1  and  CA_2 
REMARK    2  A    between atoms: CA_2  and  C_3 
REMARK    3  A    between atoms: CA_2  and  CB_5 
REMARK       I    between atoms: C_3  and  N_11 
REMARK    4  A    between atoms: CB_5  and  CG_6 
REMARK    5  A    between atoms: CG_6  and  CD_7 
REMARK    6  A    between atoms: N_11  and  CA_12 
REMARK    7  A    between atoms: CA_12  and  C_13 
REMARK    8  A    between atoms: CA_12  and  CB_15 
REMARK       I    between atoms: C_13  and  N_22 
REMARK    9  A    between atoms: CB_15  and  CG_16 
REMARK       I    between atoms: CG_16  and  ND2_17 
REMARK   10  A    between atoms: CA_23  and  C_24 
REMARK       I    between atoms: C_24  and  N_29 
REMARK   11  A    between atoms: N_29  and  CA_30 
REMARK   12  A    between atoms: CA_30  and  C_31 
REMARK   13  A    between atoms: CA_30  and  CB_33 
REMARK       I    between atoms: C_31  and  N_39 
REMARK   14  A    between atoms: CB_33  and  CG_34 
REMARK   15  A    between atoms: CG_34  and  CD_35 
REMARK   16  A    between atoms: N_39  and  CA_40 
REMARK   17  A    between atoms: CA_40  and  C_41 
REMARK   18  A    between atoms: CA_40  and  CB_43 
REMARK       I    between atoms: C_41  and  N_47 
REMARK   19  A    between atoms: CB_43  and  OG_44 
REMARK   20  A    between atoms: N_47  and  CA_48 
REMARK   21  A    between atoms: CA_48  and  C_49 
REMARK   22  A    between atoms: CA_48  and  CB_51 
REMARK       I    between atoms: C_49  and  N_56 
REMARK   23  A    between atoms: CB_51  and  CG1_52 
REMARK   24  A    between atoms: N_56  and  CA_57 
REMARK   25  A    between atoms: CA_57  and  C_58 
REMARK   26  A    between atoms: CA_57  and  CB_60 
REMARK       I    between atoms: C_58  and  N_70 
REMARK   27  A    between atoms: CB_60  and  CG_61 
REMARK   28  A    between atoms: CZ_66  and  OH_67 
REMARK   29  A    between atoms: N_70  and  CA_71 
REMARK   30  A    between atoms: CA_71  and  C_72 
REMARK   31  A    between atoms: CA_71  and  CB_74 
REMARK       I    between atoms: C_72  and  N_79 
REMARK   32  A    between atoms: CB_74  and  CG_75 
REMARK   33  A    between atoms: N_79  and  CA_80 
REMARK   34  A    between atoms: CA_80  and  C_81 
REMARK   35  A    between atoms: CA_80  and  CB_83 
REMARK       I    between atoms: C_81  and  N_89 
REMARK   36  A    between atoms: CB_83  and  CG_84 
REMARK   37  A    between atoms: CG_84  and  CD_85 
REMARK   38  A    between atoms: N_89  and  CA_90 
REMARK   39  A    between atoms: CA_90  and  C_91 
REMARK   40  A    between atoms: CA_90  and  CB_93 
REMARK       I    between atoms: C_91  and  N_101 
REMARK   41  A    between atoms: CB_93  and  CG_94 
REMARK   42  A    between atoms: N_101  and  CA_102 
REMARK   43  A    between atoms: CA_102  and  C_103 
REMARK   44  A    between atoms: CA_102  and  CB_105 
REMARK       I    between atoms: C_103  and  N_109 
REMARK   45  A    between atoms: N_109  and  CA_110 
REMARK   46  A    between atoms: CA_110  and  C_111 
REMARK   47  A    between atoms: CA_110  and  CB_113 
REMARK       I    between atoms: C_111  and  N_121 
REMARK   48  A    between atoms: CB_113  and  CG_114 
REMARK   49  A    between atoms: CG_114  and  CD_115 
REMARK       I    between atoms: CD_115  and  NE2_116 
REMARK   50  A    between atoms: N_121  and  CA_122 
REMARK   51  A    between atoms: CA_122  and  C_123 
REMARK   52  A    between atoms: CA_122  and  CB_125 
REMARK       I    between atoms: C_123  and  N_138 
REMARK   53  A    between atoms: CB_125  and  CG_126 
REMARK   54  A    between atoms: CG_126  and  CD_127 
REMARK   55  A    between atoms: CD_127  and  NE_128 
REMARK       I    between atoms: NE_128  and  CZ_129 
REMARK       I    between atoms: CZ_129  and  NH1_130 
REMARK       I    between atoms: CZ_129  and  NH2_131 
REMARK   56  A    between atoms: N_138  and  CA_139 
REMARK   57  A    between atoms: CA_139  and  C_140 
REMARK   58  A    between atoms: CA_139  and  CB_142 
REMARK       I    between atoms: C_140  and  N_146 
REMARK   59  A    between atoms: N_146  and  CA_147 
REMARK   60  A    between atoms: CA_147  and  C_148 
REMARK   61  A    between atoms: CA_147  and  CB_150 
REMARK       I    between atoms: C_148  and  N_155 
REMARK   62  A    between atoms: CB_150  and  CG_151 
REMARK   63  A    between atoms: CG_151  and  SD_152 
REMARK   64  A    between atoms: N_155  and  CA_156 
REMARK   65  A    between atoms: CA_156  and  C_157 
REMARK   66  A    between atoms: CA_156  and  CB_159 
REMARK   67  A    between atoms: CB_159  and  CG_160 
REMARK   68  A    between atoms: CG_160  and  CD_161 
REMARK   69  A    between atoms: CD_161  and  NE_162 
REMARK       I    between atoms: NE_162  and  CZ_163 
REMARK       I    between atoms: CZ_163  and  NH1_164 
ROOT
ATOM      1  CA  GLU d   9    1100.034 314.105-1083.043  0.00  0.00     0.177 C 
ENDROOT
BRANCH   1   2
ATOM      2  N   GLU d   9    1098.732 313.448-1083.098  0.00  0.00    -0.346 N 
ATOM      3  C   ASP d   8    1098.052 313.498-1084.193  0.00  0.00     0.241 C 
ATOM      4  O   ASP d   8    1098.524 314.102-1085.168  0.00  0.00    -0.271 OA
ATOM      5  H   GLU d   9    1098.368 312.962-1082.290  0.00  0.00     0.163 HD
BRANCH   3   6
ATOM      6  CA  ASP d   8    1096.705 312.818-1084.250  0.00  0.00     0.186 C 
BRANCH   6   7
ATOM      7  N   ASP d   8    1096.775 311.469-1083.696  0.00  0.00    -0.345 N 
ATOM      8  C   TYR d   7    1097.612 310.628-1084.202  0.00  0.00     0.241 C 
ATOM      9  O   TYR d   7    1098.329 310.988-1085.139  0.00  0.00    -0.271 OA
ATOM     10  H   ASP d   8    1096.177 311.198-1082.928  0.00  0.00     0.163 HD
BRANCH   8  11
ATOM     11  CA  TYR d   7    1097.685 309.233-1083.629  0.00  0.00     0.180 C 
BRANCH  11  12
ATOM     12  N   TYR d   7    1097.740 309.269-1082.170  0.00  0.00    -0.346 N 
ATOM     13  C   ILE d   6    1098.686 309.932-1081.597  0.00  0.00     0.241 C 
ATOM     14  O   ILE d   6    1099.521 310.520-1082.301  0.00  0.00    -0.271 OA
ATOM     15  H   TYR d   7    1097.048 308.781-1081.619  0.00  0.00     0.163 HD
BRANCH  13  16
ATOM     16  CA  ILE d   6    1098.743 309.970-1080.089  0.00  0.00     0.180 C 
BRANCH  16  17
ATOM     17  N   ILE d   6    1097.430 310.264-1079.522  0.00  0.00    -0.346 N 
ATOM     18  C   SER d   5    1096.825 311.347-1079.876  0.00  0.00     0.243 C 
ATOM     19  O   SER d   5    1097.372 312.101-1080.681  0.00  0.00    -0.271 OA
ATOM     20  H   ILE d   6    1097.002 309.630-1078.863  0.00  0.00     0.163 HD
BRANCH  18  21
ATOM     21  CA  SER d   5    1095.467 311.653-1079.291  0.00  0.00     0.200 C 
BRANCH  21  22
ATOM     22  N   SER d   5    1094.597 310.481-1079.349  0.00  0.00    -0.344 N 
ATOM     23  C   GLU d   4    1094.370 309.929-1080.492  0.00  0.00     0.241 C 
ATOM     24  O   GLU d   4    1094.896 310.408-1081.507  0.00  0.00    -0.271 OA
ATOM     25  H   SER d   5    1094.180 310.110-1078.507  0.00  0.00     0.163 HD
BRANCH  23  26
ATOM     26  CA  GLU d   4    1093.471 308.717-1080.553  0.00  0.00     0.177 C 
BRANCH  26  27
ATOM     27  N   GLU d   4    1093.831 307.746-1079.524  0.00  0.00    -0.346 N 
ATOM     28  C   PRO d   3    1095.035 307.286-1079.491  0.00  0.00     0.241 C 
ATOM     29  O   PRO d   3    1095.859 307.669-1080.323  0.00  0.00    -0.271 OA
ATOM     30  H   GLU d   4    1093.146 307.440-1078.847  0.00  0.00     0.163 HD
BRANCH  28  31
ATOM     31  CA  PRO d   3    1095.433 306.263-1078.415  0.00  0.00     0.179 C 
ATOM     32  N   PRO d   3    1094.982 306.672-1077.093  0.00  0.00    -0.337 N 
ATOM     33  C   ASN d   2    1095.503 307.667-1076.459  0.00  0.00     0.243 C 
ATOM     34  CD  PRO d   3    1093.904 305.879-1076.544  0.00  0.00     0.127 C 
ATOM     35  O   ASN d   2    1096.418 308.298-1076.988  0.00  0.00    -0.271 OA
ATOM     36  CG  PRO d   3    1093.446 305.060-1077.754  0.00  0.00     0.022 C 
ATOM     37  CB  PRO d   3    1094.729 304.908-1078.584  0.00  0.00     0.037 C 
BRANCH  33  38
ATOM     38  CA  ASN d   2    1094.972 308.023-1075.090  0.00  0.00     0.185 C 
BRANCH  38  39
ATOM     39  N   ASN d   2    1093.513 308.061-1075.090  0.00  0.00    -0.346 N 
ATOM     40  C   GLU d   1    1092.908 308.847-1075.915  0.00  0.00     0.242 C 
ATOM     41  O   GLU d   1    1093.584 309.546-1076.684  0.00  0.00    -0.271 OA
ATOM     42  H   ASN d   2    1092.985 307.482-1074.454  0.00  0.00     0.163 HD
BRANCH  40  43
ATOM     43  CA  GLU d   1    1091.399 308.887-1075.915  0.00  0.00     0.191 C 
BRANCH  43  44
ATOM     44  N   GLU d   1    1090.840 307.538-1075.915  0.00  0.00    -0.326 NA
ATOM     45  H   GLU d   1    1091.467 306.659-1075.915  0.00  0.00     0.180 HD
ENDBRANCH  43  44
BRANCH  43  46
ATOM     46  CB  GLU d   1    1090.876 309.672-1074.678  0.00  0.00     0.047 C 
BRANCH  46  47
ATOM     47  CG  GLU d   1    1091.351 311.157-1074.567  0.00  0.00     0.116 C 
BRANCH  47  48
ATOM     48  CD  GLU d   1    1090.927 311.961-1073.352  0.00  0.00     0.172 C 
ATOM     49  OE1 GLU d   1    1090.199 311.459-1072.474  0.00  0.00    -0.648 OA
ATOM     50  OE2 GLU d   1    1091.357 313.131-1073.280  0.00  0.00    -0.648 OA
ENDBRANCH  47  48
ENDBRANCH  46  47
ENDBRANCH  43  46
ENDBRANCH  40  43
ENDBRANCH  38  39
BRANCH  38  51
ATOM     51  CB  ASN d   2    1095.464 307.000-1074.026  0.00  0.00     0.137 C 
BRANCH  51  52
ATOM     52  CG  ASN d   2    1095.001 307.224-1072.583  0.00  0.00     0.217 C 
ATOM     53  ND2 ASN d   2    1095.595 308.139-1071.864  0.00  0.00    -0.370 N 
ATOM     54 21HD ASN d   2    1095.115 308.312-1070.978  0.00  0.00     0.159 HD
ATOM     55 22HD ASN d   2    1096.297 308.710-1072.334  0.00  0.00     0.159 HD
ATOM     56  OD1 ASN d   2    1094.080 306.590-1072.088  0.00  0.00    -0.274 OA
ENDBRANCH  51  52
ENDBRANCH  38  51
ENDBRANCH  33  38
ENDBRANCH  28  31
ENDBRANCH  26  27
BRANCH  26  57
ATOM     57  CB  GLU d   4    1091.982 309.136-1080.383  0.00  0.00     0.045 C 
BRANCH  57  58
ATOM     58  CG  GLU d   4    1091.434 310.140-1081.448  0.00  0.00     0.116 C 
BRANCH  58  59
ATOM     59  CD  GLU d   4    1090.007 310.636-1081.304  0.00  0.00     0.172 C 
ATOM     60  OE1 GLU d   4    1089.281 310.238-1080.373  0.00  0.00    -0.648 OA
ATOM     61  OE2 GLU d   4    1089.618 311.465-1082.153  0.00  0.00    -0.648 OA
ENDBRANCH  58  59
ENDBRANCH  57  58
ENDBRANCH  26  57
ENDBRANCH  23  26
ENDBRANCH  21  22
BRANCH  21  62
ATOM     62  CB  SER d   5    1095.578 312.185-1077.840  0.00  0.00     0.199 C 
BRANCH  62  63
ATOM     63  OG  SER d   5    1096.310 311.305-1076.979  0.00  0.00    -0.398 OA
ATOM     64  HG  SER d   5    1095.821 310.480-1076.928  0.00  0.00     0.209 HD
ENDBRANCH  62  63
ENDBRANCH  21  62
ENDBRANCH  18  21
ENDBRANCH  16  17
BRANCH  16  65
ATOM     65  CB  ILE d   6    1099.343 308.633-1079.489  0.00  0.00     0.013 C 
ATOM     66  CG2 ILE d   6    1100.784 308.332-1080.004  0.00  0.00     0.012 C 
BRANCH  65  67
ATOM     67  CG1 ILE d   6    1099.363 308.571-1077.928  0.00  0.00     0.002 C 
ATOM     68  CD1 ILE d   6    1099.633 307.182-1077.313  0.00  0.00     0.005 C 
ENDBRANCH  65  67
ENDBRANCH  16  65
ENDBRANCH  13  16
ENDBRANCH  11  12
BRANCH  11  69
ATOM     69  CB  TYR d   7    1096.433 308.447-1084.118  0.00  0.00     0.073 C 
BRANCH  69  70
ATOM     70  CG  TYR d   7    1096.348 306.969-1083.719  0.00  0.00    -0.056 A 
ATOM     71  CD1 TYR d   7    1097.098 306.003-1084.397  0.00  0.00     0.010 A 
ATOM     72  CE1 TYR d   7    1097.023 304.667-1084.015  0.00  0.00     0.037 A 
ATOM     73  CZ  TYR d   7    1096.200 304.289-1082.958  0.00  0.00     0.065 A 
ATOM     74  CE2 TYR d   7    1095.449 305.246-1082.279  0.00  0.00     0.037 A 
ATOM     75  CD2 TYR d   7    1095.522 306.583-1082.659  0.00  0.00     0.010 A 
BRANCH  73  76
ATOM     76  OH  TYR d   7    1096.133 302.976-1082.584  0.00  0.00    -0.361 OA
ATOM     77  HH  TYR d   7    1095.525 302.902-1081.845  0.00  0.00     0.217 HD
ENDBRANCH  73  76
ENDBRANCH  69  70
ENDBRANCH  11  69
ENDBRANCH   8  11
ENDBRANCH   6   7
BRANCH   6  78
ATOM     78  CB  ASP d   8    1095.627 313.657-1083.508  0.00  0.00     0.147 C 
BRANCH  78  79
ATOM     79  CG  ASP d   8    1095.408 315.078-1084.049  0.00  0.00     0.175 C 
ATOM     80  OD1 ASP d   8    1095.472 315.276-1085.280  0.00  0.00    -0.648 OA
ATOM     81  OD2 ASP d   8    1095.216 316.004-1083.234  0.00  0.00    -0.648 OA
ENDBRANCH  78  79
ENDBRANCH   6  78
ENDBRANCH   3   6
ENDBRANCH   1   2
BRANCH   1  82
ATOM     82  C   GLU d   9    1100.952 313.577-1084.119  0.00  0.00     0.241 C 
ATOM     83  O   GLU d   9    1101.616 314.331-1084.845  0.00  0.00    -0.271 OA
ATOM     84  N   HIS d  10    1101.049 312.302-1084.288  0.00  0.00    -0.346 N 
ATOM     85  H   HIS d  10    1100.518 311.667-1083.709  0.00  0.00     0.163 HD
BRANCH  84  86
ATOM     86  CA  HIS d  10    1101.936 311.790-1085.328  0.00  0.00     0.182 C 
BRANCH  86  87
ATOM     87  C   HIS d  10    1101.569 312.354-1086.679  0.00  0.00     0.241 C 
ATOM     88  O   HIS d  10    1102.422 312.819-1087.452  0.00  0.00    -0.271 OA
ATOM     89  N   VAL d  11    1100.331 312.353-1087.042  0.00  0.00    -0.346 N 
ATOM     90  H   VAL d  11    1099.618 311.981-1086.431  0.00  0.00     0.163 HD
BRANCH  89  91
ATOM     91  CA  VAL d  11    1099.976 312.899-1088.349  0.00  0.00     0.180 C 
BRANCH  91  92
ATOM     92  C   VAL d  11    1100.440 314.329-1088.482  0.00  0.00     0.241 C 
ATOM     93  O   VAL d  11    1101.041 314.734-1089.486  0.00  0.00    -0.271 OA
ATOM     94  N   GLN d  12    1100.203 315.156-1087.520  0.00  0.00    -0.346 N 
ATOM     95  H   GLN d  12    1099.714 314.850-1086.691  0.00  0.00     0.163 HD
BRANCH  94  96
ATOM     96  CA  GLN d  12    1100.651 316.539-1087.648  0.00  0.00     0.177 C 
BRANCH  96  97
ATOM     97  C   GLN d  12    1102.141 316.606-1087.887  0.00  0.00     0.241 C 
ATOM     98  O   GLN d  12    1102.628 317.313-1088.766  0.00  0.00    -0.271 OA
ATOM     99  N   ARG d  13    1102.926 315.899-1087.146  0.00  0.00    -0.346 N 
ATOM    100  H   ARG d  13    1102.550 315.310-1086.417  0.00  0.00     0.163 HD
BRANCH  99 101
ATOM    101  CA  ARG d  13    1104.366 315.965-1087.377  0.00  0.00     0.176 C 
BRANCH 101 102
ATOM    102  C   ARG d  13    1104.702 315.593-1088.802  0.00  0.00     0.241 C 
ATOM    103  O   ARG d  13    1105.471 316.264-1089.486  0.00  0.00    -0.271 OA
ATOM    104  N   VAL d  14    1104.166 314.538-1089.315  0.00  0.00    -0.346 N 
ATOM    105  H   VAL d  14    1103.531 313.970-1088.773  0.00  0.00     0.163 HD
BRANCH 104 106
ATOM    106  CA  VAL d  14    1104.490 314.178-1090.692  0.00  0.00     0.180 C 
BRANCH 106 107
ATOM    107  C   VAL d  14    1104.160 315.307-1091.639  0.00  0.00     0.241 C 
ATOM    108  O   VAL d  14    1104.953 315.688-1092.509  0.00  0.00    -0.271 OA
ATOM    109  N   MET d  15    1103.015 315.893-1091.537  0.00  0.00    -0.346 N 
ATOM    110  H   MET d  15    1102.350 315.601-1090.835  0.00  0.00     0.163 HD
BRANCH 109 111
ATOM    111  CA  MET d  15    1102.695 316.985-1092.452  0.00  0.00     0.177 C 
BRANCH 111 112
ATOM    112  C   MET d  15    1103.725 318.085-1092.365  0.00  0.00     0.241 C 
ATOM    113  O   MET d  15    1104.228 318.595-1093.378  0.00  0.00    -0.271 OA
ATOM    114  N   ARG d  16    1104.094 318.507-1091.203  0.00  0.00    -0.347 N 
ATOM    115  H   ARG d  16    1103.699 318.107-1090.363  0.00  0.00     0.163 HD
BRANCH 114 116
ATOM    116  CA  ARG d  16    1105.091 319.570-1091.120  0.00  0.00     0.162 C 
BRANCH 116 117
ATOM    117  C   ARG d  16    1106.361 319.177-1091.836  0.00  0.00     0.219 C 
ATOM    118  O   ARG d  16    1106.475 318.100-1092.417  0.00  0.00    -0.287 OA
ENDBRANCH 116 117
BRANCH 116 119
ATOM    119  CB  ARG d  16    1105.360 319.889-1089.622  0.00  0.00     0.035 C 
BRANCH 119 120
ATOM    120  CG  ARG d  16    1106.185 321.179-1089.350  0.00  0.00     0.023 C 
BRANCH 120 121
ATOM    121  CD  ARG d  16    1106.435 321.399-1087.849  0.00  0.00     0.138 C 
BRANCH 121 122
ATOM    122  NE  ARG d  16    1107.211 322.658-1087.649  0.00  0.00    -0.227 N 
ATOM    123  CZ  ARG d  16    1107.603 323.141-1086.474  0.00  0.00     0.665 C 
ATOM    124  NH1 ARG d  16    1107.355 322.558-1085.335  0.00  0.00    -0.235 N 
ATOM    125  NH2 ARG d  16    1108.267 324.254-1086.456  0.00  0.00    -0.235 N 
ATOM    126 11HH ARG d  16    1106.829 321.685-1085.419  0.00  0.00     0.174 HD
ATOM    127 12HH ARG d  16    1107.689 322.994-1084.474  0.00  0.00     0.174 HD
ATOM    128 21HH ARG d  16    1108.452 324.696-1087.358  0.00  0.00     0.174 HD
ATOM    129 22HH ARG d  16    1108.557 324.609-1085.544  0.00  0.00     0.174 HD
ATOM    130  HE  ARG d  16    1107.490 323.238-1088.447  0.00  0.00     0.177 HD
ENDBRANCH 121 122
ENDBRANCH 120 121
ENDBRANCH 119 120
ENDBRANCH 116 119
ENDBRANCH 114 116
ENDBRANCH 111 112
BRANCH 111 131
ATOM    131  CB  MET d  15    1101.274 317.531-1092.143  0.00  0.00     0.045 C 
BRANCH 131 132
ATOM    132  CG  MET d  15    1100.111 316.533-1092.333  0.00  0.00     0.076 C 
BRANCH 132 133
ATOM    133  SD  MET d  15    1098.537 317.400-1092.219  0.00  0.00    -0.173 SA
ATOM    134  CE  MET d  15    1097.456 315.971-1092.082  0.00  0.00     0.089 C 
ENDBRANCH 132 133
ENDBRANCH 131 132
ENDBRANCH 111 131
ENDBRANCH 109 111
ENDBRANCH 106 107
BRANCH 106 135
ATOM    135  CB  VAL d  14    1103.717 312.860-1091.098  0.00  0.00     0.009 C 
ATOM    136  CG1 VAL d  14    1103.806 312.441-1092.591  0.00  0.00     0.012 C 
ATOM    137  CG2 VAL d  14    1104.150 311.609-1090.297  0.00  0.00     0.012 C 
ENDBRANCH 106 135
ENDBRANCH 104 106
ENDBRANCH 101 102
BRANCH 101 138
ATOM    138  CB  ARG d  13    1105.080 315.027-1086.362  0.00  0.00     0.036 C 
BRANCH 138 139
ATOM    139  CG  ARG d  13    1106.625 315.180-1086.282  0.00  0.00     0.023 C 
BRANCH 139 140
ATOM    140  CD  ARG d  13    1107.252 314.193-1085.283  0.00  0.00     0.138 C 
BRANCH 140 141
ATOM    141  NE  ARG d  13    1108.729 314.400-1085.234  0.00  0.00    -0.227 N 
ATOM    142  CZ  ARG d  13    1109.578 313.709-1084.478  0.00  0.00     0.665 C 
ATOM    143  NH1 ARG d  13    1109.213 312.745-1083.680  0.00  0.00    -0.235 N 
ATOM    144  NH2 ARG d  13    1110.837 314.008-1084.536  0.00  0.00    -0.235 N 
ATOM    145 11HH ARG d  13    1108.207 312.559-1083.683  0.00  0.00     0.174 HD
ATOM    146 12HH ARG d  13    1109.926 312.263-1083.131  0.00  0.00     0.174 HD
ATOM    147 21HH ARG d  13    1111.104 314.766-1085.167  0.00  0.00     0.174 HD
ATOM    148 22HH ARG d  13    1111.472 313.467-1083.947  0.00  0.00     0.174 HD
ATOM    149  HE  ARG d  13    1109.180 315.122-1085.805  0.00  0.00     0.177 HD
ENDBRANCH 140 141
ENDBRANCH 139 140
ENDBRANCH 138 139
ENDBRANCH 101 138
ENDBRANCH  99 101
ENDBRANCH  96  97
BRANCH  96 150
ATOM    150  CB  GLN d  12    1100.261 317.307-1086.366  0.00  0.00     0.044 C 
BRANCH 150 151
ATOM    151  CG  GLN d  12    1100.622 318.829-1086.336  0.00  0.00     0.105 C 
BRANCH 151 152
ATOM    152  CD  GLN d  12    1100.320 319.643-1085.071  0.00  0.00     0.215 C 
ATOM    153  NE2 GLN d  12    1099.753 319.067-1084.042  0.00  0.00    -0.370 N 
ATOM    154 21HE GLN d  12    1099.646 319.662-1083.219  0.00  0.00     0.159 HD
ATOM    155 22HE GLN d  12    1099.589 318.063-1084.145  0.00  0.00     0.159 HD
ATOM    156  OE1 GLN d  12    1100.622 320.824-1084.995  0.00  0.00    -0.274 OA
ENDBRANCH 151 152
ENDBRANCH 150 151
ENDBRANCH  96 150
ENDBRANCH  94  96
ENDBRANCH  91  92
BRANCH  91 157
ATOM    157  CB  VAL d  11    1098.414 312.792-1088.568  0.00  0.00     0.009 C 
ATOM    158  CG1 VAL d  11    1097.845 313.495-1089.831  0.00  0.00     0.012 C 
ATOM    159  CG2 VAL d  11    1097.890 311.338-1088.640  0.00  0.00     0.012 C 
ENDBRANCH  91 157
ENDBRANCH  89  91
ENDBRANCH  86  87
BRANCH  86 160
ATOM    160  CB  HIS d  10    1101.772 310.262-1085.323  0.00  0.00     0.095 C 
BRANCH 160 161
ATOM    161  CG  HIS d  10    1103.058 309.551-1085.014  0.00  0.00     0.053 A 
ATOM    162  CD2 HIS d  10    1103.439 309.217-1083.722  0.00  0.00     0.116 A 
ATOM    163  NE2 HIS d  10    1104.654 308.585-1083.788  0.00  0.00    -0.359 N 
ATOM    164  CE1 HIS d  10    1104.917 308.587-1085.124  0.00  0.00     0.207 A 
ATOM    165  2HE HIS d  10    1105.221 308.208-1083.015  0.00  0.00     0.166 HD
ATOM    166  ND1 HIS d  10    1104.010 309.145-1085.947  0.00  0.00    -0.247 NA
ENDBRANCH 160 161
ENDBRANCH  86 160
ENDBRANCH  84  86
ENDBRANCH   1  82
BRANCH   1 167
ATOM    167  CB  GLU d   9    1100.668 313.898-1081.637  0.00  0.00     0.045 C 
BRANCH 167 168
ATOM    168  CG  GLU d   9    1102.051 314.590-1081.409  0.00  0.00     0.116 C 
BRANCH 168 169
ATOM    169  CD  GLU d   9    1102.753 314.378-1080.080  0.00  0.00     0.172 C 
ATOM    170  OE1 GLU d   9    1102.231 313.687-1079.184  0.00  0.00    -0.648 OA
ATOM    171  OE2 GLU d   9    1103.872 314.915-1079.949  0.00  0.00    -0.648 OA
ENDBRANCH 168 169
ENDBRANCH 167 168
ENDBRANCH   1 167
TORSDOF 69
