REMARK WARNING: 32 MAX_TORS EXCEEDED!!!
REMARK  69 active torsions:
REMARK  status: ('A' for Active; 'I' for Inactive)
REMARK    1  A    between atoms: N_1  and  CA_2 
REMARK    2  A    between atoms: CA_2  and  C_3 
REMARK    3  A    between atoms: CA_2  and  CB_5 
REMARK       I    between atoms: C_3  and  N_11 
REMARK    4  A    between atoms: CB_5  and  CG_6 
REMARK    5  A    between atoms: CG_6  and  CD_7 
REMARK    6  A    between atoms: N_11  and  CA_12 
REMARK    7  A    between atoms: CA_12  and  C_13 
REMARK    8  A    between atoms: CA_12  and  CB_15 
REMARK       I    between atoms: C_13  and  N_22 
REMARK    9  A    between atoms: CB_15  and  CG_16 
REMARK       I    between atoms: CG_16  and  ND2_17 
REMARK   10  A    between atoms: CA_23  and  C_24 
REMARK       I    between atoms: C_24  and  N_29 
REMARK   11  A    between atoms: N_29  and  CA_30 
REMARK   12  A    between atoms: CA_30  and  C_31 
REMARK   13  A    between atoms: CA_30  and  CB_33 
REMARK       I    between atoms: C_31  and  N_39 
REMARK   14  A    between atoms: CB_33  and  CG_34 
REMARK   15  A    between atoms: CG_34  and  CD_35 
REMARK   16  A    between atoms: N_39  and  CA_40 
REMARK   17  A    between atoms: CA_40  and  C_41 
REMARK   18  A    between atoms: CA_40  and  CB_43 
REMARK       I    between atoms: C_41  and  N_47 
REMARK   19  A    between atoms: CB_43  and  OG_44 
REMARK   20  A    between atoms: N_47  and  CA_48 
REMARK   21  A    between atoms: CA_48  and  C_49 
REMARK   22  A    between atoms: CA_48  and  CB_51 
REMARK       I    between atoms: C_49  and  N_56 
REMARK   23  A    between atoms: CB_51  and  CG1_52 
REMARK   24  A    between atoms: N_56  and  CA_57 
REMARK   25  A    between atoms: CA_57  and  C_58 
REMARK   26  A    between atoms: CA_57  and  CB_60 
REMARK       I    between atoms: C_58  and  N_68 
REMARK   27  A    between atoms: CB_60  and  CG_61 
REMARK   28  A    between atoms: CG_61  and  CD_62 
REMARK       I    between atoms: CD_62  and  NE2_63 
REMARK   29  A    between atoms: N_68  and  CA_69 
REMARK   30  A    between atoms: CA_69  and  C_70 
REMARK   31  A    between atoms: CA_69  and  CB_72 
REMARK       I    between atoms: C_70  and  N_77 
REMARK   32  A    between atoms: CB_72  and  CG_73 
REMARK   33  A    between atoms: N_77  and  CA_78 
REMARK   34  A    between atoms: CA_78  and  C_79 
REMARK   35  A    between atoms: CA_78  and  CB_81 
REMARK       I    between atoms: C_79  and  N_87 
REMARK   36  A    between atoms: CB_81  and  CG_82 
REMARK   37  A    between atoms: CG_82  and  CD_83 
REMARK   38  A    between atoms: N_87  and  CA_88 
REMARK   39  A    between atoms: CA_88  and  C_89 
REMARK   40  A    between atoms: CA_88  and  CB_91 
REMARK       I    between atoms: C_89  and  N_99 
REMARK   41  A    between atoms: CB_91  and  CG_92 
REMARK   42  A    between atoms: N_99  and  CA_100 
REMARK   43  A    between atoms: CA_100  and  C_101 
REMARK   44  A    between atoms: CA_100  and  CB_103 
REMARK       I    between atoms: C_101  and  N_107 
REMARK   45  A    between atoms: N_107  and  CA_108 
REMARK   46  A    between atoms: CA_108  and  C_109 
REMARK   47  A    between atoms: CA_108  and  CB_111 
REMARK       I    between atoms: C_109  and  N_119 
REMARK   48  A    between atoms: CB_111  and  CG_112 
REMARK   49  A    between atoms: CG_112  and  CD_113 
REMARK       I    between atoms: CD_113  and  NE2_114 
REMARK   50  A    between atoms: N_119  and  CA_120 
REMARK   51  A    between atoms: CA_120  and  C_121 
REMARK   52  A    between atoms: CA_120  and  CB_123 
REMARK       I    between atoms: C_121  and  N_136 
REMARK   53  A    between atoms: CB_123  and  CG_124 
REMARK   54  A    between atoms: CG_124  and  CD_125 
REMARK   55  A    between atoms: CD_125  and  NE_126 
REMARK       I    between atoms: NE_126  and  CZ_127 
REMARK       I    between atoms: CZ_127  and  NH1_128 
REMARK       I    between atoms: CZ_127  and  NH2_129 
REMARK   56  A    between atoms: N_136  and  CA_137 
REMARK   57  A    between atoms: CA_137  and  C_138 
REMARK   58  A    between atoms: CA_137  and  CB_140 
REMARK       I    between atoms: C_138  and  N_144 
REMARK   59  A    between atoms: N_144  and  CA_145 
REMARK   60  A    between atoms: CA_145  and  C_146 
REMARK   61  A    between atoms: CA_145  and  CB_148 
REMARK       I    between atoms: C_146  and  N_153 
REMARK   62  A    between atoms: CB_148  and  CG_149 
REMARK   63  A    between atoms: CG_149  and  SD_150 
REMARK   64  A    between atoms: N_153  and  CA_154 
REMARK   65  A    between atoms: CA_154  and  C_155 
REMARK   66  A    between atoms: CA_154  and  CB_157 
REMARK   67  A    between atoms: CB_157  and  CG_158 
REMARK   68  A    between atoms: CG_158  and  CD_159 
REMARK   69  A    between atoms: CD_159  and  NE_160 
REMARK       I    between atoms: NE_160  and  CZ_161 
REMARK       I    between atoms: CZ_161  and  NH1_162 
ROOT
ATOM      1  C   GLU d   9    1159.011 332.749-1146.465  0.00  0.00     0.241 C 
ATOM      2  O   GLU d   9    1159.675 333.501-1147.192  0.00  0.00    -0.271 OA
ATOM      3  N   HIS d  10    1159.107 331.473-1146.632  0.00  0.00    -0.346 N 
ATOM      4  H   HIS d  10    1158.576 330.839-1146.052  0.00  0.00     0.163 HD
ENDROOT
BRANCH   1   5
ATOM      5  CA  GLU d   9    1158.093 333.279-1145.390  0.00  0.00     0.177 C 
BRANCH   5   6
ATOM      6  N   GLU d   9    1156.791 332.622-1145.444  0.00  0.00    -0.346 N 
ATOM      7  C   ASP d   8    1156.110 332.669-1146.539  0.00  0.00     0.241 C 
ATOM      8  O   ASP d   8    1156.583 333.272-1147.515  0.00  0.00    -0.271 OA
ATOM      9  H   GLU d   9    1156.427 332.137-1144.635  0.00  0.00     0.163 HD
BRANCH   7  10
ATOM     10  CA  ASP d   8    1154.764 331.990-1146.594  0.00  0.00     0.186 C 
BRANCH  10  11
ATOM     11  N   ASP d   8    1154.834 330.642-1146.038  0.00  0.00    -0.346 N 
ATOM     12  C   GLN d   7    1155.671 329.800-1146.543  0.00  0.00     0.241 C 
ATOM     13  O   GLN d   7    1156.385 330.156-1147.477  0.00  0.00    -0.271 OA
ATOM     14  H   ASP d   8    1154.236 330.372-1145.270  0.00  0.00     0.163 HD
BRANCH  12  15
ATOM     15  CA  GLN d   7    1155.743 328.405-1145.968  0.00  0.00     0.177 C 
BRANCH  15  16
ATOM     16  N   GLN d   7    1155.799 328.441-1144.510  0.00  0.00    -0.346 N 
ATOM     17  C   ILE d   6    1156.745 329.105-1143.936  0.00  0.00     0.241 C 
ATOM     18  O   ILE d   6    1157.580 329.692-1144.640  0.00  0.00    -0.271 OA
ATOM     19  H   GLN d   7    1155.107 327.954-1143.958  0.00  0.00     0.163 HD
BRANCH  17  20
ATOM     20  CA  ILE d   6    1156.802 329.142-1142.428  0.00  0.00     0.180 C 
BRANCH  20  21
ATOM     21  N   ILE d   6    1155.489 329.437-1141.862  0.00  0.00    -0.346 N 
ATOM     22  C   SER d   5    1154.884 330.520-1142.216  0.00  0.00     0.243 C 
ATOM     23  O   SER d   5    1155.431 331.273-1143.021  0.00  0.00    -0.271 OA
ATOM     24  H   ILE d   6    1155.061 328.802-1141.203  0.00  0.00     0.163 HD
BRANCH  22  25
ATOM     25  CA  SER d   5    1153.526 330.825-1141.630  0.00  0.00     0.200 C 
BRANCH  25  26
ATOM     26  N   SER d   5    1152.656 329.654-1141.689  0.00  0.00    -0.344 N 
ATOM     27  C   GLU d   4    1152.429 329.101-1142.832  0.00  0.00     0.241 C 
ATOM     28  O   GLU d   4    1152.955 329.581-1143.846  0.00  0.00    -0.271 OA
ATOM     29  H   SER d   5    1152.239 329.282-1140.847  0.00  0.00     0.163 HD
BRANCH  27  30
ATOM     30  CA  GLU d   4    1151.530 327.890-1142.893  0.00  0.00     0.177 C 
BRANCH  30  31
ATOM     31  N   GLU d   4    1151.890 326.919-1141.863  0.00  0.00    -0.346 N 
ATOM     32  C   PRO d   3    1153.094 326.459-1141.831  0.00  0.00     0.241 C 
ATOM     33  O   PRO d   3    1153.918 326.842-1142.663  0.00  0.00    -0.271 OA
ATOM     34  H   GLU d   4    1151.206 326.612-1141.187  0.00  0.00     0.163 HD
BRANCH  32  35
ATOM     35  CA  PRO d   3    1153.493 325.435-1140.754  0.00  0.00     0.179 C 
ATOM     36  N   PRO d   3    1153.041 325.845-1139.433  0.00  0.00    -0.337 N 
ATOM     37  C   ASN d   2    1153.562 326.840-1138.799  0.00  0.00     0.243 C 
ATOM     38  CD  PRO d   3    1151.963 325.051-1138.884  0.00  0.00     0.127 C 
ATOM     39  O   ASN d   2    1154.477 327.470-1139.327  0.00  0.00    -0.271 OA
ATOM     40  CG  PRO d   3    1151.505 324.233-1140.093  0.00  0.00     0.022 C 
ATOM     41  CB  PRO d   3    1152.788 324.081-1140.924  0.00  0.00     0.037 C 
BRANCH  37  42
ATOM     42  CA  ASN d   2    1153.031 327.195-1137.430  0.00  0.00     0.185 C 
BRANCH  42  43
ATOM     43  N   ASN d   2    1151.572 327.234-1137.430  0.00  0.00    -0.346 N 
ATOM     44  C   GLU d   1    1150.967 328.020-1138.255  0.00  0.00     0.242 C 
ATOM     45  O   GLU d   1    1151.643 328.719-1139.024  0.00  0.00    -0.271 OA
ATOM     46  H   ASN d   2    1151.044 326.654-1136.793  0.00  0.00     0.163 HD
BRANCH  44  47
ATOM     47  CA  GLU d   1    1149.458 328.060-1138.255  0.00  0.00     0.191 C 
BRANCH  47  48
ATOM     48  N   GLU d   1    1148.899 326.711-1138.255  0.00  0.00    -0.326 NA
ATOM     49  H   GLU d   1    1149.526 325.832-1138.255  0.00  0.00     0.180 HD
ENDBRANCH  47  48
BRANCH  47  50
ATOM     50  CB  GLU d   1    1148.935 328.845-1137.018  0.00  0.00     0.047 C 
BRANCH  50  51
ATOM     51  CG  GLU d   1    1149.410 330.330-1136.907  0.00  0.00     0.116 C 
BRANCH  51  52
ATOM     52  CD  GLU d   1    1148.986 331.134-1135.692  0.00  0.00     0.172 C 
ATOM     53  OE1 GLU d   1    1148.258 330.632-1134.814  0.00  0.00    -0.648 OA
ATOM     54  OE2 GLU d   1    1149.416 332.304-1135.620  0.00  0.00    -0.648 OA
ENDBRANCH  51  52
ENDBRANCH  50  51
ENDBRANCH  47  50
ENDBRANCH  44  47
ENDBRANCH  42  43
BRANCH  42  55
ATOM     55  CB  ASN d   2    1153.523 326.172-1136.366  0.00  0.00     0.137 C 
BRANCH  55  56
ATOM     56  CG  ASN d   2    1153.060 326.396-1134.922  0.00  0.00     0.217 C 
ATOM     57  ND2 ASN d   2    1153.654 327.311-1134.204  0.00  0.00    -0.370 N 
ATOM     58 21HD ASN d   2    1153.174 327.484-1133.318  0.00  0.00     0.159 HD
ATOM     59 22HD ASN d   2    1154.356 327.883-1134.673  0.00  0.00     0.159 HD
ATOM     60  OD1 ASN d   2    1152.140 325.762-1134.428  0.00  0.00    -0.274 OA
ENDBRANCH  55  56
ENDBRANCH  42  55
ENDBRANCH  37  42
ENDBRANCH  32  35
ENDBRANCH  30  31
BRANCH  30  61
ATOM     61  CB  GLU d   4    1150.041 328.308-1142.722  0.00  0.00     0.045 C 
BRANCH  61  62
ATOM     62  CG  GLU d   4    1149.493 329.312-1143.788  0.00  0.00     0.116 C 
BRANCH  62  63
ATOM     63  CD  GLU d   4    1148.066 329.809-1143.644  0.00  0.00     0.172 C 
ATOM     64  OE1 GLU d   4    1147.340 329.410-1142.713  0.00  0.00    -0.648 OA
ATOM     65  OE2 GLU d   4    1147.677 330.638-1144.492  0.00  0.00    -0.648 OA
ENDBRANCH  62  63
ENDBRANCH  61  62
ENDBRANCH  30  61
ENDBRANCH  27  30
ENDBRANCH  25  26
BRANCH  25  66
ATOM     66  CB  SER d   5    1153.637 331.357-1140.180  0.00  0.00     0.199 C 
BRANCH  66  67
ATOM     67  OG  SER d   5    1154.369 330.478-1139.319  0.00  0.00    -0.398 OA
ATOM     68  HG  SER d   5    1153.880 329.653-1139.268  0.00  0.00     0.209 HD
ENDBRANCH  66  67
ENDBRANCH  25  66
ENDBRANCH  22  25
ENDBRANCH  20  21
BRANCH  20  69
ATOM     69  CB  ILE d   6    1157.402 327.806-1141.829  0.00  0.00     0.013 C 
ATOM     70  CG2 ILE d   6    1158.844 327.504-1142.344  0.00  0.00     0.012 C 
BRANCH  69  71
ATOM     71  CG1 ILE d   6    1157.422 327.743-1140.268  0.00  0.00     0.002 C 
ATOM     72  CD1 ILE d   6    1157.692 326.354-1139.653  0.00  0.00     0.005 C 
ENDBRANCH  69  71
ENDBRANCH  20  69
ENDBRANCH  17  20
ENDBRANCH  15  16
BRANCH  15  73
ATOM     73  CB  GLN d   7    1154.519 327.565-1146.396  0.00  0.00     0.044 C 
BRANCH  73  74
ATOM     74  CG  GLN d   7    1154.318 327.373-1147.935  0.00  0.00     0.105 C 
BRANCH  74  75
ATOM     75  CD  GLN d   7    1153.090 326.602-1148.438  0.00  0.00     0.215 C 
ATOM     76  NE2 GLN d   7    1152.237 326.101-1147.581  0.00  0.00    -0.370 N 
ATOM     77 21HE GLN d   7    1151.415 325.661-1147.998  0.00  0.00     0.159 HD
ATOM     78 22HE GLN d   7    1152.436 326.311-1146.601  0.00  0.00     0.159 HD
ATOM     79  OE1 GLN d   7    1152.877 326.465-1149.632  0.00  0.00    -0.274 OA
ENDBRANCH  74  75
ENDBRANCH  73  74
ENDBRANCH  15  73
ENDBRANCH  12  15
ENDBRANCH  10  11
BRANCH  10  80
ATOM     80  CB  ASP d   8    1153.686 332.831-1145.854  0.00  0.00     0.147 C 
BRANCH  80  81
ATOM     81  CG  ASP d   8    1153.467 334.250-1146.398  0.00  0.00     0.175 C 
ATOM     82  OD1 ASP d   8    1153.531 334.447-1147.629  0.00  0.00    -0.648 OA
ATOM     83  OD2 ASP d   8    1153.276 335.178-1145.584  0.00  0.00    -0.648 OA
ENDBRANCH  80  81
ENDBRANCH  10  80
ENDBRANCH   7  10
ENDBRANCH   5   6
BRANCH   5  84
ATOM     84  CB  GLU d   9    1158.727 333.074-1143.984  0.00  0.00     0.045 C 
BRANCH  84  85
ATOM     85  CG  GLU d   9    1160.110 333.767-1143.757  0.00  0.00     0.116 C 
BRANCH  85  86
ATOM     86  CD  GLU d   9    1160.812 333.556-1142.428  0.00  0.00     0.172 C 
ATOM     87  OE1 GLU d   9    1160.291 332.867-1141.530  0.00  0.00    -0.648 OA
ATOM     88  OE2 GLU d   9    1161.932 334.094-1142.298  0.00  0.00    -0.648 OA
ENDBRANCH  85  86
ENDBRANCH  84  85
ENDBRANCH   5  84
ENDBRANCH   1   5
BRANCH   3  89
ATOM     89  CA  HIS d  10    1159.995 330.959-1147.671  0.00  0.00     0.182 C 
BRANCH  89  90
ATOM     90  C   HIS d  10    1159.627 331.521-1149.024  0.00  0.00     0.241 C 
ATOM     91  O   HIS d  10    1160.480 331.983-1149.797  0.00  0.00    -0.271 OA
ATOM     92  N   VAL d  11    1158.390 331.519-1149.386  0.00  0.00    -0.346 N 
ATOM     93  H   VAL d  11    1157.677 331.148-1148.775  0.00  0.00     0.163 HD
BRANCH  92  94
ATOM     94  CA  VAL d  11    1158.034 332.062-1150.694  0.00  0.00     0.180 C 
BRANCH  94  95
ATOM     95  C   VAL d  11    1158.499 333.492-1150.830  0.00  0.00     0.241 C 
ATOM     96  O   VAL d  11    1159.100 333.895-1151.834  0.00  0.00    -0.271 OA
ATOM     97  N   GLN d  12    1158.262 334.320-1149.870  0.00  0.00    -0.346 N 
ATOM     98  H   GLN d  12    1157.774 334.016-1149.040  0.00  0.00     0.163 HD
BRANCH  97  99
ATOM     99  CA  GLN d  12    1158.711 335.703-1150.000  0.00  0.00     0.177 C 
BRANCH  99 100
ATOM    100  C   GLN d  12    1160.201 335.770-1150.239  0.00  0.00     0.241 C 
ATOM    101  O   GLN d  12    1160.688 336.476-1151.119  0.00  0.00    -0.271 OA
ATOM    102  N   ARG d  13    1160.986 335.064-1149.496  0.00  0.00    -0.346 N 
ATOM    103  H   ARG d  13    1160.610 334.476-1148.767  0.00  0.00     0.163 HD
BRANCH 102 104
ATOM    104  CA  ARG d  13    1162.426 335.129-1149.728  0.00  0.00     0.176 C 
BRANCH 104 105
ATOM    105  C   ARG d  13    1162.761 334.755-1151.152  0.00  0.00     0.241 C 
ATOM    106  O   ARG d  13    1163.530 335.425-1151.838  0.00  0.00    -0.271 OA
ATOM    107  N   VAL d  14    1162.225 333.699-1151.664  0.00  0.00    -0.346 N 
ATOM    108  H   VAL d  14    1161.590 333.132-1151.121  0.00  0.00     0.163 HD
BRANCH 107 109
ATOM    109  CA  VAL d  14    1162.549 333.337-1153.041  0.00  0.00     0.180 C 
BRANCH 109 110
ATOM    110  C   VAL d  14    1162.219 334.465-1153.989  0.00  0.00     0.241 C 
ATOM    111  O   VAL d  14    1163.012 334.844-1154.859  0.00  0.00    -0.271 OA
ATOM    112  N   MET d  15    1161.074 335.051-1153.888  0.00  0.00    -0.346 N 
ATOM    113  H   MET d  15    1160.410 334.760-1153.186  0.00  0.00     0.163 HD
BRANCH 112 114
ATOM    114  CA  MET d  15    1160.754 336.142-1154.804  0.00  0.00     0.177 C 
BRANCH 114 115
ATOM    115  C   MET d  15    1161.784 337.242-1154.719  0.00  0.00     0.241 C 
ATOM    116  O   MET d  15    1162.286 337.750-1155.733  0.00  0.00    -0.271 OA
ATOM    117  N   ARG d  16    1162.153 337.665-1153.558  0.00  0.00    -0.347 N 
ATOM    118  H   ARG d  16    1161.759 337.267-1152.718  0.00  0.00     0.163 HD
BRANCH 117 119
ATOM    119  CA  ARG d  16    1163.150 338.729-1153.477  0.00  0.00     0.162 C 
BRANCH 119 120
ATOM    120  C   ARG d  16    1164.420 338.335-1154.193  0.00  0.00     0.219 C 
ATOM    121  O   ARG d  16    1164.534 337.257-1154.772  0.00  0.00    -0.287 OA
ENDBRANCH 119 120
BRANCH 119 122
ATOM    122  CB  ARG d  16    1163.420 339.051-1151.979  0.00  0.00     0.035 C 
BRANCH 122 123
ATOM    123  CG  ARG d  16    1164.245 340.340-1151.710  0.00  0.00     0.023 C 
BRANCH 123 124
ATOM    124  CD  ARG d  16    1164.495 340.563-1150.209  0.00  0.00     0.138 C 
BRANCH 124 125
ATOM    125  NE  ARG d  16    1165.272 341.822-1150.011  0.00  0.00    -0.227 N 
ATOM    126  CZ  ARG d  16    1165.663 342.307-1148.837  0.00  0.00     0.665 C 
ATOM    127  NH1 ARG d  16    1165.416 341.725-1147.697  0.00  0.00    -0.235 N 
ATOM    128  NH2 ARG d  16    1166.328 343.419-1148.821  0.00  0.00    -0.235 N 
ATOM    129 11HH ARG d  16    1164.890 340.852-1147.779  0.00  0.00     0.174 HD
ATOM    130 12HH ARG d  16    1165.751 342.163-1146.837  0.00  0.00     0.174 HD
ATOM    131 21HH ARG d  16    1166.513 343.861-1149.724  0.00  0.00     0.174 HD
ATOM    132 22HH ARG d  16    1166.618 343.777-1147.909  0.00  0.00     0.174 HD
ATOM    133  HE  ARG d  16    1165.550 342.401-1150.810  0.00  0.00     0.177 HD
ENDBRANCH 124 125
ENDBRANCH 123 124
ENDBRANCH 122 123
ENDBRANCH 119 122
ENDBRANCH 117 119
ENDBRANCH 114 115
BRANCH 114 134
ATOM    134  CB  MET d  15    1159.333 336.688-1154.496  0.00  0.00     0.045 C 
BRANCH 134 135
ATOM    135  CG  MET d  15    1158.170 335.690-1154.685  0.00  0.00     0.076 C 
BRANCH 135 136
ATOM    136  SD  MET d  15    1156.597 336.556-1154.572  0.00  0.00    -0.173 SA
ATOM    137  CE  MET d  15    1155.515 335.127-1154.432  0.00  0.00     0.089 C 
ENDBRANCH 135 136
ENDBRANCH 134 135
ENDBRANCH 114 134
ENDBRANCH 112 114
ENDBRANCH 109 110
BRANCH 109 138
ATOM    138  CB  VAL d  14    1161.777 332.019-1153.445  0.00  0.00     0.009 C 
ATOM    139  CG1 VAL d  14    1161.865 331.598-1154.937  0.00  0.00     0.012 C 
ATOM    140  CG2 VAL d  14    1162.209 330.769-1152.642  0.00  0.00     0.012 C 
ENDBRANCH 109 138
ENDBRANCH 107 109
ENDBRANCH 104 105
BRANCH 104 141
ATOM    141  CB  ARG d  13    1163.139 334.192-1148.712  0.00  0.00     0.036 C 
BRANCH 141 142
ATOM    142  CG  ARG d  13    1164.684 334.346-1148.632  0.00  0.00     0.023 C 
BRANCH 142 143
ATOM    143  CD  ARG d  13    1165.312 333.360-1147.632  0.00  0.00     0.138 C 
BRANCH 143 144
ATOM    144  NE  ARG d  13    1166.789 333.567-1147.583  0.00  0.00    -0.227 N 
ATOM    145  CZ  ARG d  13    1167.637 332.877-1146.826  0.00  0.00     0.665 C 
ATOM    146  NH1 ARG d  13    1167.272 331.914-1146.027  0.00  0.00    -0.235 N 
ATOM    147  NH2 ARG d  13    1168.896 333.176-1146.884  0.00  0.00    -0.235 N 
ATOM    148 11HH ARG d  13    1166.267 331.728-1146.029  0.00  0.00     0.174 HD
ATOM    149 12HH ARG d  13    1167.985 331.432-1145.477  0.00  0.00     0.174 HD
ATOM    150 21HH ARG d  13    1169.164 333.932-1147.517  0.00  0.00     0.174 HD
ATOM    151 22HH ARG d  13    1169.532 332.635-1146.295  0.00  0.00     0.174 HD
ATOM    152  HE  ARG d  13    1167.240 334.288-1148.155  0.00  0.00     0.177 HD
ENDBRANCH 143 144
ENDBRANCH 142 143
ENDBRANCH 141 142
ENDBRANCH 104 141
ENDBRANCH 102 104
ENDBRANCH  99 100
BRANCH  99 153
ATOM    153  CB  GLN d  12    1158.321 336.474-1148.719  0.00  0.00     0.044 C 
BRANCH 153 154
ATOM    154  CG  GLN d  12    1158.681 337.995-1148.692  0.00  0.00     0.105 C 
BRANCH 154 155
ATOM    155  CD  GLN d  12    1158.379 338.812-1147.428  0.00  0.00     0.215 C 
ATOM    156  NE2 GLN d  12    1157.812 338.238-1146.398  0.00  0.00    -0.370 N 
ATOM    157 21HE GLN d  12    1157.706 338.834-1145.576  0.00  0.00     0.159 HD
ATOM    158 22HE GLN d  12    1157.649 337.234-1146.499  0.00  0.00     0.159 HD
ATOM    159  OE1 GLN d  12    1158.681 339.993-1147.354  0.00  0.00    -0.274 OA
ENDBRANCH 154 155
ENDBRANCH 153 154
ENDBRANCH  99 153
ENDBRANCH  97  99
ENDBRANCH  94  95
BRANCH  94 160
ATOM    160  CB  VAL d  11    1156.473 331.956-1150.913  0.00  0.00     0.009 C 
ATOM    161  CG1 VAL d  11    1155.904 332.657-1152.177  0.00  0.00     0.012 C 
ATOM    162  CG2 VAL d  11    1155.948 330.501-1150.983  0.00  0.00     0.012 C 
ENDBRANCH  94 160
ENDBRANCH  92  94
ENDBRANCH  89  90
BRANCH  89 163
ATOM    163  CB  HIS d  10    1159.830 329.430-1147.663  0.00  0.00     0.095 C 
BRANCH 163 164
ATOM    164  CG  HIS d  10    1161.116 328.721-1147.353  0.00  0.00     0.053 A 
ATOM    165  CD2 HIS d  10    1161.497 328.388-1146.060  0.00  0.00     0.116 A 
ATOM    166  NE2 HIS d  10    1162.712 327.756-1146.125  0.00  0.00    -0.359 N 
ATOM    167  CE1 HIS d  10    1162.974 327.756-1147.461  0.00  0.00     0.207 A 
ATOM    168  2HE HIS d  10    1163.278 327.381-1145.352  0.00  0.00     0.166 HD
ATOM    169  ND1 HIS d  10    1162.067 328.312-1148.285  0.00  0.00    -0.247 NA
ENDBRANCH 163 164
ENDBRANCH  89 163
ENDBRANCH   3  89
TORSDOF 69
