REMARK WARNING: 32 MAX_TORS EXCEEDED!!!
REMARK  69 active torsions:
REMARK  status: ('A' for Active; 'I' for Inactive)
REMARK    1  A    between atoms: N_1  and  CA_2 
REMARK    2  A    between atoms: CA_2  and  C_3 
REMARK    3  A    between atoms: CA_2  and  CB_5 
REMARK       I    between atoms: C_3  and  N_11 
REMARK    4  A    between atoms: CB_5  and  CG_6 
REMARK    5  A    between atoms: CG_6  and  CD_7 
REMARK    6  A    between atoms: N_11  and  CA_12 
REMARK    7  A    between atoms: CA_12  and  C_13 
REMARK    8  A    between atoms: CA_12  and  CB_15 
REMARK       I    between atoms: C_13  and  N_22 
REMARK    9  A    between atoms: CB_15  and  CG_16 
REMARK       I    between atoms: CG_16  and  ND2_17 
REMARK   10  A    between atoms: CA_23  and  C_24 
REMARK       I    between atoms: C_24  and  N_29 
REMARK   11  A    between atoms: N_29  and  CA_30 
REMARK   12  A    between atoms: CA_30  and  C_31 
REMARK   13  A    between atoms: CA_30  and  CB_33 
REMARK       I    between atoms: C_31  and  N_39 
REMARK   14  A    between atoms: CB_33  and  CG_34 
REMARK   15  A    between atoms: CG_34  and  CD_35 
REMARK   16  A    between atoms: N_39  and  CA_40 
REMARK   17  A    between atoms: CA_40  and  C_41 
REMARK   18  A    between atoms: CA_40  and  CB_43 
REMARK       I    between atoms: C_41  and  N_48 
REMARK   19  A    between atoms: CB_43  and  CG_44 
REMARK   20  A    between atoms: CG_44  and  SD_45 
REMARK   21  A    between atoms: N_48  and  CA_49 
REMARK   22  A    between atoms: CA_49  and  C_50 
REMARK   23  A    between atoms: CA_49  and  CB_52 
REMARK       I    between atoms: C_50  and  N_57 
REMARK   24  A    between atoms: CB_52  and  CG1_53 
REMARK   25  A    between atoms: N_57  and  CA_58 
REMARK   26  A    between atoms: CA_58  and  C_59 
REMARK   27  A    between atoms: CA_58  and  CB_61 
REMARK       I    between atoms: C_59  and  N_66 
REMARK   28  A    between atoms: CB_61  and  CG_62 
REMARK   29  A    between atoms: N_66  and  CA_67 
REMARK   30  A    between atoms: CA_67  and  C_68 
REMARK   31  A    between atoms: CA_67  and  CB_70 
REMARK       I    between atoms: C_68  and  N_75 
REMARK   32  A    between atoms: CB_70  and  CG_71 
REMARK   33  A    between atoms: N_75  and  CA_76 
REMARK   34  A    between atoms: CA_76  and  C_77 
REMARK   35  A    between atoms: CA_76  and  CB_79 
REMARK       I    between atoms: C_77  and  N_85 
REMARK   36  A    between atoms: CB_79  and  CG_80 
REMARK   37  A    between atoms: CG_80  and  CD_81 
REMARK   38  A    between atoms: N_85  and  CA_86 
REMARK   39  A    between atoms: CA_86  and  C_87 
REMARK   40  A    between atoms: CA_86  and  CB_89 
REMARK       I    between atoms: C_87  and  N_97 
REMARK   41  A    between atoms: CB_89  and  CG_90 
REMARK   42  A    between atoms: N_97  and  CA_98 
REMARK   43  A    between atoms: CA_98  and  C_99 
REMARK   44  A    between atoms: CA_98  and  CB_101 
REMARK       I    between atoms: C_99  and  N_105 
REMARK   45  A    between atoms: N_105  and  CA_106 
REMARK   46  A    between atoms: CA_106  and  C_107 
REMARK   47  A    between atoms: CA_106  and  CB_109 
REMARK       I    between atoms: C_107  and  N_117 
REMARK   48  A    between atoms: CB_109  and  CG_110 
REMARK   49  A    between atoms: CG_110  and  CD_111 
REMARK       I    between atoms: CD_111  and  NE2_112 
REMARK   50  A    between atoms: N_117  and  CA_118 
REMARK   51  A    between atoms: CA_118  and  C_119 
REMARK   52  A    between atoms: CA_118  and  CB_121 
REMARK       I    between atoms: C_119  and  N_134 
REMARK   53  A    between atoms: CB_121  and  CG_122 
REMARK   54  A    between atoms: CG_122  and  CD_123 
REMARK   55  A    between atoms: CD_123  and  NE_124 
REMARK       I    between atoms: NE_124  and  CZ_125 
REMARK       I    between atoms: CZ_125  and  NH1_126 
REMARK       I    between atoms: CZ_125  and  NH2_127 
REMARK   56  A    between atoms: N_134  and  CA_135 
REMARK   57  A    between atoms: CA_135  and  C_136 
REMARK   58  A    between atoms: CA_135  and  CB_138 
REMARK       I    between atoms: C_136  and  N_142 
REMARK   59  A    between atoms: N_142  and  CA_143 
REMARK   60  A    between atoms: CA_143  and  C_144 
REMARK   61  A    between atoms: CA_143  and  CB_146 
REMARK       I    between atoms: C_144  and  N_151 
REMARK   62  A    between atoms: CB_146  and  CG_147 
REMARK   63  A    between atoms: CG_147  and  SD_148 
REMARK   64  A    between atoms: N_151  and  CA_152 
REMARK   65  A    between atoms: CA_152  and  C_153 
REMARK   66  A    between atoms: CA_152  and  CB_155 
REMARK   67  A    between atoms: CB_155  and  CG_156 
REMARK   68  A    between atoms: CG_156  and  CD_157 
REMARK   69  A    between atoms: CD_157  and  NE_158 
REMARK       I    between atoms: NE_158  and  CZ_159 
REMARK       I    between atoms: CZ_159  and  NH1_160 
ROOT
ATOM      1  C   GLU d   9     740.488 193.985-693.471  0.00  0.00     0.241 C 
ATOM      2  O   GLU d   9     741.152 194.741-694.195  0.00  0.00    -0.271 OA
ATOM      3  N   HIS d  10     740.587 192.710-693.642  0.00  0.00    -0.346 N 
ATOM      4  H   HIS d  10     740.057 192.073-693.065  0.00  0.00     0.163 HD
ENDROOT
BRANCH   1   5
ATOM      5  CA  GLU d   9     739.568 194.509-692.395  0.00  0.00     0.177 C 
BRANCH   5   6
ATOM      6  N   GLU d   9     738.267 193.850-692.453  0.00  0.00    -0.346 N 
ATOM      7  C   ASP d   8     737.588 193.900-693.549  0.00  0.00     0.241 C 
ATOM      8  O   ASP d   8     738.061 194.507-694.522  0.00  0.00    -0.271 OA
ATOM      9  H   GLU d   9     737.903 193.362-691.647  0.00  0.00     0.163 HD
BRANCH   7  10
ATOM     10  CA  ASP d   8     736.243 193.218-693.608  0.00  0.00     0.186 C 
BRANCH  10  11
ATOM     11  N   ASP d   8     736.315 191.868-693.056  0.00  0.00    -0.346 N 
ATOM     12  C   LEU d   7     737.154 191.029-693.563  0.00  0.00     0.241 C 
ATOM     13  O   LEU d   7     737.875 191.394-694.504  0.00  0.00    -0.271 OA
ATOM     14  H   ASP d   8     735.717 191.594-692.290  0.00  0.00     0.163 HD
BRANCH  12  15
ATOM     15  CA  LEU d   7     737.228 189.633-692.992  0.00  0.00     0.177 C 
BRANCH  15  16
ATOM     16  N   LEU d   7     737.282 189.667-691.534  0.00  0.00    -0.346 N 
ATOM     17  C   ILE d   6     738.226 190.332-690.958  0.00  0.00     0.241 C 
ATOM     18  O   ILE d   6     739.060 190.922-691.660  0.00  0.00    -0.271 OA
ATOM     19  H   LEU d   7     736.590 189.178-690.984  0.00  0.00     0.163 HD
BRANCH  17  20
ATOM     20  CA  ILE d   6     738.281 190.367-689.450  0.00  0.00     0.180 C 
BRANCH  20  21
ATOM     21  N   ILE d   6     736.967 190.659-688.885  0.00  0.00    -0.346 N 
ATOM     22  C   MET d   5     736.361 191.742-689.238  0.00  0.00     0.241 C 
ATOM     23  O   MET d   5     736.912 192.503-690.048  0.00  0.00    -0.271 OA
ATOM     24  H   ILE d   6     736.539 190.023-688.227  0.00  0.00     0.163 HD
BRANCH  22  25
ATOM     25  CA  MET d   5     735.002 192.044-688.654  0.00  0.00     0.177 C 
BRANCH  25  26
ATOM     26  N   MET d   5     734.133 190.873-688.714  0.00  0.00    -0.346 N 
ATOM     27  C   GLU d   4     733.906 190.320-689.857  0.00  0.00     0.241 C 
ATOM     28  O   GLU d   4     734.432 190.799-690.872  0.00  0.00    -0.271 OA
ATOM     29  H   MET d   5     733.716 190.501-687.873  0.00  0.00     0.163 HD
BRANCH  27  30
ATOM     30  CA  GLU d   4     733.007 189.109-689.919  0.00  0.00     0.177 C 
BRANCH  30  31
ATOM     31  N   GLU d   4     733.367 188.138-688.889  0.00  0.00    -0.346 N 
ATOM     32  C   PRO d   3     734.571 187.678-688.857  0.00  0.00     0.241 C 
ATOM     33  O   PRO d   3     735.395 188.061-689.688  0.00  0.00    -0.271 OA
ATOM     34  H   GLU d   4     732.682 187.831-688.212  0.00  0.00     0.163 HD
BRANCH  32  35
ATOM     35  CA  PRO d   3     734.970 186.654-687.780  0.00  0.00     0.179 C 
ATOM     36  N   PRO d   3     734.518 187.064-686.458  0.00  0.00    -0.337 N 
ATOM     37  C   ASN d   2     735.039 188.059-685.824  0.00  0.00     0.243 C 
ATOM     38  CD  PRO d   3     733.440 186.270-685.909  0.00  0.00     0.127 C 
ATOM     39  O   ASN d   2     735.954 188.689-686.353  0.00  0.00    -0.271 OA
ATOM     40  CG  PRO d   3     732.982 185.452-687.119  0.00  0.00     0.022 C 
ATOM     41  CB  PRO d   3     734.266 185.300-687.949  0.00  0.00     0.037 C 
BRANCH  37  42
ATOM     42  CA  ASN d   2     734.508 188.414-684.455  0.00  0.00     0.185 C 
BRANCH  42  43
ATOM     43  N   ASN d   2     733.049 188.453-684.455  0.00  0.00    -0.346 N 
ATOM     44  C   GLU d   1     732.444 189.239-685.280  0.00  0.00     0.242 C 
ATOM     45  O   GLU d   1     733.120 189.938-686.049  0.00  0.00    -0.271 OA
ATOM     46  H   ASN d   2     732.520 187.873-683.819  0.00  0.00     0.163 HD
BRANCH  44  47
ATOM     47  CA  GLU d   1     730.935 189.279-685.280  0.00  0.00     0.191 C 
BRANCH  47  48
ATOM     48  N   GLU d   1     730.376 187.930-685.280  0.00  0.00    -0.326 NA
ATOM     49  H   GLU d   1     731.003 187.051-685.280  0.00  0.00     0.180 HD
ENDBRANCH  47  48
BRANCH  47  50
ATOM     50  CB  GLU d   1     730.412 190.064-684.043  0.00  0.00     0.047 C 
BRANCH  50  51
ATOM     51  CG  GLU d   1     730.887 191.549-683.932  0.00  0.00     0.116 C 
BRANCH  51  52
ATOM     52  CD  GLU d   1     730.463 192.353-682.717  0.00  0.00     0.172 C 
ATOM     53  OE1 GLU d   1     729.735 191.851-681.839  0.00  0.00    -0.648 OA
ATOM     54  OE2 GLU d   1     730.893 193.523-682.645  0.00  0.00    -0.648 OA
ENDBRANCH  51  52
ENDBRANCH  50  51
ENDBRANCH  47  50
ENDBRANCH  44  47
ENDBRANCH  42  43
BRANCH  42  55
ATOM     55  CB  ASN d   2     735.000 187.391-683.391  0.00  0.00     0.137 C 
BRANCH  55  56
ATOM     56  CG  ASN d   2     734.537 187.615-681.948  0.00  0.00     0.217 C 
ATOM     57  ND2 ASN d   2     735.131 188.530-681.229  0.00  0.00    -0.370 N 
ATOM     58 21HD ASN d   2     734.650 188.703-680.343  0.00  0.00     0.159 HD
ATOM     59 22HD ASN d   2     735.833 189.102-681.699  0.00  0.00     0.159 HD
ATOM     60  OD1 ASN d   2     733.616 186.981-681.453  0.00  0.00    -0.274 OA
ENDBRANCH  55  56
ENDBRANCH  42  55
ENDBRANCH  37  42
ENDBRANCH  32  35
ENDBRANCH  30  31
BRANCH  30  61
ATOM     61  CB  GLU d   4     731.518 189.527-689.748  0.00  0.00     0.045 C 
BRANCH  61  62
ATOM     62  CG  GLU d   4     730.970 190.530-690.814  0.00  0.00     0.116 C 
BRANCH  62  63
ATOM     63  CD  GLU d   4     729.543 191.027-690.671  0.00  0.00     0.172 C 
ATOM     64  OE1 GLU d   4     728.817 190.628-689.740  0.00  0.00    -0.648 OA
ATOM     65  OE2 GLU d   4     729.154 191.856-691.519  0.00  0.00    -0.648 OA
ENDBRANCH  62  63
ENDBRANCH  61  62
ENDBRANCH  30  61
ENDBRANCH  27  30
ENDBRANCH  25  26
BRANCH  25  66
ATOM     66  CB  MET d   5     735.126 192.533-687.185  0.00  0.00     0.045 C 
BRANCH  66  67
ATOM     67  CG  MET d   5     733.817 193.007-686.519  0.00  0.00     0.076 C 
BRANCH  67  68
ATOM     68  SD  MET d   5     734.185 193.803-684.946  0.00  0.00    -0.173 SA
ATOM     69  CE  MET d   5     732.515 193.863-684.282  0.00  0.00     0.089 C 
ENDBRANCH  67  68
ENDBRANCH  66  67
ENDBRANCH  25  66
ENDBRANCH  22  25
ENDBRANCH  20  21
BRANCH  20  70
ATOM     70  CB  ILE d   6     738.883 189.031-688.851  0.00  0.00     0.013 C 
ATOM     71  CG2 ILE d   6     740.325 188.733-689.366  0.00  0.00     0.012 C 
BRANCH  70  72
ATOM     72  CG1 ILE d   6     738.901 188.967-687.290  0.00  0.00     0.002 C 
ATOM     73  CD1 ILE d   6     739.172 187.578-686.677  0.00  0.00     0.005 C 
ENDBRANCH  70  72
ENDBRANCH  20  70
ENDBRANCH  17  20
ENDBRANCH  15  16
BRANCH  15  74
ATOM     74  CB  LEU d   7     736.027 188.771-693.475  0.00  0.00     0.038 C 
BRANCH  74  75
ATOM     75  CG  LEU d   7     735.956 187.291-693.010  0.00  0.00    -0.020 C 
ATOM     76  CD1 LEU d   7     734.768 186.584-693.678  0.00  0.00     0.009 C 
ATOM     77  CD2 LEU d   7     737.251 186.515-693.302  0.00  0.00     0.009 C 
ENDBRANCH  74  75
ENDBRANCH  15  74
ENDBRANCH  12  15
ENDBRANCH  10  11
BRANCH  10  78
ATOM     78  CB  ASP d   8     735.162 194.054-692.866  0.00  0.00     0.147 C 
BRANCH  78  79
ATOM     79  CG  ASP d   8     734.942 195.475-693.405  0.00  0.00     0.175 C 
ATOM     80  OD1 ASP d   8     735.006 195.676-694.635  0.00  0.00    -0.648 OA
ATOM     81  OD2 ASP d   8     734.747 196.399-692.589  0.00  0.00    -0.648 OA
ENDBRANCH  78  79
ENDBRANCH  10  78
ENDBRANCH   7  10
ENDBRANCH   5   6
BRANCH   5  82
ATOM     82  CB  GLU d   9     740.201 194.301-690.989  0.00  0.00     0.045 C 
BRANCH  82  83
ATOM     83  CG  GLU d   9     741.582 194.995-690.758  0.00  0.00     0.116 C 
BRANCH  83  84
ATOM     84  CD  GLU d   9     742.283 194.781-689.429  0.00  0.00     0.172 C 
ATOM     85  OE1 GLU d   9     741.762 194.088-688.534  0.00  0.00    -0.648 OA
ATOM     86  OE2 GLU d   9     743.401 195.321-689.295  0.00  0.00    -0.648 OA
ENDBRANCH  83  84
ENDBRANCH  82  83
ENDBRANCH   5  82
ENDBRANCH   1   5
BRANCH   3  87
ATOM     87  CA  HIS d  10     741.477 192.201-694.682  0.00  0.00     0.182 C 
BRANCH  87  88
ATOM     88  C   HIS d  10     741.110 192.767-696.033  0.00  0.00     0.241 C 
ATOM     89  O   HIS d  10     741.963 193.234-696.803  0.00  0.00    -0.271 OA
ATOM     90  N   VAL d  11     739.873 192.764-696.397  0.00  0.00    -0.346 N 
ATOM     91  H   VAL d  11     739.160 192.390-695.788  0.00  0.00     0.163 HD
BRANCH  90  92
ATOM     92  CA  VAL d  11     739.518 193.312-697.703  0.00  0.00     0.180 C 
BRANCH  92  93
ATOM     93  C   VAL d  11     739.980 194.743-697.833  0.00  0.00     0.241 C 
ATOM     94  O   VAL d  11     740.582 195.151-698.835  0.00  0.00    -0.271 OA
ATOM     95  N   GLN d  12     739.741 195.567-696.870  0.00  0.00    -0.346 N 
ATOM     96  H   GLN d  12     739.252 195.259-696.042  0.00  0.00     0.163 HD
BRANCH  95  97
ATOM     97  CA  GLN d  12     740.187 196.951-696.995  0.00  0.00     0.177 C 
BRANCH  97  98
ATOM     98  C   GLN d  12     741.677 197.021-697.231  0.00  0.00     0.241 C 
ATOM     99  O   GLN d  12     742.164 197.732-698.108  0.00  0.00    -0.271 OA
ATOM    100  N   ARG d  13     742.462 196.315-696.491  0.00  0.00    -0.346 N 
ATOM    101  H   ARG d  13     742.086 195.723-695.763  0.00  0.00     0.163 HD
BRANCH 100 102
ATOM    102  CA  ARG d  13     743.903 196.384-696.720  0.00  0.00     0.176 C 
BRANCH 102 103
ATOM    103  C   ARG d  13     744.241 196.015-698.145  0.00  0.00     0.241 C 
ATOM    104  O   ARG d  13     745.009 196.689-698.828  0.00  0.00    -0.271 OA
ATOM    105  N   VAL d  14     743.707 194.960-698.661  0.00  0.00    -0.346 N 
ATOM    106  H   VAL d  14     743.073 194.390-698.121  0.00  0.00     0.163 HD
BRANCH 105 107
ATOM    107  CA  VAL d  14     744.034 194.603-700.039  0.00  0.00     0.180 C 
BRANCH 107 108
ATOM    108  C   VAL d  14     743.702 195.734-700.984  0.00  0.00     0.241 C 
ATOM    109  O   VAL d  14     744.496 196.118-701.852  0.00  0.00    -0.271 OA
ATOM    110  N   MET d  15     742.557 196.318-700.882  0.00  0.00    -0.346 N 
ATOM    111  H   MET d  15     741.892 196.023-700.181  0.00  0.00     0.163 HD
BRANCH 110 112
ATOM    112  CA  MET d  15     742.235 197.411-701.794  0.00  0.00     0.177 C 
BRANCH 112 113
ATOM    113  C   MET d  15     743.263 198.513-701.704  0.00  0.00     0.241 C 
ATOM    114  O   MET d  15     743.766 199.026-702.716  0.00  0.00    -0.271 OA
ATOM    115  N   ARG d  16     743.630 198.933-700.541  0.00  0.00    -0.347 N 
ATOM    116  H   ARG d  16     743.235 198.531-699.703  0.00  0.00     0.163 HD
BRANCH 115 117
ATOM    117  CA  ARG d  16     744.625 199.998-700.455  0.00  0.00     0.162 C 
BRANCH 117 118
ATOM    118  C   ARG d  16     745.897 199.609-701.171  0.00  0.00     0.219 C 
ATOM    119  O   ARG d  16     746.013 198.533-701.753  0.00  0.00    -0.287 OA
ENDBRANCH 117 118
BRANCH 117 120
ATOM    120  CB  ARG d  16     744.892 200.315-698.956  0.00  0.00     0.035 C 
BRANCH 120 121
ATOM    121  CG  ARG d  16     745.715 201.605-698.681  0.00  0.00     0.023 C 
BRANCH 121 122
ATOM    122  CD  ARG d  16     745.963 201.823-697.179  0.00  0.00     0.138 C 
BRANCH 122 123
ATOM    123  NE  ARG d  16     746.737 203.083-696.976  0.00  0.00    -0.227 N 
ATOM    124  CZ  ARG d  16     747.126 203.564-695.799  0.00  0.00     0.665 C 
ATOM    125  NH1 ARG d  16     746.878 202.978-694.662  0.00  0.00    -0.235 N 
ATOM    126  NH2 ARG d  16     747.788 204.678-695.779  0.00  0.00    -0.235 N 
ATOM    127 11HH ARG d  16     746.354 202.104-694.748  0.00  0.00     0.174 HD
ATOM    128 12HH ARG d  16     747.211 203.413-693.800  0.00  0.00     0.174 HD
ATOM    129 21HH ARG d  16     747.974 205.122-696.680  0.00  0.00     0.174 HD
ATOM    130 22HH ARG d  16     748.077 205.032-694.866  0.00  0.00     0.174 HD
ATOM    131  HE  ARG d  16     747.015 203.665-697.772  0.00  0.00     0.177 HD
ENDBRANCH 122 123
ENDBRANCH 121 122
ENDBRANCH 120 121
ENDBRANCH 117 120
ENDBRANCH 115 117
ENDBRANCH 112 113
BRANCH 112 132
ATOM    132  CB  MET d  15     740.812 197.954-701.486  0.00  0.00     0.045 C 
BRANCH 132 133
ATOM    133  CG  MET d  15     739.652 196.954-701.680  0.00  0.00     0.076 C 
BRANCH 133 134
ATOM    134  SD  MET d  15     738.077 197.817-701.566  0.00  0.00    -0.173 SA
ATOM    135  CE  MET d  15     736.998 196.386-701.432  0.00  0.00     0.089 C 
ENDBRANCH 133 134
ENDBRANCH 132 133
ENDBRANCH 112 132
ENDBRANCH 110 112
ENDBRANCH 107 108
BRANCH 107 136
ATOM    136  CB  VAL d  14     743.264 193.285-700.449  0.00  0.00     0.009 C 
ATOM    137  CG1 VAL d  14     743.355 192.870-701.943  0.00  0.00     0.012 C 
ATOM    138  CG2 VAL d  14     743.697 192.033-699.650  0.00  0.00     0.012 C 
ENDBRANCH 107 136
ENDBRANCH 105 107
ENDBRANCH 102 103
BRANCH 102 139
ATOM    139  CB  ARG d  13     744.617 195.445-695.707  0.00  0.00     0.036 C 
BRANCH 139 140
ATOM    140  CG  ARG d  13     746.161 195.600-695.624  0.00  0.00     0.023 C 
BRANCH 140 141
ATOM    141  CD  ARG d  13     746.789 194.613-694.627  0.00  0.00     0.138 C 
BRANCH 141 142
ATOM    142  NE  ARG d  13     748.266 194.823-694.575  0.00  0.00    -0.227 N 
ATOM    143  CZ  ARG d  13     749.115 194.131-693.820  0.00  0.00     0.665 C 
ATOM    144  NH1 ARG d  13     748.750 193.165-693.024  0.00  0.00    -0.235 N 
ATOM    145  NH2 ARG d  13     750.374 194.433-693.875  0.00  0.00    -0.235 N 
ATOM    146 11HH ARG d  13     747.745 192.977-693.028  0.00  0.00     0.174 HD
ATOM    147 12HH ARG d  13     749.464 192.683-692.475  0.00  0.00     0.174 HD
ATOM    148 21HH ARG d  13     750.640 195.192-694.505  0.00  0.00     0.174 HD
ATOM    149 22HH ARG d  13     751.009 193.892-693.287  0.00  0.00     0.174 HD
ATOM    150  HE  ARG d  13     748.716 195.546-695.144  0.00  0.00     0.177 HD
ENDBRANCH 141 142
ENDBRANCH 140 141
ENDBRANCH 139 140
ENDBRANCH 102 139
ENDBRANCH 100 102
ENDBRANCH  97  98
BRANCH  97 151
ATOM    151  CB  GLN d  12     739.794 197.716-695.711  0.00  0.00     0.044 C 
BRANCH 151 152
ATOM    152  CG  GLN d  12     740.151 199.238-695.678  0.00  0.00     0.105 C 
BRANCH 152 153
ATOM    153  CD  GLN d  12     739.846 200.049-694.412  0.00  0.00     0.215 C 
ATOM    154  NE2 GLN d  12     739.279 199.471-693.385  0.00  0.00    -0.370 N 
ATOM    155 21HE GLN d  12     739.170 200.064-692.560  0.00  0.00     0.159 HD
ATOM    156 22HE GLN d  12     739.117 198.467-693.490  0.00  0.00     0.159 HD
ATOM    157  OE1 GLN d  12     740.146 201.231-694.333  0.00  0.00    -0.274 OA
ENDBRANCH 152 153
ENDBRANCH 151 152
ENDBRANCH  97 151
ENDBRANCH  95  97
ENDBRANCH  92  93
BRANCH  92 158
ATOM    158  CB  VAL d  11     737.957 193.203-697.924  0.00  0.00     0.009 C 
ATOM    159  CG1 VAL d  11     737.389 193.907-699.187  0.00  0.00     0.012 C 
ATOM    160  CG2 VAL d  11     737.435 191.748-698.000  0.00  0.00     0.012 C 
ENDBRANCH  92 158
ENDBRANCH  90  92
ENDBRANCH  87  88
BRANCH  87 161
ATOM    161  CB  HIS d  10     741.315 190.672-694.679  0.00  0.00     0.095 C 
BRANCH 161 162
ATOM    162  CG  HIS d  10     742.602 189.964-694.371  0.00  0.00     0.053 A 
ATOM    163  CD2 HIS d  10     742.982 189.628-693.078  0.00  0.00     0.116 A 
ATOM    164  NE2 HIS d  10     744.198 188.998-693.144  0.00  0.00    -0.359 N 
ATOM    165  CE1 HIS d  10     744.462 189.003-694.479  0.00  0.00     0.207 A 
ATOM    166  2HE HIS d  10     744.765 188.621-692.371  0.00  0.00     0.166 HD
ATOM    167  ND1 HIS d  10     743.556 189.561-695.303  0.00  0.00    -0.247 NA
ENDBRANCH 161 162
ENDBRANCH  87 161
ENDBRANCH   3  87
TORSDOF 69
