REMARK WARNING: 32 MAX_TORS EXCEEDED!!!
REMARK  69 active torsions:
REMARK  status: ('A' for Active; 'I' for Inactive)
REMARK    1  A    between atoms: N_1  and  CA_2 
REMARK    2  A    between atoms: CA_2  and  C_3 
REMARK    3  A    between atoms: CA_2  and  CB_5 
REMARK       I    between atoms: C_3  and  N_11 
REMARK    4  A    between atoms: CB_5  and  CG_6 
REMARK    5  A    between atoms: CG_6  and  CD_7 
REMARK    6  A    between atoms: N_11  and  CA_12 
REMARK    7  A    between atoms: CA_12  and  C_13 
REMARK    8  A    between atoms: CA_12  and  CB_15 
REMARK       I    between atoms: C_13  and  N_25 
REMARK    9  A    between atoms: CB_15  and  CG_16 
REMARK   10  A    between atoms: CZ_21  and  OH_22 
REMARK   11  A    between atoms: CA_26  and  C_27 
REMARK       I    between atoms: C_27  and  N_32 
REMARK   12  A    between atoms: N_32  and  CA_33 
REMARK   13  A    between atoms: CA_33  and  C_34 
REMARK   14  A    between atoms: CA_33  and  CB_36 
REMARK       I    between atoms: C_34  and  N_42 
REMARK   15  A    between atoms: CB_36  and  CG_37 
REMARK   16  A    between atoms: CG_37  and  CD_38 
REMARK   17  A    between atoms: N_42  and  CA_43 
REMARK   18  A    between atoms: CA_43  and  C_44 
REMARK   19  A    between atoms: CA_43  and  CB_46 
REMARK       I    between atoms: C_44  and  N_50 
REMARK   20  A    between atoms: CB_46  and  OG_47 
REMARK   21  A    between atoms: N_50  and  CA_51 
REMARK   22  A    between atoms: CA_51  and  C_52 
REMARK   23  A    between atoms: CA_51  and  CB_54 
REMARK       I    between atoms: C_52  and  N_59 
REMARK   24  A    between atoms: CB_54  and  CG1_55 
REMARK   25  A    between atoms: N_59  and  CA_60 
REMARK   26  A    between atoms: CA_60  and  C_61 
REMARK   27  A    between atoms: CA_60  and  CB_63 
REMARK       I    between atoms: C_61  and  N_68 
REMARK   28  A    between atoms: CB_63  and  CG_64 
REMARK   29  A    between atoms: N_68  and  CA_69 
REMARK   30  A    between atoms: CA_69  and  C_70 
REMARK   31  A    between atoms: CA_69  and  CB_72 
REMARK       I    between atoms: C_70  and  N_77 
REMARK   32  A    between atoms: CB_72  and  CG_73 
REMARK   33  A    between atoms: N_77  and  CA_78 
REMARK   34  A    between atoms: CA_78  and  C_79 
REMARK   35  A    between atoms: CA_78  and  CB_81 
REMARK       I    between atoms: C_79  and  N_87 
REMARK   36  A    between atoms: CB_81  and  CG_82 
REMARK   37  A    between atoms: CG_82  and  CD_83 
REMARK   38  A    between atoms: N_87  and  CA_88 
REMARK   39  A    between atoms: CA_88  and  C_89 
REMARK   40  A    between atoms: CA_88  and  CB_91 
REMARK       I    between atoms: C_89  and  N_99 
REMARK   41  A    between atoms: CB_91  and  CG_92 
REMARK   42  A    between atoms: N_99  and  CA_100 
REMARK   43  A    between atoms: CA_100  and  C_101 
REMARK   44  A    between atoms: CA_100  and  CB_103 
REMARK       I    between atoms: C_101  and  N_107 
REMARK   45  A    between atoms: N_107  and  CA_108 
REMARK   46  A    between atoms: CA_108  and  C_109 
REMARK   47  A    between atoms: CA_108  and  CB_111 
REMARK       I    between atoms: C_109  and  N_119 
REMARK   48  A    between atoms: CB_111  and  CG_112 
REMARK   49  A    between atoms: CG_112  and  CD_113 
REMARK       I    between atoms: CD_113  and  NE2_114 
REMARK   50  A    between atoms: N_119  and  CA_120 
REMARK   51  A    between atoms: CA_120  and  C_121 
REMARK   52  A    between atoms: CA_120  and  CB_123 
REMARK       I    between atoms: C_121  and  N_136 
REMARK   53  A    between atoms: CB_123  and  CG_124 
REMARK   54  A    between atoms: CG_124  and  CD_125 
REMARK   55  A    between atoms: CD_125  and  NE_126 
REMARK       I    between atoms: NE_126  and  CZ_127 
REMARK       I    between atoms: CZ_127  and  NH1_128 
REMARK       I    between atoms: CZ_127  and  NH2_129 
REMARK   56  A    between atoms: N_136  and  CA_137 
REMARK   57  A    between atoms: CA_137  and  C_138 
REMARK   58  A    between atoms: CA_137  and  CB_140 
REMARK       I    between atoms: C_138  and  N_144 
REMARK   59  A    between atoms: N_144  and  CA_145 
REMARK   60  A    between atoms: CA_145  and  C_146 
REMARK   61  A    between atoms: CA_145  and  CB_148 
REMARK       I    between atoms: C_146  and  N_153 
REMARK   62  A    between atoms: CB_148  and  CG_149 
REMARK   63  A    between atoms: CG_149  and  SD_150 
REMARK   64  A    between atoms: N_153  and  CA_154 
REMARK   65  A    between atoms: CA_154  and  C_155 
REMARK   66  A    between atoms: CA_154  and  CB_157 
REMARK   67  A    between atoms: CB_157  and  CG_158 
REMARK   68  A    between atoms: CG_158  and  CD_159 
REMARK   69  A    between atoms: CD_159  and  NE_160 
REMARK       I    between atoms: NE_160  and  CZ_161 
REMARK       I    between atoms: CZ_161  and  NH1_162 
ROOT
ATOM      1  C   GLU d   9     249.969  50.814-222.185  0.00  0.00     0.241 C 
ATOM      2  O   GLU d   9     250.634  51.569-222.910  0.00  0.00    -0.271 OA
ATOM      3  N   HIS d  10     250.066  49.539-222.355  0.00  0.00    -0.346 N 
ATOM      4  H   HIS d  10     249.535  48.903-221.777  0.00  0.00     0.163 HD
ENDROOT
BRANCH   1   5
ATOM      5  CA  GLU d   9     249.051  51.341-221.110  0.00  0.00     0.177 C 
BRANCH   5   6
ATOM      6  N   GLU d   9     247.748  50.683-221.166  0.00  0.00    -0.346 N 
ATOM      7  C   ASP d   8     247.069  50.733-222.261  0.00  0.00     0.241 C 
ATOM      8  O   ASP d   8     247.542  51.339-223.236  0.00  0.00    -0.271 OA
ATOM      9  H   GLU d   9     247.384  50.197-220.359  0.00  0.00     0.163 HD
BRANCH   7  10
ATOM     10  CA  ASP d   8     245.723  50.053-222.319  0.00  0.00     0.186 C 
BRANCH  10  11
ATOM     11  N   ASP d   8     245.793  48.704-221.766  0.00  0.00    -0.346 N 
ATOM     12  C   LEU d   7     246.631  47.863-222.272  0.00  0.00     0.241 C 
ATOM     13  O   LEU d   7     247.352  48.226-223.214  0.00  0.00    -0.271 OA
ATOM     14  H   ASP d   8     245.195  48.432-220.999  0.00  0.00     0.163 HD
BRANCH  12  15
ATOM     15  CA  LEU d   7     246.703  46.468-221.700  0.00  0.00     0.177 C 
BRANCH  15  16
ATOM     16  N   LEU d   7     246.757  46.504-220.241  0.00  0.00    -0.346 N 
ATOM     17  C   ILE d   6     247.702  47.167-219.667  0.00  0.00     0.241 C 
ATOM     18  O   ILE d   6     248.537  47.755-220.370  0.00  0.00    -0.271 OA
ATOM     19  H   LEU d   7     246.065  46.017-219.690  0.00  0.00     0.163 HD
BRANCH  17  20
ATOM     20  CA  ILE d   6     247.759  47.205-218.159  0.00  0.00     0.180 C 
BRANCH  20  21
ATOM     21  N   ILE d   6     246.445  47.500-217.594  0.00  0.00    -0.346 N 
ATOM     22  C   SER d   5     245.840  48.583-217.948  0.00  0.00     0.243 C 
ATOM     23  O   SER d   5     246.388  49.336-218.753  0.00  0.00    -0.271 OA
ATOM     24  H   ILE d   6     246.017  46.865-216.935  0.00  0.00     0.163 HD
BRANCH  22  25
ATOM     25  CA  SER d   5     244.481  48.888-217.363  0.00  0.00     0.200 C 
BRANCH  25  26
ATOM     26  N   SER d   5     243.612  47.717-217.422  0.00  0.00    -0.344 N 
ATOM     27  C   GLU d   4     243.385  47.164-218.565  0.00  0.00     0.241 C 
ATOM     28  O   GLU d   4     243.912  47.644-219.580  0.00  0.00    -0.271 OA
ATOM     29  H   SER d   5     243.194  47.345-216.581  0.00  0.00     0.163 HD
BRANCH  27  30
ATOM     30  CA  GLU d   4     242.486  45.953-218.627  0.00  0.00     0.177 C 
BRANCH  30  31
ATOM     31  N   GLU d   4     242.846  44.982-217.597  0.00  0.00    -0.346 N 
ATOM     32  C   PRO d   3     244.050  44.522-217.564  0.00  0.00     0.241 C 
ATOM     33  O   PRO d   3     244.874  44.905-218.395  0.00  0.00    -0.271 OA
ATOM     34  H   GLU d   4     242.161  44.675-216.921  0.00  0.00     0.163 HD
BRANCH  32  35
ATOM     35  CA  PRO d   3     244.448  43.498-216.487  0.00  0.00     0.179 C 
ATOM     36  N   PRO d   3     243.995  43.908-215.166  0.00  0.00    -0.337 N 
ATOM     37  C   TYR d   2     244.517  44.903-214.532  0.00  0.00     0.243 C 
ATOM     38  CD  PRO d   3     242.917  43.114-214.617  0.00  0.00     0.127 C 
ATOM     39  O   TYR d   2     245.434  45.535-215.061  0.00  0.00    -0.271 OA
ATOM     40  CG  PRO d   3     242.460  42.296-215.827  0.00  0.00     0.022 C 
ATOM     41  CB  PRO d   3     243.744  42.144-216.657  0.00  0.00     0.037 C 
BRANCH  37  42
ATOM     42  CA  TYR d   2     243.985  45.258-213.164  0.00  0.00     0.181 C 
BRANCH  42  43
ATOM     43  N   TYR d   2     242.525  45.297-213.164  0.00  0.00    -0.346 N 
ATOM     44  C   GLU d   1     241.921  46.082-213.989  0.00  0.00     0.242 C 
ATOM     45  O   GLU d   1     242.597  46.782-214.758  0.00  0.00    -0.271 OA
ATOM     46  H   TYR d   2     241.997  44.717-212.528  0.00  0.00     0.163 HD
BRANCH  44  47
ATOM     47  CA  GLU d   1     240.412  46.122-213.989  0.00  0.00     0.191 C 
BRANCH  47  48
ATOM     48  N   GLU d   1     239.853  44.773-213.989  0.00  0.00    -0.326 NA
ATOM     49  H   GLU d   1     240.480  43.894-213.989  0.00  0.00     0.180 HD
ENDBRANCH  47  48
BRANCH  47  50
ATOM     50  CB  GLU d   1     239.889  46.907-212.752  0.00  0.00     0.047 C 
BRANCH  50  51
ATOM     51  CG  GLU d   1     240.364  48.392-212.641  0.00  0.00     0.116 C 
BRANCH  51  52
ATOM     52  CD  GLU d   1     239.940  49.196-211.426  0.00  0.00     0.172 C 
ATOM     53  OE1 GLU d   1     239.212  48.694-210.548  0.00  0.00    -0.648 OA
ATOM     54  OE2 GLU d   1     240.370  50.366-211.354  0.00  0.00    -0.648 OA
ENDBRANCH  51  52
ENDBRANCH  50  51
ENDBRANCH  47  50
ENDBRANCH  44  47
ENDBRANCH  42  43
BRANCH  42  55
ATOM     55  CB  TYR d   2     244.512  44.197-212.154  0.00  0.00     0.073 C 
BRANCH  55  56
ATOM     56  CG  TYR d   2     244.158  44.417-210.678  0.00  0.00    -0.056 A 
ATOM     57  CD1 TYR d   2     244.856  45.353-209.909  0.00  0.00     0.010 A 
ATOM     58  CE1 TYR d   2     244.515  45.553-208.574  0.00  0.00     0.037 A 
ATOM     59  CZ  TYR d   2     243.479  44.820-208.001  0.00  0.00     0.065 A 
ATOM     60  CE2 TYR d   2     242.781  43.884-208.762  0.00  0.00     0.037 A 
ATOM     61  CD2 TYR d   2     243.120  43.682-210.096  0.00  0.00     0.010 A 
BRANCH  59  62
ATOM     62  OH  TYR d   2     243.146  45.022-206.692  0.00  0.00    -0.361 OA
ATOM     63  HH  TYR d   2     242.417  44.439-206.471  0.00  0.00     0.217 HD
ENDBRANCH  59  62
ENDBRANCH  55  56
ENDBRANCH  42  55
ENDBRANCH  37  42
ENDBRANCH  32  35
ENDBRANCH  30  31
BRANCH  30  64
ATOM     64  CB  GLU d   4     240.998  46.371-218.457  0.00  0.00     0.045 C 
BRANCH  64  65
ATOM     65  CG  GLU d   4     240.450  47.375-219.523  0.00  0.00     0.116 C 
BRANCH  65  66
ATOM     66  CD  GLU d   4     239.023  47.871-219.381  0.00  0.00     0.172 C 
ATOM     67  OE1 GLU d   4     238.297  47.473-218.450  0.00  0.00    -0.648 OA
ATOM     68  OE2 GLU d   4     238.634  48.701-220.229  0.00  0.00    -0.648 OA
ENDBRANCH  65  66
ENDBRANCH  64  65
ENDBRANCH  30  64
ENDBRANCH  27  30
ENDBRANCH  25  26
BRANCH  25  69
ATOM     69  CB  SER d   5     244.592  49.420-215.913  0.00  0.00     0.199 C 
BRANCH  69  70
ATOM     70  OG  SER d   5     245.323  48.541-215.051  0.00  0.00    -0.398 OA
ATOM     71  HG  SER d   5     244.835  47.716-215.001  0.00  0.00     0.209 HD
ENDBRANCH  69  70
ENDBRANCH  25  69
ENDBRANCH  22  25
ENDBRANCH  20  21
BRANCH  20  72
ATOM     72  CB  ILE d   6     248.358  45.869-217.559  0.00  0.00     0.013 C 
ATOM     73  CG2 ILE d   6     249.800  45.567-218.073  0.00  0.00     0.012 C 
BRANCH  72  74
ATOM     74  CG1 ILE d   6     248.377  45.807-215.998  0.00  0.00     0.002 C 
ATOM     75  CD1 ILE d   6     248.647  44.418-215.383  0.00  0.00     0.005 C 
ENDBRANCH  72  74
ENDBRANCH  20  72
ENDBRANCH  17  20
ENDBRANCH  15  16
BRANCH  15  76
ATOM     76  CB  LEU d   7     245.500  45.607-222.181  0.00  0.00     0.038 C 
BRANCH  76  77
ATOM     77  CG  LEU d   7     245.427  44.128-221.714  0.00  0.00    -0.020 C 
ATOM     78  CD1 LEU d   7     244.238  43.422-222.381  0.00  0.00     0.009 C 
ATOM     79  CD2 LEU d   7     246.721  43.349-222.005  0.00  0.00     0.009 C 
ENDBRANCH  76  77
ENDBRANCH  15  76
ENDBRANCH  12  15
ENDBRANCH  10  11
BRANCH  10  80
ATOM     80  CB  ASP d   8     244.644  50.892-221.578  0.00  0.00     0.147 C 
BRANCH  80  81
ATOM     81  CG  ASP d   8     244.425  52.313-222.119  0.00  0.00     0.175 C 
ATOM     82  OD1 ASP d   8     244.490  52.512-223.349  0.00  0.00    -0.648 OA
ATOM     83  OD2 ASP d   8     244.232  53.238-221.303  0.00  0.00    -0.648 OA
ENDBRANCH  80  81
ENDBRANCH  10  80
ENDBRANCH   7  10
ENDBRANCH   5   6
BRANCH   5  84
ATOM     84  CB  GLU d   9     249.683  51.133-219.704  0.00  0.00     0.045 C 
BRANCH  84  85
ATOM     85  CG  GLU d   9     251.066  51.826-219.474  0.00  0.00     0.116 C 
BRANCH  85  86
ATOM     86  CD  GLU d   9     251.767  51.613-218.145  0.00  0.00     0.172 C 
ATOM     87  OE1 GLU d   9     251.245  50.922-217.249  0.00  0.00    -0.648 OA
ATOM     88  OE2 GLU d   9     252.886  52.151-218.012  0.00  0.00    -0.648 OA
ENDBRANCH  85  86
ENDBRANCH  84  85
ENDBRANCH   5  84
ENDBRANCH   1   5
BRANCH   3  89
ATOM     89  CA  HIS d  10     250.955  49.028-223.395  0.00  0.00     0.182 C 
BRANCH  89  90
ATOM     90  C   HIS d  10     250.589  49.593-224.746  0.00  0.00     0.241 C 
ATOM     91  O   HIS d  10     251.442  50.058-225.517  0.00  0.00    -0.271 OA
ATOM     92  N   VAL d  11     249.351  49.591-225.110  0.00  0.00    -0.346 N 
ATOM     93  H   VAL d  11     248.638  49.218-224.499  0.00  0.00     0.163 HD
BRANCH  92  94
ATOM     94  CA  VAL d  11     248.997  50.137-226.416  0.00  0.00     0.180 C 
BRANCH  94  95
ATOM     95  C   VAL d  11     249.461  51.568-226.548  0.00  0.00     0.241 C 
ATOM     96  O   VAL d  11     250.062  51.974-227.551  0.00  0.00    -0.271 OA
ATOM     97  N   GLN d  12     249.223  52.394-225.586  0.00  0.00    -0.346 N 
ATOM     98  H   GLN d  12     248.734  52.087-224.757  0.00  0.00     0.163 HD
BRANCH  97  99
ATOM     99  CA  GLN d  12     249.671  53.777-225.713  0.00  0.00     0.177 C 
BRANCH  99 100
ATOM    100  C   GLN d  12     251.161  53.845-225.950  0.00  0.00     0.241 C 
ATOM    101  O   GLN d  12     251.648  54.553-226.828  0.00  0.00    -0.271 OA
ATOM    102  N   ARG d  13     251.945  53.138-225.208  0.00  0.00    -0.346 N 
ATOM    103  H   ARG d  13     251.569  52.548-224.480  0.00  0.00     0.163 HD
BRANCH 102 104
ATOM    104  CA  ARG d  13     253.386  53.204-225.438  0.00  0.00     0.176 C 
BRANCH 104 105
ATOM    105  C   ARG d  13     253.723  52.833-226.863  0.00  0.00     0.241 C 
ATOM    106  O   ARG d  13     254.492  53.505-227.547  0.00  0.00    -0.271 OA
ATOM    107  N   VAL d  14     253.187  51.779-227.378  0.00  0.00    -0.346 N 
ATOM    108  H   VAL d  14     252.552  51.210-226.837  0.00  0.00     0.163 HD
BRANCH 107 109
ATOM    109  CA  VAL d  14     253.513  51.420-228.755  0.00  0.00     0.180 C 
BRANCH 109 110
ATOM    110  C   VAL d  14     253.183  52.550-229.701  0.00  0.00     0.241 C 
ATOM    111  O   VAL d  14     253.977  52.932-230.570  0.00  0.00    -0.271 OA
ATOM    112  N   MET d  15     252.038  53.135-229.600  0.00  0.00    -0.346 N 
ATOM    113  H   MET d  15     251.373  52.842-228.899  0.00  0.00     0.163 HD
BRANCH 112 114
ATOM    114  CA  MET d  15     251.718  54.228-230.513  0.00  0.00     0.177 C 
BRANCH 114 115
ATOM    115  C   MET d  15     252.748  55.328-230.425  0.00  0.00     0.241 C 
ATOM    116  O   MET d  15     253.251  55.840-231.437  0.00  0.00    -0.271 OA
ATOM    117  N   ARG d  16     253.116  55.749-229.262  0.00  0.00    -0.347 N 
ATOM    118  H   ARG d  16     252.721  55.349-228.423  0.00  0.00     0.163 HD
BRANCH 117 119
ATOM    119  CA  ARG d  16     254.112  56.814-229.178  0.00  0.00     0.162 C 
BRANCH 119 120
ATOM    120  C   ARG d  16     255.383  56.421-229.893  0.00  0.00     0.219 C 
ATOM    121  O   ARG d  16     255.498  55.345-230.475  0.00  0.00    -0.287 OA
ENDBRANCH 119 120
BRANCH 119 122
ATOM    122  CB  ARG d  16     254.380  57.131-227.679  0.00  0.00     0.035 C 
BRANCH 122 123
ATOM    123  CG  ARG d  16     255.205  58.420-227.406  0.00  0.00     0.023 C 
BRANCH 123 124
ATOM    124  CD  ARG d  16     255.453  58.640-225.904  0.00  0.00     0.138 C 
BRANCH 124 125
ATOM    125  NE  ARG d  16     256.229  59.899-225.702  0.00  0.00    -0.227 N 
ATOM    126  CZ  ARG d  16     256.619  60.381-224.526  0.00  0.00     0.665 C 
ATOM    127  NH1 ARG d  16     256.371  59.796-223.388  0.00  0.00    -0.235 N 
ATOM    128  NH2 ARG d  16     257.283  61.494-224.507  0.00  0.00    -0.235 N 
ATOM    129 11HH ARG d  16     255.846  58.923-223.473  0.00  0.00     0.174 HD
ATOM    130 12HH ARG d  16     256.705  60.232-222.527  0.00  0.00     0.174 HD
ATOM    131 21HH ARG d  16     257.469  61.937-225.409  0.00  0.00     0.174 HD
ATOM    132 22HH ARG d  16     257.572  61.849-223.595  0.00  0.00     0.174 HD
ATOM    133  HE  ARG d  16     256.508  60.480-226.499  0.00  0.00     0.177 HD
ENDBRANCH 124 125
ENDBRANCH 123 124
ENDBRANCH 122 123
ENDBRANCH 119 122
ENDBRANCH 117 119
ENDBRANCH 114 115
BRANCH 114 134
ATOM    134  CB  MET d  15     250.296  54.773-230.205  0.00  0.00     0.045 C 
BRANCH 134 135
ATOM    135  CG  MET d  15     249.135  53.775-230.398  0.00  0.00     0.076 C 
BRANCH 135 136
ATOM    136  SD  MET d  15     247.561  54.640-230.284  0.00  0.00    -0.173 SA
ATOM    137  CE  MET d  15     246.480  53.210-230.149  0.00  0.00     0.089 C 
ENDBRANCH 135 136
ENDBRANCH 134 135
ENDBRANCH 114 134
ENDBRANCH 112 114
ENDBRANCH 109 110
BRANCH 109 138
ATOM    138  CB  VAL d  14     252.742  50.103-229.163  0.00  0.00     0.009 C 
ATOM    139  CG1 VAL d  14     252.832  49.685-230.657  0.00  0.00     0.012 C 
ATOM    140  CG2 VAL d  14     253.173  48.850-228.363  0.00  0.00     0.012 C 
ENDBRANCH 109 138
ENDBRANCH 107 109
ENDBRANCH 104 105
BRANCH 104 141
ATOM    141  CB  ARG d  13     254.099  52.265-224.424  0.00  0.00     0.036 C 
BRANCH 141 142
ATOM    142  CG  ARG d  13     255.644  52.419-224.342  0.00  0.00     0.023 C 
BRANCH 142 143
ATOM    143  CD  ARG d  13     256.270  51.431-223.344  0.00  0.00     0.138 C 
BRANCH 143 144
ATOM    144  NE  ARG d  13     257.747  51.639-223.293  0.00  0.00    -0.227 N 
ATOM    145  CZ  ARG d  13     258.595  50.948-222.537  0.00  0.00     0.665 C 
ATOM    146  NH1 ARG d  13     258.230  49.983-221.740  0.00  0.00    -0.235 N 
ATOM    147  NH2 ARG d  13     259.855  51.247-222.593  0.00  0.00    -0.235 N 
ATOM    148 11HH ARG d  13     257.225  49.796-221.744  0.00  0.00     0.174 HD
ATOM    149 12HH ARG d  13     258.943  49.500-221.191  0.00  0.00     0.174 HD
ATOM    150 21HH ARG d  13     260.122  52.005-223.224  0.00  0.00     0.174 HD
ATOM    151 22HH ARG d  13     260.490  50.706-222.004  0.00  0.00     0.174 HD
ATOM    152  HE  ARG d  13     258.199  52.362-223.863  0.00  0.00     0.177 HD
ENDBRANCH 143 144
ENDBRANCH 142 143
ENDBRANCH 141 142
ENDBRANCH 104 141
ENDBRANCH 102 104
ENDBRANCH  99 100
BRANCH  99 153
ATOM    153  CB  GLN d  12     249.279  54.544-224.430  0.00  0.00     0.044 C 
BRANCH 153 154
ATOM    154  CG  GLN d  12     249.639  56.066-224.398  0.00  0.00     0.105 C 
BRANCH 154 155
ATOM    155  CD  GLN d  12     249.335  56.879-223.134  0.00  0.00     0.215 C 
ATOM    156  NE2 GLN d  12     248.768  56.302-222.105  0.00  0.00    -0.370 N 
ATOM    157 21HE GLN d  12     248.660  56.896-221.282  0.00  0.00     0.159 HD
ATOM    158 22HE GLN d  12     248.605  55.299-222.209  0.00  0.00     0.159 HD
ATOM    159  OE1 GLN d  12     249.637  58.060-223.056  0.00  0.00    -0.274 OA
ENDBRANCH 154 155
ENDBRANCH 153 154
ENDBRANCH  99 153
ENDBRANCH  97  99
ENDBRANCH  94  95
BRANCH  94 160
ATOM    160  CB  VAL d  11     247.436  50.030-226.637  0.00  0.00     0.009 C 
ATOM    161  CG1 VAL d  11     246.868  50.734-227.900  0.00  0.00     0.012 C 
ATOM    162  CG2 VAL d  11     246.912  48.576-226.711  0.00  0.00     0.012 C 
ENDBRANCH  94 160
ENDBRANCH  92  94
ENDBRANCH  89  90
BRANCH  89 163
ATOM    163  CB  HIS d  10     250.792  47.499-223.390  0.00  0.00     0.095 C 
BRANCH 163 164
ATOM    164  CG  HIS d  10     252.077  46.789-223.081  0.00  0.00     0.053 A 
ATOM    165  CD2 HIS d  10     252.458  46.454-221.789  0.00  0.00     0.116 A 
ATOM    166  NE2 HIS d  10     253.673  45.823-221.855  0.00  0.00    -0.359 N 
ATOM    167  CE1 HIS d  10     253.936  45.826-223.190  0.00  0.00     0.207 A 
ATOM    168  2HE HIS d  10     254.239  45.445-221.081  0.00  0.00     0.166 HD
ATOM    169  ND1 HIS d  10     253.030  46.384-224.013  0.00  0.00    -0.247 NA
ENDBRANCH 163 164
ENDBRANCH  89 163
ENDBRANCH   3  89
TORSDOF 69
