REMARK WARNING: 32 MAX_TORS EXCEEDED!!!
REMARK  70 active torsions:
REMARK  status: ('A' for Active; 'I' for Inactive)
REMARK    1  A    between atoms: N_1  and  CA_2 
REMARK    2  A    between atoms: CA_2  and  C_3 
REMARK    3  A    between atoms: CA_2  and  CB_5 
REMARK       I    between atoms: C_3  and  N_11 
REMARK    4  A    between atoms: CB_5  and  CG_6 
REMARK    5  A    between atoms: CG_6  and  CD_7 
REMARK    6  A    between atoms: N_11  and  CA_12 
REMARK    7  A    between atoms: CA_12  and  C_13 
REMARK    8  A    between atoms: CA_12  and  CB_15 
REMARK       I    between atoms: C_13  and  N_22 
REMARK    9  A    between atoms: CB_15  and  CG_16 
REMARK       I    between atoms: CG_16  and  ND2_17 
REMARK   10  A    between atoms: CA_23  and  C_24 
REMARK       I    between atoms: C_24  and  N_29 
REMARK   11  A    between atoms: N_29  and  CA_30 
REMARK   12  A    between atoms: CA_30  and  C_31 
REMARK   13  A    between atoms: CA_30  and  CB_33 
REMARK       I    between atoms: C_31  and  N_39 
REMARK   14  A    between atoms: CB_33  and  CG_34 
REMARK   15  A    between atoms: CG_34  and  CD_35 
REMARK   16  A    between atoms: N_39  and  CA_40 
REMARK   17  A    between atoms: CA_40  and  C_41 
REMARK   18  A    between atoms: CA_40  and  CB_43 
REMARK       I    between atoms: C_41  and  N_47 
REMARK   19  A    between atoms: CB_43  and  OG_44 
REMARK   20  A    between atoms: N_47  and  CA_48 
REMARK   21  A    between atoms: CA_48  and  C_49 
REMARK   22  A    between atoms: CA_48  and  CB_51 
REMARK       I    between atoms: C_49  and  N_56 
REMARK   23  A    between atoms: CB_51  and  CG1_52 
REMARK   24  A    between atoms: N_56  and  CA_57 
REMARK   25  A    between atoms: CA_57  and  C_58 
REMARK   26  A    between atoms: CA_57  and  CB_60 
REMARK       I    between atoms: C_58  and  N_65 
REMARK   27  A    between atoms: CB_60  and  CG_61 
REMARK   28  A    between atoms: N_65  and  CA_66 
REMARK   29  A    between atoms: CA_66  and  C_67 
REMARK   30  A    between atoms: CA_66  and  CB_69 
REMARK       I    between atoms: C_67  and  N_74 
REMARK   31  A    between atoms: CB_69  and  CG_70 
REMARK   32  A    between atoms: N_74  and  CA_75 
REMARK   33  A    between atoms: CA_75  and  C_76 
REMARK   34  A    between atoms: CA_75  and  CB_78 
REMARK       I    between atoms: C_76  and  N_84 
REMARK   35  A    between atoms: CB_78  and  CG_79 
REMARK   36  A    between atoms: CG_79  and  CD_80 
REMARK   37  A    between atoms: N_84  and  CA_85 
REMARK   38  A    between atoms: CA_85  and  C_86 
REMARK   39  A    between atoms: CA_85  and  CB_88 
REMARK       I    between atoms: C_86  and  N_96 
REMARK   40  A    between atoms: CB_88  and  CG_89 
REMARK   41  A    between atoms: N_96  and  CA_97 
REMARK   42  A    between atoms: CA_97  and  C_98 
REMARK   43  A    between atoms: CA_97  and  CB_100 
REMARK       I    between atoms: C_98  and  N_104 
REMARK   44  A    between atoms: N_104  and  CA_105 
REMARK   45  A    between atoms: CA_105  and  C_106 
REMARK   46  A    between atoms: CA_105  and  CB_108 
REMARK       I    between atoms: C_106  and  N_117 
REMARK   47  A    between atoms: CB_108  and  CG_109 
REMARK   48  A    between atoms: CG_109  and  CD_110 
REMARK   49  A    between atoms: CD_110  and  CE_111 
REMARK   50  A    between atoms: CE_111  and  NZ_112 
REMARK   51  A    between atoms: N_117  and  CA_118 
REMARK   52  A    between atoms: CA_118  and  C_119 
REMARK   53  A    between atoms: CA_118  and  CB_121 
REMARK       I    between atoms: C_119  and  N_134 
REMARK   54  A    between atoms: CB_121  and  CG_122 
REMARK   55  A    between atoms: CG_122  and  CD_123 
REMARK   56  A    between atoms: CD_123  and  NE_124 
REMARK       I    between atoms: NE_124  and  CZ_125 
REMARK       I    between atoms: CZ_125  and  NH1_126 
REMARK       I    between atoms: CZ_125  and  NH2_127 
REMARK   57  A    between atoms: N_134  and  CA_135 
REMARK   58  A    between atoms: CA_135  and  C_136 
REMARK   59  A    between atoms: CA_135  and  CB_138 
REMARK       I    between atoms: C_136  and  N_142 
REMARK   60  A    between atoms: N_142  and  CA_143 
REMARK   61  A    between atoms: CA_143  and  C_144 
REMARK   62  A    between atoms: CA_143  and  CB_146 
REMARK       I    between atoms: C_144  and  N_151 
REMARK   63  A    between atoms: CB_146  and  CG_147 
REMARK   64  A    between atoms: CG_147  and  SD_148 
REMARK   65  A    between atoms: N_151  and  CA_152 
REMARK   66  A    between atoms: CA_152  and  C_153 
REMARK   67  A    between atoms: CA_152  and  CB_155 
REMARK   68  A    between atoms: CB_155  and  CG_156 
REMARK   69  A    between atoms: CG_156  and  CD_157 
REMARK   70  A    between atoms: CD_157  and  NE_158 
REMARK       I    between atoms: NE_158  and  CZ_159 
REMARK       I    between atoms: CZ_159  and  NH1_160 
ROOT
ATOM      1  C   GLU d   9    2003.463 608.154-2062.049  0.00  0.00     0.241 C 
ATOM      2  O   GLU d   9    2004.127 608.909-2062.773  0.00  0.00    -0.271 OA
ATOM      3  N   HIS d  10    2003.559 606.879-2062.219  0.00  0.00    -0.346 N 
ATOM      4  H   HIS d  10    2003.028 606.243-2061.641  0.00  0.00     0.163 HD
ENDROOT
BRANCH   3   5
ATOM      5  CA  HIS d  10    2004.447 606.368-2063.260  0.00  0.00     0.182 C 
BRANCH   5   6
ATOM      6  C   HIS d  10    2004.081 606.934-2064.610  0.00  0.00     0.241 C 
ATOM      7  O   HIS d  10    2004.934 607.399-2065.382  0.00  0.00    -0.271 OA
ATOM      8  N   VAL d  11    2002.843 606.934-2064.974  0.00  0.00    -0.346 N 
ATOM      9  H   VAL d  11    2002.130 606.560-2064.364  0.00  0.00     0.163 HD
BRANCH   8  10
ATOM     10  CA  VAL d  11    2002.488 607.481-2066.280  0.00  0.00     0.180 C 
BRANCH  10  11
ATOM     11  C   VAL d  11    2002.953 608.911-2066.411  0.00  0.00     0.241 C 
ATOM     12  O   VAL d  11    2003.555 609.317-2067.414  0.00  0.00    -0.271 OA
ATOM     13  N   LYS d  12    2002.716 609.736-2065.448  0.00  0.00    -0.346 N 
ATOM     14  H   LYS d  12    2002.227 609.429-2064.620  0.00  0.00     0.163 HD
BRANCH  13  15
ATOM     15  CA  LYS d  12    2003.165 611.120-2065.574  0.00  0.00     0.176 C 
BRANCH  15  16
ATOM     16  C   LYS d  12    2004.655 611.186-2065.811  0.00  0.00     0.241 C 
ATOM     17  O   LYS d  12    2005.148 611.900-2066.696  0.00  0.00    -0.271 OA
ATOM     18  N   ARG d  13    2005.438 610.478-2065.070  0.00  0.00    -0.346 N 
ATOM     19  H   ARG d  13    2005.060 609.888-2064.343  0.00  0.00     0.163 HD
BRANCH  18  20
ATOM     20  CA  ARG d  13    2006.879 610.542-2065.300  0.00  0.00     0.176 C 
BRANCH  20  21
ATOM     21  C   ARG d  13    2007.216 610.172-2066.725  0.00  0.00     0.241 C 
ATOM     22  O   ARG d  13    2007.986 610.843-2067.407  0.00  0.00    -0.271 OA
ATOM     23  N   VAL d  14    2006.679 609.118-2067.241  0.00  0.00    -0.346 N 
ATOM     24  H   VAL d  14    2006.043 608.550-2066.700  0.00  0.00     0.163 HD
BRANCH  23  25
ATOM     25  CA  VAL d  14    2007.005 608.760-2068.618  0.00  0.00     0.180 C 
BRANCH  25  26
ATOM     26  C   VAL d  14    2006.677 609.891-2069.563  0.00  0.00     0.241 C 
ATOM     27  O   VAL d  14    2007.472 610.273-2070.431  0.00  0.00    -0.271 OA
ATOM     28  N   MET d  15    2005.533 610.478-2069.462  0.00  0.00    -0.346 N 
ATOM     29  H   MET d  15    2004.867 610.185-2068.762  0.00  0.00     0.163 HD
BRANCH  28  30
ATOM     30  CA  MET d  15    2005.215 611.572-2070.375  0.00  0.00     0.177 C 
BRANCH  30  31
ATOM     31  C   MET d  15    2006.246 612.671-2070.285  0.00  0.00     0.241 C 
ATOM     32  O   MET d  15    2006.751 613.182-2071.296  0.00  0.00    -0.271 OA
ATOM     33  N   ARG d  16    2006.613 613.090-2069.122  0.00  0.00    -0.347 N 
ATOM     34  H   ARG d  16    2006.217 612.690-2068.283  0.00  0.00     0.163 HD
BRANCH  33  35
ATOM     35  CA  ARG d  16    2007.611 614.153-2069.035  0.00  0.00     0.162 C 
BRANCH  35  36
ATOM     36  C   ARG d  16    2008.882 613.760-2069.750  0.00  0.00     0.219 C 
ATOM     37  O   ARG d  16    2008.996 612.684-2070.333  0.00  0.00    -0.287 OA
ENDBRANCH  35  36
BRANCH  35  38
ATOM     38  CB  ARG d  16    2007.878 614.469-2067.536  0.00  0.00     0.035 C 
BRANCH  38  39
ATOM     39  CG  ARG d  16    2008.704 615.757-2067.261  0.00  0.00     0.023 C 
BRANCH  39  40
ATOM     40  CD  ARG d  16    2008.952 615.975-2065.760  0.00  0.00     0.138 C 
BRANCH  40  41
ATOM     41  NE  ARG d  16    2009.729 617.233-2065.556  0.00  0.00    -0.227 N 
ATOM     42  CZ  ARG d  16    2010.119 617.714-2064.379  0.00  0.00     0.665 C 
ATOM     43  NH1 ARG d  16    2009.869 617.128-2063.242  0.00  0.00    -0.235 N 
ATOM     44  NH2 ARG d  16    2010.784 618.825-2064.359  0.00  0.00    -0.235 N 
ATOM     45 11HH ARG d  16    2009.343 616.256-2063.328  0.00  0.00     0.174 HD
ATOM     46 12HH ARG d  16    2010.203 617.562-2062.380  0.00  0.00     0.174 HD
ATOM     47 21HH ARG d  16    2010.971 619.269-2065.260  0.00  0.00     0.174 HD
ATOM     48 22HH ARG d  16    2011.073 619.179-2063.445  0.00  0.00     0.174 HD
ATOM     49  HE  ARG d  16    2010.009 617.814-2066.352  0.00  0.00     0.177 HD
ENDBRANCH  40  41
ENDBRANCH  39  40
ENDBRANCH  38  39
ENDBRANCH  35  38
ENDBRANCH  33  35
ENDBRANCH  30  31
BRANCH  30  50
ATOM     50  CB  MET d  15    2003.794 612.119-2070.067  0.00  0.00     0.045 C 
BRANCH  50  51
ATOM     51  CG  MET d  15    2002.631 611.122-2070.261  0.00  0.00     0.076 C 
BRANCH  51  52
ATOM     52  SD  MET d  15    2001.058 611.990-2070.148  0.00  0.00    -0.173 SA
ATOM     53  CE  MET d  15    1999.975 610.561-2070.014  0.00  0.00     0.089 C 
ENDBRANCH  51  52
ENDBRANCH  50  51
ENDBRANCH  30  50
ENDBRANCH  28  30
ENDBRANCH  25  26
BRANCH  25  54
ATOM     54  CB  VAL d  14    2006.232 607.444-2069.027  0.00  0.00     0.009 C 
ATOM     55  CG1 VAL d  14    2006.322 607.027-2070.521  0.00  0.00     0.012 C 
ATOM     56  CG2 VAL d  14    2006.661 606.191-2068.228  0.00  0.00     0.012 C 
ENDBRANCH  25  54
ENDBRANCH  23  25
ENDBRANCH  20  21
BRANCH  20  57
ATOM     57  CB  ARG d  13    2007.590 609.602-2064.286  0.00  0.00     0.036 C 
BRANCH  57  58
ATOM     58  CG  ARG d  13    2009.135 609.753-2064.203  0.00  0.00     0.023 C 
BRANCH  58  59
ATOM     59  CD  ARG d  13    2009.760 608.764-2063.206  0.00  0.00     0.138 C 
BRANCH  59  60
ATOM     60  NE  ARG d  13    2011.237 608.970-2063.153  0.00  0.00    -0.227 N 
ATOM     61  CZ  ARG d  13    2012.084 608.277-2062.398  0.00  0.00     0.665 C 
ATOM     62  NH1 ARG d  13    2011.717 607.312-2061.602  0.00  0.00    -0.235 N 
ATOM     63  NH2 ARG d  13    2013.344 608.574-2062.454  0.00  0.00    -0.235 N 
ATOM     64 11HH ARG d  13    2010.711 607.127-2061.606  0.00  0.00     0.174 HD
ATOM     65 12HH ARG d  13    2012.429 606.828-2061.053  0.00  0.00     0.174 HD
ATOM     66 21HH ARG d  13    2013.613 609.332-2063.083  0.00  0.00     0.174 HD
ATOM     67 22HH ARG d  13    2013.978 608.032-2061.865  0.00  0.00     0.174 HD
ATOM     68  HE  ARG d  13    2011.690 609.692-2063.723  0.00  0.00     0.177 HD
ENDBRANCH  59  60
ENDBRANCH  58  59
ENDBRANCH  57  58
ENDBRANCH  20  57
ENDBRANCH  18  20
ENDBRANCH  15  16
BRANCH  15  69
ATOM     69  CB  LYS d  12    2002.770 611.909-2064.296  0.00  0.00     0.035 C 
BRANCH  69  70
ATOM     70  CG  LYS d  12    2003.136 613.413-2064.363  0.00  0.00     0.004 C 
BRANCH  70  71
ATOM     71  CD  LYS d  12    2002.821 614.210-2063.094  0.00  0.00     0.027 C 
BRANCH  71  72
ATOM     72  CE  LYS d  12    2003.299 615.657-2063.273  0.00  0.00     0.229 C 
BRANCH  72  73
ATOM     73  NZ  LYS d  12    2002.846 616.468-2062.130  0.00  0.00    -0.079 N 
ATOM     74  3HZ LYS d  12    2001.902 616.758-2062.343  0.00  0.00     0.274 HD
ATOM     75  1HZ LYS d  12    2002.886 615.922-2061.260  0.00  0.00     0.274 HD
ATOM     76  2HZ LYS d  12    2003.454 617.280-2061.984  0.00  0.00     0.274 HD
ENDBRANCH  72  73
ENDBRANCH  71  72
ENDBRANCH  70  71
ENDBRANCH  69  70
ENDBRANCH  15  69
ENDBRANCH  13  15
ENDBRANCH  10  11
BRANCH  10  77
ATOM     77  CB  VAL d  11    2000.927 607.374-2066.500  0.00  0.00     0.009 C 
ATOM     78  CG1 VAL d  11    2000.359 608.080-2067.762  0.00  0.00     0.012 C 
ATOM     79  CG2 VAL d  11    2000.402 605.920-2066.574  0.00  0.00     0.012 C 
ENDBRANCH  10  77
ENDBRANCH   8  10
ENDBRANCH   5   6
BRANCH   5  80
ATOM     80  CB  HIS d  10    2004.283 604.839-2063.256  0.00  0.00     0.095 C 
BRANCH  80  81
ATOM     81  CG  HIS d  10    2005.568 604.129-2062.948  0.00  0.00     0.053 A 
ATOM     82  CD2 HIS d  10    2005.948 603.793-2061.655  0.00  0.00     0.116 A 
ATOM     83  NE2 HIS d  10    2007.163 603.161-2061.722  0.00  0.00    -0.359 N 
ATOM     84  CE1 HIS d  10    2007.427 603.164-2063.057  0.00  0.00     0.207 A 
ATOM     85  2HE HIS d  10    2007.730 602.783-2060.948  0.00  0.00     0.166 HD
ATOM     86  ND1 HIS d  10    2006.520 603.723-2063.880  0.00  0.00    -0.247 NA
ENDBRANCH  80  81
ENDBRANCH   5  80
ENDBRANCH   3   5
BRANCH   1  87
ATOM     87  CA  GLU d   9    2002.544 608.681-2060.973  0.00  0.00     0.177 C 
BRANCH  87  88
ATOM     88  N   GLU d   9    2001.241 608.024-2061.029  0.00  0.00    -0.346 N 
ATOM     89  C   ASP d   8    2000.562 608.075-2062.125  0.00  0.00     0.241 C 
ATOM     90  O   ASP d   8    2001.036 608.681-2063.099  0.00  0.00    -0.271 OA
ATOM     91  H   GLU d   9    2000.878 607.537-2060.222  0.00  0.00     0.163 HD
BRANCH  89  92
ATOM     92  CA  ASP d   8    1999.215 607.395-2062.183  0.00  0.00     0.186 C 
BRANCH  92  93
ATOM     93  N   ASP d   8    1999.285 606.046-2061.630  0.00  0.00    -0.346 N 
ATOM     94  C   LEU d   7    2000.122 605.205-2062.136  0.00  0.00     0.241 C 
ATOM     95  O   LEU d   7    2000.844 605.568-2063.078  0.00  0.00    -0.271 OA
ATOM     96  H   ASP d   8    1998.687 605.774-2060.863  0.00  0.00     0.163 HD
BRANCH  94  97
ATOM     97  CA  LEU d   7    2000.194 603.810-2061.565  0.00  0.00     0.177 C 
BRANCH  97  98
ATOM     98  N   LEU d   7    2000.249 603.845-2060.106  0.00  0.00    -0.346 N 
ATOM     99  C   ILE d   6    2001.194 604.508-2059.532  0.00  0.00     0.241 C 
ATOM    100  O   ILE d   6    2002.030 605.096-2060.235  0.00  0.00    -0.271 OA
ATOM    101  H   LEU d   7    1999.556 603.358-2059.555  0.00  0.00     0.163 HD
BRANCH  99 102
ATOM    102  CA  ILE d   6    2001.251 604.545-2058.024  0.00  0.00     0.180 C 
BRANCH 102 103
ATOM    103  N   ILE d   6    1999.938 604.840-2057.458  0.00  0.00    -0.346 N 
ATOM    104  C   SER d   5    1999.334 605.924-2057.812  0.00  0.00     0.243 C 
ATOM    105  O   SER d   5    1999.881 606.677-2058.617  0.00  0.00    -0.271 OA
ATOM    106  H   ILE d   6    1999.510 604.206-2056.799  0.00  0.00     0.163 HD
BRANCH 104 107
ATOM    107  CA  SER d   5    1997.975 606.229-2057.226  0.00  0.00     0.200 C 
BRANCH 107 108
ATOM    108  N   SER d   5    1997.105 605.058-2057.285  0.00  0.00    -0.344 N 
ATOM    109  C   GLU d   4    1996.878 604.506-2058.428  0.00  0.00     0.241 C 
ATOM    110  O   GLU d   4    1997.405 604.985-2059.442  0.00  0.00    -0.271 OA
ATOM    111  H   SER d   5    1996.688 604.687-2056.443  0.00  0.00     0.163 HD
BRANCH 109 112
ATOM    112  CA  GLU d   4    1995.979 603.295-2058.489  0.00  0.00     0.177 C 
BRANCH 112 113
ATOM    113  N   GLU d   4    1996.339 602.324-2057.459  0.00  0.00    -0.346 N 
ATOM    114  C   PRO d   3    1997.544 601.864-2057.426  0.00  0.00     0.241 C 
ATOM    115  O   PRO d   3    1998.367 602.247-2058.258  0.00  0.00    -0.271 OA
ATOM    116  H   GLU d   4    1995.654 602.017-2056.782  0.00  0.00     0.163 HD
BRANCH 114 117
ATOM    117  CA  PRO d   3    1997.942 600.841-2056.349  0.00  0.00     0.179 C 
ATOM    118  N   PRO d   3    1997.490 601.250-2055.028  0.00  0.00    -0.337 N 
ATOM    119  C   ASN d   2    1998.011 602.245-2054.394  0.00  0.00     0.243 C 
ATOM    120  CD  PRO d   3    1996.412 600.457-2054.479  0.00  0.00     0.127 C 
ATOM    121  O   ASN d   2    1998.927 602.875-2054.923  0.00  0.00    -0.271 OA
ATOM    122  CG  PRO d   3    1995.954 599.638-2055.688  0.00  0.00     0.022 C 
ATOM    123  CB  PRO d   3    1997.238 599.486-2056.519  0.00  0.00     0.037 C 
BRANCH 119 124
ATOM    124  CA  ASN d   2    1997.480 602.600-2053.025  0.00  0.00     0.185 C 
BRANCH 124 125
ATOM    125  N   ASN d   2    1996.021 602.639-2053.025  0.00  0.00    -0.346 N 
ATOM    126  C   GLU d   1    1995.416 603.425-2053.850  0.00  0.00     0.242 C 
ATOM    127  O   GLU d   1    1996.092 604.124-2054.619  0.00  0.00    -0.271 OA
ATOM    128  H   ASN d   2    1995.493 602.060-2052.389  0.00  0.00     0.163 HD
BRANCH 126 129
ATOM    129  CA  GLU d   1    1993.907 603.465-2053.850  0.00  0.00     0.191 C 
BRANCH 129 130
ATOM    130  N   GLU d   1    1993.348 602.116-2053.850  0.00  0.00    -0.326 NA
ATOM    131  H   GLU d   1    1993.975 601.237-2053.850  0.00  0.00     0.180 HD
ENDBRANCH 129 130
BRANCH 129 132
ATOM    132  CB  GLU d   1    1993.384 604.250-2052.614  0.00  0.00     0.047 C 
BRANCH 132 133
ATOM    133  CG  GLU d   1    1993.859 605.735-2052.502  0.00  0.00     0.116 C 
BRANCH 133 134
ATOM    134  CD  GLU d   1    1993.435 606.539-2051.287  0.00  0.00     0.172 C 
ATOM    135  OE1 GLU d   1    1992.707 606.037-2050.409  0.00  0.00    -0.648 OA
ATOM    136  OE2 GLU d   1    1993.865 607.709-2051.215  0.00  0.00    -0.648 OA
ENDBRANCH 133 134
ENDBRANCH 132 133
ENDBRANCH 129 132
ENDBRANCH 126 129
ENDBRANCH 124 125
BRANCH 124 137
ATOM    137  CB  ASN d   2    1997.972 601.578-2051.961  0.00  0.00     0.137 C 
BRANCH 137 138
ATOM    138  CG  ASN d   2    1997.509 601.801-2050.517  0.00  0.00     0.217 C 
ATOM    139  ND2 ASN d   2    1998.103 602.716-2049.799  0.00  0.00    -0.370 N 
ATOM    140 21HD ASN d   2    1997.623 602.889-2048.913  0.00  0.00     0.159 HD
ATOM    141 22HD ASN d   2    1998.805 603.288-2050.269  0.00  0.00     0.159 HD
ATOM    142  OD1 ASN d   2    1996.588 601.168-2050.023  0.00  0.00    -0.274 OA
ENDBRANCH 137 138
ENDBRANCH 124 137
ENDBRANCH 119 124
ENDBRANCH 114 117
ENDBRANCH 112 113
BRANCH 112 143
ATOM    143  CB  GLU d   4    1994.490 603.713-2058.319  0.00  0.00     0.045 C 
BRANCH 143 144
ATOM    144  CG  GLU d   4    1993.943 604.716-2059.385  0.00  0.00     0.116 C 
BRANCH 144 145
ATOM    145  CD  GLU d   4    1992.516 605.213-2059.241  0.00  0.00     0.172 C 
ATOM    146  OE1 GLU d   4    1991.790 604.815-2058.310  0.00  0.00    -0.648 OA
ATOM    147  OE2 GLU d   4    1992.126 606.042-2060.090  0.00  0.00    -0.648 OA
ENDBRANCH 144 145
ENDBRANCH 143 144
ENDBRANCH 112 143
ENDBRANCH 109 112
ENDBRANCH 107 108
BRANCH 107 148
ATOM    148  CB  SER d   5    1998.087 606.762-2055.776  0.00  0.00     0.199 C 
BRANCH 148 149
ATOM    149  OG  SER d   5    1998.818 605.882-2054.915  0.00  0.00    -0.398 OA
ATOM    150  HG  SER d   5    1998.329 605.057-2054.864  0.00  0.00     0.209 HD
ENDBRANCH 148 149
ENDBRANCH 107 148
ENDBRANCH 104 107
ENDBRANCH 102 103
BRANCH 102 151
ATOM    151  CB  ILE d   6    2001.851 603.208-2057.424  0.00  0.00     0.013 C 
ATOM    152  CG2 ILE d   6    2003.292 602.906-2057.939  0.00  0.00     0.012 C 
BRANCH 151 153
ATOM    153  CG1 ILE d   6    2001.870 603.146-2055.863  0.00  0.00     0.002 C 
ATOM    154  CD1 ILE d   6    2002.139 601.757-2055.248  0.00  0.00     0.005 C 
ENDBRANCH 151 153
ENDBRANCH 102 151
ENDBRANCH  99 102
ENDBRANCH  97  98
BRANCH  97 155
ATOM    155  CB  LEU d   7    1998.991 602.950-2062.045  0.00  0.00     0.038 C 
BRANCH 155 156
ATOM    156  CG  LEU d   7    1998.917 601.470-2061.579  0.00  0.00    -0.020 C 
ATOM    157  CD1 LEU d   7    1997.727 600.765-2062.246  0.00  0.00     0.009 C 
ATOM    158  CD2 LEU d   7    2000.211 600.691-2061.871  0.00  0.00     0.009 C 
ENDBRANCH 155 156
ENDBRANCH  97 155
ENDBRANCH  94  97
ENDBRANCH  92  93
BRANCH  92 159
ATOM    159  CB  ASP d   8    1998.137 608.234-2061.441  0.00  0.00     0.147 C 
BRANCH 159 160
ATOM    160  CG  ASP d   8    1997.919 609.655-2061.980  0.00  0.00     0.175 C 
ATOM    161  OD1 ASP d   8    1997.983 609.855-2063.211  0.00  0.00    -0.648 OA
ATOM    162  OD2 ASP d   8    1997.727 610.581-2061.165  0.00  0.00    -0.648 OA
ENDBRANCH 159 160
ENDBRANCH  92 159
ENDBRANCH  89  92
ENDBRANCH  87  88
BRANCH  87 163
ATOM    163  CB  GLU d   9    2003.177 608.473-2059.567  0.00  0.00     0.045 C 
BRANCH 163 164
ATOM    164  CG  GLU d   9    2004.560 609.164-2059.337  0.00  0.00     0.116 C 
BRANCH 164 165
ATOM    165  CD  GLU d   9    2005.261 608.950-2058.008  0.00  0.00     0.172 C 
ATOM    166  OE1 GLU d   9    2004.739 608.258-2057.113  0.00  0.00    -0.648 OA
ATOM    167  OE2 GLU d   9    2006.380 609.487-2057.876  0.00  0.00    -0.648 OA
ENDBRANCH 164 165
ENDBRANCH 163 164
ENDBRANCH  87 163
ENDBRANCH   1  87
TORSDOF 70
