@<TRIPOS>MOLECULE
12-13
259 260 16              
SMALL
USER_CHARGES
@<TRIPOS>ATOM
1	   N	1943.921	586.600	-2000.480	N.3	1	GLU1	-0.516	
2	  CA	1944.480	587.949	-2000.480	C.3	1	GLU1	0.040	
3	   C	1945.989	587.909	-2000.480	C.2	1	GLU1	0.537	
4	   O	1946.665	588.608	-2001.249	O.2	1	GLU1	-0.582	
5	  CB	1943.957	588.734	-1999.243	C.3	1	GLU1	0.056	
6	  CG	1944.432	590.219	-1999.132	C.3	1	GLU1	0.014	
7	  CD	1944.008	591.023	-1997.917	C.2	1	GLU1	0.805	
8	 OE1	1943.280	590.521	-1997.039	O.co2	1	GLU1	-0.819	
9	 OE2	1944.438	592.193	-1997.845	O.co2	1	GLU1	-0.819	
10	   H	1944.548	585.721	-2000.480	 H	1	GLU1	0.294	
11	  HA	1944.154	588.467	-2001.400	 H	1	GLU1	0.111	
12	 2HB	1944.246	588.203	-1998.313	 H	1	GLU1	-0.017	
13	 3HB	1942.850	588.724	-1999.230	 H	1	GLU1	-0.017	
14	 2HG	1944.122	590.804	-2000.013	 H	1	GLU1	-0.043	
15	 3HG	1945.532	590.286	-1999.103	 H	1	GLU1	-0.043	
16	   N	1946.594	587.123	-1999.655	N.am	2	ASN2	-0.416	
17	  CA	1948.053	587.085	-1999.655	C.3	2	ASN2	0.014	
18	   C	1948.584	586.729	-2001.024	C.2	2	ASN2	0.597	
19	   O	1949.499	587.359	-2001.552	O.2	2	ASN2	-0.568	
20	  CB	1948.545	586.062	-1998.591	C.3	2	ASN2	-0.204	
21	  CG	1948.082	586.286	-1997.147	C.2	2	ASN2	0.713	
22	 ND2	1948.676	587.200	-1996.429	N.pl3	2	ASN2	-0.919	
23	 OD1	1947.161	585.652	-1996.653	O.2	2	ASN2	-0.593	
24	   H	1946.065	586.544	-1999.019	 H	2	ASN2	0.272	
25	  HA	1948.430	588.095	-1999.410	 H	2	ASN2	0.105	
26	 2HB	1949.649	586.003	-1998.594	 H	2	ASN2	0.080	
27	 3HB	1948.216	585.043	-1998.877	 H	2	ASN2	0.080	
28	1HD2	1948.195	587.373	-1995.543	 H	2	ASN2	0.420	
29	2HD2	1949.378	587.772	-1996.898	 H	2	ASN2	0.420	
30	   N	1948.062	585.734	-2001.658	N.am	3	PRO3	-0.255	
31	  CA	1948.514	585.325	-2002.979	C.3	3	PRO3	-0.027	
32	   C	1948.116	586.348	-2004.056	C.2	3	PRO3	0.590	
33	   O	1948.940	586.731	-2004.888	O.2	3	PRO3	-0.575	
34	  CB	1947.810	583.970	-2003.149	C.3	3	PRO3	-0.007	
35	  CG	1946.527	584.122	-2002.318	C.3	3	PRO3	0.019	
36	  CD	1946.985	584.941	-2001.109	C.3	3	PRO3	0.019	
37	  HA	1949.600	585.205	-2002.993	 H	3	PRO3	0.064	
38	 2HB	1948.433	583.189	-2002.708	 H	3	PRO3	0.025	
39	 3HB	1947.612	583.721	-2004.194	 H	3	PRO3	0.025	
40	 2HG	1946.099	583.160	-2002.027	 H	3	PRO3	0.021	
41	 3HG	1945.789	584.693	-2002.886	 H	3	PRO3	0.021	
42	 2HD	1947.374	584.291	-2000.321	 H	3	PRO3	0.039	
43	 3HD	1946.188	585.577	-2000.715	 H	3	PRO3	0.039	
44	   N	1946.911	586.808	-2004.088	N.am	4	GLU4	-0.516	
45	  CA	1946.552	587.779	-2005.118	C.3	4	GLU4	0.040	
46	   C	1947.451	588.990	-2005.057	C.2	4	GLU4	0.537	
47	   O	1947.977	589.470	-2006.072	O.2	4	GLU4	-0.582	
48	  CB	1945.063	588.198	-2004.948	C.3	4	GLU4	0.056	
49	  CG	1944.515	589.202	-2006.013	C.3	4	GLU4	0.014	
50	  CD	1943.089	589.699	-2005.870	C.2	4	GLU4	0.805	
51	 OE1	1942.362	589.300	-2004.939	O.co2	4	GLU4	-0.819	
52	 OE2	1942.699	590.528	-2006.718	O.co2	4	GLU4	-0.819	
53	   H	1946.227	586.501	-2003.412	 H	4	GLU4	0.294	
54	  HA	1946.683	587.309	-2006.109	 H	4	GLU4	0.111	
55	 2HB	1944.911	588.638	-2003.941	 H	4	GLU4	-0.017	
56	 3HB	1944.415	587.300	-2004.954	 H	4	GLU4	-0.017	
57	 2HG	1944.597	588.787	-2007.031	 H	4	GLU4	-0.043	
58	 3HG	1945.103	590.134	-2006.025	 H	4	GLU4	-0.043	
59	   N	1947.678	589.543	-2003.914	N.am	5	SER5	-0.416	
60	  CA	1948.548	590.714	-2003.855	C.3	5	SER5	-0.025	
61	   C	1949.907	590.409	-2004.441	C.2	5	SER5	0.597	
62	   O	1950.454	591.162	-2005.246	O.2	5	SER5	-0.568	
63	  CB	1948.659	591.247	-2002.405	C.3	5	SER5	0.212	
64	  OG	1949.391	590.367	-2001.544	O.3	5	SER5	-0.655	
65	   H	1947.261	589.171	-2003.072	 H	5	SER5	0.272	
66	  HA	1948.098	591.504	-2004.485	 H	5	SER5	0.084	
67	 2HB	1947.659	591.440	-2001.972	 H	5	SER5	0.035	
68	 3HB	1949.164	592.232	-2002.407	 H	5	SER5	0.035	
69	  HG	1948.902	589.542	-2001.493	 H	5	SER5	0.428	
70	   N	1950.511	589.326	-2004.087	N.am	6	ILE6	-0.416	
71	  CA	1951.825	589.031	-2004.653	C.3	6	ILE6	-0.060	
72	   C	1951.767	588.993	-2006.161	C.2	6	ILE6	0.597	
73	   O	1952.602	589.581	-2006.865	O.2	6	ILE6	-0.568	
74	  CB	1952.424	587.695	-2004.053	C.3	6	ILE6	0.130	
75	 CG1	1952.444	587.633	-2002.492	C.3	6	ILE6	-0.043	
76	 CG2	1953.866	587.393	-2004.568	C.3	6	ILE6	-0.320	
77	 CD1	1952.714	586.244	-2001.877	C.3	6	ILE6	-0.066	
78	   H	1950.083	588.691	-2003.428	 H	6	ILE6	0.272	
79	  HA	1952.499	589.865	-2004.385	 H	6	ILE6	0.087	
80	  HB	1951.767	586.869	-2004.397	 H	6	ILE6	0.019	
81	2HG1	1951.462	587.952	-2002.096	 H	6	ILE6	0.024	
82	3HG1	1953.160	588.375	-2002.087	 H	6	ILE6	0.024	
83	1HG2	1953.925	587.300	-2005.667	 H	6	ILE6	0.088	
84	2HG2	1954.588	588.176	-2004.266	 H	6	ILE6	0.088	
85	3HG2	1954.256	586.431	-2004.190	 H	6	ILE6	0.088	
86	1HD1	1951.986	585.489	-2002.232	 H	6	ILE6	0.019	
87	2HD1	1953.725	585.865	-2002.113	 H	6	ILE6	0.019	
88	3HD1	1952.638	586.273	-2000.774	 H	6	ILE6	0.019	
89	   N	1950.822	588.330	-2006.734	N.am	7	LEU7	-0.416	
90	  CA	1950.767	588.294	-2008.193	C.3	7	LEU7	-0.052	
91	   C	1950.694	589.689	-2008.765	C.2	7	LEU7	0.597	
92	   O	1951.415	590.052	-2009.707	O.2	7	LEU7	-0.568	
93	  CB	1949.564	587.433	-2008.673	C.3	7	LEU7	-0.110	
94	  CG	1949.491	585.954	-2008.207	C.3	7	LEU7	0.353	
95	 CD1	1948.302	585.248	-2008.872	C.3	7	LEU7	-0.412	
96	 CD2	1950.785	585.175	-2008.498	C.3	7	LEU7	-0.412	
97	   H	1950.130	587.843	-2006.183	 H	7	LEU7	0.272	
98	  HA	1951.709	587.854	-2008.567	 H	7	LEU7	0.092	
99	 2HB	1949.541	587.449	-2009.781	 H	7	LEU7	0.046	
100	 3HB	1948.624	587.936	-2008.369	 H	7	LEU7	0.046	
101	  HG	1949.321	585.946	-2007.110	 H	7	LEU7	-0.036	
102	1HD1	1947.344	585.757	-2008.650	 H	7	LEU7	0.100	
103	2HD1	1948.401	585.208	-2009.974	 H	7	LEU7	0.100	
104	3HD1	1948.195	584.207	-2008.516	 H	7	LEU7	0.100	
105	1HD2	1951.060	585.205	-2009.568	 H	7	LEU7	0.100	
106	2HD2	1951.638	585.587	-2007.927	 H	7	LEU7	0.100	
107	3HD2	1950.704	584.113	-2008.202	 H	7	LEU7	0.100	
108	   N	1949.857	590.529	-2008.259	N.am	8	ASP8	-0.516	
109	  CA	1949.786	591.879	-2008.812	C.3	8	ASP8	0.038	
110	   C	1951.132	592.559	-2008.755	C.2	8	ASP8	0.537	
111	   O	1951.605	593.164	-2009.729	O.2	8	ASP8	-0.582	
112	  CB	1948.708	592.718	-2008.071	C.3	8	ASP8	-0.030	
113	  CG	1948.489	594.138	-2008.611	C.2	8	ASP8	0.799	
114	 OD1	1948.553	594.338	-2009.841	O.co2	8	ASP8	-0.801	
115	 OD2	1948.296	595.064	-2007.795	O.co2	8	ASP8	-0.801	
116	   H	1949.259	590.258	-2007.492	 H	8	ASP8	0.294	
117	  HA	1949.503	591.801	-2009.879	 H	8	ASP8	0.088	
118	 2HB	1948.965	592.801	-2006.999	 H	8	ASP8	-0.012	
119	 3HB	1947.729	592.212	-2008.104	 H	8	ASP8	-0.012	
120	   N	1951.812	592.509	-2007.660	N.am	9	GLU9	-0.516	
121	  CA	1953.115	593.167	-2007.604	C.3	9	GLU9	0.040	
122	   C	1954.033	592.640	-2008.680	C.2	9	GLU9	0.537	
123	   O	1954.697	593.395	-2009.405	O.2	9	GLU9	-0.582	
124	  CB	1953.748	592.959	-2006.198	C.3	9	GLU9	0.056	
125	  CG	1955.130	593.652	-2005.969	C.3	9	GLU9	0.014	
126	  CD	1955.832	593.439	-2004.641	C.2	9	GLU9	0.805	
127	 OE1	1955.311	592.747	-2003.745	O.co2	9	GLU9	-0.819	
128	 OE2	1956.951	593.977	-2004.509	O.co2	9	GLU9	-0.819	
129	   H	1951.449	592.022	-2006.853	 H	9	GLU9	0.294	
130	  HA	1952.972	594.249	-2007.779	 H	9	GLU9	0.111	
131	 2HB	1953.861	591.875	-2005.996	 H	9	GLU9	-0.017	
132	 3HB	1953.051	593.312	-2005.414	 H	9	GLU9	-0.017	
133	 2HG	1955.058	594.743	-2006.108	 H	9	GLU9	-0.043	
134	 3HG	1955.877	593.307	-2006.703	 H	9	GLU9	-0.043	
135	   N	1954.130	591.365	-2008.850	N.am	10	HIS10	-0.416	
136	  CA	1955.018	590.854	-2009.890	C.3	10	HIS10	-0.058	
137	   C	1954.651	591.419	-2011.241	C.2	10	HIS10	0.597	
138	   O	1955.504	591.884	-2012.013	O.2	10	HIS10	-0.568	
139	  CB	1954.855	589.325	-2009.885	C.3	10	HIS10	-0.007	
140	  CG	1956.140	588.615	-2009.578	C.2	10	HIS10	0.187	
141	 CD2	1956.521	588.280	-2008.285	C.2	10	HIS10	-0.221	
142	 ND1	1957.093	588.210	-2010.510	N.2	10	HIS10	-0.543	
143	 CE1	1957.999	587.652	-2009.687	C.2	10	HIS10	0.163	
144	 NE2	1957.736	587.648	-2008.352	N.pl3	10	HIS10	-0.280	
145	   H	1953.599	590.729	-2008.271	 H	10	HIS10	0.272	
146	  HA	1956.037	591.212	-2009.665	 H	10	HIS10	0.136	
147	 2HB	1954.490	588.958	-2010.866	 H	10	HIS10	0.037	
148	 3HB	1954.099	588.988	-2009.146	 H	10	HIS10	0.037	
149	 2HD	1955.935	588.495	-2007.396	 H	10	HIS10	0.186	
150	 1HE	1958.890	587.231	-2010.134	 H	10	HIS10	0.144	
151	 2HE	1958.303	587.271	-2007.578	 H	10	HIS10	0.334	
152	   N	1953.414	591.418	-2011.604	N.am	11	VAL11	-0.416	
153	  CA	1953.059	591.964	-2012.911	C.3	11	VAL11	-0.087	
154	   C	1953.523	593.395	-2013.043	C.2	11	VAL11	0.597	
155	   O	1954.124	593.801	-2014.046	O.2	11	VAL11	-0.568	
156	  CB	1951.498	591.857	-2013.131	C.3	11	VAL11	0.299	
157	 CG1	1950.929	592.561	-2014.394	C.3	11	VAL11	-0.319	
158	 CG2	1950.974	590.403	-2013.205	C.3	11	VAL11	-0.319	
159	   H	1952.701	591.044	-2010.994	 H	11	VAL11	0.272	
160	  HA	1953.579	591.382	-2013.694	 H	11	VAL11	0.097	
161	  HB	1951.010	592.337	-2012.256	 H	11	VAL11	-0.030	
162	1HG1	1951.368	592.170	-2015.331	 H	11	VAL11	0.079	
163	2HG1	1949.830	592.453	-2014.476	 H	11	VAL11	0.079	
164	3HG1	1951.107	593.654	-2014.384	 H	11	VAL11	0.079	
165	1HG2	1951.263	589.815	-2012.314	 H	11	VAL11	0.079	
166	2HG2	1949.868	590.365	-2013.248	 H	11	VAL11	0.079	
167	3HG2	1951.356	589.862	-2014.091	 H	11	VAL11	0.079	
168	   N	1953.285	594.220	-2012.081	N.am	12	SER12	-0.416	
169	  CA	1953.734	595.604	-2012.208	C.3	12	SER12	-0.025	
170	   C	1955.224	595.669	-2012.446	C.2	12	SER12	0.597	
171	   O	1955.714	596.376	-2013.326	O.2	12	SER12	-0.568	
172	  CB	1953.318	596.435	-2010.969	C.3	12	SER12	0.212	
173	  OG	1954.032	596.065	-2009.785	O.3	12	SER12	-0.655	
174	   H	1952.796	593.914	-2011.251	 H	12	SER12	0.272	
175	  HA	1953.248	596.039	-2013.101	 H	12	SER12	0.084	
176	 2HB	1952.229	596.359	-2010.783	 H	12	SER12	0.035	
177	 3HB	1953.499	597.510	-2011.164	 H	12	SER12	0.035	
178	  HG	1953.807	595.152	-2009.587	 H	12	SER12	0.428	
179	   N	1956.008	594.961	-2011.704	N.am	13	ARG13	-0.348	
180	  CA	1957.448	595.025	-2011.935	C.3	13	ARG13	-0.264	
181	   C	1957.784	594.652	-2013.359	C.2	13	ARG13	0.734	
182	   O	1958.554	595.322	-2014.044	O.2	13	ARG13	-0.589	
183	  CB	1958.160	594.085	-2010.920	C.3	13	ARG13	-0.001	
184	  CG	1959.705	594.236	-2010.839	C.3	13	ARG13	0.039	
185	  CD	1960.330	593.248	-2009.840	C.3	13	ARG13	0.049	
186	  NE	1961.808	593.453	-2009.790	N.pl3	13	ARG13	-0.530	
187	  CZ	1962.655	592.760	-2009.034	C.cat	13	ARG13	0.808	
188	 NH1	1962.288	591.797	-2008.236	N.pl3	13	ARG13	-0.863	
189	 NH2	1963.915	593.058	-2009.091	N.pl3	13	ARG13	-0.863	
190	   H	1955.631	594.372	-2010.976	 H	13	ARG13	0.275	
191	  HA	1957.774	596.070	-2011.777	 H	13	ARG13	0.156	
192	 2HB	1957.892	593.035	-2011.159	 H	13	ARG13	0.033	
193	 3HB	1957.735	594.253	-2009.910	 H	13	ARG13	0.033	
194	 2HG	1959.955	595.280	-2010.560	 H	13	ARG13	0.029	
195	 3HG	1960.156	594.079	-2011.840	 H	13	ARG13	0.029	
196	 2HD	1960.084	592.208	-2010.149	 H	13	ARG13	0.069	
197	 3HD	1959.874	593.395	-2008.838	 H	13	ARG13	0.069	
198	  HE	1962.260	594.174	-2010.361	 H	13	ARG13	0.346	
199	1HH1	1961.282	591.612	-2008.239	 H	13	ARG13	0.448	
200	2HH1	1963.000	591.313	-2007.687	 H	13	ARG13	0.448	
201	1HH2	1964.183	593.815	-2009.722	 H	13	ARG13	0.448	
202	2HH2	1964.549	592.516	-2008.501	 H	13	ARG13	0.448	
203	   N	1957.247	593.598	-2013.873	N.am	14	VAL14	-0.416	
204	  CA	1957.571	593.237	-2015.250	C.3	14	VAL14	-0.087	
205	   C	1957.243	594.367	-2016.197	C.2	14	VAL14	0.597	
206	   O	1958.037	594.747	-2017.067	O.2	14	VAL14	-0.568	
207	  CB	1956.797	591.921	-2015.657	C.3	14	VAL14	0.299	
208	 CG1	1956.886	591.501	-2017.150	C.3	14	VAL14	-0.319	
209	 CG2	1957.227	590.668	-2014.855	C.3	14	VAL14	-0.319	
210	   H	1956.611	593.030	-2013.331	 H	14	VAL14	0.272	
211	  HA	1958.659	593.059	-2015.325	 H	14	VAL14	0.097	
212	  HB	1955.721	592.094	-2015.441	 H	14	VAL14	-0.030	
213	1HG1	1957.927	591.323	-2017.478	 H	14	VAL14	0.079	
214	2HG1	1956.312	590.579	-2017.362	 H	14	VAL14	0.079	
215	3HG1	1956.458	592.264	-2017.829	 H	14	VAL14	0.079	
216	1HG2	1957.140	590.828	-2013.765	 H	14	VAL14	0.079	
217	2HG2	1956.590	589.793	-2015.087	 H	14	VAL14	0.079	
218	3HG2	1958.274	590.377	-2015.061	 H	14	VAL14	0.079	
219	   N	1956.099	594.955	-2016.096	N.am	15	MET15	-0.416	
220	  CA	1955.780	596.047	-2017.010	C.3	15	MET15	-0.024	
221	   C	1956.812	597.145	-2016.923	C.2	15	MET15	0.597	
222	   O	1957.316	597.655	-2017.936	O.2	15	MET15	-0.568	
223	  CB	1954.360	596.595	-2016.702	C.3	15	MET15	0.034	
224	  CG	1953.196	595.599	-2016.893	C.3	15	MET15	0.002	
225	  SD	1951.624	596.467	-2016.779	S.3	15	MET15	-0.274	
226	  CE	1950.540	595.039	-2016.642	C.3	15	MET15	-0.054	
227	   H	1955.434	594.663	-2015.394	 H	15	MET15	0.272	
228	  HA	1955.806	595.659	-2018.045	 H	15	MET15	0.088	
229	 2HB	1954.159	597.474	-2017.344	 H	15	MET15	0.024	
230	 3HB	1954.325	596.988	-2015.666	 H	15	MET15	0.024	
231	 2HG	1953.238	594.813	-2016.115	 H	15	MET15	0.044	
232	 3HG	1953.259	595.083	-2017.869	 H	15	MET15	0.044	
233	 1HE	1950.683	594.350	-2017.494	 H	15	MET15	0.068	
234	 2HE	1950.749	594.487	-2015.709	 H	15	MET15	0.068	
235	 3HE	1949.483	595.356	-2016.626	 H	15	MET15	0.068	
236	   N	1957.182	597.567	-2015.761	N.am	16	ARG16	-0.348	
237	  CA	1958.180	598.629	-2015.678	C.3	16	ARG16	-0.264	
238	   C	1959.450	598.234	-2016.394	C.2	16	ARG16	0.734	
239	   O	1959.562	597.157	-2016.975	O.2	16	ARG16	-0.589	
240	  CB	1958.449	598.947	-2014.180	C.3	16	ARG16	-0.001	
241	  CG	1959.277	600.235	-2013.908	C.3	16	ARG16	0.039	
242	  CD	1959.527	600.455	-2012.406	C.3	16	ARG16	0.049	
243	  NE	1960.305	601.713	-2012.206	N.pl3	16	ARG16	-0.530	
244	  CZ	1960.697	602.196	-2011.031	C.cat	16	ARG16	0.808	
245	 NH1	1960.448	601.612	-2009.892	N.pl3	16	ARG16	-0.863	
246	 NH2	1961.363	603.307	-2011.013	N.pl3	16	ARG16	-0.863	
247	   H	1956.786	597.168	-2014.921	 H	16	ARG16	0.275	
248	  HA	1957.772	599.522	-2016.188	 H	16	ARG16	0.156	
249	 2HB	1958.945	598.071	-2013.713	 H	16	ARG16	0.033	
250	 3HB	1957.481	599.030	-2013.646	 H	16	ARG16	0.033	
251	 2HG	1958.748	601.107	-2014.345	 H	16	ARG16	0.029	
252	 3HG	1960.250	600.181	-2014.437	 H	16	ARG16	0.029	
253	 2HD	1960.074	599.580	-2011.993	 H	16	ARG16	0.069	
254	 3HD	1958.554	600.500	-2011.871	 H	16	ARG16	0.069	
255	  HE	1960.584	602.293	-2013.004	 H	16	ARG16	0.346	
256	1HH1	1959.921	600.740	-2009.976	 H	16	ARG16	0.448	
257	2HH1	1960.783	602.048	-2009.031	 H	16	ARG16	0.448	
258	1HH2	1961.549	603.749	-2011.915	 H	16	ARG16	0.448	
259	2HH2	1961.653	603.662	-2010.101	 H	16	ARG16	0.448	
@<TRIPOS>BOND
1 1 2 1
2 1 10 1
3 2 3 1
4 2 5 1
5 2 11 1
6 3 4 2
7 3 16 1
8 5 6 1
9 6 7 1
10 7 8 2
11 7 9 1
12 5 12 1
13 5 13 1
14 6 14 1
15 6 15 1
16 16 17 1
17 16 24 1
18 17 18 1
19 17 20 1
20 17 25 1
21 18 19 2
22 18 30 1
23 20 21 1
24 21 22 1
25 21 23 2
26 20 26 1
27 20 27 1
28 22 28 1
29 22 29 1
30 30 31 1
31 30 36 1
32 31 32 1
33 31 34 1
34 31 37 1
35 32 33 2
36 32 44 1
37 34 35 1
38 35 36 1
39 34 38 1
40 34 39 1
41 35 40 1
42 35 41 1
43 36 42 1
44 36 43 1
45 44 45 1
46 44 53 1
47 45 46 1
48 45 48 1
49 45 54 1
50 46 47 2
51 46 59 1
52 48 49 1
53 49 50 1
54 50 51 2
55 50 52 1
56 48 55 1
57 48 56 1
58 49 57 1
59 49 58 1
60 59 60 1
61 59 65 1
62 60 61 1
63 60 63 1
64 60 66 1
65 61 62 2
66 61 70 1
67 63 64 1
68 63 67 1
69 63 68 1
70 64 69 1
71 70 71 1
72 70 78 1
73 71 72 1
74 71 74 1
75 71 79 1
76 72 73 2
77 72 89 1
78 74 75 1
79 74 76 1
80 75 77 1
81 74 80 1
82 75 81 1
83 75 82 1
84 76 83 1
85 76 84 1
86 76 85 1
87 77 86 1
88 77 87 1
89 77 88 1
90 89 90 1
91 89 97 1
92 90 91 1
93 90 93 1
94 90 98 1
95 91 92 2
96 91 108 1
97 93 94 1
98 94 95 1
99 94 96 1
100 93 99 1
101 93 100 1
102 94 101 1
103 95 102 1
104 95 103 1
105 95 104 1
106 96 105 1
107 96 106 1
108 96 107 1
109 108 109 1
110 108 116 1
111 109 110 1
112 109 112 1
113 109 117 1
114 110 111 2
115 110 120 1
116 112 113 1
117 113 114 2
118 113 115 1
119 112 118 1
120 112 119 1
121 120 121 1
122 120 129 1
123 121 122 1
124 121 124 1
125 121 130 1
126 122 123 2
127 122 135 1
128 124 125 1
129 125 126 1
130 126 127 2
131 126 128 1
132 124 131 1
133 124 132 1
134 125 133 1
135 125 134 1
136 135 136 1
137 135 145 1
138 136 137 1
139 136 139 1
140 136 146 1
141 137 138 2
142 137 152 1
143 139 140 1
144 140 141 2
145 141 144 1
146 140 142 1
147 142 143 2
148 143 144 1
149 139 147 1
150 139 148 1
151 141 149 1
152 143 150 1
153 144 151 1
154 152 153 1
155 152 159 1
156 153 154 1
157 153 156 1
158 153 160 1
159 154 155 2
160 154 168 1
161 156 157 1
162 156 158 1
163 156 161 1
164 157 162 1
165 157 163 1
166 157 164 1
167 158 165 1
168 158 166 1
169 158 167 1
170 168 169 1
171 168 174 1
172 169 170 1
173 169 172 1
174 169 175 1
175 170 171 2
176 170 179 1
177 172 173 1
178 172 176 1
179 172 177 1
180 173 178 1
181 179 180 1
182 179 190 1
183 180 181 1
184 180 183 1
185 180 191 1
186 181 182 2
187 181 203 1
188 183 184 1
189 184 185 1
190 185 186 1
191 186 187 1
192 187 188 2
193 187 189 1
194 183 192 1
195 183 193 1
196 184 194 1
197 184 195 1
198 185 196 1
199 185 197 1
200 186 198 1
201 188 199 1
202 188 200 1
203 189 201 1
204 189 202 1
205 203 204 1
206 203 210 1
207 204 205 1
208 204 207 1
209 204 211 1
210 205 206 2
211 205 219 1
212 207 208 1
213 207 209 1
214 207 212 1
215 208 213 1
216 208 214 1
217 208 215 1
218 209 216 1
219 209 217 1
220 209 218 1
221 219 220 1
222 219 227 1
223 220 221 1
224 220 223 1
225 220 228 1
226 221 222 2
227 221 236 1
228 223 224 1
229 224 225 1
230 225 226 1
231 223 229 1
232 223 230 1
233 224 231 1
234 224 232 1
235 226 233 1
236 226 234 1
237 226 235 1
238 236 237 1
239 236 247 1
240 237 238 1
241 237 240 1
242 237 248 1
243 238 239 2
244 240 241 1
245 241 242 1
246 242 243 1
247 243 244 1
248 244 245 2
249 244 246 1
250 240 249 1
251 240 250 1
252 241 251 1
253 241 252 1
254 242 253 1
255 242 254 1
256 243 255 1
257 245 256 1
258 245 257 1
259 246 258 1
260 246 259 1
@<TRIPOS>SUBSTRUCTURE
1	GLU1	1	RESIDUE	1 ****	GLU
2	ASN2	16	RESIDUE	1 ****	ASN
3	PRO3	30	RESIDUE	1 ****	PRO
4	GLU4	44	RESIDUE	1 ****	GLU
5	SER5	59	RESIDUE	1 ****	SER
6	ILE6	70	RESIDUE	1 ****	ILE
7	LEU7	89	RESIDUE	1 ****	LEU
8	ASP8	108	RESIDUE	1 ****	ASP
9	GLU9	120	RESIDUE	1 ****	GLU
10	HIS10	135	RESIDUE	1 ****	HIS
11	VAL11	152	RESIDUE	1 ****	VAL
12	SER12	168	RESIDUE	1 ****	SER
13	ARG13	179	RESIDUE	1 ****	ARG
14	VAL14	203	RESIDUE	1 ****	VAL
15	MET15	219	RESIDUE	1 ****	MET
16	ARG16	236	RESIDUE	1 ****	ARG
