@<TRIPOS>MOLECULE
13-10
265 268 16              
SMALL
USER_CHARGES
@<TRIPOS>ATOM
1	   N	2080.792	631.639	-2151.320	N.3	1	GLU1	-0.516	
2	  CA	2081.351	632.988	-2151.320	C.3	1	GLU1	0.040	
3	   C	2082.860	632.948	-2151.320	C.2	1	GLU1	0.537	
4	   O	2083.536	633.647	-2152.089	O.2	1	GLU1	-0.582	
5	  CB	2080.828	633.773	-2150.083	C.3	1	GLU1	0.056	
6	  CG	2081.303	635.258	-2149.972	C.3	1	GLU1	0.014	
7	  CD	2080.879	636.062	-2148.757	C.2	1	GLU1	0.805	
8	 OE1	2080.151	635.560	-2147.879	O.co2	1	GLU1	-0.819	
9	 OE2	2081.309	637.232	-2148.685	O.co2	1	GLU1	-0.819	
10	   H	2081.419	630.760	-2151.320	 H	1	GLU1	0.294	
11	  HA	2081.025	633.506	-2152.240	 H	1	GLU1	0.111	
12	 2HB	2081.117	633.242	-2149.153	 H	1	GLU1	-0.017	
13	 3HB	2079.721	633.763	-2150.070	 H	1	GLU1	-0.017	
14	 2HG	2080.993	635.843	-2150.853	 H	1	GLU1	-0.043	
15	 3HG	2082.403	635.325	-2149.943	 H	1	GLU1	-0.043	
16	   N	2083.465	632.162	-2150.495	N.am	2	ASN2	-0.416	
17	  CA	2084.924	632.123	-2150.495	C.3	2	ASN2	0.014	
18	   C	2085.455	631.767	-2151.864	C.2	2	ASN2	0.597	
19	   O	2086.370	632.398	-2152.392	O.2	2	ASN2	-0.568	
20	  CB	2085.416	631.100	-2149.430	C.3	2	ASN2	-0.204	
21	  CG	2084.952	631.324	-2147.987	C.2	2	ASN2	0.713	
22	 ND2	2085.546	632.239	-2147.269	N.pl3	2	ASN2	-0.919	
23	 OD1	2084.031	630.690	-2147.493	O.2	2	ASN2	-0.593	
24	   H	2082.936	631.582	-2149.859	 H	2	ASN2	0.272	
25	  HA	2085.302	633.133	-2150.250	 H	2	ASN2	0.105	
26	 2HB	2086.520	631.041	-2149.434	 H	2	ASN2	0.080	
27	 3HB	2085.086	630.082	-2149.716	 H	2	ASN2	0.080	
28	1HD2	2085.065	632.412	-2146.383	 H	2	ASN2	0.420	
29	2HD2	2086.248	632.810	-2147.738	 H	2	ASN2	0.420	
30	   N	2084.934	630.773	-2152.498	N.am	3	PRO3	-0.255	
31	  CA	2085.386	630.363	-2153.819	C.3	3	PRO3	-0.027	
32	   C	2084.988	631.387	-2154.896	C.2	3	PRO3	0.590	
33	   O	2085.812	631.770	-2155.728	O.2	3	PRO3	-0.575	
34	  CB	2084.682	629.009	-2153.989	C.3	3	PRO3	-0.007	
35	  CG	2083.398	629.161	-2153.159	C.3	3	PRO3	0.019	
36	  CD	2083.855	629.980	-2151.949	C.3	3	PRO3	0.019	
37	  HA	2086.472	630.243	-2153.833	 H	3	PRO3	0.064	
38	 2HB	2085.304	628.228	-2153.548	 H	3	PRO3	0.025	
39	 3HB	2084.484	628.760	-2155.034	 H	3	PRO3	0.025	
40	 2HG	2082.970	628.199	-2152.868	 H	3	PRO3	0.021	
41	 3HG	2082.661	629.732	-2153.727	 H	3	PRO3	0.021	
42	 2HD	2084.244	629.330	-2151.162	 H	3	PRO3	0.039	
43	 3HD	2083.059	630.616	-2151.556	 H	3	PRO3	0.039	
44	   N	2083.783	631.847	-2154.929	N.am	4	GLU4	-0.516	
45	  CA	2083.424	632.818	-2155.959	C.3	4	GLU4	0.040	
46	   C	2084.323	634.029	-2155.897	C.2	4	GLU4	0.537	
47	   O	2084.850	634.508	-2156.911	O.2	4	GLU4	-0.582	
48	  CB	2081.936	633.237	-2155.789	C.3	4	GLU4	0.056	
49	  CG	2081.388	634.241	-2156.855	C.3	4	GLU4	0.014	
50	  CD	2079.962	634.738	-2156.712	C.2	4	GLU4	0.805	
51	 OE1	2079.235	634.340	-2155.781	O.co2	4	GLU4	-0.819	
52	 OE2	2079.573	635.567	-2157.560	O.co2	4	GLU4	-0.819	
53	   H	2083.099	631.541	-2154.252	 H	4	GLU4	0.294	
54	  HA	2083.556	632.348	-2156.950	 H	4	GLU4	0.111	
55	 2HB	2081.783	633.677	-2154.782	 H	4	GLU4	-0.017	
56	 3HB	2081.288	632.339	-2155.795	 H	4	GLU4	-0.017	
57	 2HG	2081.470	633.826	-2157.873	 H	4	GLU4	-0.043	
58	 3HG	2081.977	635.173	-2156.866	 H	4	GLU4	-0.043	
59	   N	2084.551	634.581	-2154.754	N.am	5	SER5	-0.416	
60	  CA	2085.420	635.753	-2154.695	C.3	5	SER5	-0.025	
61	   C	2086.779	635.446	-2155.280	C.2	5	SER5	0.597	
62	   O	2087.327	636.200	-2156.085	O.2	5	SER5	-0.568	
63	  CB	2085.532	636.285	-2153.245	C.3	5	SER5	0.212	
64	  OG	2086.263	635.405	-2152.384	O.3	5	SER5	-0.655	
65	   H	2084.133	634.210	-2153.913	 H	5	SER5	0.272	
66	  HA	2084.971	636.543	-2155.324	 H	5	SER5	0.084	
67	 2HB	2084.532	636.479	-2152.812	 H	5	SER5	0.035	
68	 3HB	2086.037	637.270	-2153.247	 H	5	SER5	0.035	
69	  HG	2085.774	634.580	-2152.333	 H	5	SER5	0.428	
70	   N	2087.384	634.363	-2154.926	N.am	6	ILE6	-0.416	
71	  CA	2088.697	634.068	-2155.492	C.3	6	ILE6	-0.060	
72	   C	2088.640	634.030	-2157.000	C.2	6	ILE6	0.597	
73	   O	2089.474	634.617	-2157.704	O.2	6	ILE6	-0.568	
74	  CB	2089.296	632.731	-2154.892	C.3	6	ILE6	0.130	
75	 CG1	2089.315	632.669	-2153.331	C.3	6	ILE6	-0.043	
76	 CG2	2090.737	632.429	-2155.407	C.3	6	ILE6	-0.320	
77	 CD1	2089.584	631.280	-2152.716	C.3	6	ILE6	-0.066	
78	   H	2086.955	633.729	-2154.267	 H	6	ILE6	0.272	
79	  HA	2089.371	634.902	-2155.224	 H	6	ILE6	0.087	
80	  HB	2088.638	631.906	-2155.236	 H	6	ILE6	0.019	
81	2HG1	2088.333	632.989	-2152.935	 H	6	ILE6	0.024	
82	3HG1	2090.031	633.411	-2152.926	 H	6	ILE6	0.024	
83	1HG2	2090.796	632.336	-2156.505	 H	6	ILE6	0.088	
84	2HG2	2091.459	633.211	-2155.104	 H	6	ILE6	0.088	
85	3HG2	2091.127	631.467	-2155.028	 H	6	ILE6	0.088	
86	1HD1	2088.855	630.526	-2153.071	 H	6	ILE6	0.019	
87	2HD1	2090.594	630.901	-2152.951	 H	6	ILE6	0.019	
88	3HD1	2089.508	631.310	-2151.613	 H	6	ILE6	0.019	
89	   N	2087.694	633.367	-2157.573	N.am	7	LEU7	-0.416	
90	  CA	2087.639	633.331	-2159.032	C.3	7	LEU7	-0.052	
91	   C	2087.567	634.726	-2159.605	C.2	7	LEU7	0.597	
92	   O	2088.288	635.088	-2160.547	O.2	7	LEU7	-0.568	
93	  CB	2086.435	632.471	-2159.512	C.3	7	LEU7	-0.110	
94	  CG	2086.362	630.992	-2159.046	C.3	7	LEU7	0.353	
95	 CD1	2085.172	630.286	-2159.711	C.3	7	LEU7	-0.412	
96	 CD2	2087.656	630.212	-2159.337	C.3	7	LEU7	-0.412	
97	   H	2087.001	632.880	-2157.022	 H	7	LEU7	0.272	
98	  HA	2088.580	632.890	-2159.406	 H	7	LEU7	0.092	
99	 2HB	2086.412	632.487	-2160.620	 H	7	LEU7	0.046	
100	 3HB	2085.496	632.974	-2159.208	 H	7	LEU7	0.046	
101	  HG	2086.192	630.984	-2157.948	 H	7	LEU7	-0.036	
102	1HD1	2084.215	630.795	-2159.489	 H	7	LEU7	0.100	
103	2HD1	2085.271	630.245	-2160.812	 H	7	LEU7	0.100	
104	3HD1	2085.065	629.245	-2159.355	 H	7	LEU7	0.100	
105	1HD2	2087.931	630.242	-2160.407	 H	7	LEU7	0.100	
106	2HD2	2088.509	630.623	-2158.766	 H	7	LEU7	0.100	
107	3HD2	2087.574	629.150	-2159.041	 H	7	LEU7	0.100	
108	   N	2086.730	635.567	-2159.099	N.am	8	ASP8	-0.516	
109	  CA	2086.660	636.917	-2159.653	C.3	8	ASP8	0.038	
110	   C	2088.007	637.596	-2159.596	C.2	8	ASP8	0.537	
111	   O	2088.480	638.200	-2160.571	O.2	8	ASP8	-0.582	
112	  CB	2085.582	637.757	-2158.912	C.3	8	ASP8	-0.030	
113	  CG	2085.364	639.177	-2159.453	C.2	8	ASP8	0.799	
114	 OD1	2085.429	639.375	-2160.684	O.co2	8	ASP8	-0.801	
115	 OD2	2085.173	640.104	-2158.638	O.co2	8	ASP8	-0.801	
116	   H	2086.132	635.297	-2158.331	 H	8	ASP8	0.294	
117	  HA	2086.377	636.838	-2160.720	 H	8	ASP8	0.088	
118	 2HB	2085.840	637.840	-2157.840	 H	8	ASP8	-0.012	
119	 3HB	2084.603	637.252	-2158.945	 H	8	ASP8	-0.012	
120	   N	2088.687	637.546	-2158.501	N.am	9	GLU9	-0.516	
121	  CA	2089.990	638.203	-2158.446	C.3	9	GLU9	0.040	
122	   C	2090.908	637.674	-2159.522	C.2	9	GLU9	0.537	
123	   O	2091.572	638.428	-2160.248	O.2	9	GLU9	-0.582	
124	  CB	2090.624	637.996	-2157.041	C.3	9	GLU9	0.056	
125	  CG	2092.007	638.688	-2156.812	C.3	9	GLU9	0.014	
126	  CD	2092.709	638.474	-2155.484	C.2	9	GLU9	0.805	
127	 OE1	2092.187	637.784	-2154.587	O.co2	9	GLU9	-0.819	
128	 OE2	2093.828	639.012	-2155.353	O.co2	9	GLU9	-0.819	
129	   H	2088.323	637.060	-2157.694	 H	9	GLU9	0.294	
130	  HA	2089.848	639.285	-2158.622	 H	9	GLU9	0.111	
131	 2HB	2090.736	636.911	-2156.837	 H	9	GLU9	-0.017	
132	 3HB	2089.927	638.350	-2156.257	 H	9	GLU9	-0.017	
133	 2HG	2091.935	639.778	-2156.952	 H	9	GLU9	-0.043	
134	 3HG	2092.753	638.342	-2157.546	 H	9	GLU9	-0.043	
135	   N	2091.004	636.399	-2159.691	N.am	10	HIS10	-0.416	
136	  CA	2091.891	635.887	-2160.731	C.3	10	HIS10	-0.058	
137	   C	2091.524	636.451	-2162.083	C.2	10	HIS10	0.597	
138	   O	2092.377	636.915	-2162.855	O.2	10	HIS10	-0.568	
139	  CB	2091.726	634.358	-2160.726	C.3	10	HIS10	-0.007	
140	  CG	2093.012	633.647	-2160.418	C.2	10	HIS10	0.187	
141	 CD2	2093.393	633.313	-2159.125	C.2	10	HIS10	-0.221	
142	 ND1	2093.963	633.240	-2161.350	N.2	10	HIS10	-0.543	
143	 CE1	2094.870	632.682	-2160.527	C.2	10	HIS10	0.163	
144	 NE2	2094.607	632.680	-2159.192	N.pl3	10	HIS10	-0.280	
145	   H	2090.473	635.764	-2159.112	 H	10	HIS10	0.272	
146	  HA	2092.910	636.244	-2160.507	 H	10	HIS10	0.136	
147	 2HB	2091.360	633.991	-2161.705	 H	10	HIS10	0.037	
148	 3HB	2090.971	634.022	-2159.985	 H	10	HIS10	0.037	
149	 2HD	2092.808	633.528	-2158.236	 H	10	HIS10	0.186	
150	 1HE	2095.760	632.261	-2160.974	 H	10	HIS10	0.144	
151	 2HE	2095.174	632.303	-2158.419	 H	10	HIS10	0.334	
152	   N	2090.286	636.451	-2162.446	N.am	11	VAL11	-0.416	
153	  CA	2089.931	636.996	-2163.753	C.3	11	VAL11	-0.087	
154	   C	2090.396	638.426	-2163.886	C.2	11	VAL11	0.597	
155	   O	2090.997	638.831	-2164.889	O.2	11	VAL11	-0.568	
156	  CB	2088.370	636.890	-2163.972	C.3	11	VAL11	0.299	
157	 CG1	2087.801	637.594	-2165.235	C.3	11	VAL11	-0.319	
158	 CG2	2087.844	635.436	-2164.044	C.3	11	VAL11	-0.319	
159	   H	2089.573	636.078	-2161.835	 H	11	VAL11	0.272	
160	  HA	2090.450	636.413	-2164.535	 H	11	VAL11	0.097	
161	  HB	2087.883	637.371	-2163.097	 H	11	VAL11	-0.030	
162	1HG1	2088.240	637.201	-2166.172	 H	11	VAL11	0.079	
163	2HG1	2086.702	637.487	-2165.317	 H	11	VAL11	0.079	
164	3HG1	2087.980	638.686	-2165.226	 H	11	VAL11	0.079	
165	1HG2	2088.134	634.849	-2163.153	 H	11	VAL11	0.079	
166	2HG2	2086.739	635.400	-2164.086	 H	11	VAL11	0.079	
167	3HG2	2088.226	634.895	-2164.930	 H	11	VAL11	0.079	
168	   N	2090.160	639.253	-2162.924	N.am	12	GLN12	-0.416	
169	  CA	2090.609	640.635	-2163.052	C.3	12	GLN12	-0.003	
170	   C	2092.099	640.702	-2163.290	C.2	12	GLN12	0.597	
171	   O	2092.586	641.409	-2164.169	O.2	12	GLN12	-0.568	
172	  CB	2090.219	641.404	-2161.770	C.3	12	GLN12	-0.004	
173	  CG	2090.580	642.925	-2161.739	C.3	12	GLN12	-0.064	
174	  CD	2090.279	643.740	-2160.475	C.2	12	GLN12	0.695	
175	 NE2	2089.711	643.164	-2159.446	N.pl3	12	GLN12	-0.941	
176	 OE1	2090.581	644.920	-2160.398	O.2	12	GLN12	-0.609	
177	   H	2089.671	638.947	-2162.094	 H	12	GLN12	0.272	
178	  HA	2090.110	641.091	-2163.927	 H	12	GLN12	0.085	
179	 2HB	2090.695	640.904	-2160.900	 H	12	GLN12	0.017	
180	 3HB	2089.129	641.297	-2161.606	 H	12	GLN12	0.017	
181	 2HG	2090.103	643.446	-2162.590	 H	12	GLN12	0.035	
182	 3HG	2091.664	643.067	-2161.905	 H	12	GLN12	0.035	
183	1HE2	2089.605	643.759	-2158.622	 H	12	GLN12	0.425	
184	2HE2	2089.547	642.161	-2159.548	 H	12	GLN12	0.425	
185	   N	2092.883	639.995	-2162.549	N.am	13	TRP13	-0.416	
186	  CA	2094.323	640.059	-2162.780	C.3	13	TRP13	-0.027	
187	   C	2094.661	639.686	-2164.204	C.2	13	TRP13	0.597	
188	   O	2095.432	640.359	-2164.887	O.2	13	TRP13	-0.568	
189	  CB	2095.039	639.088	-2161.799	C.3	13	TRP13	-0.005	
190	  CG	2094.931	639.475	-2160.321	C.2	13	TRP13	-0.141	
191	 CD1	2093.991	638.962	-2159.403	C.2	13	TRP13	-0.164	
192	 CD2	2095.643	640.437	-2159.635	C.2	13	TRP13	0.124	
193	 CE2	2095.135	640.494	-2158.314	C.2	13	TRP13	0.138	
194	 CE3	2096.689	641.304	-2160.045	C.2	13	TRP13	-0.239	
195	 NE1	2094.104	639.582	-2158.144	N.pl3	13	TRP13	-0.342	
196	 CZ2	2095.676	641.413	-2157.388	C.2	13	TRP13	-0.260	
197	 CZ3	2097.211	642.198	-2159.110	C.2	13	TRP13	-0.197	
198	 CH2	2096.716	642.251	-2157.800	C.2	13	TRP13	-0.113	
199	   H	2092.507	639.405	-2161.820	 H	13	TRP13	0.272	
200	  HA	2094.671	641.096	-2162.614	 H	13	TRP13	0.112	
201	 2HB	2096.115	639.017	-2162.048	 H	13	TRP13	0.034	
202	 3HB	2094.658	638.057	-2161.938	 H	13	TRP13	0.034	
203	 1HD	2093.246	638.219	-2159.655	 H	13	TRP13	0.206	
204	 1HE	2093.527	639.434	-2157.309	 H	13	TRP13	0.341	
205	 3HE	2097.073	641.275	-2161.055	 H	13	TRP13	0.170	
206	 2HZ	2095.291	641.462	-2156.381	 H	13	TRP13	0.157	
207	 3HZ	2098.014	642.860	-2159.404	 H	13	TRP13	0.145	
208	 2HH	2097.143	642.950	-2157.099	 H	13	TRP13	0.142	
209	   N	2094.125	638.632	-2164.719	N.am	14	VAL14	-0.416	
210	  CA	2094.452	638.273	-2166.096	C.3	14	VAL14	-0.087	
211	   C	2094.125	639.403	-2167.042	C.2	14	VAL14	0.597	
212	   O	2094.919	639.784	-2167.911	O.2	14	VAL14	-0.568	
213	  CB	2093.680	636.956	-2166.505	C.3	14	VAL14	0.299	
214	 CG1	2093.771	636.538	-2167.998	C.3	14	VAL14	-0.319	
215	 CG2	2094.110	635.703	-2165.704	C.3	14	VAL14	-0.319	
216	   H	2093.489	638.064	-2164.179	 H	14	VAL14	0.272	
217	  HA	2095.541	638.095	-2166.169	 H	14	VAL14	0.097	
218	  HB	2092.603	637.128	-2166.291	 H	14	VAL14	-0.030	
219	1HG1	2094.813	636.360	-2168.325	 H	14	VAL14	0.079	
220	2HG1	2093.198	635.615	-2168.212	 H	14	VAL14	0.079	
221	3HG1	2093.344	637.300	-2168.677	 H	14	VAL14	0.079	
222	1HG2	2094.021	635.862	-2164.614	 H	14	VAL14	0.079	
223	2HG2	2093.474	634.827	-2165.937	 H	14	VAL14	0.079	
224	3HG2	2095.157	635.413	-2165.908	 H	14	VAL14	0.079	
225	   N	2092.980	639.990	-2166.942	N.am	15	MET15	-0.416	
226	  CA	2092.662	641.083	-2167.857	C.3	15	MET15	-0.024	
227	   C	2093.693	642.182	-2167.767	C.2	15	MET15	0.597	
228	   O	2094.198	642.693	-2168.778	O.2	15	MET15	-0.568	
229	  CB	2091.240	641.630	-2167.550	C.3	15	MET15	0.034	
230	  CG	2090.078	640.632	-2167.744	C.3	15	MET15	0.002	
231	  SD	2088.505	641.500	-2167.632	S.3	15	MET15	-0.274	
232	  CE	2087.422	640.071	-2167.497	C.3	15	MET15	-0.054	
233	   H	2092.314	639.697	-2166.242	 H	15	MET15	0.272	
234	  HA	2092.689	640.696	-2168.892	 H	15	MET15	0.088	
235	 2HB	2091.040	642.509	-2168.192	 H	15	MET15	0.024	
236	 3HB	2091.204	642.022	-2166.513	 H	15	MET15	0.024	
237	 2HG	2090.119	639.846	-2166.966	 H	15	MET15	0.044	
238	 3HG	2090.142	640.117	-2168.720	 H	15	MET15	0.044	
239	 1HE	2087.567	639.383	-2168.349	 H	15	MET15	0.068	
240	 2HE	2087.629	639.518	-2166.564	 H	15	MET15	0.068	
241	 3HE	2086.365	640.387	-2167.482	 H	15	MET15	0.068	
242	   N	2094.060	642.602	-2166.604	N.am	16	ARG16	-0.348	
243	  CA	2095.057	643.665	-2166.518	C.3	16	ARG16	-0.264	
244	   C	2096.328	643.272	-2167.232	C.2	16	ARG16	0.734	
245	   O	2096.443	642.195	-2167.813	O.2	16	ARG16	-0.589	
246	  CB	2095.323	643.983	-2165.019	C.3	16	ARG16	-0.001	
247	  CG	2096.149	645.271	-2164.744	C.3	16	ARG16	0.039	
248	  CD	2096.396	645.490	-2163.243	C.3	16	ARG16	0.049	
249	  NE	2097.173	646.748	-2163.040	N.pl3	16	ARG16	-0.530	
250	  CZ	2097.562	647.230	-2161.864	C.cat	16	ARG16	0.808	
251	 NH1	2097.312	646.646	-2160.725	N.pl3	16	ARG16	-0.863	
252	 NH2	2098.227	648.342	-2161.844	N.pl3	16	ARG16	-0.863	
253	   H	2093.663	642.202	-2165.765	 H	16	ARG16	0.275	
254	  HA	2094.649	644.559	-2167.028	 H	16	ARG16	0.156	
255	 2HB	2095.819	643.106	-2164.552	 H	16	ARG16	0.033	
256	 3HB	2094.354	644.064	-2164.487	 H	16	ARG16	0.033	
257	 2HG	2095.620	646.142	-2165.182	 H	16	ARG16	0.029	
258	 3HG	2097.124	645.218	-2165.271	 H	16	ARG16	0.029	
259	 2HD	2096.943	644.615	-2162.828	 H	16	ARG16	0.069	
260	 3HD	2095.422	645.533	-2162.709	 H	16	ARG16	0.069	
261	  HE	2097.453	647.329	-2163.836	 H	16	ARG16	0.346	
262	1HH1	2096.786	645.773	-2160.811	 H	16	ARG16	0.448	
263	2HH1	2097.645	647.081	-2159.864	 H	16	ARG16	0.448	
264	1HH2	2098.414	648.785	-2162.745	 H	16	ARG16	0.448	
265	2HH2	2098.516	648.697	-2160.930	 H	16	ARG16	0.448	
@<TRIPOS>BOND
1 1 2 1
2 1 10 1
3 2 3 1
4 2 5 1
5 2 11 1
6 3 4 2
7 3 16 1
8 5 6 1
9 6 7 1
10 7 8 2
11 7 9 1
12 5 12 1
13 5 13 1
14 6 14 1
15 6 15 1
16 16 17 1
17 16 24 1
18 17 18 1
19 17 20 1
20 17 25 1
21 18 19 2
22 18 30 1
23 20 21 1
24 21 22 1
25 21 23 2
26 20 26 1
27 20 27 1
28 22 28 1
29 22 29 1
30 30 31 1
31 30 36 1
32 31 32 1
33 31 34 1
34 31 37 1
35 32 33 2
36 32 44 1
37 34 35 1
38 35 36 1
39 34 38 1
40 34 39 1
41 35 40 1
42 35 41 1
43 36 42 1
44 36 43 1
45 44 45 1
46 44 53 1
47 45 46 1
48 45 48 1
49 45 54 1
50 46 47 2
51 46 59 1
52 48 49 1
53 49 50 1
54 50 51 2
55 50 52 1
56 48 55 1
57 48 56 1
58 49 57 1
59 49 58 1
60 59 60 1
61 59 65 1
62 60 61 1
63 60 63 1
64 60 66 1
65 61 62 2
66 61 70 1
67 63 64 1
68 63 67 1
69 63 68 1
70 64 69 1
71 70 71 1
72 70 78 1
73 71 72 1
74 71 74 1
75 71 79 1
76 72 73 2
77 72 89 1
78 74 75 1
79 74 76 1
80 75 77 1
81 74 80 1
82 75 81 1
83 75 82 1
84 76 83 1
85 76 84 1
86 76 85 1
87 77 86 1
88 77 87 1
89 77 88 1
90 89 90 1
91 89 97 1
92 90 91 1
93 90 93 1
94 90 98 1
95 91 92 2
96 91 108 1
97 93 94 1
98 94 95 1
99 94 96 1
100 93 99 1
101 93 100 1
102 94 101 1
103 95 102 1
104 95 103 1
105 95 104 1
106 96 105 1
107 96 106 1
108 96 107 1
109 108 109 1
110 108 116 1
111 109 110 1
112 109 112 1
113 109 117 1
114 110 111 2
115 110 120 1
116 112 113 1
117 113 114 2
118 113 115 1
119 112 118 1
120 112 119 1
121 120 121 1
122 120 129 1
123 121 122 1
124 121 124 1
125 121 130 1
126 122 123 2
127 122 135 1
128 124 125 1
129 125 126 1
130 126 127 2
131 126 128 1
132 124 131 1
133 124 132 1
134 125 133 1
135 125 134 1
136 135 136 1
137 135 145 1
138 136 137 1
139 136 139 1
140 136 146 1
141 137 138 2
142 137 152 1
143 139 140 1
144 140 141 2
145 141 144 1
146 140 142 1
147 142 143 2
148 143 144 1
149 139 147 1
150 139 148 1
151 141 149 1
152 143 150 1
153 144 151 1
154 152 153 1
155 152 159 1
156 153 154 1
157 153 156 1
158 153 160 1
159 154 155 2
160 154 168 1
161 156 157 1
162 156 158 1
163 156 161 1
164 157 162 1
165 157 163 1
166 157 164 1
167 158 165 1
168 158 166 1
169 158 167 1
170 168 169 1
171 168 177 1
172 169 170 1
173 169 172 1
174 169 178 1
175 170 171 2
176 170 185 1
177 172 173 1
178 173 174 1
179 174 175 1
180 174 176 2
181 172 179 1
182 172 180 1
183 173 181 1
184 173 182 1
185 175 183 1
186 175 184 1
187 185 186 1
188 185 199 1
189 186 187 1
190 186 189 1
191 186 200 1
192 187 188 2
193 187 209 1
194 189 190 1
195 190 192 1
196 190 191 2
197 192 194 1
198 192 193 2
199 193 195 1
200 194 197 2
201 191 195 1
202 193 196 1
203 197 198 1
204 196 198 2
205 189 201 1
206 189 202 1
207 191 203 1
208 195 204 1
209 194 205 1
210 196 206 1
211 197 207 1
212 198 208 1
213 209 210 1
214 209 216 1
215 210 211 1
216 210 213 1
217 210 217 1
218 211 212 2
219 211 225 1
220 213 214 1
221 213 215 1
222 213 218 1
223 214 219 1
224 214 220 1
225 214 221 1
226 215 222 1
227 215 223 1
228 215 224 1
229 225 226 1
230 225 233 1
231 226 227 1
232 226 229 1
233 226 234 1
234 227 228 2
235 227 242 1
236 229 230 1
237 230 231 1
238 231 232 1
239 229 235 1
240 229 236 1
241 230 237 1
242 230 238 1
243 232 239 1
244 232 240 1
245 232 241 1
246 242 243 1
247 242 253 1
248 243 244 1
249 243 246 1
250 243 254 1
251 244 245 2
252 246 247 1
253 247 248 1
254 248 249 1
255 249 250 1
256 250 251 2
257 250 252 1
258 246 255 1
259 246 256 1
260 247 257 1
261 247 258 1
262 248 259 1
263 248 260 1
264 249 261 1
265 251 262 1
266 251 263 1
267 252 264 1
268 252 265 1
@<TRIPOS>SUBSTRUCTURE
1	GLU1	1	RESIDUE	1 ****	GLU
2	ASN2	16	RESIDUE	1 ****	ASN
3	PRO3	30	RESIDUE	1 ****	PRO
4	GLU4	44	RESIDUE	1 ****	GLU
5	SER5	59	RESIDUE	1 ****	SER
6	ILE6	70	RESIDUE	1 ****	ILE
7	LEU7	89	RESIDUE	1 ****	LEU
8	ASP8	108	RESIDUE	1 ****	ASP
9	GLU9	120	RESIDUE	1 ****	GLU
10	HIS10	135	RESIDUE	1 ****	HIS
11	VAL11	152	RESIDUE	1 ****	VAL
12	GLN12	168	RESIDUE	1 ****	GLN
13	TRP13	185	RESIDUE	1 ****	TRP
14	VAL14	209	RESIDUE	1 ****	VAL
15	MET15	225	RESIDUE	1 ****	MET
16	ARG16	242	RESIDUE	1 ****	ARG
