@<TRIPOS>MOLECULE
14-8
269 271 16              
SMALL
USER_CHARGES
@<TRIPOS>ATOM
1	   N	2225.563	679.441	-2310.805	N.3	1	GLU1	-0.516	
2	  CA	2226.122	680.790	-2310.805	C.3	1	GLU1	0.040	
3	   C	2227.631	680.750	-2310.805	C.2	1	GLU1	0.537	
4	   O	2228.307	681.449	-2311.573	O.2	1	GLU1	-0.582	
5	  CB	2225.599	681.575	-2309.568	C.3	1	GLU1	0.056	
6	  CG	2226.074	683.060	-2309.457	C.3	1	GLU1	0.014	
7	  CD	2225.650	683.864	-2308.242	C.2	1	GLU1	0.805	
8	 OE1	2224.922	683.362	-2307.364	O.co2	1	GLU1	-0.819	
9	 OE2	2226.080	685.034	-2308.170	O.co2	1	GLU1	-0.819	
10	   H	2226.190	678.562	-2310.805	 H	1	GLU1	0.294	
11	  HA	2225.796	681.308	-2311.725	 H	1	GLU1	0.111	
12	 2HB	2225.888	681.044	-2308.638	 H	1	GLU1	-0.017	
13	 3HB	2224.492	681.565	-2309.555	 H	1	GLU1	-0.017	
14	 2HG	2225.764	683.645	-2310.338	 H	1	GLU1	-0.043	
15	 3HG	2227.174	683.127	-2309.428	 H	1	GLU1	-0.043	
16	   N	2228.235	679.964	-2309.980	N.am	2	ASN2	-0.416	
17	  CA	2229.695	679.926	-2309.979	C.3	2	ASN2	0.014	
18	   C	2230.226	679.570	-2311.348	C.2	2	ASN2	0.597	
19	   O	2231.141	680.200	-2311.876	O.2	2	ASN2	-0.568	
20	  CB	2230.186	678.902	-2308.915	C.3	2	ASN2	-0.204	
21	  CG	2229.723	679.126	-2307.472	C.2	2	ASN2	0.713	
22	 ND2	2230.317	680.041	-2306.753	N.pl3	2	ASN2	-0.919	
23	 OD1	2228.802	678.493	-2306.978	O.2	2	ASN2	-0.593	
24	   H	2227.707	679.385	-2309.343	 H	2	ASN2	0.272	
25	  HA	2230.072	680.935	-2309.734	 H	2	ASN2	0.105	
26	 2HB	2231.291	678.843	-2308.918	 H	2	ASN2	0.080	
27	 3HB	2229.857	677.884	-2309.201	 H	2	ASN2	0.080	
28	1HD2	2229.836	680.214	-2305.867	 H	2	ASN2	0.420	
29	2HD2	2231.019	680.613	-2307.222	 H	2	ASN2	0.420	
30	   N	2229.705	678.575	-2311.982	N.am	3	PRO3	-0.255	
31	  CA	2230.157	678.166	-2313.304	C.3	3	PRO3	-0.027	
32	   C	2229.759	679.189	-2314.381	C.2	3	PRO3	0.590	
33	   O	2230.583	679.572	-2315.212	O.2	3	PRO3	-0.575	
34	  CB	2229.452	676.811	-2313.473	C.3	3	PRO3	-0.007	
35	  CG	2228.169	676.964	-2312.644	C.3	3	PRO3	0.019	
36	  CD	2228.626	677.782	-2311.434	C.3	3	PRO3	0.019	
37	  HA	2231.243	678.046	-2313.317	 H	3	PRO3	0.064	
38	 2HB	2230.075	676.030	-2313.032	 H	3	PRO3	0.025	
39	 3HB	2229.254	676.563	-2314.519	 H	3	PRO3	0.025	
40	 2HG	2227.741	676.002	-2312.353	 H	3	PRO3	0.021	
41	 3HG	2227.432	677.535	-2313.211	 H	3	PRO3	0.021	
42	 2HD	2229.015	677.132	-2310.646	 H	3	PRO3	0.039	
43	 3HD	2227.830	678.418	-2311.041	 H	3	PRO3	0.039	
44	   N	2228.554	679.650	-2314.414	N.am	4	GLU4	-0.516	
45	  CA	2228.195	680.621	-2315.443	C.3	4	GLU4	0.040	
46	   C	2229.094	681.831	-2315.382	C.2	4	GLU4	0.537	
47	   O	2229.621	682.311	-2316.396	O.2	4	GLU4	-0.582	
48	  CB	2226.707	681.040	-2315.274	C.3	4	GLU4	0.056	
49	  CG	2226.159	682.043	-2316.339	C.3	4	GLU4	0.014	
50	  CD	2224.733	682.540	-2316.196	C.2	4	GLU4	0.805	
51	 OE1	2224.006	682.142	-2315.266	O.co2	4	GLU4	-0.819	
52	 OE2	2224.344	683.370	-2317.045	O.co2	4	GLU4	-0.819	
53	   H	2227.870	679.343	-2313.737	 H	4	GLU4	0.294	
54	  HA	2228.327	680.150	-2316.435	 H	4	GLU4	0.111	
55	 2HB	2226.554	681.479	-2314.267	 H	4	GLU4	-0.017	
56	 3HB	2226.059	680.142	-2315.280	 H	4	GLU4	-0.017	
57	 2HG	2226.241	681.629	-2317.357	 H	4	GLU4	-0.043	
58	 3HG	2226.748	682.976	-2316.350	 H	4	GLU4	-0.043	
59	   N	2229.321	682.384	-2314.239	N.am	5	SER5	-0.416	
60	  CA	2230.191	683.555	-2314.180	C.3	5	SER5	-0.025	
61	   C	2231.550	683.249	-2314.765	C.2	5	SER5	0.597	
62	   O	2232.098	684.002	-2315.570	O.2	5	SER5	-0.568	
63	  CB	2230.302	684.087	-2312.729	C.3	5	SER5	0.212	
64	  OG	2231.033	683.208	-2311.868	O.3	5	SER5	-0.655	
65	   H	2228.904	682.012	-2313.397	 H	5	SER5	0.272	
66	  HA	2229.742	684.346	-2314.809	 H	5	SER5	0.084	
67	 2HB	2229.302	684.281	-2312.296	 H	5	SER5	0.035	
68	 3HB	2230.808	685.073	-2312.731	 H	5	SER5	0.035	
69	  HG	2230.544	682.383	-2311.817	 H	5	SER5	0.428	
70	   N	2232.154	682.166	-2314.411	N.am	6	ILE6	-0.416	
71	  CA	2233.468	681.870	-2314.977	C.3	6	ILE6	-0.060	
72	   C	2233.410	681.833	-2316.484	C.2	6	ILE6	0.597	
73	   O	2234.245	682.420	-2317.188	O.2	6	ILE6	-0.568	
74	  CB	2234.067	680.534	-2314.376	C.3	6	ILE6	0.130	
75	 CG1	2234.085	680.471	-2312.815	C.3	6	ILE6	-0.043	
76	 CG2	2235.508	680.232	-2314.891	C.3	6	ILE6	-0.320	
77	 CD1	2234.355	679.082	-2312.200	C.3	6	ILE6	-0.066	
78	   H	2231.725	681.531	-2313.752	 H	6	ILE6	0.272	
79	  HA	2234.142	682.704	-2314.709	 H	6	ILE6	0.087	
80	  HB	2233.408	679.708	-2314.721	 H	6	ILE6	0.019	
81	2HG1	2233.104	680.792	-2312.420	 H	6	ILE6	0.024	
82	3HG1	2234.802	681.213	-2312.410	 H	6	ILE6	0.024	
83	1HG2	2235.567	680.138	-2315.990	 H	6	ILE6	0.088	
84	2HG2	2236.230	681.014	-2314.589	 H	6	ILE6	0.088	
85	3HG2	2235.897	679.269	-2314.512	 H	6	ILE6	0.088	
86	1HD1	2233.626	678.328	-2312.555	 H	6	ILE6	0.019	
87	2HD1	2235.365	678.703	-2312.436	 H	6	ILE6	0.019	
88	3HD1	2234.278	679.112	-2311.098	 H	6	ILE6	0.019	
89	   N	2232.464	681.169	-2317.058	N.am	7	LEU7	-0.416	
90	  CA	2232.409	681.133	-2318.516	C.3	7	LEU7	-0.052	
91	   C	2232.337	682.529	-2319.089	C.2	7	LEU7	0.597	
92	   O	2233.058	682.890	-2320.032	O.2	7	LEU7	-0.568	
93	  CB	2231.206	680.273	-2318.997	C.3	7	LEU7	-0.110	
94	  CG	2231.133	678.794	-2318.530	C.3	7	LEU7	0.353	
95	 CD1	2229.943	678.089	-2319.196	C.3	7	LEU7	-0.412	
96	 CD2	2232.426	678.014	-2318.822	C.3	7	LEU7	-0.412	
97	   H	2231.772	680.683	-2316.507	 H	7	LEU7	0.272	
98	  HA	2233.351	680.693	-2318.891	 H	7	LEU7	0.092	
99	 2HB	2231.183	680.289	-2320.104	 H	7	LEU7	0.046	
100	 3HB	2230.266	680.776	-2318.693	 H	7	LEU7	0.046	
101	  HG	2230.963	678.786	-2317.433	 H	7	LEU7	-0.036	
102	1HD1	2228.986	678.598	-2318.973	 H	7	LEU7	0.100	
103	2HD1	2230.042	678.048	-2320.297	 H	7	LEU7	0.100	
104	3HD1	2229.835	677.047	-2318.840	 H	7	LEU7	0.100	
105	1HD2	2232.701	678.045	-2319.892	 H	7	LEU7	0.100	
106	2HD2	2233.280	678.426	-2318.250	 H	7	LEU7	0.100	
107	3HD2	2232.344	676.952	-2318.526	 H	7	LEU7	0.100	
108	   N	2231.500	683.370	-2318.583	N.am	8	ASP8	-0.516	
109	  CA	2231.431	684.719	-2319.137	C.3	8	ASP8	0.038	
110	   C	2232.778	685.398	-2319.081	C.2	8	ASP8	0.537	
111	   O	2233.251	686.002	-2320.056	O.2	8	ASP8	-0.582	
112	  CB	2230.353	685.559	-2318.396	C.3	8	ASP8	-0.030	
113	  CG	2230.135	686.980	-2318.938	C.2	8	ASP8	0.799	
114	 OD1	2230.199	687.178	-2320.169	O.co2	8	ASP8	-0.801	
115	 OD2	2229.944	687.906	-2318.123	O.co2	8	ASP8	-0.801	
116	   H	2230.903	683.099	-2317.816	 H	8	ASP8	0.294	
117	  HA	2231.148	684.641	-2320.205	 H	8	ASP8	0.088	
118	 2HB	2230.610	685.643	-2317.325	 H	8	ASP8	-0.012	
119	 3HB	2229.374	685.054	-2318.429	 H	8	ASP8	-0.012	
120	   N	2233.458	685.349	-2317.986	N.am	9	GLU9	-0.516	
121	  CA	2234.761	686.006	-2317.931	C.3	9	GLU9	0.040	
122	   C	2235.678	685.477	-2319.007	C.2	9	GLU9	0.537	
123	   O	2236.342	686.231	-2319.733	O.2	9	GLU9	-0.582	
124	  CB	2235.395	685.798	-2316.526	C.3	9	GLU9	0.056	
125	  CG	2236.778	686.490	-2316.297	C.3	9	GLU9	0.014	
126	  CD	2237.479	686.277	-2314.969	C.2	9	GLU9	0.805	
127	 OE1	2236.958	685.587	-2314.072	O.co2	9	GLU9	-0.819	
128	 OE2	2238.599	686.814	-2314.837	O.co2	9	GLU9	-0.819	
129	   H	2233.094	684.863	-2317.178	 H	9	GLU9	0.294	
130	  HA	2234.619	687.087	-2318.107	 H	9	GLU9	0.111	
131	 2HB	2235.507	684.714	-2316.322	 H	9	GLU9	-0.017	
132	 3HB	2234.698	686.152	-2315.741	 H	9	GLU9	-0.017	
133	 2HG	2236.706	687.581	-2316.437	 H	9	GLU9	-0.043	
134	 3HG	2237.524	686.144	-2317.031	 H	9	GLU9	-0.043	
135	   N	2235.774	684.202	-2319.176	N.am	10	HIS10	-0.416	
136	  CA	2236.662	683.689	-2320.216	C.3	10	HIS10	-0.058	
137	   C	2236.295	684.253	-2321.567	C.2	10	HIS10	0.597	
138	   O	2237.147	684.717	-2322.340	O.2	10	HIS10	-0.568	
139	  CB	2236.497	682.160	-2320.210	C.3	10	HIS10	-0.007	
140	  CG	2237.782	681.450	-2319.902	C.2	10	HIS10	0.187	
141	 CD2	2238.164	681.115	-2318.610	C.2	10	HIS10	-0.221	
142	 ND1	2238.734	681.043	-2320.835	N.2	10	HIS10	-0.543	
143	 CE1	2239.640	680.485	-2320.012	C.2	10	HIS10	0.163	
144	 NE2	2239.378	680.483	-2318.677	N.pl3	10	HIS10	-0.280	
145	   H	2235.244	683.567	-2318.597	 H	10	HIS10	0.272	
146	  HA	2237.681	684.046	-2319.992	 H	10	HIS10	0.136	
147	 2HB	2236.131	681.793	-2321.190	 H	10	HIS10	0.037	
148	 3HB	2235.741	681.824	-2319.470	 H	10	HIS10	0.037	
149	 2HD	2237.579	681.331	-2317.721	 H	10	HIS10	0.186	
150	 1HE	2240.531	680.063	-2320.459	 H	10	HIS10	0.144	
151	 2HE	2239.945	680.106	-2317.903	 H	10	HIS10	0.334	
152	   N	2235.057	684.253	-2321.930	N.am	11	VAL11	-0.416	
153	  CA	2234.702	684.798	-2323.237	C.3	11	VAL11	-0.087	
154	   C	2235.167	686.229	-2323.371	C.2	11	VAL11	0.597	
155	   O	2235.768	686.633	-2324.374	O.2	11	VAL11	-0.568	
156	  CB	2233.140	684.692	-2323.456	C.3	11	VAL11	0.299	
157	 CG1	2232.572	685.396	-2324.719	C.3	11	VAL11	-0.319	
158	 CG2	2232.615	683.239	-2323.528	C.3	11	VAL11	-0.319	
159	   H	2234.344	683.881	-2321.319	 H	11	VAL11	0.272	
160	  HA	2235.221	684.215	-2324.020	 H	11	VAL11	0.097	
161	  HB	2232.653	685.174	-2322.581	 H	11	VAL11	-0.030	
162	1HG1	2233.010	685.003	-2325.656	 H	11	VAL11	0.079	
163	2HG1	2231.473	685.289	-2324.801	 H	11	VAL11	0.079	
164	3HG1	2232.751	686.488	-2324.711	 H	11	VAL11	0.079	
165	1HG2	2232.905	682.652	-2322.637	 H	11	VAL11	0.079	
166	2HG2	2231.509	683.202	-2323.571	 H	11	VAL11	0.079	
167	3HG2	2232.997	682.697	-2324.415	 H	11	VAL11	0.079	
168	   N	2234.931	687.055	-2322.408	N.am	12	GLN12	-0.416	
169	  CA	2235.380	688.438	-2322.536	C.3	12	GLN12	-0.003	
170	   C	2236.870	688.504	-2322.775	C.2	12	GLN12	0.597	
171	   O	2237.357	689.212	-2323.654	O.2	12	GLN12	-0.568	
172	  CB	2234.990	689.206	-2321.254	C.3	12	GLN12	-0.004	
173	  CG	2235.351	690.728	-2321.224	C.3	12	GLN12	-0.064	
174	  CD	2235.049	691.542	-2319.959	C.2	12	GLN12	0.695	
175	 NE2	2234.482	690.966	-2318.930	N.pl3	12	GLN12	-0.941	
176	 OE1	2235.352	692.723	-2319.883	O.2	12	GLN12	-0.609	
177	   H	2234.442	686.750	-2321.579	 H	12	GLN12	0.272	
178	  HA	2234.880	688.894	-2323.412	 H	12	GLN12	0.085	
179	 2HB	2235.466	688.706	-2320.385	 H	12	GLN12	0.017	
180	 3HB	2233.899	689.099	-2321.091	 H	12	GLN12	0.017	
181	 2HG	2234.874	691.248	-2322.075	 H	12	GLN12	0.035	
182	 3HG	2236.434	690.869	-2321.390	 H	12	GLN12	0.035	
183	1HE2	2234.376	691.561	-2318.107	 H	12	GLN12	0.425	
184	2HE2	2234.318	689.963	-2319.033	 H	12	GLN12	0.425	
185	   N	2237.654	687.797	-2322.033	N.am	13	ARG13	-0.348	
186	  CA	2239.094	687.862	-2322.265	C.3	13	ARG13	-0.264	
187	   C	2239.430	687.490	-2323.689	C.2	13	ARG13	0.734	
188	   O	2240.199	688.161	-2324.374	O.2	13	ARG13	-0.589	
189	  CB	2239.808	686.924	-2321.250	C.3	13	ARG13	-0.001	
190	  CG	2241.353	687.077	-2321.170	C.3	13	ARG13	0.039	
191	  CD	2241.980	686.090	-2320.172	C.3	13	ARG13	0.049	
192	  NE	2243.457	686.297	-2320.122	N.pl3	13	ARG13	-0.530	
193	  CZ	2244.305	685.605	-2319.366	C.cat	13	ARG13	0.808	
194	 NH1	2243.940	684.642	-2318.568	N.pl3	13	ARG13	-0.863	
195	 NH2	2245.565	685.904	-2319.424	N.pl3	13	ARG13	-0.863	
196	   H	2237.278	687.208	-2321.304	 H	13	ARG13	0.275	
197	  HA	2239.419	688.909	-2322.107	 H	13	ARG13	0.156	
198	 2HB	2239.541	685.874	-2321.489	 H	13	ARG13	0.033	
199	 3HB	2239.383	687.092	-2320.240	 H	13	ARG13	0.033	
200	 2HG	2241.601	688.122	-2320.891	 H	13	ARG13	0.029	
201	 3HG	2241.803	686.920	-2322.171	 H	13	ARG13	0.029	
202	 2HD	2241.735	685.049	-2320.480	 H	13	ARG13	0.069	
203	 3HD	2241.524	686.236	-2319.169	 H	13	ARG13	0.069	
204	  HE	2243.908	687.018	-2320.693	 H	13	ARG13	0.346	
205	1HH1	2242.935	684.456	-2318.571	 H	13	ARG13	0.448	
206	2HH1	2244.653	684.159	-2318.019	 H	13	ARG13	0.448	
207	1HH2	2245.833	686.661	-2320.055	 H	13	ARG13	0.448	
208	2HH2	2246.200	685.363	-2318.835	 H	13	ARG13	0.448	
209	   N	2238.894	686.435	-2324.203	N.am	14	PHE14	-0.416	
210	  CA	2239.218	686.075	-2325.580	C.3	14	PHE14	-0.002	
211	   C	2238.888	687.204	-2326.528	C.2	14	PHE14	0.597	
212	   O	2239.700	687.590	-2327.415	O.2	14	PHE14	-0.568	
213	  CB	2238.413	684.810	-2326.006	C.3	14	PHE14	-0.034	
214	  CG	2238.618	683.549	-2325.152	C.2	14	PHE14	0.012	
215	 CD1	2237.815	683.340	-2324.024	C.2	14	PHE14	-0.126	
216	 CD2	2239.636	682.640	-2325.450	C.2	14	PHE14	-0.126	
217	 CE1	2238.041	682.246	-2323.196	C.2	14	PHE14	-0.170	
218	 CE2	2239.854	681.539	-2324.626	C.2	14	PHE14	-0.170	
219	  CZ	2239.059	681.344	-2323.498	C.2	14	PHE14	-0.107	
220	   H	2238.259	685.867	-2323.661	 H	14	PHE14	0.272	
221	  HA	2240.304	685.873	-2325.652	 H	14	PHE14	0.098	
222	 2HB	2238.649	684.561	-2327.059	 H	14	PHE14	0.030	
223	 3HB	2237.330	685.050	-2326.035	 H	14	PHE14	0.030	
224	 1HD	2237.044	684.053	-2323.766	 H	14	PHE14	0.133	
225	 2HD	2240.271	682.797	-2326.312	 H	14	PHE14	0.133	
226	 1HE	2237.436	682.110	-2322.311	 H	14	PHE14	0.143	
227	 2HE	2240.647	680.843	-2324.857	 H	14	PHE14	0.143	
228	  HZ	2239.235	680.499	-2322.851	 H	14	PHE14	0.130	
229	   N	2237.744	687.791	-2326.428	N.am	15	MET15	-0.416	
230	  CA	2237.425	688.882	-2327.344	C.3	15	MET15	-0.024	
231	   C	2238.456	689.981	-2327.258	C.2	15	MET15	0.597	
232	   O	2238.960	690.490	-2328.271	O.2	15	MET15	-0.568	
233	  CB	2236.004	689.430	-2327.037	C.3	15	MET15	0.034	
234	  CG	2234.842	688.432	-2327.228	C.3	15	MET15	0.002	
235	  SD	2233.268	689.300	-2327.116	S.3	15	MET15	-0.274	
236	  CE	2232.186	687.871	-2326.978	C.3	15	MET15	-0.054	
237	   H	2237.078	687.500	-2325.727	 H	15	MET15	0.272	
238	  HA	2237.451	688.493	-2328.379	 H	15	MET15	0.088	
239	 2HB	2235.803	690.307	-2327.681	 H	15	MET15	0.024	
240	 3HB	2235.969	689.824	-2326.001	 H	15	MET15	0.024	
241	 2HG	2234.883	687.648	-2326.449	 H	15	MET15	0.044	
242	 3HG	2234.905	687.915	-2328.203	 H	15	MET15	0.044	
243	 1HE	2232.329	687.181	-2327.829	 H	15	MET15	0.068	
244	 2HE	2232.394	687.320	-2326.044	 H	15	MET15	0.068	
245	 3HE	2231.128	688.187	-2326.962	 H	15	MET15	0.068	
246	   N	2238.824	690.404	-2326.096	N.am	16	ARG16	-0.348	
247	  CA	2239.822	691.467	-2326.013	C.3	16	ARG16	-0.264	
248	   C	2241.093	691.072	-2326.728	C.2	16	ARG16	0.734	
249	   O	2241.206	689.995	-2327.307	O.2	16	ARG16	-0.589	
250	  CB	2240.090	691.788	-2324.515	C.3	16	ARG16	-0.001	
251	  CG	2240.917	693.077	-2324.244	C.3	16	ARG16	0.039	
252	  CD	2241.165	693.299	-2322.744	C.3	16	ARG16	0.049	
253	  NE	2241.943	694.557	-2322.544	N.pl3	16	ARG16	-0.530	
254	  CZ	2242.333	695.042	-2321.369	C.cat	16	ARG16	0.808	
255	 NH1	2242.085	694.460	-2320.230	N.pl3	16	ARG16	-0.863	
256	 NH2	2242.998	696.154	-2321.353	N.pl3	16	ARG16	-0.863	
257	   H	2238.429	690.006	-2325.256	 H	16	ARG16	0.275	
258	  HA	2239.414	692.360	-2326.525	 H	16	ARG16	0.156	
259	 2HB	2240.586	690.912	-2324.047	 H	16	ARG16	0.033	
260	 3HB	2239.121	691.871	-2323.982	 H	16	ARG16	0.033	
261	 2HG	2240.387	693.947	-2324.684	 H	16	ARG16	0.029	
262	 3HG	2241.890	693.022	-2324.773	 H	16	ARG16	0.029	
263	 2HD	2241.713	692.424	-2322.328	 H	16	ARG16	0.069	
264	 3HD	2240.192	693.343	-2322.209	 H	16	ARG16	0.069	
265	  HE	2242.222	695.137	-2323.342	 H	16	ARG16	0.346	
266	1HH1	2241.558	693.587	-2320.313	 H	16	ARG16	0.448	
267	2HH1	2242.419	694.896	-2319.370	 H	16	ARG16	0.448	
268	1HH2	2243.185	696.595	-2322.255	 H	16	ARG16	0.448	
269	2HH2	2243.289	696.510	-2320.440	 H	16	ARG16	0.448	
@<TRIPOS>BOND
1 1 2 1
2 1 10 1
3 2 3 1
4 2 5 1
5 2 11 1
6 3 4 2
7 3 16 1
8 5 6 1
9 6 7 1
10 7 8 2
11 7 9 1
12 5 12 1
13 5 13 1
14 6 14 1
15 6 15 1
16 16 17 1
17 16 24 1
18 17 18 1
19 17 20 1
20 17 25 1
21 18 19 2
22 18 30 1
23 20 21 1
24 21 22 1
25 21 23 2
26 20 26 1
27 20 27 1
28 22 28 1
29 22 29 1
30 30 31 1
31 30 36 1
32 31 32 1
33 31 34 1
34 31 37 1
35 32 33 2
36 32 44 1
37 34 35 1
38 35 36 1
39 34 38 1
40 34 39 1
41 35 40 1
42 35 41 1
43 36 42 1
44 36 43 1
45 44 45 1
46 44 53 1
47 45 46 1
48 45 48 1
49 45 54 1
50 46 47 2
51 46 59 1
52 48 49 1
53 49 50 1
54 50 51 2
55 50 52 1
56 48 55 1
57 48 56 1
58 49 57 1
59 49 58 1
60 59 60 1
61 59 65 1
62 60 61 1
63 60 63 1
64 60 66 1
65 61 62 2
66 61 70 1
67 63 64 1
68 63 67 1
69 63 68 1
70 64 69 1
71 70 71 1
72 70 78 1
73 71 72 1
74 71 74 1
75 71 79 1
76 72 73 2
77 72 89 1
78 74 75 1
79 74 76 1
80 75 77 1
81 74 80 1
82 75 81 1
83 75 82 1
84 76 83 1
85 76 84 1
86 76 85 1
87 77 86 1
88 77 87 1
89 77 88 1
90 89 90 1
91 89 97 1
92 90 91 1
93 90 93 1
94 90 98 1
95 91 92 2
96 91 108 1
97 93 94 1
98 94 95 1
99 94 96 1
100 93 99 1
101 93 100 1
102 94 101 1
103 95 102 1
104 95 103 1
105 95 104 1
106 96 105 1
107 96 106 1
108 96 107 1
109 108 109 1
110 108 116 1
111 109 110 1
112 109 112 1
113 109 117 1
114 110 111 2
115 110 120 1
116 112 113 1
117 113 114 2
118 113 115 1
119 112 118 1
120 112 119 1
121 120 121 1
122 120 129 1
123 121 122 1
124 121 124 1
125 121 130 1
126 122 123 2
127 122 135 1
128 124 125 1
129 125 126 1
130 126 127 2
131 126 128 1
132 124 131 1
133 124 132 1
134 125 133 1
135 125 134 1
136 135 136 1
137 135 145 1
138 136 137 1
139 136 139 1
140 136 146 1
141 137 138 2
142 137 152 1
143 139 140 1
144 140 141 2
145 141 144 1
146 140 142 1
147 142 143 2
148 143 144 1
149 139 147 1
150 139 148 1
151 141 149 1
152 143 150 1
153 144 151 1
154 152 153 1
155 152 159 1
156 153 154 1
157 153 156 1
158 153 160 1
159 154 155 2
160 154 168 1
161 156 157 1
162 156 158 1
163 156 161 1
164 157 162 1
165 157 163 1
166 157 164 1
167 158 165 1
168 158 166 1
169 158 167 1
170 168 169 1
171 168 177 1
172 169 170 1
173 169 172 1
174 169 178 1
175 170 171 2
176 170 185 1
177 172 173 1
178 173 174 1
179 174 175 1
180 174 176 2
181 172 179 1
182 172 180 1
183 173 181 1
184 173 182 1
185 175 183 1
186 175 184 1
187 185 186 1
188 185 196 1
189 186 187 1
190 186 189 1
191 186 197 1
192 187 188 2
193 187 209 1
194 189 190 1
195 190 191 1
196 191 192 1
197 192 193 1
198 193 194 2
199 193 195 1
200 189 198 1
201 189 199 1
202 190 200 1
203 190 201 1
204 191 202 1
205 191 203 1
206 192 204 1
207 194 205 1
208 194 206 1
209 195 207 1
210 195 208 1
211 209 210 1
212 209 220 1
213 210 211 1
214 210 213 1
215 210 221 1
216 211 212 2
217 211 229 1
218 213 214 1
219 214 215 2
220 214 216 1
221 216 218 2
222 215 217 1
223 218 219 1
224 217 219 2
225 213 222 1
226 213 223 1
227 215 224 1
228 216 225 1
229 217 226 1
230 218 227 1
231 219 228 1
232 229 230 1
233 229 237 1
234 230 231 1
235 230 233 1
236 230 238 1
237 231 232 2
238 231 246 1
239 233 234 1
240 234 235 1
241 235 236 1
242 233 239 1
243 233 240 1
244 234 241 1
245 234 242 1
246 236 243 1
247 236 244 1
248 236 245 1
249 246 247 1
250 246 257 1
251 247 248 1
252 247 250 1
253 247 258 1
254 248 249 2
255 250 251 1
256 251 252 1
257 252 253 1
258 253 254 1
259 254 255 2
260 254 256 1
261 250 259 1
262 250 260 1
263 251 261 1
264 251 262 1
265 252 263 1
266 252 264 1
267 253 265 1
268 255 266 1
269 255 267 1
270 256 268 1
271 256 269 1
@<TRIPOS>SUBSTRUCTURE
1	GLU1	1	RESIDUE	1 ****	GLU
2	ASN2	16	RESIDUE	1 ****	ASN
3	PRO3	30	RESIDUE	1 ****	PRO
4	GLU4	44	RESIDUE	1 ****	GLU
5	SER5	59	RESIDUE	1 ****	SER
6	ILE6	70	RESIDUE	1 ****	ILE
7	LEU7	89	RESIDUE	1 ****	LEU
8	ASP8	108	RESIDUE	1 ****	ASP
9	GLU9	120	RESIDUE	1 ****	GLU
10	HIS10	135	RESIDUE	1 ****	HIS
11	VAL11	152	RESIDUE	1 ****	VAL
12	GLN12	168	RESIDUE	1 ****	GLN
13	ARG13	185	RESIDUE	1 ****	ARG
14	PHE14	209	RESIDUE	1 ****	PHE
15	MET15	229	RESIDUE	1 ****	MET
16	ARG16	246	RESIDUE	1 ****	ARG
