@<TRIPOS>MOLECULE
4-1
260 261 16              
SMALL
USER_CHARGES
@<TRIPOS>ATOM
1	   N	533.151	123.647	-474.063	N.3	1	GLU1	-0.516	
2	  CA	533.710	124.996	-474.063	C.3	1	GLU1	0.040	
3	   C	535.219	124.956	-474.063	C.2	1	GLU1	0.537	
4	   O	535.895	125.655	-474.832	O.2	1	GLU1	-0.582	
5	  CB	533.187	125.781	-472.826	C.3	1	GLU1	0.056	
6	  CG	533.662	127.266	-472.715	C.3	1	GLU1	0.014	
7	  CD	533.238	128.070	-471.500	C.2	1	GLU1	0.805	
8	 OE1	532.510	127.568	-470.622	O.co2	1	GLU1	-0.819	
9	 OE2	533.668	129.240	-471.428	O.co2	1	GLU1	-0.819	
10	   H	533.778	122.768	-474.063	 H	1	GLU1	0.294	
11	  HA	533.384	125.514	-474.983	 H	1	GLU1	0.111	
12	 2HB	533.476	125.250	-471.896	 H	1	GLU1	-0.017	
13	 3HB	532.080	125.771	-472.813	 H	1	GLU1	-0.017	
14	 2HG	533.352	127.851	-473.596	 H	1	GLU1	-0.043	
15	 3HG	534.762	127.333	-472.686	 H	1	GLU1	-0.043	
16	   N	535.823	124.170	-473.238	N.am	2	ASN2	-0.416	
17	  CA	537.283	124.132	-473.238	C.3	2	ASN2	0.014	
18	   C	537.814	123.776	-474.607	C.2	2	ASN2	0.597	
19	   O	538.729	124.407	-475.135	O.2	2	ASN2	-0.568	
20	  CB	537.775	123.109	-472.174	C.3	2	ASN2	-0.204	
21	  CG	537.312	123.333	-470.730	C.2	2	ASN2	0.713	
22	 ND2	537.906	124.248	-470.012	N.pl3	2	ASN2	-0.919	
23	 OD1	536.391	122.699	-470.236	O.2	2	ASN2	-0.593	
24	   H	535.295	123.591	-472.601	 H	2	ASN2	0.272	
25	  HA	537.660	125.142	-472.993	 H	2	ASN2	0.105	
26	 2HB	538.879	123.050	-472.177	 H	2	ASN2	0.080	
27	 3HB	537.446	122.090	-472.459	 H	2	ASN2	0.080	
28	1HD2	537.425	124.421	-469.125	 H	2	ASN2	0.420	
29	2HD2	538.608	124.819	-470.481	 H	2	ASN2	0.420	
30	   N	537.292	122.781	-475.241	N.am	3	PRO3	-0.255	
31	  CA	537.744	122.372	-476.562	C.3	3	PRO3	-0.027	
32	   C	537.346	123.395	-477.639	C.2	3	PRO3	0.590	
33	   O	538.169	123.779	-478.470	O.2	3	PRO3	-0.575	
34	  CB	537.040	121.017	-476.732	C.3	3	PRO3	-0.007	
35	  CG	535.757	121.169	-475.901	C.3	3	PRO3	0.019	
36	  CD	536.214	121.988	-474.692	C.3	3	PRO3	0.019	
37	  HA	538.830	122.252	-476.576	 H	3	PRO3	0.064	
38	 2HB	537.663	120.236	-476.291	 H	3	PRO3	0.025	
39	 3HB	536.842	120.768	-477.777	 H	3	PRO3	0.025	
40	 2HG	535.329	120.207	-475.610	 H	3	PRO3	0.021	
41	 3HG	535.019	121.740	-476.469	 H	3	PRO3	0.021	
42	 2HD	536.604	121.338	-473.904	 H	3	PRO3	0.039	
43	 3HD	535.418	122.624	-474.298	 H	3	PRO3	0.039	
44	   N	536.141	123.855	-477.671	N.am	4	ALA4	-0.416	
45	  CA	535.782	124.826	-478.701	C.3	4	ALA4	0.034	
46	   C	536.682	126.037	-478.639	C.2	4	ALA4	0.597	
47	   O	537.208	126.516	-479.651	O.2	4	ALA4	-0.568	
48	  CB	534.296	125.177	-478.513	C.3	4	ALA4	-0.183	
49	   H	535.457	123.548	-476.995	 H	4	ALA4	0.272	
50	  HA	535.928	124.359	-479.693	 H	4	ALA4	0.082	
51	 1HB	533.649	124.284	-478.599	 H	4	ALA4	0.060	
52	 2HB	534.096	125.626	-477.521	 H	4	ALA4	0.060	
53	 3HB	533.944	125.898	-479.273	 H	4	ALA4	0.060	
54	   N	536.909	126.589	-477.495	N.am	5	SER5	-0.416	
55	  CA	537.779	127.760	-477.436	C.3	5	SER5	-0.025	
56	   C	539.138	127.454	-478.021	C.2	5	SER5	0.597	
57	   O	539.686	128.208	-478.825	O.2	5	SER5	-0.568	
58	  CB	537.889	128.292	-475.985	C.3	5	SER5	0.212	
59	  OG	538.620	127.412	-475.124	O.3	5	SER5	-0.655	
60	   H	536.491	126.217	-476.654	 H	5	SER5	0.272	
61	  HA	537.330	128.551	-478.065	 H	5	SER5	0.084	
62	 2HB	536.889	128.486	-475.553	 H	5	SER5	0.035	
63	 3HB	538.395	129.277	-475.987	 H	5	SER5	0.035	
64	  HG	538.131	126.587	-475.074	 H	5	SER5	0.428	
65	   N	539.742	126.371	-477.667	N.am	6	ILE6	-0.416	
66	  CA	541.056	126.076	-478.232	C.3	6	ILE6	-0.060	
67	   C	540.999	126.039	-479.740	C.2	6	ILE6	0.597	
68	   O	541.835	126.627	-480.443	O.2	6	ILE6	-0.568	
69	  CB	541.654	124.739	-477.632	C.3	6	ILE6	0.130	
70	 CG1	541.673	124.676	-476.071	C.3	6	ILE6	-0.043	
71	 CG2	543.096	124.437	-478.147	C.3	6	ILE6	-0.320	
72	 CD1	541.942	123.287	-475.457	C.3	6	ILE6	-0.066	
73	   H	539.313	125.736	-477.008	 H	6	ILE6	0.272	
74	  HA	541.730	126.910	-477.964	 H	6	ILE6	0.087	
75	  HB	540.997	123.914	-477.977	 H	6	ILE6	0.019	
76	2HG1	540.690	124.996	-475.676	 H	6	ILE6	0.024	
77	3HG1	542.388	125.418	-475.666	 H	6	ILE6	0.024	
78	1HG2	543.156	124.344	-479.245	 H	6	ILE6	0.088	
79	2HG2	543.818	125.219	-477.844	 H	6	ILE6	0.088	
80	3HG2	543.485	123.475	-477.768	 H	6	ILE6	0.088	
81	1HD1	541.214	122.533	-475.812	 H	6	ILE6	0.019	
82	2HD1	542.953	122.908	-475.692	 H	6	ILE6	0.019	
83	3HD1	541.865	123.316	-474.354	 H	6	ILE6	0.019	
84	   N	540.054	125.376	-480.315	N.am	7	LEU7	-0.416	
85	  CA	540.000	125.340	-481.773	C.3	7	LEU7	-0.052	
86	   C	539.928	126.736	-482.345	C.2	7	LEU7	0.597	
87	   O	540.650	127.099	-483.286	O.2	7	LEU7	-0.568	
88	  CB	538.797	124.481	-482.255	C.3	7	LEU7	-0.110	
89	  CG	538.723	123.001	-481.789	C.3	7	LEU7	0.353	
90	 CD1	537.533	122.296	-482.456	C.3	7	LEU7	-0.412	
91	 CD2	540.017	122.222	-482.080	C.3	7	LEU7	-0.412	
92	   H	539.361	124.889	-479.764	 H	7	LEU7	0.272	
93	  HA	540.942	124.900	-482.147	 H	7	LEU7	0.092	
94	 2HB	538.774	124.497	-483.362	 H	7	LEU7	0.046	
95	 3HB	537.857	124.984	-481.951	 H	7	LEU7	0.046	
96	  HG	538.552	122.993	-480.692	 H	7	LEU7	-0.036	
97	1HD1	536.576	122.805	-482.233	 H	7	LEU7	0.100	
98	2HD1	537.633	122.256	-483.557	 H	7	LEU7	0.100	
99	3HD1	537.426	121.255	-482.100	 H	7	LEU7	0.100	
100	1HD2	540.292	122.252	-483.150	 H	7	LEU7	0.100	
101	2HD2	540.870	122.633	-481.508	 H	7	LEU7	0.100	
102	3HD2	539.935	121.159	-481.784	 H	7	LEU7	0.100	
103	   N	539.091	127.577	-481.839	N.am	8	ASP8	-0.516	
104	  CA	539.021	128.926	-482.392	C.3	8	ASP8	0.038	
105	   C	540.368	129.606	-482.333	C.2	8	ASP8	0.537	
106	   O	540.842	130.211	-483.307	O.2	8	ASP8	-0.582	
107	  CB	537.943	129.765	-481.650	C.3	8	ASP8	-0.030	
108	  CG	537.725	131.187	-482.190	C.2	8	ASP8	0.799	
109	 OD1	537.790	131.386	-483.421	O.co2	8	ASP8	-0.801	
110	 OD2	537.532	132.112	-481.374	O.co2	8	ASP8	-0.801	
111	   H	538.492	127.305	-481.072	 H	8	ASP8	0.294	
112	  HA	538.739	128.849	-483.459	 H	8	ASP8	0.088	
113	 2HB	538.199	129.848	-480.578	 H	8	ASP8	-0.012	
114	 3HB	536.964	129.261	-481.684	 H	8	ASP8	-0.012	
115	   N	541.047	129.555	-481.237	N.am	9	GLU9	-0.516	
116	  CA	542.350	130.212	-481.181	C.3	9	GLU9	0.040	
117	   C	543.268	129.685	-482.256	C.2	9	GLU9	0.537	
118	   O	543.933	130.439	-482.981	O.2	9	GLU9	-0.582	
119	  CB	542.982	130.004	-479.775	C.3	9	GLU9	0.056	
120	  CG	544.365	130.695	-479.544	C.3	9	GLU9	0.014	
121	  CD	545.066	130.481	-478.216	C.2	9	GLU9	0.805	
122	 OE1	544.543	129.790	-477.320	O.co2	9	GLU9	-0.819	
123	 OE2	546.185	131.019	-478.083	O.co2	9	GLU9	-0.819	
124	   H	540.683	129.068	-480.431	 H	9	GLU9	0.294	
125	  HA	542.208	131.294	-481.356	 H	9	GLU9	0.111	
126	 2HB	543.095	128.919	-479.572	 H	9	GLU9	-0.017	
127	 3HB	542.285	130.357	-478.991	 H	9	GLU9	-0.017	
128	 2HG	544.293	131.786	-479.683	 H	9	GLU9	-0.043	
129	 3HG	545.112	130.351	-480.278	 H	9	GLU9	-0.043	
130	   N	543.365	128.410	-482.426	N.am	10	HIS10	-0.416	
131	  CA	544.253	127.899	-483.466	C.3	10	HIS10	-0.058	
132	   C	543.888	128.464	-484.817	C.2	10	HIS10	0.597	
133	   O	544.741	128.929	-485.588	O.2	10	HIS10	-0.568	
134	  CB	544.089	126.370	-483.462	C.3	10	HIS10	-0.007	
135	  CG	545.374	125.659	-483.153	C.2	10	HIS10	0.187	
136	 CD2	545.754	125.323	-481.861	C.2	10	HIS10	-0.221	
137	 ND1	546.327	125.253	-484.085	N.2	10	HIS10	-0.543	
138	 CE1	547.232	124.695	-483.262	C.2	10	HIS10	0.163	
139	 NE2	546.969	124.691	-481.927	N.pl3	10	HIS10	-0.280	
140	   H	542.833	127.774	-481.848	 H	10	HIS10	0.272	
141	  HA	545.272	128.256	-483.240	 H	10	HIS10	0.136	
142	 2HB	543.724	126.003	-484.442	 H	10	HIS10	0.037	
143	 3HB	543.333	126.033	-482.723	 H	10	HIS10	0.037	
144	 2HD	545.168	125.538	-480.972	 H	10	HIS10	0.186	
145	 1HE	548.124	124.274	-483.708	 H	10	HIS10	0.144	
146	 2HE	547.535	124.313	-481.153	 H	10	HIS10	0.334	
147	   N	542.650	128.464	-485.181	N.am	11	VAL11	-0.416	
148	  CA	542.296	129.010	-486.488	C.3	11	VAL11	-0.087	
149	   C	542.761	130.441	-486.619	C.2	11	VAL11	0.597	
150	   O	543.363	130.846	-487.622	O.2	11	VAL11	-0.568	
151	  CB	540.735	128.904	-486.709	C.3	11	VAL11	0.299	
152	 CG1	540.167	129.609	-487.971	C.3	11	VAL11	-0.319	
153	 CG2	540.210	127.450	-486.783	C.3	11	VAL11	-0.319	
154	   H	541.937	128.091	-484.571	 H	11	VAL11	0.272	
155	  HA	542.816	128.428	-487.270	 H	11	VAL11	0.097	
156	  HB	540.247	129.384	-485.833	 H	11	VAL11	-0.030	
157	1HG1	540.606	129.217	-488.908	 H	11	VAL11	0.079	
158	2HG1	539.068	129.502	-488.054	 H	11	VAL11	0.079	
159	3HG1	540.346	130.701	-487.961	 H	11	VAL11	0.079	
160	1HG2	540.499	126.862	-485.892	 H	11	VAL11	0.079	
161	2HG2	539.104	127.413	-486.826	 H	11	VAL11	0.079	
162	3HG2	540.592	126.910	-487.669	 H	11	VAL11	0.079	
163	   N	542.523	131.266	-485.657	N.am	12	GLN12	-0.416	
164	  CA	542.972	132.649	-485.783	C.3	12	GLN12	-0.003	
165	   C	544.462	132.716	-486.020	C.2	12	GLN12	0.597	
166	   O	544.950	133.425	-486.898	O.2	12	GLN12	-0.568	
167	  CB	542.580	133.416	-484.500	C.3	12	GLN12	-0.004	
168	  CG	542.941	134.938	-484.468	C.3	12	GLN12	-0.064	
169	  CD	542.638	135.751	-483.203	C.2	12	GLN12	0.695	
170	 NE2	542.070	135.174	-482.175	N.pl3	12	GLN12	-0.941	
171	 OE1	542.940	136.932	-483.125	O.2	12	GLN12	-0.609	
172	   H	542.034	130.960	-484.828	 H	12	GLN12	0.272	
173	  HA	542.473	133.106	-486.658	 H	12	GLN12	0.085	
174	 2HB	543.056	132.915	-483.631	 H	12	GLN12	0.017	
175	 3HB	541.490	133.309	-484.338	 H	12	GLN12	0.017	
176	 2HG	542.464	135.459	-485.319	 H	12	GLN12	0.035	
177	 3HG	544.025	135.080	-484.633	 H	12	GLN12	0.035	
178	1HE2	541.962	135.768	-481.351	 H	12	GLN12	0.425	
179	2HE2	541.906	134.170	-482.279	 H	12	GLN12	0.425	
180	   N	545.246	132.009	-485.279	N.am	13	ARG13	-0.348	
181	  CA	546.687	132.075	-485.509	C.3	13	ARG13	-0.264	
182	   C	547.024	131.704	-486.934	C.2	13	ARG13	0.734	
183	   O	547.793	132.376	-487.617	O.2	13	ARG13	-0.589	
184	  CB	547.399	131.135	-484.495	C.3	13	ARG13	-0.001	
185	  CG	548.944	131.288	-484.413	C.3	13	ARG13	0.039	
186	  CD	549.570	130.300	-483.415	C.3	13	ARG13	0.049	
187	  NE	551.047	130.507	-483.363	N.pl3	13	ARG13	-0.530	
188	  CZ	551.895	129.815	-482.608	C.cat	13	ARG13	0.808	
189	 NH1	551.529	128.850	-481.811	N.pl3	13	ARG13	-0.863	
190	 NH2	553.154	130.113	-482.664	N.pl3	13	ARG13	-0.863	
191	   H	544.869	131.419	-484.551	 H	13	ARG13	0.275	
192	  HA	547.011	133.121	-485.349	 H	13	ARG13	0.156	
193	 2HB	547.133	130.085	-484.735	 H	13	ARG13	0.033	
194	 3HB	546.973	131.301	-483.484	 H	13	ARG13	0.033	
195	 2HG	549.192	132.333	-484.133	 H	13	ARG13	0.029	
196	 3HG	549.395	131.132	-485.414	 H	13	ARG13	0.029	
197	 2HD	549.326	129.260	-483.725	 H	13	ARG13	0.069	
198	 3HD	549.113	130.445	-482.413	 H	13	ARG13	0.069	
199	  HE	551.499	131.229	-483.934	 H	13	ARG13	0.346	
200	1HH1	550.524	128.664	-481.815	 H	13	ARG13	0.448	
201	2HH1	552.242	128.366	-481.262	 H	13	ARG13	0.448	
202	1HH2	553.422	130.871	-483.294	 H	13	ARG13	0.448	
203	2HH2	553.789	129.572	-482.075	 H	13	ARG13	0.448	
204	   N	546.488	130.650	-487.449	N.am	14	VAL14	-0.416	
205	  CA	546.813	130.291	-488.826	C.3	14	VAL14	-0.087	
206	   C	546.484	131.422	-489.772	C.2	14	VAL14	0.597	
207	   O	547.278	131.803	-490.641	O.2	14	VAL14	-0.568	
208	  CB	546.041	128.974	-489.234	C.3	14	VAL14	0.299	
209	 CG1	546.131	128.557	-490.728	C.3	14	VAL14	-0.319	
210	 CG2	546.472	127.722	-488.434	C.3	14	VAL14	-0.319	
211	   H	545.852	130.081	-486.908	 H	14	VAL14	0.272	
212	  HA	547.901	130.114	-488.900	 H	14	VAL14	0.097	
213	  HB	544.964	129.146	-489.019	 H	14	VAL14	-0.030	
214	1HG1	547.172	128.380	-491.056	 H	14	VAL14	0.079	
215	2HG1	545.558	127.634	-490.941	 H	14	VAL14	0.079	
216	3HG1	545.702	129.319	-491.406	 H	14	VAL14	0.079	
217	1HG2	546.384	127.880	-487.344	 H	14	VAL14	0.079	
218	2HG2	545.836	126.845	-488.667	 H	14	VAL14	0.079	
219	3HG2	547.520	127.432	-488.639	 H	14	VAL14	0.079	
220	   N	545.339	132.008	-489.670	N.am	15	MET15	-0.416	
221	  CA	545.019	133.101	-490.584	C.3	15	MET15	-0.024	
222	   C	546.050	134.200	-490.495	C.2	15	MET15	0.597	
223	   O	546.553	134.711	-491.507	O.2	15	MET15	-0.568	
224	  CB	543.598	133.646	-490.275	C.3	15	MET15	0.034	
225	  CG	542.436	132.649	-490.468	C.3	15	MET15	0.002	
226	  SD	540.862	133.515	-490.354	S.3	15	MET15	-0.274	
227	  CE	539.780	132.085	-490.219	C.3	15	MET15	-0.054	
228	   H	544.674	131.714	-488.969	 H	15	MET15	0.272	
229	  HA	545.046	132.714	-491.619	 H	15	MET15	0.088	
230	 2HB	543.396	134.526	-490.917	 H	15	MET15	0.024	
231	 3HB	543.562	134.039	-489.239	 H	15	MET15	0.024	
232	 2HG	542.478	131.863	-489.691	 H	15	MET15	0.044	
233	 3HG	542.499	132.134	-491.445	 H	15	MET15	0.044	
234	 1HE	539.925	131.398	-491.072	 H	15	MET15	0.068	
235	 2HE	539.989	131.532	-489.286	 H	15	MET15	0.068	
236	 3HE	538.723	132.401	-490.203	 H	15	MET15	0.068	
237	   N	546.418	134.621	-489.332	N.am	16	ARG16	-0.348	
238	  CA	547.415	135.684	-489.247	C.3	16	ARG16	-0.264	
239	   C	548.686	135.292	-489.963	C.2	16	ARG16	0.734	
240	   O	548.799	134.215	-490.545	O.2	16	ARG16	-0.589	
241	  CB	547.683	136.002	-487.749	C.3	16	ARG16	-0.001	
242	  CG	548.508	137.290	-487.475	C.3	16	ARG16	0.039	
243	  CD	548.757	137.509	-485.973	C.3	16	ARG16	0.049	
244	  NE	549.533	138.768	-485.771	N.pl3	16	ARG16	-0.530	
245	  CZ	549.924	139.250	-484.595	C.cat	16	ARG16	0.808	
246	 NH1	549.675	138.665	-483.457	N.pl3	16	ARG16	-0.863	
247	 NH2	550.588	140.362	-484.576	N.pl3	16	ARG16	-0.863	
248	   H	546.023	134.220	-488.493	 H	16	ARG16	0.275	
249	  HA	547.006	136.577	-489.757	 H	16	ARG16	0.156	
250	 2HB	548.179	135.125	-487.282	 H	16	ARG16	0.033	
251	 3HB	546.714	136.083	-487.215	 H	16	ARG16	0.033	
252	 2HG	547.978	138.162	-487.912	 H	16	ARG16	0.029	
253	 3HG	549.482	137.237	-488.003	 H	16	ARG16	0.029	
254	 2HD	549.305	136.634	-485.560	 H	16	ARG16	0.069	
255	 3HD	547.784	137.552	-485.439	 H	16	ARG16	0.069	
256	  HE	549.812	139.349	-486.568	 H	16	ARG16	0.346	
257	1HH1	549.149	137.792	-483.542	 H	16	ARG16	0.448	
258	2HH1	550.009	139.100	-482.596	 H	16	ARG16	0.448	
259	1HH2	550.774	140.805	-485.477	 H	16	ARG16	0.448	
260	2HH2	550.878	140.717	-483.663	 H	16	ARG16	0.448	
@<TRIPOS>BOND
1 1 2 1
2 1 10 1
3 2 3 1
4 2 5 1
5 2 11 1
6 3 4 2
7 3 16 1
8 5 6 1
9 6 7 1
10 7 8 2
11 7 9 1
12 5 12 1
13 5 13 1
14 6 14 1
15 6 15 1
16 16 17 1
17 16 24 1
18 17 18 1
19 17 20 1
20 17 25 1
21 18 19 2
22 18 30 1
23 20 21 1
24 21 22 1
25 21 23 2
26 20 26 1
27 20 27 1
28 22 28 1
29 22 29 1
30 30 31 1
31 30 36 1
32 31 32 1
33 31 34 1
34 31 37 1
35 32 33 2
36 32 44 1
37 34 35 1
38 35 36 1
39 34 38 1
40 34 39 1
41 35 40 1
42 35 41 1
43 36 42 1
44 36 43 1
45 44 45 1
46 44 49 1
47 45 46 1
48 45 48 1
49 45 50 1
50 46 47 2
51 46 54 1
52 48 51 1
53 48 52 1
54 48 53 1
55 54 55 1
56 54 60 1
57 55 56 1
58 55 58 1
59 55 61 1
60 56 57 2
61 56 65 1
62 58 59 1
63 58 62 1
64 58 63 1
65 59 64 1
66 65 66 1
67 65 73 1
68 66 67 1
69 66 69 1
70 66 74 1
71 67 68 2
72 67 84 1
73 69 70 1
74 69 71 1
75 70 72 1
76 69 75 1
77 70 76 1
78 70 77 1
79 71 78 1
80 71 79 1
81 71 80 1
82 72 81 1
83 72 82 1
84 72 83 1
85 84 85 1
86 84 92 1
87 85 86 1
88 85 88 1
89 85 93 1
90 86 87 2
91 86 103 1
92 88 89 1
93 89 90 1
94 89 91 1
95 88 94 1
96 88 95 1
97 89 96 1
98 90 97 1
99 90 98 1
100 90 99 1
101 91 100 1
102 91 101 1
103 91 102 1
104 103 104 1
105 103 111 1
106 104 105 1
107 104 107 1
108 104 112 1
109 105 106 2
110 105 115 1
111 107 108 1
112 108 109 2
113 108 110 1
114 107 113 1
115 107 114 1
116 115 116 1
117 115 124 1
118 116 117 1
119 116 119 1
120 116 125 1
121 117 118 2
122 117 130 1
123 119 120 1
124 120 121 1
125 121 122 2
126 121 123 1
127 119 126 1
128 119 127 1
129 120 128 1
130 120 129 1
131 130 131 1
132 130 140 1
133 131 132 1
134 131 134 1
135 131 141 1
136 132 133 2
137 132 147 1
138 134 135 1
139 135 136 2
140 136 139 1
141 135 137 1
142 137 138 2
143 138 139 1
144 134 142 1
145 134 143 1
146 136 144 1
147 138 145 1
148 139 146 1
149 147 148 1
150 147 154 1
151 148 149 1
152 148 151 1
153 148 155 1
154 149 150 2
155 149 163 1
156 151 152 1
157 151 153 1
158 151 156 1
159 152 157 1
160 152 158 1
161 152 159 1
162 153 160 1
163 153 161 1
164 153 162 1
165 163 164 1
166 163 172 1
167 164 165 1
168 164 167 1
169 164 173 1
170 165 166 2
171 165 180 1
172 167 168 1
173 168 169 1
174 169 170 1
175 169 171 2
176 167 174 1
177 167 175 1
178 168 176 1
179 168 177 1
180 170 178 1
181 170 179 1
182 180 181 1
183 180 191 1
184 181 182 1
185 181 184 1
186 181 192 1
187 182 183 2
188 182 204 1
189 184 185 1
190 185 186 1
191 186 187 1
192 187 188 1
193 188 189 2
194 188 190 1
195 184 193 1
196 184 194 1
197 185 195 1
198 185 196 1
199 186 197 1
200 186 198 1
201 187 199 1
202 189 200 1
203 189 201 1
204 190 202 1
205 190 203 1
206 204 205 1
207 204 211 1
208 205 206 1
209 205 208 1
210 205 212 1
211 206 207 2
212 206 220 1
213 208 209 1
214 208 210 1
215 208 213 1
216 209 214 1
217 209 215 1
218 209 216 1
219 210 217 1
220 210 218 1
221 210 219 1
222 220 221 1
223 220 228 1
224 221 222 1
225 221 224 1
226 221 229 1
227 222 223 2
228 222 237 1
229 224 225 1
230 225 226 1
231 226 227 1
232 224 230 1
233 224 231 1
234 225 232 1
235 225 233 1
236 227 234 1
237 227 235 1
238 227 236 1
239 237 238 1
240 237 248 1
241 238 239 1
242 238 241 1
243 238 249 1
244 239 240 2
245 241 242 1
246 242 243 1
247 243 244 1
248 244 245 1
249 245 246 2
250 245 247 1
251 241 250 1
252 241 251 1
253 242 252 1
254 242 253 1
255 243 254 1
256 243 255 1
257 244 256 1
258 246 257 1
259 246 258 1
260 247 259 1
261 247 260 1
@<TRIPOS>SUBSTRUCTURE
1	GLU1	1	RESIDUE	1 ****	GLU
2	ASN2	16	RESIDUE	1 ****	ASN
3	PRO3	30	RESIDUE	1 ****	PRO
4	ALA4	44	RESIDUE	1 ****	ALA
5	SER5	54	RESIDUE	1 ****	SER
6	ILE6	65	RESIDUE	1 ****	ILE
7	LEU7	84	RESIDUE	1 ****	LEU
8	ASP8	103	RESIDUE	1 ****	ASP
9	GLU9	115	RESIDUE	1 ****	GLU
10	HIS10	130	RESIDUE	1 ****	HIS
11	VAL11	147	RESIDUE	1 ****	VAL
12	GLN12	163	RESIDUE	1 ****	GLN
13	ARG13	180	RESIDUE	1 ****	ARG
14	VAL14	204	RESIDUE	1 ****	VAL
15	MET15	220	RESIDUE	1 ****	MET
16	ARG16	237	RESIDUE	1 ****	ARG
