REMARK WARNING: 32 MAX_TORS EXCEEDED!!!
REMARK  68 active torsions:
REMARK  status: ('A' for Active; 'I' for Inactive)
REMARK    1  A    between atoms: N_1  and  CA_2 
REMARK    2  A    between atoms: CA_2  and  C_3 
REMARK    3  A    between atoms: CA_2  and  CB_5 
REMARK       I    between atoms: C_3  and  N_11 
REMARK    4  A    between atoms: CB_5  and  CG_6 
REMARK    5  A    between atoms: CG_6  and  CD_7 
REMARK    6  A    between atoms: N_11  and  CA_12 
REMARK    7  A    between atoms: CA_12  and  C_13 
REMARK    8  A    between atoms: CA_12  and  CB_15 
REMARK       I    between atoms: C_13  and  N_22 
REMARK    9  A    between atoms: CB_15  and  CG_16 
REMARK       I    between atoms: CG_16  and  ND2_17 
REMARK   10  A    between atoms: CA_23  and  C_24 
REMARK       I    between atoms: C_24  and  N_29 
REMARK   11  A    between atoms: N_29  and  CA_30 
REMARK   12  A    between atoms: CA_30  and  C_31 
REMARK   13  A    between atoms: CA_30  and  CB_33 
REMARK       I    between atoms: C_31  and  N_39 
REMARK   14  A    between atoms: CB_33  and  CG_34 
REMARK   15  A    between atoms: CG_34  and  CD_35 
REMARK   16  A    between atoms: N_39  and  CA_40 
REMARK   17  A    between atoms: CA_40  and  C_41 
REMARK   18  A    between atoms: CA_40  and  CB_43 
REMARK       I    between atoms: C_41  and  N_47 
REMARK   19  A    between atoms: CB_43  and  OG_44 
REMARK   20  A    between atoms: N_47  and  CA_48 
REMARK   21  A    between atoms: CA_48  and  C_49 
REMARK   22  A    between atoms: CA_48  and  CB_51 
REMARK       I    between atoms: C_49  and  N_56 
REMARK   23  A    between atoms: CB_51  and  CG1_52 
REMARK   24  A    between atoms: N_56  and  CA_57 
REMARK   25  A    between atoms: CA_57  and  C_58 
REMARK   26  A    between atoms: CA_57  and  CB_60 
REMARK       I    between atoms: C_58  and  N_65 
REMARK   27  A    between atoms: CB_60  and  CG_61 
REMARK   28  A    between atoms: N_65  and  CA_66 
REMARK   29  A    between atoms: CA_66  and  C_67 
REMARK   30  A    between atoms: CA_66  and  CB_69 
REMARK       I    between atoms: C_67  and  N_73 
REMARK   31  A    between atoms: CB_69  and  SG_70 
REMARK   32  A    between atoms: N_73  and  CA_74 
REMARK   33  A    between atoms: CA_74  and  C_75 
REMARK   34  A    between atoms: CA_74  and  CB_77 
REMARK       I    between atoms: C_75  and  N_83 
REMARK   35  A    between atoms: CB_77  and  CG_78 
REMARK   36  A    between atoms: CG_78  and  CD_79 
REMARK   37  A    between atoms: N_83  and  CA_84 
REMARK   38  A    between atoms: CA_84  and  C_85 
REMARK   39  A    between atoms: CA_84  and  CB_87 
REMARK       I    between atoms: C_85  and  N_95 
REMARK   40  A    between atoms: CB_87  and  CG_88 
REMARK   41  A    between atoms: N_95  and  CA_96 
REMARK   42  A    between atoms: CA_96  and  C_97 
REMARK   43  A    between atoms: CA_96  and  CB_99 
REMARK       I    between atoms: C_97  and  N_103 
REMARK   44  A    between atoms: N_103  and  CA_104 
REMARK   45  A    between atoms: CA_104  and  C_105 
REMARK   46  A    between atoms: CA_104  and  CB_107 
REMARK       I    between atoms: C_105  and  N_115 
REMARK   47  A    between atoms: CB_107  and  CG_108 
REMARK   48  A    between atoms: CG_108  and  CD_109 
REMARK       I    between atoms: CD_109  and  NE2_110 
REMARK   49  A    between atoms: N_115  and  CA_116 
REMARK   50  A    between atoms: CA_116  and  C_117 
REMARK   51  A    between atoms: CA_116  and  CB_119 
REMARK       I    between atoms: C_117  and  N_132 
REMARK   52  A    between atoms: CB_119  and  CG_120 
REMARK   53  A    between atoms: CG_120  and  CD_121 
REMARK   54  A    between atoms: CD_121  and  NE_122 
REMARK       I    between atoms: NE_122  and  CZ_123 
REMARK       I    between atoms: CZ_123  and  NH1_124 
REMARK       I    between atoms: CZ_123  and  NH2_125 
REMARK   55  A    between atoms: N_132  and  CA_133 
REMARK   56  A    between atoms: CA_133  and  C_134 
REMARK   57  A    between atoms: CA_133  and  CB_136 
REMARK       I    between atoms: C_134  and  N_140 
REMARK   58  A    between atoms: N_140  and  CA_141 
REMARK   59  A    between atoms: CA_141  and  C_142 
REMARK   60  A    between atoms: CA_141  and  CB_144 
REMARK       I    between atoms: C_142  and  N_149 
REMARK   61  A    between atoms: CB_144  and  CG_145 
REMARK   62  A    between atoms: CG_145  and  SD_146 
REMARK   63  A    between atoms: N_149  and  CA_150 
REMARK   64  A    between atoms: CA_150  and  C_151 
REMARK   65  A    between atoms: CA_150  and  CB_153 
REMARK   66  A    between atoms: CB_153  and  CG_154 
REMARK   67  A    between atoms: CG_154  and  CD_155 
REMARK   68  A    between atoms: CD_155  and  NE_156 
REMARK       I    between atoms: NE_156  and  CZ_157 
REMARK       I    between atoms: CZ_157  and  NH1_158 
ROOT
ATOM      1  C   GLU d   9    1289.419 376.299-1288.453  0.00  0.00     0.241 C 
ATOM      2  O   GLU d   9    1290.083 377.054-1289.178  0.00  0.00    -0.271 OA
ATOM      3  N   HIS d  10    1289.515 375.024-1288.624  0.00  0.00    -0.346 N 
ATOM      4  H   HIS d  10    1288.984 374.389-1288.046  0.00  0.00     0.163 HD
ENDROOT
BRANCH   3   5
ATOM      5  CA  HIS d  10    1290.403 374.514-1289.665  0.00  0.00     0.182 C 
BRANCH   5   6
ATOM      6  C   HIS d  10    1290.036 375.080-1291.015  0.00  0.00     0.241 C 
ATOM      7  O   HIS d  10    1290.889 375.545-1291.787  0.00  0.00    -0.271 OA
ATOM      8  N   VAL d  11    1288.798 375.079-1291.378  0.00  0.00    -0.346 N 
ATOM      9  H   VAL d  11    1288.085 374.706-1290.768  0.00  0.00     0.163 HD
BRANCH   8  10
ATOM     10  CA  VAL d  11    1288.443 375.627-1292.685  0.00  0.00     0.180 C 
BRANCH  10  11
ATOM     11  C   VAL d  11    1288.908 377.057-1292.816  0.00  0.00     0.241 C 
ATOM     12  O   VAL d  11    1289.509 377.463-1293.818  0.00  0.00    -0.271 OA
ATOM     13  N   GLN d  12    1288.671 377.882-1291.852  0.00  0.00    -0.346 N 
ATOM     14  H   GLN d  12    1288.182 377.575-1291.023  0.00  0.00     0.163 HD
BRANCH  13  15
ATOM     15  CA  GLN d  12    1289.120 379.265-1291.978  0.00  0.00     0.177 C 
BRANCH  15  16
ATOM     16  C   GLN d  12    1290.610 379.332-1292.216  0.00  0.00     0.241 C 
ATOM     17  O   GLN d  12    1291.097 380.041-1293.093  0.00  0.00    -0.271 OA
ATOM     18  N   ARG d  13    1291.395 378.624-1291.476  0.00  0.00    -0.346 N 
ATOM     19  H   ARG d  13    1291.018 378.034-1290.748  0.00  0.00     0.163 HD
BRANCH  18  20
ATOM     20  CA  ARG d  13    1292.835 378.690-1291.706  0.00  0.00     0.176 C 
BRANCH  20  21
ATOM     21  C   ARG d  13    1293.171 378.320-1293.132  0.00  0.00     0.241 C 
ATOM     22  O   ARG d  13    1293.939 378.992-1293.815  0.00  0.00    -0.271 OA
ATOM     23  N   VAL d  14    1292.634 377.266-1293.647  0.00  0.00    -0.346 N 
ATOM     24  H   VAL d  14    1291.999 376.697-1293.106  0.00  0.00     0.163 HD
BRANCH  23  25
ATOM     25  CA  VAL d  14    1292.958 376.909-1295.025  0.00  0.00     0.180 C 
BRANCH  25  26
ATOM     26  C   VAL d  14    1292.628 378.040-1295.969  0.00  0.00     0.241 C 
ATOM     27  O   VAL d  14    1293.422 378.422-1296.839  0.00  0.00    -0.271 OA
ATOM     28  N   MET d  15    1291.484 378.626-1295.867  0.00  0.00    -0.346 N 
ATOM     29  H   MET d  15    1290.819 378.332-1295.165  0.00  0.00     0.163 HD
BRANCH  28  30
ATOM     30  CA  MET d  15    1291.163 379.720-1296.779  0.00  0.00     0.177 C 
BRANCH  30  31
ATOM     31  C   MET d  15    1292.194 380.819-1296.690  0.00  0.00     0.241 C 
ATOM     32  O   MET d  15    1292.697 381.331-1297.703  0.00  0.00    -0.271 OA
ATOM     33  N   ARG d  16    1292.563 381.239-1295.528  0.00  0.00    -0.347 N 
ATOM     34  H   ARG d  16    1292.168 380.838-1294.689  0.00  0.00     0.163 HD
BRANCH  33  35
ATOM     35  CA  ARG d  16    1293.560 382.302-1295.443  0.00  0.00     0.162 C 
BRANCH  35  36
ATOM     36  C   ARG d  16    1294.830 381.910-1296.160  0.00  0.00     0.219 C 
ATOM     37  O   ARG d  16    1294.944 380.834-1296.743  0.00  0.00    -0.287 OA
ENDBRANCH  35  36
BRANCH  35  38
ATOM     38  CB  ARG d  16    1293.829 382.618-1293.945  0.00  0.00     0.035 C 
BRANCH  38  39
ATOM     39  CG  ARG d  16    1294.655 383.907-1293.671  0.00  0.00     0.023 C 
BRANCH  39  40
ATOM     40  CD  ARG d  16    1294.905 384.125-1292.169  0.00  0.00     0.138 C 
BRANCH  40  41
ATOM     41  NE  ARG d  16    1295.682 385.383-1291.967  0.00  0.00    -0.227 N 
ATOM     42  CZ  ARG d  16    1296.073 385.864-1290.791  0.00  0.00     0.665 C 
ATOM     43  NH1 ARG d  16    1295.826 385.279-1289.653  0.00  0.00    -0.235 N 
ATOM     44  NH2 ARG d  16    1296.738 386.976-1290.771  0.00  0.00    -0.235 N 
ATOM     45 11HH ARG d  16    1295.300 384.406-1289.738  0.00  0.00     0.174 HD
ATOM     46 12HH ARG d  16    1296.161 385.713-1288.792  0.00  0.00     0.174 HD
ATOM     47 21HH ARG d  16    1296.923 387.420-1291.673  0.00  0.00     0.174 HD
ATOM     48 22HH ARG d  16    1297.028 387.330-1289.859  0.00  0.00     0.174 HD
ATOM     49  HE  ARG d  16    1295.960 385.965-1292.764  0.00  0.00     0.177 HD
ENDBRANCH  40  41
ENDBRANCH  39  40
ENDBRANCH  38  39
ENDBRANCH  35  38
ENDBRANCH  33  35
ENDBRANCH  30  31
BRANCH  30  50
ATOM     50  CB  MET d  15    1289.742 380.265-1296.469  0.00  0.00     0.045 C 
BRANCH  50  51
ATOM     51  CG  MET d  15    1288.580 379.268-1296.662  0.00  0.00     0.076 C 
BRANCH  51  52
ATOM     52  SD  MET d  15    1287.006 380.134-1296.546  0.00  0.00    -0.173 SA
ATOM     53  CE  MET d  15    1285.925 378.705-1296.411  0.00  0.00     0.089 C 
ENDBRANCH  51  52
ENDBRANCH  50  51
ENDBRANCH  30  50
ENDBRANCH  28  30
ENDBRANCH  25  26
BRANCH  25  54
ATOM     54  CB  VAL d  14    1292.186 375.592-1295.433  0.00  0.00     0.009 C 
ATOM     55  CG1 VAL d  14    1292.274 375.175-1296.927  0.00  0.00     0.012 C 
ATOM     56  CG2 VAL d  14    1292.617 374.339-1294.634  0.00  0.00     0.012 C 
ENDBRANCH  25  54
ENDBRANCH  23  25
ENDBRANCH  20  21
BRANCH  20  57
ATOM     57  CB  ARG d  13    1293.548 377.750-1290.694  0.00  0.00     0.036 C 
BRANCH  57  58
ATOM     58  CG  ARG d  13    1295.093 377.902-1290.612  0.00  0.00     0.023 C 
BRANCH  58  59
ATOM     59  CD  ARG d  13    1295.720 376.913-1289.616  0.00  0.00     0.138 C 
BRANCH  59  60
ATOM     60  NE  ARG d  13    1297.197 377.120-1289.565  0.00  0.00    -0.227 N 
ATOM     61  CZ  ARG d  13    1298.045 376.427-1288.811  0.00  0.00     0.665 C 
ATOM     62  NH1 ARG d  13    1297.680 375.462-1288.015  0.00  0.00    -0.235 N 
ATOM     63  NH2 ARG d  13    1299.304 376.726-1288.868  0.00  0.00    -0.235 N 
ATOM     64 11HH ARG d  13    1296.674 375.276-1288.018  0.00  0.00     0.174 HD
ATOM     65 12HH ARG d  13    1298.393 374.978-1287.467  0.00  0.00     0.174 HD
ATOM     66 21HH ARG d  13    1299.572 377.485-1289.498  0.00  0.00     0.174 HD
ATOM     67 22HH ARG d  13    1299.940 376.184-1288.280  0.00  0.00     0.174 HD
ATOM     68  HE  ARG d  13    1297.648 377.843-1290.135  0.00  0.00     0.177 HD
ENDBRANCH  59  60
ENDBRANCH  58  59
ENDBRANCH  57  58
ENDBRANCH  20  57
ENDBRANCH  18  20
ENDBRANCH  15  16
BRANCH  15  69
ATOM     69  CB  GLN d  12    1288.730 380.031-1290.694  0.00  0.00     0.044 C 
BRANCH  69  70
ATOM     70  CG  GLN d  12    1289.090 381.553-1290.661  0.00  0.00     0.105 C 
BRANCH  70  71
ATOM     71  CD  GLN d  12    1288.788 382.365-1289.396  0.00  0.00     0.215 C 
ATOM     72  NE2 GLN d  12    1288.221 381.788-1288.367  0.00  0.00    -0.370 N 
ATOM     73 21HE GLN d  12    1288.114 382.381-1287.543  0.00  0.00     0.159 HD
ATOM     74 22HE GLN d  12    1288.057 380.784-1288.472  0.00  0.00     0.159 HD
ATOM     75  OE1 GLN d  12    1289.090 383.546-1289.317  0.00  0.00    -0.274 OA
ENDBRANCH  70  71
ENDBRANCH  69  70
ENDBRANCH  15  69
ENDBRANCH  13  15
ENDBRANCH  10  11
BRANCH  10  76
ATOM     76  CB  VAL d  11    1286.882 375.521-1292.904  0.00  0.00     0.009 C 
ATOM     77  CG1 VAL d  11    1286.314 376.226-1294.166  0.00  0.00     0.012 C 
ATOM     78  CG2 VAL d  11    1286.357 374.067-1292.979  0.00  0.00     0.012 C 
ENDBRANCH  10  76
ENDBRANCH   8  10
ENDBRANCH   5   6
BRANCH   5  79
ATOM     79  CB  HIS d  10    1290.238 372.985-1289.661  0.00  0.00     0.095 C 
BRANCH  79  80
ATOM     80  CG  HIS d  10    1291.524 372.274-1289.354  0.00  0.00     0.053 A 
ATOM     81  CD2 HIS d  10    1291.905 371.937-1288.062  0.00  0.00     0.116 A 
ATOM     82  NE2 HIS d  10    1293.119 371.306-1288.129  0.00  0.00    -0.359 N 
ATOM     83  CE1 HIS d  10    1293.382 371.310-1289.464  0.00  0.00     0.207 A 
ATOM     84  2HE HIS d  10    1293.686 370.927-1287.356  0.00  0.00     0.166 HD
ATOM     85  ND1 HIS d  10    1292.476 371.869-1290.287  0.00  0.00    -0.247 NA
ENDBRANCH  79  80
ENDBRANCH   5  79
ENDBRANCH   3   5
BRANCH   1  86
ATOM     86  CA  GLU d   9    1288.501 376.826-1287.377  0.00  0.00     0.177 C 
BRANCH  86  87
ATOM     87  N   GLU d   9    1287.198 376.169-1287.433  0.00  0.00    -0.346 N 
ATOM     88  C   CYS d   8    1286.519 376.220-1288.528  0.00  0.00     0.241 C 
ATOM     89  O   CYS d   8    1286.991 376.825-1289.501  0.00  0.00    -0.271 OA
ATOM     90  H   GLU d   9    1286.835 375.682-1286.626  0.00  0.00     0.163 HD
BRANCH  88  91
ATOM     91  CA  CYS d   8    1285.171 375.540-1288.586  0.00  0.00     0.185 C 
BRANCH  91  92
ATOM     92  N   CYS d   8    1285.242 374.190-1288.034  0.00  0.00    -0.345 N 
ATOM     93  C   LEU d   7    1286.079 373.350-1288.540  0.00  0.00     0.241 C 
ATOM     94  O   LEU d   7    1286.800 373.713-1289.482  0.00  0.00    -0.271 OA
ATOM     95  H   CYS d   8    1284.644 373.919-1287.266  0.00  0.00     0.163 HD
BRANCH  93  96
ATOM     96  CA  LEU d   7    1286.152 371.954-1287.968  0.00  0.00     0.177 C 
BRANCH  96  97
ATOM     97  N   LEU d   7    1286.207 371.990-1286.509  0.00  0.00    -0.346 N 
ATOM     98  C   ILE d   6    1287.153 372.654-1285.936  0.00  0.00     0.241 C 
ATOM     99  O   ILE d   6    1287.987 373.241-1286.640  0.00  0.00    -0.271 OA
ATOM    100  H   LEU d   7    1285.515 371.503-1285.958  0.00  0.00     0.163 HD
BRANCH  98 101
ATOM    101  CA  ILE d   6    1287.210 372.691-1284.428  0.00  0.00     0.180 C 
BRANCH 101 102
ATOM    102  N   ILE d   6    1285.897 372.986-1283.862  0.00  0.00    -0.346 N 
ATOM    103  C   SER d   5    1285.292 374.069-1284.216  0.00  0.00     0.243 C 
ATOM    104  O   SER d   5    1285.839 374.822-1285.020  0.00  0.00    -0.271 OA
ATOM    105  H   ILE d   6    1285.469 372.351-1283.203  0.00  0.00     0.163 HD
BRANCH 103 106
ATOM    106  CA  SER d   5    1283.933 374.374-1283.630  0.00  0.00     0.200 C 
BRANCH 106 107
ATOM    107  N   SER d   5    1283.064 373.203-1283.688  0.00  0.00    -0.344 N 
ATOM    108  C   GLU d   4    1282.836 372.650-1284.831  0.00  0.00     0.241 C 
ATOM    109  O   GLU d   4    1283.363 373.130-1285.846  0.00  0.00    -0.271 OA
ATOM    110  H   SER d   5    1282.647 372.831-1282.847  0.00  0.00     0.163 HD
BRANCH 108 111
ATOM    111  CA  GLU d   4    1281.938 371.439-1284.892  0.00  0.00     0.177 C 
BRANCH 111 112
ATOM    112  N   GLU d   4    1282.297 370.468-1283.863  0.00  0.00    -0.346 N 
ATOM    113  C   PRO d   3    1283.502 370.008-1283.831  0.00  0.00     0.241 C 
ATOM    114  O   PRO d   3    1284.325 370.391-1284.662  0.00  0.00    -0.271 OA
ATOM    115  H   GLU d   4    1281.613 370.161-1283.186  0.00  0.00     0.163 HD
BRANCH 113 116
ATOM    116  CA  PRO d   3    1283.900 368.984-1282.754  0.00  0.00     0.179 C 
ATOM    117  N   PRO d   3    1283.449 369.394-1281.432  0.00  0.00    -0.337 N 
ATOM    118  C   ASN d   2    1283.970 370.389-1280.798  0.00  0.00     0.243 C 
ATOM    119  CD  PRO d   3    1282.371 368.600-1280.883  0.00  0.00     0.127 C 
ATOM    120  O   ASN d   2    1284.885 371.019-1281.327  0.00  0.00    -0.271 OA
ATOM    121  CG  PRO d   3    1281.913 367.782-1282.093  0.00  0.00     0.022 C 
ATOM    122  CB  PRO d   3    1283.196 367.630-1282.923  0.00  0.00     0.037 C 
BRANCH 118 123
ATOM    123  CA  ASN d   2    1283.439 370.744-1279.429  0.00  0.00     0.185 C 
BRANCH 123 124
ATOM    124  N   ASN d   2    1281.980 370.783-1279.429  0.00  0.00    -0.346 N 
ATOM    125  C   GLU d   1    1281.375 371.569-1280.255  0.00  0.00     0.242 C 
ATOM    126  O   GLU d   1    1282.051 372.268-1281.023  0.00  0.00    -0.271 OA
ATOM    127  H   ASN d   2    1281.451 370.203-1278.793  0.00  0.00     0.163 HD
BRANCH 125 128
ATOM    128  CA  GLU d   1    1279.866 371.609-1280.255  0.00  0.00     0.191 C 
BRANCH 128 129
ATOM    129  N   GLU d   1    1279.307 370.260-1280.255  0.00  0.00    -0.326 NA
ATOM    130  H   GLU d   1    1279.934 369.381-1280.255  0.00  0.00     0.180 HD
ENDBRANCH 128 129
BRANCH 128 131
ATOM    131  CB  GLU d   1    1279.343 372.394-1279.018  0.00  0.00     0.047 C 
BRANCH 131 132
ATOM    132  CG  GLU d   1    1279.818 373.879-1278.907  0.00  0.00     0.116 C 
BRANCH 132 133
ATOM    133  CD  GLU d   1    1279.394 374.683-1277.692  0.00  0.00     0.172 C 
ATOM    134  OE1 GLU d   1    1278.666 374.181-1276.814  0.00  0.00    -0.648 OA
ATOM    135  OE2 GLU d   1    1279.824 375.853-1277.620  0.00  0.00    -0.648 OA
ENDBRANCH 132 133
ENDBRANCH 131 132
ENDBRANCH 128 131
ENDBRANCH 125 128
ENDBRANCH 123 124
BRANCH 123 136
ATOM    136  CB  ASN d   2    1283.931 369.721-1278.365  0.00  0.00     0.137 C 
BRANCH 136 137
ATOM    137  CG  ASN d   2    1283.468 369.945-1276.922  0.00  0.00     0.217 C 
ATOM    138  ND2 ASN d   2    1284.062 370.860-1276.204  0.00  0.00    -0.370 N 
ATOM    139 21HD ASN d   2    1283.582 371.033-1275.317  0.00  0.00     0.159 HD
ATOM    140 22HD ASN d   2    1284.764 371.432-1276.673  0.00  0.00     0.159 HD
ATOM    141  OD1 ASN d   2    1282.547 369.311-1276.428  0.00  0.00    -0.274 OA
ENDBRANCH 136 137
ENDBRANCH 123 136
ENDBRANCH 118 123
ENDBRANCH 113 116
ENDBRANCH 111 112
BRANCH 111 142
ATOM    142  CB  GLU d   4    1280.449 371.857-1284.722  0.00  0.00     0.045 C 
BRANCH 142 143
ATOM    143  CG  GLU d   4    1279.901 372.861-1285.787  0.00  0.00     0.116 C 
BRANCH 143 144
ATOM    144  CD  GLU d   4    1278.474 373.358-1285.644  0.00  0.00     0.172 C 
ATOM    145  OE1 GLU d   4    1277.748 372.959-1284.713  0.00  0.00    -0.648 OA
ATOM    146  OE2 GLU d   4    1278.084 374.187-1286.492  0.00  0.00    -0.648 OA
ENDBRANCH 143 144
ENDBRANCH 142 143
ENDBRANCH 111 142
ENDBRANCH 108 111
ENDBRANCH 106 107
BRANCH 106 147
ATOM    147  CB  SER d   5    1284.045 374.906-1282.179  0.00  0.00     0.199 C 
BRANCH 147 148
ATOM    148  OG  SER d   5    1284.777 374.027-1281.318  0.00  0.00    -0.398 OA
ATOM    149  HG  SER d   5    1284.288 373.202-1281.268  0.00  0.00     0.209 HD
ENDBRANCH 147 148
ENDBRANCH 106 147
ENDBRANCH 103 106
ENDBRANCH 101 102
BRANCH 101 150
ATOM    150  CB  ILE d   6    1287.810 371.355-1283.828  0.00  0.00     0.013 C 
ATOM    151  CG2 ILE d   6    1289.251 371.053-1284.344  0.00  0.00     0.012 C 
BRANCH 150 152
ATOM    152  CG1 ILE d   6    1287.829 371.292-1282.267  0.00  0.00     0.002 C 
ATOM    153  CD1 ILE d   6    1288.099 369.903-1281.652  0.00  0.00     0.005 C 
ENDBRANCH 150 152
ENDBRANCH 101 150
ENDBRANCH  98 101
ENDBRANCH  96  97
BRANCH  96 154
ATOM    154  CB  LEU d   7    1284.949 371.094-1288.448  0.00  0.00     0.038 C 
BRANCH 154 155
ATOM    155  CG  LEU d   7    1284.876 369.615-1287.982  0.00  0.00    -0.020 C 
ATOM    156  CD1 LEU d   7    1283.686 368.909-1288.648  0.00  0.00     0.009 C 
ATOM    157  CD2 LEU d   7    1286.170 368.836-1288.274  0.00  0.00     0.009 C 
ENDBRANCH 154 155
ENDBRANCH  96 154
ENDBRANCH  93  96
ENDBRANCH  91  92
BRANCH  91 158
ATOM    158  CB  CYS d   8    1284.083 376.324-1287.827  0.00  0.00     0.105 C 
BRANCH 158 159
ATOM    159  SG  CYS d   8    1283.818 377.945-1288.580  0.00  0.00    -0.180 SA
ATOM    160  HG  CYS d   8    1284.442 378.659-1287.646  0.00  0.00     0.101 HD
ENDBRANCH 158 159
ENDBRANCH  91 158
ENDBRANCH  88  91
ENDBRANCH  86  87
BRANCH  86 161
ATOM    161  CB  GLU d   9    1289.135 376.618-1285.972  0.00  0.00     0.045 C 
BRANCH 161 162
ATOM    162  CG  GLU d   9    1290.517 377.310-1285.742  0.00  0.00     0.116 C 
BRANCH 162 163
ATOM    163  CD  GLU d   9    1291.219 377.096-1284.414  0.00  0.00     0.172 C 
ATOM    164  OE1 GLU d   9    1290.697 376.404-1283.518  0.00  0.00    -0.648 OA
ATOM    165  OE2 GLU d   9    1292.338 377.633-1284.282  0.00  0.00    -0.648 OA
ENDBRANCH 162 163
ENDBRANCH 161 162
ENDBRANCH  86 161
ENDBRANCH   1  86
TORSDOF 68
