@<TRIPOS>MOLECULE
8-9
274 276 16              
SMALL
USER_CHARGES
@<TRIPOS>ATOM
1	   N	1255.295	362.232	-1253.497	N.3	1	GLU1	-0.516	
2	  CA	1255.854	363.581	-1253.497	C.3	1	GLU1	0.040	
3	   C	1257.363	363.541	-1253.497	C.2	1	GLU1	0.537	
4	   O	1258.039	364.240	-1254.265	O.2	1	GLU1	-0.582	
5	  CB	1255.331	364.366	-1252.260	C.3	1	GLU1	0.056	
6	  CG	1255.806	365.851	-1252.149	C.3	1	GLU1	0.014	
7	  CD	1255.382	366.655	-1250.934	C.2	1	GLU1	0.805	
8	 OE1	1254.654	366.153	-1250.056	O.co2	1	GLU1	-0.819	
9	 OE2	1255.812	367.825	-1250.862	O.co2	1	GLU1	-0.819	
10	   H	1255.922	361.353	-1253.497	 H	1	GLU1	0.294	
11	  HA	1255.528	364.099	-1254.417	 H	1	GLU1	0.111	
12	 2HB	1255.620	363.835	-1251.330	 H	1	GLU1	-0.017	
13	 3HB	1254.224	364.356	-1252.247	 H	1	GLU1	-0.017	
14	 2HG	1255.496	366.436	-1253.030	 H	1	GLU1	-0.043	
15	 3HG	1256.906	365.918	-1252.120	 H	1	GLU1	-0.043	
16	   N	1257.968	362.755	-1252.672	N.am	2	ASN2	-0.416	
17	  CA	1259.427	362.716	-1252.672	C.3	2	ASN2	0.014	
18	   C	1259.958	362.361	-1254.040	C.2	2	ASN2	0.597	
19	   O	1260.873	362.991	-1254.569	O.2	2	ASN2	-0.568	
20	  CB	1259.919	361.693	-1251.607	C.3	2	ASN2	-0.204	
21	  CG	1259.456	361.917	-1250.164	C.2	2	ASN2	0.713	
22	 ND2	1260.050	362.832	-1249.446	N.pl3	2	ASN2	-0.919	
23	 OD1	1258.535	361.283	-1249.670	O.2	2	ASN2	-0.593	
24	   H	1257.440	362.175	-1252.035	 H	2	ASN2	0.272	
25	  HA	1259.804	363.726	-1252.426	 H	2	ASN2	0.105	
26	 2HB	1261.024	361.634	-1251.611	 H	2	ASN2	0.080	
27	 3HB	1259.590	360.675	-1251.893	 H	2	ASN2	0.080	
28	1HD2	1259.570	363.005	-1248.559	 H	2	ASN2	0.420	
29	2HD2	1260.752	363.404	-1249.915	 H	2	ASN2	0.420	
30	   N	1259.437	361.366	-1254.674	N.am	3	PRO3	-0.255	
31	  CA	1259.888	360.956	-1255.996	C.3	3	PRO3	-0.027	
32	   C	1259.490	361.980	-1257.073	C.2	3	PRO3	0.590	
33	   O	1260.313	362.363	-1257.904	O.2	3	PRO3	-0.575	
34	  CB	1259.184	359.602	-1256.165	C.3	3	PRO3	-0.007	
35	  CG	1257.901	359.754	-1255.335	C.3	3	PRO3	0.019	
36	  CD	1258.359	360.572	-1254.125	C.3	3	PRO3	0.019	
37	  HA	1260.974	360.837	-1256.010	 H	3	PRO3	0.064	
38	 2HB	1259.807	358.820	-1255.724	 H	3	PRO3	0.025	
39	 3HB	1258.986	359.353	-1257.210	 H	3	PRO3	0.025	
40	 2HG	1257.474	358.791	-1255.044	 H	3	PRO3	0.021	
41	 3HG	1257.163	360.325	-1255.902	 H	3	PRO3	0.021	
42	 2HD	1258.748	359.923	-1253.338	 H	3	PRO3	0.039	
43	 3HD	1257.562	361.208	-1253.732	 H	3	PRO3	0.039	
44	   N	1258.286	362.440	-1257.105	N.am	4	GLU4	-0.516	
45	  CA	1257.926	363.411	-1258.135	C.3	4	GLU4	0.040	
46	   C	1258.825	364.622	-1258.073	C.2	4	GLU4	0.537	
47	   O	1259.351	365.102	-1259.088	O.2	4	GLU4	-0.582	
48	  CB	1256.437	363.829	-1257.964	C.3	4	GLU4	0.056	
49	  CG	1255.889	364.833	-1259.030	C.3	4	GLU4	0.014	
50	  CD	1254.462	365.330	-1258.886	C.2	4	GLU4	0.805	
51	 OE1	1253.736	364.931	-1257.955	O.co2	4	GLU4	-0.819	
52	 OE2	1254.073	366.159	-1259.734	O.co2	4	GLU4	-0.819	
53	   H	1257.601	362.133	-1256.428	 H	4	GLU4	0.294	
54	  HA	1258.057	362.940	-1259.126	 H	4	GLU4	0.111	
55	 2HB	1256.285	364.269	-1256.957	 H	4	GLU4	-0.017	
56	 3HB	1255.789	362.932	-1257.970	 H	4	GLU4	-0.017	
57	 2HG	1255.970	364.418	-1260.047	 H	4	GLU4	-0.043	
58	 3HG	1256.477	365.766	-1259.041	 H	4	GLU4	-0.043	
59	   N	1259.052	365.175	-1256.930	N.am	5	SER5	-0.416	
60	  CA	1259.922	366.346	-1256.872	C.3	5	SER5	-0.025	
61	   C	1261.280	366.041	-1257.458	C.2	5	SER5	0.597	
62	   O	1261.827	366.794	-1258.262	O.2	5	SER5	-0.568	
63	  CB	1260.033	366.878	-1255.421	C.3	5	SER5	0.212	
64	  OG	1260.765	365.999	-1254.560	O.3	5	SER5	-0.655	
65	   H	1258.635	364.803	-1256.089	 H	5	SER5	0.272	
66	  HA	1259.472	367.136	-1257.501	 H	5	SER5	0.084	
67	 2HB	1259.033	367.072	-1254.988	 H	5	SER5	0.035	
68	 3HB	1260.538	367.864	-1255.423	 H	5	SER5	0.035	
69	  HG	1260.276	365.174	-1254.510	 H	5	SER5	0.428	
70	   N	1261.885	364.958	-1257.104	N.am	6	ILE6	-0.416	
71	  CA	1263.198	364.663	-1257.670	C.3	6	ILE6	-0.060	
72	   C	1263.141	364.626	-1259.178	C.2	6	ILE6	0.597	
73	   O	1263.976	365.214	-1259.882	O.2	6	ILE6	-0.568	
74	  CB	1263.798	363.327	-1257.070	C.3	6	ILE6	0.130	
75	 CG1	1263.818	363.264	-1255.509	C.3	6	ILE6	-0.043	
76	 CG2	1265.239	363.025	-1257.586	C.3	6	ILE6	-0.320	
77	 CD1	1264.088	361.875	-1254.895	C.3	6	ILE6	-0.066	
78	   H	1261.457	364.323	-1256.445	 H	6	ILE6	0.272	
79	  HA	1263.872	365.497	-1257.402	 H	6	ILE6	0.087	
80	  HB	1263.140	362.501	-1257.414	 H	6	ILE6	0.019	
81	2HG1	1262.835	363.584	-1255.113	 H	6	ILE6	0.024	
82	3HG1	1264.533	364.006	-1255.104	 H	6	ILE6	0.024	
83	1HG2	1265.298	362.932	-1258.684	 H	6	ILE6	0.088	
84	2HG2	1265.961	363.808	-1257.284	 H	6	ILE6	0.088	
85	3HG2	1265.630	362.063	-1257.207	 H	6	ILE6	0.088	
86	1HD1	1263.360	361.121	-1255.249	 H	6	ILE6	0.019	
87	2HD1	1265.098	361.497	-1255.130	 H	6	ILE6	0.019	
88	3HD1	1264.012	361.905	-1253.792	 H	6	ILE6	0.019	
89	   N	1262.195	363.962	-1259.751	N.am	7	LEU7	-0.416	
90	  CA	1262.140	363.926	-1261.210	C.3	7	LEU7	-0.052	
91	   C	1262.067	365.322	-1261.782	C.2	7	LEU7	0.597	
92	   O	1262.788	365.685	-1262.724	O.2	7	LEU7	-0.568	
93	  CB	1260.937	363.066	-1261.690	C.3	7	LEU7	-0.110	
94	  CG	1260.864	361.587	-1261.224	C.3	7	LEU7	0.353	
95	 CD1	1259.674	360.881	-1261.890	C.3	7	LEU7	-0.412	
96	 CD2	1262.158	360.808	-1261.516	C.3	7	LEU7	-0.412	
97	   H	1261.503	363.475	-1259.200	 H	7	LEU7	0.272	
98	  HA	1263.082	363.486	-1261.584	 H	7	LEU7	0.092	
99	 2HB	1260.913	363.082	-1262.798	 H	7	LEU7	0.046	
100	 3HB	1259.997	363.569	-1261.386	 H	7	LEU7	0.046	
101	  HG	1260.695	361.578	-1260.127	 H	7	LEU7	-0.036	
102	1HD1	1258.717	361.390	-1261.667	 H	7	LEU7	0.100	
103	2HD1	1259.773	360.841	-1262.991	 H	7	LEU7	0.100	
104	3HD1	1259.568	359.840	-1261.534	 H	7	LEU7	0.100	
105	1HD2	1262.433	360.838	-1262.586	 H	7	LEU7	0.100	
106	2HD2	1263.011	361.219	-1260.945	 H	7	LEU7	0.100	
107	3HD2	1262.076	359.745	-1261.220	 H	7	LEU7	0.100	
108	   N	1261.230	366.162	-1261.276	N.am	8	TYR8	-0.416	
109	  CA	1261.160	367.512	-1261.829	C.3	8	TYR8	-0.001	
110	   C	1262.507	368.191	-1261.771	C.2	8	TYR8	0.597	
111	   O	1262.978	368.793	-1262.740	O.2	8	TYR8	-0.568	
112	  CB	1260.147	368.386	-1261.032	C.3	8	TYR8	-0.015	
113	  CG	1258.686	367.920	-1261.033	C.2	8	TYR8	-0.001	
114	 CD1	1257.864	368.152	-1262.140	C.2	8	TYR8	-0.191	
115	 CD2	1258.171	367.248	-1259.921	C.2	8	TYR8	-0.191	
116	 CE1	1256.544	367.710	-1262.135	C.2	8	TYR8	-0.234	
117	 CE2	1256.851	366.808	-1259.917	C.2	8	TYR8	-0.234	
118	  CZ	1256.038	367.039	-1261.024	C.2	8	TYR8	0.323	
119	  OH	1254.743	366.606	-1261.024	O.3	8	TYR8	-0.558	
120	   H	1260.632	365.891	-1260.508	 H	8	TYR8	0.272	
121	  HA	1260.856	367.449	-1262.890	 H	8	TYR8	0.088	
122	 2HB	1260.165	369.424	-1261.421	 H	8	TYR8	0.030	
123	 3HB	1260.500	368.496	-1259.986	 H	8	TYR8	0.030	
124	 1HD	1258.250	368.667	-1263.009	 H	8	TYR8	0.170	
125	 2HD	1258.800	367.054	-1259.062	 H	8	TYR8	0.170	
126	 1HE	1255.910	367.883	-1262.991	 H	8	TYR8	0.166	
127	 2HE	1256.467	366.284	-1259.054	 H	8	TYR8	0.166	
128	  HH	1254.569	366.167	-1260.189	 H	8	TYR8	0.399	
129	   N	1263.186	368.140	-1260.676	N.am	9	GLU9	-0.516	
130	  CA	1264.489	368.797	-1260.620	C.3	9	GLU9	0.040	
131	   C	1265.407	368.269	-1261.696	C.2	9	GLU9	0.537	
132	   O	1266.072	369.023	-1262.421	O.2	9	GLU9	-0.582	
133	  CB	1265.122	368.588	-1259.214	C.3	9	GLU9	0.056	
134	  CG	1266.505	369.279	-1258.984	C.3	9	GLU9	0.014	
135	  CD	1267.207	369.065	-1257.656	C.2	9	GLU9	0.805	
136	 OE1	1266.685	368.374	-1256.760	O.co2	9	GLU9	-0.819	
137	 OE2	1268.326	369.602	-1257.524	O.co2	9	GLU9	-0.819	
138	   H	1262.823	367.653	-1259.869	 H	9	GLU9	0.294	
139	  HA	1264.348	369.879	-1260.794	 H	9	GLU9	0.111	
140	 2HB	1265.235	367.503	-1259.012	 H	9	GLU9	-0.017	
141	 3HB	1264.426	368.941	-1258.430	 H	9	GLU9	-0.017	
142	 2HG	1266.434	370.370	-1259.124	 H	9	GLU9	-0.043	
143	 3HG	1267.252	368.934	-1259.719	 H	9	GLU9	-0.043	
144	   N	1265.503	366.994	-1261.866	N.am	10	HIS10	-0.416	
145	  CA	1266.391	366.483	-1262.906	C.3	10	HIS10	-0.058	
146	   C	1266.025	367.048	-1264.257	C.2	10	HIS10	0.597	
147	   O	1266.877	367.513	-1265.029	O.2	10	HIS10	-0.568	
148	  CB	1266.227	364.954	-1262.903	C.3	10	HIS10	-0.007	
149	  CG	1267.512	364.243	-1262.595	C.2	10	HIS10	0.187	
150	 CD2	1267.892	363.907	-1261.302	C.2	10	HIS10	-0.221	
151	 ND1	1268.464	363.837	-1263.527	N.2	10	HIS10	-0.543	
152	 CE1	1269.370	363.278	-1262.704	C.2	10	HIS10	0.163	
153	 NE2	1269.107	363.275	-1261.369	N.pl3	10	HIS10	-0.280	
154	   H	1264.972	366.358	-1261.288	 H	10	HIS10	0.272	
155	  HA	1267.410	366.840	-1262.681	 H	10	HIS10	0.136	
156	 2HB	1265.861	364.588	-1263.883	 H	10	HIS10	0.037	
157	 3HB	1265.471	364.617	-1262.163	 H	10	HIS10	0.037	
158	 2HD	1267.307	364.121	-1260.413	 H	10	HIS10	0.186	
159	 1HE	1270.261	362.857	-1263.151	 H	10	HIS10	0.144	
160	 2HE	1269.674	362.897	-1260.596	 H	10	HIS10	0.334	
161	   N	1264.787	367.048	-1264.620	N.am	11	VAL11	-0.416	
162	  CA	1264.432	367.595	-1265.927	C.3	11	VAL11	-0.087	
163	   C	1264.897	369.026	-1266.059	C.2	11	VAL11	0.597	
164	   O	1265.498	369.431	-1267.061	O.2	11	VAL11	-0.568	
165	  CB	1262.871	367.489	-1266.147	C.3	11	VAL11	0.299	
166	 CG1	1262.303	368.194	-1267.409	C.3	11	VAL11	-0.319	
167	 CG2	1262.346	366.035	-1266.221	C.3	11	VAL11	-0.319	
168	   H	1264.074	366.675	-1264.010	 H	11	VAL11	0.272	
169	  HA	1264.952	367.013	-1266.710	 H	11	VAL11	0.097	
170	  HB	1262.383	367.969	-1265.271	 H	11	VAL11	-0.030	
171	1HG1	1262.741	367.802	-1268.346	 H	11	VAL11	0.079	
172	2HG1	1261.204	368.087	-1267.491	 H	11	VAL11	0.079	
173	3HG1	1262.481	369.286	-1267.399	 H	11	VAL11	0.079	
174	1HG2	1262.635	365.447	-1265.330	 H	11	VAL11	0.079	
175	2HG2	1261.240	365.999	-1266.264	 H	11	VAL11	0.079	
176	3HG2	1262.728	365.495	-1267.108	 H	11	VAL11	0.079	
177	   N	1264.660	369.851	-1265.096	N.am	12	GLN12	-0.416	
178	  CA	1265.109	371.234	-1265.222	C.3	12	GLN12	-0.003	
179	   C	1266.599	371.301	-1265.459	C.2	12	GLN12	0.597	
180	   O	1267.086	372.010	-1266.338	O.2	12	GLN12	-0.568	
181	  CB	1264.718	372.000	-1263.939	C.3	12	GLN12	-0.004	
182	  CG	1265.078	373.522	-1263.906	C.3	12	GLN12	-0.064	
183	  CD	1264.776	374.335	-1262.641	C.2	12	GLN12	0.695	
184	 NE2	1264.208	373.758	-1261.613	N.pl3	12	GLN12	-0.941	
185	 OE1	1265.078	375.516	-1262.563	O.2	12	GLN12	-0.609	
186	   H	1264.171	369.544	-1264.267	 H	12	GLN12	0.272	
187	  HA	1264.610	371.691	-1266.097	 H	12	GLN12	0.085	
188	 2HB	1265.193	371.499	-1263.070	 H	12	GLN12	0.017	
189	 3HB	1263.627	371.893	-1263.776	 H	12	GLN12	0.017	
190	 2HG	1264.601	374.043	-1264.757	 H	12	GLN12	0.035	
191	 3HG	1266.162	373.664	-1264.072	 H	12	GLN12	0.035	
192	1HE2	1264.101	374.352	-1260.789	 H	12	GLN12	0.425	
193	2HE2	1264.045	372.754	-1261.717	 H	12	GLN12	0.425	
194	   N	1267.383	370.594	-1264.719	N.am	13	ARG13	-0.348	
195	  CA	1268.824	370.659	-1264.950	C.3	13	ARG13	-0.264	
196	   C	1269.160	370.289	-1266.375	C.2	13	ARG13	0.734	
197	   O	1269.928	370.961	-1267.058	O.2	13	ARG13	-0.589	
198	  CB	1269.537	369.719	-1263.936	C.3	13	ARG13	-0.001	
199	  CG	1271.082	369.872	-1263.855	C.3	13	ARG13	0.039	
200	  CD	1271.708	368.884	-1262.858	C.3	13	ARG13	0.049	
201	  NE	1273.185	369.091	-1262.807	N.pl3	13	ARG13	-0.530	
202	  CZ	1274.033	368.398	-1262.052	C.cat	13	ARG13	0.808	
203	 NH1	1273.668	367.433	-1261.256	N.pl3	13	ARG13	-0.863	
204	 NH2	1275.293	368.697	-1262.109	N.pl3	13	ARG13	-0.863	
205	   H	1267.007	370.003	-1263.991	 H	13	ARG13	0.275	
206	  HA	1269.148	371.705	-1264.790	 H	13	ARG13	0.156	
207	 2HB	1269.270	368.669	-1264.176	 H	13	ARG13	0.033	
208	 3HB	1269.111	369.885	-1262.926	 H	13	ARG13	0.033	
209	 2HG	1271.330	370.917	-1263.575	 H	13	ARG13	0.029	
210	 3HG	1271.532	369.717	-1264.857	 H	13	ARG13	0.029	
211	 2HD	1271.464	367.844	-1263.168	 H	13	ARG13	0.069	
212	 3HD	1271.252	369.029	-1261.855	 H	13	ARG13	0.069	
213	  HE	1273.637	369.813	-1263.377	 H	13	ARG13	0.346	
214	1HH1	1272.662	367.247	-1261.259	 H	13	ARG13	0.448	
215	2HH1	1274.381	366.950	-1260.707	 H	13	ARG13	0.448	
216	1HH2	1275.560	369.455	-1262.739	 H	13	ARG13	0.448	
217	2HH2	1275.928	368.155	-1261.521	 H	13	ARG13	0.448	
218	   N	1268.624	369.235	-1266.890	N.am	14	VAL14	-0.416	
219	  CA	1268.948	368.876	-1268.268	C.3	14	VAL14	-0.087	
220	   C	1268.619	370.007	-1269.213	C.2	14	VAL14	0.597	
221	   O	1269.412	370.389	-1270.082	O.2	14	VAL14	-0.568	
222	  CB	1268.176	367.560	-1268.676	C.3	14	VAL14	0.299	
223	 CG1	1268.265	367.143	-1270.170	C.3	14	VAL14	-0.319	
224	 CG2	1268.608	366.307	-1267.876	C.3	14	VAL14	-0.319	
225	   H	1267.989	368.666	-1266.349	 H	14	VAL14	0.272	
226	  HA	1270.037	368.700	-1268.343	 H	14	VAL14	0.097	
227	  HB	1267.100	367.731	-1268.460	 H	14	VAL14	-0.030	
228	1HG1	1269.306	366.966	-1270.499	 H	14	VAL14	0.079	
229	2HG1	1267.692	366.220	-1270.383	 H	14	VAL14	0.079	
230	3HG1	1267.836	367.905	-1270.847	 H	14	VAL14	0.079	
231	1HG2	1268.520	366.465	-1266.786	 H	14	VAL14	0.079	
232	2HG2	1267.972	365.431	-1268.109	 H	14	VAL14	0.079	
233	3HG2	1269.655	366.017	-1268.082	 H	14	VAL14	0.079	
234	   N	1267.474	370.593	-1269.110	N.am	15	MET15	-0.416	
235	  CA	1267.154	371.687	-1270.023	C.3	15	MET15	-0.024	
236	   C	1268.184	372.786	-1269.935	C.2	15	MET15	0.597	
237	   O	1268.687	373.298	-1270.947	O.2	15	MET15	-0.568	
238	  CB	1265.732	372.232	-1269.714	C.3	15	MET15	0.034	
239	  CG	1264.570	371.234	-1269.907	C.3	15	MET15	0.002	
240	  SD	1262.996	372.100	-1269.792	S.3	15	MET15	-0.274	
241	  CE	1261.915	370.671	-1269.656	C.3	15	MET15	-0.054	
242	   H	1266.809	370.300	-1268.409	 H	15	MET15	0.272	
243	  HA	1267.180	371.300	-1271.059	 H	15	MET15	0.088	
244	 2HB	1265.530	373.111	-1270.355	 H	15	MET15	0.024	
245	 3HB	1265.697	372.624	-1268.677	 H	15	MET15	0.024	
246	 2HG	1264.613	370.448	-1269.130	 H	15	MET15	0.044	
247	 3HG	1264.633	370.720	-1270.883	 H	15	MET15	0.044	
248	 1HE	1262.059	369.983	-1270.509	 H	15	MET15	0.068	
249	 2HE	1262.124	370.117	-1268.724	 H	15	MET15	0.068	
250	 3HE	1260.858	370.986	-1269.640	 H	15	MET15	0.068	
251	   N	1268.553	373.206	-1268.772	N.am	16	ARG16	-0.348	
252	  CA	1269.549	374.270	-1268.687	C.3	16	ARG16	-0.264	
253	   C	1270.820	373.878	-1269.403	C.2	16	ARG16	0.734	
254	   O	1270.934	372.802	-1269.986	O.2	16	ARG16	-0.589	
255	  CB	1269.818	374.587	-1267.188	C.3	16	ARG16	-0.001	
256	  CG	1270.644	375.875	-1266.914	C.3	16	ARG16	0.039	
257	  CD	1270.893	376.093	-1265.413	C.3	16	ARG16	0.049	
258	  NE	1271.669	377.352	-1265.211	N.pl3	16	ARG16	-0.530	
259	  CZ	1272.061	377.833	-1264.035	C.cat	16	ARG16	0.808	
260	 NH1	1271.813	377.248	-1262.897	N.pl3	16	ARG16	-0.863	
261	 NH2	1272.725	378.946	-1264.015	N.pl3	16	ARG16	-0.863	
262	   H	1268.158	372.806	-1267.933	 H	16	ARG16	0.275	
263	  HA	1269.141	375.163	-1269.196	 H	16	ARG16	0.156	
264	 2HB	1270.315	373.710	-1266.723	 H	16	ARG16	0.033	
265	 3HB	1268.849	374.667	-1266.655	 H	16	ARG16	0.033	
266	 2HG	1270.114	376.747	-1267.351	 H	16	ARG16	0.029	
267	 3HG	1271.617	375.823	-1267.443	 H	16	ARG16	0.029	
268	 2HD	1271.442	375.218	-1265.000	 H	16	ARG16	0.069	
269	 3HD	1269.920	376.136	-1264.878	 H	16	ARG16	0.069	
270	  HE	1271.948	377.934	-1266.007	 H	16	ARG16	0.346	
271	1HH1	1271.287	376.375	-1262.982	 H	16	ARG16	0.448	
272	2HH1	1272.147	377.683	-1262.035	 H	16	ARG16	0.448	
273	1HH2	1272.911	379.389	-1264.917	 H	16	ARG16	0.448	
274	2HH2	1273.015	379.300	-1263.102	 H	16	ARG16	0.448	
@<TRIPOS>BOND
1 1 2 1
2 1 10 1
3 2 3 1
4 2 5 1
5 2 11 1
6 3 4 2
7 3 16 1
8 5 6 1
9 6 7 1
10 7 8 2
11 7 9 1
12 5 12 1
13 5 13 1
14 6 14 1
15 6 15 1
16 16 17 1
17 16 24 1
18 17 18 1
19 17 20 1
20 17 25 1
21 18 19 2
22 18 30 1
23 20 21 1
24 21 22 1
25 21 23 2
26 20 26 1
27 20 27 1
28 22 28 1
29 22 29 1
30 30 31 1
31 30 36 1
32 31 32 1
33 31 34 1
34 31 37 1
35 32 33 2
36 32 44 1
37 34 35 1
38 35 36 1
39 34 38 1
40 34 39 1
41 35 40 1
42 35 41 1
43 36 42 1
44 36 43 1
45 44 45 1
46 44 53 1
47 45 46 1
48 45 48 1
49 45 54 1
50 46 47 2
51 46 59 1
52 48 49 1
53 49 50 1
54 50 51 2
55 50 52 1
56 48 55 1
57 48 56 1
58 49 57 1
59 49 58 1
60 59 60 1
61 59 65 1
62 60 61 1
63 60 63 1
64 60 66 1
65 61 62 2
66 61 70 1
67 63 64 1
68 63 67 1
69 63 68 1
70 64 69 1
71 70 71 1
72 70 78 1
73 71 72 1
74 71 74 1
75 71 79 1
76 72 73 2
77 72 89 1
78 74 75 1
79 74 76 1
80 75 77 1
81 74 80 1
82 75 81 1
83 75 82 1
84 76 83 1
85 76 84 1
86 76 85 1
87 77 86 1
88 77 87 1
89 77 88 1
90 89 90 1
91 89 97 1
92 90 91 1
93 90 93 1
94 90 98 1
95 91 92 2
96 91 108 1
97 93 94 1
98 94 95 1
99 94 96 1
100 93 99 1
101 93 100 1
102 94 101 1
103 95 102 1
104 95 103 1
105 95 104 1
106 96 105 1
107 96 106 1
108 96 107 1
109 108 109 1
110 108 120 1
111 109 110 1
112 109 112 1
113 109 121 1
114 110 111 2
115 110 129 1
116 112 113 1
117 113 114 2
118 113 115 1
119 115 117 2
120 114 116 1
121 117 118 1
122 116 118 2
123 118 119 1
124 112 122 1
125 112 123 1
126 114 124 1
127 115 125 1
128 116 126 1
129 117 127 1
130 119 128 1
131 129 130 1
132 129 138 1
133 130 131 1
134 130 133 1
135 130 139 1
136 131 132 2
137 131 144 1
138 133 134 1
139 134 135 1
140 135 136 2
141 135 137 1
142 133 140 1
143 133 141 1
144 134 142 1
145 134 143 1
146 144 145 1
147 144 154 1
148 145 146 1
149 145 148 1
150 145 155 1
151 146 147 2
152 146 161 1
153 148 149 1
154 149 150 2
155 150 153 1
156 149 151 1
157 151 152 2
158 152 153 1
159 148 156 1
160 148 157 1
161 150 158 1
162 152 159 1
163 153 160 1
164 161 162 1
165 161 168 1
166 162 163 1
167 162 165 1
168 162 169 1
169 163 164 2
170 163 177 1
171 165 166 1
172 165 167 1
173 165 170 1
174 166 171 1
175 166 172 1
176 166 173 1
177 167 174 1
178 167 175 1
179 167 176 1
180 177 178 1
181 177 186 1
182 178 179 1
183 178 181 1
184 178 187 1
185 179 180 2
186 179 194 1
187 181 182 1
188 182 183 1
189 183 184 1
190 183 185 2
191 181 188 1
192 181 189 1
193 182 190 1
194 182 191 1
195 184 192 1
196 184 193 1
197 194 195 1
198 194 205 1
199 195 196 1
200 195 198 1
201 195 206 1
202 196 197 2
203 196 218 1
204 198 199 1
205 199 200 1
206 200 201 1
207 201 202 1
208 202 203 2
209 202 204 1
210 198 207 1
211 198 208 1
212 199 209 1
213 199 210 1
214 200 211 1
215 200 212 1
216 201 213 1
217 203 214 1
218 203 215 1
219 204 216 1
220 204 217 1
221 218 219 1
222 218 225 1
223 219 220 1
224 219 222 1
225 219 226 1
226 220 221 2
227 220 234 1
228 222 223 1
229 222 224 1
230 222 227 1
231 223 228 1
232 223 229 1
233 223 230 1
234 224 231 1
235 224 232 1
236 224 233 1
237 234 235 1
238 234 242 1
239 235 236 1
240 235 238 1
241 235 243 1
242 236 237 2
243 236 251 1
244 238 239 1
245 239 240 1
246 240 241 1
247 238 244 1
248 238 245 1
249 239 246 1
250 239 247 1
251 241 248 1
252 241 249 1
253 241 250 1
254 251 252 1
255 251 262 1
256 252 253 1
257 252 255 1
258 252 263 1
259 253 254 2
260 255 256 1
261 256 257 1
262 257 258 1
263 258 259 1
264 259 260 2
265 259 261 1
266 255 264 1
267 255 265 1
268 256 266 1
269 256 267 1
270 257 268 1
271 257 269 1
272 258 270 1
273 260 271 1
274 260 272 1
275 261 273 1
276 261 274 1
@<TRIPOS>SUBSTRUCTURE
1	GLU1	1	RESIDUE	1 ****	GLU
2	ASN2	16	RESIDUE	1 ****	ASN
3	PRO3	30	RESIDUE	1 ****	PRO
4	GLU4	44	RESIDUE	1 ****	GLU
5	SER5	59	RESIDUE	1 ****	SER
6	ILE6	70	RESIDUE	1 ****	ILE
7	LEU7	89	RESIDUE	1 ****	LEU
8	TYR8	108	RESIDUE	1 ****	TYR
9	GLU9	129	RESIDUE	1 ****	GLU
10	HIS10	144	RESIDUE	1 ****	HIS
11	VAL11	161	RESIDUE	1 ****	VAL
12	GLN12	177	RESIDUE	1 ****	GLN
13	ARG13	194	RESIDUE	1 ****	ARG
14	VAL14	218	RESIDUE	1 ****	VAL
15	MET15	234	RESIDUE	1 ****	MET
16	ARG16	251	RESIDUE	1 ****	ARG
