@<TRIPOS>MOLECULE
12-5
265 266 16              
SMALL
USER_CHARGES
@<TRIPOS>ATOM
1	   N	1878.576	565.207	-1929.011	N.3	1	GLU1	-0.516	
2	  CA	1879.135	566.556	-1929.011	C.3	1	GLU1	0.040	
3	   C	1880.644	566.516	-1929.011	C.2	1	GLU1	0.537	
4	   O	1881.320	567.215	-1929.780	O.2	1	GLU1	-0.582	
5	  CB	1878.612	567.341	-1927.774	C.3	1	GLU1	0.056	
6	  CG	1879.087	568.826	-1927.663	C.3	1	GLU1	0.014	
7	  CD	1878.663	569.630	-1926.448	C.2	1	GLU1	0.805	
8	 OE1	1877.935	569.128	-1925.570	O.co2	1	GLU1	-0.819	
9	 OE2	1879.093	570.800	-1926.376	O.co2	1	GLU1	-0.819	
10	   H	1879.203	564.328	-1929.011	 H	1	GLU1	0.294	
11	  HA	1878.809	567.074	-1929.931	 H	1	GLU1	0.111	
12	 2HB	1878.901	566.810	-1926.844	 H	1	GLU1	-0.017	
13	 3HB	1877.505	567.331	-1927.761	 H	1	GLU1	-0.017	
14	 2HG	1878.777	569.411	-1928.544	 H	1	GLU1	-0.043	
15	 3HG	1880.187	568.893	-1927.634	 H	1	GLU1	-0.043	
16	   N	1881.249	565.730	-1928.186	N.am	2	ASN2	-0.416	
17	  CA	1882.708	565.692	-1928.186	C.3	2	ASN2	0.014	
18	   C	1883.239	565.336	-1929.555	C.2	2	ASN2	0.597	
19	   O	1884.154	565.967	-1930.083	O.2	2	ASN2	-0.568	
20	  CB	1883.200	564.669	-1927.122	C.3	2	ASN2	-0.204	
21	  CG	1882.737	564.893	-1925.678	C.2	2	ASN2	0.713	
22	 ND2	1883.331	565.808	-1924.960	N.pl3	2	ASN2	-0.919	
23	 OD1	1881.816	564.259	-1925.184	O.2	2	ASN2	-0.593	
24	   H	1880.721	565.151	-1927.550	 H	2	ASN2	0.272	
25	  HA	1883.085	566.702	-1927.941	 H	2	ASN2	0.105	
26	 2HB	1884.304	564.610	-1927.125	 H	2	ASN2	0.080	
27	 3HB	1882.871	563.651	-1927.408	 H	2	ASN2	0.080	
28	1HD2	1882.850	565.981	-1924.074	 H	2	ASN2	0.420	
29	2HD2	1884.033	566.379	-1925.429	 H	2	ASN2	0.420	
30	   N	1882.718	564.341	-1930.189	N.am	3	PRO3	-0.255	
31	  CA	1883.169	563.932	-1931.510	C.3	3	PRO3	-0.027	
32	   C	1882.771	564.955	-1932.587	C.2	3	PRO3	0.590	
33	   O	1883.595	565.338	-1933.419	O.2	3	PRO3	-0.575	
34	  CB	1882.465	562.577	-1931.680	C.3	3	PRO3	-0.007	
35	  CG	1881.182	562.729	-1930.849	C.3	3	PRO3	0.019	
36	  CD	1881.640	563.548	-1929.640	C.3	3	PRO3	0.019	
37	  HA	1884.255	563.812	-1931.524	 H	3	PRO3	0.064	
38	 2HB	1883.088	561.796	-1931.239	 H	3	PRO3	0.025	
39	 3HB	1882.267	562.329	-1932.725	 H	3	PRO3	0.025	
40	 2HG	1880.755	561.767	-1930.558	 H	3	PRO3	0.021	
41	 3HG	1880.444	563.300	-1931.417	 H	3	PRO3	0.021	
42	 2HD	1882.029	562.898	-1928.852	 H	3	PRO3	0.039	
43	 3HD	1880.843	564.184	-1929.247	 H	3	PRO3	0.039	
44	   N	1881.567	565.415	-1932.620	N.am	4	GLU4	-0.516	
45	  CA	1881.207	566.386	-1933.649	C.3	4	GLU4	0.040	
46	   C	1882.106	567.597	-1933.588	C.2	4	GLU4	0.537	
47	   O	1882.632	568.077	-1934.603	O.2	4	GLU4	-0.582	
48	  CB	1879.719	566.805	-1933.479	C.3	4	GLU4	0.056	
49	  CG	1879.171	567.809	-1934.545	C.3	4	GLU4	0.014	
50	  CD	1877.744	568.306	-1934.401	C.2	4	GLU4	0.805	
51	 OE1	1877.018	567.907	-1933.470	O.co2	4	GLU4	-0.819	
52	 OE2	1877.354	569.135	-1935.249	O.co2	4	GLU4	-0.819	
53	   H	1880.882	565.109	-1931.943	 H	4	GLU4	0.294	
54	  HA	1881.338	565.916	-1934.640	 H	4	GLU4	0.111	
55	 2HB	1879.566	567.245	-1932.472	 H	4	GLU4	-0.017	
56	 3HB	1879.071	565.907	-1933.485	 H	4	GLU4	-0.017	
57	 2HG	1879.252	567.394	-1935.562	 H	4	GLU4	-0.043	
58	 3HG	1879.759	568.741	-1934.556	 H	4	GLU4	-0.043	
59	   N	1882.333	568.150	-1932.445	N.am	5	SER5	-0.416	
60	  CA	1883.203	569.321	-1932.386	C.3	5	SER5	-0.025	
61	   C	1884.562	569.016	-1932.972	C.2	5	SER5	0.597	
62	   O	1885.109	569.769	-1933.777	O.2	5	SER5	-0.568	
63	  CB	1883.314	569.854	-1930.936	C.3	5	SER5	0.212	
64	  OG	1884.046	568.975	-1930.075	O.3	5	SER5	-0.655	
65	   H	1881.916	567.779	-1931.603	 H	5	SER5	0.272	
66	  HA	1882.753	570.112	-1933.016	 H	5	SER5	0.084	
67	 2HB	1882.314	570.047	-1930.503	 H	5	SER5	0.035	
68	 3HB	1883.820	570.839	-1930.938	 H	5	SER5	0.035	
69	  HG	1883.557	568.150	-1930.024	 H	5	SER5	0.428	
70	   N	1885.167	567.933	-1932.618	N.am	6	ILE6	-0.416	
71	  CA	1886.480	567.638	-1933.184	C.3	6	ILE6	-0.060	
72	   C	1886.422	567.601	-1934.692	C.2	6	ILE6	0.597	
73	   O	1887.257	568.189	-1935.396	O.2	6	ILE6	-0.568	
74	  CB	1887.080	566.302	-1932.584	C.3	6	ILE6	0.130	
75	 CG1	1887.099	566.240	-1931.023	C.3	6	ILE6	-0.043	
76	 CG2	1888.521	566.000	-1933.099	C.3	6	ILE6	-0.320	
77	 CD1	1887.369	564.851	-1930.408	C.3	6	ILE6	-0.066	
78	   H	1884.738	567.299	-1931.959	 H	6	ILE6	0.272	
79	  HA	1887.154	568.473	-1932.916	 H	6	ILE6	0.087	
80	  HB	1886.422	565.476	-1932.928	 H	6	ILE6	0.019	
81	2HG1	1886.117	566.560	-1930.627	 H	6	ILE6	0.024	
82	3HG1	1887.815	566.982	-1930.618	 H	6	ILE6	0.024	
83	1HG2	1888.580	565.907	-1934.198	 H	6	ILE6	0.088	
84	2HG2	1889.243	566.783	-1932.797	 H	6	ILE6	0.088	
85	3HG2	1888.911	565.038	-1932.721	 H	6	ILE6	0.088	
86	1HD1	1886.641	564.096	-1930.763	 H	6	ILE6	0.019	
87	2HD1	1888.380	564.472	-1930.644	 H	6	ILE6	0.019	
88	3HD1	1887.293	564.880	-1929.305	 H	6	ILE6	0.019	
89	   N	1885.477	566.937	-1935.266	N.am	7	LEU7	-0.416	
90	  CA	1885.422	566.901	-1936.724	C.3	7	LEU7	-0.052	
91	   C	1885.349	568.296	-1937.297	C.2	7	LEU7	0.597	
92	   O	1886.070	568.659	-1938.238	O.2	7	LEU7	-0.568	
93	  CB	1884.219	566.040	-1937.204	C.3	7	LEU7	-0.110	
94	  CG	1884.146	564.561	-1936.738	C.3	7	LEU7	0.353	
95	 CD1	1882.957	563.855	-1937.403	C.3	7	LEU7	-0.412	
96	 CD2	1885.440	563.782	-1937.029	C.3	7	LEU7	-0.412	
97	   H	1884.785	566.450	-1934.714	 H	7	LEU7	0.272	
98	  HA	1886.364	566.461	-1937.098	 H	7	LEU7	0.092	
99	 2HB	1884.196	566.056	-1938.312	 H	7	LEU7	0.046	
100	 3HB	1883.279	566.543	-1936.900	 H	7	LEU7	0.046	
101	  HG	1883.977	564.553	-1935.641	 H	7	LEU7	-0.036	
102	1HD1	1881.999	564.364	-1937.181	 H	7	LEU7	0.100	
103	2HD1	1883.056	563.815	-1938.505	 H	7	LEU7	0.100	
104	3HD1	1882.850	562.814	-1937.047	 H	7	LEU7	0.100	
105	1HD2	1885.715	563.812	-1938.099	 H	7	LEU7	0.100	
106	2HD2	1886.293	564.194	-1936.458	 H	7	LEU7	0.100	
107	3HD2	1885.359	562.720	-1936.734	 H	7	LEU7	0.100	
108	   N	1884.512	569.137	-1936.790	N.am	8	ASP8	-0.516	
109	  CA	1884.441	570.486	-1937.343	C.3	8	ASP8	0.038	
110	   C	1885.788	571.166	-1937.286	C.2	8	ASP8	0.537	
111	   O	1886.260	571.772	-1938.261	O.2	8	ASP8	-0.582	
112	  CB	1883.363	571.325	-1936.602	C.3	8	ASP8	-0.030	
113	  CG	1883.144	572.746	-1937.142	C.2	8	ASP8	0.799	
114	 OD1	1883.208	572.945	-1938.372	O.co2	8	ASP8	-0.801	
115	 OD2	1882.951	573.671	-1936.326	O.co2	8	ASP8	-0.801	
116	   H	1883.914	568.865	-1936.023	 H	8	ASP8	0.294	
117	  HA	1884.158	570.408	-1938.411	 H	8	ASP8	0.088	
118	 2HB	1883.620	571.408	-1935.530	 H	8	ASP8	-0.012	
119	 3HB	1882.384	570.820	-1936.635	 H	8	ASP8	-0.012	
120	   N	1886.468	571.116	-1936.191	N.am	9	GLU9	-0.516	
121	  CA	1887.770	571.774	-1936.135	C.3	9	GLU9	0.040	
122	   C	1888.688	571.247	-1937.212	C.2	9	GLU9	0.537	
123	   O	1889.352	572.002	-1937.937	O.2	9	GLU9	-0.582	
124	  CB	1888.404	571.567	-1934.730	C.3	9	GLU9	0.056	
125	  CG	1889.786	572.260	-1934.501	C.3	9	GLU9	0.014	
126	  CD	1890.488	572.047	-1933.173	C.2	9	GLU9	0.805	
127	 OE1	1889.967	571.355	-1932.276	O.co2	9	GLU9	-0.819	
128	 OE2	1891.607	572.585	-1933.041	O.co2	9	GLU9	-0.819	
129	   H	1886.104	570.630	-1935.384	 H	9	GLU9	0.294	
130	  HA	1887.627	572.856	-1936.311	 H	9	GLU9	0.111	
131	 2HB	1888.517	570.482	-1934.527	 H	9	GLU9	-0.017	
132	 3HB	1887.707	571.920	-1933.946	 H	9	GLU9	-0.017	
133	 2HG	1889.714	573.351	-1934.641	 H	9	GLU9	-0.043	
134	 3HG	1890.533	571.915	-1935.235	 H	9	GLU9	-0.043	
135	   N	1888.785	569.972	-1937.381	N.am	10	HIS10	-0.416	
136	  CA	1889.673	569.462	-1938.422	C.3	10	HIS10	-0.058	
137	   C	1889.306	570.026	-1939.773	C.2	10	HIS10	0.597	
138	   O	1890.158	570.492	-1940.545	O.2	10	HIS10	-0.568	
139	  CB	1889.510	567.933	-1938.417	C.3	10	HIS10	-0.007	
140	  CG	1890.796	567.223	-1938.110	C.2	10	HIS10	0.187	
141	 CD2	1891.177	566.887	-1936.817	C.2	10	HIS10	-0.221	
142	 ND1	1891.748	566.818	-1939.042	N.2	10	HIS10	-0.543	
143	 CE1	1892.655	566.260	-1938.220	C.2	10	HIS10	0.163	
144	 NE2	1892.393	566.256	-1936.884	N.pl3	10	HIS10	-0.280	
145	   H	1888.255	569.336	-1936.803	 H	10	HIS10	0.272	
146	  HA	1890.692	569.819	-1938.197	 H	10	HIS10	0.136	
147	 2HB	1889.145	567.566	-1939.397	 H	10	HIS10	0.037	
148	 3HB	1888.755	567.595	-1937.677	 H	10	HIS10	0.037	
149	 2HD	1890.592	567.102	-1935.928	 H	10	HIS10	0.186	
150	 1HE	1893.546	565.839	-1938.667	 H	10	HIS10	0.144	
151	 2HE	1892.960	565.879	-1936.111	 H	10	HIS10	0.334	
152	   N	1888.068	570.025	-1940.136	N.am	11	VAL11	-0.416	
153	  CA	1887.712	570.571	-1941.442	C.3	11	VAL11	-0.087	
154	   C	1888.176	572.002	-1941.575	C.2	11	VAL11	0.597	
155	   O	1888.776	572.407	-1942.578	O.2	11	VAL11	-0.568	
156	  CB	1886.151	570.464	-1941.661	C.3	11	VAL11	0.299	
157	 CG1	1885.582	571.167	-1942.924	C.3	11	VAL11	-0.319	
158	 CG2	1885.627	569.009	-1941.735	C.3	11	VAL11	-0.319	
159	   H	1887.355	569.651	-1939.525	 H	11	VAL11	0.272	
160	  HA	1888.232	569.989	-1942.225	 H	11	VAL11	0.097	
161	  HB	1885.663	570.943	-1940.786	 H	11	VAL11	-0.030	
162	1HG1	1886.020	570.776	-1943.861	 H	11	VAL11	0.079	
163	2HG1	1884.483	571.059	-1943.006	 H	11	VAL11	0.079	
164	3HG1	1885.759	572.260	-1942.914	 H	11	VAL11	0.079	
165	1HG2	1885.918	568.422	-1940.844	 H	11	VAL11	0.079	
166	2HG2	1884.522	568.971	-1941.777	 H	11	VAL11	0.079	
167	3HG2	1886.009	568.469	-1942.621	 H	11	VAL11	0.079	
168	   N	1887.938	572.827	-1940.612	N.am	12	MET12	-0.416	
169	  CA	1888.386	574.211	-1940.739	C.3	12	MET12	-0.024	
170	   C	1889.875	574.280	-1940.977	C.2	12	MET12	0.597	
171	   O	1890.365	574.996	-1941.863	O.2	12	MET12	-0.568	
172	  CB	1887.990	575.011	-1939.467	C.3	12	MET12	0.034	
173	  CG	1886.476	575.133	-1939.191	C.3	12	MET12	0.002	
174	  SD	1886.190	576.320	-1937.868	S.3	12	MET12	-0.274	
175	  CE	1884.465	575.939	-1937.537	C.3	12	MET12	-0.054	
176	   H	1887.450	572.520	-1939.783	 H	12	MET12	0.272	
177	  HA	1887.895	574.661	-1941.622	 H	12	MET12	0.088	
178	 2HB	1888.403	576.036	-1939.536	 H	12	MET12	0.024	
179	 3HB	1888.479	574.568	-1938.576	 H	12	MET12	0.024	
180	 2HG	1886.064	574.150	-1938.897	 H	12	MET12	0.044	
181	 3HG	1885.922	575.453	-1940.094	 H	12	MET12	0.044	
182	 1HE	1883.855	576.039	-1938.453	 H	12	MET12	0.068	
183	 2HE	1884.364	574.905	-1937.162	 H	12	MET12	0.068	
184	 3HE	1884.057	576.624	-1936.773	 H	12	MET12	0.068	
185	   N	1890.661	573.573	-1940.237	N.am	13	ARG13	-0.348	
186	  CA	1892.101	573.641	-1940.468	C.3	13	ARG13	-0.264	
187	   C	1892.437	573.270	-1941.893	C.2	13	ARG13	0.734	
188	   O	1893.204	573.943	-1942.577	O.2	13	ARG13	-0.589	
189	  CB	1892.815	572.702	-1939.455	C.3	13	ARG13	-0.001	
190	  CG	1894.360	572.857	-1939.374	C.3	13	ARG13	0.039	
191	  CD	1894.989	571.869	-1938.377	C.3	13	ARG13	0.049	
192	  NE	1896.466	572.078	-1938.327	N.pl3	13	ARG13	-0.530	
193	  CZ	1897.315	571.386	-1937.573	C.cat	13	ARG13	0.808	
194	 NH1	1896.951	570.421	-1936.776	N.pl3	13	ARG13	-0.863	
195	 NH2	1898.574	571.687	-1937.630	N.pl3	13	ARG13	-0.863	
196	   H	1890.285	572.983	-1939.508	 H	13	ARG13	0.275	
197	  HA	1892.424	574.687	-1940.309	 H	13	ARG13	0.156	
198	 2HB	1892.550	571.651	-1939.694	 H	13	ARG13	0.033	
199	 3HB	1892.390	572.867	-1938.444	 H	13	ARG13	0.033	
200	 2HG	1894.607	573.901	-1939.094	 H	13	ARG13	0.029	
201	 3HG	1894.810	572.701	-1940.376	 H	13	ARG13	0.029	
202	 2HD	1894.745	570.829	-1938.687	 H	13	ARG13	0.069	
203	 3HD	1894.532	572.014	-1937.374	 H	13	ARG13	0.069	
204	  HE	1896.916	572.801	-1938.898	 H	13	ARG13	0.346	
205	1HH1	1895.945	570.234	-1936.778	 H	13	ARG13	0.448	
206	2HH1	1897.665	569.939	-1936.227	 H	13	ARG13	0.448	
207	1HH2	1898.840	572.445	-1938.260	 H	13	ARG13	0.448	
208	2HH2	1899.210	571.146	-1937.042	 H	13	ARG13	0.448	
209	   N	1891.901	572.215	-1942.408	N.am	14	VAL14	-0.416	
210	  CA	1892.225	571.857	-1943.786	C.3	14	VAL14	-0.087	
211	   C	1891.894	572.987	-1944.731	C.2	14	VAL14	0.597	
212	   O	1892.687	573.370	-1945.600	O.2	14	VAL14	-0.568	
213	  CB	1891.454	570.540	-1944.193	C.3	14	VAL14	0.299	
214	 CG1	1891.543	570.122	-1945.686	C.3	14	VAL14	-0.319	
215	 CG2	1891.887	569.287	-1943.393	C.3	14	VAL14	-0.319	
216	   H	1891.267	571.646	-1941.866	 H	14	VAL14	0.272	
217	  HA	1893.314	571.681	-1943.861	 H	14	VAL14	0.097	
218	  HB	1890.378	570.710	-1943.976	 H	14	VAL14	-0.030	
219	1HG1	1892.584	569.946	-1946.016	 H	14	VAL14	0.079	
220	2HG1	1890.970	569.198	-1945.899	 H	14	VAL14	0.079	
221	3HG1	1891.112	570.884	-1946.364	 H	14	VAL14	0.079	
222	1HG2	1891.801	569.445	-1942.303	 H	14	VAL14	0.079	
223	2HG2	1891.252	568.410	-1943.625	 H	14	VAL14	0.079	
224	3HG2	1892.935	568.998	-1943.600	 H	14	VAL14	0.079	
225	   N	1890.749	573.572	-1944.628	N.am	15	MET15	-0.416	
226	  CA	1890.427	574.665	-1945.541	C.3	15	MET15	-0.024	
227	   C	1891.456	575.766	-1945.453	C.2	15	MET15	0.597	
228	   O	1891.958	576.277	-1946.466	O.2	15	MET15	-0.568	
229	  CB	1889.005	575.209	-1945.231	C.3	15	MET15	0.034	
230	  CG	1887.844	574.210	-1945.423	C.3	15	MET15	0.002	
231	  SD	1886.269	575.075	-1945.307	S.3	15	MET15	-0.274	
232	  CE	1885.189	573.645	-1945.171	C.3	15	MET15	-0.054	
233	   H	1890.084	573.278	-1943.926	 H	15	MET15	0.272	
234	  HA	1890.452	574.278	-1946.577	 H	15	MET15	0.088	
235	 2HB	1888.802	576.088	-1945.873	 H	15	MET15	0.024	
236	 3HB	1888.970	575.602	-1944.195	 H	15	MET15	0.024	
237	 2HG	1887.888	573.424	-1944.646	 H	15	MET15	0.044	
238	 3HG	1887.907	573.696	-1946.399	 H	15	MET15	0.044	
239	 1HE	1885.333	572.957	-1946.024	 H	15	MET15	0.068	
240	 2HE	1885.399	573.092	-1944.239	 H	15	MET15	0.068	
241	 3HE	1884.131	573.959	-1945.154	 H	15	MET15	0.068	
242	   N	1891.825	576.186	-1944.291	N.am	16	ARG16	-0.348	
243	  CA	1892.821	577.251	-1944.207	C.3	16	ARG16	-0.264	
244	   C	1894.091	576.860	-1944.924	C.2	16	ARG16	0.734	
245	   O	1894.206	575.784	-1945.506	O.2	16	ARG16	-0.589	
246	  CB	1893.090	577.568	-1942.709	C.3	16	ARG16	-0.001	
247	  CG	1893.914	578.858	-1942.435	C.3	16	ARG16	0.039	
248	  CD	1894.164	579.077	-1940.934	C.3	16	ARG16	0.049	
249	  NE	1894.939	580.336	-1940.733	N.pl3	16	ARG16	-0.530	
250	  CZ	1895.331	580.818	-1939.557	C.cat	16	ARG16	0.808	
251	 NH1	1895.084	580.233	-1938.418	N.pl3	16	ARG16	-0.863	
252	 NH2	1895.993	581.931	-1939.538	N.pl3	16	ARG16	-0.863	
253	   H	1891.431	575.785	-1943.452	 H	16	ARG16	0.275	
254	  HA	1892.411	578.144	-1944.716	 H	16	ARG16	0.156	
255	 2HB	1893.588	576.692	-1942.243	 H	16	ARG16	0.033	
256	 3HB	1892.121	577.648	-1942.175	 H	16	ARG16	0.033	
257	 2HG	1893.383	579.728	-1942.872	 H	16	ARG16	0.029	
258	 3HG	1894.888	578.806	-1942.965	 H	16	ARG16	0.029	
259	 2HD	1894.714	578.202	-1940.521	 H	16	ARG16	0.069	
260	 3HD	1893.191	579.118	-1940.398	 H	16	ARG16	0.069	
261	  HE	1895.217	580.918	-1941.529	 H	16	ARG16	0.346	
262	1HH1	1894.559	579.359	-1938.504	 H	16	ARG16	0.448	
263	2HH1	1895.418	580.668	-1937.557	 H	16	ARG16	0.448	
264	1HH2	1896.178	582.375	-1940.439	 H	16	ARG16	0.448	
265	2HH2	1896.284	582.286	-1938.625	 H	16	ARG16	0.448	
@<TRIPOS>BOND
1 1 2 1
2 1 10 1
3 2 3 1
4 2 5 1
5 2 11 1
6 3 4 2
7 3 16 1
8 5 6 1
9 6 7 1
10 7 8 2
11 7 9 1
12 5 12 1
13 5 13 1
14 6 14 1
15 6 15 1
16 16 17 1
17 16 24 1
18 17 18 1
19 17 20 1
20 17 25 1
21 18 19 2
22 18 30 1
23 20 21 1
24 21 22 1
25 21 23 2
26 20 26 1
27 20 27 1
28 22 28 1
29 22 29 1
30 30 31 1
31 30 36 1
32 31 32 1
33 31 34 1
34 31 37 1
35 32 33 2
36 32 44 1
37 34 35 1
38 35 36 1
39 34 38 1
40 34 39 1
41 35 40 1
42 35 41 1
43 36 42 1
44 36 43 1
45 44 45 1
46 44 53 1
47 45 46 1
48 45 48 1
49 45 54 1
50 46 47 2
51 46 59 1
52 48 49 1
53 49 50 1
54 50 51 2
55 50 52 1
56 48 55 1
57 48 56 1
58 49 57 1
59 49 58 1
60 59 60 1
61 59 65 1
62 60 61 1
63 60 63 1
64 60 66 1
65 61 62 2
66 61 70 1
67 63 64 1
68 63 67 1
69 63 68 1
70 64 69 1
71 70 71 1
72 70 78 1
73 71 72 1
74 71 74 1
75 71 79 1
76 72 73 2
77 72 89 1
78 74 75 1
79 74 76 1
80 75 77 1
81 74 80 1
82 75 81 1
83 75 82 1
84 76 83 1
85 76 84 1
86 76 85 1
87 77 86 1
88 77 87 1
89 77 88 1
90 89 90 1
91 89 97 1
92 90 91 1
93 90 93 1
94 90 98 1
95 91 92 2
96 91 108 1
97 93 94 1
98 94 95 1
99 94 96 1
100 93 99 1
101 93 100 1
102 94 101 1
103 95 102 1
104 95 103 1
105 95 104 1
106 96 105 1
107 96 106 1
108 96 107 1
109 108 109 1
110 108 116 1
111 109 110 1
112 109 112 1
113 109 117 1
114 110 111 2
115 110 120 1
116 112 113 1
117 113 114 2
118 113 115 1
119 112 118 1
120 112 119 1
121 120 121 1
122 120 129 1
123 121 122 1
124 121 124 1
125 121 130 1
126 122 123 2
127 122 135 1
128 124 125 1
129 125 126 1
130 126 127 2
131 126 128 1
132 124 131 1
133 124 132 1
134 125 133 1
135 125 134 1
136 135 136 1
137 135 145 1
138 136 137 1
139 136 139 1
140 136 146 1
141 137 138 2
142 137 152 1
143 139 140 1
144 140 141 2
145 141 144 1
146 140 142 1
147 142 143 2
148 143 144 1
149 139 147 1
150 139 148 1
151 141 149 1
152 143 150 1
153 144 151 1
154 152 153 1
155 152 159 1
156 153 154 1
157 153 156 1
158 153 160 1
159 154 155 2
160 154 168 1
161 156 157 1
162 156 158 1
163 156 161 1
164 157 162 1
165 157 163 1
166 157 164 1
167 158 165 1
168 158 166 1
169 158 167 1
170 168 169 1
171 168 176 1
172 169 170 1
173 169 172 1
174 169 177 1
175 170 171 2
176 170 185 1
177 172 173 1
178 173 174 1
179 174 175 1
180 172 178 1
181 172 179 1
182 173 180 1
183 173 181 1
184 175 182 1
185 175 183 1
186 175 184 1
187 185 186 1
188 185 196 1
189 186 187 1
190 186 189 1
191 186 197 1
192 187 188 2
193 187 209 1
194 189 190 1
195 190 191 1
196 191 192 1
197 192 193 1
198 193 194 2
199 193 195 1
200 189 198 1
201 189 199 1
202 190 200 1
203 190 201 1
204 191 202 1
205 191 203 1
206 192 204 1
207 194 205 1
208 194 206 1
209 195 207 1
210 195 208 1
211 209 210 1
212 209 216 1
213 210 211 1
214 210 213 1
215 210 217 1
216 211 212 2
217 211 225 1
218 213 214 1
219 213 215 1
220 213 218 1
221 214 219 1
222 214 220 1
223 214 221 1
224 215 222 1
225 215 223 1
226 215 224 1
227 225 226 1
228 225 233 1
229 226 227 1
230 226 229 1
231 226 234 1
232 227 228 2
233 227 242 1
234 229 230 1
235 230 231 1
236 231 232 1
237 229 235 1
238 229 236 1
239 230 237 1
240 230 238 1
241 232 239 1
242 232 240 1
243 232 241 1
244 242 243 1
245 242 253 1
246 243 244 1
247 243 246 1
248 243 254 1
249 244 245 2
250 246 247 1
251 247 248 1
252 248 249 1
253 249 250 1
254 250 251 2
255 250 252 1
256 246 255 1
257 246 256 1
258 247 257 1
259 247 258 1
260 248 259 1
261 248 260 1
262 249 261 1
263 251 262 1
264 251 263 1
265 252 264 1
266 252 265 1
@<TRIPOS>SUBSTRUCTURE
1	GLU1	1	RESIDUE	1 ****	GLU
2	ASN2	16	RESIDUE	1 ****	ASN
3	PRO3	30	RESIDUE	1 ****	PRO
4	GLU4	44	RESIDUE	1 ****	GLU
5	SER5	59	RESIDUE	1 ****	SER
6	ILE6	70	RESIDUE	1 ****	ILE
7	LEU7	89	RESIDUE	1 ****	LEU
8	ASP8	108	RESIDUE	1 ****	ASP
9	GLU9	120	RESIDUE	1 ****	GLU
10	HIS10	135	RESIDUE	1 ****	HIS
11	VAL11	152	RESIDUE	1 ****	VAL
12	MET12	168	RESIDUE	1 ****	MET
13	ARG13	185	RESIDUE	1 ****	ARG
14	VAL14	209	RESIDUE	1 ****	VAL
15	MET15	225	RESIDUE	1 ****	MET
16	ARG16	242	RESIDUE	1 ****	ARG
