@<TRIPOS>MOLECULE
4-9
271 273 16              
SMALL
USER_CHARGES
@<TRIPOS>ATOM
1	   N	598.388	146.033	-544.157	N.3	1	GLU1	-0.516	
2	  CA	598.947	147.382	-544.157	C.3	1	GLU1	0.040	
3	   C	600.456	147.342	-544.157	C.2	1	GLU1	0.537	
4	   O	601.132	148.041	-544.926	O.2	1	GLU1	-0.582	
5	  CB	598.424	148.167	-542.920	C.3	1	GLU1	0.056	
6	  CG	598.899	149.652	-542.809	C.3	1	GLU1	0.014	
7	  CD	598.475	150.456	-541.594	C.2	1	GLU1	0.805	
8	 OE1	597.747	149.954	-540.716	O.co2	1	GLU1	-0.819	
9	 OE2	598.905	151.626	-541.522	O.co2	1	GLU1	-0.819	
10	   H	599.015	145.154	-544.157	 H	1	GLU1	0.294	
11	  HA	598.621	147.900	-545.077	 H	1	GLU1	0.111	
12	 2HB	598.713	147.636	-541.990	 H	1	GLU1	-0.017	
13	 3HB	597.317	148.157	-542.907	 H	1	GLU1	-0.017	
14	 2HG	598.589	150.237	-543.690	 H	1	GLU1	-0.043	
15	 3HG	599.999	149.719	-542.780	 H	1	GLU1	-0.043	
16	   N	601.060	146.556	-543.332	N.am	2	ASN2	-0.416	
17	  CA	602.520	146.517	-543.332	C.3	2	ASN2	0.014	
18	   C	603.051	146.162	-544.701	C.2	2	ASN2	0.597	
19	   O	603.966	146.793	-545.229	O.2	2	ASN2	-0.568	
20	  CB	603.012	145.494	-542.268	C.3	2	ASN2	-0.204	
21	  CG	602.549	145.718	-540.824	C.2	2	ASN2	0.713	
22	 ND2	603.143	146.633	-540.106	N.pl3	2	ASN2	-0.919	
23	 OD1	601.628	145.084	-540.330	O.2	2	ASN2	-0.593	
24	   H	600.532	145.976	-542.695	 H	2	ASN2	0.272	
25	  HA	602.897	147.527	-543.086	 H	2	ASN2	0.105	
26	 2HB	604.116	145.435	-542.271	 H	2	ASN2	0.080	
27	 3HB	602.683	144.476	-542.553	 H	2	ASN2	0.080	
28	1HD2	602.662	146.806	-539.219	 H	2	ASN2	0.420	
29	2HD2	603.845	147.205	-540.575	 H	2	ASN2	0.420	
30	   N	602.530	145.167	-545.335	N.am	3	PRO3	-0.255	
31	  CA	602.981	144.758	-546.656	C.3	3	PRO3	-0.027	
32	   C	602.583	145.781	-547.733	C.2	3	PRO3	0.590	
33	   O	603.407	146.164	-548.564	O.2	3	PRO3	-0.575	
34	  CB	602.278	143.403	-546.826	C.3	3	PRO3	-0.007	
35	  CG	600.994	143.555	-545.995	C.3	3	PRO3	0.019	
36	  CD	601.452	144.374	-544.786	C.3	3	PRO3	0.019	
37	  HA	604.067	144.638	-546.670	 H	3	PRO3	0.064	
38	 2HB	602.900	142.622	-546.385	 H	3	PRO3	0.025	
39	 3HB	602.079	143.154	-547.871	 H	3	PRO3	0.025	
40	 2HG	600.567	142.592	-545.704	 H	3	PRO3	0.021	
41	 3HG	600.256	144.126	-546.563	 H	3	PRO3	0.021	
42	 2HD	601.841	143.724	-543.998	 H	3	PRO3	0.039	
43	 3HD	600.655	145.009	-544.393	 H	3	PRO3	0.039	
44	   N	601.378	146.241	-547.765	N.am	4	TYR4	-0.416	
45	  CA	601.019	147.212	-548.795	C.3	4	TYR4	-0.001	
46	   C	601.918	148.423	-548.734	C.2	4	TYR4	0.597	
47	   O	602.442	148.900	-549.744	O.2	4	TYR4	-0.568	
48	  CB	599.550	147.694	-548.615	C.3	4	TYR4	-0.015	
49	  CG	598.455	146.627	-548.729	C.2	4	TYR4	-0.001	
50	 CD1	598.044	146.159	-549.981	C.2	4	TYR4	-0.191	
51	 CD2	597.869	146.107	-547.571	C.2	4	TYR4	-0.191	
52	 CE1	597.060	145.178	-550.070	C.2	4	TYR4	-0.234	
53	 CE2	596.885	145.127	-547.663	C.2	4	TYR4	-0.234	
54	  CZ	596.481	144.663	-548.913	C.2	4	TYR4	0.323	
55	  OH	595.518	143.699	-549.006	O.3	4	TYR4	-0.558	
56	   H	600.694	145.934	-547.089	 H	4	TYR4	0.272	
57	  HA	601.146	146.744	-549.789	 H	4	TYR4	0.088	
58	 2HB	599.323	148.484	-549.358	 H	4	TYR4	0.030	
59	 3HB	599.453	148.221	-547.643	 H	4	TYR4	0.030	
60	 1HD	598.491	146.549	-550.884	 H	4	TYR4	0.170	
61	 2HD	598.186	146.454	-546.597	 H	4	TYR4	0.170	
62	 1HE	596.745	144.811	-551.036	 H	4	TYR4	0.166	
63	 2HE	596.445	144.729	-546.761	 H	4	TYR4	0.166	
64	  HH	595.238	143.463	-548.119	 H	4	TYR4	0.399	
65	   N	602.145	148.976	-547.591	N.am	5	SER5	-0.416	
66	  CA	603.014	150.147	-547.532	C.3	5	SER5	-0.025	
67	   C	604.373	149.842	-548.117	C.2	5	SER5	0.597	
68	   O	604.920	150.595	-548.922	O.2	5	SER5	-0.568	
69	  CB	603.126	150.679	-546.081	C.3	5	SER5	0.212	
70	  OG	603.857	149.800	-545.220	O.3	5	SER5	-0.655	
71	   H	601.728	148.604	-546.749	 H	5	SER5	0.272	
72	  HA	602.565	150.937	-548.161	 H	5	SER5	0.084	
73	 2HB	602.126	150.873	-545.648	 H	5	SER5	0.035	
74	 3HB	603.631	151.665	-546.084	 H	5	SER5	0.035	
75	  HG	603.369	148.975	-545.170	 H	5	SER5	0.428	
76	   N	604.978	148.759	-547.763	N.am	6	ILE6	-0.416	
77	  CA	606.291	148.464	-548.330	C.3	6	ILE6	-0.060	
78	   C	606.234	148.427	-549.837	C.2	6	ILE6	0.597	
79	   O	607.069	149.015	-550.541	O.2	6	ILE6	-0.568	
80	  CB	606.891	147.128	-547.729	C.3	6	ILE6	0.130	
81	 CG1	606.911	147.066	-546.168	C.3	6	ILE6	-0.043	
82	 CG2	608.333	146.827	-548.245	C.3	6	ILE6	-0.320	
83	 CD1	607.181	145.677	-545.554	C.3	6	ILE6	-0.066	
84	   H	604.550	148.124	-547.104	 H	6	ILE6	0.272	
85	  HA	606.965	149.299	-548.062	 H	6	ILE6	0.087	
86	  HB	606.234	146.302	-548.074	 H	6	ILE6	0.019	
87	2HG1	605.928	147.385	-545.773	 H	6	ILE6	0.024	
88	3HG1	607.626	147.808	-545.764	 H	6	ILE6	0.024	
89	1HG2	608.392	146.733	-549.343	 H	6	ILE6	0.088	
90	2HG2	609.055	147.609	-547.942	 H	6	ILE6	0.088	
91	3HG2	608.723	145.865	-547.866	 H	6	ILE6	0.088	
92	1HD1	606.453	144.922	-545.908	 H	6	ILE6	0.019	
93	2HD1	608.192	145.298	-545.789	 H	6	ILE6	0.019	
94	3HD1	607.104	145.706	-544.451	 H	6	ILE6	0.019	
95	   N	605.289	147.763	-550.411	N.am	7	LEU7	-0.416	
96	  CA	605.234	147.727	-551.870	C.3	7	LEU7	-0.052	
97	   C	605.161	149.122	-552.442	C.2	7	LEU7	0.597	
98	   O	605.882	149.485	-553.384	O.2	7	LEU7	-0.568	
99	  CB	604.031	146.866	-552.350	C.3	7	LEU7	-0.110	
100	  CG	603.958	145.387	-551.884	C.3	7	LEU7	0.353	
101	 CD1	602.769	144.681	-552.550	C.3	7	LEU7	-0.412	
102	 CD2	605.252	144.608	-552.175	C.3	7	LEU7	-0.412	
103	   H	604.597	147.276	-549.860	 H	7	LEU7	0.272	
104	  HA	606.176	147.287	-552.244	 H	7	LEU7	0.092	
105	 2HB	604.008	146.883	-553.458	 H	7	LEU7	0.046	
106	 3HB	603.091	147.369	-552.046	 H	7	LEU7	0.046	
107	  HG	603.789	145.379	-550.787	 H	7	LEU7	-0.036	
108	1HD1	601.812	145.190	-552.327	 H	7	LEU7	0.100	
109	2HD1	602.868	144.641	-553.651	 H	7	LEU7	0.100	
110	3HD1	602.662	143.640	-552.194	 H	7	LEU7	0.100	
111	1HD2	605.528	144.639	-553.245	 H	7	LEU7	0.100	
112	2HD2	606.106	145.020	-551.604	 H	7	LEU7	0.100	
113	3HD2	605.171	143.546	-551.879	 H	7	LEU7	0.100	
114	   N	604.324	149.963	-551.936	N.am	8	ASP8	-0.516	
115	  CA	604.253	151.312	-552.489	C.3	8	ASP8	0.038	
116	   C	605.599	151.992	-552.431	C.2	8	ASP8	0.537	
117	   O	606.072	152.598	-553.406	O.2	8	ASP8	-0.582	
118	  CB	603.175	152.151	-551.747	C.3	8	ASP8	-0.030	
119	  CG	602.955	153.572	-552.288	C.2	8	ASP8	0.799	
120	 OD1	603.020	153.771	-553.518	O.co2	8	ASP8	-0.801	
121	 OD2	602.763	154.497	-551.472	O.co2	8	ASP8	-0.801	
122	   H	603.726	149.691	-551.168	 H	8	ASP8	0.294	
123	  HA	603.970	151.234	-553.556	 H	8	ASP8	0.088	
124	 2HB	603.432	152.234	-550.675	 H	8	ASP8	-0.012	
125	 3HB	602.196	151.645	-551.780	 H	8	ASP8	-0.012	
126	   N	606.279	151.943	-551.336	N.am	9	GLU9	-0.516	
127	  CA	607.582	152.601	-551.280	C.3	9	GLU9	0.040	
128	   C	608.500	152.073	-552.356	C.2	9	GLU9	0.537	
129	   O	609.164	152.828	-553.081	O.2	9	GLU9	-0.582	
130	  CB	608.215	152.393	-549.875	C.3	9	GLU9	0.056	
131	  CG	609.597	153.086	-549.645	C.3	9	GLU9	0.014	
132	  CD	610.299	152.872	-548.317	C.2	9	GLU9	0.805	
133	 OE1	609.778	152.181	-547.421	O.co2	9	GLU9	-0.819	
134	 OE2	611.418	153.410	-548.185	O.co2	9	GLU9	-0.819	
135	   H	605.916	151.456	-550.529	 H	9	GLU9	0.294	
136	  HA	607.439	153.682	-551.456	 H	9	GLU9	0.111	
137	 2HB	608.328	151.308	-549.672	 H	9	GLU9	-0.017	
138	 3HB	607.518	152.746	-549.091	 H	9	GLU9	-0.017	
139	 2HG	609.525	154.176	-549.785	 H	9	GLU9	-0.043	
140	 3HG	610.344	152.741	-550.379	 H	9	GLU9	-0.043	
141	   N	608.597	150.798	-552.526	N.am	10	HIS10	-0.416	
142	  CA	609.485	150.287	-553.566	C.3	10	HIS10	-0.058	
143	   C	609.118	150.852	-554.917	C.2	10	HIS10	0.597	
144	   O	609.971	151.317	-555.689	O.2	10	HIS10	-0.568	
145	  CB	609.322	148.758	-553.561	C.3	10	HIS10	-0.007	
146	  CG	610.608	148.049	-553.253	C.2	10	HIS10	0.187	
147	 CD2	610.988	147.713	-551.961	C.2	10	HIS10	-0.221	
148	 ND1	611.560	147.643	-554.186	N.2	10	HIS10	-0.543	
149	 CE1	612.466	147.085	-553.362	C.2	10	HIS10	0.163	
150	 NE2	612.203	147.082	-552.027	N.pl3	10	HIS10	-0.280	
151	   H	608.066	150.163	-551.948	 H	10	HIS10	0.272	
152	  HA	610.504	150.645	-553.341	 H	10	HIS10	0.136	
153	 2HB	608.957	148.391	-554.541	 H	10	HIS10	0.037	
154	 3HB	608.566	148.421	-552.822	 H	10	HIS10	0.037	
155	 2HD	610.402	147.928	-551.072	 H	10	HIS10	0.186	
156	 1HE	613.357	146.664	-553.809	 H	10	HIS10	0.144	
157	 2HE	612.770	146.705	-551.254	 H	10	HIS10	0.334	
158	   N	607.881	150.851	-555.280	N.am	11	VAL11	-0.416	
159	  CA	607.526	151.397	-556.587	C.3	11	VAL11	-0.087	
160	   C	607.990	152.827	-556.719	C.2	11	VAL11	0.597	
161	   O	608.591	153.233	-557.722	O.2	11	VAL11	-0.568	
162	  CB	605.964	151.290	-556.807	C.3	11	VAL11	0.299	
163	 CG1	605.396	151.993	-558.070	C.3	11	VAL11	-0.319	
164	 CG2	605.440	149.835	-556.880	C.3	11	VAL11	-0.319	
165	   H	607.168	150.477	-554.670	 H	11	VAL11	0.272	
166	  HA	608.045	150.815	-557.370	 H	11	VAL11	0.097	
167	  HB	605.477	151.770	-555.932	 H	11	VAL11	-0.030	
168	1HG1	605.835	151.602	-559.007	 H	11	VAL11	0.079	
169	2HG1	604.297	151.886	-558.152	 H	11	VAL11	0.079	
170	3HG1	605.574	153.086	-558.060	 H	11	VAL11	0.079	
171	1HG2	605.730	149.248	-555.990	 H	11	VAL11	0.079	
172	2HG2	604.334	149.798	-556.923	 H	11	VAL11	0.079	
173	3HG2	605.822	149.295	-557.767	 H	11	VAL11	0.079	
174	   N	607.752	153.653	-555.757	N.am	12	GLN12	-0.416	
175	  CA	608.200	155.036	-555.884	C.3	12	GLN12	-0.003	
176	   C	609.690	155.104	-556.121	C.2	12	GLN12	0.597	
177	   O	610.177	155.813	-557.000	O.2	12	GLN12	-0.568	
178	  CB	607.809	155.803	-554.601	C.3	12	GLN12	-0.004	
179	  CG	608.169	157.325	-554.570	C.3	12	GLN12	-0.064	
180	  CD	607.866	158.138	-553.305	C.2	12	GLN12	0.695	
181	 NE2	607.299	157.562	-552.276	N.pl3	12	GLN12	-0.941	
182	 OE1	608.167	159.319	-553.227	O.2	12	GLN12	-0.609	
183	   H	607.263	153.347	-554.928	 H	12	GLN12	0.272	
184	  HA	607.701	155.492	-556.759	 H	12	GLN12	0.085	
185	 2HB	608.285	155.303	-553.732	 H	12	GLN12	0.017	
186	 3HB	606.719	155.695	-554.438	 H	12	GLN12	0.017	
187	 2HG	607.691	157.846	-555.420	 H	12	GLN12	0.035	
188	 3HG	609.252	157.467	-554.735	 H	12	GLN12	0.035	
189	1HE2	607.191	158.156	-551.453	 H	12	GLN12	0.425	
190	2HE2	607.135	156.558	-552.380	 H	12	GLN12	0.425	
191	   N	610.475	154.397	-555.381	N.am	13	ARG13	-0.348	
192	  CA	611.915	154.464	-555.611	C.3	13	ARG13	-0.264	
193	   C	612.252	154.093	-557.036	C.2	13	ARG13	0.734	
194	   O	613.020	154.765	-557.720	O.2	13	ARG13	-0.589	
195	  CB	612.629	153.525	-554.597	C.3	13	ARG13	-0.001	
196	  CG	614.174	153.678	-554.516	C.3	13	ARG13	0.039	
197	  CD	614.801	152.690	-553.519	C.3	13	ARG13	0.049	
198	  NE	616.278	152.898	-553.468	N.pl3	13	ARG13	-0.530	
199	  CZ	617.126	152.206	-552.713	C.cat	13	ARG13	0.808	
200	 NH1	616.761	151.242	-551.916	N.pl3	13	ARG13	-0.863	
201	 NH2	618.385	152.506	-552.769	N.pl3	13	ARG13	-0.863	
202	   H	610.099	153.807	-554.652	 H	13	ARG13	0.275	
203	  HA	612.239	155.510	-555.452	 H	13	ARG13	0.156	
204	 2HB	612.363	152.474	-554.837	 H	13	ARG13	0.033	
205	 3HB	612.203	153.691	-553.587	 H	13	ARG13	0.033	
206	 2HG	614.421	154.723	-554.236	 H	13	ARG13	0.029	
207	 3HG	614.624	153.522	-555.518	 H	13	ARG13	0.029	
208	 2HD	614.557	151.650	-553.828	 H	13	ARG13	0.069	
209	 3HD	614.344	152.836	-552.516	 H	13	ARG13	0.069	
210	  HE	616.729	153.621	-554.038	 H	13	ARG13	0.346	
211	1HH1	615.756	151.055	-551.919	 H	13	ARG13	0.448	
212	2HH1	617.474	150.759	-551.367	 H	13	ARG13	0.448	
213	1HH2	618.653	153.264	-553.400	 H	13	ARG13	0.448	
214	2HH2	619.021	151.965	-552.181	 H	13	ARG13	0.448	
215	   N	611.716	153.038	-557.551	N.am	14	VAL14	-0.416	
216	  CA	612.041	152.679	-558.928	C.3	14	VAL14	-0.087	
217	   C	611.711	153.809	-559.874	C.2	14	VAL14	0.597	
218	   O	612.504	154.191	-560.743	O.2	14	VAL14	-0.568	
219	  CB	611.269	151.362	-559.336	C.3	14	VAL14	0.299	
220	 CG1	611.358	150.944	-560.829	C.3	14	VAL14	-0.319	
221	 CG2	611.701	150.110	-558.536	C.3	14	VAL14	-0.319	
222	   H	611.081	152.469	-557.009	 H	14	VAL14	0.272	
223	  HA	613.129	152.503	-559.003	 H	14	VAL14	0.097	
224	  HB	610.193	151.533	-559.120	 H	14	VAL14	-0.030	
225	1HG1	612.400	150.767	-561.158	 H	14	VAL14	0.079	
226	2HG1	610.786	150.021	-561.042	 H	14	VAL14	0.079	
227	3HG1	610.929	151.706	-561.507	 H	14	VAL14	0.079	
228	1HG2	611.614	150.268	-557.445	 H	14	VAL14	0.079	
229	2HG2	611.066	149.233	-558.768	 H	14	VAL14	0.079	
230	3HG2	612.749	149.820	-558.741	 H	14	VAL14	0.079	
231	   N	610.566	154.395	-559.772	N.am	15	MET15	-0.416	
232	  CA	610.245	155.488	-560.685	C.3	15	MET15	-0.024	
233	   C	611.275	156.588	-560.597	C.2	15	MET15	0.597	
234	   O	611.777	157.099	-561.610	O.2	15	MET15	-0.568	
235	  CB	608.823	156.033	-560.376	C.3	15	MET15	0.034	
236	  CG	607.661	155.034	-560.568	C.3	15	MET15	0.002	
237	  SD	606.087	155.899	-560.454	S.3	15	MET15	-0.274	
238	  CE	605.007	154.469	-560.318	C.3	15	MET15	-0.054	
239	   H	609.901	154.101	-559.070	 H	15	MET15	0.272	
240	  HA	610.271	155.101	-561.721	 H	15	MET15	0.088	
241	 2HB	608.620	156.911	-561.018	 H	15	MET15	0.024	
242	 3HB	608.788	156.425	-559.340	 H	15	MET15	0.024	
243	 2HG	607.705	154.248	-559.791	 H	15	MET15	0.044	
244	 3HG	607.725	154.519	-561.544	 H	15	MET15	0.044	
245	 1HE	605.151	153.781	-561.170	 H	15	MET15	0.068	
246	 2HE	605.216	153.916	-559.385	 H	15	MET15	0.068	
247	 3HE	603.949	154.784	-560.301	 H	15	MET15	0.068	
248	   N	611.643	157.009	-559.435	N.am	16	ARG16	-0.348	
249	  CA	612.639	158.073	-559.351	C.3	16	ARG16	-0.264	
250	   C	613.910	157.681	-560.067	C.2	16	ARG16	0.734	
251	   O	614.024	156.605	-560.649	O.2	16	ARG16	-0.589	
252	  CB	612.908	158.391	-557.852	C.3	16	ARG16	-0.001	
253	  CG	613.733	159.680	-557.579	C.3	16	ARG16	0.039	
254	  CD	613.982	159.899	-556.078	C.3	16	ARG16	0.049	
255	  NE	614.758	161.158	-555.876	N.pl3	16	ARG16	-0.530	
256	  CZ	615.149	161.640	-554.701	C.cat	16	ARG16	0.808	
257	 NH1	614.901	161.055	-553.562	N.pl3	16	ARG16	-0.863	
258	 NH2	615.812	162.753	-554.682	N.pl3	16	ARG16	-0.863	
259	   H	611.249	156.608	-558.596	 H	16	ARG16	0.275	
260	  HA	612.230	158.966	-559.860	 H	16	ARG16	0.156	
261	 2HB	613.405	157.515	-557.386	 H	16	ARG16	0.033	
262	 3HB	611.939	158.471	-557.318	 H	16	ARG16	0.033	
263	 2HG	613.202	160.551	-558.016	 H	16	ARG16	0.029	
264	 3HG	614.706	159.628	-558.108	 H	16	ARG16	0.029	
265	 2HD	614.531	159.024	-555.665	 H	16	ARG16	0.069	
266	 3HD	613.009	159.941	-555.542	 H	16	ARG16	0.069	
267	  HE	615.036	161.739	-556.673	 H	16	ARG16	0.346	
268	1HH1	614.376	160.182	-553.647	 H	16	ARG16	0.448	
269	2HH1	615.236	161.491	-552.701	 H	16	ARG16	0.448	
270	1HH2	615.997	163.197	-555.584	 H	16	ARG16	0.448	
271	2HH2	616.102	163.108	-553.769	 H	16	ARG16	0.448	
@<TRIPOS>BOND
1 1 2 1
2 1 10 1
3 2 3 1
4 2 5 1
5 2 11 1
6 3 4 2
7 3 16 1
8 5 6 1
9 6 7 1
10 7 8 2
11 7 9 1
12 5 12 1
13 5 13 1
14 6 14 1
15 6 15 1
16 16 17 1
17 16 24 1
18 17 18 1
19 17 20 1
20 17 25 1
21 18 19 2
22 18 30 1
23 20 21 1
24 21 22 1
25 21 23 2
26 20 26 1
27 20 27 1
28 22 28 1
29 22 29 1
30 30 31 1
31 30 36 1
32 31 32 1
33 31 34 1
34 31 37 1
35 32 33 2
36 32 44 1
37 34 35 1
38 35 36 1
39 34 38 1
40 34 39 1
41 35 40 1
42 35 41 1
43 36 42 1
44 36 43 1
45 44 45 1
46 44 56 1
47 45 46 1
48 45 48 1
49 45 57 1
50 46 47 2
51 46 65 1
52 48 49 1
53 49 50 2
54 49 51 1
55 51 53 2
56 50 52 1
57 53 54 1
58 52 54 2
59 54 55 1
60 48 58 1
61 48 59 1
62 50 60 1
63 51 61 1
64 52 62 1
65 53 63 1
66 55 64 1
67 65 66 1
68 65 71 1
69 66 67 1
70 66 69 1
71 66 72 1
72 67 68 2
73 67 76 1
74 69 70 1
75 69 73 1
76 69 74 1
77 70 75 1
78 76 77 1
79 76 84 1
80 77 78 1
81 77 80 1
82 77 85 1
83 78 79 2
84 78 95 1
85 80 81 1
86 80 82 1
87 81 83 1
88 80 86 1
89 81 87 1
90 81 88 1
91 82 89 1
92 82 90 1
93 82 91 1
94 83 92 1
95 83 93 1
96 83 94 1
97 95 96 1
98 95 103 1
99 96 97 1
100 96 99 1
101 96 104 1
102 97 98 2
103 97 114 1
104 99 100 1
105 100 101 1
106 100 102 1
107 99 105 1
108 99 106 1
109 100 107 1
110 101 108 1
111 101 109 1
112 101 110 1
113 102 111 1
114 102 112 1
115 102 113 1
116 114 115 1
117 114 122 1
118 115 116 1
119 115 118 1
120 115 123 1
121 116 117 2
122 116 126 1
123 118 119 1
124 119 120 2
125 119 121 1
126 118 124 1
127 118 125 1
128 126 127 1
129 126 135 1
130 127 128 1
131 127 130 1
132 127 136 1
133 128 129 2
134 128 141 1
135 130 131 1
136 131 132 1
137 132 133 2
138 132 134 1
139 130 137 1
140 130 138 1
141 131 139 1
142 131 140 1
143 141 142 1
144 141 151 1
145 142 143 1
146 142 145 1
147 142 152 1
148 143 144 2
149 143 158 1
150 145 146 1
151 146 147 2
152 147 150 1
153 146 148 1
154 148 149 2
155 149 150 1
156 145 153 1
157 145 154 1
158 147 155 1
159 149 156 1
160 150 157 1
161 158 159 1
162 158 165 1
163 159 160 1
164 159 162 1
165 159 166 1
166 160 161 2
167 160 174 1
168 162 163 1
169 162 164 1
170 162 167 1
171 163 168 1
172 163 169 1
173 163 170 1
174 164 171 1
175 164 172 1
176 164 173 1
177 174 175 1
178 174 183 1
179 175 176 1
180 175 178 1
181 175 184 1
182 176 177 2
183 176 191 1
184 178 179 1
185 179 180 1
186 180 181 1
187 180 182 2
188 178 185 1
189 178 186 1
190 179 187 1
191 179 188 1
192 181 189 1
193 181 190 1
194 191 192 1
195 191 202 1
196 192 193 1
197 192 195 1
198 192 203 1
199 193 194 2
200 193 215 1
201 195 196 1
202 196 197 1
203 197 198 1
204 198 199 1
205 199 200 2
206 199 201 1
207 195 204 1
208 195 205 1
209 196 206 1
210 196 207 1
211 197 208 1
212 197 209 1
213 198 210 1
214 200 211 1
215 200 212 1
216 201 213 1
217 201 214 1
218 215 216 1
219 215 222 1
220 216 217 1
221 216 219 1
222 216 223 1
223 217 218 2
224 217 231 1
225 219 220 1
226 219 221 1
227 219 224 1
228 220 225 1
229 220 226 1
230 220 227 1
231 221 228 1
232 221 229 1
233 221 230 1
234 231 232 1
235 231 239 1
236 232 233 1
237 232 235 1
238 232 240 1
239 233 234 2
240 233 248 1
241 235 236 1
242 236 237 1
243 237 238 1
244 235 241 1
245 235 242 1
246 236 243 1
247 236 244 1
248 238 245 1
249 238 246 1
250 238 247 1
251 248 249 1
252 248 259 1
253 249 250 1
254 249 252 1
255 249 260 1
256 250 251 2
257 252 253 1
258 253 254 1
259 254 255 1
260 255 256 1
261 256 257 2
262 256 258 1
263 252 261 1
264 252 262 1
265 253 263 1
266 253 264 1
267 254 265 1
268 254 266 1
269 255 267 1
270 257 268 1
271 257 269 1
272 258 270 1
273 258 271 1
@<TRIPOS>SUBSTRUCTURE
1	GLU1	1	RESIDUE	1 ****	GLU
2	ASN2	16	RESIDUE	1 ****	ASN
3	PRO3	30	RESIDUE	1 ****	PRO
4	TYR4	44	RESIDUE	1 ****	TYR
5	SER5	65	RESIDUE	1 ****	SER
6	ILE6	76	RESIDUE	1 ****	ILE
7	LEU7	95	RESIDUE	1 ****	LEU
8	ASP8	114	RESIDUE	1 ****	ASP
9	GLU9	126	RESIDUE	1 ****	GLU
10	HIS10	141	RESIDUE	1 ****	HIS
11	VAL11	158	RESIDUE	1 ****	VAL
12	GLN12	174	RESIDUE	1 ****	GLN
13	ARG13	191	RESIDUE	1 ****	ARG
14	VAL14	215	RESIDUE	1 ****	VAL
15	MET15	231	RESIDUE	1 ****	MET
16	ARG16	248	RESIDUE	1 ****	ARG
