@<TRIPOS>MOLECULE
3-7
270 270 16              
SMALL
USER_CHARGES
@<TRIPOS>ATOM
1	   N	396.375	90.980	-366.697	N.3	1	GLU1	-0.516	
2	  CA	396.934	92.329	-366.697	C.3	1	GLU1	0.040	
3	   C	398.443	92.289	-366.697	C.2	1	GLU1	0.537	
4	   O	399.119	92.988	-367.466	O.2	1	GLU1	-0.582	
5	  CB	396.411	93.114	-365.460	C.3	1	GLU1	0.056	
6	  CG	396.886	94.599	-365.349	C.3	1	GLU1	0.014	
7	  CD	396.462	95.403	-364.134	C.2	1	GLU1	0.805	
8	 OE1	395.734	94.901	-363.256	O.co2	1	GLU1	-0.819	
9	 OE2	396.892	96.573	-364.062	O.co2	1	GLU1	-0.819	
10	   H	397.002	90.101	-366.697	 H	1	GLU1	0.294	
11	  HA	396.608	92.847	-367.617	 H	1	GLU1	0.111	
12	 2HB	396.700	92.583	-364.530	 H	1	GLU1	-0.017	
13	 3HB	395.304	93.104	-365.447	 H	1	GLU1	-0.017	
14	 2HG	396.576	95.184	-366.230	 H	1	GLU1	-0.043	
15	 3HG	397.986	94.666	-365.320	 H	1	GLU1	-0.043	
16	   N	399.048	91.503	-365.872	N.am	2	ASN2	-0.416	
17	  CA	400.507	91.465	-365.872	C.3	2	ASN2	0.014	
18	   C	401.038	91.109	-367.241	C.2	2	ASN2	0.597	
19	   O	401.953	91.740	-367.770	O.2	2	ASN2	-0.568	
20	  CB	401.000	90.442	-364.808	C.3	2	ASN2	-0.204	
21	  CG	400.537	90.666	-363.365	C.2	2	ASN2	0.713	
22	 ND2	401.131	91.581	-362.647	N.pl3	2	ASN2	-0.919	
23	 OD1	399.616	90.032	-362.870	O.2	2	ASN2	-0.593	
24	   H	398.520	90.924	-365.236	 H	2	ASN2	0.272	
25	  HA	400.885	92.475	-365.627	 H	2	ASN2	0.105	
26	 2HB	402.104	90.383	-364.812	 H	2	ASN2	0.080	
27	 3HB	400.671	89.424	-365.094	 H	2	ASN2	0.080	
28	1HD2	400.650	91.754	-361.760	 H	2	ASN2	0.420	
29	2HD2	401.832	92.152	-363.116	 H	2	ASN2	0.420	
30	   N	400.517	90.114	-367.875	N.am	3	LEU3	-0.416	
31	  CA	401.030	89.771	-369.198	C.3	3	LEU3	-0.052	
32	   C	400.936	90.950	-370.137	C.2	3	LEU3	0.597	
33	   O	401.885	91.295	-370.856	O.2	3	LEU3	-0.568	
34	  CB	400.275	88.540	-369.775	C.3	3	LEU3	-0.110	
35	  CG	400.293	87.222	-368.955	C.3	3	LEU3	0.353	
36	 CD1	399.593	86.102	-369.738	C.3	3	LEU3	-0.412	
37	 CD2	401.716	86.777	-368.576	C.3	3	LEU3	-0.412	
38	   H	399.765	89.581	-367.463	 H	3	LEU3	0.272	
39	  HA	402.106	89.534	-369.105	 H	3	LEU3	0.092	
40	 2HB	400.674	88.325	-370.786	 H	3	LEU3	0.046	
41	 3HB	399.217	88.822	-369.949	 H	3	LEU3	0.046	
42	  HG	399.721	87.390	-368.018	 H	3	LEU3	-0.036	
43	1HD1	398.549	86.370	-369.993	 H	3	LEU3	0.100	
44	2HD1	400.110	85.869	-370.688	 H	3	LEU3	0.100	
45	3HD1	399.544	85.165	-369.154	 H	3	LEU3	0.100	
46	1HD2	402.368	86.663	-369.461	 H	3	LEU3	0.100	
47	2HD2	402.199	87.509	-367.902	 H	3	LEU3	0.100	
48	3HD2	401.717	85.814	-368.032	 H	3	LEU3	0.100	
49	   N	399.834	91.619	-370.191	N.am	4	GLU4	-0.516	
50	  CA	399.743	92.759	-371.099	C.3	4	GLU4	0.040	
51	   C	400.822	93.772	-370.805	C.2	4	GLU4	0.537	
52	   O	401.516	94.272	-371.702	O.2	4	GLU4	-0.582	
53	  CB	398.336	93.413	-370.980	C.3	4	GLU4	0.056	
54	  CG	398.069	94.623	-371.932	C.3	4	GLU4	0.014	
55	  CD	396.739	95.346	-371.823	C.2	4	GLU4	0.805	
56	 OE1	395.870	94.971	-371.012	O.co2	4	GLU4	-0.819	
57	 OE2	396.577	96.330	-372.574	O.co2	4	GLU4	-0.819	
58	   H	399.047	91.358	-369.615	 H	4	GLU4	0.294	
59	  HA	399.887	92.400	-372.134	 H	4	GLU4	0.111	
60	 2HB	398.165	93.744	-369.935	 H	4	GLU4	-0.017	
61	 3HB	397.551	92.654	-371.158	 H	4	GLU4	-0.017	
62	 2HG	398.176	94.331	-372.989	 H	4	GLU4	-0.043	
63	 3HG	398.803	95.429	-371.770	 H	4	GLU4	-0.043	
64	   N	401.029	94.128	-369.582	N.am	5	SER5	-0.416	
65	  CA	402.074	95.108	-369.299	C.3	5	SER5	-0.025	
66	   C	403.411	94.640	-369.822	C.2	5	SER5	0.597	
67	   O	404.151	95.378	-370.472	O.2	5	SER5	-0.568	
68	  CB	402.134	95.427	-367.784	C.3	5	SER5	0.212	
69	  OG	402.622	94.331	-367.003	O.3	5	SER5	-0.655	
70	   H	400.478	93.735	-368.833	 H	5	SER5	0.272	
71	  HA	401.825	96.038	-369.842	 H	5	SER5	0.084	
72	 2HB	401.144	95.741	-367.401	 H	5	SER5	0.035	
73	 3HB	402.796	96.299	-367.612	 H	5	SER5	0.035	
74	  HG	401.999	93.607	-367.103	 H	5	SER5	0.428	
75	   N	403.789	93.430	-369.579	N.am	6	ILE6	-0.416	
76	  CA	405.082	92.978	-370.085	C.3	6	ILE6	-0.060	
77	   C	405.163	93.140	-371.583	C.2	6	ILE6	0.597	
78	   O	406.148	93.652	-372.137	O.2	6	ILE6	-0.568	
79	  CB	405.389	91.492	-369.635	C.3	6	ILE6	0.130	
80	 CG1	405.249	91.233	-368.101	C.3	6	ILE6	-0.043	
81	 CG2	406.802	91.004	-370.082	C.3	6	ILE6	-0.320	
82	 CD1	405.222	89.753	-367.668	C.3	6	ILE6	-0.066	
83	   H	403.200	92.806	-369.048	 H	6	ILE6	0.272	
84	  HA	405.858	93.638	-369.656	 H	6	ILE6	0.087	
85	  HB	404.638	90.847	-370.138	 H	6	ILE6	0.019	
86	2HG1	404.301	91.672	-367.736	 H	6	ILE6	0.024	
87	3HG1	406.038	91.779	-367.546	 H	6	ILE6	0.024	
88	1HG2	406.949	91.039	-371.176	 H	6	ILE6	0.088	
89	2HG2	407.613	91.600	-369.623	 H	6	ILE6	0.088	
90	3HG2	406.987	89.948	-369.814	 H	6	ILE6	0.088	
91	1HD1	404.415	89.191	-368.176	 H	6	ILE6	0.019	
92	2HD1	406.173	89.231	-367.881	 H	6	ILE6	0.019	
93	3HD1	405.048	89.658	-366.580	 H	6	ILE6	0.019	
94	   N	404.179	92.733	-372.311	N.am	7	LEU7	-0.416	
95	  CA	404.258	92.890	-373.760	C.3	7	LEU7	-0.052	
96	   C	404.475	94.336	-374.136	C.2	7	LEU7	0.597	
97	   O	405.333	94.678	-374.964	O.2	7	LEU7	-0.568	
98	  CB	402.979	92.325	-374.441	C.3	7	LEU7	-0.110	
99	  CG	402.615	90.836	-374.192	C.3	7	LEU7	0.353	
100	 CD1	401.392	90.443	-375.034	C.3	7	LEU7	-0.412	
101	 CD2	403.781	89.881	-374.495	C.3	7	LEU7	-0.412	
102	   H	403.365	92.313	-371.884	 H	7	LEU7	0.272	
103	  HA	405.144	92.338	-374.123	 H	7	LEU7	0.092	
104	 2HB	403.064	92.483	-375.534	 H	7	LEU7	0.046	
105	 3HB	402.112	92.946	-374.138	 H	7	LEU7	0.046	
106	  HG	402.342	90.722	-373.122	 H	7	LEU7	-0.036	
107	1HD1	400.517	91.084	-374.812	 H	7	LEU7	0.100	
108	2HD1	401.588	90.524	-376.120	 H	7	LEU7	0.100	
109	3HD1	401.079	89.402	-374.835	 H	7	LEU7	0.100	
110	1HD2	404.158	89.995	-375.528	 H	7	LEU7	0.100	
111	2HD2	404.633	90.058	-373.812	 H	7	LEU7	0.100	
112	3HD2	403.495	88.822	-374.357	 H	7	LEU7	0.100	
113	   N	403.747	95.243	-373.579	N.am	8	ASP8	-0.516	
114	  CA	403.957	96.641	-373.942	C.3	8	ASP8	0.038	
115	   C	405.386	97.057	-373.694	C.2	8	ASP8	0.537	
116	   O	406.045	97.684	-374.538	O.2	8	ASP8	-0.582	
117	  CB	402.969	97.560	-373.171	C.3	8	ASP8	-0.030	
118	  CG	403.044	99.054	-373.522	C.2	8	ASP8	0.799	
119	 OD1	403.257	99.390	-374.705	O.co2	8	ASP8	-0.801	
120	 OD2	402.933	99.890	-372.601	O.co2	8	ASP8	-0.801	
121	   H	403.041	94.989	-372.902	 H	8	ASP8	0.294	
122	  HA	403.768	96.749	-375.027	 H	8	ASP8	0.088	
123	 2HB	403.133	97.462	-372.082	 H	8	ASP8	-0.012	
124	 3HB	401.927	97.247	-373.344	 H	8	ASP8	-0.012	
125	   N	405.941	96.750	-372.570	N.am	9	GLU9	-0.516	
126	  CA	407.324	97.151	-372.330	C.3	9	GLU9	0.040	
127	   C	408.239	96.606	-373.400	C.2	9	GLU9	0.537	
128	   O	409.086	97.314	-373.963	O.2	9	GLU9	-0.582	
129	  CB	407.777	96.660	-370.925	C.3	9	GLU9	0.056	
130	  CG	409.227	97.060	-370.502	C.3	9	GLU9	0.014	
131	  CD	409.754	96.560	-369.170	C.2	9	GLU9	0.805	
132	 OE1	409.041	95.867	-368.418	O.co2	9	GLU9	-0.819	
133	 OE2	410.929	96.868	-368.884	O.co2	9	GLU9	-0.819	
134	   H	405.426	96.239	-371.867	 H	9	GLU9	0.294	
135	  HA	407.383	98.254	-372.362	 H	9	GLU9	0.111	
136	 2HB	407.686	95.556	-370.868	 H	9	GLU9	-0.017	
137	 3HB	407.077	97.032	-370.152	 H	9	GLU9	-0.017	
138	 2HG	409.353	98.154	-370.493	 H	9	GLU9	-0.043	
139	 3HG	409.972	96.681	-371.221	 H	9	GLU9	-0.043	
140	   N	408.136	95.366	-373.738	N.am	10	HIS10	-0.416	
141	  CA	409.021	94.838	-374.773	C.3	10	HIS10	-0.058	
142	   C	408.884	95.623	-376.055	C.2	10	HIS10	0.597	
143	   O	409.872	96.020	-376.691	O.2	10	HIS10	-0.568	
144	  CB	408.603	93.374	-374.993	C.3	10	HIS10	-0.007	
145	  CG	409.716	92.413	-374.695	C.2	10	HIS10	0.187	
146	 CD2	409.910	91.856	-373.438	C.2	10	HIS10	-0.221	
147	 ND1	410.671	91.963	-375.604	N.2	10	HIS10	-0.543	
148	 CE1	411.388	91.153	-374.803	C.2	10	HIS10	0.163	
149	 NE2	411.003	91.031	-373.504	N.pl3	10	HIS10	-0.280	
150	   H	407.453	94.768	-373.294	 H	10	HIS10	0.272	
151	  HA	410.059	94.976	-374.427	 H	10	HIS10	0.136	
152	 2HB	408.277	93.204	-376.038	 H	10	HIS10	0.037	
153	 3HB	407.734	93.088	-374.364	 H	10	HIS10	0.037	
154	 2HD	409.287	92.060	-372.572	 H	10	HIS10	0.186	
155	 1HE	412.235	90.639	-375.239	 H	10	HIS10	0.144	
156	 2HE	411.422	90.465	-372.752	 H	10	HIS10	0.334	
157	   N	407.704	95.889	-376.503	N.am	11	VAL11	-0.416	
158	  CA	407.572	96.648	-377.743	C.3	11	VAL11	-0.087	
159	   C	408.280	97.978	-377.640	C.2	11	VAL11	0.597	
160	   O	409.033	98.391	-378.531	O.2	11	VAL11	-0.568	
161	  CB	406.043	96.851	-378.087	C.3	11	VAL11	0.299	
162	 CG1	405.724	97.797	-379.277	C.3	11	VAL11	-0.319	
163	 CG2	405.292	95.535	-378.400	C.3	11	VAL11	-0.319	
164	   H	406.884	95.576	-376.003	 H	11	VAL11	0.272	
165	  HA	408.059	96.085	-378.559	 H	11	VAL11	0.097	
166	  HB	405.562	97.297	-377.191	 H	11	VAL11	-0.030	
167	1HG1	406.178	97.453	-380.225	 H	11	VAL11	0.079	
168	2HG1	404.635	97.899	-379.452	 H	11	VAL11	0.079	
169	3HG1	406.081	98.830	-379.102	 H	11	VAL11	0.079	
170	1HG2	405.393	94.799	-377.581	 H	11	VAL11	0.079	
171	2HG2	404.204	95.702	-378.527	 H	11	VAL11	0.079	
172	3HG2	405.660	95.049	-379.324	 H	11	VAL11	0.079	
173	   N	408.094	98.706	-376.592	N.am	12	GLN12	-0.416	
174	  CA	408.778	99.991	-376.492	C.3	12	GLN12	-0.003	
175	   C	410.274	99.820	-376.610	C.2	12	GLN12	0.597	
176	   O	410.955	100.534	-377.344	O.2	12	GLN12	-0.568	
177	  CB	408.401	100.650	-375.146	C.3	12	GLN12	-0.004	
178	  CG	409.006	102.067	-374.877	C.3	12	GLN12	-0.064	
179	  CD	408.725	102.757	-373.537	C.2	12	GLN12	0.695	
180	 NE2	407.974	102.168	-372.642	N.pl3	12	GLN12	-0.941	
181	 OE1	409.212	103.846	-373.273	O.2	12	GLN12	-0.609	
182	   H	407.484	98.391	-375.851	 H	12	GLN12	0.272	
183	  HA	408.448	100.635	-377.329	 H	12	GLN12	0.085	
184	 2HB	408.701	99.968	-374.323	 H	12	GLN12	0.017	
185	 3HB	407.297	100.720	-375.079	 H	12	GLN12	0.017	
186	 2HG	408.706	102.767	-375.679	 H	12	GLN12	0.035	
187	 3HG	410.109	102.033	-374.943	 H	12	GLN12	0.035	
188	1HE2	407.890	102.664	-371.753	 H	12	GLN12	0.425	
189	2HE2	407.655	101.230	-372.896	 H	12	GLN12	0.425	
190	   N	410.855	98.898	-375.920	N.am	13	ARG13	-0.348	
191	  CA	412.301	98.733	-376.035	C.3	13	ARG13	-0.264	
192	   C	412.705	98.488	-377.470	C.2	13	ARG13	0.734	
193	   O	413.637	99.092	-377.996	O.2	13	ARG13	-0.589	
194	  CB	412.747	97.563	-375.113	C.3	13	ARG13	-0.001	
195	  CG	414.281	97.426	-374.900	C.3	13	ARG13	0.039	
196	  CD	414.635	96.225	-374.007	C.3	13	ARG13	0.049	
197	  NE	416.114	96.157	-373.822	N.pl3	13	ARG13	-0.530	
198	  CZ	416.758	95.236	-373.111	C.cat	13	ARG13	0.808	
199	 NH1	416.162	94.261	-372.485	N.pl3	13	ARG13	-0.863	
200	 NH2	418.050	95.310	-373.035	N.pl3	13	ARG13	-0.863	
201	   H	410.317	98.299	-375.310	 H	13	ARG13	0.275	
202	  HA	412.779	99.676	-375.709	 H	13	ARG13	0.156	
203	 2HB	412.332	96.615	-375.515	 H	13	ARG13	0.033	
204	 3HB	412.261	97.675	-374.122	 H	13	ARG13	0.033	
205	 2HG	414.672	98.366	-374.460	 H	13	ARG13	0.029	
206	 3HG	414.792	97.318	-375.878	 H	13	ARG13	0.029	
207	 2HD	414.250	95.292	-374.475	 H	13	ARG13	0.069	
208	 3HD	414.116	96.324	-373.030	 H	13	ARG13	0.069	
209	  HE	416.733	96.852	-374.252	 H	13	ARG13	0.346	
210	1HH1	415.145	94.259	-372.586	 H	13	ARG13	0.448	
211	2HH1	416.729	93.593	-371.959	 H	13	ARG13	0.448	
212	1HH2	418.500	96.080	-373.533	 H	13	ARG13	0.448	
213	2HH2	418.526	94.594	-372.483	 H	13	ARG13	0.448	
214	   N	412.051	97.619	-378.164	N.am	14	VAL14	-0.416	
215	  CA	412.441	97.383	-379.551	C.3	14	VAL14	-0.087	
216	   C	412.397	98.662	-380.351	C.2	14	VAL14	0.597	
217	   O	413.322	99.001	-381.099	O.2	14	VAL14	-0.568	
218	  CB	411.501	96.286	-380.192	C.3	14	VAL14	0.299	
219	 CG1	411.661	96.048	-381.719	C.3	14	VAL14	-0.319	
220	 CG2	411.639	94.887	-379.545	C.3	14	VAL14	-0.319	
221	   H	411.281	97.110	-377.754	 H	14	VAL14	0.272	
222	  HA	413.486	97.025	-379.570	 H	14	VAL14	0.097	
223	  HB	410.453	96.619	-380.033	 H	14	VAL14	-0.030	
224	1HG1	412.685	95.730	-381.993	 H	14	VAL14	0.079	
225	2HG1	410.965	95.276	-382.099	 H	14	VAL14	0.079	
226	3HG1	411.433	96.954	-382.313	 H	14	VAL14	0.079	
227	1HG2	411.476	94.921	-378.452	 H	14	VAL14	0.079	
228	2HG2	410.890	94.174	-379.943	 H	14	VAL14	0.079	
229	3HG2	412.638	94.442	-379.713	 H	14	VAL14	0.079	
230	   N	411.362	99.426	-380.251	N.am	15	MET15	-0.416	
231	  CA	411.318	100.664	-381.024	C.3	15	MET15	-0.024	
232	   C	412.505	101.542	-380.710	C.2	15	MET15	0.597	
233	   O	413.181	102.077	-381.602	O.2	15	MET15	-0.568	
234	  CB	409.985	101.412	-380.746	C.3	15	MET15	0.034	
235	  CG	408.696	100.670	-381.158	C.3	15	MET15	0.002	
236	  SD	407.286	101.783	-381.039	S.3	15	MET15	-0.274	
237	  CE	405.973	100.564	-381.181	C.3	15	MET15	-0.054	
238	   H	410.593	99.172	-379.647	 H	15	MET15	0.272	
239	  HA	411.377	100.411	-382.099	 H	15	MET15	0.088	
240	 2HB	409.996	102.386	-381.272	 H	15	MET15	0.024	
241	 3HB	409.917	101.672	-379.670	 H	15	MET15	0.024	
242	 2HG	408.532	99.798	-380.497	 H	15	MET15	0.044	
243	 3HG	408.765	100.278	-382.190	 H	15	MET15	0.044	
244	 1HE	406.080	99.973	-382.109	 H	15	MET15	0.068	
245	 2HE	405.996	99.870	-380.322	 H	15	MET15	0.068	
246	 3HE	404.986	101.058	-381.197	 H	15	MET15	0.068	
247	   N	412.826	101.742	-379.476	N.am	16	ARG16	-0.348	
248	  CA	413.975	102.592	-379.173	C.3	16	ARG16	-0.264	
249	   C	415.224	102.070	-379.844	C.2	16	ARG16	0.734	
250	   O	415.211	101.072	-380.560	O.2	16	ARG16	-0.589	
251	  CB	414.149	102.667	-377.630	C.3	16	ARG16	-0.001	
252	  CG	415.148	103.743	-377.121	C.3	16	ARG16	0.039	
253	  CD	415.287	103.725	-375.590	C.3	16	ARG16	0.049	
254	  NE	416.240	104.790	-375.159	N.pl3	16	ARG16	-0.530	
255	  CZ	416.593	105.044	-373.903	C.cat	16	ARG16	0.808	
256	 NH1	416.143	104.376	-372.878	N.pl3	16	ARG16	-0.863	
257	 NH2	417.429	106.009	-373.681	N.pl3	16	ARG16	-0.863	
258	   H	412.292	101.318	-378.732	 H	16	ARG16	0.275	
259	  HA	413.772	103.600	-379.582	 H	16	ARG16	0.156	
260	 2HB	414.445	101.665	-377.256	 H	16	ARG16	0.033	
261	 3HB	413.161	102.853	-377.161	 H	16	ARG16	0.033	
262	 2HG	414.816	104.743	-377.470	 H	16	ARG16	0.029	
263	 3HG	416.145	103.583	-377.580	 H	16	ARG16	0.029	
264	 2HD	415.639	102.722	-375.264	 H	16	ARG16	0.069	
265	 3HD	414.288	103.874	-375.125	 H	16	ARG16	0.069	
266	  HE	416.687	105.407	-375.846	 H	16	ARG16	0.346	
267	1HH1	415.489	103.629	-373.121	 H	16	ARG16	0.448	
268	2HH1	416.462	104.634	-371.943	 H	16	ARG16	0.448	
269	1HH2	417.771	106.521	-374.497	 H	16	ARG16	0.448	
270	2HH2	417.686	106.190	-372.710	 H	16	ARG16	0.448	
@<TRIPOS>BOND
1 1 2 1
2 1 10 1
3 2 3 1
4 2 5 1
5 2 11 1
6 3 4 2
7 3 16 1
8 5 6 1
9 6 7 1
10 7 8 2
11 7 9 1
12 5 12 1
13 5 13 1
14 6 14 1
15 6 15 1
16 16 17 1
17 16 24 1
18 17 18 1
19 17 20 1
20 17 25 1
21 18 19 2
22 18 30 1
23 20 21 1
24 21 22 1
25 21 23 2
26 20 26 1
27 20 27 1
28 22 28 1
29 22 29 1
30 30 31 1
31 30 38 1
32 31 32 1
33 31 34 1
34 31 39 1
35 32 33 2
36 32 49 1
37 34 35 1
38 35 36 1
39 35 37 1
40 34 40 1
41 34 41 1
42 35 42 1
43 36 43 1
44 36 44 1
45 36 45 1
46 37 46 1
47 37 47 1
48 37 48 1
49 49 50 1
50 49 58 1
51 50 51 1
52 50 53 1
53 50 59 1
54 51 52 2
55 51 64 1
56 53 54 1
57 54 55 1
58 55 56 2
59 55 57 1
60 53 60 1
61 53 61 1
62 54 62 1
63 54 63 1
64 64 65 1
65 64 70 1
66 65 66 1
67 65 68 1
68 65 71 1
69 66 67 2
70 66 75 1
71 68 69 1
72 68 72 1
73 68 73 1
74 69 74 1
75 75 76 1
76 75 83 1
77 76 77 1
78 76 79 1
79 76 84 1
80 77 78 2
81 77 94 1
82 79 80 1
83 79 81 1
84 80 82 1
85 79 85 1
86 80 86 1
87 80 87 1
88 81 88 1
89 81 89 1
90 81 90 1
91 82 91 1
92 82 92 1
93 82 93 1
94 94 95 1
95 94 102 1
96 95 96 1
97 95 98 1
98 95 103 1
99 96 97 2
100 96 113 1
101 98 99 1
102 99 100 1
103 99 101 1
104 98 104 1
105 98 105 1
106 99 106 1
107 100 107 1
108 100 108 1
109 100 109 1
110 101 110 1
111 101 111 1
112 101 112 1
113 113 114 1
114 113 121 1
115 114 115 1
116 114 117 1
117 114 122 1
118 115 116 2
119 115 125 1
120 117 118 1
121 118 119 2
122 118 120 1
123 117 123 1
124 117 124 1
125 125 126 1
126 125 134 1
127 126 127 1
128 126 129 1
129 126 135 1
130 127 128 2
131 127 140 1
132 129 130 1
133 130 131 1
134 131 132 2
135 131 133 1
136 129 136 1
137 129 137 1
138 130 138 1
139 130 139 1
140 140 141 1
141 140 150 1
142 141 142 1
143 141 144 1
144 141 151 1
145 142 143 2
146 142 157 1
147 144 145 1
148 145 146 2
149 146 149 1
150 145 147 1
151 147 148 2
152 148 149 1
153 144 152 1
154 144 153 1
155 146 154 1
156 148 155 1
157 149 156 1
158 157 158 1
159 157 164 1
160 158 159 1
161 158 161 1
162 158 165 1
163 159 160 2
164 159 173 1
165 161 162 1
166 161 163 1
167 161 166 1
168 162 167 1
169 162 168 1
170 162 169 1
171 163 170 1
172 163 171 1
173 163 172 1
174 173 174 1
175 173 182 1
176 174 175 1
177 174 177 1
178 174 183 1
179 175 176 2
180 175 190 1
181 177 178 1
182 178 179 1
183 179 180 1
184 179 181 2
185 177 184 1
186 177 185 1
187 178 186 1
188 178 187 1
189 180 188 1
190 180 189 1
191 190 191 1
192 190 201 1
193 191 192 1
194 191 194 1
195 191 202 1
196 192 193 2
197 192 214 1
198 194 195 1
199 195 196 1
200 196 197 1
201 197 198 1
202 198 199 2
203 198 200 1
204 194 203 1
205 194 204 1
206 195 205 1
207 195 206 1
208 196 207 1
209 196 208 1
210 197 209 1
211 199 210 1
212 199 211 1
213 200 212 1
214 200 213 1
215 214 215 1
216 214 221 1
217 215 216 1
218 215 218 1
219 215 222 1
220 216 217 2
221 216 230 1
222 218 219 1
223 218 220 1
224 218 223 1
225 219 224 1
226 219 225 1
227 219 226 1
228 220 227 1
229 220 228 1
230 220 229 1
231 230 231 1
232 230 238 1
233 231 232 1
234 231 234 1
235 231 239 1
236 232 233 2
237 232 247 1
238 234 235 1
239 235 236 1
240 236 237 1
241 234 240 1
242 234 241 1
243 235 242 1
244 235 243 1
245 237 244 1
246 237 245 1
247 237 246 1
248 247 248 1
249 247 258 1
250 248 249 1
251 248 251 1
252 248 259 1
253 249 250 2
254 251 252 1
255 252 253 1
256 253 254 1
257 254 255 1
258 255 256 2
259 255 257 1
260 251 260 1
261 251 261 1
262 252 262 1
263 252 263 1
264 253 264 1
265 253 265 1
266 254 266 1
267 256 267 1
268 256 268 1
269 257 269 1
270 257 270 1
@<TRIPOS>SUBSTRUCTURE
1	GLU1	1	RESIDUE	1 ****	GLU
2	ASN2	16	RESIDUE	1 ****	ASN
3	LEU3	30	RESIDUE	1 ****	LEU
4	GLU4	49	RESIDUE	1 ****	GLU
5	SER5	64	RESIDUE	1 ****	SER
6	ILE6	75	RESIDUE	1 ****	ILE
7	LEU7	94	RESIDUE	1 ****	LEU
8	ASP8	113	RESIDUE	1 ****	ASP
9	GLU9	125	RESIDUE	1 ****	GLU
10	HIS10	140	RESIDUE	1 ****	HIS
11	VAL11	157	RESIDUE	1 ****	VAL
12	GLN12	173	RESIDUE	1 ****	GLN
13	ARG13	190	RESIDUE	1 ****	ARG
14	VAL14	214	RESIDUE	1 ****	VAL
15	MET15	230	RESIDUE	1 ****	MET
16	ARG16	247	RESIDUE	1 ****	ARG
