@<TRIPOS>MOLECULE
12-11
265 267 16              
SMALL
USER_CHARGES
@<TRIPOS>ATOM
1	   N	1927.493	581.406	-1982.661	N.3	1	GLU1	-0.516	
2	  CA	1928.052	582.755	-1982.661	C.3	1	GLU1	0.040	
3	   C	1929.561	582.715	-1982.661	C.2	1	GLU1	0.537	
4	   O	1930.237	583.414	-1983.430	O.2	1	GLU1	-0.582	
5	  CB	1927.529	583.540	-1981.424	C.3	1	GLU1	0.056	
6	  CG	1928.004	585.025	-1981.313	C.3	1	GLU1	0.014	
7	  CD	1927.580	585.829	-1980.098	C.2	1	GLU1	0.805	
8	 OE1	1926.852	585.327	-1979.220	O.co2	1	GLU1	-0.819	
9	 OE2	1928.010	586.999	-1980.026	O.co2	1	GLU1	-0.819	
10	   H	1928.120	580.527	-1982.661	 H	1	GLU1	0.294	
11	  HA	1927.726	583.273	-1983.581	 H	1	GLU1	0.111	
12	 2HB	1927.818	583.009	-1980.494	 H	1	GLU1	-0.017	
13	 3HB	1926.422	583.530	-1981.411	 H	1	GLU1	-0.017	
14	 2HG	1927.694	585.610	-1982.194	 H	1	GLU1	-0.043	
15	 3HG	1929.104	585.092	-1981.284	 H	1	GLU1	-0.043	
16	   N	1930.166	581.929	-1981.836	N.am	2	ASN2	-0.416	
17	  CA	1931.625	581.891	-1981.836	C.3	2	ASN2	0.014	
18	   C	1932.156	581.535	-1983.205	C.2	2	ASN2	0.597	
19	   O	1933.071	582.165	-1983.734	O.2	2	ASN2	-0.568	
20	  CB	1932.117	580.867	-1980.772	C.3	2	ASN2	-0.204	
21	  CG	1931.654	581.091	-1979.328	C.2	2	ASN2	0.713	
22	 ND2	1932.248	582.006	-1978.610	N.pl3	2	ASN2	-0.919	
23	 OD1	1930.733	580.458	-1978.834	O.2	2	ASN2	-0.593	
24	   H	1929.637	581.350	-1981.200	 H	2	ASN2	0.272	
25	  HA	1932.002	582.901	-1981.591	 H	2	ASN2	0.105	
26	 2HB	1933.221	580.808	-1980.775	 H	2	ASN2	0.080	
27	 3HB	1931.788	579.849	-1981.058	 H	2	ASN2	0.080	
28	1HD2	1931.767	582.179	-1977.724	 H	2	ASN2	0.420	
29	2HD2	1932.950	582.578	-1979.079	 H	2	ASN2	0.420	
30	   N	1931.635	580.540	-1983.839	N.am	3	PRO3	-0.255	
31	  CA	1932.086	580.131	-1985.160	C.3	3	PRO3	-0.027	
32	   C	1931.688	581.154	-1986.237	C.2	3	PRO3	0.590	
33	   O	1932.512	581.537	-1987.069	O.2	3	PRO3	-0.575	
34	  CB	1931.382	578.776	-1985.330	C.3	3	PRO3	-0.007	
35	  CG	1930.099	578.928	-1984.500	C.3	3	PRO3	0.019	
36	  CD	1930.557	579.747	-1983.290	C.3	3	PRO3	0.019	
37	  HA	1933.172	580.011	-1985.174	 H	3	PRO3	0.064	
38	 2HB	1932.005	577.995	-1984.889	 H	3	PRO3	0.025	
39	 3HB	1931.184	578.527	-1986.375	 H	3	PRO3	0.025	
40	 2HG	1929.671	577.966	-1984.208	 H	3	PRO3	0.021	
41	 3HG	1929.361	579.499	-1985.067	 H	3	PRO3	0.021	
42	 2HD	1930.946	579.097	-1982.502	 H	3	PRO3	0.039	
43	 3HD	1929.760	580.383	-1982.897	 H	3	PRO3	0.039	
44	   N	1930.484	581.614	-1986.270	N.am	4	GLU4	-0.516	
45	  CA	1930.124	582.585	-1987.299	C.3	4	GLU4	0.040	
46	   C	1931.023	583.796	-1987.238	C.2	4	GLU4	0.537	
47	   O	1931.549	584.276	-1988.253	O.2	4	GLU4	-0.582	
48	  CB	1928.635	583.004	-1987.129	C.3	4	GLU4	0.056	
49	  CG	1928.087	584.008	-1988.195	C.3	4	GLU4	0.014	
50	  CD	1926.661	584.505	-1988.051	C.2	4	GLU4	0.805	
51	 OE1	1925.934	584.106	-1987.120	O.co2	4	GLU4	-0.819	
52	 OE2	1926.271	585.334	-1988.899	O.co2	4	GLU4	-0.819	
53	   H	1929.799	581.307	-1985.593	 H	4	GLU4	0.294	
54	  HA	1930.255	582.115	-1988.290	 H	4	GLU4	0.111	
55	 2HB	1928.483	583.444	-1986.122	 H	4	GLU4	-0.017	
56	 3HB	1927.987	582.106	-1987.135	 H	4	GLU4	-0.017	
57	 2HG	1928.169	583.593	-1989.212	 H	4	GLU4	-0.043	
58	 3HG	1928.675	584.940	-1988.206	 H	4	GLU4	-0.043	
59	   N	1931.250	584.349	-1986.095	N.am	5	SER5	-0.416	
60	  CA	1932.120	585.520	-1986.036	C.3	5	SER5	-0.025	
61	   C	1933.479	585.215	-1986.622	C.2	5	SER5	0.597	
62	   O	1934.026	585.968	-1987.427	O.2	5	SER5	-0.568	
63	  CB	1932.231	586.053	-1984.586	C.3	5	SER5	0.212	
64	  OG	1932.963	585.173	-1983.725	O.3	5	SER5	-0.655	
65	   H	1930.833	583.977	-1985.253	 H	5	SER5	0.272	
66	  HA	1931.670	586.310	-1986.666	 H	5	SER5	0.084	
67	 2HB	1931.231	586.246	-1984.153	 H	5	SER5	0.035	
68	 3HB	1932.736	587.038	-1984.588	 H	5	SER5	0.035	
69	  HG	1932.474	584.348	-1983.674	 H	5	SER5	0.428	
70	   N	1934.083	584.132	-1986.268	N.am	6	ILE6	-0.416	
71	  CA	1935.397	583.837	-1986.834	C.3	6	ILE6	-0.060	
72	   C	1935.339	583.799	-1988.342	C.2	6	ILE6	0.597	
73	   O	1936.174	584.387	-1989.046	O.2	6	ILE6	-0.568	
74	  CB	1935.996	582.501	-1986.234	C.3	6	ILE6	0.130	
75	 CG1	1936.016	582.439	-1984.673	C.3	6	ILE6	-0.043	
76	 CG2	1937.438	582.199	-1986.749	C.3	6	ILE6	-0.320	
77	 CD1	1936.286	581.050	-1984.058	C.3	6	ILE6	-0.066	
78	   H	1933.655	583.497	-1985.609	 H	6	ILE6	0.272	
79	  HA	1936.071	584.671	-1986.566	 H	6	ILE6	0.087	
80	  HB	1935.339	581.675	-1986.578	 H	6	ILE6	0.019	
81	2HG1	1935.034	582.758	-1984.277	 H	6	ILE6	0.024	
82	3HG1	1936.732	583.181	-1984.268	 H	6	ILE6	0.024	
83	1HG2	1937.497	582.106	-1987.848	 H	6	ILE6	0.088	
84	2HG2	1938.160	582.982	-1986.447	 H	6	ILE6	0.088	
85	3HG2	1937.828	581.237	-1986.371	 H	6	ILE6	0.088	
86	1HD1	1935.558	580.295	-1984.413	 H	6	ILE6	0.019	
87	2HD1	1937.297	580.671	-1984.294	 H	6	ILE6	0.019	
88	3HD1	1936.210	581.079	-1982.955	 H	6	ILE6	0.019	
89	   N	1934.394	583.136	-1988.916	N.am	7	LEU7	-0.416	
90	  CA	1934.339	583.100	-1990.374	C.3	7	LEU7	-0.052	
91	   C	1934.266	584.495	-1990.947	C.2	7	LEU7	0.597	
92	   O	1934.987	584.858	-1991.888	O.2	7	LEU7	-0.568	
93	  CB	1933.136	582.239	-1990.854	C.3	7	LEU7	-0.110	
94	  CG	1933.063	580.760	-1990.388	C.3	7	LEU7	0.353	
95	 CD1	1931.873	580.054	-1991.053	C.3	7	LEU7	-0.412	
96	 CD2	1934.357	579.981	-1990.679	C.3	7	LEU7	-0.412	
97	   H	1933.702	582.649	-1988.364	 H	7	LEU7	0.272	
98	  HA	1935.281	582.660	-1990.748	 H	7	LEU7	0.092	
99	 2HB	1933.113	582.255	-1991.962	 H	7	LEU7	0.046	
100	 3HB	1932.196	582.742	-1990.550	 H	7	LEU7	0.046	
101	  HG	1932.893	580.752	-1989.291	 H	7	LEU7	-0.036	
102	1HD1	1930.916	580.563	-1990.831	 H	7	LEU7	0.100	
103	2HD1	1931.973	580.014	-1992.155	 H	7	LEU7	0.100	
104	3HD1	1931.767	579.013	-1990.698	 H	7	LEU7	0.100	
105	1HD2	1934.632	580.011	-1991.750	 H	7	LEU7	0.100	
106	2HD2	1935.210	580.393	-1990.108	 H	7	LEU7	0.100	
107	3HD2	1934.276	578.919	-1990.384	 H	7	LEU7	0.100	
108	   N	1933.429	585.335	-1990.440	N.am	8	ASP8	-0.516	
109	  CA	1933.358	586.685	-1990.993	C.3	8	ASP8	0.038	
110	   C	1934.704	587.365	-1990.936	C.2	8	ASP8	0.537	
111	   O	1935.177	587.971	-1991.911	O.2	8	ASP8	-0.582	
112	  CB	1932.280	587.524	-1990.252	C.3	8	ASP8	-0.030	
113	  CG	1932.061	588.944	-1990.792	C.2	8	ASP8	0.799	
114	 OD1	1932.125	589.144	-1992.022	O.co2	8	ASP8	-0.801	
115	 OD2	1931.868	589.870	-1989.976	O.co2	8	ASP8	-0.801	
116	   H	1932.831	585.064	-1989.673	 H	8	ASP8	0.294	
117	  HA	1933.075	586.607	-1992.061	 H	8	ASP8	0.088	
118	 2HB	1932.537	587.607	-1989.180	 H	8	ASP8	-0.012	
119	 3HB	1931.301	587.018	-1990.285	 H	8	ASP8	-0.012	
120	   N	1935.384	587.315	-1989.841	N.am	9	GLU9	-0.516	
121	  CA	1936.687	587.973	-1989.786	C.3	9	GLU9	0.040	
122	   C	1937.605	587.446	-1990.862	C.2	9	GLU9	0.537	
123	   O	1938.268	588.201	-1991.587	O.2	9	GLU9	-0.582	
124	  CB	1937.321	587.766	-1988.380	C.3	9	GLU9	0.056	
125	  CG	1938.703	588.459	-1988.151	C.3	9	GLU9	0.014	
126	  CD	1939.405	588.245	-1986.823	C.2	9	GLU9	0.805	
127	 OE1	1938.884	587.554	-1985.927	O.co2	9	GLU9	-0.819	
128	 OE2	1940.524	588.784	-1986.691	O.co2	9	GLU9	-0.819	
129	   H	1935.021	586.828	-1989.034	 H	9	GLU9	0.294	
130	  HA	1936.544	589.055	-1989.961	 H	9	GLU9	0.111	
131	 2HB	1937.434	586.681	-1988.177	 H	9	GLU9	-0.017	
132	 3HB	1936.624	588.119	-1987.596	 H	9	GLU9	-0.017	
133	 2HG	1938.631	589.549	-1988.291	 H	9	GLU9	-0.043	
134	 3HG	1939.450	588.114	-1988.885	 H	9	GLU9	-0.043	
135	   N	1937.702	586.171	-1991.031	N.am	10	HIS10	-0.416	
136	  CA	1938.590	585.660	-1992.072	C.3	10	HIS10	-0.058	
137	   C	1938.223	586.225	-1993.423	C.2	10	HIS10	0.597	
138	   O	1939.075	586.690	-1994.195	O.2	10	HIS10	-0.568	
139	  CB	1938.427	584.131	-1992.068	C.3	10	HIS10	-0.007	
140	  CG	1939.713	583.422	-1991.760	C.2	10	HIS10	0.187	
141	 CD2	1940.094	583.086	-1990.467	C.2	10	HIS10	-0.221	
142	 ND1	1940.665	583.017	-1992.693	N.2	10	HIS10	-0.543	
143	 CE1	1941.572	582.459	-1991.870	C.2	10	HIS10	0.163	
144	 NE2	1941.309	582.455	-1990.534	N.pl3	10	HIS10	-0.280	
145	   H	1937.172	585.535	-1990.453	 H	10	HIS10	0.272	
146	  HA	1939.609	586.018	-1991.847	 H	10	HIS10	0.136	
147	 2HB	1938.062	583.765	-1993.047	 H	10	HIS10	0.037	
148	 3HB	1937.672	583.794	-1991.328	 H	10	HIS10	0.037	
149	 2HD	1939.509	583.301	-1989.578	 H	10	HIS10	0.186	
150	 1HE	1942.463	582.038	-1992.317	 H	10	HIS10	0.144	
151	 2HE	1941.877	582.078	-1989.761	 H	10	HIS10	0.334	
152	   N	1936.985	586.224	-1993.786	N.am	11	VAL11	-0.416	
153	  CA	1936.629	586.770	-1995.092	C.3	11	VAL11	-0.087	
154	   C	1937.093	588.201	-1995.225	C.2	11	VAL11	0.597	
155	   O	1937.693	588.606	-1996.228	O.2	11	VAL11	-0.568	
156	  CB	1935.068	586.662	-1995.311	C.3	11	VAL11	0.299	
157	 CG1	1934.499	587.366	-1996.574	C.3	11	VAL11	-0.319	
158	 CG2	1934.544	585.208	-1995.385	C.3	11	VAL11	-0.319	
159	   H	1936.272	585.850	-1993.175	 H	11	VAL11	0.272	
160	  HA	1937.149	586.188	-1995.875	 H	11	VAL11	0.097	
161	  HB	1934.580	587.142	-1994.436	 H	11	VAL11	-0.030	
162	1HG1	1934.937	586.975	-1997.511	 H	11	VAL11	0.079	
163	2HG1	1933.400	587.258	-1996.656	 H	11	VAL11	0.079	
164	3HG1	1934.676	588.459	-1996.564	 H	11	VAL11	0.079	
165	1HG2	1934.834	584.621	-1994.495	 H	11	VAL11	0.079	
166	2HG2	1933.438	585.170	-1995.427	 H	11	VAL11	0.079	
167	3HG2	1934.926	584.667	-1996.271	 H	11	VAL11	0.079	
168	   N	1936.855	589.026	-1994.262	N.am	12	HIS12	-0.416	
169	  CA	1937.303	590.410	-1994.389	C.3	12	HIS12	-0.058	
170	   C	1938.792	590.478	-1994.627	C.2	12	HIS12	0.597	
171	   O	1939.284	591.193	-1995.513	O.2	12	HIS12	-0.568	
172	  CB	1936.939	591.105	-1993.066	C.3	12	HIS12	-0.007	
173	  CG	1935.989	592.249	-1993.266	C.2	12	HIS12	0.187	
174	 CD2	1934.610	592.096	-1993.220	C.2	12	HIS12	-0.221	
175	 ND1	1936.346	593.573	-1993.516	N.2	12	HIS12	-0.543	
176	 CE1	1935.124	594.128	-1993.608	C.2	12	HIS12	0.163	
177	 NE2	1934.040	593.323	-1993.443	N.pl3	12	HIS12	-0.280	
178	   H	1936.367	588.719	-1993.433	 H	12	HIS12	0.272	
179	  HA	1936.820	590.837	-1995.284	 H	12	HIS12	0.136	
180	 2HB	1937.842	591.497	-1992.558	 H	12	HIS12	0.037	
181	 3HB	1936.474	590.405	-1992.340	 H	12	HIS12	0.037	
182	 2HD	1934.101	591.154	-1993.038	 H	12	HIS12	0.186	
183	 1HE	1935.070	595.191	-1993.806	 H	12	HIS12	0.144	
184	 2HE	1933.039	593.566	-1993.476	 H	12	HIS12	0.334	
185	   N	1939.577	589.771	-1993.886	N.am	13	ARG13	-0.348	
186	  CA	1941.017	589.838	-1994.117	C.3	13	ARG13	-0.264	
187	   C	1941.354	589.467	-1995.542	C.2	13	ARG13	0.734	
188	   O	1942.122	590.139	-1996.226	O.2	13	ARG13	-0.589	
189	  CB	1941.731	588.898	-1993.104	C.3	13	ARG13	-0.001	
190	  CG	1943.276	589.052	-1993.022	C.3	13	ARG13	0.039	
191	  CD	1943.903	588.064	-1992.025	C.3	13	ARG13	0.049	
192	  NE	1945.380	588.271	-1991.975	N.pl3	13	ARG13	-0.530	
193	  CZ	1946.228	587.580	-1991.220	C.cat	13	ARG13	0.808	
194	 NH1	1945.863	586.615	-1990.423	N.pl3	13	ARG13	-0.863	
195	 NH2	1947.488	587.879	-1991.276	N.pl3	13	ARG13	-0.863	
196	   H	1939.201	589.181	-1993.158	 H	13	ARG13	0.275	
197	  HA	1941.341	590.884	-1993.958	 H	13	ARG13	0.156	
198	 2HB	1941.465	587.848	-1993.343	 H	13	ARG13	0.033	
199	 3HB	1941.306	589.065	-1992.093	 H	13	ARG13	0.033	
200	 2HG	1943.524	590.097	-1992.743	 H	13	ARG13	0.029	
201	 3HG	1943.726	588.896	-1994.024	 H	13	ARG13	0.029	
202	 2HD	1943.659	587.024	-1992.335	 H	13	ARG13	0.069	
203	 3HD	1943.446	588.209	-1991.023	 H	13	ARG13	0.069	
204	  HE	1945.831	588.994	-1992.545	 H	13	ARG13	0.346	
205	1HH1	1944.858	586.429	-1990.426	 H	13	ARG13	0.448	
206	2HH1	1946.577	586.132	-1989.874	 H	13	ARG13	0.448	
207	1HH2	1947.755	588.637	-1991.907	 H	13	ARG13	0.448	
208	2HH2	1948.123	587.338	-1990.688	 H	13	ARG13	0.448	
209	   N	1940.818	588.412	-1996.057	N.am	14	VAL14	-0.416	
210	  CA	1941.142	588.053	-1997.435	C.3	14	VAL14	-0.087	
211	   C	1940.812	589.183	-1998.380	C.2	14	VAL14	0.597	
212	   O	1941.605	589.565	-1999.250	O.2	14	VAL14	-0.568	
213	  CB	1940.370	586.736	-1997.842	C.3	14	VAL14	0.299	
214	 CG1	1940.459	586.318	-1999.335	C.3	14	VAL14	-0.319	
215	 CG2	1940.802	585.484	-1997.042	C.3	14	VAL14	-0.319	
216	   H	1940.183	587.844	-1995.515	 H	14	VAL14	0.272	
217	  HA	1942.230	587.877	-1997.509	 H	14	VAL14	0.097	
218	  HB	1939.294	586.907	-1997.626	 H	14	VAL14	-0.030	
219	1HG1	1941.500	586.141	-1999.664	 H	14	VAL14	0.079	
220	2HG1	1939.886	585.395	-1999.548	 H	14	VAL14	0.079	
221	3HG1	1940.030	587.080	-2000.013	 H	14	VAL14	0.079	
222	1HG2	1940.715	585.642	-1995.951	 H	14	VAL14	0.079	
223	2HG2	1940.167	584.607	-1997.274	 H	14	VAL14	0.079	
224	3HG2	1941.850	585.194	-1997.247	 H	14	VAL14	0.079	
225	   N	1939.667	589.769	-1998.278	N.am	15	MET15	-0.416	
226	  CA	1939.347	590.862	-1999.192	C.3	15	MET15	-0.024	
227	   C	1940.377	591.962	-1999.104	C.2	15	MET15	0.597	
228	   O	1940.879	592.473	-2000.116	O.2	15	MET15	-0.568	
229	  CB	1937.925	591.407	-1998.882	C.3	15	MET15	0.034	
230	  CG	1936.763	590.409	-1999.074	C.3	15	MET15	0.002	
231	  SD	1935.189	591.275	-1998.960	S.3	15	MET15	-0.274	
232	  CE	1934.108	589.845	-1998.823	C.3	15	MET15	-0.054	
233	   H	1939.002	589.476	-1997.577	 H	15	MET15	0.272	
234	  HA	1939.372	590.475	-2000.227	 H	15	MET15	0.088	
235	 2HB	1937.723	592.286	-1999.524	 H	15	MET15	0.024	
236	 3HB	1937.890	591.800	-1997.846	 H	15	MET15	0.024	
237	 2HG	1936.806	589.623	-1998.297	 H	15	MET15	0.044	
238	 3HG	1936.826	589.894	-2000.051	 H	15	MET15	0.044	
239	 1HE	1934.252	589.157	-1999.676	 H	15	MET15	0.068	
240	 2HE	1934.318	589.292	-1997.891	 H	15	MET15	0.068	
241	 3HE	1933.050	590.160	-1998.806	 H	15	MET15	0.068	
242	   N	1940.745	592.383	-1997.941	N.am	16	ARG16	-0.348	
243	  CA	1941.742	593.447	-1997.858	C.3	16	ARG16	-0.264	
244	   C	1943.012	593.054	-1998.574	C.2	16	ARG16	0.734	
245	   O	1943.126	591.978	-1999.156	O.2	16	ARG16	-0.589	
246	  CB	1942.011	593.764	-1996.359	C.3	16	ARG16	-0.001	
247	  CG	1942.836	595.054	-1996.086	C.3	16	ARG16	0.039	
248	  CD	1943.085	595.273	-1994.585	C.3	16	ARG16	0.049	
249	  NE	1943.861	596.532	-1994.384	N.pl3	16	ARG16	-0.530	
250	  CZ	1944.253	597.014	-1993.208	C.cat	16	ARG16	0.808	
251	 NH1	1944.005	596.430	-1992.070	N.pl3	16	ARG16	-0.863	
252	 NH2	1944.917	598.127	-1993.190	N.pl3	16	ARG16	-0.863	
253	   H	1940.351	591.983	-1997.102	 H	16	ARG16	0.275	
254	  HA	1941.332	594.340	-1998.367	 H	16	ARG16	0.156	
255	 2HB	1942.508	592.889	-1995.893	 H	16	ARG16	0.033	
256	 3HB	1941.042	593.845	-1995.825	 H	16	ARG16	0.033	
257	 2HG	1942.305	595.924	-1996.523	 H	16	ARG16	0.029	
258	 3HG	1943.809	595.001	-1996.615	 H	16	ARG16	0.029	
259	 2HD	1943.634	594.398	-1994.172	 H	16	ARG16	0.069	
260	 3HD	1942.113	595.315	-1994.050	 H	16	ARG16	0.069	
261	  HE	1944.140	597.113	-1995.181	 H	16	ARG16	0.346	
262	1HH1	1943.480	595.556	-1992.154	 H	16	ARG16	0.448	
263	2HH1	1944.340	596.865	-1991.209	 H	16	ARG16	0.448	
264	1HH2	1945.102	598.570	-1994.091	 H	16	ARG16	0.448	
265	2HH2	1945.207	598.482	-1992.277	 H	16	ARG16	0.448	
@<TRIPOS>BOND
1 1 2 1
2 1 10 1
3 2 3 1
4 2 5 1
5 2 11 1
6 3 4 2
7 3 16 1
8 5 6 1
9 6 7 1
10 7 8 2
11 7 9 1
12 5 12 1
13 5 13 1
14 6 14 1
15 6 15 1
16 16 17 1
17 16 24 1
18 17 18 1
19 17 20 1
20 17 25 1
21 18 19 2
22 18 30 1
23 20 21 1
24 21 22 1
25 21 23 2
26 20 26 1
27 20 27 1
28 22 28 1
29 22 29 1
30 30 31 1
31 30 36 1
32 31 32 1
33 31 34 1
34 31 37 1
35 32 33 2
36 32 44 1
37 34 35 1
38 35 36 1
39 34 38 1
40 34 39 1
41 35 40 1
42 35 41 1
43 36 42 1
44 36 43 1
45 44 45 1
46 44 53 1
47 45 46 1
48 45 48 1
49 45 54 1
50 46 47 2
51 46 59 1
52 48 49 1
53 49 50 1
54 50 51 2
55 50 52 1
56 48 55 1
57 48 56 1
58 49 57 1
59 49 58 1
60 59 60 1
61 59 65 1
62 60 61 1
63 60 63 1
64 60 66 1
65 61 62 2
66 61 70 1
67 63 64 1
68 63 67 1
69 63 68 1
70 64 69 1
71 70 71 1
72 70 78 1
73 71 72 1
74 71 74 1
75 71 79 1
76 72 73 2
77 72 89 1
78 74 75 1
79 74 76 1
80 75 77 1
81 74 80 1
82 75 81 1
83 75 82 1
84 76 83 1
85 76 84 1
86 76 85 1
87 77 86 1
88 77 87 1
89 77 88 1
90 89 90 1
91 89 97 1
92 90 91 1
93 90 93 1
94 90 98 1
95 91 92 2
96 91 108 1
97 93 94 1
98 94 95 1
99 94 96 1
100 93 99 1
101 93 100 1
102 94 101 1
103 95 102 1
104 95 103 1
105 95 104 1
106 96 105 1
107 96 106 1
108 96 107 1
109 108 109 1
110 108 116 1
111 109 110 1
112 109 112 1
113 109 117 1
114 110 111 2
115 110 120 1
116 112 113 1
117 113 114 2
118 113 115 1
119 112 118 1
120 112 119 1
121 120 121 1
122 120 129 1
123 121 122 1
124 121 124 1
125 121 130 1
126 122 123 2
127 122 135 1
128 124 125 1
129 125 126 1
130 126 127 2
131 126 128 1
132 124 131 1
133 124 132 1
134 125 133 1
135 125 134 1
136 135 136 1
137 135 145 1
138 136 137 1
139 136 139 1
140 136 146 1
141 137 138 2
142 137 152 1
143 139 140 1
144 140 141 2
145 141 144 1
146 140 142 1
147 142 143 2
148 143 144 1
149 139 147 1
150 139 148 1
151 141 149 1
152 143 150 1
153 144 151 1
154 152 153 1
155 152 159 1
156 153 154 1
157 153 156 1
158 153 160 1
159 154 155 2
160 154 168 1
161 156 157 1
162 156 158 1
163 156 161 1
164 157 162 1
165 157 163 1
166 157 164 1
167 158 165 1
168 158 166 1
169 158 167 1
170 168 169 1
171 168 178 1
172 169 170 1
173 169 172 1
174 169 179 1
175 170 171 2
176 170 185 1
177 172 173 1
178 173 174 2
179 174 177 1
180 173 175 1
181 175 176 2
182 176 177 1
183 172 180 1
184 172 181 1
185 174 182 1
186 176 183 1
187 177 184 1
188 185 186 1
189 185 196 1
190 186 187 1
191 186 189 1
192 186 197 1
193 187 188 2
194 187 209 1
195 189 190 1
196 190 191 1
197 191 192 1
198 192 193 1
199 193 194 2
200 193 195 1
201 189 198 1
202 189 199 1
203 190 200 1
204 190 201 1
205 191 202 1
206 191 203 1
207 192 204 1
208 194 205 1
209 194 206 1
210 195 207 1
211 195 208 1
212 209 210 1
213 209 216 1
214 210 211 1
215 210 213 1
216 210 217 1
217 211 212 2
218 211 225 1
219 213 214 1
220 213 215 1
221 213 218 1
222 214 219 1
223 214 220 1
224 214 221 1
225 215 222 1
226 215 223 1
227 215 224 1
228 225 226 1
229 225 233 1
230 226 227 1
231 226 229 1
232 226 234 1
233 227 228 2
234 227 242 1
235 229 230 1
236 230 231 1
237 231 232 1
238 229 235 1
239 229 236 1
240 230 237 1
241 230 238 1
242 232 239 1
243 232 240 1
244 232 241 1
245 242 243 1
246 242 253 1
247 243 244 1
248 243 246 1
249 243 254 1
250 244 245 2
251 246 247 1
252 247 248 1
253 248 249 1
254 249 250 1
255 250 251 2
256 250 252 1
257 246 255 1
258 246 256 1
259 247 257 1
260 247 258 1
261 248 259 1
262 248 260 1
263 249 261 1
264 251 262 1
265 251 263 1
266 252 264 1
267 252 265 1
@<TRIPOS>SUBSTRUCTURE
1	GLU1	1	RESIDUE	1 ****	GLU
2	ASN2	16	RESIDUE	1 ****	ASN
3	PRO3	30	RESIDUE	1 ****	PRO
4	GLU4	44	RESIDUE	1 ****	GLU
5	SER5	59	RESIDUE	1 ****	SER
6	ILE6	70	RESIDUE	1 ****	ILE
7	LEU7	89	RESIDUE	1 ****	LEU
8	ASP8	108	RESIDUE	1 ****	ASP
9	GLU9	120	RESIDUE	1 ****	GLU
10	HIS10	135	RESIDUE	1 ****	HIS
11	VAL11	152	RESIDUE	1 ****	VAL
12	HIS12	168	RESIDUE	1 ****	HIS
13	ARG13	185	RESIDUE	1 ****	ARG
14	VAL14	209	RESIDUE	1 ****	VAL
15	MET15	225	RESIDUE	1 ****	MET
16	ARG16	242	RESIDUE	1 ****	ARG
