@<TRIPOS>MOLECULE
12-19
270 271 16              
SMALL
USER_CHARGES
@<TRIPOS>ATOM
1	   N	1993.348	602.116	-2053.850	N.3	1	GLU1	-0.516	
2	  CA	1993.907	603.465	-2053.850	C.3	1	GLU1	0.040	
3	   C	1995.416	603.425	-2053.850	C.2	1	GLU1	0.537	
4	   O	1996.092	604.124	-2054.619	O.2	1	GLU1	-0.582	
5	  CB	1993.384	604.250	-2052.614	C.3	1	GLU1	0.056	
6	  CG	1993.859	605.735	-2052.502	C.3	1	GLU1	0.014	
7	  CD	1993.435	606.539	-2051.287	C.2	1	GLU1	0.805	
8	 OE1	1992.707	606.037	-2050.409	O.co2	1	GLU1	-0.819	
9	 OE2	1993.865	607.709	-2051.215	O.co2	1	GLU1	-0.819	
10	   H	1993.975	601.237	-2053.850	 H	1	GLU1	0.294	
11	  HA	1993.581	603.983	-2054.771	 H	1	GLU1	0.111	
12	 2HB	1993.673	603.719	-2051.683	 H	1	GLU1	-0.017	
13	 3HB	1992.277	604.240	-2052.600	 H	1	GLU1	-0.017	
14	 2HG	1993.549	606.320	-2053.383	 H	1	GLU1	-0.043	
15	 3HG	1994.959	605.802	-2052.473	 H	1	GLU1	-0.043	
16	   N	1996.021	602.639	-2053.025	N.am	2	ASN2	-0.416	
17	  CA	1997.480	602.600	-2053.025	C.3	2	ASN2	0.014	
18	   C	1998.011	602.245	-2054.394	C.2	2	ASN2	0.597	
19	   O	1998.927	602.875	-2054.923	O.2	2	ASN2	-0.568	
20	  CB	1997.972	601.578	-2051.961	C.3	2	ASN2	-0.204	
21	  CG	1997.509	601.801	-2050.517	C.2	2	ASN2	0.713	
22	 ND2	1998.103	602.716	-2049.799	N.pl3	2	ASN2	-0.919	
23	 OD1	1996.588	601.168	-2050.023	O.2	2	ASN2	-0.593	
24	   H	1995.493	602.060	-2052.389	 H	2	ASN2	0.272	
25	  HA	1997.858	603.610	-2052.780	 H	2	ASN2	0.105	
26	 2HB	1999.077	601.519	-2051.964	 H	2	ASN2	0.080	
27	 3HB	1997.643	600.559	-2052.247	 H	2	ASN2	0.080	
28	1HD2	1997.623	602.889	-2048.913	 H	2	ASN2	0.420	
29	2HD2	1998.805	603.288	-2050.269	 H	2	ASN2	0.420	
30	   N	1997.490	601.250	-2055.028	N.am	3	PRO3	-0.255	
31	  CA	1997.942	600.841	-2056.349	C.3	3	PRO3	-0.027	
32	   C	1997.544	601.864	-2057.426	C.2	3	PRO3	0.590	
33	   O	1998.367	602.247	-2058.258	O.2	3	PRO3	-0.575	
34	  CB	1997.238	599.486	-2056.519	C.3	3	PRO3	-0.007	
35	  CG	1995.954	599.638	-2055.688	C.3	3	PRO3	0.019	
36	  CD	1996.412	600.457	-2054.479	C.3	3	PRO3	0.019	
37	  HA	1999.027	600.721	-2056.363	 H	3	PRO3	0.064	
38	 2HB	1997.860	598.705	-2056.078	 H	3	PRO3	0.025	
39	 3HB	1997.039	599.237	-2057.564	 H	3	PRO3	0.025	
40	 2HG	1995.526	598.676	-2055.397	 H	3	PRO3	0.021	
41	 3HG	1995.217	600.209	-2056.256	 H	3	PRO3	0.021	
42	 2HD	1996.801	599.807	-2053.691	 H	3	PRO3	0.039	
43	 3HD	1995.615	601.093	-2054.086	 H	3	PRO3	0.039	
44	   N	1996.339	602.324	-2057.459	N.am	4	GLU4	-0.516	
45	  CA	1995.979	603.295	-2058.489	C.3	4	GLU4	0.040	
46	   C	1996.878	604.506	-2058.428	C.2	4	GLU4	0.537	
47	   O	1997.405	604.985	-2059.442	O.2	4	GLU4	-0.582	
48	  CB	1994.490	603.713	-2058.319	C.3	4	GLU4	0.056	
49	  CG	1993.943	604.716	-2059.385	C.3	4	GLU4	0.014	
50	  CD	1992.516	605.213	-2059.241	C.2	4	GLU4	0.805	
51	 OE1	1991.790	604.815	-2058.310	O.co2	4	GLU4	-0.819	
52	 OE2	1992.126	606.042	-2060.090	O.co2	4	GLU4	-0.819	
53	   H	1995.654	602.017	-2056.782	 H	4	GLU4	0.294	
54	  HA	1996.110	602.824	-2059.480	 H	4	GLU4	0.111	
55	 2HB	1994.338	604.154	-2057.312	 H	4	GLU4	-0.017	
56	 3HB	1993.843	602.816	-2058.325	 H	4	GLU4	-0.017	
57	 2HG	1994.024	604.302	-2060.402	 H	4	GLU4	-0.043	
58	 3HG	1994.530	605.649	-2059.396	 H	4	GLU4	-0.043	
59	   N	1997.105	605.058	-2057.285	N.am	5	SER5	-0.416	
60	  CA	1997.975	606.229	-2057.226	C.3	5	SER5	-0.025	
61	   C	1999.334	605.924	-2057.812	C.2	5	SER5	0.597	
62	   O	1999.881	606.677	-2058.617	O.2	5	SER5	-0.568	
63	  CB	1998.087	606.762	-2055.776	C.3	5	SER5	0.212	
64	  OG	1998.818	605.882	-2054.915	O.3	5	SER5	-0.655	
65	   H	1996.688	604.687	-2056.443	 H	5	SER5	0.272	
66	  HA	1997.526	607.020	-2057.855	 H	5	SER5	0.084	
67	 2HB	1997.087	606.956	-2055.342	 H	5	SER5	0.035	
68	 3HB	1998.592	607.747	-2055.778	 H	5	SER5	0.035	
69	  HG	1998.329	605.057	-2054.864	 H	5	SER5	0.428	
70	   N	1999.938	604.840	-2057.458	N.am	6	ILE6	-0.416	
71	  CA	2001.251	604.545	-2058.024	C.3	6	ILE6	-0.060	
72	   C	2001.194	604.508	-2059.532	C.2	6	ILE6	0.597	
73	   O	2002.030	605.096	-2060.235	O.2	6	ILE6	-0.568	
74	  CB	2001.851	603.208	-2057.424	C.3	6	ILE6	0.130	
75	 CG1	2001.870	603.146	-2055.863	C.3	6	ILE6	-0.043	
76	 CG2	2003.292	602.906	-2057.939	C.3	6	ILE6	-0.320	
77	 CD1	2002.139	601.757	-2055.248	C.3	6	ILE6	-0.066	
78	   H	1999.510	604.206	-2056.799	 H	6	ILE6	0.272	
79	  HA	2001.926	605.379	-2057.756	 H	6	ILE6	0.087	
80	  HB	2001.192	602.383	-2057.768	 H	6	ILE6	0.019	
81	2HG1	2000.888	603.466	-2055.467	 H	6	ILE6	0.024	
82	3HG1	2002.586	603.888	-2055.458	 H	6	ILE6	0.024	
83	1HG2	2003.351	602.813	-2059.038	 H	6	ILE6	0.088	
84	2HG2	2004.014	603.688	-2057.637	 H	6	ILE6	0.088	
85	3HG2	2003.682	601.944	-2057.561	 H	6	ILE6	0.088	
86	1HD1	2001.411	601.003	-2055.603	 H	6	ILE6	0.019	
87	2HD1	2003.150	601.378	-2055.484	 H	6	ILE6	0.019	
88	3HD1	2002.063	601.786	-2054.146	 H	6	ILE6	0.019	
89	   N	2000.249	603.845	-2060.106	N.am	7	LEU7	-0.416	
90	  CA	2000.194	603.810	-2061.565	C.3	7	LEU7	-0.052	
91	   C	2000.122	605.205	-2062.136	C.2	7	LEU7	0.597	
92	   O	2000.844	605.568	-2063.078	O.2	7	LEU7	-0.568	
93	  CB	1998.991	602.950	-2062.045	C.3	7	LEU7	-0.110	
94	  CG	1998.917	601.470	-2061.579	C.3	7	LEU7	0.353	
95	 CD1	1997.727	600.765	-2062.246	C.3	7	LEU7	-0.412	
96	 CD2	2000.211	600.691	-2061.871	C.3	7	LEU7	-0.412	
97	   H	1999.556	603.358	-2059.555	 H	7	LEU7	0.272	
98	  HA	2001.136	603.369	-2061.938	 H	7	LEU7	0.092	
99	 2HB	1998.968	602.966	-2063.153	 H	7	LEU7	0.046	
100	 3HB	1998.051	603.453	-2061.741	 H	7	LEU7	0.046	
101	  HG	1998.747	601.462	-2060.482	 H	7	LEU7	-0.036	
102	1HD1	1996.770	601.275	-2062.023	 H	7	LEU7	0.100	
103	2HD1	1997.827	600.725	-2063.347	 H	7	LEU7	0.100	
104	3HD1	1997.620	599.724	-2061.890	 H	7	LEU7	0.100	
105	1HD2	2000.486	600.721	-2062.941	 H	7	LEU7	0.100	
106	2HD2	2001.064	601.102	-2061.299	 H	7	LEU7	0.100	
107	3HD2	2000.129	599.628	-2061.575	 H	7	LEU7	0.100	
108	   N	1999.285	606.046	-2061.630	N.am	8	ASP8	-0.516	
109	  CA	1999.215	607.395	-2062.183	C.3	8	ASP8	0.038	
110	   C	2000.562	608.075	-2062.125	C.2	8	ASP8	0.537	
111	   O	2001.036	608.681	-2063.099	O.2	8	ASP8	-0.582	
112	  CB	1998.137	608.234	-2061.441	C.3	8	ASP8	-0.030	
113	  CG	1997.919	609.655	-2061.980	C.2	8	ASP8	0.799	
114	 OD1	1997.983	609.855	-2063.211	O.co2	8	ASP8	-0.801	
115	 OD2	1997.727	610.581	-2061.165	O.co2	8	ASP8	-0.801	
116	   H	1998.687	605.774	-2060.863	 H	8	ASP8	0.294	
117	  HA	1998.933	607.318	-2063.250	 H	8	ASP8	0.088	
118	 2HB	1998.394	608.317	-2060.369	 H	8	ASP8	-0.012	
119	 3HB	1997.158	607.730	-2061.474	 H	8	ASP8	-0.012	
120	   N	2001.241	608.024	-2061.029	N.am	9	GLU9	-0.516	
121	  CA	2002.544	608.681	-2060.973	C.3	9	GLU9	0.040	
122	   C	2003.463	608.154	-2062.049	C.2	9	GLU9	0.537	
123	   O	2004.127	608.909	-2062.773	O.2	9	GLU9	-0.582	
124	  CB	2003.177	608.473	-2059.567	C.3	9	GLU9	0.056	
125	  CG	2004.560	609.164	-2059.337	C.3	9	GLU9	0.014	
126	  CD	2005.261	608.950	-2058.008	C.2	9	GLU9	0.805	
127	 OE1	2004.739	608.258	-2057.113	O.co2	9	GLU9	-0.819	
128	 OE2	2006.380	609.487	-2057.876	O.co2	9	GLU9	-0.819	
129	   H	2000.878	607.537	-2060.222	 H	9	GLU9	0.294	
130	  HA	2002.402	609.763	-2061.147	 H	9	GLU9	0.111	
131	 2HB	2003.290	607.388	-2059.365	 H	9	GLU9	-0.017	
132	 3HB	2002.480	608.825	-2058.783	 H	9	GLU9	-0.017	
133	 2HG	2004.488	610.255	-2059.476	 H	9	GLU9	-0.043	
134	 3HG	2005.307	608.820	-2060.071	 H	9	GLU9	-0.043	
135	   N	2003.559	606.879	-2062.219	N.am	10	HIS10	-0.416	
136	  CA	2004.447	606.368	-2063.260	C.3	10	HIS10	-0.058	
137	   C	2004.081	606.934	-2064.610	C.2	10	HIS10	0.597	
138	   O	2004.934	607.399	-2065.382	O.2	10	HIS10	-0.568	
139	  CB	2004.283	604.839	-2063.256	C.3	10	HIS10	-0.007	
140	  CG	2005.568	604.129	-2062.948	C.2	10	HIS10	0.187	
141	 CD2	2005.948	603.793	-2061.655	C.2	10	HIS10	-0.221	
142	 ND1	2006.520	603.723	-2063.880	N.2	10	HIS10	-0.543	
143	 CE1	2007.427	603.164	-2063.057	C.2	10	HIS10	0.163	
144	 NE2	2007.163	603.161	-2061.722	N.pl3	10	HIS10	-0.280	
145	   H	2003.028	606.243	-2061.641	 H	10	HIS10	0.272	
146	  HA	2005.466	606.725	-2063.034	 H	10	HIS10	0.136	
147	 2HB	2003.918	604.473	-2064.236	 H	10	HIS10	0.037	
148	 3HB	2003.527	604.502	-2062.516	 H	10	HIS10	0.037	
149	 2HD	2005.363	604.007	-2060.766	 H	10	HIS10	0.186	
150	 1HE	2008.318	602.743	-2063.504	 H	10	HIS10	0.144	
151	 2HE	2007.730	602.783	-2060.948	 H	10	HIS10	0.334	
152	   N	2002.843	606.934	-2064.974	N.am	11	VAL11	-0.416	
153	  CA	2002.488	607.481	-2066.280	C.3	11	VAL11	-0.087	
154	   C	2002.953	608.911	-2066.411	C.2	11	VAL11	0.597	
155	   O	2003.555	609.317	-2067.414	O.2	11	VAL11	-0.568	
156	  CB	2000.927	607.374	-2066.500	C.3	11	VAL11	0.299	
157	 CG1	2000.359	608.080	-2067.762	C.3	11	VAL11	-0.319	
158	 CG2	2000.402	605.920	-2066.574	C.3	11	VAL11	-0.319	
159	   H	2002.130	606.560	-2064.364	 H	11	VAL11	0.272	
160	  HA	2003.008	606.899	-2067.063	 H	11	VAL11	0.097	
161	  HB	2000.439	607.854	-2065.625	 H	11	VAL11	-0.030	
162	1HG1	2000.798	607.688	-2068.700	 H	11	VAL11	0.079	
163	2HG1	1999.260	607.973	-2067.845	 H	11	VAL11	0.079	
164	3HG1	2000.537	609.172	-2067.752	 H	11	VAL11	0.079	
165	1HG2	2000.692	605.333	-2065.684	 H	11	VAL11	0.079	
166	2HG2	1999.297	605.884	-2066.618	 H	11	VAL11	0.079	
167	3HG2	2000.784	605.380	-2067.461	 H	11	VAL11	0.079	
168	   N	2002.716	609.736	-2065.448	N.am	12	LYS12	-0.348	
169	  CA	2003.165	611.120	-2065.574	C.3	12	LYS12	-0.240	
170	   C	2004.655	611.186	-2065.811	C.2	12	LYS12	0.734	
171	   O	2005.148	611.900	-2066.696	O.2	12	LYS12	-0.589	
172	  CB	2002.770	611.909	-2064.296	C.3	12	LYS12	-0.009	
173	  CG	2003.136	613.413	-2064.363	C.3	12	LYS12	0.019	
174	  CD	2002.821	614.210	-2063.094	C.3	12	LYS12	-0.048	
175	  CE	2003.299	615.657	-2063.273	C.3	12	LYS12	-0.014	
176	  NZ	2002.846	616.468	-2062.130	N.4	12	LYS12	-0.385	
177	   H	2002.227	609.429	-2064.620	 H	12	LYS12	0.275	
178	  HA	2002.668	611.570	-2066.454	 H	12	LYS12	0.143	
179	 2HB	2003.247	611.444	-2063.408	 H	12	LYS12	0.036	
180	 3HB	2001.680	611.810	-2064.118	 H	12	LYS12	0.036	
181	 2HG	2002.636	613.878	-2065.235	 H	12	LYS12	0.010	
182	 3HG	2004.220	613.534	-2064.545	 H	12	LYS12	0.010	
183	 2HD	2003.326	613.745	-2062.223	 H	12	LYS12	0.062	
184	 3HD	2001.734	614.166	-2062.884	 H	12	LYS12	0.062	
185	 2HE	2002.909	616.093	-2064.216	 H	12	LYS12	0.113	
186	 3HE	2004.406	615.692	-2063.358	 H	12	LYS12	0.113	
187	 1HZ	2002.886	615.922	-2061.260	 H	12	LYS12	0.340	
188	 2HZ	2003.454	617.280	-2061.984	 H	12	LYS12	0.340	
189	 3HZ	2001.902	616.758	-2062.343	 H	12	LYS12	0.340	
190	   N	2005.438	610.478	-2065.070	N.am	13	ARG13	-0.348	
191	  CA	2006.879	610.542	-2065.300	C.3	13	ARG13	-0.264	
192	   C	2007.216	610.172	-2066.725	C.2	13	ARG13	0.734	
193	   O	2007.986	610.843	-2067.407	O.2	13	ARG13	-0.589	
194	  CB	2007.590	609.602	-2064.286	C.3	13	ARG13	-0.001	
195	  CG	2009.135	609.753	-2064.203	C.3	13	ARG13	0.039	
196	  CD	2009.760	608.764	-2063.206	C.3	13	ARG13	0.049	
197	  NE	2011.237	608.970	-2063.153	N.pl3	13	ARG13	-0.530	
198	  CZ	2012.084	608.277	-2062.398	C.cat	13	ARG13	0.808	
199	 NH1	2011.717	607.312	-2061.602	N.pl3	13	ARG13	-0.863	
200	 NH2	2013.344	608.574	-2062.454	N.pl3	13	ARG13	-0.863	
201	   H	2005.060	609.888	-2064.343	 H	13	ARG13	0.275	
202	  HA	2007.204	611.588	-2065.140	 H	13	ARG13	0.156	
203	 2HB	2007.323	608.552	-2064.526	 H	13	ARG13	0.033	
204	 3HB	2007.164	609.768	-2063.275	 H	13	ARG13	0.033	
205	 2HG	2009.384	610.797	-2063.923	 H	13	ARG13	0.029	
206	 3HG	2009.586	609.597	-2065.204	 H	13	ARG13	0.029	
207	 2HD	2009.515	607.724	-2063.516	 H	13	ARG13	0.069	
208	 3HD	2009.303	608.909	-2062.203	 H	13	ARG13	0.069	
209	  HE	2011.690	609.692	-2063.723	 H	13	ARG13	0.346	
210	1HH1	2010.711	607.127	-2061.606	 H	13	ARG13	0.448	
211	2HH1	2012.429	606.828	-2061.053	 H	13	ARG13	0.448	
212	1HH2	2013.613	609.332	-2063.083	 H	13	ARG13	0.448	
213	2HH2	2013.978	608.032	-2061.865	 H	13	ARG13	0.448	
214	   N	2006.679	609.118	-2067.241	N.am	14	VAL14	-0.416	
215	  CA	2007.005	608.760	-2068.618	C.3	14	VAL14	-0.087	
216	   C	2006.677	609.891	-2069.563	C.2	14	VAL14	0.597	
217	   O	2007.472	610.273	-2070.431	O.2	14	VAL14	-0.568	
218	  CB	2006.232	607.444	-2069.027	C.3	14	VAL14	0.299	
219	 CG1	2006.322	607.027	-2070.521	C.3	14	VAL14	-0.319	
220	 CG2	2006.661	606.191	-2068.228	C.3	14	VAL14	-0.319	
221	   H	2006.043	608.550	-2066.700	 H	14	VAL14	0.272	
222	  HA	2008.093	608.582	-2068.692	 H	14	VAL14	0.097	
223	  HB	2005.155	607.616	-2068.812	 H	14	VAL14	-0.030	
224	1HG1	2007.364	606.849	-2070.849	 H	14	VAL14	0.079	
225	2HG1	2005.748	606.105	-2070.736	 H	14	VAL14	0.079	
226	3HG1	2005.895	607.791	-2071.199	 H	14	VAL14	0.079	
227	1HG2	2006.573	606.348	-2067.137	 H	14	VAL14	0.079	
228	2HG2	2006.025	605.315	-2068.462	 H	14	VAL14	0.079	
229	3HG2	2007.709	605.900	-2068.433	 H	14	VAL14	0.079	
230	   N	2005.533	610.478	-2069.462	N.am	15	MET15	-0.416	
231	  CA	2005.215	611.572	-2070.375	C.3	15	MET15	-0.024	
232	   C	2006.246	612.671	-2070.285	C.2	15	MET15	0.597	
233	   O	2006.751	613.182	-2071.296	O.2	15	MET15	-0.568	
234	  CB	2003.794	612.119	-2070.067	C.3	15	MET15	0.034	
235	  CG	2002.631	611.122	-2070.261	C.3	15	MET15	0.002	
236	  SD	2001.058	611.990	-2070.148	S.3	15	MET15	-0.274	
237	  CE	1999.975	610.561	-2070.014	C.3	15	MET15	-0.054	
238	   H	2004.867	610.185	-2068.762	 H	15	MET15	0.272	
239	  HA	2005.242	611.186	-2071.411	 H	15	MET15	0.088	
240	 2HB	2003.593	612.999	-2070.709	 H	15	MET15	0.024	
241	 3HB	2003.757	612.510	-2069.031	 H	15	MET15	0.024	
242	 2HG	2002.672	610.336	-2069.484	 H	15	MET15	0.044	
243	 3HG	2002.695	610.608	-2071.238	 H	15	MET15	0.044	
244	 1HE	2000.119	609.873	-2070.867	 H	15	MET15	0.068	
245	 2HE	2000.183	610.007	-2069.082	 H	15	MET15	0.068	
246	 3HE	1998.918	610.877	-2069.998	 H	15	MET15	0.068	
247	   N	2006.613	613.090	-2069.122	N.am	16	ARG16	-0.348	
248	  CA	2007.611	614.153	-2069.035	C.3	16	ARG16	-0.264	
249	   C	2008.882	613.760	-2069.750	C.2	16	ARG16	0.734	
250	   O	2008.996	612.684	-2070.333	O.2	16	ARG16	-0.589	
251	  CB	2007.878	614.469	-2067.536	C.3	16	ARG16	-0.001	
252	  CG	2008.704	615.757	-2067.261	C.3	16	ARG16	0.039	
253	  CD	2008.952	615.975	-2065.760	C.3	16	ARG16	0.049	
254	  NE	2009.729	617.233	-2065.556	N.pl3	16	ARG16	-0.530	
255	  CZ	2010.119	617.714	-2064.379	C.cat	16	ARG16	0.808	
256	 NH1	2009.869	617.128	-2063.242	N.pl3	16	ARG16	-0.863	
257	 NH2	2010.784	618.825	-2064.359	N.pl3	16	ARG16	-0.863	
258	   H	2006.217	612.690	-2068.283	 H	16	ARG16	0.275	
259	  HA	2007.203	615.047	-2069.545	 H	16	ARG16	0.156	
260	 2HB	2008.374	613.592	-2067.070	 H	16	ARG16	0.033	
261	 3HB	2006.909	614.551	-2067.004	 H	16	ARG16	0.033	
262	 2HG	2008.175	616.629	-2067.698	 H	16	ARG16	0.029	
263	 3HG	2009.678	615.704	-2067.789	 H	16	ARG16	0.029	
264	 2HD	2009.499	615.099	-2065.346	 H	16	ARG16	0.069	
265	 3HD	2007.978	616.018	-2065.225	 H	16	ARG16	0.069	
266	  HE	2010.009	617.814	-2066.352	 H	16	ARG16	0.346	
267	1HH1	2009.343	616.256	-2063.328	 H	16	ARG16	0.448	
268	2HH1	2010.203	617.562	-2062.380	 H	16	ARG16	0.448	
269	1HH2	2010.971	619.269	-2065.260	 H	16	ARG16	0.448	
270	2HH2	2011.073	619.179	-2063.445	 H	16	ARG16	0.448	
@<TRIPOS>BOND
1 1 2 1
2 1 10 1
3 2 3 1
4 2 5 1
5 2 11 1
6 3 4 2
7 3 16 1
8 5 6 1
9 6 7 1
10 7 8 2
11 7 9 1
12 5 12 1
13 5 13 1
14 6 14 1
15 6 15 1
16 16 17 1
17 16 24 1
18 17 18 1
19 17 20 1
20 17 25 1
21 18 19 2
22 18 30 1
23 20 21 1
24 21 22 1
25 21 23 2
26 20 26 1
27 20 27 1
28 22 28 1
29 22 29 1
30 30 31 1
31 30 36 1
32 31 32 1
33 31 34 1
34 31 37 1
35 32 33 2
36 32 44 1
37 34 35 1
38 35 36 1
39 34 38 1
40 34 39 1
41 35 40 1
42 35 41 1
43 36 42 1
44 36 43 1
45 44 45 1
46 44 53 1
47 45 46 1
48 45 48 1
49 45 54 1
50 46 47 2
51 46 59 1
52 48 49 1
53 49 50 1
54 50 51 2
55 50 52 1
56 48 55 1
57 48 56 1
58 49 57 1
59 49 58 1
60 59 60 1
61 59 65 1
62 60 61 1
63 60 63 1
64 60 66 1
65 61 62 2
66 61 70 1
67 63 64 1
68 63 67 1
69 63 68 1
70 64 69 1
71 70 71 1
72 70 78 1
73 71 72 1
74 71 74 1
75 71 79 1
76 72 73 2
77 72 89 1
78 74 75 1
79 74 76 1
80 75 77 1
81 74 80 1
82 75 81 1
83 75 82 1
84 76 83 1
85 76 84 1
86 76 85 1
87 77 86 1
88 77 87 1
89 77 88 1
90 89 90 1
91 89 97 1
92 90 91 1
93 90 93 1
94 90 98 1
95 91 92 2
96 91 108 1
97 93 94 1
98 94 95 1
99 94 96 1
100 93 99 1
101 93 100 1
102 94 101 1
103 95 102 1
104 95 103 1
105 95 104 1
106 96 105 1
107 96 106 1
108 96 107 1
109 108 109 1
110 108 116 1
111 109 110 1
112 109 112 1
113 109 117 1
114 110 111 2
115 110 120 1
116 112 113 1
117 113 114 2
118 113 115 1
119 112 118 1
120 112 119 1
121 120 121 1
122 120 129 1
123 121 122 1
124 121 124 1
125 121 130 1
126 122 123 2
127 122 135 1
128 124 125 1
129 125 126 1
130 126 127 2
131 126 128 1
132 124 131 1
133 124 132 1
134 125 133 1
135 125 134 1
136 135 136 1
137 135 145 1
138 136 137 1
139 136 139 1
140 136 146 1
141 137 138 2
142 137 152 1
143 139 140 1
144 140 141 2
145 141 144 1
146 140 142 1
147 142 143 2
148 143 144 1
149 139 147 1
150 139 148 1
151 141 149 1
152 143 150 1
153 144 151 1
154 152 153 1
155 152 159 1
156 153 154 1
157 153 156 1
158 153 160 1
159 154 155 2
160 154 168 1
161 156 157 1
162 156 158 1
163 156 161 1
164 157 162 1
165 157 163 1
166 157 164 1
167 158 165 1
168 158 166 1
169 158 167 1
170 168 169 1
171 168 177 1
172 169 170 1
173 169 172 1
174 169 178 1
175 170 171 2
176 170 190 1
177 172 173 1
178 173 174 1
179 174 175 1
180 175 176 1
181 176 189 1
182 172 179 1
183 172 180 1
184 173 181 1
185 173 182 1
186 174 183 1
187 174 184 1
188 175 185 1
189 175 186 1
190 176 187 1
191 176 188 1
192 190 191 1
193 190 201 1
194 191 192 1
195 191 194 1
196 191 202 1
197 192 193 2
198 192 214 1
199 194 195 1
200 195 196 1
201 196 197 1
202 197 198 1
203 198 199 2
204 198 200 1
205 194 203 1
206 194 204 1
207 195 205 1
208 195 206 1
209 196 207 1
210 196 208 1
211 197 209 1
212 199 210 1
213 199 211 1
214 200 212 1
215 200 213 1
216 214 215 1
217 214 221 1
218 215 216 1
219 215 218 1
220 215 222 1
221 216 217 2
222 216 230 1
223 218 219 1
224 218 220 1
225 218 223 1
226 219 224 1
227 219 225 1
228 219 226 1
229 220 227 1
230 220 228 1
231 220 229 1
232 230 231 1
233 230 238 1
234 231 232 1
235 231 234 1
236 231 239 1
237 232 233 2
238 232 247 1
239 234 235 1
240 235 236 1
241 236 237 1
242 234 240 1
243 234 241 1
244 235 242 1
245 235 243 1
246 237 244 1
247 237 245 1
248 237 246 1
249 247 248 1
250 247 258 1
251 248 249 1
252 248 251 1
253 248 259 1
254 249 250 2
255 251 252 1
256 252 253 1
257 253 254 1
258 254 255 1
259 255 256 2
260 255 257 1
261 251 260 1
262 251 261 1
263 252 262 1
264 252 263 1
265 253 264 1
266 253 265 1
267 254 266 1
268 256 267 1
269 256 268 1
270 257 269 1
271 257 270 1
@<TRIPOS>SUBSTRUCTURE
1	GLU1	1	RESIDUE	1 ****	GLU
2	ASN2	16	RESIDUE	1 ****	ASN
3	PRO3	30	RESIDUE	1 ****	PRO
4	GLU4	44	RESIDUE	1 ****	GLU
5	SER5	59	RESIDUE	1 ****	SER
6	ILE6	70	RESIDUE	1 ****	ILE
7	LEU7	89	RESIDUE	1 ****	LEU
8	ASP8	108	RESIDUE	1 ****	ASP
9	GLU9	120	RESIDUE	1 ****	GLU
10	HIS10	135	RESIDUE	1 ****	HIS
11	VAL11	152	RESIDUE	1 ****	VAL
12	LYS12	168	RESIDUE	1 ****	LYS
13	ARG13	190	RESIDUE	1 ****	ARG
14	VAL14	214	RESIDUE	1 ****	VAL
15	MET15	230	RESIDUE	1 ****	MET
16	ARG16	247	RESIDUE	1 ****	ARG
