REMARK WARNING: 32 MAX_TORS EXCEEDED!!!
REMARK  68 active torsions:
REMARK  status: ('A' for Active; 'I' for Inactive)
REMARK    1  A    between atoms: N_1  and  CA_2 
REMARK    2  A    between atoms: CA_2  and  C_3 
REMARK    3  A    between atoms: CA_2  and  CB_5 
REMARK       I    between atoms: C_3  and  N_11 
REMARK    4  A    between atoms: CB_5  and  CG_6 
REMARK    5  A    between atoms: CG_6  and  CD_7 
REMARK    6  A    between atoms: N_11  and  CA_12 
REMARK    7  A    between atoms: CA_12  and  C_13 
REMARK    8  A    between atoms: CA_12  and  CB_15 
REMARK       I    between atoms: C_13  and  N_22 
REMARK    9  A    between atoms: CB_15  and  CG_16 
REMARK       I    between atoms: CG_16  and  ND2_17 
REMARK   10  A    between atoms: CA_23  and  C_24 
REMARK       I    between atoms: C_24  and  N_29 
REMARK   11  A    between atoms: N_29  and  CA_30 
REMARK   12  A    between atoms: CA_30  and  C_31 
REMARK   13  A    between atoms: CA_30  and  CB_33 
REMARK       I    between atoms: C_31  and  N_39 
REMARK   14  A    between atoms: CB_33  and  CG_34 
REMARK   15  A    between atoms: CG_34  and  CD_35 
REMARK   16  A    between atoms: N_39  and  CA_40 
REMARK   17  A    between atoms: CA_40  and  C_41 
REMARK   18  A    between atoms: CA_40  and  CB_43 
REMARK       I    between atoms: C_41  and  N_47 
REMARK   19  A    between atoms: CB_43  and  OG_44 
REMARK   20  A    between atoms: N_47  and  CA_48 
REMARK   21  A    between atoms: CA_48  and  C_49 
REMARK   22  A    between atoms: CA_48  and  CB_51 
REMARK       I    between atoms: C_49  and  N_55 
REMARK   23  A    between atoms: CB_51  and  OG_52 
REMARK   24  A    between atoms: N_55  and  CA_56 
REMARK   25  A    between atoms: CA_56  and  C_57 
REMARK   26  A    between atoms: CA_56  and  CB_59 
REMARK       I    between atoms: C_57  and  N_64 
REMARK   27  A    between atoms: CB_59  and  CG_60 
REMARK   28  A    between atoms: N_64  and  CA_65 
REMARK   29  A    between atoms: CA_65  and  C_66 
REMARK   30  A    between atoms: CA_65  and  CB_68 
REMARK       I    between atoms: C_66  and  N_73 
REMARK   31  A    between atoms: CB_68  and  CG_69 
REMARK   32  A    between atoms: N_73  and  CA_74 
REMARK   33  A    between atoms: CA_74  and  C_75 
REMARK   34  A    between atoms: CA_74  and  CB_77 
REMARK       I    between atoms: C_75  and  N_83 
REMARK   35  A    between atoms: CB_77  and  CG_78 
REMARK   36  A    between atoms: CG_78  and  CD_79 
REMARK   37  A    between atoms: N_83  and  CA_84 
REMARK   38  A    between atoms: CA_84  and  C_85 
REMARK   39  A    between atoms: CA_84  and  CB_87 
REMARK       I    between atoms: C_85  and  N_95 
REMARK   40  A    between atoms: CB_87  and  CG_88 
REMARK   41  A    between atoms: N_95  and  CA_96 
REMARK   42  A    between atoms: CA_96  and  C_97 
REMARK   43  A    between atoms: CA_96  and  CB_99 
REMARK       I    between atoms: C_97  and  N_103 
REMARK   44  A    between atoms: N_103  and  CA_104 
REMARK   45  A    between atoms: CA_104  and  C_105 
REMARK   46  A    between atoms: CA_104  and  CB_107 
REMARK       I    between atoms: C_105  and  N_115 
REMARK   47  A    between atoms: CB_107  and  CG_108 
REMARK   48  A    between atoms: CG_108  and  CD_109 
REMARK       I    between atoms: CD_109  and  NE2_110 
REMARK   49  A    between atoms: N_115  and  CA_116 
REMARK   50  A    between atoms: CA_116  and  C_117 
REMARK   51  A    between atoms: CA_116  and  CB_119 
REMARK       I    between atoms: C_117  and  N_132 
REMARK   52  A    between atoms: CB_119  and  CG_120 
REMARK   53  A    between atoms: CG_120  and  CD_121 
REMARK   54  A    between atoms: CD_121  and  NE_122 
REMARK       I    between atoms: NE_122  and  CZ_123 
REMARK       I    between atoms: CZ_123  and  NH1_124 
REMARK       I    between atoms: CZ_123  and  NH2_125 
REMARK   55  A    between atoms: N_132  and  CA_133 
REMARK   56  A    between atoms: CA_133  and  C_134 
REMARK   57  A    between atoms: CA_133  and  CB_136 
REMARK       I    between atoms: C_134  and  N_140 
REMARK   58  A    between atoms: N_140  and  CA_141 
REMARK   59  A    between atoms: CA_141  and  C_142 
REMARK   60  A    between atoms: CA_141  and  CB_144 
REMARK       I    between atoms: C_142  and  N_149 
REMARK   61  A    between atoms: CB_144  and  CG_145 
REMARK   62  A    between atoms: CG_145  and  SD_146 
REMARK   63  A    between atoms: N_149  and  CA_150 
REMARK   64  A    between atoms: CA_150  and  C_151 
REMARK   65  A    between atoms: CA_150  and  CB_153 
REMARK   66  A    between atoms: CB_153  and  CG_154 
REMARK   67  A    between atoms: CG_154  and  CD_155 
REMARK   68  A    between atoms: CD_155  and  NE_156 
REMARK       I    between atoms: NE_156  and  CZ_157 
REMARK       I    between atoms: CZ_157  and  NH1_158 
ROOT
ATOM      1  C   GLU d   9     969.472 269.310-940.792  0.00  0.00     0.241 C 
ATOM      2  O   GLU d   9     970.135 270.065-941.517  0.00  0.00    -0.271 OA
ATOM      3  N   HIS d  10     969.569 268.035-940.963  0.00  0.00    -0.346 N 
ATOM      4  H   HIS d  10     969.039 267.399-940.384  0.00  0.00     0.163 HD
ENDROOT
BRANCH   3   5
ATOM      5  CA  HIS d  10     970.457 267.525-942.004  0.00  0.00     0.182 C 
BRANCH   5   6
ATOM      6  C   HIS d  10     970.089 268.090-943.354  0.00  0.00     0.241 C 
ATOM      7  O   HIS d  10     970.941 268.556-944.126  0.00  0.00    -0.271 OA
ATOM      8  N   VAL d  11     968.851 268.089-943.717  0.00  0.00    -0.346 N 
ATOM      9  H   VAL d  11     968.139 267.715-943.106  0.00  0.00     0.163 HD
BRANCH   8  10
ATOM     10  CA  VAL d  11     968.495 268.635-945.023  0.00  0.00     0.180 C 
BRANCH  10  11
ATOM     11  C   VAL d  11     968.959 270.066-945.155  0.00  0.00     0.241 C 
ATOM     12  O   VAL d  11     969.560 270.472-946.158  0.00  0.00    -0.271 OA
ATOM     13  N   GLN d  12     968.721 270.891-944.192  0.00  0.00    -0.346 N 
ATOM     14  H   GLN d  12     968.233 270.584-943.363  0.00  0.00     0.163 HD
BRANCH  13  15
ATOM     15  CA  GLN d  12     969.169 272.275-944.318  0.00  0.00     0.177 C 
BRANCH  15  16
ATOM     16  C   GLN d  12     970.659 272.343-944.556  0.00  0.00     0.241 C 
ATOM     17  O   GLN d  12     971.145 273.052-945.434  0.00  0.00    -0.271 OA
ATOM     18  N   ARG d  13     971.444 271.636-943.816  0.00  0.00    -0.346 N 
ATOM     19  H   ARG d  13     971.068 271.046-943.088  0.00  0.00     0.163 HD
BRANCH  18  20
ATOM     20  CA  ARG d  13     972.884 271.703-944.047  0.00  0.00     0.176 C 
BRANCH  20  21
ATOM     21  C   ARG d  13     973.220 271.333-945.472  0.00  0.00     0.241 C 
ATOM     22  O   ARG d  13     973.989 272.006-946.156  0.00  0.00    -0.271 OA
ATOM     23  N   VAL d  14     972.685 270.279-945.987  0.00  0.00    -0.346 N 
ATOM     24  H   VAL d  14     972.050 269.709-945.446  0.00  0.00     0.163 HD
BRANCH  23  25
ATOM     25  CA  VAL d  14     973.010 269.921-947.365  0.00  0.00     0.180 C 
BRANCH  25  26
ATOM     26  C   VAL d  14     972.679 271.051-948.310  0.00  0.00     0.241 C 
ATOM     27  O   VAL d  14     973.472 271.434-949.179  0.00  0.00    -0.271 OA
ATOM     28  N   MET d  15     971.534 271.636-948.208  0.00  0.00    -0.346 N 
ATOM     29  H   MET d  15     970.869 271.342-947.506  0.00  0.00     0.163 HD
BRANCH  28  30
ATOM     30  CA  MET d  15     971.213 272.730-949.120  0.00  0.00     0.177 C 
BRANCH  30  31
ATOM     31  C   MET d  15     972.242 273.830-949.032  0.00  0.00     0.241 C 
ATOM     32  O   MET d  15     972.745 274.342-950.044  0.00  0.00    -0.271 OA
ATOM     33  N   ARG d  16     972.611 274.250-947.869  0.00  0.00    -0.347 N 
ATOM     34  H   ARG d  16     972.216 273.849-947.030  0.00  0.00     0.163 HD
BRANCH  33  35
ATOM     35  CA  ARG d  16     973.607 275.315-947.784  0.00  0.00     0.162 C 
BRANCH  35  36
ATOM     36  C   ARG d  16     974.878 274.923-948.501  0.00  0.00     0.219 C 
ATOM     37  O   ARG d  16     974.992 273.848-949.084  0.00  0.00    -0.287 OA
ENDBRANCH  35  36
BRANCH  35  38
ATOM     38  CB  ARG d  16     973.876 275.631-946.286  0.00  0.00     0.035 C 
BRANCH  38  39
ATOM     39  CG  ARG d  16     974.700 276.920-946.012  0.00  0.00     0.023 C 
BRANCH  39  40
ATOM     40  CD  ARG d  16     974.950 277.139-944.510  0.00  0.00     0.138 C 
BRANCH  40  41
ATOM     41  NE  ARG d  16     975.725 278.398-944.308  0.00  0.00    -0.227 N 
ATOM     42  CZ  ARG d  16     976.116 278.879-943.132  0.00  0.00     0.665 C 
ATOM     43  NH1 ARG d  16     975.869 278.294-941.994  0.00  0.00    -0.235 N 
ATOM     44  NH2 ARG d  16     976.780 279.992-943.112  0.00  0.00    -0.235 N 
ATOM     45 11HH ARG d  16     975.344 277.420-942.079  0.00  0.00     0.174 HD
ATOM     46 12HH ARG d  16     976.203 278.728-941.133  0.00  0.00     0.174 HD
ATOM     47 21HH ARG d  16     976.965 280.436-944.014  0.00  0.00     0.174 HD
ATOM     48 22HH ARG d  16     977.070 280.346-942.200  0.00  0.00     0.174 HD
ATOM     49  HE  ARG d  16     976.003 278.980-945.105  0.00  0.00     0.177 HD
ENDBRANCH  40  41
ENDBRANCH  39  40
ENDBRANCH  38  39
ENDBRANCH  35  38
ENDBRANCH  33  35
ENDBRANCH  30  31
BRANCH  30  50
ATOM     50  CB  MET d  15     969.791 273.274-948.811  0.00  0.00     0.045 C 
BRANCH  50  51
ATOM     51  CG  MET d  15     968.630 272.275-949.003  0.00  0.00     0.076 C 
BRANCH  51  52
ATOM     52  SD  MET d  15     967.055 273.140-948.888  0.00  0.00    -0.173 SA
ATOM     53  CE  MET d  15     965.975 271.710-948.753  0.00  0.00     0.089 C 
ENDBRANCH  51  52
ENDBRANCH  50  51
ENDBRANCH  30  50
ENDBRANCH  28  30
ENDBRANCH  25  26
BRANCH  25  54
ATOM     54  CB  VAL d  14     972.239 268.603-947.773  0.00  0.00     0.009 C 
ATOM     55  CG1 VAL d  14     972.328 268.187-949.267  0.00  0.00     0.012 C 
ATOM     56  CG2 VAL d  14     972.671 267.351-946.974  0.00  0.00     0.012 C 
ENDBRANCH  25  54
ENDBRANCH  23  25
ENDBRANCH  20  21
BRANCH  20  57
ATOM     57  CB  ARG d  13     973.598 270.764-943.034  0.00  0.00     0.036 C 
BRANCH  57  58
ATOM     58  CG  ARG d  13     975.143 270.918-942.953  0.00  0.00     0.023 C 
BRANCH  58  59
ATOM     59  CD  ARG d  13     975.771 269.930-941.956  0.00  0.00     0.138 C 
BRANCH  59  60
ATOM     60  NE  ARG d  13     977.248 270.138-941.905  0.00  0.00    -0.227 N 
ATOM     61  CZ  ARG d  13     978.096 269.446-941.151  0.00  0.00     0.665 C 
ATOM     62  NH1 ARG d  13     977.732 268.481-940.354  0.00  0.00    -0.235 N 
ATOM     63  NH2 ARG d  13     979.356 269.746-941.207  0.00  0.00    -0.235 N 
ATOM     64 11HH ARG d  13     976.727 268.294-940.357  0.00  0.00     0.174 HD
ATOM     65 12HH ARG d  13     978.445 267.998-939.806  0.00  0.00     0.174 HD
ATOM     66 21HH ARG d  13     979.622 270.505-941.838  0.00  0.00     0.174 HD
ATOM     67 22HH ARG d  13     979.991 269.204-940.619  0.00  0.00     0.174 HD
ATOM     68  HE  ARG d  13     977.698 270.861-942.475  0.00  0.00     0.177 HD
ENDBRANCH  59  60
ENDBRANCH  58  59
ENDBRANCH  57  58
ENDBRANCH  20  57
ENDBRANCH  18  20
ENDBRANCH  15  16
BRANCH  15  69
ATOM     69  CB  GLN d  12     968.778 273.041-943.035  0.00  0.00     0.044 C 
BRANCH  69  70
ATOM     70  CG  GLN d  12     969.137 274.563-943.003  0.00  0.00     0.105 C 
BRANCH  70  71
ATOM     71  CD  GLN d  12     968.834 275.375-941.738  0.00  0.00     0.215 C 
ATOM     72  NE2 GLN d  12     968.267 274.798-940.709  0.00  0.00    -0.370 N 
ATOM     73 21HE GLN d  12     968.160 275.392-939.885  0.00  0.00     0.159 HD
ATOM     74 22HE GLN d  12     968.105 273.794-940.813  0.00  0.00     0.159 HD
ATOM     75  OE1 GLN d  12     969.135 276.556-941.659  0.00  0.00    -0.274 OA
ENDBRANCH  70  71
ENDBRANCH  69  70
ENDBRANCH  15  69
ENDBRANCH  13  15
ENDBRANCH  10  11
BRANCH  10  76
ATOM     76  CB  VAL d  11     966.934 268.528-945.243  0.00  0.00     0.009 C 
ATOM     77  CG1 VAL d  11     966.365 269.232-946.505  0.00  0.00     0.012 C 
ATOM     78  CG2 VAL d  11     966.411 267.073-945.316  0.00  0.00     0.012 C 
ENDBRANCH  10  76
ENDBRANCH   8  10
ENDBRANCH   5   6
BRANCH   5  79
ATOM     79  CB  HIS d  10     970.294 265.996-942.000  0.00  0.00     0.095 C 
BRANCH  79  80
ATOM     80  CG  HIS d  10     971.580 265.286-941.693  0.00  0.00     0.053 A 
ATOM     81  CD2 HIS d  10     971.962 264.950-940.400  0.00  0.00     0.116 A 
ATOM     82  NE2 HIS d  10     973.177 264.320-940.468  0.00  0.00    -0.359 N 
ATOM     83  CE1 HIS d  10     973.439 264.324-941.803  0.00  0.00     0.207 A 
ATOM     84  2HE HIS d  10     973.744 263.942-939.695  0.00  0.00     0.166 HD
ATOM     85  ND1 HIS d  10     972.532 264.882-942.626  0.00  0.00    -0.247 NA
ENDBRANCH  79  80
ENDBRANCH   5  79
ENDBRANCH   3   5
BRANCH   1  86
ATOM     86  CA  GLU d   9     968.554 269.837-939.716  0.00  0.00     0.177 C 
BRANCH  86  87
ATOM     87  N   GLU d   9     967.251 269.178-939.771  0.00  0.00    -0.346 N 
ATOM     88  C   ASP d   8     966.571 269.229-940.866  0.00  0.00     0.241 C 
ATOM     89  O   ASP d   8     967.043 269.835-941.841  0.00  0.00    -0.271 OA
ATOM     90  H   GLU d   9     966.888 268.691-938.964  0.00  0.00     0.163 HD
BRANCH  88  91
ATOM     91  CA  ASP d   8     965.225 268.548-940.923  0.00  0.00     0.186 C 
BRANCH  91  92
ATOM     92  N   ASP d   8     965.296 267.198-940.371  0.00  0.00    -0.346 N 
ATOM     93  C   LEU d   7     966.134 266.358-940.878  0.00  0.00     0.241 C 
ATOM     94  O   LEU d   7     966.854 266.722-941.820  0.00  0.00    -0.271 OA
ATOM     95  H   ASP d   8     964.699 266.927-939.603  0.00  0.00     0.163 HD
BRANCH  93  96
ATOM     96  CA  LEU d   7     966.207 264.963-940.306  0.00  0.00     0.177 C 
BRANCH  96  97
ATOM     97  N   LEU d   7     966.262 264.999-938.847  0.00  0.00    -0.346 N 
ATOM     98  C   SER d   6     967.208 265.662-938.274  0.00  0.00     0.243 C 
ATOM     99  O   SER d   6     968.036 266.246-938.972  0.00  0.00    -0.271 OA
ATOM    100  H   LEU d   7     965.571 264.511-938.296  0.00  0.00     0.163 HD
BRANCH  98 101
ATOM    101  CA  SER d   6     967.266 265.700-936.765  0.00  0.00     0.200 C 
BRANCH 101 102
ATOM    102  N   SER d   6     965.953 265.994-936.198  0.00  0.00    -0.344 N 
ATOM    103  C   SER d   5     965.348 267.077-936.552  0.00  0.00     0.243 C 
ATOM    104  O   SER d   5     965.895 267.830-937.357  0.00  0.00    -0.271 OA
ATOM    105  H   SER d   6     965.525 265.359-935.539  0.00  0.00     0.163 HD
BRANCH 103 106
ATOM    106  CA  SER d   5     963.989 267.382-935.967  0.00  0.00     0.200 C 
BRANCH 106 107
ATOM    107  N   SER d   5     963.120 266.211-936.025  0.00  0.00    -0.344 N 
ATOM    108  C   GLU d   4     962.893 265.658-937.169  0.00  0.00     0.241 C 
ATOM    109  O   GLU d   4     963.419 266.137-938.183  0.00  0.00    -0.271 OA
ATOM    110  H   SER d   5     962.703 265.839-935.184  0.00  0.00     0.163 HD
BRANCH 108 111
ATOM    111  CA  GLU d   4     961.994 264.447-937.230  0.00  0.00     0.177 C 
BRANCH 111 112
ATOM    112  N   GLU d   4     962.354 263.476-936.200  0.00  0.00    -0.346 N 
ATOM    113  C   PRO d   3     963.558 263.016-936.168  0.00  0.00     0.241 C 
ATOM    114  O   PRO d   3     964.382 263.399-936.999  0.00  0.00    -0.271 OA
ATOM    115  H   GLU d   4     961.669 263.169-935.523  0.00  0.00     0.163 HD
BRANCH 113 116
ATOM    116  CA  PRO d   3     963.956 261.992-935.091  0.00  0.00     0.179 C 
ATOM    117  N   PRO d   3     963.505 262.402-933.769  0.00  0.00    -0.337 N 
ATOM    118  C   ASN d   2     964.026 263.397-933.135  0.00  0.00     0.243 C 
ATOM    119  CD  PRO d   3     962.427 261.608-933.220  0.00  0.00     0.127 C 
ATOM    120  O   ASN d   2     964.941 264.027-933.664  0.00  0.00    -0.271 OA
ATOM    121  CG  PRO d   3     961.969 260.790-934.430  0.00  0.00     0.022 C 
ATOM    122  CB  PRO d   3     963.252 260.638-935.260  0.00  0.00     0.037 C 
BRANCH 118 123
ATOM    123  CA  ASN d   2     963.495 263.752-931.767  0.00  0.00     0.185 C 
BRANCH 123 124
ATOM    124  N   ASN d   2     962.036 263.791-931.767  0.00  0.00    -0.346 N 
ATOM    125  C   GLU d   1     961.431 264.577-932.592  0.00  0.00     0.242 C 
ATOM    126  O   GLU d   1     962.107 265.276-933.360  0.00  0.00    -0.271 OA
ATOM    127  H   ASN d   2     961.507 263.211-931.130  0.00  0.00     0.163 HD
BRANCH 125 128
ATOM    128  CA  GLU d   1     959.922 264.617-932.592  0.00  0.00     0.191 C 
BRANCH 128 129
ATOM    129  N   GLU d   1     959.363 263.268-932.592  0.00  0.00    -0.326 NA
ATOM    130  H   GLU d   1     959.990 262.389-932.592  0.00  0.00     0.180 HD
ENDBRANCH 128 129
BRANCH 128 131
ATOM    131  CB  GLU d   1     959.399 265.402-931.355  0.00  0.00     0.047 C 
BRANCH 131 132
ATOM    132  CG  GLU d   1     959.874 266.887-931.244  0.00  0.00     0.116 C 
BRANCH 132 133
ATOM    133  CD  GLU d   1     959.450 267.691-930.029  0.00  0.00     0.172 C 
ATOM    134  OE1 GLU d   1     958.722 267.189-929.151  0.00  0.00    -0.648 OA
ATOM    135  OE2 GLU d   1     959.880 268.861-929.957  0.00  0.00    -0.648 OA
ENDBRANCH 132 133
ENDBRANCH 131 132
ENDBRANCH 128 131
ENDBRANCH 125 128
ENDBRANCH 123 124
BRANCH 123 136
ATOM    136  CB  ASN d   2     963.987 262.729-930.702  0.00  0.00     0.137 C 
BRANCH 136 137
ATOM    137  CG  ASN d   2     963.524 262.953-929.259  0.00  0.00     0.217 C 
ATOM    138  ND2 ASN d   2     964.118 263.868-928.541  0.00  0.00    -0.370 N 
ATOM    139 21HD ASN d   2     963.637 264.041-927.654  0.00  0.00     0.159 HD
ATOM    140 22HD ASN d   2     964.820 264.440-929.010  0.00  0.00     0.159 HD
ATOM    141  OD1 ASN d   2     962.603 262.319-928.765  0.00  0.00    -0.274 OA
ENDBRANCH 136 137
ENDBRANCH 123 136
ENDBRANCH 118 123
ENDBRANCH 113 116
ENDBRANCH 111 112
BRANCH 111 142
ATOM    142  CB  GLU d   4     960.505 264.865-937.060  0.00  0.00     0.045 C 
BRANCH 142 143
ATOM    143  CG  GLU d   4     959.957 265.869-938.125  0.00  0.00     0.116 C 
BRANCH 143 144
ATOM    144  CD  GLU d   4     958.530 266.365-937.982  0.00  0.00     0.172 C 
ATOM    145  OE1 GLU d   4     957.804 265.967-937.051  0.00  0.00    -0.648 OA
ATOM    146  OE2 GLU d   4     958.141 267.194-938.830  0.00  0.00    -0.648 OA
ENDBRANCH 143 144
ENDBRANCH 142 143
ENDBRANCH 111 142
ENDBRANCH 108 111
ENDBRANCH 106 107
BRANCH 106 147
ATOM    147  CB  SER d   5     964.101 267.914-934.516  0.00  0.00     0.199 C 
BRANCH 147 148
ATOM    148  OG  SER d   5     964.832 267.035-933.655  0.00  0.00    -0.398 OA
ATOM    149  HG  SER d   5     964.344 266.210-933.605  0.00  0.00     0.209 HD
ENDBRANCH 147 148
ENDBRANCH 106 147
ENDBRANCH 103 106
ENDBRANCH 101 102
BRANCH 101 150
ATOM    150  CB  SER d   6     967.835 264.381-936.184  0.00  0.00     0.199 C 
BRANCH 150 151
ATOM    151  OG  SER d   6     967.121 263.223-936.630  0.00  0.00    -0.398 OA
ATOM    152  HG  SER d   6     966.221 263.297-936.305  0.00  0.00     0.209 HD
ENDBRANCH 150 151
ENDBRANCH 101 150
ENDBRANCH  98 101
ENDBRANCH  96  97
BRANCH  96 153
ATOM    153  CB  LEU d   7     965.004 264.102-940.786  0.00  0.00     0.038 C 
BRANCH 153 154
ATOM    154  CG  LEU d   7     964.932 262.623-940.320  0.00  0.00    -0.020 C 
ATOM    155  CD1 LEU d   7     963.742 261.916-940.985  0.00  0.00     0.009 C 
ATOM    156  CD2 LEU d   7     966.226 261.844-940.612  0.00  0.00     0.009 C 
ENDBRANCH 153 154
ENDBRANCH  96 153
ENDBRANCH  93  96
ENDBRANCH  91  92
BRANCH  91 157
ATOM    157  CB  ASP d   8     964.147 269.386-940.181  0.00  0.00     0.147 C 
BRANCH 157 158
ATOM    158  CG  ASP d   8     963.927 270.807-940.721  0.00  0.00     0.175 C 
ATOM    159  OD1 ASP d   8     963.990 271.007-941.951  0.00  0.00    -0.648 OA
ATOM    160  OD2 ASP d   8     963.734 271.733-939.905  0.00  0.00    -0.648 OA
ENDBRANCH 157 158
ENDBRANCH  91 157
ENDBRANCH  88  91
ENDBRANCH  86  87
BRANCH  86 161
ATOM    161  CB  GLU d   9     969.188 269.628-938.311  0.00  0.00     0.045 C 
BRANCH 161 162
ATOM    162  CG  GLU d   9     970.570 270.321-938.081  0.00  0.00     0.116 C 
BRANCH 162 163
ATOM    163  CD  GLU d   9     971.272 270.108-936.754  0.00  0.00     0.172 C 
ATOM    164  OE1 GLU d   9     970.751 269.416-935.857  0.00  0.00    -0.648 OA
ATOM    165  OE2 GLU d   9     972.391 270.646-936.622  0.00  0.00    -0.648 OA
ENDBRANCH 162 163
ENDBRANCH 161 162
ENDBRANCH  86 161
ENDBRANCH   1  86
TORSDOF 68
