REMARK WARNING: 32 MAX_TORS EXCEEDED!!!
REMARK  68 active torsions:
REMARK  status: ('A' for Active; 'I' for Inactive)
REMARK    1  A    between atoms: N_1  and  CA_2 
REMARK    2  A    between atoms: CA_2  and  C_3 
REMARK    3  A    between atoms: CA_2  and  CB_5 
REMARK       I    between atoms: C_3  and  N_11 
REMARK    4  A    between atoms: CB_5  and  CG_6 
REMARK    5  A    between atoms: CG_6  and  CD_7 
REMARK    6  A    between atoms: N_11  and  CA_12 
REMARK    7  A    between atoms: CA_12  and  C_13 
REMARK    8  A    between atoms: CA_12  and  CB_15 
REMARK       I    between atoms: C_13  and  N_23 
REMARK    9  A    between atoms: CB_15  and  CG_16 
REMARK   10  A    between atoms: CA_24  and  C_25 
REMARK       I    between atoms: C_25  and  N_30 
REMARK   11  A    between atoms: N_30  and  CA_31 
REMARK   12  A    between atoms: CA_31  and  C_32 
REMARK   13  A    between atoms: CA_31  and  CB_34 
REMARK       I    between atoms: C_32  and  N_40 
REMARK   14  A    between atoms: CB_34  and  CG_35 
REMARK   15  A    between atoms: CG_35  and  CD_36 
REMARK   16  A    between atoms: N_40  and  CA_41 
REMARK   17  A    between atoms: CA_41  and  C_42 
REMARK   18  A    between atoms: CA_41  and  CB_44 
REMARK       I    between atoms: C_42  and  N_48 
REMARK   19  A    between atoms: CB_44  and  OG_45 
REMARK   20  A    between atoms: N_48  and  CA_49 
REMARK   21  A    between atoms: CA_49  and  C_50 
REMARK   22  A    between atoms: CA_49  and  CB_52 
REMARK       I    between atoms: C_50  and  N_57 
REMARK   23  A    between atoms: CB_52  and  CG1_53 
REMARK   24  A    between atoms: N_57  and  CA_58 
REMARK   25  A    between atoms: CA_58  and  C_59 
REMARK   26  A    between atoms: CA_58  and  CB_61 
REMARK       I    between atoms: C_59  and  N_66 
REMARK   27  A    between atoms: CB_61  and  CG_62 
REMARK   28  A    between atoms: N_66  and  CA_67 
REMARK   29  A    between atoms: CA_67  and  C_68 
REMARK   30  A    between atoms: CA_67  and  CB_70 
REMARK       I    between atoms: C_68  and  N_75 
REMARK   31  A    between atoms: CB_70  and  CG_71 
REMARK   32  A    between atoms: N_75  and  CA_76 
REMARK   33  A    between atoms: CA_76  and  C_77 
REMARK   34  A    between atoms: CA_76  and  CB_79 
REMARK       I    between atoms: C_77  and  N_85 
REMARK   35  A    between atoms: CB_79  and  CG_80 
REMARK   36  A    between atoms: CG_80  and  CD_81 
REMARK   37  A    between atoms: N_85  and  CA_86 
REMARK   38  A    between atoms: CA_86  and  C_87 
REMARK   39  A    between atoms: CA_86  and  CB_89 
REMARK       I    between atoms: C_87  and  N_97 
REMARK   40  A    between atoms: CB_89  and  CG_90 
REMARK   41  A    between atoms: N_97  and  CA_98 
REMARK   42  A    between atoms: CA_98  and  C_99 
REMARK   43  A    between atoms: CA_98  and  CB_101 
REMARK       I    between atoms: C_99  and  N_105 
REMARK   44  A    between atoms: N_105  and  CA_106 
REMARK   45  A    between atoms: CA_106  and  C_107 
REMARK   46  A    between atoms: CA_106  and  CB_109 
REMARK       I    between atoms: C_107  and  N_117 
REMARK   47  A    between atoms: CB_109  and  CG_110 
REMARK   48  A    between atoms: CG_110  and  CD_111 
REMARK       I    between atoms: CD_111  and  NE2_112 
REMARK   49  A    between atoms: N_117  and  CA_118 
REMARK   50  A    between atoms: CA_118  and  C_119 
REMARK   51  A    between atoms: CA_118  and  CB_121 
REMARK       I    between atoms: C_119  and  N_134 
REMARK   52  A    between atoms: CB_121  and  CG_122 
REMARK   53  A    between atoms: CG_122  and  CD_123 
REMARK   54  A    between atoms: CD_123  and  NE_124 
REMARK       I    between atoms: NE_124  and  CZ_125 
REMARK       I    between atoms: CZ_125  and  NH1_126 
REMARK       I    between atoms: CZ_125  and  NH2_127 
REMARK   55  A    between atoms: N_134  and  CA_135 
REMARK   56  A    between atoms: CA_135  and  C_136 
REMARK   57  A    between atoms: CA_135  and  CB_138 
REMARK       I    between atoms: C_136  and  N_142 
REMARK   58  A    between atoms: N_142  and  CA_143 
REMARK   59  A    between atoms: CA_143  and  C_144 
REMARK   60  A    between atoms: CA_143  and  CB_146 
REMARK       I    between atoms: C_144  and  N_151 
REMARK   61  A    between atoms: CB_146  and  CG_147 
REMARK   62  A    between atoms: CG_147  and  SD_148 
REMARK   63  A    between atoms: N_151  and  CA_152 
REMARK   64  A    between atoms: CA_152  and  C_153 
REMARK   65  A    between atoms: CA_152  and  CB_155 
REMARK   66  A    between atoms: CB_155  and  CG_156 
REMARK   67  A    between atoms: CG_156  and  CD_157 
REMARK   68  A    between atoms: CD_157  and  NE_158 
REMARK       I    between atoms: NE_158  and  CZ_159 
REMARK       I    between atoms: CZ_159  and  NH1_160 
ROOT
ATOM      1  C   GLU d   9     266.221  55.894-239.123  0.00  0.00     0.241 C 
ATOM      2  O   GLU d   9     266.887  56.649-239.847  0.00  0.00    -0.271 OA
ATOM      3  N   HIS d  10     266.318  54.619-239.293  0.00  0.00    -0.346 N 
ATOM      4  H   HIS d  10     265.787  53.984-238.715  0.00  0.00     0.163 HD
ENDROOT
BRANCH   1   5
ATOM      5  CA  GLU d   9     265.301  56.422-238.049  0.00  0.00     0.177 C 
BRANCH   5   6
ATOM      6  N   GLU d   9     263.999  55.764-238.107  0.00  0.00    -0.346 N 
ATOM      7  C   ASP d   8     263.321  55.814-239.203  0.00  0.00     0.241 C 
ATOM      8  O   ASP d   8     263.795  56.419-240.177  0.00  0.00    -0.271 OA
ATOM      9  H   GLU d   9     263.634  55.278-237.300  0.00  0.00     0.163 HD
BRANCH   7  10
ATOM     10  CA  ASP d   8     261.974  55.134-239.263  0.00  0.00     0.186 C 
BRANCH  10  11
ATOM     11  N   ASP d   8     262.044  53.785-238.709  0.00  0.00    -0.346 N 
ATOM     12  C   LEU d   7     262.882  52.944-239.214  0.00  0.00     0.241 C 
ATOM     13  O   LEU d   7     263.604  53.307-240.155  0.00  0.00    -0.271 OA
ATOM     14  H   ASP d   8     261.445  53.514-237.943  0.00  0.00     0.163 HD
BRANCH  12  15
ATOM     15  CA  LEU d   7     262.954  51.549-238.642  0.00  0.00     0.177 C 
BRANCH  15  16
ATOM     16  N   LEU d   7     263.006  51.585-237.183  0.00  0.00    -0.346 N 
ATOM     17  C   ILE d   6     263.951  52.248-236.608  0.00  0.00     0.241 C 
ATOM     18  O   ILE d   6     264.787  52.836-237.310  0.00  0.00    -0.271 OA
ATOM     19  H   LEU d   7     262.313  51.098-236.633  0.00  0.00     0.163 HD
BRANCH  17  20
ATOM     20  CA  ILE d   6     264.006  52.286-235.100  0.00  0.00     0.180 C 
BRANCH  20  21
ATOM     21  N   ILE d   6     262.691  52.581-234.536  0.00  0.00    -0.346 N 
ATOM     22  C   SER d   5     262.087  53.664-234.891  0.00  0.00     0.243 C 
ATOM     23  O   SER d   5     262.636  54.418-235.695  0.00  0.00    -0.271 OA
ATOM     24  H   ILE d   6     262.262  51.947-233.877  0.00  0.00     0.163 HD
BRANCH  22  25
ATOM     25  CA  SER d   5     260.727  53.970-234.308  0.00  0.00     0.200 C 
BRANCH  25  26
ATOM     26  N   SER d   5     259.858  52.798-234.367  0.00  0.00    -0.344 N 
ATOM     27  C   GLU d   4     259.632  52.246-235.511  0.00  0.00     0.241 C 
ATOM     28  O   GLU d   4     260.161  52.725-236.525  0.00  0.00    -0.271 OA
ATOM     29  H   SER d   5     259.439  52.427-233.527  0.00  0.00     0.163 HD
BRANCH  27  30
ATOM     30  CA  GLU d   4     258.734  51.035-235.574  0.00  0.00     0.177 C 
BRANCH  30  31
ATOM     31  N   GLU d   4     259.091  50.064-234.543  0.00  0.00    -0.346 N 
ATOM     32  C   PRO d   3     260.296  49.604-234.509  0.00  0.00     0.241 C 
ATOM     33  O   PRO d   3     261.121  49.987-235.339  0.00  0.00    -0.271 OA
ATOM     34  H   GLU d   4     258.406  49.757-233.868  0.00  0.00     0.163 HD
BRANCH  32  35
ATOM     35  CA  PRO d   3     260.692  48.580-233.431  0.00  0.00     0.179 C 
ATOM     36  N   PRO d   3     260.238  48.989-232.111  0.00  0.00    -0.337 N 
ATOM     37  C   HIS d   2     260.759  49.984-231.476  0.00  0.00     0.243 C 
ATOM     38  CD  PRO d   3     259.159  48.196-231.563  0.00  0.00     0.127 C 
ATOM     39  O   HIS d   2     261.682  50.620-232.007  0.00  0.00    -0.271 OA
ATOM     40  CG  PRO d   3     258.704  47.378-232.774  0.00  0.00     0.022 C 
ATOM     41  CB  PRO d   3     259.988  47.225-233.602  0.00  0.00     0.037 C 
BRANCH  37  42
ATOM     42  CA  HIS d   2     260.226  50.340-230.109  0.00  0.00     0.182 C 
BRANCH  42  43
ATOM     43  N   HIS d   2     258.766  50.379-230.110  0.00  0.00    -0.346 N 
ATOM     44  C   GLU d   1     258.161  51.165-230.935  0.00  0.00     0.242 C 
ATOM     45  O   GLU d   1     258.837  51.864-231.703  0.00  0.00    -0.271 OA
ATOM     46  H   HIS d   2     258.237  49.800-229.473  0.00  0.00     0.163 HD
BRANCH  44  47
ATOM     47  CA  GLU d   1     256.652  51.205-230.935  0.00  0.00     0.191 C 
BRANCH  47  48
ATOM     48  N   GLU d   1     256.093  49.856-230.935  0.00  0.00    -0.326 NA
ATOM     49  H   GLU d   1     256.720  48.977-230.935  0.00  0.00     0.180 HD
ENDBRANCH  47  48
BRANCH  47  50
ATOM     50  CB  GLU d   1     256.129  51.990-229.698  0.00  0.00     0.047 C 
BRANCH  50  51
ATOM     51  CG  GLU d   1     256.604  53.475-229.587  0.00  0.00     0.116 C 
BRANCH  51  52
ATOM     52  CD  GLU d   1     256.180  54.279-228.372  0.00  0.00     0.172 C 
ATOM     53  OE1 GLU d   1     255.452  53.777-227.494  0.00  0.00    -0.648 OA
ATOM     54  OE2 GLU d   1     256.610  55.449-228.300  0.00  0.00    -0.648 OA
ENDBRANCH  51  52
ENDBRANCH  50  51
ENDBRANCH  47  50
ENDBRANCH  44  47
ENDBRANCH  42  43
BRANCH  42  55
ATOM     55  CB  HIS d   2     260.629  49.270-229.081  0.00  0.00     0.095 C 
BRANCH  55  56
ATOM     56  CG  HIS d   2     261.454  49.835-227.963  0.00  0.00     0.053 A 
ATOM     57  CD2 HIS d   2     260.895  50.325-226.790  0.00  0.00     0.116 A 
ATOM     58  NE2 HIS d   2     261.914  50.765-225.986  0.00  0.00    -0.359 N 
ATOM     59  CE1 HIS d   2     263.018  50.508-226.739  0.00  0.00     0.207 A 
ATOM     60  2HE HIS d   2     261.851  51.186-225.048  0.00  0.00     0.166 HD
ATOM     61  ND1 HIS d   2     262.843  49.943-227.948  0.00  0.00    -0.247 NA
ENDBRANCH  55  56
ENDBRANCH  42  55
ENDBRANCH  37  42
ENDBRANCH  32  35
ENDBRANCH  30  31
BRANCH  30  62
ATOM     62  CB  GLU d   4     257.245  51.453-235.406  0.00  0.00     0.045 C 
BRANCH  62  63
ATOM     63  CG  GLU d   4     256.698  52.457-236.473  0.00  0.00     0.116 C 
BRANCH  63  64
ATOM     64  CD  GLU d   4     255.272  52.954-236.331  0.00  0.00     0.172 C 
ATOM     65  OE1 GLU d   4     254.544  52.555-235.402  0.00  0.00    -0.648 OA
ATOM     66  OE2 GLU d   4     254.884  53.783-237.180  0.00  0.00    -0.648 OA
ENDBRANCH  63  64
ENDBRANCH  62  63
ENDBRANCH  30  62
ENDBRANCH  27  30
ENDBRANCH  25  26
BRANCH  25  67
ATOM     67  CB  SER d   5     260.836  54.502-232.857  0.00  0.00     0.199 C 
BRANCH  67  68
ATOM     68  OG  SER d   5     261.567  53.623-231.995  0.00  0.00    -0.398 OA
ATOM     69  HG  SER d   5     261.078  52.798-231.945  0.00  0.00     0.209 HD
ENDBRANCH  67  68
ENDBRANCH  25  67
ENDBRANCH  22  25
ENDBRANCH  20  21
BRANCH  20  70
ATOM     70  CB  ILE d   6     264.604  50.950-234.499  0.00  0.00     0.013 C 
ATOM     71  CG2 ILE d   6     266.046  50.648-235.012  0.00  0.00     0.012 C 
BRANCH  70  72
ATOM     72  CG1 ILE d   6     264.621  50.888-232.938  0.00  0.00     0.002 C 
ATOM     73  CD1 ILE d   6     264.890  49.499-232.322  0.00  0.00     0.005 C 
ENDBRANCH  70  72
ENDBRANCH  20  70
ENDBRANCH  17  20
ENDBRANCH  15  16
BRANCH  15  74
ATOM     74  CB  LEU d   7     261.751  50.688-239.124  0.00  0.00     0.038 C 
BRANCH  74  75
ATOM     75  CG  LEU d   7     261.678  49.209-238.657  0.00  0.00    -0.020 C 
ATOM     76  CD1 LEU d   7     260.489  48.503-239.325  0.00  0.00     0.009 C 
ATOM     77  CD2 LEU d   7     262.972  48.430-238.947  0.00  0.00     0.009 C 
ENDBRANCH  74  75
ENDBRANCH  15  74
ENDBRANCH  12  15
ENDBRANCH  10  11
BRANCH  10  78
ATOM     78  CB  ASP d   8     260.895  55.973-238.523  0.00  0.00     0.147 C 
BRANCH  78  79
ATOM     79  CG  ASP d   8     260.677  57.394-239.064  0.00  0.00     0.175 C 
ATOM     80  OD1 ASP d   8     260.743  57.593-240.294  0.00  0.00    -0.648 OA
ATOM     81  OD2 ASP d   8     260.483  58.320-238.248  0.00  0.00    -0.648 OA
ENDBRANCH  78  79
ENDBRANCH  10  78
ENDBRANCH   7  10
ENDBRANCH   5   6
BRANCH   5  82
ATOM     82  CB  GLU d   9     265.932  56.214-236.642  0.00  0.00     0.045 C 
BRANCH  82  83
ATOM     83  CG  GLU d   9     267.315  56.907-236.411  0.00  0.00     0.116 C 
BRANCH  83  84
ATOM     84  CD  GLU d   9     268.014  56.693-235.081  0.00  0.00     0.172 C 
ATOM     85  OE1 GLU d   9     267.491  56.002-234.186  0.00  0.00    -0.648 OA
ATOM     86  OE2 GLU d   9     269.133  57.231-234.947  0.00  0.00    -0.648 OA
ENDBRANCH  83  84
ENDBRANCH  82  83
ENDBRANCH   5  82
ENDBRANCH   1   5
BRANCH   3  87
ATOM     87  CA  HIS d  10     267.208  54.108-240.331  0.00  0.00     0.182 C 
BRANCH  87  88
ATOM     88  C   HIS d  10     266.844  54.673-241.683  0.00  0.00     0.241 C 
ATOM     89  O   HIS d  10     267.697  55.138-242.453  0.00  0.00    -0.271 OA
ATOM     90  N   VAL d  11     265.606  54.672-242.048  0.00  0.00    -0.346 N 
ATOM     91  H   VAL d  11     264.893  54.299-241.439  0.00  0.00     0.163 HD
BRANCH  90  92
ATOM     92  CA  VAL d  11     265.254  55.218-243.356  0.00  0.00     0.180 C 
BRANCH  92  93
ATOM     93  C   VAL d  11     265.718  56.648-243.487  0.00  0.00     0.241 C 
ATOM     94  O   VAL d  11     266.321  57.054-244.489  0.00  0.00    -0.271 OA
ATOM     95  N   GLN d  12     265.479  57.474-242.525  0.00  0.00    -0.346 N 
ATOM     96  H   GLN d  12     264.989  57.168-241.697  0.00  0.00     0.163 HD
BRANCH  95  97
ATOM     97  CA  GLN d  12     265.927  58.857-242.651  0.00  0.00     0.177 C 
BRANCH  97  98
ATOM     98  C   GLN d  12     267.418  58.925-242.887  0.00  0.00     0.241 C 
ATOM     99  O   GLN d  12     267.906  59.633-243.764  0.00  0.00    -0.271 OA
ATOM    100  N   ARG d  13     268.201  58.218-242.144  0.00  0.00    -0.346 N 
ATOM    101  H   ARG d  13     267.824  57.628-241.417  0.00  0.00     0.163 HD
BRANCH 100 102
ATOM    102  CA  ARG d  13     269.642  58.284-242.372  0.00  0.00     0.176 C 
BRANCH 102 103
ATOM    103  C   ARG d  13     269.981  57.913-243.797  0.00  0.00     0.241 C 
ATOM    104  O   ARG d  13     270.750  58.585-244.480  0.00  0.00    -0.271 OA
ATOM    105  N   VAL d  14     269.446  56.859-244.312  0.00  0.00    -0.346 N 
ATOM    106  H   VAL d  14     268.810  56.290-243.772  0.00  0.00     0.163 HD
BRANCH 105 107
ATOM    107  CA  VAL d  14     269.773  56.500-245.689  0.00  0.00     0.180 C 
BRANCH 107 108
ATOM    108  C   VAL d  14     269.445  57.630-246.635  0.00  0.00     0.241 C 
ATOM    109  O   VAL d  14     270.240  58.011-247.504  0.00  0.00    -0.271 OA
ATOM    110  N   MET d  15     268.299  58.215-246.536  0.00  0.00    -0.346 N 
ATOM    111  H   MET d  15     267.633  57.922-245.835  0.00  0.00     0.163 HD
BRANCH 110 112
ATOM    112  CA  MET d  15     267.980  59.308-247.450  0.00  0.00     0.177 C 
BRANCH 112 113
ATOM    113  C   MET d  15     269.010  60.408-247.360  0.00  0.00     0.241 C 
ATOM    114  O   MET d  15     269.515  60.919-248.372  0.00  0.00    -0.271 OA
ATOM    115  N   ARG d  16     269.377  60.829-246.197  0.00  0.00    -0.347 N 
ATOM    116  H   ARG d  16     268.981  60.429-245.359  0.00  0.00     0.163 HD
BRANCH 115 117
ATOM    117  CA  ARG d  16     270.373  61.893-246.111  0.00  0.00     0.162 C 
BRANCH 117 118
ATOM    118  C   ARG d  16     271.645  61.501-246.825  0.00  0.00     0.219 C 
ATOM    119  O   ARG d  16     271.760  60.425-247.407  0.00  0.00    -0.287 OA
ENDBRANCH 117 118
BRANCH 117 120
ATOM    120  CB  ARG d  16     270.639  62.211-244.613  0.00  0.00     0.035 C 
BRANCH 120 121
ATOM    121  CG  ARG d  16     271.463  63.500-244.338  0.00  0.00     0.023 C 
BRANCH 121 122
ATOM    122  CD  ARG d  16     271.710  63.720-242.836  0.00  0.00     0.138 C 
BRANCH 122 123
ATOM    123  NE  ARG d  16     272.486  64.979-242.634  0.00  0.00    -0.227 N 
ATOM    124  CZ  ARG d  16     272.875  65.461-241.458  0.00  0.00     0.665 C 
ATOM    125  NH1 ARG d  16     272.625  64.876-240.319  0.00  0.00    -0.235 N 
ATOM    126  NH2 ARG d  16     273.538  66.574-241.438  0.00  0.00    -0.235 N 
ATOM    127 11HH ARG d  16     272.100  64.003-240.405  0.00  0.00     0.174 HD
ATOM    128 12HH ARG d  16     272.958  65.312-239.458  0.00  0.00     0.174 HD
ATOM    129 21HH ARG d  16     273.725  67.017-242.339  0.00  0.00     0.174 HD
ATOM    130 22HH ARG d  16     273.827  66.929-240.525  0.00  0.00     0.174 HD
ATOM    131  HE  ARG d  16     272.766  65.560-243.431  0.00  0.00     0.177 HD
ENDBRANCH 122 123
ENDBRANCH 121 122
ENDBRANCH 120 121
ENDBRANCH 117 120
ENDBRANCH 115 117
ENDBRANCH 112 113
BRANCH 112 132
ATOM    132  CB  MET d  15     266.558  59.853-247.143  0.00  0.00     0.045 C 
BRANCH 132 133
ATOM    133  CG  MET d  15     265.397  58.855-247.337  0.00  0.00     0.076 C 
BRANCH 133 134
ATOM    134  SD  MET d  15     263.823  59.721-247.226  0.00  0.00    -0.173 SA
ATOM    135  CE  MET d  15     262.741  58.291-247.091  0.00  0.00     0.089 C 
ENDBRANCH 133 134
ENDBRANCH 132 133
ENDBRANCH 112 132
ENDBRANCH 110 112
ENDBRANCH 107 108
BRANCH 107 136
ATOM    136  CB  VAL d  14     269.002  55.182-246.098  0.00  0.00     0.009 C 
ATOM    137  CG1 VAL d  14     269.094  54.764-247.591  0.00  0.00     0.012 C 
ATOM    138  CG2 VAL d  14     269.433  53.930-245.297  0.00  0.00     0.012 C 
ENDBRANCH 107 136
ENDBRANCH 105 107
ENDBRANCH 102 103
BRANCH 102 139
ATOM    139  CB  ARG d  13     270.354  57.345-241.357  0.00  0.00     0.036 C 
BRANCH 139 140
ATOM    140  CG  ARG d  13     271.898  57.499-241.274  0.00  0.00     0.023 C 
BRANCH 140 141
ATOM    141  CD  ARG d  13     272.524  56.511-240.275  0.00  0.00     0.138 C 
BRANCH 141 142
ATOM    142  NE  ARG d  13     274.001  56.719-240.222  0.00  0.00    -0.227 N 
ATOM    143  CZ  ARG d  13     274.848  56.027-239.465  0.00  0.00     0.665 C 
ATOM    144  NH1 ARG d  13     274.481  55.063-238.668  0.00  0.00    -0.235 N 
ATOM    145  NH2 ARG d  13     276.107  56.327-239.520  0.00  0.00    -0.235 N 
ATOM    146 11HH ARG d  13     273.476  54.876-238.673  0.00  0.00     0.174 HD
ATOM    147 12HH ARG d  13     275.194  54.580-238.118  0.00  0.00     0.174 HD
ATOM    148 21HH ARG d  13     276.376  57.085-240.150  0.00  0.00     0.174 HD
ATOM    149 22HH ARG d  13     276.741  55.785-238.930  0.00  0.00     0.174 HD
ATOM    150  HE  ARG d  13     274.453  57.441-240.791  0.00  0.00     0.177 HD
ENDBRANCH 141 142
ENDBRANCH 140 141
ENDBRANCH 139 140
ENDBRANCH 102 139
ENDBRANCH 100 102
ENDBRANCH  97  98
BRANCH  97 151
ATOM    151  CB  GLN d  12     265.534  59.624-241.369  0.00  0.00     0.044 C 
BRANCH 151 152
ATOM    152  CG  GLN d  12     265.894  61.146-241.337  0.00  0.00     0.105 C 
BRANCH 152 153
ATOM    153  CD  GLN d  12     265.589  61.959-240.073  0.00  0.00     0.215 C 
ATOM    154  NE2 GLN d  12     265.020  61.383-239.045  0.00  0.00    -0.370 N 
ATOM    155 21HE GLN d  12     264.911  61.977-238.222  0.00  0.00     0.159 HD
ATOM    156 22HE GLN d  12     264.857  60.379-239.149  0.00  0.00     0.159 HD
ATOM    157  OE1 GLN d  12     265.890  63.140-239.995  0.00  0.00    -0.274 OA
ENDBRANCH 152 153
ENDBRANCH 151 152
ENDBRANCH  97 151
ENDBRANCH  95  97
ENDBRANCH  92  93
BRANCH  92 158
ATOM    158  CB  VAL d  11     263.693  55.111-243.578  0.00  0.00     0.009 C 
ATOM    159  CG1 VAL d  11     263.126  55.815-244.842  0.00  0.00     0.012 C 
ATOM    160  CG2 VAL d  11     263.169  53.656-243.652  0.00  0.00     0.012 C 
ENDBRANCH  92 158
ENDBRANCH  90  92
ENDBRANCH  87  88
BRANCH  87 161
ATOM    161  CB  HIS d  10     267.044  52.579-240.327  0.00  0.00     0.095 C 
BRANCH 161 162
ATOM    162  CG  HIS d  10     268.330  51.869-240.016  0.00  0.00     0.053 A 
ATOM    163  CD2 HIS d  10     268.708  51.534-238.723  0.00  0.00     0.116 A 
ATOM    164  NE2 HIS d  10     269.923  50.902-238.788  0.00  0.00    -0.359 N 
ATOM    165  CE1 HIS d  10     270.189  50.905-240.122  0.00  0.00     0.207 A 
ATOM    166  2HE HIS d  10     270.489  50.525-238.014  0.00  0.00     0.166 HD
ATOM    167  ND1 HIS d  10     269.283  51.464-240.947  0.00  0.00    -0.247 NA
ENDBRANCH 161 162
ENDBRANCH  87 161
ENDBRANCH   3  87
TORSDOF 68
