REMARK WARNING: 32 MAX_TORS EXCEEDED!!!
REMARK  68 active torsions:
REMARK  status: ('A' for Active; 'I' for Inactive)
REMARK    1  A    between atoms: N_1  and  CA_2 
REMARK    2  A    between atoms: CA_2  and  C_3 
REMARK    3  A    between atoms: CA_2  and  CB_5 
REMARK       I    between atoms: C_3  and  N_11 
REMARK    4  A    between atoms: CB_5  and  CG_6 
REMARK    5  A    between atoms: CG_6  and  CD_7 
REMARK    6  A    between atoms: N_11  and  CA_12 
REMARK    7  A    between atoms: CA_12  and  C_13 
REMARK    8  A    between atoms: CA_12  and  CB_15 
REMARK       I    between atoms: C_13  and  N_22 
REMARK    9  A    between atoms: CB_15  and  CG_16 
REMARK       I    between atoms: CG_16  and  ND2_17 
REMARK   10  A    between atoms: CA_23  and  C_24 
REMARK       I    between atoms: C_24  and  N_29 
REMARK   11  A    between atoms: N_29  and  CA_30 
REMARK   12  A    between atoms: CA_30  and  C_31 
REMARK   13  A    between atoms: CA_30  and  CB_33 
REMARK       I    between atoms: C_31  and  N_39 
REMARK   14  A    between atoms: CB_33  and  CG_34 
REMARK   15  A    between atoms: CG_34  and  CD_35 
REMARK   16  A    between atoms: N_39  and  CA_40 
REMARK   17  A    between atoms: CA_40  and  C_41 
REMARK   18  A    between atoms: CA_40  and  CB_43 
REMARK       I    between atoms: C_41  and  N_47 
REMARK   19  A    between atoms: CB_43  and  OG_44 
REMARK   20  A    between atoms: N_47  and  CA_48 
REMARK   21  A    between atoms: CA_48  and  C_49 
REMARK   22  A    between atoms: CA_48  and  CB_51 
REMARK       I    between atoms: C_49  and  N_55 
REMARK   23  A    between atoms: CB_51  and  SG_52 
REMARK   24  A    between atoms: N_55  and  CA_56 
REMARK   25  A    between atoms: CA_56  and  C_57 
REMARK   26  A    between atoms: CA_56  and  CB_59 
REMARK       I    between atoms: C_57  and  N_64 
REMARK   27  A    between atoms: CB_59  and  CG_60 
REMARK   28  A    between atoms: N_64  and  CA_65 
REMARK   29  A    between atoms: CA_65  and  C_66 
REMARK   30  A    between atoms: CA_65  and  CB_68 
REMARK       I    between atoms: C_66  and  N_73 
REMARK   31  A    between atoms: CB_68  and  CG_69 
REMARK   32  A    between atoms: N_73  and  CA_74 
REMARK   33  A    between atoms: CA_74  and  C_75 
REMARK   34  A    between atoms: CA_74  and  CB_77 
REMARK       I    between atoms: C_75  and  N_83 
REMARK   35  A    between atoms: CB_77  and  CG_78 
REMARK   36  A    between atoms: CG_78  and  CD_79 
REMARK   37  A    between atoms: N_83  and  CA_84 
REMARK   38  A    between atoms: CA_84  and  C_85 
REMARK   39  A    between atoms: CA_84  and  CB_87 
REMARK       I    between atoms: C_85  and  N_95 
REMARK   40  A    between atoms: CB_87  and  CG_88 
REMARK   41  A    between atoms: N_95  and  CA_96 
REMARK   42  A    between atoms: CA_96  and  C_97 
REMARK   43  A    between atoms: CA_96  and  CB_99 
REMARK       I    between atoms: C_97  and  N_103 
REMARK   44  A    between atoms: N_103  and  CA_104 
REMARK   45  A    between atoms: CA_104  and  C_105 
REMARK   46  A    between atoms: CA_104  and  CB_107 
REMARK       I    between atoms: C_105  and  N_115 
REMARK   47  A    between atoms: CB_107  and  CG_108 
REMARK   48  A    between atoms: CG_108  and  CD_109 
REMARK       I    between atoms: CD_109  and  NE2_110 
REMARK   49  A    between atoms: N_115  and  CA_116 
REMARK   50  A    between atoms: CA_116  and  C_117 
REMARK   51  A    between atoms: CA_116  and  CB_119 
REMARK       I    between atoms: C_117  and  N_132 
REMARK   52  A    between atoms: CB_119  and  CG_120 
REMARK   53  A    between atoms: CG_120  and  CD_121 
REMARK   54  A    between atoms: CD_121  and  NE_122 
REMARK       I    between atoms: NE_122  and  CZ_123 
REMARK       I    between atoms: CZ_123  and  NH1_124 
REMARK       I    between atoms: CZ_123  and  NH2_125 
REMARK   55  A    between atoms: N_132  and  CA_133 
REMARK   56  A    between atoms: CA_133  and  C_134 
REMARK   57  A    between atoms: CA_133  and  CB_136 
REMARK       I    between atoms: C_134  and  N_140 
REMARK   58  A    between atoms: N_140  and  CA_141 
REMARK   59  A    between atoms: CA_141  and  C_142 
REMARK   60  A    between atoms: CA_141  and  CB_144 
REMARK       I    between atoms: C_142  and  N_149 
REMARK   61  A    between atoms: CB_144  and  CG_145 
REMARK   62  A    between atoms: CG_145  and  SD_146 
REMARK   63  A    between atoms: N_149  and  CA_150 
REMARK   64  A    between atoms: CA_150  and  C_151 
REMARK   65  A    between atoms: CA_150  and  CB_153 
REMARK   66  A    between atoms: CB_153  and  CG_154 
REMARK   67  A    between atoms: CG_154  and  CD_155 
REMARK   68  A    between atoms: CD_155  and  NE_156 
REMARK       I    between atoms: NE_156  and  CZ_157 
REMARK       I    between atoms: CZ_157  and  NH1_158 
ROOT
ATOM      1  C   GLU d   9     961.238 266.487-931.708  0.00  0.00     0.241 C 
ATOM      2  O   GLU d   9     961.902 267.241-932.434  0.00  0.00    -0.271 OA
ATOM      3  N   HIS d  10     961.334 265.211-931.877  0.00  0.00    -0.346 N 
ATOM      4  H   HIS d  10     960.803 264.576-931.299  0.00  0.00     0.163 HD
ENDROOT
BRANCH   3   5
ATOM      5  CA  HIS d  10     962.222 264.700-932.917  0.00  0.00     0.182 C 
BRANCH   5   6
ATOM      6  C   HIS d  10     961.855 265.264-934.269  0.00  0.00     0.241 C 
ATOM      7  O   HIS d  10     962.708 265.728-935.040  0.00  0.00    -0.271 OA
ATOM      8  N   VAL d  11     960.617 265.263-934.632  0.00  0.00    -0.346 N 
ATOM      9  H   VAL d  11     959.904 264.890-934.021  0.00  0.00     0.163 HD
BRANCH   8  10
ATOM     10  CA  VAL d  11     960.263 265.809-935.939  0.00  0.00     0.180 C 
BRANCH  10  11
ATOM     11  C   VAL d  11     960.727 267.240-936.071  0.00  0.00     0.241 C 
ATOM     12  O   VAL d  11     961.328 267.644-937.074  0.00  0.00    -0.271 OA
ATOM     13  N   GLN d  12     960.490 268.066-935.109  0.00  0.00    -0.346 N 
ATOM     14  H   GLN d  12     960.001 267.760-934.280  0.00  0.00     0.163 HD
BRANCH  13  15
ATOM     15  CA  GLN d  12     960.939 269.448-935.237  0.00  0.00     0.177 C 
BRANCH  15  16
ATOM     16  C   GLN d  12     962.429 269.516-935.474  0.00  0.00     0.241 C 
ATOM     17  O   GLN d  12     962.916 270.224-936.353  0.00  0.00    -0.271 OA
ATOM     18  N   ARG d  13     963.213 268.809-934.733  0.00  0.00    -0.346 N 
ATOM     19  H   ARG d  13     962.837 268.219-934.005  0.00  0.00     0.163 HD
BRANCH  18  20
ATOM     20  CA  ARG d  13     964.654 268.874-934.964  0.00  0.00     0.176 C 
BRANCH  20  21
ATOM     21  C   ARG d  13     964.990 268.503-936.389  0.00  0.00     0.241 C 
ATOM     22  O   ARG d  13     965.758 269.174-937.074  0.00  0.00    -0.271 OA
ATOM     23  N   VAL d  14     964.453 267.448-936.903  0.00  0.00    -0.346 N 
ATOM     24  H   VAL d  14     963.818 266.880-936.361  0.00  0.00     0.163 HD
BRANCH  23  25
ATOM     25  CA  VAL d  14     964.778 267.088-938.281  0.00  0.00     0.180 C 
BRANCH  25  26
ATOM     26  C   VAL d  14     964.448 268.218-939.227  0.00  0.00     0.241 C 
ATOM     27  O   VAL d  14     965.241 268.600-940.096  0.00  0.00    -0.271 OA
ATOM     28  N   MET d  15     963.303 268.804-939.125  0.00  0.00    -0.346 N 
ATOM     29  H   MET d  15     962.638 268.512-938.423  0.00  0.00     0.163 HD
BRANCH  28  30
ATOM     30  CA  MET d  15     962.983 269.897-940.039  0.00  0.00     0.177 C 
BRANCH  30  31
ATOM     31  C   MET d  15     964.013 270.997-939.951  0.00  0.00     0.241 C 
ATOM     32  O   MET d  15     964.516 271.507-940.964  0.00  0.00    -0.271 OA
ATOM     33  N   ARG d  16     964.382 271.418-938.789  0.00  0.00    -0.347 N 
ATOM     34  H   ARG d  16     963.987 271.018-937.950  0.00  0.00     0.163 HD
BRANCH  33  35
ATOM     35  CA  ARG d  16     965.379 272.482-938.706  0.00  0.00     0.162 C 
BRANCH  35  36
ATOM     36  C   ARG d  16     966.649 272.089-939.422  0.00  0.00     0.219 C 
ATOM     37  O   ARG d  16     966.763 271.012-940.003  0.00  0.00    -0.287 OA
ENDBRANCH  35  36
BRANCH  35  38
ATOM     38  CB  ARG d  16     965.648 272.800-937.208  0.00  0.00     0.035 C 
BRANCH  38  39
ATOM     39  CG  ARG d  16     966.474 274.089-936.935  0.00  0.00     0.023 C 
BRANCH  39  40
ATOM     40  CD  ARG d  16     966.723 274.308-935.434  0.00  0.00     0.138 C 
BRANCH  40  41
ATOM     41  NE  ARG d  16     967.500 275.567-935.233  0.00  0.00    -0.227 N 
ATOM     42  CZ  ARG d  16     967.891 276.050-934.058  0.00  0.00     0.665 C 
ATOM     43  NH1 ARG d  16     967.644 275.466-932.919  0.00  0.00    -0.235 N 
ATOM     44  NH2 ARG d  16     968.555 277.162-934.040  0.00  0.00    -0.235 N 
ATOM     45 11HH ARG d  16     967.118 274.593-933.003  0.00  0.00     0.174 HD
ATOM     46 12HH ARG d  16     967.978 275.901-932.058  0.00  0.00     0.174 HD
ATOM     47 21HH ARG d  16     968.741 277.605-934.942  0.00  0.00     0.174 HD
ATOM     48 22HH ARG d  16     968.846 277.518-933.127  0.00  0.00     0.174 HD
ATOM     49  HE  ARG d  16     967.778 276.148-936.031  0.00  0.00     0.177 HD
ENDBRANCH  40  41
ENDBRANCH  39  40
ENDBRANCH  38  39
ENDBRANCH  35  38
ENDBRANCH  33  35
ENDBRANCH  30  31
BRANCH  30  50
ATOM     50  CB  MET d  15     961.562 270.443-939.730  0.00  0.00     0.045 C 
BRANCH  50  51
ATOM     51  CG  MET d  15     960.399 269.445-939.921  0.00  0.00     0.076 C 
BRANCH  51  52
ATOM     52  SD  MET d  15     958.826 270.311-939.807  0.00  0.00    -0.173 SA
ATOM     53  CE  MET d  15     957.744 268.882-939.670  0.00  0.00     0.089 C 
ENDBRANCH  51  52
ENDBRANCH  50  51
ENDBRANCH  30  50
ENDBRANCH  28  30
ENDBRANCH  25  26
BRANCH  25  54
ATOM     54  CB  VAL d  14     964.005 265.771-938.687  0.00  0.00     0.009 C 
ATOM     55  CG1 VAL d  14     964.094 265.353-940.181  0.00  0.00     0.012 C 
ATOM     56  CG2 VAL d  14     964.437 264.519-937.887  0.00  0.00     0.012 C 
ENDBRANCH  25  54
ENDBRANCH  23  25
ENDBRANCH  20  21
BRANCH  20  57
ATOM     57  CB  ARG d  13     965.367 267.935-933.950  0.00  0.00     0.036 C 
BRANCH  57  58
ATOM     58  CG  ARG d  13     966.912 268.088-933.869  0.00  0.00     0.023 C 
BRANCH  58  59
ATOM     59  CD  ARG d  13     967.539 267.101-932.871  0.00  0.00     0.138 C 
BRANCH  59  60
ATOM     60  NE  ARG d  13     969.016 267.308-932.821  0.00  0.00    -0.227 N 
ATOM     61  CZ  ARG d  13     969.864 266.616-932.065  0.00  0.00     0.665 C 
ATOM     62  NH1 ARG d  13     969.498 265.652-931.268  0.00  0.00    -0.235 N 
ATOM     63  NH2 ARG d  13     971.123 266.915-932.123  0.00  0.00    -0.235 N 
ATOM     64 11HH ARG d  13     968.493 265.466-931.271  0.00  0.00     0.174 HD
ATOM     65 12HH ARG d  13     970.211 265.169-930.719  0.00  0.00     0.174 HD
ATOM     66 21HH ARG d  13     971.391 267.672-932.754  0.00  0.00     0.174 HD
ATOM     67 22HH ARG d  13     971.758 266.373-931.534  0.00  0.00     0.174 HD
ATOM     68  HE  ARG d  13     969.467 268.030-933.392  0.00  0.00     0.177 HD
ENDBRANCH  59  60
ENDBRANCH  58  59
ENDBRANCH  57  58
ENDBRANCH  20  57
ENDBRANCH  18  20
ENDBRANCH  15  16
BRANCH  15  69
ATOM     69  CB  GLN d  12     960.548 270.216-933.954  0.00  0.00     0.044 C 
BRANCH  69  70
ATOM     70  CG  GLN d  12     960.908 271.738-933.923  0.00  0.00     0.105 C 
BRANCH  70  71
ATOM     71  CD  GLN d  12     960.606 272.552-932.658  0.00  0.00     0.215 C 
ATOM     72  NE2 GLN d  12     960.039 271.975-931.629  0.00  0.00    -0.370 N 
ATOM     73 21HE GLN d  12     959.932 272.570-930.806  0.00  0.00     0.159 HD
ATOM     74 22HE GLN d  12     959.875 270.972-931.733  0.00  0.00     0.159 HD
ATOM     75  OE1 GLN d  12     960.908 273.733-932.581  0.00  0.00    -0.274 OA
ENDBRANCH  70  71
ENDBRANCH  69  70
ENDBRANCH  15  69
ENDBRANCH  13  15
ENDBRANCH  10  11
BRANCH  10  76
ATOM     76  CB  VAL d  11     958.701 265.703-936.158  0.00  0.00     0.009 C 
ATOM     77  CG1 VAL d  11     958.133 266.406-937.421  0.00  0.00     0.012 C 
ATOM     78  CG2 VAL d  11     958.177 264.248-936.231  0.00  0.00     0.012 C 
ENDBRANCH  10  76
ENDBRANCH   8  10
ENDBRANCH   5   6
BRANCH   5  79
ATOM     79  CB  HIS d  10     962.058 263.171-932.912  0.00  0.00     0.095 C 
BRANCH  79  80
ATOM     80  CG  HIS d  10     963.343 262.460-932.604  0.00  0.00     0.053 A 
ATOM     81  CD2 HIS d  10     963.724 262.125-931.311  0.00  0.00     0.116 A 
ATOM     82  NE2 HIS d  10     964.939 261.494-931.378  0.00  0.00    -0.359 N 
ATOM     83  CE1 HIS d  10     965.202 261.496-932.713  0.00  0.00     0.207 A 
ATOM     84  2HE HIS d  10     965.506 261.117-930.604  0.00  0.00     0.166 HD
ATOM     85  ND1 HIS d  10     964.295 262.054-933.536  0.00  0.00    -0.247 NA
ENDBRANCH  79  80
ENDBRANCH   5  79
ENDBRANCH   3   5
BRANCH   1  86
ATOM     86  CA  GLU d   9     960.320 267.015-930.632  0.00  0.00     0.177 C 
BRANCH  86  87
ATOM     87  N   GLU d   9     959.017 266.357-930.688  0.00  0.00    -0.346 N 
ATOM     88  C   ASP d   8     958.337 266.407-931.783  0.00  0.00     0.241 C 
ATOM     89  O   ASP d   8     958.810 267.012-932.758  0.00  0.00    -0.271 OA
ATOM     90  H   GLU d   9     958.653 265.871-929.880  0.00  0.00     0.163 HD
BRANCH  88  91
ATOM     91  CA  ASP d   8     956.990 265.727-931.840  0.00  0.00     0.186 C 
BRANCH  91  92
ATOM     92  N   ASP d   8     957.060 264.378-931.286  0.00  0.00    -0.346 N 
ATOM     93  C   LEU d   7     957.898 263.537-931.792  0.00  0.00     0.241 C 
ATOM     94  O   LEU d   7     958.618 263.899-932.734  0.00  0.00    -0.271 OA
ATOM     95  H   ASP d   8     956.463 264.107-930.519  0.00  0.00     0.163 HD
BRANCH  93  96
ATOM     96  CA  LEU d   7     957.970 262.142-931.220  0.00  0.00     0.177 C 
BRANCH  96  97
ATOM     97  N   LEU d   7     958.025 262.178-929.761  0.00  0.00    -0.346 N 
ATOM     98  C   CYS d   6     958.971 262.842-929.188  0.00  0.00     0.241 C 
ATOM     99  O   CYS d   6     959.805 263.429-929.891  0.00  0.00    -0.271 OA
ATOM    100  H   LEU d   7     957.332 261.691-929.210  0.00  0.00     0.163 HD
BRANCH  98 101
ATOM    101  CA  CYS d   6     959.028 262.880-927.679  0.00  0.00     0.185 C 
BRANCH 101 102
ATOM    102  N   CYS d   6     957.714 263.175-927.113  0.00  0.00    -0.345 N 
ATOM    103  C   SER d   5     957.109 264.258-927.467  0.00  0.00     0.243 C 
ATOM    104  O   SER d   5     957.656 265.012-928.272  0.00  0.00    -0.271 OA
ATOM    105  H   CYS d   6     957.286 262.541-926.454  0.00  0.00     0.163 HD
BRANCH 103 106
ATOM    106  CA  SER d   5     955.750 264.563-926.881  0.00  0.00     0.200 C 
BRANCH 106 107
ATOM    107  N   SER d   5     954.881 263.392-926.940  0.00  0.00    -0.344 N 
ATOM    108  C   GLU d   4     954.654 262.839-928.083  0.00  0.00     0.241 C 
ATOM    109  O   GLU d   4     955.180 263.319-929.098  0.00  0.00    -0.271 OA
ATOM    110  H   SER d   5     954.464 263.020-926.099  0.00  0.00     0.163 HD
BRANCH 108 111
ATOM    111  CA  GLU d   4     953.755 261.628-928.144  0.00  0.00     0.177 C 
BRANCH 111 112
ATOM    112  N   GLU d   4     954.114 260.657-927.115  0.00  0.00    -0.346 N 
ATOM    113  C   PRO d   3     955.319 260.197-927.082  0.00  0.00     0.241 C 
ATOM    114  O   PRO d   3     956.143 260.581-927.914  0.00  0.00    -0.271 OA
ATOM    115  H   GLU d   4     953.430 260.350-926.438  0.00  0.00     0.163 HD
BRANCH 113 116
ATOM    116  CA  PRO d   3     955.717 259.174-926.005  0.00  0.00     0.179 C 
ATOM    117  N   PRO d   3     955.266 259.583-924.684  0.00  0.00    -0.337 N 
ATOM    118  C   ASN d   2     955.787 260.578-924.050  0.00  0.00     0.243 C 
ATOM    119  CD  PRO d   3     954.188 258.790-924.135  0.00  0.00     0.127 C 
ATOM    120  O   ASN d   2     956.702 261.209-924.578  0.00  0.00    -0.271 OA
ATOM    121  CG  PRO d   3     953.730 257.971-925.345  0.00  0.00     0.022 C 
ATOM    122  CB  PRO d   3     955.013 257.819-926.175  0.00  0.00     0.037 C 
BRANCH 118 123
ATOM    123  CA  ASN d   2     955.256 260.934-922.681  0.00  0.00     0.185 C 
BRANCH 123 124
ATOM    124  N   ASN d   2     953.796 260.972-922.681  0.00  0.00    -0.346 N 
ATOM    125  C   GLU d   1     953.192 261.758-923.506  0.00  0.00     0.242 C 
ATOM    126  O   GLU d   1     953.868 262.457-924.275  0.00  0.00    -0.271 OA
ATOM    127  H   ASN d   2     953.268 260.393-922.045  0.00  0.00     0.163 HD
BRANCH 125 128
ATOM    128  CA  GLU d   1     951.683 261.798-923.506  0.00  0.00     0.191 C 
BRANCH 128 129
ATOM    129  N   GLU d   1     951.124 260.449-923.506  0.00  0.00    -0.326 NA
ATOM    130  H   GLU d   1     951.751 259.570-923.506  0.00  0.00     0.180 HD
ENDBRANCH 128 129
BRANCH 128 131
ATOM    131  CB  GLU d   1     951.160 262.583-922.269  0.00  0.00     0.047 C 
BRANCH 131 132
ATOM    132  CG  GLU d   1     951.635 264.068-922.158  0.00  0.00     0.116 C 
BRANCH 132 133
ATOM    133  CD  GLU d   1     951.211 264.872-920.943  0.00  0.00     0.172 C 
ATOM    134  OE1 GLU d   1     950.483 264.370-920.065  0.00  0.00    -0.648 OA
ATOM    135  OE2 GLU d   1     951.641 266.042-920.871  0.00  0.00    -0.648 OA
ENDBRANCH 132 133
ENDBRANCH 131 132
ENDBRANCH 128 131
ENDBRANCH 125 128
ENDBRANCH 123 124
BRANCH 123 136
ATOM    136  CB  ASN d   2     955.748 259.911-921.617  0.00  0.00     0.137 C 
BRANCH 136 137
ATOM    137  CG  ASN d   2     955.285 260.135-920.174  0.00  0.00     0.217 C 
ATOM    138  ND2 ASN d   2     955.879 261.050-919.455  0.00  0.00    -0.370 N 
ATOM    139 21HD ASN d   2     955.398 261.223-918.569  0.00  0.00     0.159 HD
ATOM    140 22HD ASN d   2     956.581 261.621-919.925  0.00  0.00     0.159 HD
ATOM    141  OD1 ASN d   2     954.364 259.501-919.679  0.00  0.00    -0.274 OA
ENDBRANCH 136 137
ENDBRANCH 123 136
ENDBRANCH 118 123
ENDBRANCH 113 116
ENDBRANCH 111 112
BRANCH 111 142
ATOM    142  CB  GLU d   4     952.266 262.047-927.974  0.00  0.00     0.045 C 
BRANCH 142 143
ATOM    143  CG  GLU d   4     951.718 263.050-929.040  0.00  0.00     0.116 C 
BRANCH 143 144
ATOM    144  CD  GLU d   4     950.291 263.547-928.896  0.00  0.00     0.172 C 
ATOM    145  OE1 GLU d   4     949.565 263.148-927.965  0.00  0.00    -0.648 OA
ATOM    146  OE2 GLU d   4     949.902 264.376-929.744  0.00  0.00    -0.648 OA
ENDBRANCH 143 144
ENDBRANCH 142 143
ENDBRANCH 111 142
ENDBRANCH 108 111
ENDBRANCH 106 107
BRANCH 106 147
ATOM    147  CB  SER d   5     955.862 265.096-925.431  0.00  0.00     0.199 C 
BRANCH 147 148
ATOM    148  OG  SER d   5     956.593 264.216-924.570  0.00  0.00    -0.398 OA
ATOM    149  HG  SER d   5     956.105 263.392-924.519  0.00  0.00     0.209 HD
ENDBRANCH 147 148
ENDBRANCH 106 147
ENDBRANCH 103 106
ENDBRANCH 101 102
BRANCH 101 150
ATOM    150  CB  CYS d   6     959.535 261.556-927.075  0.00  0.00     0.105 C 
BRANCH 150 151
ATOM    151  SG  CYS d   6     961.233 261.224-927.596  0.00  0.00    -0.180 SA
ATOM    152  HG  CYS d   6     960.946 260.268-928.476  0.00  0.00     0.101 HD
ENDBRANCH 150 151
ENDBRANCH 101 150
ENDBRANCH  98 101
ENDBRANCH  96  97
BRANCH  96 153
ATOM    153  CB  LEU d   7     956.766 261.282-931.700  0.00  0.00     0.038 C 
BRANCH 153 154
ATOM    154  CG  LEU d   7     956.693 259.802-931.233  0.00  0.00    -0.020 C 
ATOM    155  CD1 LEU d   7     955.503 259.097-931.898  0.00  0.00     0.009 C 
ATOM    156  CD2 LEU d   7     957.987 259.023-931.524  0.00  0.00     0.009 C 
ENDBRANCH 153 154
ENDBRANCH  96 153
ENDBRANCH  93  96
ENDBRANCH  91  92
BRANCH  91 157
ATOM    157  CB  ASP d   8     955.912 266.567-931.099  0.00  0.00     0.147 C 
BRANCH 157 158
ATOM    158  CG  ASP d   8     955.694 267.987-931.639  0.00  0.00     0.175 C 
ATOM    159  OD1 ASP d   8     955.758 268.186-932.870  0.00  0.00    -0.648 OA
ATOM    160  OD2 ASP d   8     955.502 268.913-930.824  0.00  0.00    -0.648 OA
ENDBRANCH 157 158
ENDBRANCH  91 157
ENDBRANCH  88  91
ENDBRANCH  86  87
BRANCH  86 161
ATOM    161  CB  GLU d   9     960.953 266.807-929.227  0.00  0.00     0.045 C 
BRANCH 161 162
ATOM    162  CG  GLU d   9     962.336 267.499-928.998  0.00  0.00     0.116 C 
BRANCH 162 163
ATOM    163  CD  GLU d   9     963.037 267.286-927.669  0.00  0.00     0.172 C 
ATOM    164  OE1 GLU d   9     962.516 266.596-926.773  0.00  0.00    -0.648 OA
ATOM    165  OE2 GLU d   9     964.157 267.824-927.538  0.00  0.00    -0.648 OA
ENDBRANCH 162 163
ENDBRANCH 161 162
ENDBRANCH  86 161
ENDBRANCH   1  86
TORSDOF 68
