REMARK WARNING: 32 MAX_TORS EXCEEDED!!!
REMARK  68 active torsions:
REMARK  status: ('A' for Active; 'I' for Inactive)
REMARK    1  A    between atoms: N_1  and  CA_2 
REMARK    2  A    between atoms: CA_2  and  C_3 
REMARK    3  A    between atoms: CA_2  and  CB_5 
REMARK       I    between atoms: C_3  and  N_11 
REMARK    4  A    between atoms: CB_5  and  CG_6 
REMARK    5  A    between atoms: CG_6  and  CD_7 
REMARK    6  A    between atoms: N_11  and  CA_12 
REMARK    7  A    between atoms: CA_12  and  C_13 
REMARK    8  A    between atoms: CA_12  and  CB_15 
REMARK       I    between atoms: C_13  and  N_22 
REMARK    9  A    between atoms: CB_15  and  CG_16 
REMARK       I    between atoms: CG_16  and  ND2_17 
REMARK   10  A    between atoms: CA_23  and  C_24 
REMARK       I    between atoms: C_24  and  N_29 
REMARK   11  A    between atoms: N_29  and  CA_30 
REMARK   12  A    between atoms: CA_30  and  C_31 
REMARK   13  A    between atoms: CA_30  and  CB_33 
REMARK       I    between atoms: C_31  and  N_39 
REMARK   14  A    between atoms: CB_33  and  CG_34 
REMARK   15  A    between atoms: CG_34  and  CD_35 
REMARK   16  A    between atoms: N_39  and  CA_40 
REMARK   17  A    between atoms: CA_40  and  C_41 
REMARK   18  A    between atoms: CA_40  and  CB_43 
REMARK       I    between atoms: C_41  and  N_47 
REMARK   19  A    between atoms: CB_43  and  OG_44 
REMARK   20  A    between atoms: N_47  and  CA_48 
REMARK   21  A    between atoms: CA_48  and  C_49 
REMARK   22  A    between atoms: CA_48  and  CB_51 
REMARK       I    between atoms: C_49  and  N_56 
REMARK   23  A    between atoms: CB_51  and  CG_52 
REMARK   24  A    between atoms: N_56  and  CA_57 
REMARK   25  A    between atoms: CA_57  and  C_58 
REMARK   26  A    between atoms: CA_57  and  CB_60 
REMARK       I    between atoms: C_58  and  N_65 
REMARK   27  A    between atoms: CB_60  and  CG_61 
REMARK   28  A    between atoms: N_65  and  CA_66 
REMARK   29  A    between atoms: CA_66  and  C_67 
REMARK   30  A    between atoms: CA_66  and  CB_69 
REMARK       I    between atoms: C_67  and  N_74 
REMARK   31  A    between atoms: CB_69  and  CG_70 
REMARK   32  A    between atoms: N_74  and  CA_75 
REMARK   33  A    between atoms: CA_75  and  C_76 
REMARK   34  A    between atoms: CA_75  and  CB_78 
REMARK       I    between atoms: C_76  and  N_84 
REMARK   35  A    between atoms: CB_78  and  CG_79 
REMARK   36  A    between atoms: CG_79  and  CD_80 
REMARK   37  A    between atoms: N_84  and  CA_85 
REMARK   38  A    between atoms: CA_85  and  C_86 
REMARK   39  A    between atoms: CA_85  and  CB_88 
REMARK       I    between atoms: C_86  and  N_96 
REMARK   40  A    between atoms: CB_88  and  CG_89 
REMARK   41  A    between atoms: N_96  and  CA_97 
REMARK   42  A    between atoms: CA_97  and  C_98 
REMARK   43  A    between atoms: CA_97  and  CB_100 
REMARK       I    between atoms: C_98  and  N_104 
REMARK   44  A    between atoms: N_104  and  CA_105 
REMARK   45  A    between atoms: CA_105  and  C_106 
REMARK   46  A    between atoms: CA_105  and  CB_108 
REMARK       I    between atoms: C_106  and  N_116 
REMARK   47  A    between atoms: CB_108  and  CG_109 
REMARK   48  A    between atoms: CG_109  and  CD_110 
REMARK       I    between atoms: CD_110  and  NE2_111 
REMARK   49  A    between atoms: N_116  and  CA_117 
REMARK   50  A    between atoms: CA_117  and  C_118 
REMARK   51  A    between atoms: CA_117  and  CB_120 
REMARK       I    between atoms: C_118  and  N_133 
REMARK   52  A    between atoms: CB_120  and  CG_121 
REMARK   53  A    between atoms: CG_121  and  CD_122 
REMARK   54  A    between atoms: CD_122  and  NE_123 
REMARK       I    between atoms: NE_123  and  CZ_124 
REMARK       I    between atoms: CZ_124  and  NH1_125 
REMARK       I    between atoms: CZ_124  and  NH2_126 
REMARK   55  A    between atoms: N_133  and  CA_134 
REMARK   56  A    between atoms: CA_134  and  C_135 
REMARK   57  A    between atoms: CA_134  and  CB_137 
REMARK       I    between atoms: C_135  and  N_141 
REMARK   58  A    between atoms: N_141  and  CA_142 
REMARK   59  A    between atoms: CA_142  and  C_143 
REMARK   60  A    between atoms: CA_142  and  CB_145 
REMARK       I    between atoms: C_143  and  N_150 
REMARK   61  A    between atoms: CB_145  and  CG_146 
REMARK   62  A    between atoms: CG_146  and  SD_147 
REMARK   63  A    between atoms: N_150  and  CA_151 
REMARK   64  A    between atoms: CA_151  and  C_152 
REMARK   65  A    between atoms: CA_151  and  CB_154 
REMARK   66  A    between atoms: CB_154  and  CG_155 
REMARK   67  A    between atoms: CG_155  and  CD_156 
REMARK   68  A    between atoms: CD_156  and  NE_157 
REMARK       I    between atoms: NE_157  and  CZ_158 
REMARK       I    between atoms: CZ_158  and  NH1_159 
ROOT
ATOM      1  C   GLU d   9     919.927 253.072-887.638  0.00  0.00     0.241 C 
ATOM      2  O   GLU d   9     920.591 253.827-888.364  0.00  0.00    -0.271 OA
ATOM      3  N   HIS d  10     920.024 251.797-887.808  0.00  0.00    -0.346 N 
ATOM      4  H   HIS d  10     919.494 251.162-887.229  0.00  0.00     0.163 HD
ENDROOT
BRANCH   1   5
ATOM      5  CA  GLU d   9     919.010 253.600-886.562  0.00  0.00     0.177 C 
BRANCH   5   6
ATOM      6  N   GLU d   9     917.708 252.942-886.616  0.00  0.00    -0.346 N 
ATOM      7  C   ASP d   8     917.027 252.992-887.710  0.00  0.00     0.241 C 
ATOM      8  O   ASP d   8     917.498 253.597-888.685  0.00  0.00    -0.271 OA
ATOM      9  H   GLU d   9     917.345 252.455-885.808  0.00  0.00     0.163 HD
BRANCH   7  10
ATOM     10  CA  ASP d   8     915.680 252.312-887.766  0.00  0.00     0.186 C 
BRANCH  10  11
ATOM     11  N   ASP d   8     915.751 250.962-887.213  0.00  0.00    -0.346 N 
ATOM     12  C   LEU d   7     916.588 250.122-887.720  0.00  0.00     0.241 C 
ATOM     13  O   LEU d   7     917.308 250.484-888.662  0.00  0.00    -0.271 OA
ATOM     14  H   ASP d   8     915.154 250.691-886.444  0.00  0.00     0.163 HD
BRANCH  12  15
ATOM     15  CA  LEU d   7     916.661 248.726-887.147  0.00  0.00     0.177 C 
BRANCH  15  16
ATOM     16  N   LEU d   7     916.718 248.763-885.688  0.00  0.00    -0.346 N 
ATOM     17  C   LEU d   6     917.664 249.426-885.116  0.00  0.00     0.241 C 
ATOM     18  O   LEU d   6     918.498 250.014-885.821  0.00  0.00    -0.271 OA
ATOM     19  H   LEU d   7     916.026 248.275-885.136  0.00  0.00     0.163 HD
BRANCH  17  20
ATOM     20  CA  LEU d   6     917.722 249.464-883.608  0.00  0.00     0.177 C 
BRANCH  20  21
ATOM     21  N   LEU d   6     916.409 249.759-883.041  0.00  0.00    -0.346 N 
ATOM     22  C   SER d   5     915.804 250.841-883.396  0.00  0.00     0.243 C 
ATOM     23  O   SER d   5     916.352 251.595-884.201  0.00  0.00    -0.271 OA
ATOM     24  H   LEU d   6     915.981 249.124-882.382  0.00  0.00     0.163 HD
BRANCH  22  25
ATOM     25  CA  SER d   5     914.445 251.147-882.810  0.00  0.00     0.200 C 
BRANCH  25  26
ATOM     26  N   SER d   5     913.576 249.975-882.869  0.00  0.00    -0.344 N 
ATOM     27  C   GLU d   4     913.349 249.423-884.012  0.00  0.00     0.241 C 
ATOM     28  O   GLU d   4     913.875 249.902-885.026  0.00  0.00    -0.271 OA
ATOM     29  H   SER d   5     913.159 249.604-882.027  0.00  0.00     0.163 HD
BRANCH  27  30
ATOM     30  CA  GLU d   4     912.450 248.211-884.073  0.00  0.00     0.177 C 
BRANCH  30  31
ATOM     31  N   GLU d   4     912.810 247.240-883.043  0.00  0.00    -0.346 N 
ATOM     32  C   PRO d   3     914.015 246.780-883.011  0.00  0.00     0.241 C 
ATOM     33  O   PRO d   3     914.838 247.164-883.842  0.00  0.00    -0.271 OA
ATOM     34  H   GLU d   4     912.126 246.934-882.367  0.00  0.00     0.163 HD
BRANCH  32  35
ATOM     35  CA  PRO d   3     914.413 245.757-881.934  0.00  0.00     0.179 C 
ATOM     36  N   PRO d   3     913.961 246.166-880.612  0.00  0.00    -0.337 N 
ATOM     37  C   ASN d   2     914.482 247.161-879.978  0.00  0.00     0.243 C 
ATOM     38  CD  PRO d   3     912.883 245.373-880.063  0.00  0.00     0.127 C 
ATOM     39  O   ASN d   2     915.397 247.792-880.507  0.00  0.00    -0.271 OA
ATOM     40  CG  PRO d   3     912.426 244.554-881.273  0.00  0.00     0.022 C 
ATOM     41  CB  PRO d   3     913.709 244.402-882.103  0.00  0.00     0.037 C 
BRANCH  37  42
ATOM     42  CA  ASN d   2     913.951 247.517-878.610  0.00  0.00     0.185 C 
BRANCH  42  43
ATOM     43  N   ASN d   2     912.492 247.555-878.610  0.00  0.00    -0.346 N 
ATOM     44  C   GLU d   1     911.887 248.341-879.435  0.00  0.00     0.242 C 
ATOM     45  O   GLU d   1     912.563 249.040-880.203  0.00  0.00    -0.271 OA
ATOM     46  H   ASN d   2     911.964 246.976-877.973  0.00  0.00     0.163 HD
BRANCH  44  47
ATOM     47  CA  GLU d   1     910.378 248.381-879.435  0.00  0.00     0.191 C 
BRANCH  47  48
ATOM     48  N   GLU d   1     909.819 247.032-879.435  0.00  0.00    -0.326 NA
ATOM     49  H   GLU d   1     910.446 246.153-879.435  0.00  0.00     0.180 HD
ENDBRANCH  47  48
BRANCH  47  50
ATOM     50  CB  GLU d   1     909.855 249.166-878.198  0.00  0.00     0.047 C 
BRANCH  50  51
ATOM     51  CG  GLU d   1     910.330 250.651-878.087  0.00  0.00     0.116 C 
BRANCH  51  52
ATOM     52  CD  GLU d   1     909.906 251.455-876.872  0.00  0.00     0.172 C 
ATOM     53  OE1 GLU d   1     909.178 250.953-875.994  0.00  0.00    -0.648 OA
ATOM     54  OE2 GLU d   1     910.336 252.625-876.800  0.00  0.00    -0.648 OA
ENDBRANCH  51  52
ENDBRANCH  50  51
ENDBRANCH  47  50
ENDBRANCH  44  47
ENDBRANCH  42  43
BRANCH  42  55
ATOM     55  CB  ASN d   2     914.443 246.494-877.545  0.00  0.00     0.137 C 
BRANCH  55  56
ATOM     56  CG  ASN d   2     913.980 246.718-876.102  0.00  0.00     0.217 C 
ATOM     57  ND2 ASN d   2     914.574 247.633-875.384  0.00  0.00    -0.370 N 
ATOM     58 21HD ASN d   2     914.094 247.806-874.497  0.00  0.00     0.159 HD
ATOM     59 22HD ASN d   2     915.276 248.204-875.853  0.00  0.00     0.159 HD
ATOM     60  OD1 ASN d   2     913.060 246.084-875.608  0.00  0.00    -0.274 OA
ENDBRANCH  55  56
ENDBRANCH  42  55
ENDBRANCH  37  42
ENDBRANCH  32  35
ENDBRANCH  30  31
BRANCH  30  61
ATOM     61  CB  GLU d   4     910.962 248.630-883.903  0.00  0.00     0.045 C 
BRANCH  61  62
ATOM     62  CG  GLU d   4     910.413 249.633-884.968  0.00  0.00     0.116 C 
BRANCH  62  63
ATOM     63  CD  GLU d   4     908.987 250.130-884.825  0.00  0.00     0.172 C 
ATOM     64  OE1 GLU d   4     908.260 249.731-883.894  0.00  0.00    -0.648 OA
ATOM     65  OE2 GLU d   4     908.597 250.959-885.673  0.00  0.00    -0.648 OA
ENDBRANCH  62  63
ENDBRANCH  61  62
ENDBRANCH  30  61
ENDBRANCH  27  30
ENDBRANCH  25  26
BRANCH  25  66
ATOM     66  CB  SER d   5     914.557 251.679-881.360  0.00  0.00     0.199 C 
BRANCH  66  67
ATOM     67  OG  SER d   5     915.289 250.800-880.499  0.00  0.00    -0.398 OA
ATOM     68  HG  SER d   5     914.800 249.975-880.448  0.00  0.00     0.209 HD
ENDBRANCH  66  67
ENDBRANCH  25  66
ENDBRANCH  22  25
ENDBRANCH  20  21
BRANCH  20  69
ATOM     69  CB  LEU d   6     918.274 248.126-883.040  0.00  0.00     0.038 C 
BRANCH  69  70
ATOM     70  CG  LEU d   6     918.434 247.996-881.501  0.00  0.00    -0.020 C 
ATOM     71  CD1 LEU d   6     919.093 246.654-881.149  0.00  0.00     0.009 C 
ATOM     72  CD2 LEU d   6     919.248 249.148-880.889  0.00  0.00     0.009 C 
ENDBRANCH  69  70
ENDBRANCH  20  69
ENDBRANCH  17  20
ENDBRANCH  15  16
BRANCH  15  73
ATOM     73  CB  LEU d   7     915.458 247.866-887.626  0.00  0.00     0.038 C 
BRANCH  73  74
ATOM     74  CG  LEU d   7     915.386 246.386-887.159  0.00  0.00    -0.020 C 
ATOM     75  CD1 LEU d   7     914.196 245.680-887.824  0.00  0.00     0.009 C 
ATOM     76  CD2 LEU d   7     916.679 245.607-887.452  0.00  0.00     0.009 C 
ENDBRANCH  73  74
ENDBRANCH  15  73
ENDBRANCH  12  15
ENDBRANCH  10  11
BRANCH  10  77
ATOM     77  CB  ASP d   8     914.603 253.150-887.023  0.00  0.00     0.147 C 
BRANCH  77  78
ATOM     78  CG  ASP d   8     914.383 254.571-887.564  0.00  0.00     0.175 C 
ATOM     79  OD1 ASP d   8     914.446 254.770-888.795  0.00  0.00    -0.648 OA
ATOM     80  OD2 ASP d   8     914.191 255.497-886.748  0.00  0.00    -0.648 OA
ENDBRANCH  77  78
ENDBRANCH  10  77
ENDBRANCH   7  10
ENDBRANCH   5   6
BRANCH   5  81
ATOM     81  CB  GLU d   9     919.645 253.392-885.157  0.00  0.00     0.045 C 
BRANCH  81  82
ATOM     82  CG  GLU d   9     921.028 254.085-884.929  0.00  0.00     0.116 C 
BRANCH  82  83
ATOM     83  CD  GLU d   9     921.731 253.872-883.601  0.00  0.00     0.172 C 
ATOM     84  OE1 GLU d   9     921.210 253.180-882.704  0.00  0.00    -0.648 OA
ATOM     85  OE2 GLU d   9     922.850 254.410-883.470  0.00  0.00    -0.648 OA
ENDBRANCH  82  83
ENDBRANCH  81  82
ENDBRANCH   5  81
ENDBRANCH   1   5
BRANCH   3  86
ATOM     86  CA  HIS d  10     920.911 251.286-888.849  0.00  0.00     0.182 C 
BRANCH  86  87
ATOM     87  C   HIS d  10     920.543 251.851-890.200  0.00  0.00     0.241 C 
ATOM     88  O   HIS d  10     921.395 252.316-890.972  0.00  0.00    -0.271 OA
ATOM     89  N   VAL d  11     919.305 251.849-890.562  0.00  0.00    -0.346 N 
ATOM     90  H   VAL d  11     918.593 251.476-889.951  0.00  0.00     0.163 HD
BRANCH  89  91
ATOM     91  CA  VAL d  11     918.949 252.395-891.868  0.00  0.00     0.180 C 
BRANCH  91  92
ATOM     92  C   VAL d  11     919.413 253.826-892.001  0.00  0.00     0.241 C 
ATOM     93  O   VAL d  11     920.013 254.231-893.005  0.00  0.00    -0.271 OA
ATOM     94  N   GLN d  12     919.176 254.652-891.039  0.00  0.00    -0.346 N 
ATOM     95  H   GLN d  12     918.688 254.346-890.209  0.00  0.00     0.163 HD
BRANCH  94  96
ATOM     96  CA  GLN d  12     919.624 256.035-891.166  0.00  0.00     0.177 C 
BRANCH  96  97
ATOM     97  C   GLN d  12     921.114 256.103-891.405  0.00  0.00     0.241 C 
ATOM     98  O   GLN d  12     921.600 256.811-892.284  0.00  0.00    -0.271 OA
ATOM     99  N   ARG d  13     921.899 255.396-890.665  0.00  0.00    -0.346 N 
ATOM    100  H   ARG d  13     921.524 254.806-889.936  0.00  0.00     0.163 HD
BRANCH  99 101
ATOM    101  CA  ARG d  13     923.339 255.462-890.897  0.00  0.00     0.176 C 
BRANCH 101 102
ATOM    102  C   ARG d  13     923.675 255.091-892.322  0.00  0.00     0.241 C 
ATOM    103  O   ARG d  13     924.443 255.763-893.007  0.00  0.00    -0.271 OA
ATOM    104  N   VAL d  14     923.138 254.036-892.836  0.00  0.00    -0.346 N 
ATOM    105  H   VAL d  14     922.504 253.467-892.294  0.00  0.00     0.163 HD
BRANCH 104 106
ATOM    106  CA  VAL d  14     923.462 253.677-894.214  0.00  0.00     0.180 C 
BRANCH 106 107
ATOM    107  C   VAL d  14     923.131 254.807-895.159  0.00  0.00     0.241 C 
ATOM    108  O   VAL d  14     923.924 255.189-896.029  0.00  0.00    -0.271 OA
ATOM    109  N   MET d  15     921.986 255.393-895.056  0.00  0.00    -0.346 N 
ATOM    110  H   MET d  15     921.322 255.099-894.354  0.00  0.00     0.163 HD
BRANCH 109 111
ATOM    111  CA  MET d  15     921.665 256.485-895.970  0.00  0.00     0.177 C 
BRANCH 111 112
ATOM    112  C   MET d  15     922.695 257.585-895.883  0.00  0.00     0.241 C 
ATOM    113  O   MET d  15     923.197 258.096-896.896  0.00  0.00    -0.271 OA
ATOM    114  N   ARG d  16     923.064 258.006-894.721  0.00  0.00    -0.347 N 
ATOM    115  H   ARG d  16     922.670 257.606-893.881  0.00  0.00     0.163 HD
BRANCH 114 116
ATOM    116  CA  ARG d  16     924.061 259.070-894.637  0.00  0.00     0.162 C 
BRANCH 116 117
ATOM    117  C   ARG d  16     925.331 258.678-895.355  0.00  0.00     0.219 C 
ATOM    118  O   ARG d  16     925.445 257.602-895.936  0.00  0.00    -0.287 OA
ENDBRANCH 116 117
BRANCH 116 119
ATOM    119  CB  ARG d  16     924.331 259.388-893.139  0.00  0.00     0.035 C 
BRANCH 119 120
ATOM    120  CG  ARG d  16     925.156 260.678-892.867  0.00  0.00     0.023 C 
BRANCH 120 121
ATOM    121  CD  ARG d  16     925.406 260.897-891.366  0.00  0.00     0.138 C 
BRANCH 121 122
ATOM    122  NE  ARG d  16     926.182 262.156-891.165  0.00  0.00    -0.227 N 
ATOM    123  CZ  ARG d  16     926.574 262.639-889.990  0.00  0.00     0.665 C 
ATOM    124  NH1 ARG d  16     926.327 262.054-888.851  0.00  0.00    -0.235 N 
ATOM    125  NH2 ARG d  16     927.238 263.751-889.972  0.00  0.00    -0.235 N 
ATOM    126 11HH ARG d  16     925.802 261.181-888.936  0.00  0.00     0.174 HD
ATOM    127 12HH ARG d  16     926.662 262.490-887.990  0.00  0.00     0.174 HD
ATOM    128 21HH ARG d  16     927.423 264.195-890.874  0.00  0.00     0.174 HD
ATOM    129 22HH ARG d  16     927.529 264.107-889.060  0.00  0.00     0.174 HD
ATOM    130  HE  ARG d  16     926.460 262.737-891.963  0.00  0.00     0.177 HD
ENDBRANCH 121 122
ENDBRANCH 120 121
ENDBRANCH 119 120
ENDBRANCH 116 119
ENDBRANCH 114 116
ENDBRANCH 111 112
BRANCH 111 131
ATOM    131  CB  MET d  15     920.244 257.030-895.660  0.00  0.00     0.045 C 
BRANCH 131 132
ATOM    132  CG  MET d  15     919.082 256.032-895.851  0.00  0.00     0.076 C 
BRANCH 132 133
ATOM    133  SD  MET d  15     917.508 256.898-895.735  0.00  0.00    -0.173 SA
ATOM    134  CE  MET d  15     916.427 255.468-895.598  0.00  0.00     0.089 C 
ENDBRANCH 132 133
ENDBRANCH 131 132
ENDBRANCH 111 131
ENDBRANCH 109 111
ENDBRANCH 106 107
BRANCH 106 135
ATOM    135  CB  VAL d  14     922.690 252.360-894.620  0.00  0.00     0.009 C 
ATOM    136  CG1 VAL d  14     922.778 251.941-896.114  0.00  0.00     0.012 C 
ATOM    137  CG2 VAL d  14     923.123 251.107-893.820  0.00  0.00     0.012 C 
ENDBRANCH 106 135
ENDBRANCH 104 106
ENDBRANCH 101 102
BRANCH 101 138
ATOM    138  CB  ARG d  13     924.054 254.523-889.883  0.00  0.00     0.036 C 
BRANCH 138 139
ATOM    139  CG  ARG d  13     925.599 254.677-889.803  0.00  0.00     0.023 C 
BRANCH 139 140
ATOM    140  CD  ARG d  13     926.227 253.690-888.806  0.00  0.00     0.138 C 
BRANCH 140 141
ATOM    141  NE  ARG d  13     927.704 253.897-888.757  0.00  0.00    -0.227 N 
ATOM    142  CZ  ARG d  13     928.552 253.206-888.002  0.00  0.00     0.665 C 
ATOM    143  NH1 ARG d  13     928.188 252.241-887.204  0.00  0.00    -0.235 N 
ATOM    144  NH2 ARG d  13     929.812 253.505-888.060  0.00  0.00    -0.235 N 
ATOM    145 11HH ARG d  13     927.183 252.055-887.207  0.00  0.00     0.174 HD
ATOM    146 12HH ARG d  13     928.902 251.759-886.656  0.00  0.00     0.174 HD
ATOM    147 21HH ARG d  13     930.079 254.263-888.691  0.00  0.00     0.174 HD
ATOM    148 22HH ARG d  13     930.448 252.964-887.472  0.00  0.00     0.174 HD
ATOM    149  HE  ARG d  13     928.154 254.619-889.328  0.00  0.00     0.177 HD
ENDBRANCH 140 141
ENDBRANCH 139 140
ENDBRANCH 138 139
ENDBRANCH 101 138
ENDBRANCH  99 101
ENDBRANCH  96  97
BRANCH  96 150
ATOM    150  CB  GLN d  12     919.234 256.803-889.883  0.00  0.00     0.044 C 
BRANCH 150 151
ATOM    151  CG  GLN d  12     919.594 258.324-889.853  0.00  0.00     0.105 C 
BRANCH 151 152
ATOM    152  CD  GLN d  12     919.292 259.138-888.588  0.00  0.00     0.215 C 
ATOM    153  NE2 GLN d  12     918.726 258.561-887.558  0.00  0.00    -0.370 N 
ATOM    154 21HE GLN d  12     918.620 259.156-886.735  0.00  0.00     0.159 HD
ATOM    155 22HE GLN d  12     918.563 257.558-887.661  0.00  0.00     0.159 HD
ATOM    156  OE1 GLN d  12     919.594 260.319-888.510  0.00  0.00    -0.274 OA
ENDBRANCH 151 152
ENDBRANCH 150 151
ENDBRANCH  96 150
ENDBRANCH  94  96
ENDBRANCH  91  92
BRANCH  91 157
ATOM    157  CB  VAL d  11     917.387 252.288-892.087  0.00  0.00     0.009 C 
ATOM    158  CG1 VAL d  11     916.818 252.992-893.349  0.00  0.00     0.012 C 
ATOM    159  CG2 VAL d  11     916.863 250.834-892.159  0.00  0.00     0.012 C 
ENDBRANCH  91 157
ENDBRANCH  89  91
ENDBRANCH  86  87
BRANCH  86 160
ATOM    160  CB  HIS d  10     920.747 249.757-888.844  0.00  0.00     0.095 C 
BRANCH 160 161
ATOM    161  CG  HIS d  10     922.033 249.047-888.537  0.00  0.00     0.053 A 
ATOM    162  CD2 HIS d  10     922.415 248.712-887.245  0.00  0.00     0.116 A 
ATOM    163  NE2 HIS d  10     923.630 248.080-887.313  0.00  0.00    -0.359 N 
ATOM    164  CE1 HIS d  10     923.892 248.083-888.648  0.00  0.00     0.207 A 
ATOM    165  2HE HIS d  10     924.198 247.703-886.540  0.00  0.00     0.166 HD
ATOM    166  ND1 HIS d  10     922.984 248.641-889.470  0.00  0.00    -0.247 NA
ENDBRANCH 160 161
ENDBRANCH  86 160
ENDBRANCH   3  86
TORSDOF 68
