@<TRIPOS>MOLECULE
8-16
270 271 16              
SMALL
USER_CHARGES
@<TRIPOS>ATOM
1	   N	1312.252	380.917	-1315.830	N.3	1	GLU1	-0.516	
2	  CA	1312.811	382.266	-1315.830	C.3	1	GLU1	0.040	
3	   C	1314.320	382.226	-1315.830	C.2	1	GLU1	0.537	
4	   O	1314.996	382.925	-1316.599	O.2	1	GLU1	-0.582	
5	  CB	1312.288	383.051	-1314.593	C.3	1	GLU1	0.056	
6	  CG	1312.763	384.536	-1314.482	C.3	1	GLU1	0.014	
7	  CD	1312.339	385.340	-1313.267	C.2	1	GLU1	0.805	
8	 OE1	1311.611	384.838	-1312.389	O.co2	1	GLU1	-0.819	
9	 OE2	1312.769	386.510	-1313.195	O.co2	1	GLU1	-0.819	
10	   H	1312.879	380.038	-1315.830	 H	1	GLU1	0.294	
11	  HA	1312.485	382.784	-1316.750	 H	1	GLU1	0.111	
12	 2HB	1312.577	382.520	-1313.663	 H	1	GLU1	-0.017	
13	 3HB	1311.181	383.041	-1314.580	 H	1	GLU1	-0.017	
14	 2HG	1312.453	385.121	-1315.363	 H	1	GLU1	-0.043	
15	 3HG	1313.863	384.603	-1314.453	 H	1	GLU1	-0.043	
16	   N	1314.925	381.440	-1315.005	N.am	2	ASN2	-0.416	
17	  CA	1316.384	381.401	-1315.005	C.3	2	ASN2	0.014	
18	   C	1316.916	381.046	-1316.374	C.2	2	ASN2	0.597	
19	   O	1317.830	381.676	-1316.902	O.2	2	ASN2	-0.568	
20	  CB	1316.876	380.378	-1313.941	C.3	2	ASN2	-0.204	
21	  CG	1316.413	380.602	-1312.497	C.2	2	ASN2	0.713	
22	 ND2	1317.008	381.517	-1311.779	N.pl3	2	ASN2	-0.919	
23	 OD1	1315.493	379.968	-1312.003	O.2	2	ASN2	-0.593	
24	   H	1314.397	380.860	-1314.369	 H	2	ASN2	0.272	
25	  HA	1316.762	382.411	-1314.760	 H	2	ASN2	0.105	
26	 2HB	1317.981	380.319	-1313.944	 H	2	ASN2	0.080	
27	 3HB	1316.547	379.360	-1314.226	 H	2	ASN2	0.080	
28	1HD2	1316.527	381.690	-1310.893	 H	2	ASN2	0.420	
29	2HD2	1317.709	382.089	-1312.249	 H	2	ASN2	0.420	
30	   N	1316.394	380.051	-1317.008	N.am	3	PRO3	-0.255	
31	  CA	1316.846	379.641	-1318.329	C.3	3	PRO3	-0.027	
32	   C	1316.448	380.665	-1319.406	C.2	3	PRO3	0.590	
33	   O	1317.271	381.048	-1320.238	O.2	3	PRO3	-0.575	
34	  CB	1316.142	378.287	-1318.499	C.3	3	PRO3	-0.007	
35	  CG	1314.858	378.439	-1317.668	C.3	3	PRO3	0.019	
36	  CD	1315.316	379.257	-1316.459	C.3	3	PRO3	0.019	
37	  HA	1317.932	379.521	-1318.343	 H	3	PRO3	0.064	
38	 2HB	1316.765	377.505	-1318.058	 H	3	PRO3	0.025	
39	 3HB	1315.943	378.038	-1319.544	 H	3	PRO3	0.025	
40	 2HG	1314.431	377.476	-1317.377	 H	3	PRO3	0.021	
41	 3HG	1314.121	379.010	-1318.236	 H	3	PRO3	0.021	
42	 2HD	1315.705	378.608	-1315.671	 H	3	PRO3	0.039	
43	 3HD	1314.520	379.893	-1316.066	 H	3	PRO3	0.039	
44	   N	1315.243	381.125	-1319.438	N.am	4	GLU4	-0.516	
45	  CA	1314.883	382.096	-1320.468	C.3	4	GLU4	0.040	
46	   C	1315.782	383.307	-1320.407	C.2	4	GLU4	0.537	
47	   O	1316.308	383.787	-1321.421	O.2	4	GLU4	-0.582	
48	  CB	1313.394	382.514	-1320.297	C.3	4	GLU4	0.056	
49	  CG	1312.846	383.518	-1321.363	C.3	4	GLU4	0.014	
50	  CD	1311.420	384.015	-1321.219	C.2	4	GLU4	0.805	
51	 OE1	1310.693	383.616	-1320.288	O.co2	4	GLU4	-0.819	
52	 OE2	1311.030	384.844	-1322.067	O.co2	4	GLU4	-0.819	
53	   H	1314.559	380.818	-1318.762	 H	4	GLU4	0.294	
54	  HA	1315.014	381.625	-1321.459	 H	4	GLU4	0.111	
55	 2HB	1313.242	382.954	-1319.291	 H	4	GLU4	-0.017	
56	 3HB	1312.747	381.617	-1320.304	 H	4	GLU4	-0.017	
57	 2HG	1312.928	383.103	-1322.381	 H	4	GLU4	-0.043	
58	 3HG	1313.434	384.450	-1321.374	 H	4	GLU4	-0.043	
59	   N	1316.009	383.860	-1319.264	N.am	5	SER5	-0.416	
60	  CA	1316.879	385.031	-1319.205	C.3	5	SER5	-0.025	
61	   C	1318.238	384.726	-1319.791	C.2	5	SER5	0.597	
62	   O	1318.785	385.479	-1320.596	O.2	5	SER5	-0.568	
63	  CB	1316.990	385.563	-1317.755	C.3	5	SER5	0.212	
64	  OG	1317.722	384.684	-1316.894	O.3	5	SER5	-0.655	
65	   H	1315.593	383.488	-1318.422	 H	5	SER5	0.272	
66	  HA	1316.429	385.821	-1319.834	 H	5	SER5	0.084	
67	 2HB	1315.991	385.757	-1317.321	 H	5	SER5	0.035	
68	 3HB	1317.496	386.549	-1317.757	 H	5	SER5	0.035	
69	  HG	1317.234	383.859	-1316.843	 H	5	SER5	0.428	
70	   N	1318.842	383.643	-1319.437	N.am	6	ILE6	-0.416	
71	  CA	1320.156	383.348	-1320.004	C.3	6	ILE6	-0.060	
72	   C	1320.098	383.311	-1321.511	C.2	6	ILE6	0.597	
73	   O	1320.933	383.898	-1322.215	O.2	6	ILE6	-0.568	
74	  CB	1320.755	382.012	-1319.404	C.3	6	ILE6	0.130	
75	 CG1	1320.775	381.949	-1317.843	C.3	6	ILE6	-0.043	
76	 CG2	1322.197	381.710	-1319.919	C.3	6	ILE6	-0.320	
77	 CD1	1321.045	380.560	-1317.228	C.3	6	ILE6	-0.066	
78	   H	1318.414	383.008	-1318.778	 H	6	ILE6	0.272	
79	  HA	1320.830	384.182	-1319.736	 H	6	ILE6	0.087	
80	  HB	1320.098	381.186	-1319.748	 H	6	ILE6	0.019	
81	2HG1	1319.793	382.269	-1317.447	 H	6	ILE6	0.024	
82	3HG1	1321.491	382.691	-1317.438	 H	6	ILE6	0.024	
83	1HG2	1322.255	381.617	-1321.018	 H	6	ILE6	0.088	
84	2HG2	1322.919	382.493	-1319.617	 H	6	ILE6	0.088	
85	3HG2	1322.587	380.748	-1319.541	 H	6	ILE6	0.088	
86	1HD1	1320.317	379.806	-1317.583	 H	6	ILE6	0.019	
87	2HD1	1322.056	380.182	-1317.464	 H	6	ILE6	0.019	
88	3HD1	1320.969	380.590	-1316.125	 H	6	ILE6	0.019	
89	   N	1319.152	382.647	-1322.085	N.am	7	LEU7	-0.416	
90	  CA	1319.097	382.611	-1323.544	C.3	7	LEU7	-0.052	
91	   C	1319.025	384.007	-1324.116	C.2	7	LEU7	0.597	
92	   O	1319.745	384.370	-1325.058	O.2	7	LEU7	-0.568	
93	  CB	1317.894	381.751	-1324.024	C.3	7	LEU7	-0.110	
94	  CG	1317.821	380.272	-1323.558	C.3	7	LEU7	0.353	
95	 CD1	1316.632	379.566	-1324.223	C.3	7	LEU7	-0.412	
96	 CD2	1319.115	379.493	-1323.849	C.3	7	LEU7	-0.412	
97	   H	1318.460	382.160	-1321.534	 H	7	LEU7	0.272	
98	  HA	1320.039	382.171	-1323.918	 H	7	LEU7	0.092	
99	 2HB	1317.871	381.767	-1325.131	 H	7	LEU7	0.046	
100	 3HB	1316.954	382.254	-1323.719	 H	7	LEU7	0.046	
101	  HG	1317.652	380.263	-1322.461	 H	7	LEU7	-0.036	
102	1HD1	1315.674	380.075	-1324.000	 H	7	LEU7	0.100	
103	2HD1	1316.731	379.526	-1325.324	 H	7	LEU7	0.100	
104	3HD1	1316.525	378.525	-1323.867	 H	7	LEU7	0.100	
105	1HD2	1319.390	379.523	-1324.919	 H	7	LEU7	0.100	
106	2HD2	1319.968	379.904	-1323.278	 H	7	LEU7	0.100	
107	3HD2	1319.034	378.430	-1323.554	 H	7	LEU7	0.100	
108	   N	1318.187	384.847	-1323.609	N.am	8	GLN8	-0.416	
109	  CA	1318.117	386.196	-1324.162	C.3	8	GLN8	-0.003	
110	   C	1319.464	386.877	-1324.105	C.2	8	GLN8	0.597	
111	   O	1319.931	387.477	-1325.071	O.2	8	GLN8	-0.568	
112	  CB	1317.057	386.999	-1323.375	C.3	8	GLN8	-0.004	
113	  CG	1316.805	388.466	-1323.855	C.3	8	GLN8	-0.064	
114	  CD	1315.812	389.344	-1323.084	C.2	8	GLN8	0.695	
115	 NE2	1315.175	388.859	-1322.048	N.pl3	8	GLN8	-0.941	
116	 OE1	1315.617	390.507	-1323.404	O.2	8	GLN8	-0.609	
117	   H	1317.590	384.576	-1322.842	 H	8	GLN8	0.272	
118	  HA	1317.821	386.129	-1325.225	 H	8	GLN8	0.085	
119	 2HB	1317.351	387.016	-1322.304	 H	8	GLN8	0.017	
120	 3HB	1316.096	386.449	-1323.404	 H	8	GLN8	0.017	
121	 2HG	1316.496	388.470	-1324.917	 H	8	GLN8	0.035	
122	 3HG	1317.748	389.042	-1323.842	 H	8	GLN8	0.035	
123	1HE2	1314.583	389.527	-1321.553	 H	8	GLN8	0.425	
124	2HE2	1315.434	387.904	-1321.792	 H	8	GLN8	0.425	
125	   N	1320.144	386.827	-1323.010	N.am	9	GLU9	-0.516	
126	  CA	1321.447	387.486	-1322.956	C.3	9	GLU9	0.040	
127	   C	1322.364	386.959	-1324.032	C.2	9	GLU9	0.537	
128	   O	1323.027	387.714	-1324.758	O.2	9	GLU9	-0.582	
129	  CB	1322.082	387.279	-1321.551	C.3	9	GLU9	0.056	
130	  CG	1323.464	387.972	-1321.323	C.3	9	GLU9	0.014	
131	  CD	1324.167	387.759	-1319.995	C.2	9	GLU9	0.805	
132	 OE1	1323.646	387.067	-1319.098	O.co2	9	GLU9	-0.819	
133	 OE2	1325.286	388.297	-1319.864	O.co2	9	GLU9	-0.819	
134	   H	1319.782	386.341	-1322.203	 H	9	GLU9	0.294	
135	  HA	1321.304	388.567	-1323.131	 H	9	GLU9	0.111	
136	 2HB	1322.195	386.194	-1321.348	 H	9	GLU9	-0.017	
137	 3HB	1321.385	387.631	-1320.766	 H	9	GLU9	-0.017	
138	 2HG	1323.391	389.062	-1321.462	 H	9	GLU9	-0.043	
139	 3HG	1324.210	387.627	-1322.057	 H	9	GLU9	-0.043	
140	   N	1322.462	385.684	-1324.202	N.am	10	HIS10	-0.416	
141	  CA	1323.349	385.173	-1325.243	C.3	10	HIS10	-0.058	
142	   C	1322.981	385.738	-1326.594	C.2	10	HIS10	0.597	
143	   O	1323.832	386.203	-1327.366	O.2	10	HIS10	-0.568	
144	  CB	1323.186	383.644	-1325.238	C.3	10	HIS10	-0.007	
145	  CG	1324.473	382.935	-1324.931	C.2	10	HIS10	0.187	
146	 CD2	1324.855	382.600	-1323.639	C.2	10	HIS10	-0.221	
147	 ND1	1325.424	382.530	-1325.865	N.2	10	HIS10	-0.543	
148	 CE1	1326.332	381.972	-1325.042	C.2	10	HIS10	0.163	
149	 NE2	1326.070	381.969	-1323.707	N.pl3	10	HIS10	-0.280	
150	   H	1321.932	385.048	-1323.623	 H	10	HIS10	0.272	
151	  HA	1324.368	385.531	-1325.019	 H	10	HIS10	0.136	
152	 2HB	1322.821	383.277	-1326.218	 H	10	HIS10	0.037	
153	 3HB	1322.432	383.306	-1324.498	 H	10	HIS10	0.037	
154	 2HD	1324.270	382.814	-1322.750	 H	10	HIS10	0.186	
155	 1HE	1327.223	381.552	-1325.490	 H	10	HIS10	0.144	
156	 2HE	1326.638	381.592	-1322.934	 H	10	HIS10	0.334	
157	   N	1321.743	385.736	-1326.956	N.am	11	VAL11	-0.416	
158	  CA	1321.386	386.281	-1328.262	C.3	11	VAL11	-0.087	
159	   C	1321.849	387.713	-1328.395	C.2	11	VAL11	0.597	
160	   O	1322.448	388.118	-1329.399	O.2	11	VAL11	-0.568	
161	  CB	1319.825	386.173	-1328.480	C.3	11	VAL11	0.299	
162	 CG1	1319.254	386.877	-1329.742	C.3	11	VAL11	-0.319	
163	 CG2	1319.301	384.719	-1328.553	C.3	11	VAL11	-0.319	
164	   H	1321.031	385.362	-1326.344	 H	11	VAL11	0.272	
165	  HA	1321.905	385.700	-1329.045	 H	11	VAL11	0.097	
166	  HB	1319.337	386.653	-1327.604	 H	11	VAL11	-0.030	
167	1HG1	1319.692	386.486	-1330.680	 H	11	VAL11	0.079	
168	2HG1	1318.155	386.769	-1329.823	 H	11	VAL11	0.079	
169	3HG1	1319.431	387.969	-1329.733	 H	11	VAL11	0.079	
170	1HG2	1319.592	384.132	-1327.663	 H	11	VAL11	0.079	
171	2HG2	1318.195	384.681	-1328.595	 H	11	VAL11	0.079	
172	3HG2	1319.683	384.179	-1329.440	 H	11	VAL11	0.079	
173	   N	1321.612	388.538	-1327.432	N.am	12	GLN12	-0.416	
174	  CA	1322.059	389.922	-1327.560	C.3	12	GLN12	-0.003	
175	   C	1323.549	389.990	-1327.799	C.2	12	GLN12	0.597	
176	   O	1324.034	390.699	-1328.678	O.2	12	GLN12	-0.568	
177	  CB	1321.669	390.689	-1326.277	C.3	12	GLN12	-0.004	
178	  CG	1322.027	392.211	-1326.246	C.3	12	GLN12	-0.064	
179	  CD	1321.726	393.024	-1324.981	C.2	12	GLN12	0.695	
180	 NE2	1321.160	392.447	-1323.951	N.pl3	12	GLN12	-0.941	
181	 OE1	1322.026	394.205	-1324.904	O.2	12	GLN12	-0.609	
182	   H	1321.124	388.232	-1326.603	 H	12	GLN12	0.272	
183	  HA	1321.558	390.377	-1328.434	 H	12	GLN12	0.085	
184	 2HB	1322.146	390.189	-1325.408	 H	12	GLN12	0.017	
185	 3HB	1320.579	390.580	-1326.113	 H	12	GLN12	0.017	
186	 2HG	1321.549	392.731	-1327.096	 H	12	GLN12	0.035	
187	 3HG	1323.111	392.354	-1326.413	 H	12	GLN12	0.035	
188	1HE2	1321.053	393.041	-1323.128	 H	12	GLN12	0.425	
189	2HE2	1320.997	391.443	-1324.055	 H	12	GLN12	0.425	
190	   N	1324.335	389.284	-1327.059	N.am	13	ARG13	-0.348	
191	  CA	1325.775	389.351	-1327.291	C.3	13	ARG13	-0.264	
192	   C	1326.110	388.980	-1328.717	C.2	13	ARG13	0.734	
193	   O	1326.877	389.653	-1329.401	O.2	13	ARG13	-0.589	
194	  CB	1326.490	388.413	-1326.278	C.3	13	ARG13	-0.001	
195	  CG	1328.035	388.567	-1326.198	C.3	13	ARG13	0.039	
196	  CD	1328.664	387.580	-1325.201	C.3	13	ARG13	0.049	
197	  NE	1330.141	387.789	-1325.152	N.pl3	13	ARG13	-0.530	
198	  CZ	1330.990	387.098	-1324.398	C.cat	13	ARG13	0.808	
199	 NH1	1330.627	386.133	-1323.600	N.pl3	13	ARG13	-0.863	
200	 NH2	1332.249	387.398	-1324.456	N.pl3	13	ARG13	-0.863	
201	   H	1323.960	388.694	-1326.330	 H	13	ARG13	0.275	
202	  HA	1326.098	390.397	-1327.133	 H	13	ARG13	0.156	
203	 2HB	1326.224	387.362	-1326.517	 H	13	ARG13	0.033	
204	 3HB	1326.065	388.579	-1325.267	 H	13	ARG13	0.033	
205	 2HG	1328.282	389.612	-1325.919	 H	13	ARG13	0.029	
206	 3HG	1328.484	388.412	-1327.200	 H	13	ARG13	0.029	
207	 2HD	1328.420	386.540	-1325.510	 H	13	ARG13	0.069	
208	 3HD	1328.208	387.725	-1324.198	 H	13	ARG13	0.069	
209	  HE	1330.590	388.511	-1325.723	 H	13	ARG13	0.346	
210	1HH1	1329.621	385.946	-1323.602	 H	13	ARG13	0.448	
211	2HH1	1331.341	385.651	-1323.052	 H	13	ARG13	0.448	
212	1HH2	1332.515	388.156	-1325.087	 H	13	ARG13	0.448	
213	2HH2	1332.885	386.857	-1323.868	 H	13	ARG13	0.448	
214	   N	1325.575	387.925	-1329.231	N.am	14	VAL14	-0.416	
215	  CA	1325.899	387.566	-1330.608	C.3	14	VAL14	-0.087	
216	   C	1325.567	388.696	-1331.554	C.2	14	VAL14	0.597	
217	   O	1326.359	389.078	-1332.424	O.2	14	VAL14	-0.568	
218	  CB	1325.127	386.249	-1331.015	C.3	14	VAL14	0.299	
219	 CG1	1325.216	385.831	-1332.509	C.3	14	VAL14	-0.319	
220	 CG2	1325.561	384.997	-1330.215	C.3	14	VAL14	-0.319	
221	   H	1324.941	387.356	-1328.688	 H	14	VAL14	0.272	
222	  HA	1326.987	387.391	-1330.684	 H	14	VAL14	0.097	
223	  HB	1324.051	386.419	-1330.798	 H	14	VAL14	-0.030	
224	1HG1	1326.257	385.655	-1332.838	 H	14	VAL14	0.079	
225	2HG1	1324.643	384.907	-1332.721	 H	14	VAL14	0.079	
226	3HG1	1324.785	386.592	-1333.186	 H	14	VAL14	0.079	
227	1HG2	1325.474	385.155	-1329.125	 H	14	VAL14	0.079	
228	2HG2	1324.926	384.120	-1330.447	 H	14	VAL14	0.079	
229	3HG2	1326.609	384.708	-1330.422	 H	14	VAL14	0.079	
230	   N	1324.421	389.281	-1331.451	N.am	15	MET15	-0.416	
231	  CA	1324.099	390.373	-1332.365	C.3	15	MET15	-0.024	
232	   C	1325.129	391.474	-1332.278	C.2	15	MET15	0.597	
233	   O	1325.631	391.985	-1333.291	O.2	15	MET15	-0.568	
234	  CB	1322.678	390.918	-1332.055	C.3	15	MET15	0.034	
235	  CG	1321.516	389.919	-1332.246	C.3	15	MET15	0.002	
236	  SD	1319.942	390.784	-1332.131	S.3	15	MET15	-0.274	
237	  CE	1318.862	389.353	-1331.994	C.3	15	MET15	-0.054	
238	   H	1323.757	388.988	-1330.749	 H	15	MET15	0.272	
239	  HA	1324.125	389.986	-1333.401	 H	15	MET15	0.088	
240	 2HB	1322.474	391.797	-1332.697	 H	15	MET15	0.024	
241	 3HB	1322.643	391.310	-1331.019	 H	15	MET15	0.024	
242	 2HG	1321.561	389.133	-1331.468	 H	15	MET15	0.044	
243	 3HG	1321.579	389.404	-1333.222	 H	15	MET15	0.044	
244	 1HE	1319.006	388.665	-1332.846	 H	15	MET15	0.068	
245	 2HE	1319.072	388.801	-1331.061	 H	15	MET15	0.068	
246	 3HE	1317.804	389.668	-1331.977	 H	15	MET15	0.068	
247	   N	1325.498	391.895	-1331.116	N.am	16	ARG16	-0.348	
248	  CA	1326.494	392.960	-1331.033	C.3	16	ARG16	-0.264	
249	   C	1327.764	392.568	-1331.750	C.2	16	ARG16	0.734	
250	   O	1327.879	391.492	-1332.331	O.2	16	ARG16	-0.589	
251	  CB	1326.764	393.278	-1329.534	C.3	16	ARG16	-0.001	
252	  CG	1327.588	394.568	-1329.262	C.3	16	ARG16	0.039	
253	  CD	1327.838	394.787	-1327.761	C.3	16	ARG16	0.049	
254	  NE	1328.614	396.047	-1327.560	N.pl3	16	ARG16	-0.530	
255	  CZ	1329.005	396.529	-1326.385	C.cat	16	ARG16	0.808	
256	 NH1	1328.759	395.944	-1325.246	N.pl3	16	ARG16	-0.863	
257	 NH2	1329.669	397.642	-1326.367	N.pl3	16	ARG16	-0.863	
258	   H	1325.104	391.495	-1330.276	 H	16	ARG16	0.275	
259	  HA	1326.084	393.852	-1331.542	 H	16	ARG16	0.156	
260	 2HB	1327.261	392.402	-1329.068	 H	16	ARG16	0.033	
261	 3HB	1325.795	393.358	-1329.000	 H	16	ARG16	0.033	
262	 2HG	1327.057	395.438	-1329.699	 H	16	ARG16	0.029	
263	 3HG	1328.561	394.515	-1329.792	 H	16	ARG16	0.029	
264	 2HD	1328.388	393.913	-1327.348	 H	16	ARG16	0.069	
265	 3HD	1326.866	394.829	-1327.225	 H	16	ARG16	0.069	
266	  HE	1328.891	396.628	-1328.358	 H	16	ARG16	0.346	
267	1HH1	1328.234	395.071	-1325.330	 H	16	ARG16	0.448	
268	2HH1	1329.094	396.380	-1324.385	 H	16	ARG16	0.448	
269	1HH2	1329.853	398.085	-1327.269	 H	16	ARG16	0.448	
270	2HH2	1329.959	397.997	-1325.454	 H	16	ARG16	0.448	
@<TRIPOS>BOND
1 1 2 1
2 1 10 1
3 2 3 1
4 2 5 1
5 2 11 1
6 3 4 2
7 3 16 1
8 5 6 1
9 6 7 1
10 7 8 2
11 7 9 1
12 5 12 1
13 5 13 1
14 6 14 1
15 6 15 1
16 16 17 1
17 16 24 1
18 17 18 1
19 17 20 1
20 17 25 1
21 18 19 2
22 18 30 1
23 20 21 1
24 21 22 1
25 21 23 2
26 20 26 1
27 20 27 1
28 22 28 1
29 22 29 1
30 30 31 1
31 30 36 1
32 31 32 1
33 31 34 1
34 31 37 1
35 32 33 2
36 32 44 1
37 34 35 1
38 35 36 1
39 34 38 1
40 34 39 1
41 35 40 1
42 35 41 1
43 36 42 1
44 36 43 1
45 44 45 1
46 44 53 1
47 45 46 1
48 45 48 1
49 45 54 1
50 46 47 2
51 46 59 1
52 48 49 1
53 49 50 1
54 50 51 2
55 50 52 1
56 48 55 1
57 48 56 1
58 49 57 1
59 49 58 1
60 59 60 1
61 59 65 1
62 60 61 1
63 60 63 1
64 60 66 1
65 61 62 2
66 61 70 1
67 63 64 1
68 63 67 1
69 63 68 1
70 64 69 1
71 70 71 1
72 70 78 1
73 71 72 1
74 71 74 1
75 71 79 1
76 72 73 2
77 72 89 1
78 74 75 1
79 74 76 1
80 75 77 1
81 74 80 1
82 75 81 1
83 75 82 1
84 76 83 1
85 76 84 1
86 76 85 1
87 77 86 1
88 77 87 1
89 77 88 1
90 89 90 1
91 89 97 1
92 90 91 1
93 90 93 1
94 90 98 1
95 91 92 2
96 91 108 1
97 93 94 1
98 94 95 1
99 94 96 1
100 93 99 1
101 93 100 1
102 94 101 1
103 95 102 1
104 95 103 1
105 95 104 1
106 96 105 1
107 96 106 1
108 96 107 1
109 108 109 1
110 108 117 1
111 109 110 1
112 109 112 1
113 109 118 1
114 110 111 2
115 110 125 1
116 112 113 1
117 113 114 1
118 114 115 1
119 114 116 2
120 112 119 1
121 112 120 1
122 113 121 1
123 113 122 1
124 115 123 1
125 115 124 1
126 125 126 1
127 125 134 1
128 126 127 1
129 126 129 1
130 126 135 1
131 127 128 2
132 127 140 1
133 129 130 1
134 130 131 1
135 131 132 2
136 131 133 1
137 129 136 1
138 129 137 1
139 130 138 1
140 130 139 1
141 140 141 1
142 140 150 1
143 141 142 1
144 141 144 1
145 141 151 1
146 142 143 2
147 142 157 1
148 144 145 1
149 145 146 2
150 146 149 1
151 145 147 1
152 147 148 2
153 148 149 1
154 144 152 1
155 144 153 1
156 146 154 1
157 148 155 1
158 149 156 1
159 157 158 1
160 157 164 1
161 158 159 1
162 158 161 1
163 158 165 1
164 159 160 2
165 159 173 1
166 161 162 1
167 161 163 1
168 161 166 1
169 162 167 1
170 162 168 1
171 162 169 1
172 163 170 1
173 163 171 1
174 163 172 1
175 173 174 1
176 173 182 1
177 174 175 1
178 174 177 1
179 174 183 1
180 175 176 2
181 175 190 1
182 177 178 1
183 178 179 1
184 179 180 1
185 179 181 2
186 177 184 1
187 177 185 1
188 178 186 1
189 178 187 1
190 180 188 1
191 180 189 1
192 190 191 1
193 190 201 1
194 191 192 1
195 191 194 1
196 191 202 1
197 192 193 2
198 192 214 1
199 194 195 1
200 195 196 1
201 196 197 1
202 197 198 1
203 198 199 2
204 198 200 1
205 194 203 1
206 194 204 1
207 195 205 1
208 195 206 1
209 196 207 1
210 196 208 1
211 197 209 1
212 199 210 1
213 199 211 1
214 200 212 1
215 200 213 1
216 214 215 1
217 214 221 1
218 215 216 1
219 215 218 1
220 215 222 1
221 216 217 2
222 216 230 1
223 218 219 1
224 218 220 1
225 218 223 1
226 219 224 1
227 219 225 1
228 219 226 1
229 220 227 1
230 220 228 1
231 220 229 1
232 230 231 1
233 230 238 1
234 231 232 1
235 231 234 1
236 231 239 1
237 232 233 2
238 232 247 1
239 234 235 1
240 235 236 1
241 236 237 1
242 234 240 1
243 234 241 1
244 235 242 1
245 235 243 1
246 237 244 1
247 237 245 1
248 237 246 1
249 247 248 1
250 247 258 1
251 248 249 1
252 248 251 1
253 248 259 1
254 249 250 2
255 251 252 1
256 252 253 1
257 253 254 1
258 254 255 1
259 255 256 2
260 255 257 1
261 251 260 1
262 251 261 1
263 252 262 1
264 252 263 1
265 253 264 1
266 253 265 1
267 254 266 1
268 256 267 1
269 256 268 1
270 257 269 1
271 257 270 1
@<TRIPOS>SUBSTRUCTURE
1	GLU1	1	RESIDUE	1 ****	GLU
2	ASN2	16	RESIDUE	1 ****	ASN
3	PRO3	30	RESIDUE	1 ****	PRO
4	GLU4	44	RESIDUE	1 ****	GLU
5	SER5	59	RESIDUE	1 ****	SER
6	ILE6	70	RESIDUE	1 ****	ILE
7	LEU7	89	RESIDUE	1 ****	LEU
8	GLN8	108	RESIDUE	1 ****	GLN
9	GLU9	125	RESIDUE	1 ****	GLU
10	HIS10	140	RESIDUE	1 ****	HIS
11	VAL11	157	RESIDUE	1 ****	VAL
12	GLN12	173	RESIDUE	1 ****	GLN
13	ARG13	190	RESIDUE	1 ****	ARG
14	VAL14	214	RESIDUE	1 ****	VAL
15	MET15	230	RESIDUE	1 ****	MET
16	ARG16	247	RESIDUE	1 ****	ARG
