REMARK WARNING: 32 MAX_TORS EXCEEDED!!!
REMARK  66 active torsions:
REMARK  status: ('A' for Active; 'I' for Inactive)
REMARK    1  A    between atoms: N_1  and  CA_2 
REMARK    2  A    between atoms: CA_2  and  C_3 
REMARK    3  A    between atoms: CA_2  and  CB_5 
REMARK       I    between atoms: C_3  and  N_11 
REMARK    4  A    between atoms: CB_5  and  CG_6 
REMARK    5  A    between atoms: CG_6  and  CD_7 
REMARK    6  A    between atoms: N_11  and  CA_12 
REMARK    7  A    between atoms: CA_12  and  C_13 
REMARK    8  A    between atoms: CA_12  and  CB_15 
REMARK       I    between atoms: C_13  and  N_22 
REMARK    9  A    between atoms: CB_15  and  CG_16 
REMARK       I    between atoms: CG_16  and  ND2_17 
REMARK   10  A    between atoms: CA_23  and  C_24 
REMARK       I    between atoms: C_24  and  N_29 
REMARK   11  A    between atoms: N_29  and  CA_30 
REMARK   12  A    between atoms: CA_30  and  C_31 
REMARK   13  A    between atoms: CA_30  and  CB_33 
REMARK       I    between atoms: C_31  and  N_39 
REMARK   14  A    between atoms: CB_33  and  CG_34 
REMARK   15  A    between atoms: CG_34  and  CD_35 
REMARK   16  A    between atoms: N_39  and  CA_40 
REMARK   17  A    between atoms: CA_40  and  C_41 
REMARK   18  A    between atoms: CA_40  and  CB_43 
REMARK       I    between atoms: C_41  and  N_47 
REMARK   19  A    between atoms: CB_43  and  OG_44 
REMARK   20  A    between atoms: N_47  and  CA_48 
REMARK   21  A    between atoms: CA_48  and  C_49 
REMARK   22  A    between atoms: CA_48  and  CB_51 
REMARK       I    between atoms: C_49  and  N_56 
REMARK   23  A    between atoms: CB_51  and  CG1_52 
REMARK   24  A    between atoms: N_56  and  CA_57 
REMARK   25  A    between atoms: CA_57  and  C_58 
REMARK   26  A    between atoms: CA_57  and  CB_60 
REMARK       I    between atoms: C_58  and  N_65 
REMARK   27  A    between atoms: CB_60  and  CG_61 
REMARK   28  A    between atoms: N_65  and  CA_66 
REMARK   29  A    between atoms: CA_66  and  C_67 
REMARK   30  A    between atoms: CA_66  and  CB_69 
REMARK       I    between atoms: C_67  and  N_74 
REMARK   31  A    between atoms: CB_69  and  CG_70 
REMARK   32  A    between atoms: N_74  and  CA_75 
REMARK   33  A    between atoms: CA_75  and  C_76 
REMARK   34  A    between atoms: CA_75  and  CB_78 
REMARK       I    between atoms: C_76  and  N_84 
REMARK   35  A    between atoms: CB_78  and  CG_79 
REMARK   36  A    between atoms: CG_79  and  CD_80 
REMARK   37  A    between atoms: N_84  and  CA_85 
REMARK   38  A    between atoms: CA_85  and  C_86 
REMARK   39  A    between atoms: CA_85  and  CB_88 
REMARK       I    between atoms: C_86  and  N_96 
REMARK   40  A    between atoms: CB_88  and  CG_89 
REMARK   41  A    between atoms: N_96  and  CA_97 
REMARK   42  A    between atoms: CA_97  and  C_98 
REMARK   43  A    between atoms: CA_97  and  CB_100 
REMARK       I    between atoms: C_98  and  N_104 
REMARK   44  A    between atoms: N_104  and  CA_105 
REMARK   45  A    between atoms: CA_105  and  C_106 
REMARK   46  A    between atoms: CA_105  and  CB_108 
REMARK       I    between atoms: C_106  and  N_116 
REMARK   47  A    between atoms: CB_108  and  CG_109 
REMARK   48  A    between atoms: CG_109  and  CD_110 
REMARK       I    between atoms: CD_110  and  NE2_111 
REMARK   49  A    between atoms: N_116  and  CA_117 
REMARK   50  A    between atoms: CA_117  and  C_118 
REMARK   51  A    between atoms: CA_117  and  CB_120 
REMARK       I    between atoms: C_118  and  N_133 
REMARK   52  A    between atoms: CB_120  and  CG_121 
REMARK   53  A    between atoms: CG_121  and  CD_122 
REMARK   54  A    between atoms: CD_122  and  NE_123 
REMARK       I    between atoms: NE_123  and  CZ_124 
REMARK       I    between atoms: CZ_124  and  NH1_125 
REMARK   55  A    between atoms: N_133  and  CA_134 
REMARK   56  A    between atoms: CA_134  and  C_135 
REMARK   57  A    between atoms: CA_134  and  CB_137 
REMARK       I    between atoms: C_135  and  N_141 
REMARK   58  A    between atoms: N_141  and  CA_142 
REMARK   59  A    between atoms: CA_142  and  C_143 
REMARK   60  A    between atoms: CA_142  and  CB_145 
REMARK       I    between atoms: C_143  and  N_150 
REMARK   61  A    between atoms: CB_145  and  CG_146 
REMARK   62  A    between atoms: CG_146  and  SD_147 
REMARK   63  A    between atoms: N_150  and  CA_151 
REMARK   64  A    between atoms: CA_151  and  C_152 
REMARK   65  A    between atoms: CA_151  and  CB_154 
REMARK   66  A    between atoms: CB_154  and  CG_155 
ROOT
ATOM      1  CA  GLU d   9    2555.144 787.553-2664.482  0.00  0.00     0.177 C 
ENDROOT
BRANCH   1   2
ATOM      2  N   GLU d   9    2553.841 786.896-2664.537  0.00  0.00    -0.346 N 
ATOM      3  C   ASP d   8    2553.161 786.945-2665.632  0.00  0.00     0.241 C 
ATOM      4  O   ASP d   8    2553.634 787.549-2666.607  0.00  0.00    -0.271 OA
ATOM      5  H   GLU d   9    2553.477 786.410-2663.729  0.00  0.00     0.163 HD
BRANCH   3   6
ATOM      6  CA  ASP d   8    2551.814 786.266-2665.689  0.00  0.00     0.186 C 
BRANCH   6   7
ATOM      7  N   ASP d   8    2551.884 784.917-2665.135  0.00  0.00    -0.346 N 
ATOM      8  C   LEU d   7    2552.720 784.076-2665.641  0.00  0.00     0.241 C 
ATOM      9  O   LEU d   7    2553.441 784.438-2666.583  0.00  0.00    -0.271 OA
ATOM     10  H   ASP d   8    2551.286 784.647-2664.367  0.00  0.00     0.163 HD
BRANCH   8  11
ATOM     11  CA  LEU d   7    2552.792 782.680-2665.068  0.00  0.00     0.177 C 
BRANCH  11  12
ATOM     12  N   LEU d   7    2552.847 782.717-2663.609  0.00  0.00    -0.346 N 
ATOM     13  C   ILE d   6    2553.793 783.380-2663.036  0.00  0.00     0.241 C 
ATOM     14  O   ILE d   6    2554.628 783.967-2663.740  0.00  0.00    -0.271 OA
ATOM     15  H   LEU d   7    2552.155 782.230-2663.058  0.00  0.00     0.163 HD
BRANCH  13  16
ATOM     16  CA  ILE d   6    2553.851 783.417-2661.528  0.00  0.00     0.180 C 
BRANCH  16  17
ATOM     17  N   ILE d   6    2552.537 783.713-2660.962  0.00  0.00    -0.346 N 
ATOM     18  C   SER d   5    2551.933 784.796-2661.316  0.00  0.00     0.243 C 
ATOM     19  O   SER d   5    2552.481 785.550-2662.121  0.00  0.00    -0.271 OA
ATOM     20  H   ILE d   6    2552.108 783.079-2660.303  0.00  0.00     0.163 HD
BRANCH  18  21
ATOM     21  CA  SER d   5    2550.574 785.102-2660.731  0.00  0.00     0.200 C 
BRANCH  21  22
ATOM     22  N   SER d   5    2549.704 783.931-2660.790  0.00  0.00    -0.344 N 
ATOM     23  C   GLU d   4    2549.477 783.379-2661.933  0.00  0.00     0.241 C 
ATOM     24  O   GLU d   4    2550.004 783.858-2662.947  0.00  0.00    -0.271 OA
ATOM     25  H   SER d   5    2549.287 783.560-2659.948  0.00  0.00     0.163 HD
BRANCH  23  26
ATOM     26  CA  GLU d   4    2548.578 782.168-2661.995  0.00  0.00     0.177 C 
BRANCH  26  27
ATOM     27  N   GLU d   4    2548.937 781.197-2660.965  0.00  0.00    -0.346 N 
ATOM     28  C   PRO d   3    2550.142 780.737-2660.932  0.00  0.00     0.241 C 
ATOM     29  O   PRO d   3    2550.966 781.120-2661.763  0.00  0.00    -0.271 OA
ATOM     30  H   GLU d   4    2548.253 780.890-2660.288  0.00  0.00     0.163 HD
BRANCH  28  31
ATOM     31  CA  PRO d   3    2550.540 779.713-2659.855  0.00  0.00     0.179 C 
ATOM     32  N   PRO d   3    2550.088 780.122-2658.534  0.00  0.00    -0.337 N 
ATOM     33  C   ASN d   2    2550.609 781.117-2657.899  0.00  0.00     0.243 C 
ATOM     34  CD  PRO d   3    2549.009 779.329-2657.985  0.00  0.00     0.127 C 
ATOM     35  O   ASN d   2    2551.524 781.747-2658.427  0.00  0.00    -0.271 OA
ATOM     36  CG  PRO d   3    2548.552 778.511-2659.195  0.00  0.00     0.022 C 
ATOM     37  CB  PRO d   3    2549.835 778.358-2660.025  0.00  0.00     0.037 C 
BRANCH  33  38
ATOM     38  CA  ASN d   2    2550.078 781.473-2656.531  0.00  0.00     0.185 C 
BRANCH  38  39
ATOM     39  N   ASN d   2    2548.618 781.512-2656.531  0.00  0.00    -0.346 N 
ATOM     40  C   GLU d   1    2548.014 782.298-2657.356  0.00  0.00     0.242 C 
ATOM     41  O   GLU d   1    2548.690 782.997-2658.125  0.00  0.00    -0.271 OA
ATOM     42  H   ASN d   2    2548.090 780.932-2655.895  0.00  0.00     0.163 HD
BRANCH  40  43
ATOM     43  CA  GLU d   1    2546.505 782.338-2657.356  0.00  0.00     0.191 C 
BRANCH  43  44
ATOM     44  N   GLU d   1    2545.946 780.989-2657.356  0.00  0.00    -0.326 NA
ATOM     45  H   GLU d   1    2546.573 780.110-2657.356  0.00  0.00     0.180 HD
ENDBRANCH  43  44
BRANCH  43  46
ATOM     46  CB  GLU d   1    2545.982 783.123-2656.119  0.00  0.00     0.047 C 
BRANCH  46  47
ATOM     47  CG  GLU d   1    2546.457 784.608-2656.008  0.00  0.00     0.116 C 
BRANCH  47  48
ATOM     48  CD  GLU d   1    2546.033 785.412-2654.793  0.00  0.00     0.172 C 
ATOM     49  OE1 GLU d   1    2545.305 784.910-2653.915  0.00  0.00    -0.648 OA
ATOM     50  OE2 GLU d   1    2546.463 786.582-2654.721  0.00  0.00    -0.648 OA
ENDBRANCH  47  48
ENDBRANCH  46  47
ENDBRANCH  43  46
ENDBRANCH  40  43
ENDBRANCH  38  39
BRANCH  38  51
ATOM     51  CB  ASN d   2    2550.569 780.450-2655.466  0.00  0.00     0.137 C 
BRANCH  51  52
ATOM     52  CG  ASN d   2    2550.106 780.674-2654.023  0.00  0.00     0.217 C 
ATOM     53  ND2 ASN d   2    2550.700 781.588-2653.305  0.00  0.00    -0.370 N 
ATOM     54 21HD ASN d   2    2550.219 781.762-2652.418  0.00  0.00     0.159 HD
ATOM     55 22HD ASN d   2    2551.402 782.160-2653.774  0.00  0.00     0.159 HD
ATOM     56  OD1 ASN d   2    2549.185 780.040-2653.529  0.00  0.00    -0.274 OA
ENDBRANCH  51  52
ENDBRANCH  38  51
ENDBRANCH  33  38
ENDBRANCH  28  31
ENDBRANCH  26  27
BRANCH  26  57
ATOM     57  CB  GLU d   4    2547.090 782.587-2661.825  0.00  0.00     0.045 C 
BRANCH  57  58
ATOM     58  CG  GLU d   4    2546.542 783.591-2662.891  0.00  0.00     0.116 C 
BRANCH  58  59
ATOM     59  CD  GLU d   4    2545.116 784.088-2662.748  0.00  0.00     0.172 C 
ATOM     60  OE1 GLU d   4    2544.389 783.690-2661.817  0.00  0.00    -0.648 OA
ATOM     61  OE2 GLU d   4    2544.727 784.917-2663.596  0.00  0.00    -0.648 OA
ENDBRANCH  58  59
ENDBRANCH  57  58
ENDBRANCH  26  57
ENDBRANCH  23  26
ENDBRANCH  21  22
BRANCH  21  62
ATOM     62  CB  SER d   5    2550.686 785.634-2659.281  0.00  0.00     0.199 C 
BRANCH  62  63
ATOM     63  OG  SER d   5    2551.417 784.755-2658.419  0.00  0.00    -0.398 OA
ATOM     64  HG  SER d   5    2550.927 783.930-2658.369  0.00  0.00     0.209 HD
ENDBRANCH  62  63
ENDBRANCH  21  62
ENDBRANCH  18  21
ENDBRANCH  16  17
BRANCH  16  65
ATOM     65  CB  ILE d   6    2554.450 782.081-2660.927  0.00  0.00     0.013 C 
ATOM     66  CG2 ILE d   6    2555.891 781.779-2661.443  0.00  0.00     0.012 C 
BRANCH  65  67
ATOM     67  CG1 ILE d   6    2554.469 782.019-2659.367  0.00  0.00     0.002 C 
ATOM     68  CD1 ILE d   6    2554.738 780.630-2658.751  0.00  0.00     0.005 C 
ENDBRANCH  65  67
ENDBRANCH  16  65
ENDBRANCH  13  16
ENDBRANCH  11  12
BRANCH  11  69
ATOM     69  CB  LEU d   7    2551.589 781.821-2665.548  0.00  0.00     0.038 C 
BRANCH  69  70
ATOM     70  CG  LEU d   7    2551.516 780.341-2665.082  0.00  0.00    -0.020 C 
ATOM     71  CD1 LEU d   7    2550.326 779.636-2665.747  0.00  0.00     0.009 C 
ATOM     72  CD2 LEU d   7    2552.809 779.562-2665.373  0.00  0.00     0.009 C 
ENDBRANCH  69  70
ENDBRANCH  11  69
ENDBRANCH   8  11
ENDBRANCH   6   7
BRANCH   6  73
ATOM     73  CB  ASP d   8    2550.736 787.106-2664.948  0.00  0.00     0.147 C 
BRANCH  73  74
ATOM     74  CG  ASP d   8    2550.518 788.527-2665.489  0.00  0.00     0.175 C 
ATOM     75  OD1 ASP d   8    2550.583 788.725-2666.720  0.00  0.00    -0.648 OA
ATOM     76  OD2 ASP d   8    2550.327 789.453-2664.674  0.00  0.00    -0.648 OA
ENDBRANCH  73  74
ENDBRANCH   6  73
ENDBRANCH   3   6
ENDBRANCH   1   2
BRANCH   1  77
ATOM     77  C   GLU d   9    2556.062 787.024-2665.558  0.00  0.00     0.241 C 
ATOM     78  O   GLU d   9    2556.725 787.778-2666.284  0.00  0.00    -0.271 OA
ATOM     79  N   HIS d  10    2556.157 785.749-2665.727  0.00  0.00    -0.346 N 
ATOM     80  H   HIS d  10    2555.627 785.114-2665.148  0.00  0.00     0.163 HD
BRANCH  79  81
ATOM     81  CA  HIS d  10    2557.045 785.237-2666.767  0.00  0.00     0.182 C 
BRANCH  81  82
ATOM     82  C   HIS d  10    2556.678 785.801-2668.119  0.00  0.00     0.241 C 
ATOM     83  O   HIS d  10    2557.531 786.265-2668.891  0.00  0.00    -0.271 OA
ATOM     84  N   VAL d  11    2555.440 785.800-2668.481  0.00  0.00    -0.346 N 
ATOM     85  H   VAL d  11    2554.727 785.428-2667.871  0.00  0.00     0.163 HD
BRANCH  84  86
ATOM     86  CA  VAL d  11    2555.085 786.346-2669.789  0.00  0.00     0.180 C 
BRANCH  86  87
ATOM     87  C   VAL d  11    2555.550 787.776-2669.922  0.00  0.00     0.241 C 
ATOM     88  O   VAL d  11    2556.151 788.180-2670.925  0.00  0.00    -0.271 OA
ATOM     89  N   GLN d  12    2555.314 788.602-2668.960  0.00  0.00    -0.346 N 
ATOM     90  H   GLN d  12    2554.825 788.297-2668.130  0.00  0.00     0.163 HD
BRANCH  89  91
ATOM     91  CA  GLN d  12    2555.763 789.985-2669.088  0.00  0.00     0.177 C 
BRANCH  91  92
ATOM     92  C   GLN d  12    2557.253 790.051-2669.326  0.00  0.00     0.241 C 
ATOM     93  O   GLN d  12    2557.740 790.759-2670.205  0.00  0.00    -0.271 OA
ATOM     94  N   ARG d  13    2558.037 789.345-2668.585  0.00  0.00    -0.346 N 
ATOM     95  H   ARG d  13    2557.661 788.755-2667.856  0.00  0.00     0.163 HD
BRANCH  94  96
ATOM     96  CA  ARG d  13    2559.478 789.410-2668.816  0.00  0.00     0.176 C 
BRANCH  96  97
ATOM     97  C   ARG d  13    2559.813 789.037-2670.241  0.00  0.00     0.241 C 
ATOM     98  O   ARG d  13    2560.582 789.708-2670.926  0.00  0.00    -0.271 OA
ATOM     99  N   VAL d  14    2559.277 787.983-2670.754  0.00  0.00    -0.346 N 
ATOM    100  H   VAL d  14    2558.642 787.414-2670.212  0.00  0.00     0.163 HD
BRANCH  99 101
ATOM    101  CA  VAL d  14    2559.601 787.622-2672.132  0.00  0.00     0.180 C 
BRANCH 101 102
ATOM    102  C   VAL d  14    2559.271 788.752-2673.078  0.00  0.00     0.241 C 
ATOM    103  O   VAL d  14    2560.064 789.133-2673.948  0.00  0.00    -0.271 OA
ATOM    104  N   MET d  15    2558.127 789.338-2672.976  0.00  0.00    -0.346 N 
ATOM    105  H   MET d  15    2557.462 789.046-2672.274  0.00  0.00     0.163 HD
BRANCH 104 106
ATOM    106  CA  MET d  15    2557.806 790.431-2673.890  0.00  0.00     0.177 C 
BRANCH 106 107
ATOM    107  C   MET d  15    2558.837 791.531-2673.803  0.00  0.00     0.241 C 
ATOM    108  O   MET d  15    2559.339 792.041-2674.816  0.00  0.00    -0.271 OA
ATOM    109  N   LEU d  16    2559.206 791.952-2672.641  0.00  0.00    -0.347 N 
ATOM    110  H   LEU d  16    2558.811 791.552-2671.801  0.00  0.00     0.163 HD
BRANCH 109 111
ATOM    111  CA  LEU d  16    2560.202 793.016-2672.558  0.00  0.00     0.163 C 
BRANCH 111 112
ATOM    112  C   LEU d  16    2561.472 792.623-2673.274  0.00  0.00     0.219 C 
ATOM    113  O   LEU d  16    2561.596 791.527-2673.841  0.00  0.00    -0.287 OA
ENDBRANCH 111 112
BRANCH 111 114
ATOM    114  CB  LEU d  16    2560.491 793.379-2671.073  0.00  0.00     0.037 C 
BRANCH 114 115
ATOM    115  CG  LEU d  16    2559.301 793.839-2670.189  0.00  0.00    -0.020 C 
ATOM    116  CD1 LEU d  16    2559.805 794.256-2668.800  0.00  0.00     0.009 C 
ATOM    117  CD2 LEU d  16    2558.504 794.994-2670.819  0.00  0.00     0.009 C 
ENDBRANCH 114 115
ENDBRANCH 111 114
ENDBRANCH 109 111
ENDBRANCH 106 107
BRANCH 106 118
ATOM    118  CB  MET d  15    2556.385 790.976-2673.581  0.00  0.00     0.045 C 
BRANCH 118 119
ATOM    119  CG  MET d  15    2555.223 789.979-2673.772  0.00  0.00     0.076 C 
BRANCH 119 120
ATOM    120  SD  MET d  15    2553.649 790.845-2673.658  0.00  0.00    -0.173 SA
ATOM    121  CE  MET d  15    2552.568 789.415-2673.520  0.00  0.00     0.089 C 
ENDBRANCH 119 120
ENDBRANCH 118 119
ENDBRANCH 106 118
ENDBRANCH 104 106
ENDBRANCH 101 102
BRANCH 101 122
ATOM    122  CB  VAL d  14    2558.828 786.305-2672.538  0.00  0.00     0.009 C 
ATOM    123  CG1 VAL d  14    2558.917 785.886-2674.031  0.00  0.00     0.012 C 
ATOM    124  CG2 VAL d  14    2559.260 785.053-2671.737  0.00  0.00     0.012 C 
ENDBRANCH 101 122
ENDBRANCH  99 101
ENDBRANCH  96  97
BRANCH  96 125
ATOM    125  CB  ARG d  13    2560.191 788.471-2667.802  0.00  0.00     0.036 C 
BRANCH 125 126
ATOM    126  CG  ARG d  13    2561.736 788.624-2667.721  0.00  0.00     0.023 C 
BRANCH 126 127
ATOM    127  CD  ARG d  13    2562.363 787.637-2666.723  0.00  0.00     0.138 C 
BRANCH 127 128
ATOM    128  NE  ARG d  13    2563.840 787.844-2666.673  0.00  0.00    -0.227 N 
ATOM    129  CZ  ARG d  13    2564.688 787.153-2665.917  0.00  0.00     0.665 C 
ATOM    130  NH1 ARG d  13    2564.323 786.189-2665.119  0.00  0.00    -0.235 N 
ATOM    131  NH2 ARG d  13    2565.948 787.451-2665.975  0.00  0.00    -0.235 N 
ATOM    132 11HH ARG d  13    2563.318 786.003-2665.122  0.00  0.00     0.174 HD
ATOM    133 12HH ARG d  13    2565.036 785.706-2664.570  0.00  0.00     0.174 HD
ATOM    134 21HH ARG d  13    2566.216 788.209-2666.607  0.00  0.00     0.174 HD
ATOM    135 22HH ARG d  13    2566.583 786.910-2665.386  0.00  0.00     0.174 HD
ATOM    136  HE  ARG d  13    2564.291 788.565-2667.244  0.00  0.00     0.177 HD
ENDBRANCH 127 128
ENDBRANCH 126 127
ENDBRANCH 125 126
ENDBRANCH  96 125
ENDBRANCH  94  96
ENDBRANCH  91  92
BRANCH  91 137
ATOM    137  CB  GLN d  12    2555.373 790.753-2667.805  0.00  0.00     0.044 C 
BRANCH 137 138
ATOM    138  CG  GLN d  12    2555.734 792.275-2667.775  0.00  0.00     0.105 C 
BRANCH 138 139
ATOM    139  CD  GLN d  12    2555.432 793.089-2666.511  0.00  0.00     0.215 C 
ATOM    140  NE2 GLN d  12    2554.865 792.514-2665.481  0.00  0.00    -0.370 N 
ATOM    141 21HE GLN d  12    2554.759 793.109-2664.658  0.00  0.00     0.159 HD
ATOM    142 22HE GLN d  12    2554.701 791.510-2665.584  0.00  0.00     0.159 HD
ATOM    143  OE1 GLN d  12    2555.735 794.270-2666.434  0.00  0.00    -0.274 OA
ENDBRANCH 138 139
ENDBRANCH 137 138
ENDBRANCH  91 137
ENDBRANCH  89  91
ENDBRANCH  86  87
BRANCH  86 144
ATOM    144  CB  VAL d  11    2553.523 786.240-2670.008  0.00  0.00     0.009 C 
ATOM    145  CG1 VAL d  11    2552.955 786.943-2671.271  0.00  0.00     0.012 C 
ATOM    146  CG2 VAL d  11    2552.998 784.786-2670.080  0.00  0.00     0.012 C 
ENDBRANCH  86 144
ENDBRANCH  84  86
ENDBRANCH  81  82
BRANCH  81 147
ATOM    147  CB  HIS d  10    2556.880 783.708-2666.762  0.00  0.00     0.095 C 
BRANCH 147 148
ATOM    148  CG  HIS d  10    2558.166 782.997-2666.454  0.00  0.00     0.053 A 
ATOM    149  CD2 HIS d  10    2558.547 782.662-2665.161  0.00  0.00     0.116 A 
ATOM    150  NE2 HIS d  10    2559.761 782.030-2665.228  0.00  0.00    -0.359 N 
ATOM    151  CE1 HIS d  10    2560.023 782.032-2666.563  0.00  0.00     0.207 A 
ATOM    152  2HE HIS d  10    2560.328 781.653-2664.455  0.00  0.00     0.166 HD
ATOM    153  ND1 HIS d  10    2559.117 782.590-2667.386  0.00  0.00    -0.247 NA
ENDBRANCH 147 148
ENDBRANCH  81 147
ENDBRANCH  79  81
ENDBRANCH   1  77
BRANCH   1 154
ATOM    154  CB  GLU d   9    2555.778 787.345-2663.077  0.00  0.00     0.045 C 
BRANCH 154 155
ATOM    155  CG  GLU d   9    2557.161 788.037-2662.848  0.00  0.00     0.116 C 
BRANCH 155 156
ATOM    156  CD  GLU d   9    2557.863 787.824-2661.520  0.00  0.00     0.172 C 
ATOM    157  OE1 GLU d   9    2557.341 787.134-2660.623  0.00  0.00    -0.648 OA
ATOM    158  OE2 GLU d   9    2558.982 788.362-2661.389  0.00  0.00    -0.648 OA
ENDBRANCH 155 156
ENDBRANCH 154 155
ENDBRANCH   1 154
TORSDOF 66
