@<TRIPOS>MOLECULE
13-6
260 261 16              
SMALL
USER_CHARGES
@<TRIPOS>ATOM
1	   N	2048.932	620.842	-2115.957	N.3	1	GLU1	-0.516	
2	  CA	2049.491	622.191	-2115.957	C.3	1	GLU1	0.040	
3	   C	2051.000	622.151	-2115.957	C.2	1	GLU1	0.537	
4	   O	2051.676	622.850	-2116.726	O.2	1	GLU1	-0.582	
5	  CB	2048.968	622.976	-2114.720	C.3	1	GLU1	0.056	
6	  CG	2049.443	624.461	-2114.609	C.3	1	GLU1	0.014	
7	  CD	2049.019	625.265	-2113.394	C.2	1	GLU1	0.805	
8	 OE1	2048.291	624.763	-2112.516	O.co2	1	GLU1	-0.819	
9	 OE2	2049.449	626.435	-2113.322	O.co2	1	GLU1	-0.819	
10	   H	2049.559	619.963	-2115.957	 H	1	GLU1	0.294	
11	  HA	2049.165	622.709	-2116.877	 H	1	GLU1	0.111	
12	 2HB	2049.257	622.445	-2113.790	 H	1	GLU1	-0.017	
13	 3HB	2047.861	622.966	-2114.707	 H	1	GLU1	-0.017	
14	 2HG	2049.133	625.046	-2115.490	 H	1	GLU1	-0.043	
15	 3HG	2050.543	624.528	-2114.580	 H	1	GLU1	-0.043	
16	   N	2051.605	621.365	-2115.132	N.am	2	ASN2	-0.416	
17	  CA	2053.064	621.326	-2115.132	C.3	2	ASN2	0.014	
18	   C	2053.596	620.971	-2116.500	C.2	2	ASN2	0.597	
19	   O	2054.511	621.601	-2117.029	O.2	2	ASN2	-0.568	
20	  CB	2053.556	620.303	-2114.067	C.3	2	ASN2	-0.204	
21	  CG	2053.093	620.527	-2112.624	C.2	2	ASN2	0.713	
22	 ND2	2053.687	621.442	-2111.906	N.pl3	2	ASN2	-0.919	
23	 OD1	2052.171	619.894	-2112.130	O.2	2	ASN2	-0.593	
24	   H	2051.077	620.786	-2114.496	 H	2	ASN2	0.272	
25	  HA	2053.442	622.336	-2114.886	 H	2	ASN2	0.105	
26	 2HB	2054.660	620.244	-2114.071	 H	2	ASN2	0.080	
27	 3HB	2053.227	619.285	-2114.353	 H	2	ASN2	0.080	
28	1HD2	2053.206	621.615	-2111.020	 H	2	ASN2	0.420	
29	2HD2	2054.388	622.013	-2112.375	 H	2	ASN2	0.420	
30	   N	2053.074	619.976	-2117.135	N.am	3	PRO3	-0.255	
31	  CA	2053.526	619.566	-2118.456	C.3	3	PRO3	-0.027	
32	   C	2053.129	620.590	-2119.533	C.2	3	PRO3	0.590	
33	   O	2053.952	620.973	-2120.365	O.2	3	PRO3	-0.575	
34	  CB	2052.822	618.212	-2118.626	C.3	3	PRO3	-0.007	
35	  CG	2051.538	618.364	-2117.796	C.3	3	PRO3	0.019	
36	  CD	2051.996	619.183	-2116.586	C.3	3	PRO3	0.019	
37	  HA	2054.612	619.446	-2118.469	 H	3	PRO3	0.064	
38	 2HB	2053.445	617.431	-2118.185	 H	3	PRO3	0.025	
39	 3HB	2052.624	617.963	-2119.671	 H	3	PRO3	0.025	
40	 2HG	2051.111	617.402	-2117.505	 H	3	PRO3	0.021	
41	 3HG	2050.801	618.935	-2118.364	 H	3	PRO3	0.021	
42	 2HD	2052.385	618.533	-2115.799	 H	3	PRO3	0.039	
43	 3HD	2051.199	619.819	-2116.193	 H	3	PRO3	0.039	
44	   N	2051.924	621.050	-2119.566	N.am	4	GLU4	-0.516	
45	  CA	2051.565	622.021	-2120.596	C.3	4	GLU4	0.040	
46	   C	2052.464	623.232	-2120.534	C.2	4	GLU4	0.537	
47	   O	2052.991	623.711	-2121.548	O.2	4	GLU4	-0.582	
48	  CB	2050.076	622.440	-2120.426	C.3	4	GLU4	0.056	
49	  CG	2049.529	623.444	-2121.492	C.3	4	GLU4	0.014	
50	  CD	2048.102	623.941	-2121.349	C.2	4	GLU4	0.805	
51	 OE1	2047.375	623.543	-2120.418	O.co2	4	GLU4	-0.819	
52	 OE2	2047.713	624.770	-2122.197	O.co2	4	GLU4	-0.819	
53	   H	2051.239	620.744	-2118.889	 H	4	GLU4	0.294	
54	  HA	2051.696	621.551	-2121.587	 H	4	GLU4	0.111	
55	 2HB	2049.923	622.880	-2119.419	 H	4	GLU4	-0.017	
56	 3HB	2049.428	621.543	-2120.432	 H	4	GLU4	-0.017	
57	 2HG	2049.611	623.029	-2122.510	 H	4	GLU4	-0.043	
58	 3HG	2050.117	624.376	-2121.503	 H	4	GLU4	-0.043	
59	   N	2052.691	623.785	-2119.391	N.am	5	SER5	-0.416	
60	  CA	2053.561	624.956	-2119.332	C.3	5	SER5	-0.025	
61	   C	2054.920	624.650	-2119.917	C.2	5	SER5	0.597	
62	   O	2055.468	625.403	-2120.722	O.2	5	SER5	-0.568	
63	  CB	2053.672	625.488	-2117.882	C.3	5	SER5	0.212	
64	  OG	2054.403	624.608	-2117.021	O.3	5	SER5	-0.655	
65	   H	2052.273	623.413	-2118.550	 H	5	SER5	0.272	
66	  HA	2053.112	625.746	-2119.961	 H	5	SER5	0.084	
67	 2HB	2052.672	625.682	-2117.448	 H	5	SER5	0.035	
68	 3HB	2054.177	626.473	-2117.884	 H	5	SER5	0.035	
69	  HG	2053.914	623.783	-2116.970	 H	5	SER5	0.428	
70	   N	2055.524	623.566	-2119.563	N.am	6	ILE6	-0.416	
71	  CA	2056.837	623.271	-2120.129	C.3	6	ILE6	-0.060	
72	   C	2056.780	623.233	-2121.637	C.2	6	ILE6	0.597	
73	   O	2057.615	623.820	-2122.341	O.2	6	ILE6	-0.568	
74	  CB	2057.436	621.935	-2119.529	C.3	6	ILE6	0.130	
75	 CG1	2057.455	621.872	-2117.968	C.3	6	ILE6	-0.043	
76	 CG2	2058.877	621.632	-2120.044	C.3	6	ILE6	-0.320	
77	 CD1	2057.725	620.483	-2117.353	C.3	6	ILE6	-0.066	
78	   H	2055.095	622.932	-2118.904	 H	6	ILE6	0.272	
79	  HA	2057.511	624.105	-2119.861	 H	6	ILE6	0.087	
80	  HB	2056.778	621.109	-2119.873	 H	6	ILE6	0.019	
81	2HG1	2056.473	622.192	-2117.572	 H	6	ILE6	0.024	
82	3HG1	2058.171	622.614	-2117.563	 H	6	ILE6	0.024	
83	1HG2	2058.937	621.539	-2121.142	 H	6	ILE6	0.088	
84	2HG2	2059.600	622.414	-2119.741	 H	6	ILE6	0.088	
85	3HG2	2059.267	620.670	-2119.665	 H	6	ILE6	0.088	
86	1HD1	2056.996	619.729	-2117.708	 H	6	ILE6	0.019	
87	2HD1	2058.735	620.104	-2117.588	 H	6	ILE6	0.019	
88	3HD1	2057.648	620.513	-2116.250	 H	6	ILE6	0.019	
89	   N	2055.834	622.570	-2122.210	N.am	7	LEU7	-0.416	
90	  CA	2055.779	622.534	-2123.669	C.3	7	LEU7	-0.052	
91	   C	2055.707	623.929	-2124.242	C.2	7	LEU7	0.597	
92	   O	2056.428	624.291	-2125.184	O.2	7	LEU7	-0.568	
93	  CB	2054.576	621.674	-2124.149	C.3	7	LEU7	-0.110	
94	  CG	2054.502	620.195	-2123.683	C.3	7	LEU7	0.353	
95	 CD1	2053.312	619.489	-2124.348	C.3	7	LEU7	-0.412	
96	 CD2	2055.796	619.415	-2123.974	C.3	7	LEU7	-0.412	
97	   H	2055.142	622.083	-2121.659	 H	7	LEU7	0.272	
98	  HA	2056.721	622.094	-2124.043	 H	7	LEU7	0.092	
99	 2HB	2054.552	621.690	-2125.257	 H	7	LEU7	0.046	
100	 3HB	2053.636	622.177	-2123.845	 H	7	LEU7	0.046	
101	  HG	2054.333	620.187	-2122.585	 H	7	LEU7	-0.036	
102	1HD1	2052.355	619.998	-2124.125	 H	7	LEU7	0.100	
103	2HD1	2053.412	619.449	-2125.449	 H	7	LEU7	0.100	
104	3HD1	2053.205	618.448	-2123.992	 H	7	LEU7	0.100	
105	1HD2	2056.071	619.445	-2125.044	 H	7	LEU7	0.100	
106	2HD2	2056.649	619.826	-2123.403	 H	7	LEU7	0.100	
107	3HD2	2055.714	618.353	-2123.678	 H	7	LEU7	0.100	
108	   N	2054.870	624.770	-2123.736	N.am	8	ASP8	-0.516	
109	  CA	2054.800	626.120	-2124.290	C.3	8	ASP8	0.038	
110	   C	2056.147	626.799	-2124.233	C.2	8	ASP8	0.537	
111	   O	2056.620	627.403	-2125.208	O.2	8	ASP8	-0.582	
112	  CB	2053.723	626.960	-2123.549	C.3	8	ASP8	-0.030	
113	  CG	2053.505	628.380	-2124.090	C.2	8	ASP8	0.799	
114	 OD1	2053.569	628.578	-2125.321	O.co2	8	ASP8	-0.801	
115	 OD2	2053.313	629.307	-2123.275	O.co2	8	ASP8	-0.801	
116	   H	2054.272	624.500	-2122.968	 H	8	ASP8	0.294	
117	  HA	2054.517	626.041	-2125.357	 H	8	ASP8	0.088	
118	 2HB	2053.980	627.043	-2122.477	 H	8	ASP8	-0.012	
119	 3HB	2052.743	626.455	-2123.582	 H	8	ASP8	-0.012	
120	   N	2056.827	626.749	-2123.138	N.am	9	GLU9	-0.516	
121	  CA	2058.131	627.406	-2123.083	C.3	9	GLU9	0.040	
122	   C	2059.048	626.878	-2124.159	C.2	9	GLU9	0.537	
123	   O	2059.712	627.631	-2124.885	O.2	9	GLU9	-0.582	
124	  CB	2058.764	627.199	-2121.678	C.3	9	GLU9	0.056	
125	  CG	2060.147	627.891	-2121.449	C.3	9	GLU9	0.014	
126	  CD	2060.849	627.678	-2120.121	C.2	9	GLU9	0.805	
127	 OE1	2060.327	626.987	-2119.224	O.co2	9	GLU9	-0.819	
128	 OE2	2061.969	628.215	-2119.990	O.co2	9	GLU9	-0.819	
129	   H	2056.464	626.263	-2122.331	 H	9	GLU9	0.294	
130	  HA	2057.989	628.488	-2123.259	 H	9	GLU9	0.111	
131	 2HB	2058.876	626.114	-2121.474	 H	9	GLU9	-0.017	
132	 3HB	2058.067	627.553	-2120.894	 H	9	GLU9	-0.017	
133	 2HG	2060.075	628.981	-2121.589	 H	9	GLU9	-0.043	
134	 3HG	2060.894	627.545	-2122.183	 H	9	GLU9	-0.043	
135	   N	2059.144	625.602	-2124.328	N.am	10	HIS10	-0.416	
136	  CA	2060.031	625.090	-2125.368	C.3	10	HIS10	-0.058	
137	   C	2059.664	625.654	-2126.720	C.2	10	HIS10	0.597	
138	   O	2060.517	626.118	-2127.492	O.2	10	HIS10	-0.568	
139	  CB	2059.867	623.561	-2125.363	C.3	10	HIS10	-0.007	
140	  CG	2061.152	622.850	-2125.055	C.2	10	HIS10	0.187	
141	 CD2	2061.533	622.516	-2123.762	C.2	10	HIS10	-0.221	
142	 ND1	2062.104	622.444	-2125.987	N.2	10	HIS10	-0.543	
143	 CE1	2063.010	621.886	-2125.164	C.2	10	HIS10	0.163	
144	 NE2	2062.748	621.883	-2123.829	N.pl3	10	HIS10	-0.280	
145	   H	2058.613	624.967	-2123.749	 H	10	HIS10	0.272	
146	  HA	2061.051	625.447	-2125.144	 H	10	HIS10	0.136	
147	 2HB	2059.501	623.194	-2126.342	 H	10	HIS10	0.037	
148	 3HB	2059.111	623.225	-2124.622	 H	10	HIS10	0.037	
149	 2HD	2060.948	622.732	-2122.873	 H	10	HIS10	0.186	
150	 1HE	2063.901	621.464	-2125.611	 H	10	HIS10	0.144	
151	 2HE	2063.315	621.506	-2123.056	 H	10	HIS10	0.334	
152	   N	2058.427	625.654	-2127.083	N.am	11	VAL11	-0.416	
153	  CA	2058.071	626.199	-2128.390	C.3	11	VAL11	-0.087	
154	   C	2058.537	627.629	-2128.523	C.2	11	VAL11	0.597	
155	   O	2059.138	628.034	-2129.526	O.2	11	VAL11	-0.568	
156	  CB	2056.510	626.093	-2128.609	C.3	11	VAL11	0.299	
157	 CG1	2055.942	626.797	-2129.872	C.3	11	VAL11	-0.319	
158	 CG2	2055.985	624.639	-2128.681	C.3	11	VAL11	-0.319	
159	   H	2057.713	625.281	-2126.472	 H	11	VAL11	0.272	
160	  HA	2058.591	625.616	-2129.172	 H	11	VAL11	0.097	
161	  HB	2056.023	626.574	-2127.734	 H	11	VAL11	-0.030	
162	1HG1	2056.380	626.404	-2130.809	 H	11	VAL11	0.079	
163	2HG1	2054.843	626.690	-2129.954	 H	11	VAL11	0.079	
164	3HG1	2056.120	627.889	-2129.863	 H	11	VAL11	0.079	
165	1HG2	2056.274	624.052	-2127.790	 H	11	VAL11	0.079	
166	2HG2	2054.879	624.603	-2128.723	 H	11	VAL11	0.079	
167	3HG2	2056.366	624.098	-2129.567	 H	11	VAL11	0.079	
168	   N	2058.300	628.456	-2127.561	N.am	12	GLN12	-0.416	
169	  CA	2058.750	629.838	-2127.689	C.3	12	GLN12	-0.003	
170	   C	2060.239	629.905	-2127.927	C.2	12	GLN12	0.597	
171	   O	2060.727	630.612	-2128.806	O.2	12	GLN12	-0.568	
172	  CB	2058.359	630.607	-2126.406	C.3	12	GLN12	-0.004	
173	  CG	2058.720	632.128	-2126.376	C.3	12	GLN12	-0.064	
174	  CD	2058.419	632.943	-2125.112	C.2	12	GLN12	0.695	
175	 NE2	2057.852	632.367	-2124.083	N.pl3	12	GLN12	-0.941	
176	 OE1	2058.721	634.123	-2125.035	O.2	12	GLN12	-0.609	
177	   H	2057.812	628.150	-2126.731	 H	12	GLN12	0.272	
178	  HA	2058.250	630.294	-2128.564	 H	12	GLN12	0.085	
179	 2HB	2058.835	630.107	-2125.537	 H	12	GLN12	0.017	
180	 3HB	2057.269	630.500	-2126.243	 H	12	GLN12	0.017	
181	 2HG	2058.243	632.649	-2127.227	 H	12	GLN12	0.035	
182	 3HG	2059.804	632.270	-2126.542	 H	12	GLN12	0.035	
183	1HE2	2057.745	632.962	-2123.259	 H	12	GLN12	0.425	
184	2HE2	2057.688	631.364	-2124.185	 H	12	GLN12	0.425	
185	   N	2061.024	629.198	-2127.186	N.am	13	ILE13	-0.416	
186	  CA	2062.464	629.263	-2127.417	C.3	13	ILE13	-0.060	
187	   C	2062.801	628.891	-2128.841	C.2	13	ILE13	0.597	
188	   O	2063.577	629.569	-2129.530	O.2	13	ILE13	-0.568	
189	  CB	2063.256	628.375	-2126.373	C.3	13	ILE13	0.130	
190	 CG1	2062.900	628.653	-2124.878	C.3	13	ILE13	-0.043	
191	 CG2	2064.804	628.488	-2126.533	C.3	13	ILE13	-0.320	
192	 CD1	2063.399	627.605	-2123.861	C.3	13	ILE13	-0.066	
193	   H	2060.647	628.608	-2126.457	 H	13	ILE13	0.272	
194	  HA	2062.776	630.315	-2127.285	 H	13	ILE13	0.087	
195	  HB	2062.976	627.320	-2126.577	 H	13	ILE13	0.019	
196	2HG1	2061.801	628.689	-2124.759	 H	13	ILE13	0.024	
197	3HG1	2063.243	629.664	-2124.584	 H	13	ILE13	0.024	
198	1HG2	2065.161	628.192	-2127.534	 H	13	ILE13	0.088	
199	2HG2	2065.167	629.517	-2126.345	 H	13	ILE13	0.088	
200	3HG2	2065.349	627.823	-2125.839	 H	13	ILE13	0.088	
201	1HD1	2063.035	626.589	-2124.107	 H	13	ILE13	0.019	
202	2HD1	2064.502	627.559	-2123.807	 H	13	ILE13	0.019	
203	3HD1	2063.043	627.838	-2122.840	 H	13	ILE13	0.019	
204	   N	2062.265	627.837	-2129.355	N.am	14	VAL14	-0.416	
205	  CA	2062.590	627.477	-2130.733	C.3	14	VAL14	-0.087	
206	   C	2062.261	628.607	-2131.678	C.2	14	VAL14	0.597	
207	   O	2063.055	628.989	-2132.547	O.2	14	VAL14	-0.568	
208	  CB	2061.818	626.160	-2131.140	C.3	14	VAL14	0.299	
209	 CG1	2061.908	625.742	-2132.633	C.3	14	VAL14	-0.319	
210	 CG2	2062.249	624.908	-2130.339	C.3	14	VAL14	-0.319	
211	   H	2061.629	627.268	-2128.814	 H	14	VAL14	0.272	
212	  HA	2063.679	627.300	-2130.807	 H	14	VAL14	0.097	
213	  HB	2060.741	626.332	-2130.925	 H	14	VAL14	-0.030	
214	1HG1	2062.950	625.565	-2132.961	 H	14	VAL14	0.079	
215	2HG1	2061.335	624.819	-2132.846	 H	14	VAL14	0.079	
216	3HG1	2061.480	626.504	-2133.312	 H	14	VAL14	0.079	
217	1HG2	2062.161	625.067	-2129.249	 H	14	VAL14	0.079	
218	2HG2	2061.613	624.032	-2130.572	 H	14	VAL14	0.079	
219	3HG2	2063.297	624.618	-2130.544	 H	14	VAL14	0.079	
220	   N	2061.117	629.193	-2131.577	N.am	15	MET15	-0.416	
221	  CA	2060.797	630.286	-2132.491	C.3	15	MET15	-0.024	
222	   C	2061.827	631.386	-2132.403	C.2	15	MET15	0.597	
223	   O	2062.331	631.896	-2133.415	O.2	15	MET15	-0.568	
224	  CB	2059.375	630.832	-2132.184	C.3	15	MET15	0.034	
225	  CG	2058.214	629.833	-2132.376	C.3	15	MET15	0.002	
226	  SD	2056.640	630.700	-2132.263	S.3	15	MET15	-0.274	
227	  CE	2055.558	629.270	-2132.127	C.3	15	MET15	-0.054	
228	   H	2060.451	628.901	-2130.876	 H	15	MET15	0.272	
229	  HA	2060.823	629.898	-2133.527	 H	15	MET15	0.088	
230	 2HB	2059.174	631.711	-2132.826	 H	15	MET15	0.024	
231	 3HB	2059.339	631.224	-2131.147	 H	15	MET15	0.024	
232	 2HG	2058.256	629.048	-2131.598	 H	15	MET15	0.044	
233	 3HG	2058.277	629.319	-2133.352	 H	15	MET15	0.044	
234	 1HE	2055.703	628.582	-2132.979	 H	15	MET15	0.068	
235	 2HE	2055.767	628.718	-2131.194	 H	15	MET15	0.068	
236	 3HE	2054.501	629.586	-2132.111	 H	15	MET15	0.068	
237	   N	2062.195	631.807	-2131.241	N.am	16	ARG16	-0.348	
238	  CA	2063.192	632.870	-2131.156	C.3	16	ARG16	-0.264	
239	   C	2064.463	632.477	-2131.872	C.2	16	ARG16	0.734	
240	   O	2064.577	631.400	-2132.453	O.2	16	ARG16	-0.589	
241	  CB	2063.461	633.188	-2129.658	C.3	16	ARG16	-0.001	
242	  CG	2064.286	634.476	-2129.384	C.3	16	ARG16	0.039	
243	  CD	2064.535	634.695	-2127.883	C.3	16	ARG16	0.049	
244	  NE	2065.312	635.954	-2127.681	N.pl3	16	ARG16	-0.530	
245	  CZ	2065.703	636.436	-2126.506	C.cat	16	ARG16	0.808	
246	 NH1	2065.454	635.852	-2125.367	N.pl3	16	ARG16	-0.863	
247	 NH2	2066.367	637.548	-2126.487	N.pl3	16	ARG16	-0.863	
248	   H	2061.800	631.407	-2130.402	 H	16	ARG16	0.275	
249	  HA	2062.784	633.763	-2131.666	 H	16	ARG16	0.156	
250	 2HB	2063.957	632.312	-2129.191	 H	16	ARG16	0.033	
251	 3HB	2062.491	633.269	-2129.124	 H	16	ARG16	0.033	
252	 2HG	2063.757	635.348	-2129.822	 H	16	ARG16	0.029	
253	 3HG	2065.260	634.423	-2129.913	 H	16	ARG16	0.029	
254	 2HD	2065.083	633.820	-2127.469	 H	16	ARG16	0.069	
255	 3HD	2063.562	634.738	-2127.348	 H	16	ARG16	0.069	
256	  HE	2065.591	636.535	-2128.478	 H	16	ARG16	0.346	
257	1HH1	2064.928	634.979	-2125.452	 H	16	ARG16	0.448	
258	2HH1	2065.788	636.287	-2124.506	 H	16	ARG16	0.448	
259	1HH2	2066.553	637.991	-2127.388	 H	16	ARG16	0.448	
260	2HH2	2066.657	637.903	-2125.574	 H	16	ARG16	0.448	
@<TRIPOS>BOND
1 1 2 1
2 1 10 1
3 2 3 1
4 2 5 1
5 2 11 1
6 3 4 2
7 3 16 1
8 5 6 1
9 6 7 1
10 7 8 2
11 7 9 1
12 5 12 1
13 5 13 1
14 6 14 1
15 6 15 1
16 16 17 1
17 16 24 1
18 17 18 1
19 17 20 1
20 17 25 1
21 18 19 2
22 18 30 1
23 20 21 1
24 21 22 1
25 21 23 2
26 20 26 1
27 20 27 1
28 22 28 1
29 22 29 1
30 30 31 1
31 30 36 1
32 31 32 1
33 31 34 1
34 31 37 1
35 32 33 2
36 32 44 1
37 34 35 1
38 35 36 1
39 34 38 1
40 34 39 1
41 35 40 1
42 35 41 1
43 36 42 1
44 36 43 1
45 44 45 1
46 44 53 1
47 45 46 1
48 45 48 1
49 45 54 1
50 46 47 2
51 46 59 1
52 48 49 1
53 49 50 1
54 50 51 2
55 50 52 1
56 48 55 1
57 48 56 1
58 49 57 1
59 49 58 1
60 59 60 1
61 59 65 1
62 60 61 1
63 60 63 1
64 60 66 1
65 61 62 2
66 61 70 1
67 63 64 1
68 63 67 1
69 63 68 1
70 64 69 1
71 70 71 1
72 70 78 1
73 71 72 1
74 71 74 1
75 71 79 1
76 72 73 2
77 72 89 1
78 74 75 1
79 74 76 1
80 75 77 1
81 74 80 1
82 75 81 1
83 75 82 1
84 76 83 1
85 76 84 1
86 76 85 1
87 77 86 1
88 77 87 1
89 77 88 1
90 89 90 1
91 89 97 1
92 90 91 1
93 90 93 1
94 90 98 1
95 91 92 2
96 91 108 1
97 93 94 1
98 94 95 1
99 94 96 1
100 93 99 1
101 93 100 1
102 94 101 1
103 95 102 1
104 95 103 1
105 95 104 1
106 96 105 1
107 96 106 1
108 96 107 1
109 108 109 1
110 108 116 1
111 109 110 1
112 109 112 1
113 109 117 1
114 110 111 2
115 110 120 1
116 112 113 1
117 113 114 2
118 113 115 1
119 112 118 1
120 112 119 1
121 120 121 1
122 120 129 1
123 121 122 1
124 121 124 1
125 121 130 1
126 122 123 2
127 122 135 1
128 124 125 1
129 125 126 1
130 126 127 2
131 126 128 1
132 124 131 1
133 124 132 1
134 125 133 1
135 125 134 1
136 135 136 1
137 135 145 1
138 136 137 1
139 136 139 1
140 136 146 1
141 137 138 2
142 137 152 1
143 139 140 1
144 140 141 2
145 141 144 1
146 140 142 1
147 142 143 2
148 143 144 1
149 139 147 1
150 139 148 1
151 141 149 1
152 143 150 1
153 144 151 1
154 152 153 1
155 152 159 1
156 153 154 1
157 153 156 1
158 153 160 1
159 154 155 2
160 154 168 1
161 156 157 1
162 156 158 1
163 156 161 1
164 157 162 1
165 157 163 1
166 157 164 1
167 158 165 1
168 158 166 1
169 158 167 1
170 168 169 1
171 168 177 1
172 169 170 1
173 169 172 1
174 169 178 1
175 170 171 2
176 170 185 1
177 172 173 1
178 173 174 1
179 174 175 1
180 174 176 2
181 172 179 1
182 172 180 1
183 173 181 1
184 173 182 1
185 175 183 1
186 175 184 1
187 185 186 1
188 185 193 1
189 186 187 1
190 186 189 1
191 186 194 1
192 187 188 2
193 187 204 1
194 189 190 1
195 189 191 1
196 190 192 1
197 189 195 1
198 190 196 1
199 190 197 1
200 191 198 1
201 191 199 1
202 191 200 1
203 192 201 1
204 192 202 1
205 192 203 1
206 204 205 1
207 204 211 1
208 205 206 1
209 205 208 1
210 205 212 1
211 206 207 2
212 206 220 1
213 208 209 1
214 208 210 1
215 208 213 1
216 209 214 1
217 209 215 1
218 209 216 1
219 210 217 1
220 210 218 1
221 210 219 1
222 220 221 1
223 220 228 1
224 221 222 1
225 221 224 1
226 221 229 1
227 222 223 2
228 222 237 1
229 224 225 1
230 225 226 1
231 226 227 1
232 224 230 1
233 224 231 1
234 225 232 1
235 225 233 1
236 227 234 1
237 227 235 1
238 227 236 1
239 237 238 1
240 237 248 1
241 238 239 1
242 238 241 1
243 238 249 1
244 239 240 2
245 241 242 1
246 242 243 1
247 243 244 1
248 244 245 1
249 245 246 2
250 245 247 1
251 241 250 1
252 241 251 1
253 242 252 1
254 242 253 1
255 243 254 1
256 243 255 1
257 244 256 1
258 246 257 1
259 246 258 1
260 247 259 1
261 247 260 1
@<TRIPOS>SUBSTRUCTURE
1	GLU1	1	RESIDUE	1 ****	GLU
2	ASN2	16	RESIDUE	1 ****	ASN
3	PRO3	30	RESIDUE	1 ****	PRO
4	GLU4	44	RESIDUE	1 ****	GLU
5	SER5	59	RESIDUE	1 ****	SER
6	ILE6	70	RESIDUE	1 ****	ILE
7	LEU7	89	RESIDUE	1 ****	LEU
8	ASP8	108	RESIDUE	1 ****	ASP
9	GLU9	120	RESIDUE	1 ****	GLU
10	HIS10	135	RESIDUE	1 ****	HIS
11	VAL11	152	RESIDUE	1 ****	VAL
12	GLN12	168	RESIDUE	1 ****	GLN
13	ILE13	185	RESIDUE	1 ****	ILE
14	VAL14	204	RESIDUE	1 ****	VAL
15	MET15	220	RESIDUE	1 ****	MET
16	ARG16	237	RESIDUE	1 ****	ARG
