@<TRIPOS>MOLECULE
10-12
259 259 16              
SMALL
USER_CHARGES
@<TRIPOS>ATOM
1	   N	1607.627	477.443	-1635.321	N.3	1	GLU1	-0.516	
2	  CA	1608.186	478.792	-1635.321	C.3	1	GLU1	0.040	
3	   C	1609.695	478.752	-1635.321	C.2	1	GLU1	0.537	
4	   O	1610.371	479.451	-1636.089	O.2	1	GLU1	-0.582	
5	  CB	1607.663	479.577	-1634.083	C.3	1	GLU1	0.056	
6	  CG	1608.138	481.062	-1633.973	C.3	1	GLU1	0.014	
7	  CD	1607.714	481.866	-1632.757	C.2	1	GLU1	0.805	
8	 OE1	1606.986	481.364	-1631.880	O.co2	1	GLU1	-0.819	
9	 OE2	1608.144	483.036	-1632.686	O.co2	1	GLU1	-0.819	
10	   H	1608.254	476.564	-1635.321	 H	1	GLU1	0.294	
11	  HA	1607.860	479.310	-1636.240	 H	1	GLU1	0.111	
12	 2HB	1607.952	479.046	-1633.154	 H	1	GLU1	-0.017	
13	 3HB	1606.556	479.567	-1634.071	 H	1	GLU1	-0.017	
14	 2HG	1607.828	481.647	-1634.854	 H	1	GLU1	-0.043	
15	 3HG	1609.238	481.129	-1633.943	 H	1	GLU1	-0.043	
16	   N	1610.299	477.966	-1634.495	N.am	2	ASN2	-0.416	
17	  CA	1611.759	477.928	-1634.495	C.3	2	ASN2	0.014	
18	   C	1612.290	477.572	-1635.864	C.2	2	ASN2	0.597	
19	   O	1613.204	478.203	-1636.393	O.2	2	ASN2	-0.568	
20	  CB	1612.251	476.905	-1633.431	C.3	2	ASN2	-0.204	
21	  CG	1611.788	477.129	-1631.988	C.2	2	ASN2	0.713	
22	 ND2	1612.382	478.044	-1631.270	N.pl3	2	ASN2	-0.919	
23	 OD1	1610.867	476.495	-1631.494	O.2	2	ASN2	-0.593	
24	   H	1609.771	477.387	-1633.859	 H	2	ASN2	0.272	
25	  HA	1612.136	478.938	-1634.250	 H	2	ASN2	0.105	
26	 2HB	1613.355	476.846	-1633.435	 H	2	ASN2	0.080	
27	 3HB	1611.922	475.887	-1633.717	 H	2	ASN2	0.080	
28	1HD2	1611.901	478.217	-1630.383	 H	2	ASN2	0.420	
29	2HD2	1613.083	478.615	-1631.739	 H	2	ASN2	0.420	
30	   N	1611.768	476.577	-1636.498	N.am	3	PRO3	-0.255	
31	  CA	1612.220	476.168	-1637.820	C.3	3	PRO3	-0.027	
32	   C	1611.822	477.191	-1638.897	C.2	3	PRO3	0.590	
33	   O	1612.645	477.574	-1639.728	O.2	3	PRO3	-0.575	
34	  CB	1611.516	474.813	-1637.989	C.3	3	PRO3	-0.007	
35	  CG	1610.233	474.965	-1637.159	C.3	3	PRO3	0.019	
36	  CD	1610.690	475.784	-1635.949	C.3	3	PRO3	0.019	
37	  HA	1613.306	476.048	-1637.833	 H	3	PRO3	0.064	
38	 2HB	1612.139	474.032	-1637.548	 H	3	PRO3	0.025	
39	 3HB	1611.318	474.565	-1639.034	 H	3	PRO3	0.025	
40	 2HG	1609.805	474.003	-1636.868	 H	3	PRO3	0.021	
41	 3HG	1609.495	475.536	-1637.726	 H	3	PRO3	0.021	
42	 2HD	1611.080	475.135	-1635.161	 H	3	PRO3	0.039	
43	 3HD	1609.894	476.420	-1635.556	 H	3	PRO3	0.039	
44	   N	1610.617	477.651	-1638.929	N.am	4	GLU4	-0.516	
45	  CA	1610.257	478.622	-1639.958	C.3	4	GLU4	0.040	
46	   C	1611.156	479.834	-1639.897	C.2	4	GLU4	0.537	
47	   O	1611.682	480.313	-1640.912	O.2	4	GLU4	-0.582	
48	  CB	1608.769	479.041	-1639.788	C.3	4	GLU4	0.056	
49	  CG	1608.220	480.045	-1640.853	C.3	4	GLU4	0.014	
50	  CD	1606.794	480.541	-1640.709	C.2	4	GLU4	0.805	
51	 OE1	1606.068	480.143	-1639.779	O.co2	4	GLU4	-0.819	
52	 OE2	1606.404	481.370	-1641.558	O.co2	4	GLU4	-0.819	
53	   H	1609.933	477.345	-1638.252	 H	4	GLU4	0.294	
54	  HA	1610.388	478.152	-1640.950	 H	4	GLU4	0.111	
55	 2HB	1608.616	479.481	-1638.781	 H	4	GLU4	-0.017	
56	 3HB	1608.121	478.143	-1639.794	 H	4	GLU4	-0.017	
57	 2HG	1608.302	479.630	-1641.871	 H	4	GLU4	-0.043	
58	 3HG	1608.808	480.977	-1640.865	 H	4	GLU4	-0.043	
59	   N	1611.384	480.386	-1638.754	N.am	5	SER5	-0.416	
60	  CA	1612.253	481.558	-1638.696	C.3	5	SER5	-0.025	
61	   C	1613.612	481.252	-1639.281	C.2	5	SER5	0.597	
62	   O	1614.159	482.006	-1640.086	O.2	5	SER5	-0.568	
63	  CB	1612.365	482.090	-1637.245	C.3	5	SER5	0.212	
64	  OG	1613.097	481.210	-1636.384	O.3	5	SER5	-0.655	
65	   H	1610.967	480.015	-1637.913	 H	5	SER5	0.272	
66	  HA	1611.804	482.348	-1639.325	 H	5	SER5	0.084	
67	 2HB	1611.365	482.283	-1636.812	 H	5	SER5	0.035	
68	 3HB	1612.870	483.075	-1637.247	 H	5	SER5	0.035	
69	  HG	1612.608	480.385	-1636.334	 H	5	SER5	0.428	
70	   N	1614.217	480.169	-1638.927	N.am	6	ILE6	-0.416	
71	  CA	1615.530	479.875	-1639.494	C.3	6	ILE6	-0.060	
72	   C	1615.472	479.837	-1641.002	C.2	6	ILE6	0.597	
73	   O	1616.307	480.425	-1641.706	O.2	6	ILE6	-0.568	
74	  CB	1616.130	478.538	-1638.894	C.3	6	ILE6	0.130	
75	 CG1	1616.149	478.476	-1637.333	C.3	6	ILE6	-0.043	
76	 CG2	1617.571	478.237	-1639.410	C.3	6	ILE6	-0.320	
77	 CD1	1616.419	477.087	-1636.718	C.3	6	ILE6	-0.066	
78	   H	1613.788	479.535	-1638.269	 H	6	ILE6	0.272	
79	  HA	1616.204	480.709	-1639.226	 H	6	ILE6	0.087	
80	  HB	1615.472	477.712	-1639.238	 H	6	ILE6	0.019	
81	2HG1	1615.167	478.796	-1636.937	 H	6	ILE6	0.024	
82	3HG1	1616.865	479.218	-1636.928	 H	6	ILE6	0.024	
83	1HG2	1617.630	478.143	-1640.508	 H	6	ILE6	0.088	
84	2HG2	1618.293	479.019	-1639.107	 H	6	ILE6	0.088	
85	3HG2	1617.961	477.275	-1639.031	 H	6	ILE6	0.088	
86	1HD1	1615.691	476.333	-1637.073	 H	6	ILE6	0.019	
87	2HD1	1617.430	476.708	-1636.954	 H	6	ILE6	0.019	
88	3HD1	1616.343	477.117	-1635.616	 H	6	ILE6	0.019	
89	   N	1614.526	479.174	-1641.575	N.am	7	LEU7	-0.416	
90	  CA	1614.471	479.138	-1643.034	C.3	7	LEU7	-0.052	
91	   C	1614.399	480.533	-1643.606	C.2	7	LEU7	0.597	
92	   O	1615.119	480.896	-1644.548	O.2	7	LEU7	-0.568	
93	  CB	1613.268	478.278	-1643.514	C.3	7	LEU7	-0.110	
94	  CG	1613.196	476.798	-1643.048	C.3	7	LEU7	0.353	
95	 CD1	1612.006	476.092	-1643.714	C.3	7	LEU7	-0.412	
96	 CD2	1614.489	476.019	-1643.340	C.3	7	LEU7	-0.412	
97	   H	1613.835	478.686	-1641.024	 H	7	LEU7	0.272	
98	  HA	1615.413	478.698	-1643.408	 H	7	LEU7	0.092	
99	 2HB	1613.245	478.294	-1644.622	 H	7	LEU7	0.046	
100	 3HB	1612.329	478.780	-1643.210	 H	7	LEU7	0.046	
101	  HG	1613.026	476.790	-1641.951	 H	7	LEU7	-0.036	
102	1HD1	1611.049	476.601	-1643.491	 H	7	LEU7	0.100	
103	2HD1	1612.105	476.052	-1644.815	 H	7	LEU7	0.100	
104	3HD1	1611.899	475.051	-1643.358	 H	7	LEU7	0.100	
105	1HD2	1614.764	476.050	-1644.410	 H	7	LEU7	0.100	
106	2HD2	1615.343	476.431	-1642.769	 H	7	LEU7	0.100	
107	3HD2	1614.408	474.957	-1643.044	 H	7	LEU7	0.100	
108	   N	1613.562	481.374	-1643.099	N.am	8	ASP8	-0.516	
109	  CA	1613.491	482.723	-1643.652	C.3	8	ASP8	0.038	
110	   C	1614.838	483.403	-1643.595	C.2	8	ASP8	0.537	
111	   O	1615.310	484.009	-1644.569	O.2	8	ASP8	-0.582	
112	  CB	1612.413	483.562	-1642.910	C.3	8	ASP8	-0.030	
113	  CG	1612.194	484.983	-1643.451	C.2	8	ASP8	0.799	
114	 OD1	1612.258	485.182	-1644.681	O.co2	8	ASP8	-0.801	
115	 OD2	1612.002	485.909	-1642.635	O.co2	8	ASP8	-0.801	
116	   H	1612.964	481.102	-1642.332	 H	8	ASP8	0.294	
117	  HA	1613.208	482.646	-1644.719	 H	8	ASP8	0.088	
118	 2HB	1612.670	483.645	-1641.839	 H	8	ASP8	-0.012	
119	 3HB	1611.434	483.057	-1642.943	 H	8	ASP8	-0.012	
120	   N	1615.518	483.353	-1642.500	N.am	9	GLU9	-0.516	
121	  CA	1616.820	484.011	-1642.444	C.3	9	GLU9	0.040	
122	   C	1617.738	483.484	-1643.521	C.2	9	GLU9	0.537	
123	   O	1618.402	484.239	-1644.246	O.2	9	GLU9	-0.582	
124	  CB	1617.454	483.803	-1641.039	C.3	9	GLU9	0.056	
125	  CG	1618.836	484.495	-1640.810	C.3	9	GLU9	0.014	
126	  CD	1619.539	484.281	-1639.482	C.2	9	GLU9	0.805	
127	 OE1	1619.017	483.590	-1638.586	O.co2	9	GLU9	-0.819	
128	 OE2	1620.658	484.819	-1639.350	O.co2	9	GLU9	-0.819	
129	   H	1615.154	482.867	-1641.693	 H	9	GLU9	0.294	
130	  HA	1616.678	485.093	-1642.619	 H	9	GLU9	0.111	
131	 2HB	1617.567	482.718	-1640.836	 H	9	GLU9	-0.017	
132	 3HB	1616.757	484.156	-1640.255	 H	9	GLU9	-0.017	
133	 2HG	1618.765	485.586	-1640.949	 H	9	GLU9	-0.043	
134	 3HG	1619.583	484.150	-1641.544	 H	9	GLU9	-0.043	
135	   N	1617.835	482.209	-1643.691	N.am	10	CYS10	-0.416	
136	  CA	1618.723	481.698	-1644.732	C.3	10	CYS10	0.021	
137	   C	1618.354	482.264	-1646.083	C.2	10	CYS10	0.597	
138	   O	1619.206	482.729	-1646.854	O.2	10	CYS10	-0.568	
139	  CB	1618.674	480.158	-1644.705	C.3	10	CYS10	-0.123	
140	  SG	1619.887	479.459	-1645.848	S.3	10	CYS10	-0.312	
141	   H	1617.304	481.573	-1643.113	 H	10	CYS10	0.272	
142	  HA	1619.752	482.033	-1644.505	 H	10	CYS10	0.112	
143	 2HB	1617.664	479.779	-1644.965	 H	10	CYS10	0.111	
144	 3HB	1618.895	479.768	-1643.696	 H	10	CYS10	0.111	
145	  HG	1619.023	479.088	-1646.790	 H	10	CYS10	0.193	
146	   N	1617.116	482.263	-1646.445	N.am	11	VAL11	-0.416	
147	  CA	1616.760	482.810	-1647.751	C.3	11	VAL11	-0.087	
148	   C	1617.224	484.241	-1647.883	C.2	11	VAL11	0.597	
149	   O	1617.825	484.647	-1648.885	O.2	11	VAL11	-0.568	
150	  CB	1615.199	482.704	-1647.970	C.3	11	VAL11	0.299	
151	 CG1	1614.629	483.409	-1649.231	C.3	11	VAL11	-0.319	
152	 CG2	1614.675	481.249	-1648.044	C.3	11	VAL11	-0.319	
153	   H	1616.404	481.890	-1645.834	 H	11	VAL11	0.272	
154	  HA	1617.279	482.229	-1648.534	 H	11	VAL11	0.097	
155	  HB	1614.712	483.183	-1647.094	 H	11	VAL11	-0.030	
156	1HG1	1615.068	483.018	-1650.169	 H	11	VAL11	0.079	
157	2HG1	1613.531	483.301	-1649.313	 H	11	VAL11	0.079	
158	3HG1	1614.807	484.501	-1649.221	 H	11	VAL11	0.079	
159	1HG2	1614.965	480.662	-1647.154	 H	11	VAL11	0.079	
160	2HG2	1613.569	481.212	-1648.086	 H	11	VAL11	0.079	
161	3HG2	1615.056	480.710	-1648.931	 H	11	VAL11	0.079	
162	   N	1616.988	485.066	-1646.919	N.am	12	GLN12	-0.416	
163	  CA	1617.436	486.449	-1647.045	C.3	12	GLN12	-0.003	
164	   C	1618.926	486.517	-1647.284	C.2	12	GLN12	0.597	
165	   O	1619.412	487.226	-1648.162	O.2	12	GLN12	-0.568	
166	  CB	1617.046	487.215	-1645.762	C.3	12	GLN12	-0.004	
167	  CG	1617.406	488.737	-1645.729	C.3	12	GLN12	-0.064	
168	  CD	1617.104	489.549	-1644.464	C.2	12	GLN12	0.695	
169	 NE2	1616.537	488.972	-1643.435	N.pl3	12	GLN12	-0.941	
170	 OE1	1617.406	490.730	-1644.385	O.2	12	GLN12	-0.609	
171	   H	1616.499	484.759	-1646.090	 H	12	GLN12	0.272	
172	  HA	1616.936	486.906	-1647.920	 H	12	GLN12	0.085	
173	 2HB	1617.522	486.715	-1644.893	 H	12	GLN12	0.017	
174	 3HB	1615.956	487.108	-1645.598	 H	12	GLN12	0.017	
175	 2HG	1616.928	489.259	-1646.579	 H	12	GLN12	0.035	
176	 3HG	1618.489	488.880	-1645.895	 H	12	GLN12	0.035	
177	1HE2	1616.431	489.566	-1642.611	 H	12	GLN12	0.425	
178	2HE2	1616.374	487.969	-1643.539	 H	12	GLN12	0.425	
179	   N	1619.711	485.810	-1646.544	N.am	13	ARG13	-0.348	
180	  CA	1621.151	485.876	-1646.776	C.3	13	ARG13	-0.264	
181	   C	1621.486	485.506	-1648.201	C.2	13	ARG13	0.734	
182	   O	1622.254	486.178	-1648.885	O.2	13	ARG13	-0.589	
183	  CB	1621.865	484.936	-1645.763	C.3	13	ARG13	-0.001	
184	  CG	1623.410	485.089	-1645.683	C.3	13	ARG13	0.039	
185	  CD	1624.038	484.101	-1644.686	C.3	13	ARG13	0.049	
186	  NE	1625.515	484.308	-1644.636	N.pl3	13	ARG13	-0.530	
187	  CZ	1626.363	483.615	-1643.882	C.cat	13	ARG13	0.808	
188	 NH1	1625.999	482.650	-1643.086	N.pl3	13	ARG13	-0.863	
189	 NH2	1627.623	483.915	-1643.939	N.pl3	13	ARG13	-0.863	
190	   H	1619.335	485.219	-1645.816	 H	13	ARG13	0.275	
191	  HA	1621.475	486.922	-1646.616	 H	13	ARG13	0.156	
192	 2HB	1621.599	483.886	-1646.003	 H	13	ARG13	0.033	
193	 3HB	1621.440	485.101	-1644.752	 H	13	ARG13	0.033	
194	 2HG	1623.658	486.133	-1645.402	 H	13	ARG13	0.029	
195	 3HG	1623.860	484.934	-1646.685	 H	13	ARG13	0.029	
196	 2HD	1623.793	483.061	-1644.996	 H	13	ARG13	0.069	
197	 3HD	1623.581	484.245	-1643.683	 H	13	ARG13	0.069	
198	  HE	1625.965	485.031	-1645.207	 H	13	ARG13	0.346	
199	1HH1	1624.993	482.464	-1643.089	 H	13	ARG13	0.448	
200	2HH1	1626.712	482.167	-1642.538	 H	13	ARG13	0.448	
201	1HH2	1627.890	484.673	-1644.570	 H	13	ARG13	0.448	
202	2HH2	1628.258	483.373	-1643.352	 H	13	ARG13	0.448	
203	   N	1620.950	484.452	-1648.717	N.am	14	VAL14	-0.416	
204	  CA	1621.274	484.094	-1650.095	C.3	14	VAL14	-0.087	
205	   C	1620.943	485.225	-1651.039	C.2	14	VAL14	0.597	
206	   O	1621.737	485.608	-1651.908	O.2	14	VAL14	-0.568	
207	  CB	1620.502	482.777	-1650.503	C.3	14	VAL14	0.299	
208	 CG1	1620.590	482.361	-1651.997	C.3	14	VAL14	-0.319	
209	 CG2	1620.934	481.524	-1649.704	C.3	14	VAL14	-0.319	
210	   H	1620.315	483.883	-1648.175	 H	14	VAL14	0.272	
211	  HA	1622.362	483.918	-1650.170	 H	14	VAL14	0.097	
212	  HB	1619.425	482.948	-1650.286	 H	14	VAL14	-0.030	
213	1HG1	1621.631	482.184	-1652.327	 H	14	VAL14	0.079	
214	2HG1	1620.017	481.438	-1652.210	 H	14	VAL14	0.079	
215	3HG1	1620.160	483.124	-1652.674	 H	14	VAL14	0.079	
216	1HG2	1620.847	481.682	-1648.613	 H	14	VAL14	0.079	
217	2HG2	1620.298	480.648	-1649.937	 H	14	VAL14	0.079	
218	3HG2	1621.982	481.235	-1649.911	 H	14	VAL14	0.079	
219	   N	1619.799	485.811	-1650.936	N.am	15	MET15	-0.416	
220	  CA	1619.478	486.904	-1651.848	C.3	15	MET15	-0.024	
221	   C	1620.508	488.004	-1651.760	C.2	15	MET15	0.597	
222	   O	1621.010	488.516	-1652.772	O.2	15	MET15	-0.568	
223	  CB	1618.057	487.449	-1651.538	C.3	15	MET15	0.034	
224	  CG	1616.895	486.451	-1651.731	C.3	15	MET15	0.002	
225	  SD	1615.320	487.317	-1651.615	S.3	15	MET15	-0.274	
226	  CE	1614.240	485.887	-1651.479	C.3	15	MET15	-0.054	
227	   H	1619.134	485.517	-1650.234	 H	15	MET15	0.272	
228	  HA	1619.503	486.518	-1652.884	 H	15	MET15	0.088	
229	 2HB	1617.854	488.329	-1652.179	 H	15	MET15	0.024	
230	 3HB	1618.021	487.841	-1650.501	 H	15	MET15	0.024	
231	 2HG	1616.938	485.665	-1650.954	 H	15	MET15	0.044	
232	 3HG	1616.957	485.937	-1652.707	 H	15	MET15	0.044	
233	 1HE	1614.383	485.199	-1652.332	 H	15	MET15	0.068	
234	 2HE	1614.449	485.333	-1650.547	 H	15	MET15	0.068	
235	 3HE	1613.182	486.202	-1651.462	 H	15	MET15	0.068	
236	   N	1620.877	488.424	-1650.597	N.am	16	ARG16	-0.348	
237	  CA	1621.873	489.488	-1650.513	C.3	16	ARG16	-0.264	
238	   C	1623.144	489.096	-1651.230	C.2	16	ARG16	0.734	
239	   O	1623.257	488.021	-1651.813	O.2	16	ARG16	-0.589	
240	  CB	1622.143	489.804	-1649.014	C.3	16	ARG16	-0.001	
241	  CG	1622.968	491.093	-1648.740	C.3	16	ARG16	0.039	
242	  CD	1623.218	491.311	-1647.239	C.3	16	ARG16	0.049	
243	  NE	1623.994	492.570	-1647.037	N.pl3	16	ARG16	-0.530	
244	  CZ	1624.386	493.051	-1645.861	C.cat	16	ARG16	0.808	
245	 NH1	1624.139	492.465	-1644.723	N.pl3	16	ARG16	-0.863	
246	 NH2	1625.050	494.164	-1645.841	N.pl3	16	ARG16	-0.863	
247	   H	1620.483	488.023	-1649.758	 H	16	ARG16	0.275	
248	  HA	1621.464	490.381	-1651.021	 H	16	ARG16	0.156	
249	 2HB	1622.640	488.928	-1648.549	 H	16	ARG16	0.033	
250	 3HB	1621.174	489.885	-1648.480	 H	16	ARG16	0.033	
251	 2HG	1622.437	491.965	-1649.176	 H	16	ARG16	0.029	
252	 3HG	1623.941	491.041	-1649.270	 H	16	ARG16	0.029	
253	 2HD	1623.767	490.436	-1646.827	 H	16	ARG16	0.069	
254	 3HD	1622.246	491.353	-1646.703	 H	16	ARG16	0.069	
255	  HE	1624.272	493.152	-1647.833	 H	16	ARG16	0.346	
256	1HH1	1623.613	491.592	-1644.808	 H	16	ARG16	0.448	
257	2HH1	1624.474	492.900	-1643.861	 H	16	ARG16	0.448	
258	1HH2	1625.235	494.608	-1646.743	 H	16	ARG16	0.448	
259	2HH2	1625.340	494.518	-1644.929	 H	16	ARG16	0.448	
@<TRIPOS>BOND
1 1 2 1
2 1 10 1
3 2 3 1
4 2 5 1
5 2 11 1
6 3 4 2
7 3 16 1
8 5 6 1
9 6 7 1
10 7 8 2
11 7 9 1
12 5 12 1
13 5 13 1
14 6 14 1
15 6 15 1
16 16 17 1
17 16 24 1
18 17 18 1
19 17 20 1
20 17 25 1
21 18 19 2
22 18 30 1
23 20 21 1
24 21 22 1
25 21 23 2
26 20 26 1
27 20 27 1
28 22 28 1
29 22 29 1
30 30 31 1
31 30 36 1
32 31 32 1
33 31 34 1
34 31 37 1
35 32 33 2
36 32 44 1
37 34 35 1
38 35 36 1
39 34 38 1
40 34 39 1
41 35 40 1
42 35 41 1
43 36 42 1
44 36 43 1
45 44 45 1
46 44 53 1
47 45 46 1
48 45 48 1
49 45 54 1
50 46 47 2
51 46 59 1
52 48 49 1
53 49 50 1
54 50 51 2
55 50 52 1
56 48 55 1
57 48 56 1
58 49 57 1
59 49 58 1
60 59 60 1
61 59 65 1
62 60 61 1
63 60 63 1
64 60 66 1
65 61 62 2
66 61 70 1
67 63 64 1
68 63 67 1
69 63 68 1
70 64 69 1
71 70 71 1
72 70 78 1
73 71 72 1
74 71 74 1
75 71 79 1
76 72 73 2
77 72 89 1
78 74 75 1
79 74 76 1
80 75 77 1
81 74 80 1
82 75 81 1
83 75 82 1
84 76 83 1
85 76 84 1
86 76 85 1
87 77 86 1
88 77 87 1
89 77 88 1
90 89 90 1
91 89 97 1
92 90 91 1
93 90 93 1
94 90 98 1
95 91 92 2
96 91 108 1
97 93 94 1
98 94 95 1
99 94 96 1
100 93 99 1
101 93 100 1
102 94 101 1
103 95 102 1
104 95 103 1
105 95 104 1
106 96 105 1
107 96 106 1
108 96 107 1
109 108 109 1
110 108 116 1
111 109 110 1
112 109 112 1
113 109 117 1
114 110 111 2
115 110 120 1
116 112 113 1
117 113 114 2
118 113 115 1
119 112 118 1
120 112 119 1
121 120 121 1
122 120 129 1
123 121 122 1
124 121 124 1
125 121 130 1
126 122 123 2
127 122 135 1
128 124 125 1
129 125 126 1
130 126 127 2
131 126 128 1
132 124 131 1
133 124 132 1
134 125 133 1
135 125 134 1
136 135 136 1
137 135 141 1
138 136 137 1
139 136 139 1
140 136 142 1
141 137 138 2
142 137 146 1
143 139 140 1
144 139 143 1
145 139 144 1
146 140 145 1
147 146 147 1
148 146 153 1
149 147 148 1
150 147 150 1
151 147 154 1
152 148 149 2
153 148 162 1
154 150 151 1
155 150 152 1
156 150 155 1
157 151 156 1
158 151 157 1
159 151 158 1
160 152 159 1
161 152 160 1
162 152 161 1
163 162 163 1
164 162 171 1
165 163 164 1
166 163 166 1
167 163 172 1
168 164 165 2
169 164 179 1
170 166 167 1
171 167 168 1
172 168 169 1
173 168 170 2
174 166 173 1
175 166 174 1
176 167 175 1
177 167 176 1
178 169 177 1
179 169 178 1
180 179 180 1
181 179 190 1
182 180 181 1
183 180 183 1
184 180 191 1
185 181 182 2
186 181 203 1
187 183 184 1
188 184 185 1
189 185 186 1
190 186 187 1
191 187 188 2
192 187 189 1
193 183 192 1
194 183 193 1
195 184 194 1
196 184 195 1
197 185 196 1
198 185 197 1
199 186 198 1
200 188 199 1
201 188 200 1
202 189 201 1
203 189 202 1
204 203 204 1
205 203 210 1
206 204 205 1
207 204 207 1
208 204 211 1
209 205 206 2
210 205 219 1
211 207 208 1
212 207 209 1
213 207 212 1
214 208 213 1
215 208 214 1
216 208 215 1
217 209 216 1
218 209 217 1
219 209 218 1
220 219 220 1
221 219 227 1
222 220 221 1
223 220 223 1
224 220 228 1
225 221 222 2
226 221 236 1
227 223 224 1
228 224 225 1
229 225 226 1
230 223 229 1
231 223 230 1
232 224 231 1
233 224 232 1
234 226 233 1
235 226 234 1
236 226 235 1
237 236 237 1
238 236 247 1
239 237 238 1
240 237 240 1
241 237 248 1
242 238 239 2
243 240 241 1
244 241 242 1
245 242 243 1
246 243 244 1
247 244 245 2
248 244 246 1
249 240 249 1
250 240 250 1
251 241 251 1
252 241 252 1
253 242 253 1
254 242 254 1
255 243 255 1
256 245 256 1
257 245 257 1
258 246 258 1
259 246 259 1
@<TRIPOS>SUBSTRUCTURE
1	GLU1	1	RESIDUE	1 ****	GLU
2	ASN2	16	RESIDUE	1 ****	ASN
3	PRO3	30	RESIDUE	1 ****	PRO
4	GLU4	44	RESIDUE	1 ****	GLU
5	SER5	59	RESIDUE	1 ****	SER
6	ILE6	70	RESIDUE	1 ****	ILE
7	LEU7	89	RESIDUE	1 ****	LEU
8	ASP8	108	RESIDUE	1 ****	ASP
9	GLU9	120	RESIDUE	1 ****	GLU
10	CYS10	135	RESIDUE	1 ****	CYS
11	VAL11	146	RESIDUE	1 ****	VAL
12	GLN12	162	RESIDUE	1 ****	GLN
13	ARG13	179	RESIDUE	1 ****	ARG
14	VAL14	203	RESIDUE	1 ****	VAL
15	MET15	219	RESIDUE	1 ****	MET
16	ARG16	236	RESIDUE	1 ****	ARG
