REMARK WARNING: 32 MAX_TORS EXCEEDED!!!
REMARK  68 active torsions:
REMARK  status: ('A' for Active; 'I' for Inactive)
REMARK    1  A    between atoms: N_1  and  CA_2 
REMARK    2  A    between atoms: CA_2  and  C_3 
REMARK    3  A    between atoms: CA_2  and  CB_5 
REMARK       I    between atoms: C_3  and  N_11 
REMARK    4  A    between atoms: CB_5  and  CG_6 
REMARK    5  A    between atoms: CG_6  and  CD_7 
REMARK    6  A    between atoms: N_11  and  CA_12 
REMARK    7  A    between atoms: CA_12  and  C_13 
REMARK    8  A    between atoms: CA_12  and  CB_15 
REMARK       I    between atoms: C_13  and  N_22 
REMARK    9  A    between atoms: CB_15  and  CG_16 
REMARK       I    between atoms: CG_16  and  ND2_17 
REMARK   10  A    between atoms: CA_23  and  C_24 
REMARK       I    between atoms: C_24  and  N_29 
REMARK   11  A    between atoms: N_29  and  CA_30 
REMARK   12  A    between atoms: CA_30  and  C_31 
REMARK   13  A    between atoms: CA_30  and  CB_33 
REMARK       I    between atoms: C_31  and  N_39 
REMARK   14  A    between atoms: CB_33  and  CG_34 
REMARK   15  A    between atoms: CG_34  and  CD_35 
REMARK   16  A    between atoms: N_39  and  CA_40 
REMARK   17  A    between atoms: CA_40  and  C_41 
REMARK   18  A    between atoms: CA_40  and  CB_43 
REMARK       I    between atoms: C_41  and  N_47 
REMARK   19  A    between atoms: CB_43  and  OG_44 
REMARK   20  A    between atoms: N_47  and  CA_48 
REMARK   21  A    between atoms: CA_48  and  C_49 
REMARK   22  A    between atoms: CA_48  and  CB_51 
REMARK       I    between atoms: C_49  and  N_56 
REMARK   23  A    between atoms: CB_51  and  CG1_52 
REMARK   24  A    between atoms: N_56  and  CA_57 
REMARK   25  A    between atoms: CA_57  and  C_58 
REMARK   26  A    between atoms: CA_57  and  CB_60 
REMARK       I    between atoms: C_58  and  N_65 
REMARK   27  A    between atoms: CB_60  and  CG_61 
REMARK   28  A    between atoms: N_65  and  CA_66 
REMARK   29  A    between atoms: CA_66  and  C_67 
REMARK   30  A    between atoms: CA_66  and  CB_69 
REMARK       I    between atoms: C_67  and  N_74 
REMARK   31  A    between atoms: CB_69  and  CG_70 
REMARK   32  A    between atoms: N_74  and  CA_75 
REMARK   33  A    between atoms: CA_75  and  C_76 
REMARK   34  A    between atoms: CA_75  and  CB_78 
REMARK       I    between atoms: C_76  and  N_84 
REMARK   35  A    between atoms: CB_78  and  CG_79 
REMARK   36  A    between atoms: CG_79  and  CD_80 
REMARK   37  A    between atoms: N_84  and  CA_85 
REMARK   38  A    between atoms: CA_85  and  C_86 
REMARK   39  A    between atoms: CA_85  and  CB_88 
REMARK       I    between atoms: C_86  and  N_93 
REMARK   40  A    between atoms: CB_88  and  CG_89 
REMARK   41  A    between atoms: N_93  and  CA_94 
REMARK   42  A    between atoms: CA_94  and  C_95 
REMARK   43  A    between atoms: CA_94  and  CB_97 
REMARK       I    between atoms: C_95  and  N_101 
REMARK   44  A    between atoms: N_101  and  CA_102 
REMARK   45  A    between atoms: CA_102  and  C_103 
REMARK   46  A    between atoms: CA_102  and  CB_105 
REMARK       I    between atoms: C_103  and  N_113 
REMARK   47  A    between atoms: CB_105  and  CG_106 
REMARK   48  A    between atoms: CG_106  and  CD_107 
REMARK       I    between atoms: CD_107  and  NE2_108 
REMARK   49  A    between atoms: N_113  and  CA_114 
REMARK   50  A    between atoms: CA_114  and  C_115 
REMARK   51  A    between atoms: CA_114  and  CB_117 
REMARK       I    between atoms: C_115  and  N_130 
REMARK   52  A    between atoms: CB_117  and  CG_118 
REMARK   53  A    between atoms: CG_118  and  CD_119 
REMARK   54  A    between atoms: CD_119  and  NE_120 
REMARK       I    between atoms: NE_120  and  CZ_121 
REMARK       I    between atoms: CZ_121  and  NH1_122 
REMARK       I    between atoms: CZ_121  and  NH2_123 
REMARK   55  A    between atoms: N_130  and  CA_131 
REMARK   56  A    between atoms: CA_131  and  C_132 
REMARK   57  A    between atoms: CA_131  and  CB_134 
REMARK       I    between atoms: C_132  and  N_138 
REMARK   58  A    between atoms: N_138  and  CA_139 
REMARK   59  A    between atoms: CA_139  and  C_140 
REMARK   60  A    between atoms: CA_139  and  CB_142 
REMARK       I    between atoms: C_140  and  N_147 
REMARK   61  A    between atoms: CB_142  and  CG_143 
REMARK   62  A    between atoms: CG_143  and  SD_144 
REMARK   63  A    between atoms: N_147  and  CA_148 
REMARK   64  A    between atoms: CA_148  and  C_149 
REMARK   65  A    between atoms: CA_148  and  CB_151 
REMARK   66  A    between atoms: CB_151  and  CG_152 
REMARK   67  A    between atoms: CG_152  and  CD_153 
REMARK   68  A    between atoms: CD_153  and  NE_154 
REMARK       I    between atoms: NE_154  and  CZ_155 
REMARK       I    between atoms: CZ_155  and  NH1_156 
ROOT
ATOM      1  C   GLU d   9    1576.398 470.325-1599.221  0.00  0.00     0.241 C 
ATOM      2  O   GLU d   9    1577.062 471.080-1599.946  0.00  0.00    -0.271 OA
ATOM      3  N   LEU d  10    1576.494 469.050-1599.392  0.00  0.00    -0.346 N 
ATOM      4  H   LEU d  10    1575.964 468.414-1598.814  0.00  0.00     0.163 HD
ENDROOT
BRANCH   1   5
ATOM      5  CA  GLU d   9    1575.480 470.852-1598.145  0.00  0.00     0.177 C 
BRANCH   5   6
ATOM      6  N   GLU d   9    1574.177 470.195-1598.201  0.00  0.00    -0.346 N 
ATOM      7  C   ASP d   8    1573.497 470.245-1599.296  0.00  0.00     0.241 C 
ATOM      8  O   ASP d   8    1573.970 470.850-1600.270  0.00  0.00    -0.271 OA
ATOM      9  H   GLU d   9    1573.814 469.708-1597.394  0.00  0.00     0.163 HD
BRANCH   7  10
ATOM     10  CA  ASP d   8    1572.151 469.565-1599.353  0.00  0.00     0.186 C 
BRANCH  10  11
ATOM     11  N   ASP d   8    1572.221 468.215-1598.800  0.00  0.00    -0.346 N 
ATOM     12  C   LEU d   7    1573.058 467.375-1599.307  0.00  0.00     0.241 C 
ATOM     13  O   LEU d   7    1573.779 467.738-1600.249  0.00  0.00    -0.271 OA
ATOM     14  H   ASP d   8    1571.623 467.944-1598.033  0.00  0.00     0.163 HD
BRANCH  12  15
ATOM     15  CA  LEU d   7    1573.131 465.979-1598.735  0.00  0.00     0.177 C 
BRANCH  15  16
ATOM     16  N   LEU d   7    1573.186 466.015-1597.276  0.00  0.00    -0.346 N 
ATOM     17  C   ILE d   6    1574.132 466.679-1596.702  0.00  0.00     0.241 C 
ATOM     18  O   ILE d   6    1574.967 467.266-1597.406  0.00  0.00    -0.271 OA
ATOM     19  H   LEU d   7    1572.494 465.528-1596.725  0.00  0.00     0.163 HD
BRANCH  17  20
ATOM     20  CA  ILE d   6    1574.189 466.716-1595.195  0.00  0.00     0.180 C 
BRANCH  20  21
ATOM     21  N   ILE d   6    1572.876 467.011-1594.628  0.00  0.00    -0.346 N 
ATOM     22  C   SER d   5    1572.271 468.094-1594.982  0.00  0.00     0.243 C 
ATOM     23  O   SER d   5    1572.818 468.847-1595.787  0.00  0.00    -0.271 OA
ATOM     24  H   ILE d   6    1572.448 466.376-1593.969  0.00  0.00     0.163 HD
BRANCH  22  25
ATOM     25  CA  SER d   5    1570.913 468.399-1594.396  0.00  0.00     0.200 C 
BRANCH  25  26
ATOM     26  N   SER d   5    1570.043 467.228-1594.455  0.00  0.00    -0.344 N 
ATOM     27  C   GLU d   4    1569.816 466.675-1595.598  0.00  0.00     0.241 C 
ATOM     28  O   GLU d   4    1570.342 467.155-1596.612  0.00  0.00    -0.271 OA
ATOM     29  H   SER d   5    1569.626 466.856-1593.613  0.00  0.00     0.163 HD
BRANCH  27  30
ATOM     30  CA  GLU d   4    1568.917 465.464-1595.659  0.00  0.00     0.177 C 
BRANCH  30  31
ATOM     31  N   GLU d   4    1569.277 464.493-1594.630  0.00  0.00    -0.346 N 
ATOM     32  C   PRO d   3    1570.481 464.033-1594.597  0.00  0.00     0.241 C 
ATOM     33  O   PRO d   3    1571.305 464.416-1595.429  0.00  0.00    -0.271 OA
ATOM     34  H   GLU d   4    1568.593 464.186-1593.953  0.00  0.00     0.163 HD
BRANCH  32  35
ATOM     35  CA  PRO d   3    1570.880 463.009-1593.520  0.00  0.00     0.179 C 
ATOM     36  N   PRO d   3    1570.428 463.418-1592.199  0.00  0.00    -0.337 N 
ATOM     37  C   ASN d   2    1570.949 464.414-1591.565  0.00  0.00     0.243 C 
ATOM     38  CD  PRO d   3    1569.350 462.625-1591.650  0.00  0.00     0.127 C 
ATOM     39  O   ASN d   2    1571.864 465.044-1592.094  0.00  0.00    -0.271 OA
ATOM     40  CG  PRO d   3    1568.892 461.807-1592.859  0.00  0.00     0.022 C 
ATOM     41  CB  PRO d   3    1570.175 461.654-1593.690  0.00  0.00     0.037 C 
BRANCH  37  42
ATOM     42  CA  ASN d   2    1570.418 464.769-1590.196  0.00  0.00     0.185 C 
BRANCH  42  43
ATOM     43  N   ASN d   2    1568.959 464.808-1590.196  0.00  0.00    -0.346 N 
ATOM     44  C   GLU d   1    1568.354 465.594-1591.021  0.00  0.00     0.242 C 
ATOM     45  O   GLU d   1    1569.030 466.293-1591.790  0.00  0.00    -0.271 OA
ATOM     46  H   ASN d   2    1568.431 464.228-1589.560  0.00  0.00     0.163 HD
BRANCH  44  47
ATOM     47  CA  GLU d   1    1566.845 465.634-1591.021  0.00  0.00     0.191 C 
BRANCH  47  48
ATOM     48  N   GLU d   1    1566.286 464.285-1591.021  0.00  0.00    -0.326 NA
ATOM     49  H   GLU d   1    1566.913 463.406-1591.021  0.00  0.00     0.180 HD
ENDBRANCH  47  48
BRANCH  47  50
ATOM     50  CB  GLU d   1    1566.322 466.419-1589.784  0.00  0.00     0.047 C 
BRANCH  50  51
ATOM     51  CG  GLU d   1    1566.797 467.904-1589.673  0.00  0.00     0.116 C 
BRANCH  51  52
ATOM     52  CD  GLU d   1    1566.373 468.708-1588.458  0.00  0.00     0.172 C 
ATOM     53  OE1 GLU d   1    1565.645 468.206-1587.580  0.00  0.00    -0.648 OA
ATOM     54  OE2 GLU d   1    1566.803 469.878-1588.386  0.00  0.00    -0.648 OA
ENDBRANCH  51  52
ENDBRANCH  50  51
ENDBRANCH  47  50
ENDBRANCH  44  47
ENDBRANCH  42  43
BRANCH  42  55
ATOM     55  CB  ASN d   2    1570.910 463.746-1589.132  0.00  0.00     0.137 C 
BRANCH  55  56
ATOM     56  CG  ASN d   2    1570.447 463.970-1587.688  0.00  0.00     0.217 C 
ATOM     57  ND2 ASN d   2    1571.041 464.885-1586.970  0.00  0.00    -0.370 N 
ATOM     58 21HD ASN d   2    1570.561 465.058-1586.084  0.00  0.00     0.159 HD
ATOM     59 22HD ASN d   2    1571.743 465.457-1587.440  0.00  0.00     0.159 HD
ATOM     60  OD1 ASN d   2    1569.526 463.336-1587.194  0.00  0.00    -0.274 OA
ENDBRANCH  55  56
ENDBRANCH  42  55
ENDBRANCH  37  42
ENDBRANCH  32  35
ENDBRANCH  30  31
BRANCH  30  61
ATOM     61  CB  GLU d   4    1567.428 465.882-1595.489  0.00  0.00     0.045 C 
BRANCH  61  62
ATOM     62  CG  GLU d   4    1566.880 466.886-1596.554  0.00  0.00     0.116 C 
BRANCH  62  63
ATOM     63  CD  GLU d   4    1565.453 467.383-1596.410  0.00  0.00     0.172 C 
ATOM     64  OE1 GLU d   4    1564.727 466.984-1595.479  0.00  0.00    -0.648 OA
ATOM     65  OE2 GLU d   4    1565.064 468.212-1597.258  0.00  0.00    -0.648 OA
ENDBRANCH  62  63
ENDBRANCH  61  62
ENDBRANCH  30  61
ENDBRANCH  27  30
ENDBRANCH  25  26
BRANCH  25  66
ATOM     66  CB  SER d   5    1571.024 468.931-1592.946  0.00  0.00     0.199 C 
BRANCH  66  67
ATOM     67  OG  SER d   5    1571.756 468.052-1592.085  0.00  0.00    -0.398 OA
ATOM     68  HG  SER d   5    1571.267 467.227-1592.034  0.00  0.00     0.209 HD
ENDBRANCH  66  67
ENDBRANCH  25  66
ENDBRANCH  22  25
ENDBRANCH  20  21
BRANCH  20  69
ATOM     69  CB  ILE d   6    1574.789 465.380-1594.595  0.00  0.00     0.013 C 
ATOM     70  CG2 ILE d   6    1576.230 465.078-1595.110  0.00  0.00     0.012 C 
BRANCH  69  71
ATOM     71  CG1 ILE d   6    1574.809 465.317-1593.034  0.00  0.00     0.002 C 
ATOM     72  CD1 ILE d   6    1575.079 463.928-1592.419  0.00  0.00     0.005 C 
ENDBRANCH  69  71
ENDBRANCH  20  69
ENDBRANCH  17  20
ENDBRANCH  15  16
BRANCH  15  73
ATOM     73  CB  LEU d   7    1571.928 465.119-1599.215  0.00  0.00     0.038 C 
BRANCH  73  74
ATOM     74  CG  LEU d   7    1571.855 463.639-1598.749  0.00  0.00    -0.020 C 
ATOM     75  CD1 LEU d   7    1570.665 462.934-1599.414  0.00  0.00     0.009 C 
ATOM     76  CD2 LEU d   7    1573.149 462.860-1599.041  0.00  0.00     0.009 C 
ENDBRANCH  73  74
ENDBRANCH  15  73
ENDBRANCH  12  15
ENDBRANCH  10  11
BRANCH  10  77
ATOM     77  CB  ASP d   8    1571.073 470.404-1598.611  0.00  0.00     0.147 C 
BRANCH  77  78
ATOM     78  CG  ASP d   8    1570.854 471.824-1599.151  0.00  0.00     0.175 C 
ATOM     79  OD1 ASP d   8    1570.918 472.024-1600.382  0.00  0.00    -0.648 OA
ATOM     80  OD2 ASP d   8    1570.661 472.750-1598.336  0.00  0.00    -0.648 OA
ENDBRANCH  77  78
ENDBRANCH  10  77
ENDBRANCH   7  10
ENDBRANCH   5   6
BRANCH   5  81
ATOM     81  CB  GLU d   9    1576.114 470.644-1596.740  0.00  0.00     0.045 C 
BRANCH  81  82
ATOM     82  CG  GLU d   9    1577.496 471.336-1596.510  0.00  0.00     0.116 C 
BRANCH  82  83
ATOM     83  CD  GLU d   9    1578.198 471.123-1595.182  0.00  0.00     0.172 C 
ATOM     84  OE1 GLU d   9    1577.677 470.431-1594.286  0.00  0.00    -0.648 OA
ATOM     85  OE2 GLU d   9    1579.317 471.660-1595.050  0.00  0.00    -0.648 OA
ENDBRANCH  82  83
ENDBRANCH  81  82
ENDBRANCH   5  81
ENDBRANCH   1   5
BRANCH   3  86
ATOM     86  CA  LEU d  10    1577.382 468.540-1600.433  0.00  0.00     0.177 C 
BRANCH  86  87
ATOM     87  C   LEU d  10    1577.013 469.107-1601.782  0.00  0.00     0.241 C 
ATOM     88  O   LEU d  10    1577.864 469.574-1602.555  0.00  0.00    -0.271 OA
ATOM     89  N   VAL d  11    1575.775 469.106-1602.144  0.00  0.00    -0.346 N 
ATOM     90  H   VAL d  11    1575.063 468.732-1601.533  0.00  0.00     0.163 HD
BRANCH  89  91
ATOM     91  CA  VAL d  11    1575.418 469.655-1603.449  0.00  0.00     0.180 C 
BRANCH  91  92
ATOM     92  C   VAL d  11    1575.881 471.086-1603.579  0.00  0.00     0.241 C 
ATOM     93  O   VAL d  11    1576.481 471.493-1604.583  0.00  0.00    -0.271 OA
ATOM     94  N   GLN d  12    1575.644 471.909-1602.615  0.00  0.00    -0.346 N 
ATOM     95  H   GLN d  12    1575.157 471.601-1601.786  0.00  0.00     0.163 HD
BRANCH  94  96
ATOM     96  CA  GLN d  12    1576.092 473.293-1602.740  0.00  0.00     0.177 C 
BRANCH  96  97
ATOM     97  C   GLN d  12    1577.581 473.362-1602.979  0.00  0.00     0.241 C 
ATOM     98  O   GLN d  12    1578.067 474.073-1603.857  0.00  0.00    -0.271 OA
ATOM     99  N   ARG d  13    1578.367 472.654-1602.241  0.00  0.00    -0.346 N 
ATOM    100  H   ARG d  13    1577.993 472.062-1601.514  0.00  0.00     0.163 HD
BRANCH  99 101
ATOM    101  CA  ARG d  13    1579.807 472.722-1602.473  0.00  0.00     0.176 C 
BRANCH 101 102
ATOM    102  C   ARG d  13    1580.142 472.354-1603.900  0.00  0.00     0.241 C 
ATOM    103  O   ARG d  13    1580.909 473.028-1604.583  0.00  0.00    -0.271 OA
ATOM    104  N   VAL d  14    1579.606 471.300-1604.416  0.00  0.00    -0.346 N 
ATOM    105  H   VAL d  14    1578.972 470.730-1603.874  0.00  0.00     0.163 HD
BRANCH 104 106
ATOM    106  CA  VAL d  14    1579.930 470.944-1605.794  0.00  0.00     0.180 C 
BRANCH 106 107
ATOM    107  C   VAL d  14    1579.598 472.076-1606.737  0.00  0.00     0.241 C 
ATOM    108  O   VAL d  14    1580.390 472.460-1607.607  0.00  0.00    -0.271 OA
ATOM    109  N   MET d  15    1578.453 472.661-1606.633  0.00  0.00    -0.346 N 
ATOM    110  H   MET d  15    1577.789 472.366-1605.931  0.00  0.00     0.163 HD
BRANCH 109 111
ATOM    111  CA  MET d  15    1578.130 473.755-1607.543  0.00  0.00     0.177 C 
BRANCH 111 112
ATOM    112  C   MET d  15    1579.160 474.856-1607.454  0.00  0.00     0.241 C 
ATOM    113  O   MET d  15    1579.661 475.370-1608.466  0.00  0.00    -0.271 OA
ATOM    114  N   ARG d  16    1579.529 475.274-1606.291  0.00  0.00    -0.347 N 
ATOM    115  H   ARG d  16    1579.136 474.872-1605.453  0.00  0.00     0.163 HD
BRANCH 114 116
ATOM    116  CA  ARG d  16    1580.525 476.339-1606.206  0.00  0.00     0.162 C 
BRANCH 116 117
ATOM    117  C   ARG d  16    1581.795 475.949-1606.925  0.00  0.00     0.219 C 
ATOM    118  O   ARG d  16    1581.909 474.874-1607.509  0.00  0.00    -0.287 OA
ENDBRANCH 116 117
BRANCH 116 119
ATOM    119  CB  ARG d  16    1580.796 476.654-1604.708  0.00  0.00     0.035 C 
BRANCH 119 120
ATOM    120  CG  ARG d  16    1581.620 477.943-1604.433  0.00  0.00     0.023 C 
BRANCH 120 121
ATOM    121  CD  ARG d  16    1581.872 478.158-1602.931  0.00  0.00     0.138 C 
BRANCH 121 122
ATOM    122  NE  ARG d  16    1582.647 479.418-1602.728  0.00  0.00    -0.227 N 
ATOM    123  CZ  ARG d  16    1583.039 479.897-1601.552  0.00  0.00     0.665 C 
ATOM    124  NH1 ARG d  16    1582.794 479.310-1600.415  0.00  0.00    -0.235 N 
ATOM    125  NH2 ARG d  16    1583.702 481.010-1601.532  0.00  0.00    -0.235 N 
ATOM    126 11HH ARG d  16    1582.269 478.437-1600.500  0.00  0.00     0.174 HD
ATOM    127 12HH ARG d  16    1583.129 479.744-1599.553  0.00  0.00     0.174 HD
ATOM    128 21HH ARG d  16    1583.886 481.456-1602.433  0.00  0.00     0.174 HD
ATOM    129 22HH ARG d  16    1583.993 481.364-1600.619  0.00  0.00     0.174 HD
ATOM    130  HE  ARG d  16    1582.924 480.001-1603.524  0.00  0.00     0.177 HD
ENDBRANCH 121 122
ENDBRANCH 120 121
ENDBRANCH 119 120
ENDBRANCH 116 119
ENDBRANCH 114 116
ENDBRANCH 111 112
BRANCH 111 131
ATOM    131  CB  MET d  15    1576.709 474.299-1607.231  0.00  0.00     0.045 C 
BRANCH 131 132
ATOM    132  CG  MET d  15    1575.547 473.300-1607.424  0.00  0.00     0.076 C 
BRANCH 132 133
ATOM    133  SD  MET d  15    1573.973 474.165-1607.306  0.00  0.00    -0.173 SA
ATOM    134  CE  MET d  15    1572.893 472.734-1607.171  0.00  0.00     0.089 C 
ENDBRANCH 132 133
ENDBRANCH 131 132
ENDBRANCH 111 131
ENDBRANCH 109 111
ENDBRANCH 106 107
BRANCH 106 135
ATOM    135  CB  VAL d  14    1579.158 469.627-1606.203  0.00  0.00     0.009 C 
ATOM    136  CG1 VAL d  14    1579.246 469.212-1607.698  0.00  0.00     0.012 C 
ATOM    137  CG2 VAL d  14    1579.592 468.374-1605.406  0.00  0.00     0.012 C 
ENDBRANCH 106 135
ENDBRANCH 104 106
ENDBRANCH 101 102
BRANCH 101 138
ATOM    138  CB  ARG d  13    1580.523 471.781-1601.462  0.00  0.00     0.036 C 
BRANCH 138 139
ATOM    139  CG  ARG d  13    1582.068 471.935-1601.383  0.00  0.00     0.023 C 
BRANCH 139 140
ATOM    140  CD  ARG d  13    1582.696 470.946-1600.388  0.00  0.00     0.138 C 
BRANCH 140 141
ATOM    141  NE  ARG d  13    1584.174 471.154-1600.339  0.00  0.00    -0.227 N 
ATOM    142  CZ  ARG d  13    1585.023 470.462-1599.586  0.00  0.00     0.665 C 
ATOM    143  NH1 ARG d  13    1584.660 469.495-1598.791  0.00  0.00    -0.235 N 
ATOM    144  NH2 ARG d  13    1586.282 470.762-1599.644  0.00  0.00    -0.235 N 
ATOM    145 11HH ARG d  13    1583.655 469.308-1598.793  0.00  0.00     0.174 HD
ATOM    146 12HH ARG d  13    1585.374 469.012-1598.244  0.00  0.00     0.174 HD
ATOM    147 21HH ARG d  13    1586.548 471.521-1600.273  0.00  0.00     0.174 HD
ATOM    148 22HH ARG d  13    1586.919 470.220-1599.057  0.00  0.00     0.174 HD
ATOM    149  HE  ARG d  13    1584.624 471.878-1600.908  0.00  0.00     0.177 HD
ENDBRANCH 140 141
ENDBRANCH 139 140
ENDBRANCH 138 139
ENDBRANCH 101 138
ENDBRANCH  99 101
ENDBRANCH  96  97
BRANCH  96 150
ATOM    150  CB  GLN d  12    1575.702 474.058-1601.455  0.00  0.00     0.044 C 
BRANCH 150 151
ATOM    151  CG  GLN d  12    1576.061 475.580-1601.422  0.00  0.00     0.105 C 
BRANCH 151 152
ATOM    152  CD  GLN d  12    1575.759 476.390-1600.155  0.00  0.00     0.215 C 
ATOM    153  NE2 GLN d  12    1575.194 475.811-1599.126  0.00  0.00    -0.370 N 
ATOM    154 21HE GLN d  12    1575.087 476.404-1598.301  0.00  0.00     0.159 HD
ATOM    155 22HE GLN d  12    1575.031 474.808-1599.232  0.00  0.00     0.159 HD
ATOM    156  OE1 GLN d  12    1576.060 477.571-1600.075  0.00  0.00    -0.274 OA
ENDBRANCH 151 152
ENDBRANCH 150 151
ENDBRANCH  96 150
ENDBRANCH  94  96
ENDBRANCH  91  92
BRANCH  91 157
ATOM    157  CB  VAL d  11    1573.856 469.547-1603.667  0.00  0.00     0.009 C 
ATOM    158  CG1 VAL d  11    1573.286 470.253-1604.927  0.00  0.00     0.012 C 
ATOM    159  CG2 VAL d  11    1573.333 468.093-1603.742  0.00  0.00     0.012 C 
ENDBRANCH  91 157
ENDBRANCH  89  91
ENDBRANCH  86  87
BRANCH  86 160
ATOM    160  CB  LEU d  10    1577.358 466.986-1600.458  0.00  0.00     0.038 C 
BRANCH 160 161
ATOM    161  CG  LEU d  10    1577.744 466.227-1599.159  0.00  0.00    -0.020 C 
ATOM    162  CD1 LEU d  10    1577.767 464.714-1599.418  0.00  0.00     0.009 C 
ATOM    163  CD2 LEU d  10    1579.100 466.677-1598.590  0.00  0.00     0.009 C 
ENDBRANCH 160 161
ENDBRANCH  86 160
ENDBRANCH   3  86
TORSDOF 68
