REMARK WARNING: 32 MAX_TORS EXCEEDED!!!
REMARK  65 active torsions:
REMARK  status: ('A' for Active; 'I' for Inactive)
REMARK    1  A    between atoms: N_1  and  CA_2 
REMARK    2  A    between atoms: CA_2  and  C_3 
REMARK    3  A    between atoms: CA_2  and  CB_5 
REMARK       I    between atoms: C_3  and  N_11 
REMARK    4  A    between atoms: CB_5  and  CG_6 
REMARK    5  A    between atoms: CG_6  and  CD_7 
REMARK    6  A    between atoms: N_11  and  CA_12 
REMARK    7  A    between atoms: CA_12  and  C_13 
REMARK    8  A    between atoms: CA_12  and  CB_15 
REMARK       I    between atoms: C_13  and  N_22 
REMARK    9  A    between atoms: CB_15  and  CG_16 
REMARK       I    between atoms: CG_16  and  ND2_17 
REMARK   10  A    between atoms: CA_23  and  C_24 
REMARK       I    between atoms: C_24  and  N_29 
REMARK   11  A    between atoms: N_29  and  CA_30 
REMARK   12  A    between atoms: CA_30  and  C_31 
REMARK       I    between atoms: C_31  and  N_35 
REMARK   13  A    between atoms: N_35  and  CA_36 
REMARK   14  A    between atoms: CA_36  and  C_37 
REMARK   15  A    between atoms: CA_36  and  CB_39 
REMARK       I    between atoms: C_37  and  N_43 
REMARK   16  A    between atoms: CB_39  and  OG_40 
REMARK   17  A    between atoms: N_43  and  CA_44 
REMARK   18  A    between atoms: CA_44  and  C_45 
REMARK   19  A    between atoms: CA_44  and  CB_47 
REMARK       I    between atoms: C_45  and  N_52 
REMARK   20  A    between atoms: CB_47  and  CG1_48 
REMARK   21  A    between atoms: N_52  and  CA_53 
REMARK   22  A    between atoms: CA_53  and  C_54 
REMARK   23  A    between atoms: CA_53  and  CB_56 
REMARK       I    between atoms: C_54  and  N_61 
REMARK   24  A    between atoms: CB_56  and  CG_57 
REMARK   25  A    between atoms: N_61  and  CA_62 
REMARK   26  A    between atoms: CA_62  and  C_63 
REMARK   27  A    between atoms: CA_62  and  CB_65 
REMARK       I    between atoms: C_63  and  N_70 
REMARK   28  A    between atoms: CB_65  and  CG_66 
REMARK   29  A    between atoms: N_70  and  CA_71 
REMARK   30  A    between atoms: CA_71  and  C_72 
REMARK   31  A    between atoms: CA_71  and  CB_74 
REMARK       I    between atoms: C_72  and  N_80 
REMARK   32  A    between atoms: CB_74  and  CG_75 
REMARK   33  A    between atoms: CG_75  and  CD_76 
REMARK   34  A    between atoms: N_80  and  CA_81 
REMARK   35  A    between atoms: CA_81  and  C_82 
REMARK   36  A    between atoms: CA_81  and  CB_84 
REMARK       I    between atoms: C_82  and  N_92 
REMARK   37  A    between atoms: CB_84  and  CG_85 
REMARK   38  A    between atoms: N_92  and  CA_93 
REMARK   39  A    between atoms: CA_93  and  C_94 
REMARK   40  A    between atoms: CA_93  and  CB_96 
REMARK       I    between atoms: C_94  and  N_100 
REMARK   41  A    between atoms: N_100  and  CA_101 
REMARK   42  A    between atoms: CA_101  and  C_102 
REMARK   43  A    between atoms: CA_101  and  CB_104 
REMARK       I    between atoms: C_102  and  N_112 
REMARK   44  A    between atoms: CB_104  and  CG_105 
REMARK   45  A    between atoms: CG_105  and  CD_106 
REMARK       I    between atoms: CD_106  and  NE2_107 
REMARK   46  A    between atoms: N_112  and  CA_113 
REMARK   47  A    between atoms: CA_113  and  C_114 
REMARK   48  A    between atoms: CA_113  and  CB_116 
REMARK       I    between atoms: C_114  and  N_129 
REMARK   49  A    between atoms: CB_116  and  CG_117 
REMARK   50  A    between atoms: CG_117  and  CD_118 
REMARK   51  A    between atoms: CD_118  and  NE_119 
REMARK       I    between atoms: NE_119  and  CZ_120 
REMARK       I    between atoms: CZ_120  and  NH1_121 
REMARK       I    between atoms: CZ_120  and  NH2_122 
REMARK   52  A    between atoms: N_129  and  CA_130 
REMARK   53  A    between atoms: CA_130  and  C_131 
REMARK   54  A    between atoms: CA_130  and  CB_133 
REMARK       I    between atoms: C_131  and  N_137 
REMARK   55  A    between atoms: N_137  and  CA_138 
REMARK   56  A    between atoms: CA_138  and  C_139 
REMARK   57  A    between atoms: CA_138  and  CB_141 
REMARK       I    between atoms: C_139  and  N_146 
REMARK   58  A    between atoms: CB_141  and  CG_142 
REMARK   59  A    between atoms: CG_142  and  SD_143 
REMARK   60  A    between atoms: N_146  and  CA_147 
REMARK   61  A    between atoms: CA_147  and  C_148 
REMARK   62  A    between atoms: CA_147  and  CB_150 
REMARK   63  A    between atoms: CB_150  and  CG_151 
REMARK   64  A    between atoms: CG_151  and  CD_152 
REMARK   65  A    between atoms: CD_152  and  NE_153 
REMARK       I    between atoms: NE_153  and  CZ_154 
REMARK       I    between atoms: CZ_154  and  NH1_155 
ROOT
ATOM      1  C   GLU d   9     543.268 129.685-482.256  0.00  0.00     0.241 C 
ATOM      2  O   GLU d   9     543.933 130.439-482.981  0.00  0.00    -0.271 OA
ATOM      3  N   HIS d  10     543.365 128.410-482.426  0.00  0.00    -0.346 N 
ATOM      4  H   HIS d  10     542.833 127.774-481.848  0.00  0.00     0.163 HD
ENDROOT
BRANCH   3   5
ATOM      5  CA  HIS d  10     544.253 127.899-483.466  0.00  0.00     0.182 C 
BRANCH   5   6
ATOM      6  C   HIS d  10     543.888 128.464-484.817  0.00  0.00     0.241 C 
ATOM      7  O   HIS d  10     544.741 128.929-485.588  0.00  0.00    -0.271 OA
ATOM      8  N   VAL d  11     542.650 128.464-485.181  0.00  0.00    -0.346 N 
ATOM      9  H   VAL d  11     541.937 128.091-484.571  0.00  0.00     0.163 HD
BRANCH   8  10
ATOM     10  CA  VAL d  11     542.296 129.010-486.488  0.00  0.00     0.180 C 
BRANCH  10  11
ATOM     11  C   VAL d  11     542.761 130.441-486.619  0.00  0.00     0.241 C 
ATOM     12  O   VAL d  11     543.363 130.846-487.622  0.00  0.00    -0.271 OA
ATOM     13  N   GLN d  12     542.523 131.266-485.657  0.00  0.00    -0.346 N 
ATOM     14  H   GLN d  12     542.034 130.960-484.828  0.00  0.00     0.163 HD
BRANCH  13  15
ATOM     15  CA  GLN d  12     542.972 132.649-485.783  0.00  0.00     0.177 C 
BRANCH  15  16
ATOM     16  C   GLN d  12     544.462 132.716-486.020  0.00  0.00     0.241 C 
ATOM     17  O   GLN d  12     544.950 133.425-486.898  0.00  0.00    -0.271 OA
ATOM     18  N   ARG d  13     545.246 132.009-485.279  0.00  0.00    -0.346 N 
ATOM     19  H   ARG d  13     544.869 131.419-484.551  0.00  0.00     0.163 HD
BRANCH  18  20
ATOM     20  CA  ARG d  13     546.687 132.075-485.509  0.00  0.00     0.176 C 
BRANCH  20  21
ATOM     21  C   ARG d  13     547.024 131.704-486.934  0.00  0.00     0.241 C 
ATOM     22  O   ARG d  13     547.793 132.376-487.617  0.00  0.00    -0.271 OA
ATOM     23  N   VAL d  14     546.488 130.650-487.449  0.00  0.00    -0.346 N 
ATOM     24  H   VAL d  14     545.852 130.081-486.908  0.00  0.00     0.163 HD
BRANCH  23  25
ATOM     25  CA  VAL d  14     546.813 130.291-488.826  0.00  0.00     0.180 C 
BRANCH  25  26
ATOM     26  C   VAL d  14     546.484 131.422-489.772  0.00  0.00     0.241 C 
ATOM     27  O   VAL d  14     547.278 131.803-490.641  0.00  0.00    -0.271 OA
ATOM     28  N   MET d  15     545.339 132.008-489.670  0.00  0.00    -0.346 N 
ATOM     29  H   MET d  15     544.674 131.714-488.969  0.00  0.00     0.163 HD
BRANCH  28  30
ATOM     30  CA  MET d  15     545.019 133.101-490.584  0.00  0.00     0.177 C 
BRANCH  30  31
ATOM     31  C   MET d  15     546.050 134.200-490.495  0.00  0.00     0.241 C 
ATOM     32  O   MET d  15     546.553 134.711-491.507  0.00  0.00    -0.271 OA
ATOM     33  N   ARG d  16     546.418 134.621-489.332  0.00  0.00    -0.347 N 
ATOM     34  H   ARG d  16     546.023 134.220-488.493  0.00  0.00     0.163 HD
BRANCH  33  35
ATOM     35  CA  ARG d  16     547.415 135.684-489.247  0.00  0.00     0.162 C 
BRANCH  35  36
ATOM     36  C   ARG d  16     548.686 135.292-489.963  0.00  0.00     0.219 C 
ATOM     37  O   ARG d  16     548.799 134.215-490.545  0.00  0.00    -0.287 OA
ENDBRANCH  35  36
BRANCH  35  38
ATOM     38  CB  ARG d  16     547.683 136.002-487.749  0.00  0.00     0.035 C 
BRANCH  38  39
ATOM     39  CG  ARG d  16     548.508 137.290-487.475  0.00  0.00     0.023 C 
BRANCH  39  40
ATOM     40  CD  ARG d  16     548.757 137.509-485.973  0.00  0.00     0.138 C 
BRANCH  40  41
ATOM     41  NE  ARG d  16     549.533 138.768-485.771  0.00  0.00    -0.227 N 
ATOM     42  CZ  ARG d  16     549.924 139.250-484.595  0.00  0.00     0.665 C 
ATOM     43  NH1 ARG d  16     549.675 138.665-483.457  0.00  0.00    -0.235 N 
ATOM     44  NH2 ARG d  16     550.588 140.362-484.576  0.00  0.00    -0.235 N 
ATOM     45 11HH ARG d  16     549.149 137.792-483.542  0.00  0.00     0.174 HD
ATOM     46 12HH ARG d  16     550.009 139.100-482.596  0.00  0.00     0.174 HD
ATOM     47 21HH ARG d  16     550.774 140.805-485.477  0.00  0.00     0.174 HD
ATOM     48 22HH ARG d  16     550.878 140.717-483.663  0.00  0.00     0.174 HD
ATOM     49  HE  ARG d  16     549.812 139.349-486.568  0.00  0.00     0.177 HD
ENDBRANCH  40  41
ENDBRANCH  39  40
ENDBRANCH  38  39
ENDBRANCH  35  38
ENDBRANCH  33  35
ENDBRANCH  30  31
BRANCH  30  50
ATOM     50  CB  MET d  15     543.598 133.646-490.275  0.00  0.00     0.045 C 
BRANCH  50  51
ATOM     51  CG  MET d  15     542.436 132.649-490.468  0.00  0.00     0.076 C 
BRANCH  51  52
ATOM     52  SD  MET d  15     540.862 133.515-490.354  0.00  0.00    -0.173 SA
ATOM     53  CE  MET d  15     539.780 132.085-490.219  0.00  0.00     0.089 C 
ENDBRANCH  51  52
ENDBRANCH  50  51
ENDBRANCH  30  50
ENDBRANCH  28  30
ENDBRANCH  25  26
BRANCH  25  54
ATOM     54  CB  VAL d  14     546.041 128.974-489.234  0.00  0.00     0.009 C 
ATOM     55  CG1 VAL d  14     546.131 128.557-490.728  0.00  0.00     0.012 C 
ATOM     56  CG2 VAL d  14     546.472 127.722-488.434  0.00  0.00     0.012 C 
ENDBRANCH  25  54
ENDBRANCH  23  25
ENDBRANCH  20  21
BRANCH  20  57
ATOM     57  CB  ARG d  13     547.399 131.135-484.495  0.00  0.00     0.036 C 
BRANCH  57  58
ATOM     58  CG  ARG d  13     548.944 131.288-484.413  0.00  0.00     0.023 C 
BRANCH  58  59
ATOM     59  CD  ARG d  13     549.570 130.300-483.415  0.00  0.00     0.138 C 
BRANCH  59  60
ATOM     60  NE  ARG d  13     551.047 130.507-483.363  0.00  0.00    -0.227 N 
ATOM     61  CZ  ARG d  13     551.895 129.815-482.608  0.00  0.00     0.665 C 
ATOM     62  NH1 ARG d  13     551.529 128.850-481.811  0.00  0.00    -0.235 N 
ATOM     63  NH2 ARG d  13     553.154 130.113-482.664  0.00  0.00    -0.235 N 
ATOM     64 11HH ARG d  13     550.524 128.664-481.815  0.00  0.00     0.174 HD
ATOM     65 12HH ARG d  13     552.242 128.366-481.262  0.00  0.00     0.174 HD
ATOM     66 21HH ARG d  13     553.422 130.871-483.294  0.00  0.00     0.174 HD
ATOM     67 22HH ARG d  13     553.789 129.572-482.075  0.00  0.00     0.174 HD
ATOM     68  HE  ARG d  13     551.499 131.229-483.934  0.00  0.00     0.177 HD
ENDBRANCH  59  60
ENDBRANCH  58  59
ENDBRANCH  57  58
ENDBRANCH  20  57
ENDBRANCH  18  20
ENDBRANCH  15  16
BRANCH  15  69
ATOM     69  CB  GLN d  12     542.580 133.416-484.500  0.00  0.00     0.044 C 
BRANCH  69  70
ATOM     70  CG  GLN d  12     542.941 134.938-484.468  0.00  0.00     0.105 C 
BRANCH  70  71
ATOM     71  CD  GLN d  12     542.638 135.751-483.203  0.00  0.00     0.215 C 
ATOM     72  NE2 GLN d  12     542.070 135.174-482.175  0.00  0.00    -0.370 N 
ATOM     73 21HE GLN d  12     541.962 135.768-481.351  0.00  0.00     0.159 HD
ATOM     74 22HE GLN d  12     541.906 134.170-482.279  0.00  0.00     0.159 HD
ATOM     75  OE1 GLN d  12     542.940 136.932-483.125  0.00  0.00    -0.274 OA
ENDBRANCH  70  71
ENDBRANCH  69  70
ENDBRANCH  15  69
ENDBRANCH  13  15
ENDBRANCH  10  11
BRANCH  10  76
ATOM     76  CB  VAL d  11     540.735 128.904-486.709  0.00  0.00     0.009 C 
ATOM     77  CG1 VAL d  11     540.167 129.609-487.971  0.00  0.00     0.012 C 
ATOM     78  CG2 VAL d  11     540.210 127.450-486.783  0.00  0.00     0.012 C 
ENDBRANCH  10  76
ENDBRANCH   8  10
ENDBRANCH   5   6
BRANCH   5  79
ATOM     79  CB  HIS d  10     544.089 126.370-483.462  0.00  0.00     0.095 C 
BRANCH  79  80
ATOM     80  CG  HIS d  10     545.374 125.659-483.153  0.00  0.00     0.053 A 
ATOM     81  CD2 HIS d  10     545.754 125.323-481.861  0.00  0.00     0.116 A 
ATOM     82  NE2 HIS d  10     546.969 124.691-481.927  0.00  0.00    -0.359 N 
ATOM     83  CE1 HIS d  10     547.232 124.695-483.262  0.00  0.00     0.207 A 
ATOM     84  2HE HIS d  10     547.535 124.313-481.153  0.00  0.00     0.166 HD
ATOM     85  ND1 HIS d  10     546.327 125.253-484.085  0.00  0.00    -0.247 NA
ENDBRANCH  79  80
ENDBRANCH   5  79
ENDBRANCH   3   5
BRANCH   1  86
ATOM     86  CA  GLU d   9     542.350 130.212-481.181  0.00  0.00     0.177 C 
BRANCH  86  87
ATOM     87  N   GLU d   9     541.047 129.555-481.237  0.00  0.00    -0.346 N 
ATOM     88  C   ASP d   8     540.368 129.606-482.333  0.00  0.00     0.241 C 
ATOM     89  O   ASP d   8     540.842 130.211-483.307  0.00  0.00    -0.271 OA
ATOM     90  H   GLU d   9     540.683 129.068-480.431  0.00  0.00     0.163 HD
BRANCH  88  91
ATOM     91  CA  ASP d   8     539.021 128.926-482.392  0.00  0.00     0.186 C 
BRANCH  91  92
ATOM     92  N   ASP d   8     539.091 127.577-481.839  0.00  0.00    -0.346 N 
ATOM     93  C   LEU d   7     539.928 126.736-482.345  0.00  0.00     0.241 C 
ATOM     94  O   LEU d   7     540.650 127.099-483.286  0.00  0.00    -0.271 OA
ATOM     95  H   ASP d   8     538.492 127.305-481.072  0.00  0.00     0.163 HD
BRANCH  93  96
ATOM     96  CA  LEU d   7     540.000 125.340-481.773  0.00  0.00     0.177 C 
BRANCH  96  97
ATOM     97  N   LEU d   7     540.054 125.376-480.315  0.00  0.00    -0.346 N 
ATOM     98  C   ILE d   6     540.999 126.039-479.740  0.00  0.00     0.241 C 
ATOM     99  O   ILE d   6     541.835 126.627-480.443  0.00  0.00    -0.271 OA
ATOM    100  H   LEU d   7     539.361 124.889-479.764  0.00  0.00     0.163 HD
BRANCH  98 101
ATOM    101  CA  ILE d   6     541.056 126.076-478.232  0.00  0.00     0.180 C 
BRANCH 101 102
ATOM    102  N   ILE d   6     539.742 126.371-477.667  0.00  0.00    -0.346 N 
ATOM    103  C   SER d   5     539.138 127.454-478.021  0.00  0.00     0.243 C 
ATOM    104  O   SER d   5     539.686 128.208-478.825  0.00  0.00    -0.271 OA
ATOM    105  H   ILE d   6     539.313 125.736-477.008  0.00  0.00     0.163 HD
BRANCH 103 106
ATOM    106  CA  SER d   5     537.779 127.760-477.436  0.00  0.00     0.200 C 
BRANCH 106 107
ATOM    107  N   SER d   5     536.909 126.589-477.495  0.00  0.00    -0.344 N 
ATOM    108  C   ALA d   4     536.682 126.037-478.639  0.00  0.00     0.240 C 
ATOM    109  O   ALA d   4     537.208 126.516-479.651  0.00  0.00    -0.271 OA
ATOM    110  H   SER d   5     536.491 126.217-476.654  0.00  0.00     0.163 HD
BRANCH 108 111
ATOM    111  CA  ALA d   4     535.782 124.826-478.701  0.00  0.00     0.172 C 
ATOM    112  CB  ALA d   4     534.296 125.177-478.513  0.00  0.00     0.042 C 
BRANCH 111 113
ATOM    113  N   ALA d   4     536.141 123.855-477.671  0.00  0.00    -0.346 N 
ATOM    114  C   PRO d   3     537.346 123.395-477.639  0.00  0.00     0.241 C 
ATOM    115  O   PRO d   3     538.169 123.779-478.470  0.00  0.00    -0.271 OA
ATOM    116  H   ALA d   4     535.457 123.548-476.995  0.00  0.00     0.163 HD
BRANCH 114 117
ATOM    117  CA  PRO d   3     537.744 122.372-476.562  0.00  0.00     0.179 C 
ATOM    118  N   PRO d   3     537.292 122.781-475.241  0.00  0.00    -0.337 N 
ATOM    119  C   ASN d   2     537.814 123.776-474.607  0.00  0.00     0.243 C 
ATOM    120  CD  PRO d   3     536.214 121.988-474.692  0.00  0.00     0.127 C 
ATOM    121  O   ASN d   2     538.729 124.407-475.135  0.00  0.00    -0.271 OA
ATOM    122  CG  PRO d   3     535.757 121.169-475.901  0.00  0.00     0.022 C 
ATOM    123  CB  PRO d   3     537.040 121.017-476.732  0.00  0.00     0.037 C 
BRANCH 119 124
ATOM    124  CA  ASN d   2     537.283 124.132-473.238  0.00  0.00     0.185 C 
BRANCH 124 125
ATOM    125  N   ASN d   2     535.823 124.170-473.238  0.00  0.00    -0.346 N 
ATOM    126  C   GLU d   1     535.219 124.956-474.063  0.00  0.00     0.242 C 
ATOM    127  O   GLU d   1     535.895 125.655-474.832  0.00  0.00    -0.271 OA
ATOM    128  H   ASN d   2     535.295 123.591-472.601  0.00  0.00     0.163 HD
BRANCH 126 129
ATOM    129  CA  GLU d   1     533.710 124.996-474.063  0.00  0.00     0.191 C 
BRANCH 129 130
ATOM    130  N   GLU d   1     533.151 123.647-474.063  0.00  0.00    -0.326 NA
ATOM    131  H   GLU d   1     533.778 122.768-474.063  0.00  0.00     0.180 HD
ENDBRANCH 129 130
BRANCH 129 132
ATOM    132  CB  GLU d   1     533.187 125.781-472.826  0.00  0.00     0.047 C 
BRANCH 132 133
ATOM    133  CG  GLU d   1     533.662 127.266-472.715  0.00  0.00     0.116 C 
BRANCH 133 134
ATOM    134  CD  GLU d   1     533.238 128.070-471.500  0.00  0.00     0.172 C 
ATOM    135  OE1 GLU d   1     532.510 127.568-470.622  0.00  0.00    -0.648 OA
ATOM    136  OE2 GLU d   1     533.668 129.240-471.428  0.00  0.00    -0.648 OA
ENDBRANCH 133 134
ENDBRANCH 132 133
ENDBRANCH 129 132
ENDBRANCH 126 129
ENDBRANCH 124 125
BRANCH 124 137
ATOM    137  CB  ASN d   2     537.775 123.109-472.174  0.00  0.00     0.137 C 
BRANCH 137 138
ATOM    138  CG  ASN d   2     537.312 123.333-470.730  0.00  0.00     0.217 C 
ATOM    139  ND2 ASN d   2     537.906 124.248-470.012  0.00  0.00    -0.370 N 
ATOM    140 21HD ASN d   2     537.425 124.421-469.125  0.00  0.00     0.159 HD
ATOM    141 22HD ASN d   2     538.608 124.819-470.481  0.00  0.00     0.159 HD
ATOM    142  OD1 ASN d   2     536.391 122.699-470.236  0.00  0.00    -0.274 OA
ENDBRANCH 137 138
ENDBRANCH 124 137
ENDBRANCH 119 124
ENDBRANCH 114 117
ENDBRANCH 111 113
ENDBRANCH 108 111
ENDBRANCH 106 107
BRANCH 106 143
ATOM    143  CB  SER d   5     537.889 128.292-475.985  0.00  0.00     0.199 C 
BRANCH 143 144
ATOM    144  OG  SER d   5     538.620 127.412-475.124  0.00  0.00    -0.398 OA
ATOM    145  HG  SER d   5     538.131 126.587-475.074  0.00  0.00     0.209 HD
ENDBRANCH 143 144
ENDBRANCH 106 143
ENDBRANCH 103 106
ENDBRANCH 101 102
BRANCH 101 146
ATOM    146  CB  ILE d   6     541.654 124.739-477.632  0.00  0.00     0.013 C 
ATOM    147  CG2 ILE d   6     543.096 124.437-478.147  0.00  0.00     0.012 C 
BRANCH 146 148
ATOM    148  CG1 ILE d   6     541.673 124.676-476.071  0.00  0.00     0.002 C 
ATOM    149  CD1 ILE d   6     541.942 123.287-475.457  0.00  0.00     0.005 C 
ENDBRANCH 146 148
ENDBRANCH 101 146
ENDBRANCH  98 101
ENDBRANCH  96  97
BRANCH  96 150
ATOM    150  CB  LEU d   7     538.797 124.481-482.255  0.00  0.00     0.038 C 
BRANCH 150 151
ATOM    151  CG  LEU d   7     538.723 123.001-481.789  0.00  0.00    -0.020 C 
ATOM    152  CD1 LEU d   7     537.533 122.296-482.456  0.00  0.00     0.009 C 
ATOM    153  CD2 LEU d   7     540.017 122.222-482.080  0.00  0.00     0.009 C 
ENDBRANCH 150 151
ENDBRANCH  96 150
ENDBRANCH  93  96
ENDBRANCH  91  92
BRANCH  91 154
ATOM    154  CB  ASP d   8     537.943 129.765-481.650  0.00  0.00     0.147 C 
BRANCH 154 155
ATOM    155  CG  ASP d   8     537.725 131.187-482.190  0.00  0.00     0.175 C 
ATOM    156  OD1 ASP d   8     537.790 131.386-483.421  0.00  0.00    -0.648 OA
ATOM    157  OD2 ASP d   8     537.532 132.112-481.374  0.00  0.00    -0.648 OA
ENDBRANCH 154 155
ENDBRANCH  91 154
ENDBRANCH  88  91
ENDBRANCH  86  87
BRANCH  86 158
ATOM    158  CB  GLU d   9     542.982 130.004-479.775  0.00  0.00     0.045 C 
BRANCH 158 159
ATOM    159  CG  GLU d   9     544.365 130.695-479.544  0.00  0.00     0.116 C 
BRANCH 159 160
ATOM    160  CD  GLU d   9     545.066 130.481-478.216  0.00  0.00     0.172 C 
ATOM    161  OE1 GLU d   9     544.543 129.790-477.320  0.00  0.00    -0.648 OA
ATOM    162  OE2 GLU d   9     546.185 131.019-478.083  0.00  0.00    -0.648 OA
ENDBRANCH 159 160
ENDBRANCH 158 159
ENDBRANCH  86 158
ENDBRANCH   1  86
TORSDOF 65
