@<TRIPOS>MOLECULE
15-4
264 265 16              
SMALL
USER_CHARGES
@<TRIPOS>ATOM
1	   N	2357.859	721.459	-2452.889	N.3	1	GLU1	-0.516	
2	  CA	2358.418	722.808	-2452.889	C.3	1	GLU1	0.040	
3	   C	2359.927	722.768	-2452.889	C.2	1	GLU1	0.537	
4	   O	2360.603	723.467	-2453.658	O.2	1	GLU1	-0.582	
5	  CB	2357.895	723.593	-2451.652	C.3	1	GLU1	0.056	
6	  CG	2358.370	725.078	-2451.541	C.3	1	GLU1	0.014	
7	  CD	2357.946	725.882	-2450.326	C.2	1	GLU1	0.805	
8	 OE1	2357.218	725.380	-2449.448	O.co2	1	GLU1	-0.819	
9	 OE2	2358.376	727.052	-2450.254	O.co2	1	GLU1	-0.819	
10	   H	2358.486	720.580	-2452.889	 H	1	GLU1	0.294	
11	  HA	2358.092	723.326	-2453.809	 H	1	GLU1	0.111	
12	 2HB	2358.184	723.062	-2450.722	 H	1	GLU1	-0.017	
13	 3HB	2356.788	723.583	-2451.639	 H	1	GLU1	-0.017	
14	 2HG	2358.060	725.663	-2452.422	 H	1	GLU1	-0.043	
15	 3HG	2359.470	725.145	-2451.512	 H	1	GLU1	-0.043	
16	   N	2360.531	721.982	-2452.064	N.am	2	ASN2	-0.416	
17	  CA	2361.991	721.943	-2452.064	C.3	2	ASN2	0.014	
18	   C	2362.522	721.587	-2453.432	C.2	2	ASN2	0.597	
19	   O	2363.437	722.217	-2453.960	O.2	2	ASN2	-0.568	
20	  CB	2362.482	720.920	-2450.999	C.3	2	ASN2	-0.204	
21	  CG	2362.019	721.144	-2449.556	C.2	2	ASN2	0.713	
22	 ND2	2362.613	722.058	-2448.838	N.pl3	2	ASN2	-0.919	
23	 OD1	2361.098	720.510	-2449.062	O.2	2	ASN2	-0.593	
24	   H	2360.003	721.402	-2451.427	 H	2	ASN2	0.272	
25	  HA	2362.368	722.952	-2451.818	 H	2	ASN2	0.105	
26	 2HB	2363.587	720.861	-2451.002	 H	2	ASN2	0.080	
27	 3HB	2362.153	719.901	-2451.285	 H	2	ASN2	0.080	
28	1HD2	2362.132	722.232	-2447.951	 H	2	ASN2	0.420	
29	2HD2	2363.315	722.630	-2449.307	 H	2	ASN2	0.420	
30	   N	2362.001	720.592	-2454.067	N.am	3	PRO3	-0.255	
31	  CA	2362.453	720.183	-2455.388	C.3	3	PRO3	-0.027	
32	   C	2362.055	721.207	-2456.465	C.2	3	PRO3	0.590	
33	   O	2362.879	721.590	-2457.296	O.2	3	PRO3	-0.575	
34	  CB	2361.749	718.828	-2455.558	C.3	3	PRO3	-0.007	
35	  CG	2360.465	718.981	-2454.728	C.3	3	PRO3	0.019	
36	  CD	2360.922	719.799	-2453.518	C.3	3	PRO3	0.019	
37	  HA	2363.539	720.063	-2455.401	 H	3	PRO3	0.064	
38	 2HB	2362.371	718.047	-2455.117	 H	3	PRO3	0.025	
39	 3HB	2361.551	718.580	-2456.603	 H	3	PRO3	0.025	
40	 2HG	2360.037	718.019	-2454.437	 H	3	PRO3	0.021	
41	 3HG	2359.728	719.552	-2455.295	 H	3	PRO3	0.021	
42	 2HD	2361.311	719.150	-2452.730	 H	3	PRO3	0.039	
43	 3HD	2360.126	720.435	-2453.125	 H	3	PRO3	0.039	
44	   N	2360.850	721.667	-2456.498	N.am	4	GLU4	-0.516	
45	  CA	2360.491	722.638	-2457.528	C.3	4	GLU4	0.040	
46	   C	2361.390	723.849	-2457.466	C.2	4	GLU4	0.537	
47	   O	2361.917	724.328	-2458.480	O.2	4	GLU4	-0.582	
48	  CB	2359.003	723.057	-2457.358	C.3	4	GLU4	0.056	
49	  CG	2358.455	724.061	-2458.424	C.3	4	GLU4	0.014	
50	  CD	2357.029	724.558	-2458.281	C.2	4	GLU4	0.805	
51	 OE1	2356.302	724.159	-2457.350	O.co2	4	GLU4	-0.819	
52	 OE2	2356.640	725.387	-2459.129	O.co2	4	GLU4	-0.819	
53	   H	2360.166	721.360	-2455.821	 H	4	GLU4	0.294	
54	  HA	2360.623	722.167	-2458.519	 H	4	GLU4	0.111	
55	 2HB	2358.850	723.497	-2456.351	 H	4	GLU4	-0.017	
56	 3HB	2358.355	722.159	-2457.364	 H	4	GLU4	-0.017	
57	 2HG	2358.537	723.646	-2459.442	 H	4	GLU4	-0.043	
58	 3HG	2359.044	724.993	-2458.435	 H	4	GLU4	-0.043	
59	   N	2361.617	724.401	-2456.323	N.am	5	SER5	-0.416	
60	  CA	2362.487	725.572	-2456.264	C.3	5	SER5	-0.025	
61	   C	2363.846	725.266	-2456.849	C.2	5	SER5	0.597	
62	   O	2364.394	726.020	-2457.654	O.2	5	SER5	-0.568	
63	  CB	2362.599	726.104	-2454.813	C.3	5	SER5	0.212	
64	  OG	2363.330	725.225	-2453.952	O.3	5	SER5	-0.655	
65	   H	2361.200	724.030	-2455.481	 H	5	SER5	0.272	
66	  HA	2362.038	726.363	-2456.893	 H	5	SER5	0.084	
67	 2HB	2361.599	726.298	-2454.380	 H	5	SER5	0.035	
68	 3HB	2363.104	727.090	-2454.815	 H	5	SER5	0.035	
69	  HG	2362.841	724.400	-2453.902	 H	5	SER5	0.428	
70	   N	2364.450	724.183	-2456.495	N.am	6	ILE6	-0.416	
71	  CA	2365.764	723.887	-2457.061	C.3	6	ILE6	-0.060	
72	   C	2365.707	723.850	-2458.569	C.2	6	ILE6	0.597	
73	   O	2366.541	724.437	-2459.272	O.2	6	ILE6	-0.568	
74	  CB	2366.363	722.551	-2456.460	C.3	6	ILE6	0.130	
75	 CG1	2366.382	722.489	-2454.900	C.3	6	ILE6	-0.043	
76	 CG2	2367.804	722.249	-2456.976	C.3	6	ILE6	-0.320	
77	 CD1	2366.651	721.099	-2454.284	C.3	6	ILE6	-0.066	
78	   H	2364.021	723.549	-2455.836	 H	6	ILE6	0.272	
79	  HA	2366.438	724.721	-2456.793	 H	6	ILE6	0.087	
80	  HB	2365.705	721.725	-2456.805	 H	6	ILE6	0.019	
81	2HG1	2365.400	722.809	-2454.504	 H	6	ILE6	0.024	
82	3HG1	2367.098	723.231	-2454.495	 H	6	ILE6	0.024	
83	1HG2	2367.863	722.155	-2458.074	 H	6	ILE6	0.088	
84	2HG2	2368.526	723.031	-2456.673	 H	6	ILE6	0.088	
85	3HG2	2368.194	721.287	-2456.597	 H	6	ILE6	0.088	
86	1HD1	2365.922	720.346	-2454.639	 H	6	ILE6	0.019	
87	2HD1	2367.661	720.721	-2454.520	 H	6	ILE6	0.019	
88	3HD1	2366.574	721.130	-2453.182	 H	6	ILE6	0.019	
89	   N	2364.760	723.187	-2459.142	N.am	7	LEU7	-0.416	
90	  CA	2364.706	723.150	-2460.601	C.3	7	LEU7	-0.052	
91	   C	2364.634	724.546	-2461.174	C.2	7	LEU7	0.597	
92	   O	2365.354	724.907	-2462.116	O.2	7	LEU7	-0.568	
93	  CB	2363.502	722.291	-2461.081	C.3	7	LEU7	-0.110	
94	  CG	2363.429	720.811	-2460.615	C.3	7	LEU7	0.353	
95	 CD1	2362.239	720.106	-2461.280	C.3	7	LEU7	-0.412	
96	 CD2	2364.722	720.032	-2460.906	C.3	7	LEU7	-0.412	
97	   H	2364.068	722.700	-2458.591	 H	7	LEU7	0.272	
98	  HA	2365.647	722.710	-2460.975	 H	7	LEU7	0.092	
99	 2HB	2363.479	722.306	-2462.189	 H	7	LEU7	0.046	
100	 3HB	2362.562	722.793	-2460.777	 H	7	LEU7	0.046	
101	  HG	2363.259	720.803	-2459.517	 H	7	LEU7	-0.036	
102	1HD1	2361.282	720.615	-2461.057	 H	7	LEU7	0.100	
103	2HD1	2362.338	720.065	-2462.381	 H	7	LEU7	0.100	
104	3HD1	2362.132	719.065	-2460.924	 H	7	LEU7	0.100	
105	1HD2	2364.998	720.062	-2461.976	 H	7	LEU7	0.100	
106	2HD2	2365.576	720.443	-2460.334	 H	7	LEU7	0.100	
107	3HD2	2364.641	718.969	-2460.610	 H	7	LEU7	0.100	
108	   N	2363.797	725.387	-2460.668	N.am	8	ASP8	-0.516	
109	  CA	2363.727	726.736	-2461.222	C.3	8	ASP8	0.038	
110	   C	2365.074	727.415	-2461.165	C.2	8	ASP8	0.537	
111	   O	2365.547	728.019	-2462.140	O.2	8	ASP8	-0.582	
112	  CB	2362.649	727.576	-2460.481	C.3	8	ASP8	-0.030	
113	  CG	2362.431	728.997	-2461.022	C.2	8	ASP8	0.799	
114	 OD1	2362.496	729.195	-2462.253	O.co2	8	ASP8	-0.801	
115	 OD2	2362.240	729.923	-2460.207	O.co2	8	ASP8	-0.801	
116	   H	2363.199	725.117	-2459.900	 H	8	ASP8	0.294	
117	  HA	2363.444	726.658	-2462.289	 H	8	ASP8	0.088	
118	 2HB	2362.906	727.660	-2459.409	 H	8	ASP8	-0.012	
119	 3HB	2361.670	727.071	-2460.513	 H	8	ASP8	-0.012	
120	   N	2365.754	727.366	-2460.070	N.am	9	GLU9	-0.516	
121	  CA	2367.057	728.023	-2460.015	C.3	9	GLU9	0.040	
122	   C	2367.975	727.494	-2461.091	C.2	9	GLU9	0.537	
123	   O	2368.638	728.248	-2461.817	O.2	9	GLU9	-0.582	
124	  CB	2367.691	727.815	-2458.610	C.3	9	GLU9	0.056	
125	  CG	2369.074	728.507	-2458.381	C.3	9	GLU9	0.014	
126	  CD	2369.776	728.294	-2457.053	C.2	9	GLU9	0.805	
127	 OE1	2369.254	727.604	-2456.156	O.co2	9	GLU9	-0.819	
128	 OE2	2370.895	728.832	-2456.922	O.co2	9	GLU9	-0.819	
129	   H	2365.390	726.880	-2459.262	 H	9	GLU9	0.294	
130	  HA	2366.915	729.105	-2460.191	 H	9	GLU9	0.111	
131	 2HB	2367.803	726.731	-2458.406	 H	9	GLU9	-0.017	
132	 3HB	2366.994	728.169	-2457.825	 H	9	GLU9	-0.017	
133	 2HG	2369.002	729.598	-2458.521	 H	9	GLU9	-0.043	
134	 3HG	2369.820	728.161	-2459.115	 H	9	GLU9	-0.043	
135	   N	2368.071	726.219	-2461.260	N.am	10	HIS10	-0.416	
136	  CA	2368.958	725.706	-2462.300	C.3	10	HIS10	-0.058	
137	   C	2368.591	726.271	-2463.652	C.2	10	HIS10	0.597	
138	   O	2369.444	726.735	-2464.424	O.2	10	HIS10	-0.568	
139	  CB	2368.793	724.178	-2462.295	C.3	10	HIS10	-0.007	
140	  CG	2370.079	723.467	-2461.987	C.2	10	HIS10	0.187	
141	 CD2	2370.460	723.132	-2460.694	C.2	10	HIS10	-0.221	
142	 ND1	2371.030	723.060	-2462.919	N.2	10	HIS10	-0.543	
143	 CE1	2371.937	722.502	-2462.096	C.2	10	HIS10	0.163	
144	 NE2	2371.674	722.500	-2460.761	N.pl3	10	HIS10	-0.280	
145	   H	2367.540	725.584	-2460.681	 H	10	HIS10	0.272	
146	  HA	2369.977	726.064	-2462.076	 H	10	HIS10	0.136	
147	 2HB	2368.427	723.810	-2463.274	 H	10	HIS10	0.037	
148	 3HB	2368.038	723.841	-2461.554	 H	10	HIS10	0.037	
149	 2HD	2369.875	723.348	-2459.805	 H	10	HIS10	0.186	
150	 1HE	2372.827	722.080	-2462.543	 H	10	HIS10	0.144	
151	 2HE	2372.241	722.123	-2459.988	 H	10	HIS10	0.334	
152	   N	2367.353	726.270	-2464.014	N.am	11	VAL11	-0.416	
153	  CA	2366.998	726.816	-2465.322	C.3	11	VAL11	-0.087	
154	   C	2367.463	728.246	-2465.455	C.2	11	VAL11	0.597	
155	   O	2368.064	728.650	-2466.458	O.2	11	VAL11	-0.568	
156	  CB	2365.437	726.710	-2465.541	C.3	11	VAL11	0.299	
157	 CG1	2364.868	727.413	-2466.803	C.3	11	VAL11	-0.319	
158	 CG2	2364.911	725.256	-2465.613	C.3	11	VAL11	-0.319	
159	   H	2366.640	725.898	-2463.404	 H	11	VAL11	0.272	
160	  HA	2367.517	726.232	-2466.104	 H	11	VAL11	0.097	
161	  HB	2364.949	727.191	-2464.666	 H	11	VAL11	-0.030	
162	1HG1	2365.306	727.021	-2467.740	 H	11	VAL11	0.079	
163	2HG1	2363.769	727.306	-2466.885	 H	11	VAL11	0.079	
164	3HG1	2365.047	728.505	-2466.795	 H	11	VAL11	0.079	
165	1HG2	2365.201	724.669	-2464.722	 H	11	VAL11	0.079	
166	2HG2	2363.805	725.219	-2465.655	 H	11	VAL11	0.079	
167	3HG2	2365.293	724.714	-2466.499	 H	11	VAL11	0.079	
168	   N	2367.227	729.072	-2464.493	N.am	12	GLN12	-0.416	
169	  CA	2367.676	730.455	-2464.621	C.3	12	GLN12	-0.003	
170	   C	2369.166	730.521	-2464.859	C.2	12	GLN12	0.597	
171	   O	2369.653	731.229	-2465.738	O.2	12	GLN12	-0.568	
172	  CB	2367.286	731.223	-2463.338	C.3	12	GLN12	-0.004	
173	  CG	2367.647	732.745	-2463.308	C.3	12	GLN12	-0.064	
174	  CD	2367.345	733.559	-2462.044	C.2	12	GLN12	0.695	
175	 NE2	2366.778	732.984	-2461.014	N.pl3	12	GLN12	-0.941	
176	 OE1	2367.648	734.740	-2461.967	O.2	12	GLN12	-0.609	
177	   H	2366.738	728.767	-2463.663	 H	12	GLN12	0.272	
178	  HA	2367.177	730.911	-2465.496	 H	12	GLN12	0.085	
179	 2HB	2367.762	730.723	-2462.469	 H	12	GLN12	0.017	
180	 3HB	2366.196	731.117	-2463.175	 H	12	GLN12	0.017	
181	 2HG	2367.170	733.266	-2464.159	 H	12	GLN12	0.035	
182	 3HG	2368.730	732.886	-2463.474	 H	12	GLN12	0.035	
183	1HE2	2366.672	733.578	-2460.191	 H	12	GLN12	0.425	
184	2HE2	2366.614	731.980	-2461.117	 H	12	GLN12	0.425	
185	   N	2369.950	729.815	-2464.118	N.am	13	ARG13	-0.348	
186	  CA	2371.391	729.880	-2464.349	C.3	13	ARG13	-0.264	
187	   C	2371.726	729.507	-2465.774	C.2	13	ARG13	0.734	
188	   O	2372.495	730.178	-2466.458	O.2	13	ARG13	-0.589	
189	  CB	2372.104	728.941	-2463.334	C.3	13	ARG13	-0.001	
190	  CG	2373.649	729.094	-2463.254	C.3	13	ARG13	0.039	
191	  CD	2374.276	728.107	-2462.256	C.3	13	ARG13	0.049	
192	  NE	2375.753	728.314	-2462.206	N.pl3	13	ARG13	-0.530	
193	  CZ	2376.601	727.622	-2461.450	C.cat	13	ARG13	0.808	
194	 NH1	2376.236	726.659	-2460.652	N.pl3	13	ARG13	-0.863	
195	 NH2	2377.861	727.921	-2461.508	N.pl3	13	ARG13	-0.863	
196	   H	2369.574	729.225	-2463.389	 H	13	ARG13	0.275	
197	  HA	2371.715	730.926	-2464.191	 H	13	ARG13	0.156	
198	 2HB	2371.837	727.891	-2463.573	 H	13	ARG13	0.033	
199	 3HB	2371.679	729.109	-2462.324	 H	13	ARG13	0.033	
200	 2HG	2373.897	730.139	-2462.976	 H	13	ARG13	0.029	
201	 3HG	2374.099	728.937	-2464.256	 H	13	ARG13	0.029	
202	 2HD	2374.031	727.067	-2462.564	 H	13	ARG13	0.069	
203	 3HD	2373.820	728.254	-2461.253	 H	13	ARG13	0.069	
204	  HE	2376.204	729.035	-2462.777	 H	13	ARG13	0.346	
205	1HH1	2375.231	726.473	-2460.655	 H	13	ARG13	0.448	
206	2HH1	2376.949	726.176	-2460.103	 H	13	ARG13	0.448	
207	1HH2	2378.129	728.679	-2462.140	 H	13	ARG13	0.448	
208	2HH2	2378.496	727.380	-2460.919	 H	13	ARG13	0.448	
209	   N	2371.190	728.453	-2466.287	N.am	14	VAL14	-0.416	
210	  CA	2371.514	728.092	-2467.665	C.3	14	VAL14	-0.087	
211	   C	2371.184	729.222	-2468.611	C.2	14	VAL14	0.597	
212	   O	2371.977	729.603	-2469.481	O.2	14	VAL14	-0.568	
213	  CB	2370.741	726.775	-2468.071	C.3	14	VAL14	0.299	
214	 CG1	2370.830	726.356	-2469.564	C.3	14	VAL14	-0.319	
215	 CG2	2371.173	725.523	-2467.270	C.3	14	VAL14	-0.319	
216	   H	2370.555	727.884	-2465.745	 H	14	VAL14	0.272	
217	  HA	2372.602	727.915	-2467.740	 H	14	VAL14	0.097	
218	  HB	2369.665	726.947	-2467.854	 H	14	VAL14	-0.030	
219	1HG1	2371.871	726.179	-2469.893	 H	14	VAL14	0.079	
220	2HG1	2370.257	725.433	-2469.776	 H	14	VAL14	0.079	
221	3HG1	2370.401	727.118	-2470.242	 H	14	VAL14	0.079	
222	1HG2	2371.086	725.683	-2466.179	 H	14	VAL14	0.079	
223	2HG2	2370.537	724.647	-2467.501	 H	14	VAL14	0.079	
224	3HG2	2372.220	725.233	-2467.476	 H	14	VAL14	0.079	
225	   N	2370.040	729.808	-2468.509	N.am	15	VAL15	-0.416	
226	  CA	2369.720	730.901	-2469.423	C.3	15	VAL15	-0.087	
227	   C	2370.753	731.999	-2469.335	C.2	15	VAL15	0.597	
228	   O	2371.257	732.510	-2470.343	O.2	15	VAL15	-0.568	
229	  CB	2368.277	731.460	-2469.107	C.3	15	VAL15	0.299	
230	 CG1	2367.854	732.747	-2469.866	C.3	15	VAL15	-0.319	
231	 CG2	2367.140	730.442	-2469.366	C.3	15	VAL15	-0.319	
232	   H	2369.375	729.516	-2467.807	 H	15	VAL15	0.272	
233	  HA	2369.745	730.517	-2470.459	 H	15	VAL15	0.097	
234	  HB	2368.252	731.710	-2468.024	 H	15	VAL15	-0.030	
235	1HG1	2367.864	732.614	-2470.965	 H	15	VAL15	0.079	
236	2HG1	2366.837	733.085	-2469.587	 H	15	VAL15	0.079	
237	3HG1	2368.511	733.608	-2469.638	 H	15	VAL15	0.079	
238	1HG2	2367.300	729.497	-2468.815	 H	15	VAL15	0.079	
239	2HG2	2366.158	730.827	-2469.030	 H	15	VAL15	0.079	
240	3HG2	2367.043	730.183	-2470.437	 H	15	VAL15	0.079	
241	   N	2371.121	732.419	-2468.172	N.am	16	ARG16	-0.348	
242	  CA	2372.119	733.481	-2468.086	C.3	16	ARG16	-0.264	
243	   C	2373.390	733.086	-2468.801	C.2	16	ARG16	0.734	
244	   O	2373.502	732.010	-2469.384	O.2	16	ARG16	-0.589	
245	  CB	2372.387	733.797	-2466.587	C.3	16	ARG16	-0.001	
246	  CG	2373.215	735.084	-2466.312	C.3	16	ARG16	0.039	
247	  CD	2373.463	735.301	-2464.810	C.3	16	ARG16	0.049	
248	  NE	2374.241	736.559	-2464.607	N.pl3	16	ARG16	-0.530	
249	  CZ	2374.632	737.039	-2463.431	C.cat	16	ARG16	0.808	
250	 NH1	2374.382	736.454	-2462.293	N.pl3	16	ARG16	-0.863	
251	 NH2	2375.298	738.151	-2463.410	N.pl3	16	ARG16	-0.863	
252	   H	2370.724	732.019	-2467.333	 H	16	ARG16	0.275	
253	  HA	2371.712	734.375	-2468.595	 H	16	ARG16	0.156	
254	 2HB	2372.882	732.920	-2466.121	 H	16	ARG16	0.033	
255	 3HB	2371.418	733.879	-2466.054	 H	16	ARG16	0.033	
256	 2HG	2372.686	735.957	-2466.749	 H	16	ARG16	0.029	
257	 3HG	2374.188	735.030	-2466.840	 H	16	ARG16	0.029	
258	 2HD	2374.010	734.425	-2464.397	 H	16	ARG16	0.069	
259	 3HD	2372.490	735.345	-2464.276	 H	16	ARG16	0.069	
260	  HE	2374.522	737.140	-2465.403	 H	16	ARG16	0.346	
261	1HH1	2373.855	735.582	-2462.379	 H	16	ARG16	0.448	
262	2HH1	2374.717	736.888	-2461.431	 H	16	ARG16	0.448	
263	1HH2	2375.486	738.594	-2464.312	 H	16	ARG16	0.448	
264	2HH2	2375.588	738.504	-2462.497	 H	16	ARG16	0.448	
@<TRIPOS>BOND
1 1 2 1
2 1 10 1
3 2 3 1
4 2 5 1
5 2 11 1
6 3 4 2
7 3 16 1
8 5 6 1
9 6 7 1
10 7 8 2
11 7 9 1
12 5 12 1
13 5 13 1
14 6 14 1
15 6 15 1
16 16 17 1
17 16 24 1
18 17 18 1
19 17 20 1
20 17 25 1
21 18 19 2
22 18 30 1
23 20 21 1
24 21 22 1
25 21 23 2
26 20 26 1
27 20 27 1
28 22 28 1
29 22 29 1
30 30 31 1
31 30 36 1
32 31 32 1
33 31 34 1
34 31 37 1
35 32 33 2
36 32 44 1
37 34 35 1
38 35 36 1
39 34 38 1
40 34 39 1
41 35 40 1
42 35 41 1
43 36 42 1
44 36 43 1
45 44 45 1
46 44 53 1
47 45 46 1
48 45 48 1
49 45 54 1
50 46 47 2
51 46 59 1
52 48 49 1
53 49 50 1
54 50 51 2
55 50 52 1
56 48 55 1
57 48 56 1
58 49 57 1
59 49 58 1
60 59 60 1
61 59 65 1
62 60 61 1
63 60 63 1
64 60 66 1
65 61 62 2
66 61 70 1
67 63 64 1
68 63 67 1
69 63 68 1
70 64 69 1
71 70 71 1
72 70 78 1
73 71 72 1
74 71 74 1
75 71 79 1
76 72 73 2
77 72 89 1
78 74 75 1
79 74 76 1
80 75 77 1
81 74 80 1
82 75 81 1
83 75 82 1
84 76 83 1
85 76 84 1
86 76 85 1
87 77 86 1
88 77 87 1
89 77 88 1
90 89 90 1
91 89 97 1
92 90 91 1
93 90 93 1
94 90 98 1
95 91 92 2
96 91 108 1
97 93 94 1
98 94 95 1
99 94 96 1
100 93 99 1
101 93 100 1
102 94 101 1
103 95 102 1
104 95 103 1
105 95 104 1
106 96 105 1
107 96 106 1
108 96 107 1
109 108 109 1
110 108 116 1
111 109 110 1
112 109 112 1
113 109 117 1
114 110 111 2
115 110 120 1
116 112 113 1
117 113 114 2
118 113 115 1
119 112 118 1
120 112 119 1
121 120 121 1
122 120 129 1
123 121 122 1
124 121 124 1
125 121 130 1
126 122 123 2
127 122 135 1
128 124 125 1
129 125 126 1
130 126 127 2
131 126 128 1
132 124 131 1
133 124 132 1
134 125 133 1
135 125 134 1
136 135 136 1
137 135 145 1
138 136 137 1
139 136 139 1
140 136 146 1
141 137 138 2
142 137 152 1
143 139 140 1
144 140 141 2
145 141 144 1
146 140 142 1
147 142 143 2
148 143 144 1
149 139 147 1
150 139 148 1
151 141 149 1
152 143 150 1
153 144 151 1
154 152 153 1
155 152 159 1
156 153 154 1
157 153 156 1
158 153 160 1
159 154 155 2
160 154 168 1
161 156 157 1
162 156 158 1
163 156 161 1
164 157 162 1
165 157 163 1
166 157 164 1
167 158 165 1
168 158 166 1
169 158 167 1
170 168 169 1
171 168 177 1
172 169 170 1
173 169 172 1
174 169 178 1
175 170 171 2
176 170 185 1
177 172 173 1
178 173 174 1
179 174 175 1
180 174 176 2
181 172 179 1
182 172 180 1
183 173 181 1
184 173 182 1
185 175 183 1
186 175 184 1
187 185 186 1
188 185 196 1
189 186 187 1
190 186 189 1
191 186 197 1
192 187 188 2
193 187 209 1
194 189 190 1
195 190 191 1
196 191 192 1
197 192 193 1
198 193 194 2
199 193 195 1
200 189 198 1
201 189 199 1
202 190 200 1
203 190 201 1
204 191 202 1
205 191 203 1
206 192 204 1
207 194 205 1
208 194 206 1
209 195 207 1
210 195 208 1
211 209 210 1
212 209 216 1
213 210 211 1
214 210 213 1
215 210 217 1
216 211 212 2
217 211 225 1
218 213 214 1
219 213 215 1
220 213 218 1
221 214 219 1
222 214 220 1
223 214 221 1
224 215 222 1
225 215 223 1
226 215 224 1
227 225 226 1
228 225 232 1
229 226 227 1
230 226 229 1
231 226 233 1
232 227 228 2
233 227 241 1
234 229 230 1
235 229 231 1
236 229 234 1
237 230 235 1
238 230 236 1
239 230 237 1
240 231 238 1
241 231 239 1
242 231 240 1
243 241 242 1
244 241 252 1
245 242 243 1
246 242 245 1
247 242 253 1
248 243 244 2
249 245 246 1
250 246 247 1
251 247 248 1
252 248 249 1
253 249 250 2
254 249 251 1
255 245 254 1
256 245 255 1
257 246 256 1
258 246 257 1
259 247 258 1
260 247 259 1
261 248 260 1
262 250 261 1
263 250 262 1
264 251 263 1
265 251 264 1
@<TRIPOS>SUBSTRUCTURE
1	GLU1	1	RESIDUE	1 ****	GLU
2	ASN2	16	RESIDUE	1 ****	ASN
3	PRO3	30	RESIDUE	1 ****	PRO
4	GLU4	44	RESIDUE	1 ****	GLU
5	SER5	59	RESIDUE	1 ****	SER
6	ILE6	70	RESIDUE	1 ****	ILE
7	LEU7	89	RESIDUE	1 ****	LEU
8	ASP8	108	RESIDUE	1 ****	ASP
9	GLU9	120	RESIDUE	1 ****	GLU
10	HIS10	135	RESIDUE	1 ****	HIS
11	VAL11	152	RESIDUE	1 ****	VAL
12	GLN12	168	RESIDUE	1 ****	GLN
13	ARG13	185	RESIDUE	1 ****	ARG
14	VAL14	209	RESIDUE	1 ****	VAL
15	VAL15	225	RESIDUE	1 ****	VAL
16	ARG16	241	RESIDUE	1 ****	ARG
