@<TRIPOS>MOLECULE
12-12
259 260 16              
SMALL
USER_CHARGES
@<TRIPOS>ATOM
1	   N	1935.681	584.082	-1991.605	N.3	1	GLU1	-0.516	
2	  CA	1936.240	585.431	-1991.605	C.3	1	GLU1	0.040	
3	   C	1937.749	585.391	-1991.605	C.2	1	GLU1	0.537	
4	   O	1938.425	586.090	-1992.373	O.2	1	GLU1	-0.582	
5	  CB	1935.717	586.216	-1990.368	C.3	1	GLU1	0.056	
6	  CG	1936.192	587.701	-1990.257	C.3	1	GLU1	0.014	
7	  CD	1935.768	588.505	-1989.042	C.2	1	GLU1	0.805	
8	 OE1	1935.040	588.003	-1988.164	O.co2	1	GLU1	-0.819	
9	 OE2	1936.198	589.675	-1988.970	O.co2	1	GLU1	-0.819	
10	   H	1936.308	583.203	-1991.605	 H	1	GLU1	0.294	
11	  HA	1935.914	585.949	-1992.525	 H	1	GLU1	0.111	
12	 2HB	1936.006	585.685	-1989.438	 H	1	GLU1	-0.017	
13	 3HB	1934.610	586.206	-1990.355	 H	1	GLU1	-0.017	
14	 2HG	1935.882	588.286	-1991.138	 H	1	GLU1	-0.043	
15	 3HG	1937.292	587.768	-1990.228	 H	1	GLU1	-0.043	
16	   N	1938.354	584.605	-1990.780	N.am	2	ASN2	-0.416	
17	  CA	1939.813	584.567	-1990.780	C.3	2	ASN2	0.014	
18	   C	1940.344	584.211	-1992.148	C.2	2	ASN2	0.597	
19	   O	1941.259	584.841	-1992.677	O.2	2	ASN2	-0.568	
20	  CB	1940.305	583.544	-1989.715	C.3	2	ASN2	-0.204	
21	  CG	1939.842	583.768	-1988.272	C.2	2	ASN2	0.713	
22	 ND2	1940.436	584.682	-1987.554	N.pl3	2	ASN2	-0.919	
23	 OD1	1938.921	583.134	-1987.778	O.2	2	ASN2	-0.593	
24	   H	1937.826	584.026	-1990.143	 H	2	ASN2	0.272	
25	  HA	1940.191	585.577	-1990.534	 H	2	ASN2	0.105	
26	 2HB	1941.410	583.484	-1989.719	 H	2	ASN2	0.080	
27	 3HB	1939.976	582.525	-1990.001	 H	2	ASN2	0.080	
28	1HD2	1939.956	584.855	-1986.667	 H	2	ASN2	0.420	
29	2HD2	1941.138	585.254	-1988.023	 H	2	ASN2	0.420	
30	   N	1939.823	583.216	-1992.782	N.am	3	PRO3	-0.255	
31	  CA	1940.275	582.807	-1994.104	C.3	3	PRO3	-0.027	
32	   C	1939.877	583.830	-1995.181	C.2	3	PRO3	0.590	
33	   O	1940.700	584.213	-1996.012	O.2	3	PRO3	-0.575	
34	  CB	1939.571	581.452	-1994.273	C.3	3	PRO3	-0.007	
35	  CG	1938.287	581.604	-1993.443	C.3	3	PRO3	0.019	
36	  CD	1938.745	582.423	-1992.233	C.3	3	PRO3	0.019	
37	  HA	1941.360	582.687	-1994.117	 H	3	PRO3	0.064	
38	 2HB	1940.193	580.671	-1993.832	 H	3	PRO3	0.025	
39	 3HB	1939.372	581.203	-1995.318	 H	3	PRO3	0.025	
40	 2HG	1937.860	580.642	-1993.152	 H	3	PRO3	0.021	
41	 3HG	1937.550	582.175	-1994.010	 H	3	PRO3	0.021	
42	 2HD	1939.134	581.773	-1991.446	 H	3	PRO3	0.039	
43	 3HD	1937.948	583.059	-1991.840	 H	3	PRO3	0.039	
44	   N	1938.672	584.290	-1995.213	N.am	4	GLU4	-0.516	
45	  CA	1938.312	585.261	-1996.243	C.3	4	GLU4	0.040	
46	   C	1939.211	586.472	-1996.181	C.2	4	GLU4	0.537	
47	   O	1939.738	586.952	-1997.196	O.2	4	GLU4	-0.582	
48	  CB	1936.824	585.680	-1996.072	C.3	4	GLU4	0.056	
49	  CG	1936.276	586.684	-1997.138	C.3	4	GLU4	0.014	
50	  CD	1934.849	587.181	-1996.994	C.2	4	GLU4	0.805	
51	 OE1	1934.123	586.782	-1996.063	O.co2	4	GLU4	-0.819	
52	 OE2	1934.459	588.010	-1997.843	O.co2	4	GLU4	-0.819	
53	   H	1937.988	583.983	-1994.536	 H	4	GLU4	0.294	
54	  HA	1938.443	584.791	-1997.234	 H	4	GLU4	0.111	
55	 2HB	1936.671	586.120	-1995.065	 H	4	GLU4	-0.017	
56	 3HB	1936.176	584.782	-1996.079	 H	4	GLU4	-0.017	
57	 2HG	1936.357	586.269	-1998.156	 H	4	GLU4	-0.043	
58	 3HG	1936.864	587.616	-1997.149	 H	4	GLU4	-0.043	
59	   N	1939.439	587.025	-1995.038	N.am	5	SER5	-0.416	
60	  CA	1940.308	588.196	-1994.980	C.3	5	SER5	-0.025	
61	   C	1941.667	587.891	-1995.565	C.2	5	SER5	0.597	
62	   O	1942.214	588.644	-1996.370	O.2	5	SER5	-0.568	
63	  CB	1940.420	588.729	-1993.529	C.3	5	SER5	0.212	
64	  OG	1941.151	587.849	-1992.668	O.3	5	SER5	-0.655	
65	   H	1939.022	586.653	-1994.197	 H	5	SER5	0.272	
66	  HA	1939.859	588.986	-1995.609	 H	5	SER5	0.084	
67	 2HB	1939.420	588.922	-1993.096	 H	5	SER5	0.035	
68	 3HB	1940.925	589.714	-1993.532	 H	5	SER5	0.035	
69	  HG	1940.663	587.024	-1992.618	 H	5	SER5	0.428	
70	   N	1942.272	586.808	-1995.211	N.am	6	ILE6	-0.416	
71	  CA	1943.585	586.513	-1995.777	C.3	6	ILE6	-0.060	
72	   C	1943.528	586.475	-1997.285	C.2	6	ILE6	0.597	
73	   O	1944.362	587.063	-1997.989	O.2	6	ILE6	-0.568	
74	  CB	1944.185	585.177	-1995.177	C.3	6	ILE6	0.130	
75	 CG1	1944.204	585.115	-1993.616	C.3	6	ILE6	-0.043	
76	 CG2	1945.626	584.875	-1995.693	C.3	6	ILE6	-0.320	
77	 CD1	1944.474	583.726	-1993.001	C.3	6	ILE6	-0.066	
78	   H	1941.844	586.173	-1994.552	 H	6	ILE6	0.272	
79	  HA	1944.259	587.347	-1995.510	 H	6	ILE6	0.087	
80	  HB	1943.527	584.351	-1995.521	 H	6	ILE6	0.019	
81	2HG1	1943.222	585.434	-1993.221	 H	6	ILE6	0.024	
82	3HG1	1944.920	585.857	-1993.212	 H	6	ILE6	0.024	
83	1HG2	1945.685	584.782	-1996.791	 H	6	ILE6	0.088	
84	2HG2	1946.348	585.658	-1995.391	 H	6	ILE6	0.088	
85	3HG2	1946.016	583.913	-1995.314	 H	6	ILE6	0.088	
86	1HD1	1943.746	582.971	-1993.356	 H	6	ILE6	0.019	
87	2HD1	1945.485	583.347	-1993.237	 H	6	ILE6	0.019	
88	3HD1	1944.398	583.755	-1991.899	 H	6	ILE6	0.019	
89	   N	1942.582	585.812	-1997.859	N.am	7	LEU7	-0.416	
90	  CA	1942.527	585.776	-1999.318	C.3	7	LEU7	-0.052	
91	   C	1942.454	587.171	-1999.890	C.2	7	LEU7	0.597	
92	   O	1943.175	587.534	-2000.832	O.2	7	LEU7	-0.568	
93	  CB	1941.324	584.915	-1999.798	C.3	7	LEU7	-0.110	
94	  CG	1941.252	583.436	-1999.331	C.3	7	LEU7	0.353	
95	 CD1	1940.062	582.730	-1999.997	C.3	7	LEU7	-0.412	
96	 CD2	1942.545	582.657	-1999.623	C.3	7	LEU7	-0.412	
97	   H	1941.890	585.325	-1997.308	 H	7	LEU7	0.272	
98	  HA	1943.469	585.336	-1999.692	 H	7	LEU7	0.092	
99	 2HB	1941.301	584.931	-2000.905	 H	7	LEU7	0.046	
100	 3HB	1940.384	585.418	-1999.494	 H	7	LEU7	0.046	
101	  HG	1941.082	583.428	-1998.234	 H	7	LEU7	-0.036	
102	1HD1	1939.105	583.239	-1999.774	 H	7	LEU7	0.100	
103	2HD1	1940.161	582.690	-2001.098	 H	7	LEU7	0.100	
104	3HD1	1939.955	581.689	-1999.641	 H	7	LEU7	0.100	
105	1HD2	1942.821	582.687	-2000.693	 H	7	LEU7	0.100	
106	2HD2	1943.399	583.069	-1999.052	 H	7	LEU7	0.100	
107	3HD2	1942.464	581.595	-1999.327	 H	7	LEU7	0.100	
108	   N	1941.617	588.011	-1999.384	N.am	8	ASP8	-0.516	
109	  CA	1941.546	589.361	-1999.937	C.3	8	ASP8	0.038	
110	   C	1942.893	590.041	-1999.879	C.2	8	ASP8	0.537	
111	   O	1943.365	590.647	-2000.854	O.2	8	ASP8	-0.582	
112	  CB	1940.468	590.200	-1999.195	C.3	8	ASP8	-0.030	
113	  CG	1940.249	591.620	-1999.735	C.2	8	ASP8	0.799	
114	 OD1	1940.313	591.820	-2000.966	O.co2	8	ASP8	-0.801	
115	 OD2	1940.057	592.546	-1998.920	O.co2	8	ASP8	-0.801	
116	   H	1941.019	587.740	-1998.616	 H	8	ASP8	0.294	
117	  HA	1941.264	589.283	-2001.004	 H	8	ASP8	0.088	
118	 2HB	1940.725	590.283	-1998.123	 H	8	ASP8	-0.012	
119	 3HB	1939.489	589.694	-1999.228	 H	8	ASP8	-0.012	
120	   N	1943.573	589.991	-1998.784	N.am	9	GLU9	-0.516	
121	  CA	1944.875	590.649	-1998.729	C.3	9	GLU9	0.040	
122	   C	1945.793	590.122	-1999.805	C.2	9	GLU9	0.537	
123	   O	1946.457	590.877	-2000.530	O.2	9	GLU9	-0.582	
124	  CB	1945.509	590.442	-1997.323	C.3	9	GLU9	0.056	
125	  CG	1946.891	591.135	-1997.094	C.3	9	GLU9	0.014	
126	  CD	1947.593	590.921	-1995.766	C.2	9	GLU9	0.805	
127	 OE1	1947.072	590.230	-1994.870	O.co2	9	GLU9	-0.819	
128	 OE2	1948.712	591.460	-1995.635	O.co2	9	GLU9	-0.819	
129	   H	1943.210	589.505	-1997.977	 H	9	GLU9	0.294	
130	  HA	1944.733	591.731	-1998.904	 H	9	GLU9	0.111	
131	 2HB	1945.622	589.357	-1997.120	 H	9	GLU9	-0.017	
132	 3HB	1944.812	590.795	-1996.539	 H	9	GLU9	-0.017	
133	 2HG	1946.819	592.225	-1997.234	 H	9	GLU9	-0.043	
134	 3HG	1947.638	590.790	-1997.828	 H	9	GLU9	-0.043	
135	   N	1945.891	588.847	-1999.975	N.am	10	HIS10	-0.416	
136	  CA	1946.779	588.336	-2001.016	C.3	10	HIS10	-0.058	
137	   C	1946.411	588.901	-2002.366	C.2	10	HIS10	0.597	
138	   O	1947.263	589.367	-2003.138	O.2	10	HIS10	-0.568	
139	  CB	1946.615	586.807	-2001.011	C.3	10	HIS10	-0.007	
140	  CG	1947.901	586.098	-2000.703	C.2	10	HIS10	0.187	
141	 CD2	1948.283	585.762	-1999.411	C.2	10	HIS10	-0.221	
142	 ND1	1948.853	585.693	-2001.636	N.2	10	HIS10	-0.543	
143	 CE1	1949.760	585.135	-2000.813	C.2	10	HIS10	0.163	
144	 NE2	1949.498	585.131	-1999.478	N.pl3	10	HIS10	-0.280	
145	   H	1945.360	588.211	-1999.396	 H	10	HIS10	0.272	
146	  HA	1947.797	588.694	-2000.790	 H	10	HIS10	0.136	
147	 2HB	1946.250	586.441	-2001.991	 H	10	HIS10	0.037	
148	 3HB	1945.860	586.470	-2000.271	 H	10	HIS10	0.037	
149	 2HD	1947.697	585.977	-1998.521	 H	10	HIS10	0.186	
150	 1HE	1950.651	584.714	-2001.260	 H	10	HIS10	0.144	
151	 2HE	1950.065	584.754	-1998.705	 H	10	HIS10	0.334	
152	   N	1945.173	588.900	-2002.729	N.am	11	VAL11	-0.416	
153	  CA	1944.818	589.446	-2004.036	C.3	11	VAL11	-0.087	
154	   C	1945.281	590.877	-2004.168	C.2	11	VAL11	0.597	
155	   O	1945.881	591.282	-2005.171	O.2	11	VAL11	-0.568	
156	  CB	1943.256	589.338	-2004.255	C.3	11	VAL11	0.299	
157	 CG1	1942.687	590.042	-2005.517	C.3	11	VAL11	-0.319	
158	 CG2	1942.733	587.884	-2004.328	C.3	11	VAL11	-0.319	
159	   H	1944.461	588.526	-2002.118	 H	11	VAL11	0.272	
160	  HA	1945.337	588.864	-2004.818	 H	11	VAL11	0.097	
161	  HB	1942.769	589.818	-2003.379	 H	11	VAL11	-0.030	
162	1HG1	1943.126	589.651	-2006.454	 H	11	VAL11	0.079	
163	2HG1	1941.588	589.934	-2005.599	 H	11	VAL11	0.079	
164	3HG1	1942.864	591.135	-2005.508	 H	11	VAL11	0.079	
165	1HG2	1943.023	587.297	-2003.438	 H	11	VAL11	0.079	
166	2HG2	1941.627	587.846	-2004.371	 H	11	VAL11	0.079	
167	3HG2	1943.115	587.344	-2005.215	 H	11	VAL11	0.079	
168	   N	1945.044	591.702	-2003.205	N.am	12	CYS12	-0.416	
169	  CA	1945.491	593.086	-2003.332	C.3	12	CYS12	0.021	
170	   C	1946.981	593.153	-2003.570	C.2	12	CYS12	0.597	
171	   O	1947.474	593.867	-2004.456	O.2	12	CYS12	-0.568	
172	  CB	1945.061	593.858	-2002.069	C.3	12	CYS12	-0.123	
173	  SG	1945.426	595.619	-2002.241	S.3	12	CYS12	-0.312	
174	   H	1944.555	591.395	-2002.376	 H	12	CYS12	0.272	
175	  HA	1944.997	593.531	-2004.215	 H	12	CYS12	0.112	
176	 2HB	1945.565	593.465	-2001.163	 H	12	CYS12	0.111	
177	 3HB	1943.977	593.752	-2001.886	 H	12	CYS12	0.111	
178	  HG	1946.481	595.644	-2001.430	 H	12	CYS12	0.193	
179	   N	1947.766	592.446	-2002.830	N.am	13	ARG13	-0.348	
180	  CA	1949.206	592.511	-2003.060	C.3	13	ARG13	-0.264	
181	   C	1949.542	592.140	-2004.485	C.2	13	ARG13	0.734	
182	   O	1950.311	592.811	-2005.169	O.2	13	ARG13	-0.589	
183	  CB	1949.919	591.571	-2002.047	C.3	13	ARG13	-0.001	
184	  CG	1951.464	591.724	-2001.965	C.3	13	ARG13	0.039	
185	  CD	1952.090	590.736	-2000.968	C.3	13	ARG13	0.049	
186	  NE	1953.568	590.942	-2000.917	N.pl3	13	ARG13	-0.530	
187	  CZ	1954.415	590.250	-2000.162	C.cat	13	ARG13	0.808	
188	 NH1	1954.049	589.285	-1999.365	N.pl3	13	ARG13	-0.863	
189	 NH2	1955.675	590.548	-2000.219	N.pl3	13	ARG13	-0.863	
190	   H	1947.389	591.856	-2002.101	 H	13	ARG13	0.275	
191	  HA	1949.531	593.557	-2002.901	 H	13	ARG13	0.156	
192	 2HB	1949.652	590.521	-2002.286	 H	13	ARG13	0.033	
193	 3HB	1949.494	591.738	-2001.036	 H	13	ARG13	0.033	
194	 2HG	1951.712	592.768	-2001.685	 H	13	ARG13	0.029	
195	 3HG	1951.914	591.568	-2002.967	 H	13	ARG13	0.029	
196	 2HD	1951.845	589.696	-2001.277	 H	13	ARG13	0.069	
197	 3HD	1951.634	590.881	-1999.965	 H	13	ARG13	0.069	
198	  HE	1954.019	591.664	-2001.488	 H	13	ARG13	0.346	
199	1HH1	1953.044	589.100	-1999.368	 H	13	ARG13	0.448	
200	2HH1	1954.762	588.802	-1998.816	 H	13	ARG13	0.448	
201	1HH2	1955.943	591.306	-2000.849	 H	13	ARG13	0.448	
202	2HH2	1956.310	590.006	-1999.630	 H	13	ARG13	0.448	
203	   N	1949.005	591.086	-2005.000	N.am	14	VAL14	-0.416	
204	  CA	1949.330	590.727	-2006.378	C.3	14	VAL14	-0.087	
205	   C	1949.000	591.857	-2007.323	C.2	14	VAL14	0.597	
206	   O	1949.794	592.239	-2008.192	O.2	14	VAL14	-0.568	
207	  CB	1948.557	589.410	-2006.785	C.3	14	VAL14	0.299	
208	 CG1	1948.646	588.992	-2008.279	C.3	14	VAL14	-0.319	
209	 CG2	1948.988	588.157	-2005.985	C.3	14	VAL14	-0.319	
210	   H	1948.370	590.517	-2004.458	 H	14	VAL14	0.272	
211	  HA	1950.418	590.549	-2006.453	 H	14	VAL14	0.097	
212	  HB	1947.481	589.582	-2006.569	 H	14	VAL14	-0.030	
213	1HG1	1949.687	588.815	-2008.608	 H	14	VAL14	0.079	
214	2HG1	1948.072	588.070	-2008.492	 H	14	VAL14	0.079	
215	3HG1	1948.217	589.755	-2008.957	 H	14	VAL14	0.079	
216	1HG2	1948.901	588.316	-2004.895	 H	14	VAL14	0.079	
217	2HG2	1948.352	587.281	-2006.218	 H	14	VAL14	0.079	
218	3HG2	1950.036	587.867	-2006.191	 H	14	VAL14	0.079	
219	   N	1947.856	592.444	-2007.221	N.am	15	MET15	-0.416	
220	  CA	1947.536	593.537	-2008.134	C.3	15	MET15	-0.024	
221	   C	1948.567	594.636	-2008.046	C.2	15	MET15	0.597	
222	   O	1949.070	595.147	-2009.058	O.2	15	MET15	-0.568	
223	  CB	1946.115	594.083	-2007.825	C.3	15	MET15	0.034	
224	  CG	1944.952	593.086	-2008.017	C.3	15	MET15	0.002	
225	  SD	1943.379	593.952	-2007.903	S.3	15	MET15	-0.274	
226	  CE	1942.297	592.523	-2007.767	C.3	15	MET15	-0.054	
227	   H	1947.191	592.151	-2006.520	 H	15	MET15	0.272	
228	  HA	1947.562	593.150	-2009.170	 H	15	MET15	0.088	
229	 2HB	1945.913	594.962	-2008.467	 H	15	MET15	0.024	
230	 3HB	1946.080	594.475	-2006.789	 H	15	MET15	0.024	
231	 2HG	1944.995	592.299	-2007.240	 H	15	MET15	0.044	
232	 3HG	1945.015	592.571	-2008.994	 H	15	MET15	0.044	
233	 1HE	1942.441	591.835	-2008.619	 H	15	MET15	0.068	
234	 2HE	1942.506	591.970	-2006.834	 H	15	MET15	0.068	
235	 3HE	1941.240	592.839	-2007.750	 H	15	MET15	0.068	
236	   N	1948.936	595.057	-2006.883	N.am	16	ARG16	-0.348	
237	  CA	1949.933	596.120	-2006.799	C.3	16	ARG16	-0.264	
238	   C	1951.203	595.727	-2007.516	C.2	16	ARG16	0.734	
239	   O	1951.316	594.651	-2008.098	O.2	16	ARG16	-0.589	
240	  CB	1950.202	596.437	-2005.301	C.3	16	ARG16	-0.001	
241	  CG	1951.027	597.725	-2005.027	C.3	16	ARG16	0.039	
242	  CD	1951.277	597.944	-2003.526	C.3	16	ARG16	0.049	
243	  NE	1952.054	599.202	-2003.324	N.pl3	16	ARG16	-0.530	
244	  CZ	1952.446	599.684	-2002.148	C.cat	16	ARG16	0.808	
245	 NH1	1952.198	599.099	-2001.010	N.pl3	16	ARG16	-0.863	
246	 NH2	1953.110	600.796	-2002.129	N.pl3	16	ARG16	-0.863	
247	   H	1948.541	594.656	-2006.044	 H	16	ARG16	0.275	
248	  HA	1949.524	597.013	-2007.308	 H	16	ARG16	0.156	
249	 2HB	1950.699	595.560	-2004.835	 H	16	ARG16	0.033	
250	 3HB	1949.233	596.518	-2004.767	 H	16	ARG16	0.033	
251	 2HG	1950.497	598.597	-2005.464	 H	16	ARG16	0.029	
252	 3HG	1952.001	597.673	-2005.556	 H	16	ARG16	0.029	
253	 2HD	1951.826	597.069	-2003.113	 H	16	ARG16	0.069	
254	 3HD	1950.305	597.986	-2002.990	 H	16	ARG16	0.069	
255	  HE	1952.333	599.784	-2004.121	 H	16	ARG16	0.346	
256	1HH1	1951.672	598.226	-2001.095	 H	16	ARG16	0.448	
257	2HH1	1952.532	599.534	-2000.149	 H	16	ARG16	0.448	
258	1HH2	1953.295	601.240	-2003.031	 H	16	ARG16	0.448	
259	2HH2	1953.400	601.151	-2001.217	 H	16	ARG16	0.448	
@<TRIPOS>BOND
1 1 2 1
2 1 10 1
3 2 3 1
4 2 5 1
5 2 11 1
6 3 4 2
7 3 16 1
8 5 6 1
9 6 7 1
10 7 8 2
11 7 9 1
12 5 12 1
13 5 13 1
14 6 14 1
15 6 15 1
16 16 17 1
17 16 24 1
18 17 18 1
19 17 20 1
20 17 25 1
21 18 19 2
22 18 30 1
23 20 21 1
24 21 22 1
25 21 23 2
26 20 26 1
27 20 27 1
28 22 28 1
29 22 29 1
30 30 31 1
31 30 36 1
32 31 32 1
33 31 34 1
34 31 37 1
35 32 33 2
36 32 44 1
37 34 35 1
38 35 36 1
39 34 38 1
40 34 39 1
41 35 40 1
42 35 41 1
43 36 42 1
44 36 43 1
45 44 45 1
46 44 53 1
47 45 46 1
48 45 48 1
49 45 54 1
50 46 47 2
51 46 59 1
52 48 49 1
53 49 50 1
54 50 51 2
55 50 52 1
56 48 55 1
57 48 56 1
58 49 57 1
59 49 58 1
60 59 60 1
61 59 65 1
62 60 61 1
63 60 63 1
64 60 66 1
65 61 62 2
66 61 70 1
67 63 64 1
68 63 67 1
69 63 68 1
70 64 69 1
71 70 71 1
72 70 78 1
73 71 72 1
74 71 74 1
75 71 79 1
76 72 73 2
77 72 89 1
78 74 75 1
79 74 76 1
80 75 77 1
81 74 80 1
82 75 81 1
83 75 82 1
84 76 83 1
85 76 84 1
86 76 85 1
87 77 86 1
88 77 87 1
89 77 88 1
90 89 90 1
91 89 97 1
92 90 91 1
93 90 93 1
94 90 98 1
95 91 92 2
96 91 108 1
97 93 94 1
98 94 95 1
99 94 96 1
100 93 99 1
101 93 100 1
102 94 101 1
103 95 102 1
104 95 103 1
105 95 104 1
106 96 105 1
107 96 106 1
108 96 107 1
109 108 109 1
110 108 116 1
111 109 110 1
112 109 112 1
113 109 117 1
114 110 111 2
115 110 120 1
116 112 113 1
117 113 114 2
118 113 115 1
119 112 118 1
120 112 119 1
121 120 121 1
122 120 129 1
123 121 122 1
124 121 124 1
125 121 130 1
126 122 123 2
127 122 135 1
128 124 125 1
129 125 126 1
130 126 127 2
131 126 128 1
132 124 131 1
133 124 132 1
134 125 133 1
135 125 134 1
136 135 136 1
137 135 145 1
138 136 137 1
139 136 139 1
140 136 146 1
141 137 138 2
142 137 152 1
143 139 140 1
144 140 141 2
145 141 144 1
146 140 142 1
147 142 143 2
148 143 144 1
149 139 147 1
150 139 148 1
151 141 149 1
152 143 150 1
153 144 151 1
154 152 153 1
155 152 159 1
156 153 154 1
157 153 156 1
158 153 160 1
159 154 155 2
160 154 168 1
161 156 157 1
162 156 158 1
163 156 161 1
164 157 162 1
165 157 163 1
166 157 164 1
167 158 165 1
168 158 166 1
169 158 167 1
170 168 169 1
171 168 174 1
172 169 170 1
173 169 172 1
174 169 175 1
175 170 171 2
176 170 179 1
177 172 173 1
178 172 176 1
179 172 177 1
180 173 178 1
181 179 180 1
182 179 190 1
183 180 181 1
184 180 183 1
185 180 191 1
186 181 182 2
187 181 203 1
188 183 184 1
189 184 185 1
190 185 186 1
191 186 187 1
192 187 188 2
193 187 189 1
194 183 192 1
195 183 193 1
196 184 194 1
197 184 195 1
198 185 196 1
199 185 197 1
200 186 198 1
201 188 199 1
202 188 200 1
203 189 201 1
204 189 202 1
205 203 204 1
206 203 210 1
207 204 205 1
208 204 207 1
209 204 211 1
210 205 206 2
211 205 219 1
212 207 208 1
213 207 209 1
214 207 212 1
215 208 213 1
216 208 214 1
217 208 215 1
218 209 216 1
219 209 217 1
220 209 218 1
221 219 220 1
222 219 227 1
223 220 221 1
224 220 223 1
225 220 228 1
226 221 222 2
227 221 236 1
228 223 224 1
229 224 225 1
230 225 226 1
231 223 229 1
232 223 230 1
233 224 231 1
234 224 232 1
235 226 233 1
236 226 234 1
237 226 235 1
238 236 237 1
239 236 247 1
240 237 238 1
241 237 240 1
242 237 248 1
243 238 239 2
244 240 241 1
245 241 242 1
246 242 243 1
247 243 244 1
248 244 245 2
249 244 246 1
250 240 249 1
251 240 250 1
252 241 251 1
253 241 252 1
254 242 253 1
255 242 254 1
256 243 255 1
257 245 256 1
258 245 257 1
259 246 258 1
260 246 259 1
@<TRIPOS>SUBSTRUCTURE
1	GLU1	1	RESIDUE	1 ****	GLU
2	ASN2	16	RESIDUE	1 ****	ASN
3	PRO3	30	RESIDUE	1 ****	PRO
4	GLU4	44	RESIDUE	1 ****	GLU
5	SER5	59	RESIDUE	1 ****	SER
6	ILE6	70	RESIDUE	1 ****	ILE
7	LEU7	89	RESIDUE	1 ****	LEU
8	ASP8	108	RESIDUE	1 ****	ASP
9	GLU9	120	RESIDUE	1 ****	GLU
10	HIS10	135	RESIDUE	1 ****	HIS
11	VAL11	152	RESIDUE	1 ****	VAL
12	CYS12	168	RESIDUE	1 ****	CYS
13	ARG13	179	RESIDUE	1 ****	ARG
14	VAL14	203	RESIDUE	1 ****	VAL
15	MET15	219	RESIDUE	1 ****	MET
16	ARG16	236	RESIDUE	1 ****	ARG
