REMARK WARNING: 32 MAX_TORS EXCEEDED!!!
REMARK  68 active torsions:
REMARK  status: ('A' for Active; 'I' for Inactive)
REMARK    1  A    between atoms: N_1  and  CA_2 
REMARK    2  A    between atoms: CA_2  and  C_3 
REMARK    3  A    between atoms: CA_2  and  CB_5 
REMARK       I    between atoms: C_3  and  N_11 
REMARK    4  A    between atoms: CB_5  and  CG_6 
REMARK    5  A    between atoms: CG_6  and  CD_7 
REMARK    6  A    between atoms: N_11  and  CA_12 
REMARK    7  A    between atoms: CA_12  and  C_13 
REMARK    8  A    between atoms: CA_12  and  CB_15 
REMARK       I    between atoms: C_13  and  N_22 
REMARK    9  A    between atoms: CB_15  and  CG_16 
REMARK       I    between atoms: CG_16  and  ND2_17 
REMARK   10  A    between atoms: CA_23  and  C_24 
REMARK       I    between atoms: C_24  and  N_29 
REMARK   11  A    between atoms: N_29  and  CA_30 
REMARK   12  A    between atoms: CA_30  and  C_31 
REMARK   13  A    between atoms: CA_30  and  CB_33 
REMARK       I    between atoms: C_31  and  N_39 
REMARK   14  A    between atoms: CB_33  and  CG_34 
REMARK   15  A    between atoms: CG_34  and  CD_35 
REMARK   16  A    between atoms: N_39  and  CA_40 
REMARK   17  A    between atoms: CA_40  and  C_41 
REMARK   18  A    between atoms: CA_40  and  CB_43 
REMARK       I    between atoms: C_41  and  N_47 
REMARK   19  A    between atoms: CB_43  and  OG_44 
REMARK   20  A    between atoms: N_47  and  CA_48 
REMARK   21  A    between atoms: CA_48  and  C_49 
REMARK   22  A    between atoms: CA_48  and  CB_51 
REMARK       I    between atoms: C_49  and  N_56 
REMARK   23  A    between atoms: CB_51  and  CG1_52 
REMARK   24  A    between atoms: N_56  and  CA_57 
REMARK   25  A    between atoms: CA_57  and  C_58 
REMARK   26  A    between atoms: CA_57  and  CB_60 
REMARK       I    between atoms: C_58  and  N_65 
REMARK   27  A    between atoms: CB_60  and  CG_61 
REMARK   28  A    between atoms: N_65  and  CA_66 
REMARK   29  A    between atoms: CA_66  and  C_67 
REMARK   30  A    between atoms: CA_66  and  CB_69 
REMARK       I    between atoms: C_67  and  N_74 
REMARK   31  A    between atoms: CB_69  and  CG_70 
REMARK   32  A    between atoms: N_74  and  CA_75 
REMARK   33  A    between atoms: CA_75  and  C_76 
REMARK   34  A    between atoms: CA_75  and  CB_78 
REMARK       I    between atoms: C_76  and  N_84 
REMARK   35  A    between atoms: CB_78  and  CG_79 
REMARK   36  A    between atoms: CG_79  and  CD_80 
REMARK   37  A    between atoms: N_84  and  CA_85 
REMARK   38  A    between atoms: CA_85  and  C_86 
REMARK   39  A    between atoms: CA_85  and  CB_88 
REMARK       I    between atoms: C_86  and  N_96 
REMARK   40  A    between atoms: CB_88  and  CG_89 
REMARK   41  A    between atoms: N_96  and  CA_97 
REMARK   42  A    between atoms: CA_97  and  C_98 
REMARK   43  A    between atoms: CA_97  and  CB_100 
REMARK       I    between atoms: C_98  and  N_104 
REMARK   44  A    between atoms: N_104  and  CA_105 
REMARK   45  A    between atoms: CA_105  and  C_106 
REMARK   46  A    between atoms: CA_105  and  CB_108 
REMARK       I    between atoms: C_106  and  N_116 
REMARK   47  A    between atoms: CB_108  and  CG_109 
REMARK   48  A    between atoms: CG_109  and  CD_110 
REMARK       I    between atoms: CD_110  and  NE2_111 
REMARK   49  A    between atoms: N_116  and  CA_117 
REMARK   50  A    between atoms: CA_117  and  C_118 
REMARK   51  A    between atoms: CA_117  and  CB_120 
REMARK       I    between atoms: C_118  and  N_133 
REMARK   52  A    between atoms: CB_120  and  CG_121 
REMARK   53  A    between atoms: CG_121  and  CD_122 
REMARK   54  A    between atoms: CD_122  and  NE_123 
REMARK       I    between atoms: NE_123  and  CZ_124 
REMARK       I    between atoms: CZ_124  and  NH1_125 
REMARK       I    between atoms: CZ_124  and  NH2_126 
REMARK   55  A    between atoms: N_133  and  CA_134 
REMARK   56  A    between atoms: CA_134  and  C_135 
REMARK   57  A    between atoms: CA_134  and  CB_137 
REMARK       I    between atoms: C_135  and  N_141 
REMARK   58  A    between atoms: N_141  and  CA_142 
REMARK   59  A    between atoms: CA_142  and  C_143 
REMARK   60  A    between atoms: CA_142  and  CB_145 
REMARK       I    between atoms: C_143  and  N_150 
REMARK   61  A    between atoms: CB_145  and  CG_146 
REMARK   62  A    between atoms: CG_146  and  SD_147 
REMARK   63  A    between atoms: N_150  and  CA_151 
REMARK   64  A    between atoms: CA_151  and  C_152 
REMARK   65  A    between atoms: CA_151  and  CB_154 
REMARK   66  A    between atoms: CB_154  and  CG_155 
REMARK   67  A    between atoms: CG_155  and  CD_156 
REMARK   68  A    between atoms: CD_156  and  NE_157 
REMARK       I    between atoms: NE_157  and  CZ_158 
REMARK       I    between atoms: CZ_158  and  NH1_159 
ROOT
ATOM      1  C   GLU d   9    1502.784 446.066-1519.107  0.00  0.00     0.241 C 
ATOM      2  O   GLU d   9    1503.448 446.821-1519.832  0.00  0.00    -0.271 OA
ATOM      3  N   HIS d  10    1502.881 444.791-1519.278  0.00  0.00    -0.346 N 
ATOM      4  H   HIS d  10    1502.350 444.155-1518.699  0.00  0.00     0.163 HD
ENDROOT
BRANCH   1   5
ATOM      5  CA  GLU d   9    1501.866 446.593-1518.031  0.00  0.00     0.177 C 
BRANCH   5   6
ATOM      6  N   GLU d   9    1500.563 445.936-1518.087  0.00  0.00    -0.346 N 
ATOM      7  C   ASP d   8    1499.884 445.986-1519.182  0.00  0.00     0.241 C 
ATOM      8  O   ASP d   8    1500.356 446.591-1520.156  0.00  0.00    -0.271 OA
ATOM      9  H   GLU d   9    1500.200 445.449-1517.280  0.00  0.00     0.163 HD
BRANCH   7  10
ATOM     10  CA  ASP d   8    1498.537 445.306-1519.239  0.00  0.00     0.186 C 
BRANCH  10  11
ATOM     11  N   ASP d   8    1498.608 443.956-1518.686  0.00  0.00    -0.346 N 
ATOM     12  C   LEU d   7    1499.445 443.116-1519.193  0.00  0.00     0.241 C 
ATOM     13  O   LEU d   7    1500.165 443.479-1520.135  0.00  0.00    -0.271 OA
ATOM     14  H   ASP d   8    1498.010 443.685-1517.919  0.00  0.00     0.163 HD
BRANCH  12  15
ATOM     15  CA  LEU d   7    1499.517 441.720-1518.621  0.00  0.00     0.177 C 
BRANCH  15  16
ATOM     16  N   LEU d   7    1499.572 441.756-1517.162  0.00  0.00    -0.346 N 
ATOM     17  C   ILE d   6    1500.518 442.420-1516.588  0.00  0.00     0.241 C 
ATOM     18  O   ILE d   6    1501.353 443.007-1517.292  0.00  0.00    -0.271 OA
ATOM     19  H   LEU d   7    1498.880 441.269-1516.611  0.00  0.00     0.163 HD
BRANCH  17  20
ATOM     20  CA  ILE d   6    1500.576 442.457-1515.081  0.00  0.00     0.180 C 
BRANCH  20  21
ATOM     21  N   ILE d   6    1499.263 442.752-1514.514  0.00  0.00    -0.346 N 
ATOM     22  C   SER d   5    1498.658 443.835-1514.868  0.00  0.00     0.243 C 
ATOM     23  O   SER d   5    1499.205 444.588-1515.673  0.00  0.00    -0.271 OA
ATOM     24  H   ILE d   6    1498.834 442.117-1513.855  0.00  0.00     0.163 HD
BRANCH  22  25
ATOM     25  CA  SER d   5    1497.299 444.140-1514.282  0.00  0.00     0.200 C 
BRANCH  25  26
ATOM     26  N   SER d   5    1496.430 442.969-1514.341  0.00  0.00    -0.344 N 
ATOM     27  C   GLU d   4    1496.202 442.416-1515.484  0.00  0.00     0.241 C 
ATOM     28  O   GLU d   4    1496.728 442.896-1516.498  0.00  0.00    -0.271 OA
ATOM     29  H   SER d   5    1496.013 442.597-1513.499  0.00  0.00     0.163 HD
BRANCH  27  30
ATOM     30  CA  GLU d   4    1495.303 441.205-1515.545  0.00  0.00     0.177 C 
BRANCH  30  31
ATOM     31  N   GLU d   4    1495.663 440.234-1514.516  0.00  0.00    -0.346 N 
ATOM     32  C   PRO d   3    1496.868 439.774-1514.483  0.00  0.00     0.241 C 
ATOM     33  O   PRO d   3    1497.691 440.157-1515.315  0.00  0.00    -0.271 OA
ATOM     34  H   GLU d   4    1494.979 439.927-1513.839  0.00  0.00     0.163 HD
BRANCH  32  35
ATOM     35  CA  PRO d   3    1497.266 438.750-1513.406  0.00  0.00     0.179 C 
ATOM     36  N   PRO d   3    1496.814 439.159-1512.085  0.00  0.00    -0.337 N 
ATOM     37  C   ASN d   2    1497.336 440.155-1511.451  0.00  0.00     0.243 C 
ATOM     38  CD  PRO d   3    1495.736 438.366-1511.536  0.00  0.00     0.127 C 
ATOM     39  O   ASN d   2    1498.250 440.785-1511.979  0.00  0.00    -0.271 OA
ATOM     40  CG  PRO d   3    1495.279 437.548-1512.745  0.00  0.00     0.022 C 
ATOM     41  CB  PRO d   3    1496.562 437.395-1513.576  0.00  0.00     0.037 C 
BRANCH  37  42
ATOM     42  CA  ASN d   2    1496.805 440.510-1510.082  0.00  0.00     0.185 C 
BRANCH  42  43
ATOM     43  N   ASN d   2    1495.345 440.549-1510.082  0.00  0.00    -0.346 N 
ATOM     44  C   GLU d   1    1494.741 441.335-1510.907  0.00  0.00     0.242 C 
ATOM     45  O   GLU d   1    1495.417 442.034-1511.676  0.00  0.00    -0.271 OA
ATOM     46  H   ASN d   2    1494.817 439.969-1509.446  0.00  0.00     0.163 HD
BRANCH  44  47
ATOM     47  CA  GLU d   1    1493.232 441.375-1510.907  0.00  0.00     0.191 C 
BRANCH  47  48
ATOM     48  N   GLU d   1    1492.673 440.026-1510.907  0.00  0.00    -0.326 NA
ATOM     49  H   GLU d   1    1493.300 439.147-1510.907  0.00  0.00     0.180 HD
ENDBRANCH  47  48
BRANCH  47  50
ATOM     50  CB  GLU d   1    1492.709 442.160-1509.670  0.00  0.00     0.047 C 
BRANCH  50  51
ATOM     51  CG  GLU d   1    1493.184 443.645-1509.559  0.00  0.00     0.116 C 
BRANCH  51  52
ATOM     52  CD  GLU d   1    1492.760 444.449-1508.344  0.00  0.00     0.172 C 
ATOM     53  OE1 GLU d   1    1492.032 443.947-1507.466  0.00  0.00    -0.648 OA
ATOM     54  OE2 GLU d   1    1493.190 445.619-1508.272  0.00  0.00    -0.648 OA
ENDBRANCH  51  52
ENDBRANCH  50  51
ENDBRANCH  47  50
ENDBRANCH  44  47
ENDBRANCH  42  43
BRANCH  42  55
ATOM     55  CB  ASN d   2    1497.297 439.487-1509.018  0.00  0.00     0.137 C 
BRANCH  55  56
ATOM     56  CG  ASN d   2    1496.834 439.711-1507.574  0.00  0.00     0.217 C 
ATOM     57  ND2 ASN d   2    1497.428 440.626-1506.856  0.00  0.00    -0.370 N 
ATOM     58 21HD ASN d   2    1496.947 440.799-1505.970  0.00  0.00     0.159 HD
ATOM     59 22HD ASN d   2    1498.129 441.198-1507.326  0.00  0.00     0.159 HD
ATOM     60  OD1 ASN d   2    1495.913 439.077-1507.080  0.00  0.00    -0.274 OA
ENDBRANCH  55  56
ENDBRANCH  42  55
ENDBRANCH  37  42
ENDBRANCH  32  35
ENDBRANCH  30  31
BRANCH  30  61
ATOM     61  CB  GLU d   4    1493.815 441.623-1515.375  0.00  0.00     0.045 C 
BRANCH  61  62
ATOM     62  CG  GLU d   4    1493.266 442.627-1516.440  0.00  0.00     0.116 C 
BRANCH  62  63
ATOM     63  CD  GLU d   4    1491.840 443.124-1516.296  0.00  0.00     0.172 C 
ATOM     64  OE1 GLU d   4    1491.114 442.725-1515.365  0.00  0.00    -0.648 OA
ATOM     65  OE2 GLU d   4    1491.450 443.953-1517.144  0.00  0.00    -0.648 OA
ENDBRANCH  62  63
ENDBRANCH  61  62
ENDBRANCH  30  61
ENDBRANCH  27  30
ENDBRANCH  25  26
BRANCH  25  66
ATOM     66  CB  SER d   5    1497.411 444.672-1512.832  0.00  0.00     0.199 C 
BRANCH  66  67
ATOM     67  OG  SER d   5    1498.143 443.793-1511.971  0.00  0.00    -0.398 OA
ATOM     68  HG  SER d   5    1497.654 442.968-1511.920  0.00  0.00     0.209 HD
ENDBRANCH  66  67
ENDBRANCH  25  66
ENDBRANCH  22  25
ENDBRANCH  20  21
BRANCH  20  69
ATOM     69  CB  ILE d   6    1501.175 441.121-1514.481  0.00  0.00     0.013 C 
ATOM     70  CG2 ILE d   6    1502.617 440.819-1514.996  0.00  0.00     0.012 C 
BRANCH  69  71
ATOM     71  CG1 ILE d   6    1501.195 441.058-1512.920  0.00  0.00     0.002 C 
ATOM     72  CD1 ILE d   6    1501.465 439.669-1512.305  0.00  0.00     0.005 C 
ENDBRANCH  69  71
ENDBRANCH  20  69
ENDBRANCH  17  20
ENDBRANCH  15  16
BRANCH  15  73
ATOM     73  CB  LEU d   7    1498.314 440.860-1519.101  0.00  0.00     0.038 C 
BRANCH  73  74
ATOM     74  CG  LEU d   7    1498.242 439.380-1518.635  0.00  0.00    -0.020 C 
ATOM     75  CD1 LEU d   7    1497.052 438.675-1519.300  0.00  0.00     0.009 C 
ATOM     76  CD2 LEU d   7    1499.535 438.601-1518.927  0.00  0.00     0.009 C 
ENDBRANCH  73  74
ENDBRANCH  15  73
ENDBRANCH  12  15
ENDBRANCH  10  11
BRANCH  10  77
ATOM     77  CB  ASP d   8    1497.459 446.145-1518.497  0.00  0.00     0.147 C 
BRANCH  77  78
ATOM     78  CG  ASP d   8    1497.240 447.565-1519.037  0.00  0.00     0.175 C 
ATOM     79  OD1 ASP d   8    1497.304 447.765-1520.268  0.00  0.00    -0.648 OA
ATOM     80  OD2 ASP d   8    1497.048 448.491-1518.222  0.00  0.00    -0.648 OA
ENDBRANCH  77  78
ENDBRANCH  10  77
ENDBRANCH   7  10
ENDBRANCH   5   6
BRANCH   5  81
ATOM     81  CB  GLU d   9    1502.500 446.385-1516.626  0.00  0.00     0.045 C 
BRANCH  81  82
ATOM     82  CG  GLU d   9    1503.882 447.077-1516.396  0.00  0.00     0.116 C 
BRANCH  82  83
ATOM     83  CD  GLU d   9    1504.584 446.864-1515.068  0.00  0.00     0.172 C 
ATOM     84  OE1 GLU d   9    1504.063 446.172-1514.172  0.00  0.00    -0.648 OA
ATOM     85  OE2 GLU d   9    1505.703 447.401-1514.936  0.00  0.00    -0.648 OA
ENDBRANCH  82  83
ENDBRANCH  81  82
ENDBRANCH   5  81
ENDBRANCH   1   5
BRANCH   3  86
ATOM     86  CA  HIS d  10    1503.768 444.280-1520.318  0.00  0.00     0.182 C 
BRANCH  86  87
ATOM     87  C   HIS d  10    1503.401 444.846-1521.669  0.00  0.00     0.241 C 
ATOM     88  O   HIS d  10    1504.254 445.311-1522.441  0.00  0.00    -0.271 OA
ATOM     89  N   VAL d  11    1502.163 444.845-1522.032  0.00  0.00    -0.346 N 
ATOM     90  H   VAL d  11    1501.451 444.472-1521.422  0.00  0.00     0.163 HD
BRANCH  89  91
ATOM     91  CA  VAL d  11    1501.808 445.392-1523.339  0.00  0.00     0.180 C 
BRANCH  91  92
ATOM     92  C   VAL d  11    1502.273 446.822-1523.470  0.00  0.00     0.241 C 
ATOM     93  O   VAL d  11    1502.873 447.228-1524.473  0.00  0.00    -0.271 OA
ATOM     94  N   GLN d  12    1502.036 447.647-1522.507  0.00  0.00    -0.346 N 
ATOM     95  H   GLN d  12    1501.547 447.341-1521.678  0.00  0.00     0.163 HD
BRANCH  94  96
ATOM     96  CA  GLN d  12    1502.484 449.030-1522.633  0.00  0.00     0.177 C 
BRANCH  96  97
ATOM     97  C   GLN d  12    1503.974 449.098-1522.871  0.00  0.00     0.241 C 
ATOM     98  O   GLN d  12    1504.461 449.807-1523.750  0.00  0.00    -0.271 OA
ATOM     99  N   ARG d  13    1504.759 448.391-1522.131  0.00  0.00    -0.346 N 
ATOM    100  H   ARG d  13    1504.383 447.800-1521.403  0.00  0.00     0.163 HD
BRANCH  99 101
ATOM    101  CA  ARG d  13    1506.199 448.457-1522.362  0.00  0.00     0.176 C 
BRANCH 101 102
ATOM    102  C   ARG d  13    1506.535 448.086-1523.787  0.00  0.00     0.241 C 
ATOM    103  O   ARG d  13    1507.304 448.759-1524.471  0.00  0.00    -0.271 OA
ATOM    104  N   VAL d  14    1505.999 447.032-1524.302  0.00  0.00    -0.346 N 
ATOM    105  H   VAL d  14    1505.364 446.463-1523.761  0.00  0.00     0.163 HD
BRANCH 104 106
ATOM    106  CA  VAL d  14    1506.324 446.674-1525.680  0.00  0.00     0.180 C 
BRANCH 106 107
ATOM    107  C   VAL d  14    1505.994 447.805-1526.625  0.00  0.00     0.241 C 
ATOM    108  O   VAL d  14    1506.787 448.187-1527.494  0.00  0.00    -0.271 OA
ATOM    109  N   MET d  15    1504.849 448.390-1526.523  0.00  0.00    -0.346 N 
ATOM    110  H   MET d  15    1504.184 448.097-1525.822  0.00  0.00     0.163 HD
BRANCH 109 111
ATOM    111  CA  MET d  15    1504.529 449.484-1527.436  0.00  0.00     0.177 C 
BRANCH 111 112
ATOM    112  C   MET d  15    1505.559 450.584-1527.347  0.00  0.00     0.241 C 
ATOM    113  O   MET d  15    1506.061 451.095-1528.360  0.00  0.00    -0.271 OA
ATOM    114  N   ARG d  16    1505.927 451.004-1526.185  0.00  0.00    -0.347 N 
ATOM    115  H   ARG d  16    1505.532 450.603-1525.346  0.00  0.00     0.163 HD
BRANCH 114 116
ATOM    116  CA  ARG d  16    1506.924 452.068-1526.100  0.00  0.00     0.162 C 
BRANCH 116 117
ATOM    117  C   ARG d  16    1508.194 451.675-1526.817  0.00  0.00     0.219 C 
ATOM    118  O   ARG d  16    1508.308 450.600-1527.399  0.00  0.00    -0.287 OA
ENDBRANCH 116 117
BRANCH 116 119
ATOM    119  CB  ARG d  16    1507.193 452.385-1524.602  0.00  0.00     0.035 C 
BRANCH 119 120
ATOM    120  CG  ARG d  16    1508.018 453.674-1524.328  0.00  0.00     0.023 C 
BRANCH 120 121
ATOM    121  CD  ARG d  16    1508.268 453.892-1522.827  0.00  0.00     0.138 C 
BRANCH 121 122
ATOM    122  NE  ARG d  16    1509.044 455.151-1522.625  0.00  0.00    -0.227 N 
ATOM    123  CZ  ARG d  16    1509.435 455.633-1521.449  0.00  0.00     0.665 C 
ATOM    124  NH1 ARG d  16    1509.187 455.047-1520.311  0.00  0.00    -0.235 N 
ATOM    125  NH2 ARG d  16    1510.099 456.745-1521.430  0.00  0.00    -0.235 N 
ATOM    126 11HH ARG d  16    1508.662 454.174-1520.396  0.00  0.00     0.174 HD
ATOM    127 12HH ARG d  16    1509.522 455.482-1519.449  0.00  0.00     0.174 HD
ATOM    128 21HH ARG d  16    1510.284 457.189-1522.331  0.00  0.00     0.174 HD
ATOM    129 22HH ARG d  16    1510.389 457.100-1520.517  0.00  0.00     0.174 HD
ATOM    130  HE  ARG d  16    1509.322 455.732-1523.422  0.00  0.00     0.177 HD
ENDBRANCH 121 122
ENDBRANCH 120 121
ENDBRANCH 119 120
ENDBRANCH 116 119
ENDBRANCH 114 116
ENDBRANCH 111 112
BRANCH 111 131
ATOM    131  CB  MET d  15    1503.107 450.029-1527.127  0.00  0.00     0.045 C 
BRANCH 131 132
ATOM    132  CG  MET d  15    1501.945 449.031-1527.319  0.00  0.00     0.076 C 
BRANCH 132 133
ATOM    133  SD  MET d  15    1500.371 449.897-1527.205  0.00  0.00    -0.173 SA
ATOM    134  CE  MET d  15    1499.290 448.467-1527.069  0.00  0.00     0.089 C 
ENDBRANCH 132 133
ENDBRANCH 131 132
ENDBRANCH 111 131
ENDBRANCH 109 111
ENDBRANCH 106 107
BRANCH 106 135
ATOM    135  CB  VAL d  14    1505.551 445.357-1526.088  0.00  0.00     0.009 C 
ATOM    136  CG1 VAL d  14    1505.640 444.940-1527.582  0.00  0.00     0.012 C 
ATOM    137  CG2 VAL d  14    1505.983 444.104-1525.289  0.00  0.00     0.012 C 
ENDBRANCH 106 135
ENDBRANCH 104 106
ENDBRANCH 101 102
BRANCH 101 138
ATOM    138  CB  ARG d  13    1506.912 447.517-1521.349  0.00  0.00     0.036 C 
BRANCH 138 139
ATOM    139  CG  ARG d  13    1508.457 447.670-1521.268  0.00  0.00     0.023 C 
BRANCH 139 140
ATOM    140  CD  ARG d  13    1509.084 446.682-1520.271  0.00  0.00     0.138 C 
BRANCH 140 141
ATOM    141  NE  ARG d  13    1510.562 446.889-1520.220  0.00  0.00    -0.227 N 
ATOM    142  CZ  ARG d  13    1511.410 446.197-1519.466  0.00  0.00     0.665 C 
ATOM    143  NH1 ARG d  13    1511.045 445.232-1518.669  0.00  0.00    -0.235 N 
ATOM    144  NH2 ARG d  13    1512.669 446.496-1519.522  0.00  0.00    -0.235 N 
ATOM    145 11HH ARG d  13    1510.039 445.046-1518.672  0.00  0.00     0.174 HD
ATOM    146 12HH ARG d  13    1511.758 444.749-1518.121  0.00  0.00     0.174 HD
ATOM    147 21HH ARG d  13    1512.937 447.254-1520.153  0.00  0.00     0.174 HD
ATOM    148 22HH ARG d  13    1513.304 445.954-1518.934  0.00  0.00     0.174 HD
ATOM    149  HE  ARG d  13    1511.013 447.612-1520.790  0.00  0.00     0.177 HD
ENDBRANCH 140 141
ENDBRANCH 139 140
ENDBRANCH 138 139
ENDBRANCH 101 138
ENDBRANCH  99 101
ENDBRANCH  96  97
BRANCH  96 150
ATOM    150  CB  GLN d  12    1502.093 449.797-1521.350  0.00  0.00     0.044 C 
BRANCH 150 151
ATOM    151  CG  GLN d  12    1502.453 451.319-1521.318  0.00  0.00     0.105 C 
BRANCH 151 152
ATOM    152  CD  GLN d  12    1502.151 452.131-1520.052  0.00  0.00     0.215 C 
ATOM    153  NE2 GLN d  12    1501.584 451.554-1519.024  0.00  0.00    -0.370 N 
ATOM    154 21HE GLN d  12    1501.477 452.148-1518.200  0.00  0.00     0.159 HD
ATOM    155 22HE GLN d  12    1501.421 450.551-1519.128  0.00  0.00     0.159 HD
ATOM    156  OE1 GLN d  12    1502.453 453.312-1519.974  0.00  0.00    -0.274 OA
ENDBRANCH 151 152
ENDBRANCH 150 151
ENDBRANCH  96 150
ENDBRANCH  94  96
ENDBRANCH  91  92
BRANCH  91 157
ATOM    157  CB  VAL d  11    1500.247 445.285-1523.558  0.00  0.00     0.009 C 
ATOM    158  CG1 VAL d  11    1499.678 445.990-1524.820  0.00  0.00     0.012 C 
ATOM    159  CG2 VAL d  11    1499.722 443.831-1523.632  0.00  0.00     0.012 C 
ENDBRANCH  91 157
ENDBRANCH  89  91
ENDBRANCH  86  87
BRANCH  86 160
ATOM    160  CB  HIS d  10    1503.604 442.751-1520.315  0.00  0.00     0.095 C 
BRANCH 160 161
ATOM    161  CG  HIS d  10    1504.890 442.041-1520.007  0.00  0.00     0.053 A 
ATOM    162  CD2 HIS d  10    1505.271 441.705-1518.715  0.00  0.00     0.116 A 
ATOM    163  NE2 HIS d  10    1506.486 441.073-1518.782  0.00  0.00    -0.359 N 
ATOM    164  CE1 HIS d  10    1506.748 441.077-1520.117  0.00  0.00     0.207 A 
ATOM    165  2HE HIS d  10    1507.052 440.695-1518.009  0.00  0.00     0.166 HD
ATOM    166  ND1 HIS d  10    1505.842 441.636-1520.940  0.00  0.00    -0.247 NA
ENDBRANCH 160 161
ENDBRANCH  86 160
ENDBRANCH   3  86
TORSDOF 68
