REMARK WARNING: 32 MAX_TORS EXCEEDED!!!
REMARK  68 active torsions:
REMARK  status: ('A' for Active; 'I' for Inactive)
REMARK    1  A    between atoms: N_1  and  CA_2 
REMARK    2  A    between atoms: CA_2  and  C_3 
REMARK    3  A    between atoms: CA_2  and  CB_5 
REMARK       I    between atoms: C_3  and  N_11 
REMARK    4  A    between atoms: CB_5  and  CG_6 
REMARK    5  A    between atoms: CG_6  and  CD_7 
REMARK    6  A    between atoms: N_11  and  CA_12 
REMARK    7  A    between atoms: CA_12  and  C_13 
REMARK    8  A    between atoms: CA_12  and  CB_15 
REMARK       I    between atoms: C_13  and  N_22 
REMARK    9  A    between atoms: CB_15  and  CG_16 
REMARK       I    between atoms: CG_16  and  ND2_17 
REMARK   10  A    between atoms: CA_23  and  C_24 
REMARK       I    between atoms: C_24  and  N_29 
REMARK   11  A    between atoms: N_29  and  CA_30 
REMARK   12  A    between atoms: CA_30  and  C_31 
REMARK   13  A    between atoms: CA_30  and  CB_33 
REMARK       I    between atoms: C_31  and  N_43 
REMARK   14  A    between atoms: CB_33  and  CG_34 
REMARK   15  A    between atoms: CZ_39  and  OH_40 
REMARK   16  A    between atoms: N_43  and  CA_44 
REMARK   17  A    between atoms: CA_44  and  C_45 
REMARK   18  A    between atoms: CA_44  and  CB_47 
REMARK       I    between atoms: C_45  and  N_51 
REMARK   19  A    between atoms: CB_47  and  OG_48 
REMARK   20  A    between atoms: N_51  and  CA_52 
REMARK   21  A    between atoms: CA_52  and  C_53 
REMARK   22  A    between atoms: CA_52  and  CB_55 
REMARK       I    between atoms: C_53  and  N_60 
REMARK   23  A    between atoms: CB_55  and  CG1_56 
REMARK   24  A    between atoms: N_60  and  CA_61 
REMARK   25  A    between atoms: CA_61  and  C_62 
REMARK   26  A    between atoms: CA_61  and  CB_64 
REMARK       I    between atoms: C_62  and  N_69 
REMARK   27  A    between atoms: CB_64  and  CG_65 
REMARK   28  A    between atoms: N_69  and  CA_70 
REMARK   29  A    between atoms: CA_70  and  C_71 
REMARK   30  A    between atoms: CA_70  and  CB_73 
REMARK       I    between atoms: C_71  and  N_78 
REMARK   31  A    between atoms: CB_73  and  CG_74 
REMARK   32  A    between atoms: N_78  and  CA_79 
REMARK   33  A    between atoms: CA_79  and  C_80 
REMARK   34  A    between atoms: CA_79  and  CB_82 
REMARK       I    between atoms: C_80  and  N_88 
REMARK   35  A    between atoms: CB_82  and  CG_83 
REMARK   36  A    between atoms: CG_83  and  CD_84 
REMARK   37  A    between atoms: N_88  and  CA_89 
REMARK   38  A    between atoms: CA_89  and  C_90 
REMARK   39  A    between atoms: CA_89  and  CB_92 
REMARK       I    between atoms: C_90  and  N_100 
REMARK   40  A    between atoms: CB_92  and  CG_93 
REMARK   41  A    between atoms: N_100  and  CA_101 
REMARK   42  A    between atoms: CA_101  and  C_102 
REMARK   43  A    between atoms: CA_101  and  CB_104 
REMARK       I    between atoms: C_102  and  N_108 
REMARK   44  A    between atoms: N_108  and  CA_109 
REMARK   45  A    between atoms: CA_109  and  C_110 
REMARK   46  A    between atoms: CA_109  and  CB_112 
REMARK       I    between atoms: C_110  and  N_120 
REMARK   47  A    between atoms: CB_112  and  CG_113 
REMARK   48  A    between atoms: CG_113  and  CD_114 
REMARK       I    between atoms: CD_114  and  NE2_115 
REMARK   49  A    between atoms: N_120  and  CA_121 
REMARK   50  A    between atoms: CA_121  and  C_122 
REMARK   51  A    between atoms: CA_121  and  CB_124 
REMARK       I    between atoms: C_122  and  N_137 
REMARK   52  A    between atoms: CB_124  and  CG_125 
REMARK   53  A    between atoms: CG_125  and  CD_126 
REMARK   54  A    between atoms: CD_126  and  NE_127 
REMARK       I    between atoms: NE_127  and  CZ_128 
REMARK       I    between atoms: CZ_128  and  NH1_129 
REMARK       I    between atoms: CZ_128  and  NH2_130 
REMARK   55  A    between atoms: N_137  and  CA_138 
REMARK   56  A    between atoms: CA_138  and  C_139 
REMARK   57  A    between atoms: CA_138  and  CB_141 
REMARK       I    between atoms: C_139  and  N_145 
REMARK   58  A    between atoms: N_145  and  CA_146 
REMARK   59  A    between atoms: CA_146  and  C_147 
REMARK   60  A    between atoms: CA_146  and  CB_149 
REMARK       I    between atoms: C_147  and  N_154 
REMARK   61  A    between atoms: CB_149  and  CG_150 
REMARK   62  A    between atoms: CG_150  and  SD_151 
REMARK   63  A    between atoms: N_154  and  CA_155 
REMARK   64  A    between atoms: CA_155  and  C_156 
REMARK   65  A    between atoms: CA_155  and  CB_158 
REMARK   66  A    between atoms: CB_158  and  CG_159 
REMARK   67  A    between atoms: CG_159  and  CD_160 
REMARK   68  A    between atoms: CD_160  and  NE_161 
REMARK       I    between atoms: NE_161  and  CZ_162 
REMARK       I    between atoms: CZ_162  and  NH1_163 
ROOT
ATOM      1  CA  GLU d   9     607.582 152.601-551.280  0.00  0.00     0.177 C 
ENDROOT
BRANCH   1   2
ATOM      2  N   GLU d   9     606.279 151.943-551.336  0.00  0.00    -0.346 N 
ATOM      3  C   ASP d   8     605.599 151.992-552.431  0.00  0.00     0.241 C 
ATOM      4  O   ASP d   8     606.072 152.598-553.406  0.00  0.00    -0.271 OA
ATOM      5  H   GLU d   9     605.916 151.456-550.529  0.00  0.00     0.163 HD
BRANCH   3   6
ATOM      6  CA  ASP d   8     604.253 151.312-552.489  0.00  0.00     0.186 C 
BRANCH   6   7
ATOM      7  N   ASP d   8     604.324 149.963-551.936  0.00  0.00    -0.346 N 
ATOM      8  C   LEU d   7     605.161 149.122-552.442  0.00  0.00     0.241 C 
ATOM      9  O   LEU d   7     605.882 149.485-553.384  0.00  0.00    -0.271 OA
ATOM     10  H   ASP d   8     603.726 149.691-551.168  0.00  0.00     0.163 HD
BRANCH   8  11
ATOM     11  CA  LEU d   7     605.234 147.727-551.870  0.00  0.00     0.177 C 
BRANCH  11  12
ATOM     12  N   LEU d   7     605.289 147.763-550.411  0.00  0.00    -0.346 N 
ATOM     13  C   ILE d   6     606.234 148.427-549.837  0.00  0.00     0.241 C 
ATOM     14  O   ILE d   6     607.069 149.015-550.541  0.00  0.00    -0.271 OA
ATOM     15  H   LEU d   7     604.597 147.276-549.860  0.00  0.00     0.163 HD
BRANCH  13  16
ATOM     16  CA  ILE d   6     606.291 148.464-548.330  0.00  0.00     0.180 C 
BRANCH  16  17
ATOM     17  N   ILE d   6     604.978 148.759-547.763  0.00  0.00    -0.346 N 
ATOM     18  C   SER d   5     604.373 149.842-548.117  0.00  0.00     0.243 C 
ATOM     19  O   SER d   5     604.920 150.595-548.922  0.00  0.00    -0.271 OA
ATOM     20  H   ILE d   6     604.550 148.124-547.104  0.00  0.00     0.163 HD
BRANCH  18  21
ATOM     21  CA  SER d   5     603.014 150.147-547.532  0.00  0.00     0.200 C 
BRANCH  21  22
ATOM     22  N   SER d   5     602.145 148.976-547.591  0.00  0.00    -0.344 N 
ATOM     23  C   TYR d   4     601.918 148.423-548.734  0.00  0.00     0.241 C 
ATOM     24  O   TYR d   4     602.442 148.900-549.744  0.00  0.00    -0.271 OA
ATOM     25  H   SER d   5     601.728 148.604-546.749  0.00  0.00     0.163 HD
BRANCH  23  26
ATOM     26  CA  TYR d   4     601.019 147.212-548.795  0.00  0.00     0.180 C 
BRANCH  26  27
ATOM     27  N   TYR d   4     601.378 146.241-547.765  0.00  0.00    -0.346 N 
ATOM     28  C   PRO d   3     602.583 145.781-547.733  0.00  0.00     0.241 C 
ATOM     29  O   PRO d   3     603.407 146.164-548.564  0.00  0.00    -0.271 OA
ATOM     30  H   TYR d   4     600.694 145.934-547.089  0.00  0.00     0.163 HD
BRANCH  28  31
ATOM     31  CA  PRO d   3     602.981 144.758-546.656  0.00  0.00     0.179 C 
ATOM     32  N   PRO d   3     602.530 145.167-545.335  0.00  0.00    -0.337 N 
ATOM     33  C   ASN d   2     603.051 146.162-544.701  0.00  0.00     0.243 C 
ATOM     34  CD  PRO d   3     601.452 144.374-544.786  0.00  0.00     0.127 C 
ATOM     35  O   ASN d   2     603.966 146.793-545.229  0.00  0.00    -0.271 OA
ATOM     36  CG  PRO d   3     600.994 143.555-545.995  0.00  0.00     0.022 C 
ATOM     37  CB  PRO d   3     602.278 143.403-546.826  0.00  0.00     0.037 C 
BRANCH  33  38
ATOM     38  CA  ASN d   2     602.520 146.517-543.332  0.00  0.00     0.185 C 
BRANCH  38  39
ATOM     39  N   ASN d   2     601.060 146.556-543.332  0.00  0.00    -0.346 N 
ATOM     40  C   GLU d   1     600.456 147.342-544.157  0.00  0.00     0.242 C 
ATOM     41  O   GLU d   1     601.132 148.041-544.926  0.00  0.00    -0.271 OA
ATOM     42  H   ASN d   2     600.532 145.976-542.695  0.00  0.00     0.163 HD
BRANCH  40  43
ATOM     43  CA  GLU d   1     598.947 147.382-544.157  0.00  0.00     0.191 C 
BRANCH  43  44
ATOM     44  N   GLU d   1     598.388 146.033-544.157  0.00  0.00    -0.326 NA
ATOM     45  H   GLU d   1     599.015 145.154-544.157  0.00  0.00     0.180 HD
ENDBRANCH  43  44
BRANCH  43  46
ATOM     46  CB  GLU d   1     598.424 148.167-542.920  0.00  0.00     0.047 C 
BRANCH  46  47
ATOM     47  CG  GLU d   1     598.899 149.652-542.809  0.00  0.00     0.116 C 
BRANCH  47  48
ATOM     48  CD  GLU d   1     598.475 150.456-541.594  0.00  0.00     0.172 C 
ATOM     49  OE1 GLU d   1     597.747 149.954-540.716  0.00  0.00    -0.648 OA
ATOM     50  OE2 GLU d   1     598.905 151.626-541.522  0.00  0.00    -0.648 OA
ENDBRANCH  47  48
ENDBRANCH  46  47
ENDBRANCH  43  46
ENDBRANCH  40  43
ENDBRANCH  38  39
BRANCH  38  51
ATOM     51  CB  ASN d   2     603.012 145.494-542.268  0.00  0.00     0.137 C 
BRANCH  51  52
ATOM     52  CG  ASN d   2     602.549 145.718-540.824  0.00  0.00     0.217 C 
ATOM     53  ND2 ASN d   2     603.143 146.633-540.106  0.00  0.00    -0.370 N 
ATOM     54 21HD ASN d   2     602.662 146.806-539.219  0.00  0.00     0.159 HD
ATOM     55 22HD ASN d   2     603.845 147.205-540.575  0.00  0.00     0.159 HD
ATOM     56  OD1 ASN d   2     601.628 145.084-540.330  0.00  0.00    -0.274 OA
ENDBRANCH  51  52
ENDBRANCH  38  51
ENDBRANCH  33  38
ENDBRANCH  28  31
ENDBRANCH  26  27
BRANCH  26  57
ATOM     57  CB  TYR d   4     599.550 147.694-548.615  0.00  0.00     0.073 C 
BRANCH  57  58
ATOM     58  CG  TYR d   4     598.455 146.627-548.729  0.00  0.00    -0.056 A 
ATOM     59  CD1 TYR d   4     598.044 146.159-549.981  0.00  0.00     0.010 A 
ATOM     60  CE1 TYR d   4     597.060 145.178-550.070  0.00  0.00     0.037 A 
ATOM     61  CZ  TYR d   4     596.481 144.663-548.913  0.00  0.00     0.065 A 
ATOM     62  CE2 TYR d   4     596.885 145.127-547.663  0.00  0.00     0.037 A 
ATOM     63  CD2 TYR d   4     597.869 146.107-547.571  0.00  0.00     0.010 A 
BRANCH  61  64
ATOM     64  OH  TYR d   4     595.518 143.699-549.006  0.00  0.00    -0.361 OA
ATOM     65  HH  TYR d   4     595.238 143.463-548.119  0.00  0.00     0.217 HD
ENDBRANCH  61  64
ENDBRANCH  57  58
ENDBRANCH  26  57
ENDBRANCH  23  26
ENDBRANCH  21  22
BRANCH  21  66
ATOM     66  CB  SER d   5     603.126 150.679-546.081  0.00  0.00     0.199 C 
BRANCH  66  67
ATOM     67  OG  SER d   5     603.857 149.800-545.220  0.00  0.00    -0.398 OA
ATOM     68  HG  SER d   5     603.369 148.975-545.170  0.00  0.00     0.209 HD
ENDBRANCH  66  67
ENDBRANCH  21  66
ENDBRANCH  18  21
ENDBRANCH  16  17
BRANCH  16  69
ATOM     69  CB  ILE d   6     606.891 147.128-547.729  0.00  0.00     0.013 C 
ATOM     70  CG2 ILE d   6     608.333 146.827-548.245  0.00  0.00     0.012 C 
BRANCH  69  71
ATOM     71  CG1 ILE d   6     606.911 147.066-546.168  0.00  0.00     0.002 C 
ATOM     72  CD1 ILE d   6     607.181 145.677-545.554  0.00  0.00     0.005 C 
ENDBRANCH  69  71
ENDBRANCH  16  69
ENDBRANCH  13  16
ENDBRANCH  11  12
BRANCH  11  73
ATOM     73  CB  LEU d   7     604.031 146.866-552.350  0.00  0.00     0.038 C 
BRANCH  73  74
ATOM     74  CG  LEU d   7     603.958 145.387-551.884  0.00  0.00    -0.020 C 
ATOM     75  CD1 LEU d   7     602.769 144.681-552.550  0.00  0.00     0.009 C 
ATOM     76  CD2 LEU d   7     605.252 144.608-552.175  0.00  0.00     0.009 C 
ENDBRANCH  73  74
ENDBRANCH  11  73
ENDBRANCH   8  11
ENDBRANCH   6   7
BRANCH   6  77
ATOM     77  CB  ASP d   8     603.175 152.151-551.747  0.00  0.00     0.147 C 
BRANCH  77  78
ATOM     78  CG  ASP d   8     602.955 153.572-552.288  0.00  0.00     0.175 C 
ATOM     79  OD1 ASP d   8     603.020 153.771-553.518  0.00  0.00    -0.648 OA
ATOM     80  OD2 ASP d   8     602.763 154.497-551.472  0.00  0.00    -0.648 OA
ENDBRANCH  77  78
ENDBRANCH   6  77
ENDBRANCH   3   6
ENDBRANCH   1   2
BRANCH   1  81
ATOM     81  C   GLU d   9     608.500 152.073-552.356  0.00  0.00     0.241 C 
ATOM     82  O   GLU d   9     609.164 152.828-553.081  0.00  0.00    -0.271 OA
ATOM     83  N   HIS d  10     608.597 150.798-552.526  0.00  0.00    -0.346 N 
ATOM     84  H   HIS d  10     608.066 150.163-551.948  0.00  0.00     0.163 HD
BRANCH  83  85
ATOM     85  CA  HIS d  10     609.485 150.287-553.566  0.00  0.00     0.182 C 
BRANCH  85  86
ATOM     86  C   HIS d  10     609.118 150.852-554.917  0.00  0.00     0.241 C 
ATOM     87  O   HIS d  10     609.971 151.317-555.689  0.00  0.00    -0.271 OA
ATOM     88  N   VAL d  11     607.881 150.851-555.280  0.00  0.00    -0.346 N 
ATOM     89  H   VAL d  11     607.168 150.477-554.670  0.00  0.00     0.163 HD
BRANCH  88  90
ATOM     90  CA  VAL d  11     607.526 151.397-556.587  0.00  0.00     0.180 C 
BRANCH  90  91
ATOM     91  C   VAL d  11     607.990 152.827-556.719  0.00  0.00     0.241 C 
ATOM     92  O   VAL d  11     608.591 153.233-557.722  0.00  0.00    -0.271 OA
ATOM     93  N   GLN d  12     607.752 153.653-555.757  0.00  0.00    -0.346 N 
ATOM     94  H   GLN d  12     607.263 153.347-554.928  0.00  0.00     0.163 HD
BRANCH  93  95
ATOM     95  CA  GLN d  12     608.200 155.036-555.884  0.00  0.00     0.177 C 
BRANCH  95  96
ATOM     96  C   GLN d  12     609.690 155.104-556.121  0.00  0.00     0.241 C 
ATOM     97  O   GLN d  12     610.177 155.813-557.000  0.00  0.00    -0.271 OA
ATOM     98  N   ARG d  13     610.475 154.397-555.381  0.00  0.00    -0.346 N 
ATOM     99  H   ARG d  13     610.099 153.807-554.652  0.00  0.00     0.163 HD
BRANCH  98 100
ATOM    100  CA  ARG d  13     611.915 154.464-555.611  0.00  0.00     0.176 C 
BRANCH 100 101
ATOM    101  C   ARG d  13     612.252 154.093-557.036  0.00  0.00     0.241 C 
ATOM    102  O   ARG d  13     613.020 154.765-557.720  0.00  0.00    -0.271 OA
ATOM    103  N   VAL d  14     611.716 153.038-557.551  0.00  0.00    -0.346 N 
ATOM    104  H   VAL d  14     611.081 152.469-557.009  0.00  0.00     0.163 HD
BRANCH 103 105
ATOM    105  CA  VAL d  14     612.041 152.679-558.928  0.00  0.00     0.180 C 
BRANCH 105 106
ATOM    106  C   VAL d  14     611.711 153.809-559.874  0.00  0.00     0.241 C 
ATOM    107  O   VAL d  14     612.504 154.191-560.743  0.00  0.00    -0.271 OA
ATOM    108  N   MET d  15     610.566 154.395-559.772  0.00  0.00    -0.346 N 
ATOM    109  H   MET d  15     609.901 154.101-559.070  0.00  0.00     0.163 HD
BRANCH 108 110
ATOM    110  CA  MET d  15     610.245 155.488-560.685  0.00  0.00     0.177 C 
BRANCH 110 111
ATOM    111  C   MET d  15     611.275 156.588-560.597  0.00  0.00     0.241 C 
ATOM    112  O   MET d  15     611.777 157.099-561.610  0.00  0.00    -0.271 OA
ATOM    113  N   ARG d  16     611.643 157.009-559.435  0.00  0.00    -0.347 N 
ATOM    114  H   ARG d  16     611.249 156.608-558.596  0.00  0.00     0.163 HD
BRANCH 113 115
ATOM    115  CA  ARG d  16     612.639 158.073-559.351  0.00  0.00     0.162 C 
BRANCH 115 116
ATOM    116  C   ARG d  16     613.910 157.681-560.067  0.00  0.00     0.219 C 
ATOM    117  O   ARG d  16     614.024 156.605-560.649  0.00  0.00    -0.287 OA
ENDBRANCH 115 116
BRANCH 115 118
ATOM    118  CB  ARG d  16     612.908 158.391-557.852  0.00  0.00     0.035 C 
BRANCH 118 119
ATOM    119  CG  ARG d  16     613.733 159.680-557.579  0.00  0.00     0.023 C 
BRANCH 119 120
ATOM    120  CD  ARG d  16     613.982 159.899-556.078  0.00  0.00     0.138 C 
BRANCH 120 121
ATOM    121  NE  ARG d  16     614.758 161.158-555.876  0.00  0.00    -0.227 N 
ATOM    122  CZ  ARG d  16     615.149 161.640-554.701  0.00  0.00     0.665 C 
ATOM    123  NH1 ARG d  16     614.901 161.055-553.562  0.00  0.00    -0.235 N 
ATOM    124  NH2 ARG d  16     615.812 162.753-554.682  0.00  0.00    -0.235 N 
ATOM    125 11HH ARG d  16     614.376 160.182-553.647  0.00  0.00     0.174 HD
ATOM    126 12HH ARG d  16     615.236 161.491-552.701  0.00  0.00     0.174 HD
ATOM    127 21HH ARG d  16     615.997 163.197-555.584  0.00  0.00     0.174 HD
ATOM    128 22HH ARG d  16     616.102 163.108-553.769  0.00  0.00     0.174 HD
ATOM    129  HE  ARG d  16     615.036 161.739-556.673  0.00  0.00     0.177 HD
ENDBRANCH 120 121
ENDBRANCH 119 120
ENDBRANCH 118 119
ENDBRANCH 115 118
ENDBRANCH 113 115
ENDBRANCH 110 111
BRANCH 110 130
ATOM    130  CB  MET d  15     608.823 156.033-560.376  0.00  0.00     0.045 C 
BRANCH 130 131
ATOM    131  CG  MET d  15     607.661 155.034-560.568  0.00  0.00     0.076 C 
BRANCH 131 132
ATOM    132  SD  MET d  15     606.087 155.899-560.454  0.00  0.00    -0.173 SA
ATOM    133  CE  MET d  15     605.007 154.469-560.318  0.00  0.00     0.089 C 
ENDBRANCH 131 132
ENDBRANCH 130 131
ENDBRANCH 110 130
ENDBRANCH 108 110
ENDBRANCH 105 106
BRANCH 105 134
ATOM    134  CB  VAL d  14     611.269 151.362-559.336  0.00  0.00     0.009 C 
ATOM    135  CG1 VAL d  14     611.358 150.944-560.829  0.00  0.00     0.012 C 
ATOM    136  CG2 VAL d  14     611.701 150.110-558.536  0.00  0.00     0.012 C 
ENDBRANCH 105 134
ENDBRANCH 103 105
ENDBRANCH 100 101
BRANCH 100 137
ATOM    137  CB  ARG d  13     612.629 153.525-554.597  0.00  0.00     0.036 C 
BRANCH 137 138
ATOM    138  CG  ARG d  13     614.174 153.678-554.516  0.00  0.00     0.023 C 
BRANCH 138 139
ATOM    139  CD  ARG d  13     614.801 152.690-553.519  0.00  0.00     0.138 C 
BRANCH 139 140
ATOM    140  NE  ARG d  13     616.278 152.898-553.468  0.00  0.00    -0.227 N 
ATOM    141  CZ  ARG d  13     617.126 152.206-552.713  0.00  0.00     0.665 C 
ATOM    142  NH1 ARG d  13     616.761 151.242-551.916  0.00  0.00    -0.235 N 
ATOM    143  NH2 ARG d  13     618.385 152.506-552.769  0.00  0.00    -0.235 N 
ATOM    144 11HH ARG d  13     615.756 151.055-551.919  0.00  0.00     0.174 HD
ATOM    145 12HH ARG d  13     617.474 150.759-551.367  0.00  0.00     0.174 HD
ATOM    146 21HH ARG d  13     618.653 153.264-553.400  0.00  0.00     0.174 HD
ATOM    147 22HH ARG d  13     619.021 151.965-552.181  0.00  0.00     0.174 HD
ATOM    148  HE  ARG d  13     616.729 153.621-554.038  0.00  0.00     0.177 HD
ENDBRANCH 139 140
ENDBRANCH 138 139
ENDBRANCH 137 138
ENDBRANCH 100 137
ENDBRANCH  98 100
ENDBRANCH  95  96
BRANCH  95 149
ATOM    149  CB  GLN d  12     607.809 155.803-554.601  0.00  0.00     0.044 C 
BRANCH 149 150
ATOM    150  CG  GLN d  12     608.169 157.325-554.570  0.00  0.00     0.105 C 
BRANCH 150 151
ATOM    151  CD  GLN d  12     607.866 158.138-553.305  0.00  0.00     0.215 C 
ATOM    152  NE2 GLN d  12     607.299 157.562-552.276  0.00  0.00    -0.370 N 
ATOM    153 21HE GLN d  12     607.191 158.156-551.453  0.00  0.00     0.159 HD
ATOM    154 22HE GLN d  12     607.135 156.558-552.380  0.00  0.00     0.159 HD
ATOM    155  OE1 GLN d  12     608.167 159.319-553.227  0.00  0.00    -0.274 OA
ENDBRANCH 150 151
ENDBRANCH 149 150
ENDBRANCH  95 149
ENDBRANCH  93  95
ENDBRANCH  90  91
BRANCH  90 156
ATOM    156  CB  VAL d  11     605.964 151.290-556.807  0.00  0.00     0.009 C 
ATOM    157  CG1 VAL d  11     605.396 151.993-558.070  0.00  0.00     0.012 C 
ATOM    158  CG2 VAL d  11     605.440 149.835-556.880  0.00  0.00     0.012 C 
ENDBRANCH  90 156
ENDBRANCH  88  90
ENDBRANCH  85  86
BRANCH  85 159
ATOM    159  CB  HIS d  10     609.322 148.758-553.561  0.00  0.00     0.095 C 
BRANCH 159 160
ATOM    160  CG  HIS d  10     610.608 148.049-553.253  0.00  0.00     0.053 A 
ATOM    161  CD2 HIS d  10     610.988 147.713-551.961  0.00  0.00     0.116 A 
ATOM    162  NE2 HIS d  10     612.203 147.082-552.027  0.00  0.00    -0.359 N 
ATOM    163  CE1 HIS d  10     612.466 147.085-553.362  0.00  0.00     0.207 A 
ATOM    164  2HE HIS d  10     612.770 146.705-551.254  0.00  0.00     0.166 HD
ATOM    165  ND1 HIS d  10     611.560 147.643-554.186  0.00  0.00    -0.247 NA
ENDBRANCH 159 160
ENDBRANCH  85 159
ENDBRANCH  83  85
ENDBRANCH   1  81
BRANCH   1 166
ATOM    166  CB  GLU d   9     608.215 152.393-549.875  0.00  0.00     0.045 C 
BRANCH 166 167
ATOM    167  CG  GLU d   9     609.597 153.086-549.645  0.00  0.00     0.116 C 
BRANCH 167 168
ATOM    168  CD  GLU d   9     610.299 152.872-548.317  0.00  0.00     0.172 C 
ATOM    169  OE1 GLU d   9     609.778 152.181-547.421  0.00  0.00    -0.648 OA
ATOM    170  OE2 GLU d   9     611.418 153.410-548.185  0.00  0.00    -0.648 OA
ENDBRANCH 167 168
ENDBRANCH 166 167
ENDBRANCH   1 166
TORSDOF 68
