@<TRIPOS>MOLECULE
7-8
266 268 16              
SMALL
USER_CHARGES
@<TRIPOS>ATOM
1	   N	1082.608	304.922	-1067.046	N.3	1	GLU1	-0.516	
2	  CA	1083.167	306.271	-1067.046	C.3	1	GLU1	0.040	
3	   C	1084.676	306.231	-1067.046	C.2	1	GLU1	0.537	
4	   O	1085.352	306.930	-1067.814	O.2	1	GLU1	-0.582	
5	  CB	1082.644	307.056	-1065.809	C.3	1	GLU1	0.056	
6	  CG	1083.119	308.541	-1065.698	C.3	1	GLU1	0.014	
7	  CD	1082.695	309.345	-1064.483	C.2	1	GLU1	0.805	
8	 OE1	1081.967	308.843	-1063.605	O.co2	1	GLU1	-0.819	
9	 OE2	1083.125	310.515	-1064.411	O.co2	1	GLU1	-0.819	
10	   H	1083.235	304.043	-1067.046	 H	1	GLU1	0.294	
11	  HA	1082.841	306.789	-1067.966	 H	1	GLU1	0.111	
12	 2HB	1082.933	306.525	-1064.879	 H	1	GLU1	-0.017	
13	 3HB	1081.537	307.046	-1065.796	 H	1	GLU1	-0.017	
14	 2HG	1082.809	309.126	-1066.579	 H	1	GLU1	-0.043	
15	 3HG	1084.219	308.608	-1065.669	 H	1	GLU1	-0.043	
16	   N	1085.281	305.445	-1066.221	N.am	2	ASN2	-0.416	
17	  CA	1086.740	305.407	-1066.221	C.3	2	ASN2	0.014	
18	   C	1087.271	305.051	-1067.589	C.2	2	ASN2	0.597	
19	   O	1088.186	305.681	-1068.118	O.2	2	ASN2	-0.568	
20	  CB	1087.232	304.384	-1065.156	C.3	2	ASN2	-0.204	
21	  CG	1086.769	304.607	-1063.713	C.2	2	ASN2	0.713	
22	 ND2	1087.363	305.522	-1062.995	N.pl3	2	ASN2	-0.919	
23	 OD1	1085.849	303.974	-1063.219	O.2	2	ASN2	-0.593	
24	   H	1084.753	304.866	-1065.584	 H	2	ASN2	0.272	
25	  HA	1087.117	306.417	-1065.975	 H	2	ASN2	0.105	
26	 2HB	1088.337	304.325	-1065.160	 H	2	ASN2	0.080	
27	 3HB	1086.903	303.365	-1065.442	 H	2	ASN2	0.080	
28	1HD2	1086.883	305.695	-1062.108	 H	2	ASN2	0.420	
29	2HD2	1088.065	306.094	-1063.464	 H	2	ASN2	0.420	
30	   N	1086.750	304.056	-1068.224	N.am	3	PRO3	-0.255	
31	  CA	1087.202	303.647	-1069.545	C.3	3	PRO3	-0.027	
32	   C	1086.803	304.670	-1070.622	C.2	3	PRO3	0.590	
33	   O	1087.627	305.053	-1071.453	O.2	3	PRO3	-0.575	
34	  CB	1086.497	302.292	-1069.714	C.3	3	PRO3	-0.007	
35	  CG	1085.214	302.444	-1068.884	C.3	3	PRO3	0.019	
36	  CD	1085.672	303.263	-1067.674	C.3	3	PRO3	0.019	
37	  HA	1088.287	303.527	-1069.559	 H	3	PRO3	0.064	
38	 2HB	1087.120	301.511	-1069.274	 H	3	PRO3	0.025	
39	 3HB	1086.299	302.043	-1070.760	 H	3	PRO3	0.025	
40	 2HG	1084.787	301.482	-1068.593	 H	3	PRO3	0.021	
41	 3HG	1084.477	303.015	-1069.451	 H	3	PRO3	0.021	
42	 2HD	1086.061	302.613	-1066.887	 H	3	PRO3	0.039	
43	 3HD	1084.875	303.899	-1067.281	 H	3	PRO3	0.039	
44	   N	1085.599	305.130	-1070.654	N.am	4	GLU4	-0.516	
45	  CA	1085.239	306.101	-1071.684	C.3	4	GLU4	0.040	
46	   C	1086.138	307.312	-1071.623	C.2	4	GLU4	0.537	
47	   O	1086.664	307.792	-1072.637	O.2	4	GLU4	-0.582	
48	  CB	1083.750	306.520	-1071.513	C.3	4	GLU4	0.056	
49	  CG	1083.202	307.523	-1072.579	C.3	4	GLU4	0.014	
50	  CD	1081.775	308.020	-1072.435	C.2	4	GLU4	0.805	
51	 OE1	1081.049	307.622	-1071.504	O.co2	4	GLU4	-0.819	
52	 OE2	1081.386	308.849	-1073.283	O.co2	4	GLU4	-0.819	
53	   H	1084.915	304.823	-1069.977	 H	4	GLU4	0.294	
54	  HA	1085.370	305.631	-1072.675	 H	4	GLU4	0.111	
55	 2HB	1083.598	306.960	-1070.506	 H	4	GLU4	-0.017	
56	 3HB	1083.103	305.622	-1071.519	 H	4	GLU4	-0.017	
57	 2HG	1083.283	307.109	-1073.596	 H	4	GLU4	-0.043	
58	 3HG	1083.790	308.456	-1072.590	 H	4	GLU4	-0.043	
59	   N	1086.365	307.865	-1070.479	N.am	5	SER5	-0.416	
60	  CA	1087.235	309.036	-1070.421	C.3	5	SER5	-0.025	
61	   C	1088.593	308.731	-1071.007	C.2	5	SER5	0.597	
62	   O	1089.140	309.485	-1071.812	O.2	5	SER5	-0.568	
63	  CB	1087.346	309.569	-1068.970	C.3	5	SER5	0.212	
64	  OG	1088.078	308.689	-1068.110	O.3	5	SER5	-0.655	
65	   H	1085.948	307.493	-1069.638	 H	5	SER5	0.272	
66	  HA	1086.785	309.827	-1071.050	 H	5	SER5	0.084	
67	 2HB	1086.347	309.762	-1068.537	 H	5	SER5	0.035	
68	 3HB	1087.852	310.554	-1068.973	 H	5	SER5	0.035	
69	  HG	1087.589	307.864	-1068.059	 H	5	SER5	0.428	
70	   N	1089.198	307.648	-1070.653	N.am	6	ILE6	-0.416	
71	  CA	1090.511	307.353	-1071.219	C.3	6	ILE6	-0.060	
72	   C	1090.454	307.316	-1072.727	C.2	6	ILE6	0.597	
73	   O	1091.289	307.904	-1073.431	O.2	6	ILE6	-0.568	
74	  CB	1091.111	306.017	-1070.620	C.3	6	ILE6	0.130	
75	 CG1	1091.131	305.955	-1069.058	C.3	6	ILE6	-0.043	
76	 CG2	1092.552	305.716	-1071.135	C.3	6	ILE6	-0.320	
77	 CD1	1091.401	304.566	-1068.444	C.3	6	ILE6	-0.066	
78	   H	1088.770	307.014	-1069.994	 H	6	ILE6	0.272	
79	  HA	1091.185	308.188	-1070.951	 H	6	ILE6	0.087	
80	  HB	1090.453	305.191	-1070.964	 H	6	ILE6	0.019	
81	2HG1	1090.149	306.274	-1068.663	 H	6	ILE6	0.024	
82	3HG1	1091.847	306.697	-1068.654	 H	6	ILE6	0.024	
83	1HG2	1092.611	305.622	-1072.233	 H	6	ILE6	0.088	
84	2HG2	1093.275	306.498	-1070.833	 H	6	ILE6	0.088	
85	3HG2	1092.943	304.753	-1070.756	 H	6	ILE6	0.088	
86	1HD1	1090.673	303.811	-1068.798	 H	6	ILE6	0.019	
87	2HD1	1092.411	304.187	-1068.680	 H	6	ILE6	0.019	
88	3HD1	1091.325	304.595	-1067.341	 H	6	ILE6	0.019	
89	   N	1089.508	306.652	-1073.301	N.am	7	PHE7	-0.416	
90	  CA	1089.452	306.616	-1074.759	C.3	7	PHE7	-0.002	
91	   C	1089.380	308.011	-1075.334	C.2	7	PHE7	0.597	
92	   O	1090.114	308.376	-1076.294	O.2	7	PHE7	-0.568	
93	  CB	1088.200	305.814	-1075.227	C.3	7	PHE7	-0.034	
94	  CG	1088.097	304.360	-1074.737	C.2	7	PHE7	0.012	
95	 CD1	1087.472	304.086	-1073.515	C.2	7	PHE7	-0.126	
96	 CD2	1088.673	303.317	-1075.466	C.2	7	PHE7	-0.126	
97	 CE1	1087.442	302.786	-1073.020	C.2	7	PHE7	-0.170	
98	 CE2	1088.632	302.015	-1074.974	C.2	7	PHE7	-0.170	
99	  CZ	1088.019	301.751	-1073.750	C.2	7	PHE7	-0.107	
100	   H	1088.816	306.165	-1072.749	 H	7	PHE7	0.272	
101	  HA	1090.373	306.136	-1075.141	 H	7	PHE7	0.098	
102	 2HB	1088.156	305.813	-1076.334	 H	7	PHE7	0.030	
103	 3HB	1087.279	306.357	-1074.932	 H	7	PHE7	0.030	
104	 1HD	1087.050	304.890	-1072.927	 H	7	PHE7	0.133	
105	 2HD	1089.168	303.518	-1076.406	 H	7	PHE7	0.133	
106	 1HE	1086.984	302.590	-1072.061	 H	7	PHE7	0.143	
107	 2HE	1089.085	301.212	-1075.538	 H	7	PHE7	0.143	
108	  HZ	1087.999	300.744	-1073.361	 H	7	PHE7	0.130	
109	   N	1088.543	308.853	-1074.829	N.am	8	ASP8	-0.516	
110	  CA	1088.473	310.201	-1075.386	C.3	8	ASP8	0.038	
111	   C	1089.820	310.880	-1075.330	C.2	8	ASP8	0.537	
112	   O	1090.293	311.483	-1076.306	O.2	8	ASP8	-0.582	
113	  CB	1087.396	311.042	-1074.646	C.3	8	ASP8	-0.030	
114	  CG	1087.177	312.462	-1075.190	C.2	8	ASP8	0.799	
115	 OD1	1087.241	312.658	-1076.421	O.co2	8	ASP8	-0.801	
116	 OD2	1086.986	313.390	-1074.377	O.co2	8	ASP8	-0.801	
117	   H	1087.945	308.584	-1074.061	 H	8	ASP8	0.294	
118	  HA	1088.190	310.121	-1076.453	 H	8	ASP8	0.088	
119	 2HB	1087.653	311.128	-1073.574	 H	8	ASP8	-0.012	
120	 3HB	1086.416	310.538	-1074.678	 H	8	ASP8	-0.012	
121	   N	1090.500	310.833	-1074.235	N.am	9	GLU9	-0.516	
122	  CA	1091.803	311.490	-1074.182	C.3	9	GLU9	0.040	
123	   C	1092.721	310.959	-1075.256	C.2	9	GLU9	0.537	
124	   O	1093.385	311.712	-1075.984	O.2	9	GLU9	-0.582	
125	  CB	1092.437	311.285	-1072.776	C.3	9	GLU9	0.056	
126	  CG	1093.820	311.977	-1072.548	C.3	9	GLU9	0.014	
127	  CD	1094.521	311.767	-1071.220	C.2	9	GLU9	0.805	
128	 OE1	1094.000	311.078	-1070.322	O.co2	9	GLU9	-0.819	
129	 OE2	1095.641	312.304	-1071.089	O.co2	9	GLU9	-0.819	
130	   H	1090.136	310.348	-1073.427	 H	9	GLU9	0.294	
131	  HA	1091.661	312.571	-1074.359	 H	9	GLU9	0.111	
132	 2HB	1092.549	310.201	-1072.570	 H	9	GLU9	-0.017	
133	 3HB	1091.740	311.641	-1071.992	 H	9	GLU9	-0.017	
134	 2HG	1093.748	313.068	-1072.690	 H	9	GLU9	-0.043	
135	 3HG	1094.566	311.630	-1073.282	 H	9	GLU9	-0.043	
136	   N	1092.817	309.684	-1075.423	N.am	10	HIS10	-0.416	
137	  CA	1093.704	309.170	-1076.462	C.3	10	HIS10	-0.058	
138	   C	1093.337	309.732	-1077.815	C.2	10	HIS10	0.597	
139	   O	1094.190	310.195	-1078.588	O.2	10	HIS10	-0.568	
140	  CB	1093.540	307.641	-1076.454	C.3	10	HIS10	-0.007	
141	  CG	1094.825	306.931	-1076.145	C.2	10	HIS10	0.187	
142	 CD2	1095.206	306.598	-1074.852	C.2	10	HIS10	-0.221	
143	 ND1	1095.777	306.523	-1077.077	N.2	10	HIS10	-0.543	
144	 CE1	1096.683	305.966	-1076.252	C.2	10	HIS10	0.163	
145	 NE2	1096.421	305.966	-1074.917	N.pl3	10	HIS10	-0.280	
146	   H	1092.286	309.050	-1074.843	 H	10	HIS10	0.272	
147	  HA	1094.723	309.527	-1076.238	 H	10	HIS10	0.136	
148	 2HB	1093.174	307.272	-1077.433	 H	10	HIS10	0.037	
149	 3HB	1092.784	307.306	-1075.713	 H	10	HIS10	0.037	
150	 2HD	1094.620	306.815	-1073.963	 H	10	HIS10	0.186	
151	 1HE	1097.574	305.544	-1076.698	 H	10	HIS10	0.144	
152	 2HE	1096.987	305.590	-1074.143	 H	10	HIS10	0.334	
153	   N	1092.099	309.731	-1078.177	N.am	11	VAL11	-0.416	
154	  CA	1091.745	310.274	-1079.485	C.3	11	VAL11	-0.087	
155	   C	1092.209	311.704	-1079.621	C.2	11	VAL11	0.597	
156	   O	1092.811	312.107	-1080.625	O.2	11	VAL11	-0.568	
157	  CB	1090.183	310.167	-1079.704	C.3	11	VAL11	0.299	
158	 CG1	1089.615	310.869	-1080.969	C.3	11	VAL11	-0.319	
159	 CG2	1089.658	308.714	-1079.775	C.3	11	VAL11	-0.319	
160	   H	1091.387	309.359	-1077.566	 H	11	VAL11	0.272	
161	  HA	1092.264	309.690	-1080.267	 H	11	VAL11	0.097	
162	  HB	1089.696	310.650	-1078.830	 H	11	VAL11	-0.030	
163	1HG1	1090.053	310.475	-1081.905	 H	11	VAL11	0.079	
164	2HG1	1088.516	310.762	-1081.050	 H	11	VAL11	0.079	
165	3HG1	1089.793	311.961	-1080.962	 H	11	VAL11	0.079	
166	1HG2	1089.948	308.128	-1078.883	 H	11	VAL11	0.079	
167	2HG2	1088.552	308.677	-1079.817	 H	11	VAL11	0.079	
168	3HG2	1090.040	308.171	-1080.660	 H	11	VAL11	0.079	
169	   N	1091.973	312.532	-1078.660	N.am	12	GLN12	-0.416	
170	  CA	1092.422	313.915	-1078.791	C.3	12	GLN12	-0.003	
171	   C	1093.912	313.981	-1079.029	C.2	12	GLN12	0.597	
172	   O	1094.399	314.687	-1079.909	O.2	12	GLN12	-0.568	
173	  CB	1092.031	314.685	-1077.510	C.3	12	GLN12	-0.004	
174	  CG	1092.392	316.207	-1077.482	C.3	12	GLN12	-0.064	
175	  CD	1092.090	317.023	-1076.219	C.2	12	GLN12	0.695	
176	 NE2	1091.523	316.449	-1075.189	N.pl3	12	GLN12	-0.941	
177	 OE1	1092.393	318.204	-1076.144	O.2	12	GLN12	-0.609	
178	   H	1091.484	312.228	-1077.831	 H	12	GLN12	0.272	
179	  HA	1091.922	314.369	-1079.667	 H	12	GLN12	0.085	
180	 2HB	1092.507	314.187	-1076.639	 H	12	GLN12	0.017	
181	 3HB	1090.941	314.579	-1077.346	 H	12	GLN12	0.017	
182	 2HG	1091.915	316.726	-1078.334	 H	12	GLN12	0.035	
183	 3HG	1093.476	316.348	-1077.648	 H	12	GLN12	0.035	
184	1HE2	1091.416	317.046	-1074.367	 H	12	GLN12	0.425	
185	2HE2	1091.359	315.446	-1075.290	 H	12	GLN12	0.425	
186	   N	1094.696	313.275	-1078.286	N.am	13	ARG13	-0.348	
187	  CA	1096.136	313.340	-1078.518	C.3	13	ARG13	-0.264	
188	   C	1096.472	312.965	-1079.942	C.2	13	ARG13	0.734	
189	   O	1097.240	313.634	-1080.628	O.2	13	ARG13	-0.589	
190	  CB	1096.849	312.403	-1077.502	C.3	13	ARG13	-0.001	
191	  CG	1098.394	312.555	-1077.421	C.3	13	ARG13	0.039	
192	  CD	1099.021	311.569	-1076.421	C.3	13	ARG13	0.049	
193	  NE	1100.498	311.776	-1076.371	N.pl3	13	ARG13	-0.530	
194	  CZ	1101.346	311.086	-1075.615	C.cat	13	ARG13	0.808	
195	 NH1	1100.980	310.123	-1074.815	N.pl3	13	ARG13	-0.863	
196	 NH2	1102.606	311.384	-1075.673	N.pl3	13	ARG13	-0.863	
197	   H	1094.320	312.687	-1077.557	 H	13	ARG13	0.275	
198	  HA	1096.461	314.386	-1078.362	 H	13	ARG13	0.156	
199	 2HB	1096.582	311.352	-1077.738	 H	13	ARG13	0.033	
200	 3HB	1096.424	312.572	-1076.491	 H	13	ARG13	0.033	
201	 2HG	1098.643	313.601	-1077.144	 H	13	ARG13	0.029	
202	 3HG	1098.845	312.397	-1078.422	 H	13	ARG13	0.029	
203	 2HD	1098.776	310.529	-1076.728	 H	13	ARG13	0.069	
204	 3HD	1098.564	311.718	-1075.419	 H	13	ARG13	0.069	
205	  HE	1100.950	312.497	-1076.944	 H	13	ARG13	0.346	
206	1HH1	1099.975	309.938	-1074.818	 H	13	ARG13	0.448	
207	2HH1	1101.693	309.641	-1074.266	 H	13	ARG13	0.448	
208	1HH2	1102.873	312.140	-1076.305	 H	13	ARG13	0.448	
209	2HH2	1103.241	310.843	-1075.083	 H	13	ARG13	0.448	
210	   N	1095.935	311.909	-1080.453	N.am	14	VAL14	-0.416	
211	  CA	1096.259	311.547	-1081.830	C.3	14	VAL14	-0.087	
212	   C	1095.930	312.675	-1082.778	C.2	14	VAL14	0.597	
213	   O	1096.723	313.054	-1083.649	O.2	14	VAL14	-0.568	
214	  CB	1095.486	310.229	-1082.234	C.3	14	VAL14	0.299	
215	 CG1	1095.575	309.807	-1083.726	C.3	14	VAL14	-0.319	
216	 CG2	1095.917	308.978	-1081.431	C.3	14	VAL14	-0.319	
217	   H	1095.300	311.343	-1079.910	 H	14	VAL14	0.272	
218	  HA	1097.348	311.369	-1081.905	 H	14	VAL14	0.097	
219	  HB	1094.410	310.401	-1082.018	 H	14	VAL14	-0.030	
220	1HG1	1096.616	309.629	-1084.055	 H	14	VAL14	0.079	
221	2HG1	1095.001	308.884	-1083.937	 H	14	VAL14	0.079	
222	3HG1	1095.146	310.568	-1084.406	 H	14	VAL14	0.079	
223	1HG2	1095.831	309.140	-1080.341	 H	14	VAL14	0.079	
224	2HG2	1095.281	308.102	-1081.661	 H	14	VAL14	0.079	
225	3HG2	1096.965	308.688	-1081.636	 H	14	VAL14	0.079	
226	   N	1094.785	313.262	-1082.677	N.am	15	MET15	-0.416	
227	  CA	1094.465	314.352	-1083.594	C.3	15	MET15	-0.024	
228	   C	1095.496	315.452	-1083.509	C.2	15	MET15	0.597	
229	   O	1095.998	315.960	-1084.523	O.2	15	MET15	-0.568	
230	  CB	1093.044	314.899	-1083.286	C.3	15	MET15	0.034	
231	  CG	1091.881	313.901	-1083.475	C.3	15	MET15	0.002	
232	  SD	1090.308	314.768	-1083.362	S.3	15	MET15	-0.274	
233	  CE	1089.226	313.339	-1083.222	C.3	15	MET15	-0.054	
234	   H	1094.120	312.970	-1081.975	 H	15	MET15	0.272	
235	  HA	1094.490	313.963	-1084.628	 H	15	MET15	0.088	
236	 2HB	1092.842	315.777	-1083.929	 H	15	MET15	0.024	
237	 3HB	1093.009	315.294	-1082.250	 H	15	MET15	0.024	
238	 2HG	1091.924	313.117	-1082.695	 H	15	MET15	0.044	
239	 3HG	1091.944	313.384	-1084.450	 H	15	MET15	0.044	
240	 1HE	1089.369	312.649	-1084.072	 H	15	MET15	0.068	
241	 2HE	1089.435	312.789	-1082.288	 H	15	MET15	0.068	
242	 3HE	1088.169	313.655	-1083.205	 H	15	MET15	0.068	
243	   N	1095.865	315.875	-1082.348	N.am	16	ARG16	-0.348	
244	  CA	1096.862	316.939	-1082.267	C.3	16	ARG16	-0.264	
245	   C	1098.132	316.544	-1082.983	C.2	16	ARG16	0.734	
246	   O	1098.245	315.466	-1083.562	O.2	16	ARG16	-0.589	
247	  CB	1097.132	317.260	-1080.770	C.3	16	ARG16	-0.001	
248	  CG	1097.958	318.549	-1080.500	C.3	16	ARG16	0.039	
249	  CD	1098.209	318.772	-1079.000	C.3	16	ARG16	0.049	
250	  NE	1098.986	320.031	-1078.802	N.pl3	16	ARG16	-0.530	
251	  CZ	1099.378	320.516	-1077.628	C.cat	16	ARG16	0.808	
252	 NH1	1099.131	319.934	-1076.488	N.pl3	16	ARG16	-0.863	
253	 NH2	1100.043	321.628	-1077.613	N.pl3	16	ARG16	-0.863	
254	   H	1095.471	315.477	-1081.507	 H	16	ARG16	0.275	
255	  HA	1096.453	317.831	-1082.779	 H	16	ARG16	0.156	
256	 2HB	1097.629	316.385	-1080.302	 H	16	ARG16	0.033	
257	 3HB	1096.164	317.343	-1080.235	 H	16	ARG16	0.033	
258	 2HG	1097.428	319.419	-1080.939	 H	16	ARG16	0.029	
259	 3HG	1098.932	318.495	-1081.030	 H	16	ARG16	0.029	
260	 2HD	1098.758	317.898	-1078.585	 H	16	ARG16	0.069	
261	 3HD	1097.237	318.817	-1078.464	 H	16	ARG16	0.069	
262	  HE	1099.264	320.610	-1079.601	 H	16	ARG16	0.346	
263	1HH1	1098.605	319.061	-1076.570	 H	16	ARG16	0.448	
264	2HH1	1099.467	320.372	-1075.628	 H	16	ARG16	0.448	
265	1HH2	1100.228	322.069	-1078.516	 H	16	ARG16	0.448	
266	2HH2	1100.334	321.985	-1076.701	 H	16	ARG16	0.448	
@<TRIPOS>BOND
1 1 2 1
2 1 10 1
3 2 3 1
4 2 5 1
5 2 11 1
6 3 4 2
7 3 16 1
8 5 6 1
9 6 7 1
10 7 8 2
11 7 9 1
12 5 12 1
13 5 13 1
14 6 14 1
15 6 15 1
16 16 17 1
17 16 24 1
18 17 18 1
19 17 20 1
20 17 25 1
21 18 19 2
22 18 30 1
23 20 21 1
24 21 22 1
25 21 23 2
26 20 26 1
27 20 27 1
28 22 28 1
29 22 29 1
30 30 31 1
31 30 36 1
32 31 32 1
33 31 34 1
34 31 37 1
35 32 33 2
36 32 44 1
37 34 35 1
38 35 36 1
39 34 38 1
40 34 39 1
41 35 40 1
42 35 41 1
43 36 42 1
44 36 43 1
45 44 45 1
46 44 53 1
47 45 46 1
48 45 48 1
49 45 54 1
50 46 47 2
51 46 59 1
52 48 49 1
53 49 50 1
54 50 51 2
55 50 52 1
56 48 55 1
57 48 56 1
58 49 57 1
59 49 58 1
60 59 60 1
61 59 65 1
62 60 61 1
63 60 63 1
64 60 66 1
65 61 62 2
66 61 70 1
67 63 64 1
68 63 67 1
69 63 68 1
70 64 69 1
71 70 71 1
72 70 78 1
73 71 72 1
74 71 74 1
75 71 79 1
76 72 73 2
77 72 89 1
78 74 75 1
79 74 76 1
80 75 77 1
81 74 80 1
82 75 81 1
83 75 82 1
84 76 83 1
85 76 84 1
86 76 85 1
87 77 86 1
88 77 87 1
89 77 88 1
90 89 90 1
91 89 100 1
92 90 91 1
93 90 93 1
94 90 101 1
95 91 92 2
96 91 109 1
97 93 94 1
98 94 95 2
99 94 96 1
100 96 98 2
101 95 97 1
102 98 99 1
103 97 99 2
104 93 102 1
105 93 103 1
106 95 104 1
107 96 105 1
108 97 106 1
109 98 107 1
110 99 108 1
111 109 110 1
112 109 117 1
113 110 111 1
114 110 113 1
115 110 118 1
116 111 112 2
117 111 121 1
118 113 114 1
119 114 115 2
120 114 116 1
121 113 119 1
122 113 120 1
123 121 122 1
124 121 130 1
125 122 123 1
126 122 125 1
127 122 131 1
128 123 124 2
129 123 136 1
130 125 126 1
131 126 127 1
132 127 128 2
133 127 129 1
134 125 132 1
135 125 133 1
136 126 134 1
137 126 135 1
138 136 137 1
139 136 146 1
140 137 138 1
141 137 140 1
142 137 147 1
143 138 139 2
144 138 153 1
145 140 141 1
146 141 142 2
147 142 145 1
148 141 143 1
149 143 144 2
150 144 145 1
151 140 148 1
152 140 149 1
153 142 150 1
154 144 151 1
155 145 152 1
156 153 154 1
157 153 160 1
158 154 155 1
159 154 157 1
160 154 161 1
161 155 156 2
162 155 169 1
163 157 158 1
164 157 159 1
165 157 162 1
166 158 163 1
167 158 164 1
168 158 165 1
169 159 166 1
170 159 167 1
171 159 168 1
172 169 170 1
173 169 178 1
174 170 171 1
175 170 173 1
176 170 179 1
177 171 172 2
178 171 186 1
179 173 174 1
180 174 175 1
181 175 176 1
182 175 177 2
183 173 180 1
184 173 181 1
185 174 182 1
186 174 183 1
187 176 184 1
188 176 185 1
189 186 187 1
190 186 197 1
191 187 188 1
192 187 190 1
193 187 198 1
194 188 189 2
195 188 210 1
196 190 191 1
197 191 192 1
198 192 193 1
199 193 194 1
200 194 195 2
201 194 196 1
202 190 199 1
203 190 200 1
204 191 201 1
205 191 202 1
206 192 203 1
207 192 204 1
208 193 205 1
209 195 206 1
210 195 207 1
211 196 208 1
212 196 209 1
213 210 211 1
214 210 217 1
215 211 212 1
216 211 214 1
217 211 218 1
218 212 213 2
219 212 226 1
220 214 215 1
221 214 216 1
222 214 219 1
223 215 220 1
224 215 221 1
225 215 222 1
226 216 223 1
227 216 224 1
228 216 225 1
229 226 227 1
230 226 234 1
231 227 228 1
232 227 230 1
233 227 235 1
234 228 229 2
235 228 243 1
236 230 231 1
237 231 232 1
238 232 233 1
239 230 236 1
240 230 237 1
241 231 238 1
242 231 239 1
243 233 240 1
244 233 241 1
245 233 242 1
246 243 244 1
247 243 254 1
248 244 245 1
249 244 247 1
250 244 255 1
251 245 246 2
252 247 248 1
253 248 249 1
254 249 250 1
255 250 251 1
256 251 252 2
257 251 253 1
258 247 256 1
259 247 257 1
260 248 258 1
261 248 259 1
262 249 260 1
263 249 261 1
264 250 262 1
265 252 263 1
266 252 264 1
267 253 265 1
268 253 266 1
@<TRIPOS>SUBSTRUCTURE
1	GLU1	1	RESIDUE	1 ****	GLU
2	ASN2	16	RESIDUE	1 ****	ASN
3	PRO3	30	RESIDUE	1 ****	PRO
4	GLU4	44	RESIDUE	1 ****	GLU
5	SER5	59	RESIDUE	1 ****	SER
6	ILE6	70	RESIDUE	1 ****	ILE
7	PHE7	89	RESIDUE	1 ****	PHE
8	ASP8	109	RESIDUE	1 ****	ASP
9	GLU9	121	RESIDUE	1 ****	GLU
10	HIS10	136	RESIDUE	1 ****	HIS
11	VAL11	153	RESIDUE	1 ****	VAL
12	GLN12	169	RESIDUE	1 ****	GLN
13	ARG13	186	RESIDUE	1 ****	ARG
14	VAL14	210	RESIDUE	1 ****	VAL
15	MET15	226	RESIDUE	1 ****	MET
16	ARG16	243	RESIDUE	1 ****	ARG
