@<TRIPOS>MOLECULE
7-14
260 261 16              
SMALL
USER_CHARGES
@<TRIPOS>ATOM
1	   N	1132.273	321.092	-1120.438	N.3	1	GLU1	-0.516	
2	  CA	1132.832	322.441	-1120.438	C.3	1	GLU1	0.040	
3	   C	1134.341	322.401	-1120.438	C.2	1	GLU1	0.537	
4	   O	1135.017	323.100	-1121.207	O.2	1	GLU1	-0.582	
5	  CB	1132.309	323.226	-1119.201	C.3	1	GLU1	0.056	
6	  CG	1132.784	324.711	-1119.090	C.3	1	GLU1	0.014	
7	  CD	1132.360	325.515	-1117.875	C.2	1	GLU1	0.805	
8	 OE1	1131.632	325.013	-1116.997	O.co2	1	GLU1	-0.819	
9	 OE2	1132.790	326.685	-1117.803	O.co2	1	GLU1	-0.819	
10	   H	1132.900	320.213	-1120.438	 H	1	GLU1	0.294	
11	  HA	1132.506	322.959	-1121.358	 H	1	GLU1	0.111	
12	 2HB	1132.598	322.695	-1118.271	 H	1	GLU1	-0.017	
13	 3HB	1131.202	323.216	-1119.188	 H	1	GLU1	-0.017	
14	 2HG	1132.474	325.296	-1119.971	 H	1	GLU1	-0.043	
15	 3HG	1133.884	324.778	-1119.061	 H	1	GLU1	-0.043	
16	   N	1134.946	321.616	-1119.613	N.am	2	ASN2	-0.416	
17	  CA	1136.405	321.577	-1119.613	C.3	2	ASN2	0.014	
18	   C	1136.936	321.221	-1120.982	C.2	2	ASN2	0.597	
19	   O	1137.851	321.852	-1121.510	O.2	2	ASN2	-0.568	
20	  CB	1136.897	320.554	-1118.549	C.3	2	ASN2	-0.204	
21	  CG	1136.434	320.778	-1117.105	C.2	2	ASN2	0.713	
22	 ND2	1137.028	321.693	-1116.387	N.pl3	2	ASN2	-0.919	
23	 OD1	1135.513	320.144	-1116.611	O.2	2	ASN2	-0.593	
24	   H	1134.418	321.036	-1118.976	 H	2	ASN2	0.272	
25	  HA	1136.782	322.587	-1119.368	 H	2	ASN2	0.105	
26	 2HB	1138.002	320.495	-1118.552	 H	2	ASN2	0.080	
27	 3HB	1136.568	319.536	-1118.834	 H	2	ASN2	0.080	
28	1HD2	1136.548	321.866	-1115.501	 H	2	ASN2	0.420	
29	2HD2	1137.730	322.264	-1116.856	 H	2	ASN2	0.420	
30	   N	1136.415	320.226	-1121.616	N.am	3	PRO3	-0.255	
31	  CA	1136.866	319.817	-1122.937	C.3	3	PRO3	-0.027	
32	   C	1136.468	320.840	-1124.014	C.2	3	PRO3	0.590	
33	   O	1137.292	321.224	-1124.846	O.2	3	PRO3	-0.575	
34	  CB	1136.162	318.462	-1123.107	C.3	3	PRO3	-0.007	
35	  CG	1134.879	318.615	-1122.276	C.3	3	PRO3	0.019	
36	  CD	1135.337	319.433	-1121.067	C.3	3	PRO3	0.019	
37	  HA	1137.952	319.697	-1122.951	 H	3	PRO3	0.064	
38	 2HB	1136.785	317.681	-1122.666	 H	3	PRO3	0.025	
39	 3HB	1135.964	318.214	-1124.152	 H	3	PRO3	0.025	
40	 2HG	1134.452	317.652	-1121.985	 H	3	PRO3	0.021	
41	 3HG	1134.141	319.185	-1122.844	 H	3	PRO3	0.021	
42	 2HD	1135.726	318.784	-1120.279	 H	3	PRO3	0.039	
43	 3HD	1134.540	320.069	-1120.673	 H	3	PRO3	0.039	
44	   N	1135.264	321.301	-1124.046	N.am	4	GLU4	-0.516	
45	  CA	1134.904	322.272	-1125.076	C.3	4	GLU4	0.040	
46	   C	1135.803	323.483	-1125.015	C.2	4	GLU4	0.537	
47	   O	1136.329	323.962	-1126.029	O.2	4	GLU4	-0.582	
48	  CB	1133.415	322.690	-1124.905	C.3	4	GLU4	0.056	
49	  CG	1132.867	323.694	-1125.971	C.3	4	GLU4	0.014	
50	  CD	1131.440	324.190	-1125.827	C.2	4	GLU4	0.805	
51	 OE1	1130.714	323.792	-1124.896	O.co2	4	GLU4	-0.819	
52	 OE2	1131.051	325.020	-1126.675	O.co2	4	GLU4	-0.819	
53	   H	1134.579	320.994	-1123.370	 H	4	GLU4	0.294	
54	  HA	1135.035	321.801	-1126.067	 H	4	GLU4	0.111	
55	 2HB	1133.263	323.130	-1123.899	 H	4	GLU4	-0.017	
56	 3HB	1132.767	321.792	-1124.911	 H	4	GLU4	-0.017	
57	 2HG	1132.948	323.279	-1126.989	 H	4	GLU4	-0.043	
58	 3HG	1133.455	324.626	-1125.982	 H	4	GLU4	-0.043	
59	   N	1136.030	324.036	-1123.872	N.am	5	SER5	-0.416	
60	  CA	1136.900	325.207	-1123.813	C.3	5	SER5	-0.025	
61	   C	1138.258	324.901	-1124.399	C.2	5	SER5	0.597	
62	   O	1138.805	325.655	-1125.204	O.2	5	SER5	-0.568	
63	  CB	1137.011	325.739	-1122.363	C.3	5	SER5	0.212	
64	  OG	1137.743	324.860	-1121.502	O.3	5	SER5	-0.655	
65	   H	1135.613	323.664	-1123.030	 H	5	SER5	0.272	
66	  HA	1136.450	325.997	-1124.442	 H	5	SER5	0.084	
67	 2HB	1136.011	325.933	-1121.929	 H	5	SER5	0.035	
68	 3HB	1137.516	326.725	-1122.365	 H	5	SER5	0.035	
69	  HG	1137.254	324.035	-1121.451	 H	5	SER5	0.428	
70	   N	1138.863	323.818	-1124.045	N.am	6	ILE6	-0.416	
71	  CA	1140.176	323.524	-1124.611	C.3	6	ILE6	-0.060	
72	   C	1140.119	323.486	-1126.119	C.2	6	ILE6	0.597	
73	   O	1140.954	324.074	-1126.823	O.2	6	ILE6	-0.568	
74	  CB	1140.776	322.188	-1124.012	C.3	6	ILE6	0.130	
75	 CG1	1140.796	322.125	-1122.451	C.3	6	ILE6	-0.043	
76	 CG2	1142.217	321.886	-1124.527	C.3	6	ILE6	-0.320	
77	 CD1	1141.066	320.736	-1121.836	C.3	6	ILE6	-0.066	
78	   H	1138.435	323.184	-1123.386	 H	6	ILE6	0.272	
79	  HA	1140.850	324.358	-1124.344	 H	6	ILE6	0.087	
80	  HB	1140.118	321.362	-1124.356	 H	6	ILE6	0.019	
81	2HG1	1139.813	322.445	-1122.055	 H	6	ILE6	0.024	
82	3HG1	1141.511	322.867	-1122.046	 H	6	ILE6	0.024	
83	1HG2	1142.276	321.793	-1125.625	 H	6	ILE6	0.088	
84	2HG2	1142.939	322.668	-1124.225	 H	6	ILE6	0.088	
85	3HG2	1142.608	320.924	-1124.149	 H	6	ILE6	0.088	
86	1HD1	1140.338	319.982	-1122.191	 H	6	ILE6	0.019	
87	2HD1	1142.076	320.357	-1122.072	 H	6	ILE6	0.019	
88	3HD1	1140.990	320.766	-1120.733	 H	6	ILE6	0.019	
89	   N	1139.173	322.823	-1126.693	N.am	7	THR7	-0.416	
90	  CA	1139.118	322.787	-1128.151	C.3	7	THR7	-0.039	
91	   C	1139.045	324.182	-1128.725	C.2	7	THR7	0.597	
92	   O	1139.752	324.534	-1129.648	O.2	7	THR7	-0.568	
93	  CB	1137.903	321.925	-1128.634	C.3	7	THR7	0.365	
94	 CG2	1137.713	321.806	-1130.162	C.3	7	THR7	-0.244	
95	 OG1	1138.033	320.583	-1128.186	O.3	7	THR7	-0.676	
96	   H	1138.481	322.336	-1126.141	 H	7	THR7	0.272	
97	  HA	1140.051	322.325	-1128.523	 H	7	THR7	0.101	
98	  HB	1136.975	322.356	-1128.199	 H	7	THR7	0.004	
99	 1HG	1137.227	320.133	-1128.453	 H	7	THR7	0.410	
100	1HG2	1136.851	321.166	-1130.426	 H	7	THR7	0.064	
101	2HG2	1137.518	322.784	-1130.642	 H	7	THR7	0.064	
102	3HG2	1138.605	321.375	-1130.654	 H	7	THR7	0.064	
103	   N	1138.208	325.024	-1128.220	N.am	8	ASP8	-0.516	
104	  CA	1138.139	326.372	-1128.776	C.3	8	ASP8	0.038	
105	   C	1139.486	327.051	-1128.719	C.2	8	ASP8	0.537	
106	   O	1139.959	327.654	-1129.695	O.2	8	ASP8	-0.582	
107	  CB	1137.061	327.213	-1128.036	C.3	8	ASP8	-0.030	
108	  CG	1136.843	328.633	-1128.579	C.2	8	ASP8	0.799	
109	 OD1	1136.908	328.830	-1129.810	O.co2	8	ASP8	-0.801	
110	 OD2	1136.651	329.560	-1127.765	O.co2	8	ASP8	-0.801	
111	   H	1137.610	324.754	-1127.452	 H	8	ASP8	0.294	
112	  HA	1137.856	326.292	-1129.843	 H	8	ASP8	0.088	
113	 2HB	1137.318	327.298	-1126.964	 H	8	ASP8	-0.012	
114	 3HB	1136.082	326.708	-1128.068	 H	8	ASP8	-0.012	
115	   N	1140.165	327.003	-1127.624	N.am	9	GLU9	-0.516	
116	  CA	1141.468	327.660	-1127.569	C.3	9	GLU9	0.040	
117	   C	1142.386	327.130	-1128.644	C.2	9	GLU9	0.537	
118	   O	1143.051	327.882	-1129.370	O.2	9	GLU9	-0.582	
119	  CB	1142.101	327.454	-1126.163	C.3	9	GLU9	0.056	
120	  CG	1143.484	328.146	-1125.935	C.3	9	GLU9	0.014	
121	  CD	1144.185	327.935	-1124.606	C.2	9	GLU9	0.805	
122	 OE1	1143.663	327.245	-1123.708	O.co2	9	GLU9	-0.819	
123	 OE2	1145.305	328.472	-1124.474	O.co2	9	GLU9	-0.819	
124	   H	1139.802	326.518	-1126.816	 H	9	GLU9	0.294	
125	  HA	1141.327	328.741	-1127.746	 H	9	GLU9	0.111	
126	 2HB	1142.214	326.370	-1125.958	 H	9	GLU9	-0.017	
127	 3HB	1141.404	327.809	-1125.380	 H	9	GLU9	-0.017	
128	 2HG	1143.413	329.237	-1126.076	 H	9	GLU9	-0.043	
129	 3HG	1144.231	327.799	-1126.668	 H	9	GLU9	-0.043	
130	   N	1142.482	325.854	-1128.811	N.am	10	HIS10	-0.416	
131	  CA	1143.370	325.340	-1129.850	C.3	10	HIS10	-0.058	
132	   C	1143.004	325.903	-1131.203	C.2	10	HIS10	0.597	
133	   O	1143.857	326.366	-1131.975	O.2	10	HIS10	-0.568	
134	  CB	1143.205	323.812	-1129.843	C.3	10	HIS10	-0.007	
135	  CG	1144.490	323.101	-1129.533	C.2	10	HIS10	0.187	
136	 CD2	1144.870	322.768	-1128.240	C.2	10	HIS10	-0.221	
137	 ND1	1145.442	322.693	-1130.465	N.2	10	HIS10	-0.543	
138	 CE1	1146.347	322.135	-1129.640	C.2	10	HIS10	0.163	
139	 NE2	1146.084	322.135	-1128.305	N.pl3	10	HIS10	-0.280	
140	   H	1141.951	325.220	-1128.232	 H	10	HIS10	0.272	
141	  HA	1144.389	325.697	-1129.625	 H	10	HIS10	0.136	
142	 2HB	1142.839	323.443	-1130.822	 H	10	HIS10	0.037	
143	 3HB	1142.448	323.476	-1129.103	 H	10	HIS10	0.037	
144	 2HD	1144.284	322.985	-1127.351	 H	10	HIS10	0.186	
145	 1HE	1147.238	321.713	-1130.086	 H	10	HIS10	0.144	
146	 2HE	1146.650	321.758	-1127.531	 H	10	HIS10	0.334	
147	   N	1141.766	325.902	-1131.566	N.am	11	VAL11	-0.416	
148	  CA	1141.412	326.446	-1132.874	C.3	11	VAL11	-0.087	
149	   C	1141.877	327.876	-1133.009	C.2	11	VAL11	0.597	
150	   O	1142.478	328.279	-1134.012	O.2	11	VAL11	-0.568	
151	  CB	1139.850	326.340	-1133.094	C.3	11	VAL11	0.299	
152	 CG1	1139.283	327.042	-1134.357	C.3	11	VAL11	-0.319	
153	 CG2	1139.325	324.886	-1133.164	C.3	11	VAL11	-0.319	
154	   H	1141.053	325.531	-1130.955	 H	11	VAL11	0.272	
155	  HA	1141.931	325.862	-1133.655	 H	11	VAL11	0.097	
156	  HB	1139.363	326.822	-1132.219	 H	11	VAL11	-0.030	
157	1HG1	1139.721	326.648	-1135.294	 H	11	VAL11	0.079	
158	2HG1	1138.184	326.936	-1134.440	 H	11	VAL11	0.079	
159	3HG1	1139.461	328.134	-1134.350	 H	11	VAL11	0.079	
160	1HG2	1139.614	324.300	-1132.272	 H	11	VAL11	0.079	
161	2HG2	1138.219	324.850	-1133.207	 H	11	VAL11	0.079	
162	3HG2	1139.707	324.344	-1134.049	 H	11	VAL11	0.079	
163	   N	1141.641	328.704	-1132.048	N.am	12	GLN12	-0.416	
164	  CA	1142.090	330.086	-1132.178	C.3	12	GLN12	-0.003	
165	   C	1143.580	330.152	-1132.416	C.2	12	GLN12	0.597	
166	   O	1144.068	330.858	-1133.296	O.2	12	GLN12	-0.568	
167	  CB	1141.700	330.856	-1130.897	C.3	12	GLN12	-0.004	
168	  CG	1142.061	332.378	-1130.868	C.3	12	GLN12	-0.064	
169	  CD	1141.759	333.194	-1129.605	C.2	12	GLN12	0.695	
170	 NE2	1141.192	332.620	-1128.575	N.pl3	12	GLN12	-0.941	
171	 OE1	1142.062	334.375	-1129.530	O.2	12	GLN12	-0.609	
172	   H	1141.151	328.400	-1131.218	 H	12	GLN12	0.272	
173	  HA	1141.591	330.541	-1133.054	 H	12	GLN12	0.085	
174	 2HB	1142.175	330.358	-1130.026	 H	12	GLN12	0.017	
175	 3HB	1140.609	330.750	-1130.733	 H	12	GLN12	0.017	
176	 2HG	1141.584	332.898	-1131.720	 H	12	GLN12	0.035	
177	 3HG	1143.145	332.519	-1131.034	 H	12	GLN12	0.035	
178	1HE2	1141.085	333.216	-1127.753	 H	12	GLN12	0.425	
179	2HE2	1141.028	331.617	-1128.677	 H	12	GLN12	0.425	
180	   N	1144.364	329.446	-1131.673	N.am	13	ARG13	-0.348	
181	  CA	1145.805	329.510	-1131.904	C.3	13	ARG13	-0.264	
182	   C	1146.140	329.136	-1133.328	C.2	13	ARG13	0.734	
183	   O	1146.909	329.805	-1134.014	O.2	13	ARG13	-0.589	
184	  CB	1146.517	328.573	-1130.888	C.3	13	ARG13	-0.001	
185	  CG	1148.062	328.725	-1130.807	C.3	13	ARG13	0.039	
186	  CD	1148.688	327.739	-1129.808	C.3	13	ARG13	0.049	
187	  NE	1150.166	327.945	-1129.758	N.pl3	13	ARG13	-0.530	
188	  CZ	1151.013	327.254	-1129.001	C.cat	13	ARG13	0.808	
189	 NH1	1150.647	326.292	-1128.202	N.pl3	13	ARG13	-0.863	
190	 NH2	1152.273	327.552	-1129.059	N.pl3	13	ARG13	-0.863	
191	   H	1143.988	328.858	-1130.944	 H	13	ARG13	0.275	
192	  HA	1146.130	330.556	-1131.748	 H	13	ARG13	0.156	
193	 2HB	1146.250	327.522	-1131.125	 H	13	ARG13	0.033	
194	 3HB	1146.092	328.742	-1129.878	 H	13	ARG13	0.033	
195	 2HG	1148.311	329.770	-1130.530	 H	13	ARG13	0.029	
196	 3HG	1148.513	328.566	-1131.809	 H	13	ARG13	0.029	
197	 2HD	1148.443	326.698	-1130.115	 H	13	ARG13	0.069	
198	 3HD	1148.232	327.887	-1128.806	 H	13	ARG13	0.069	
199	  HE	1150.617	328.666	-1130.330	 H	13	ARG13	0.346	
200	1HH1	1149.642	326.106	-1128.205	 H	13	ARG13	0.448	
201	2HH1	1151.360	325.809	-1127.652	 H	13	ARG13	0.448	
202	1HH2	1152.541	328.308	-1129.691	 H	13	ARG13	0.448	
203	2HH2	1152.908	327.011	-1128.469	 H	13	ARG13	0.448	
204	   N	1145.603	328.080	-1133.840	N.am	14	VAL14	-0.416	
205	  CA	1145.928	327.718	-1135.217	C.3	14	VAL14	-0.087	
206	   C	1145.599	328.846	-1136.165	C.2	14	VAL14	0.597	
207	   O	1146.392	329.225	-1137.036	O.2	14	VAL14	-0.568	
208	  CB	1145.154	326.401	-1135.621	C.3	14	VAL14	0.299	
209	 CG1	1145.243	325.979	-1137.114	C.3	14	VAL14	-0.319	
210	 CG2	1145.585	325.150	-1134.818	C.3	14	VAL14	-0.319	
211	   H	1144.968	327.513	-1133.297	 H	14	VAL14	0.272	
212	  HA	1147.016	327.540	-1135.292	 H	14	VAL14	0.097	
213	  HB	1144.078	326.573	-1135.406	 H	14	VAL14	-0.030	
214	1HG1	1146.284	325.800	-1137.443	 H	14	VAL14	0.079	
215	2HG1	1144.669	325.056	-1137.325	 H	14	VAL14	0.079	
216	3HG1	1144.814	326.740	-1137.794	 H	14	VAL14	0.079	
217	1HG2	1145.498	325.311	-1133.728	 H	14	VAL14	0.079	
218	2HG2	1144.949	324.273	-1135.049	 H	14	VAL14	0.079	
219	3HG2	1146.633	324.858	-1135.023	 H	14	VAL14	0.079	
220	   N	1144.454	329.433	-1136.065	N.am	15	MET15	-0.416	
221	  CA	1144.135	330.524	-1136.981	C.3	15	MET15	-0.024	
222	   C	1145.166	331.624	-1136.895	C.2	15	MET15	0.597	
223	   O	1145.669	332.132	-1137.909	O.2	15	MET15	-0.568	
224	  CB	1142.714	331.072	-1136.673	C.3	15	MET15	0.034	
225	  CG	1141.551	330.074	-1136.863	C.3	15	MET15	0.002	
226	  SD	1139.978	330.941	-1136.750	S.3	15	MET15	-0.274	
227	  CE	1138.896	329.513	-1136.610	C.3	15	MET15	-0.054	
228	   H	1143.789	329.142	-1135.363	 H	15	MET15	0.272	
229	  HA	1144.160	330.135	-1138.016	 H	15	MET15	0.088	
230	 2HB	1142.512	331.949	-1137.317	 H	15	MET15	0.024	
231	 3HB	1142.679	331.466	-1135.637	 H	15	MET15	0.024	
232	 2HG	1141.594	329.290	-1136.083	 H	15	MET15	0.044	
233	 3HG	1141.614	329.557	-1137.838	 H	15	MET15	0.044	
234	 1HE	1139.039	328.823	-1137.461	 H	15	MET15	0.068	
235	 2HE	1139.104	328.962	-1135.676	 H	15	MET15	0.068	
236	 3HE	1137.838	329.829	-1136.594	 H	15	MET15	0.068	
237	   N	1145.535	332.047	-1135.734	N.am	16	ARG16	-0.348	
238	  CA	1146.532	333.110	-1135.652	C.3	16	ARG16	-0.264	
239	   C	1147.803	332.715	-1136.368	C.2	16	ARG16	0.734	
240	   O	1147.916	331.637	-1136.947	O.2	16	ARG16	-0.589	
241	  CB	1146.801	333.431	-1134.154	C.3	16	ARG16	-0.001	
242	  CG	1147.628	334.720	-1133.884	C.3	16	ARG16	0.039	
243	  CD	1147.877	334.942	-1132.383	C.3	16	ARG16	0.049	
244	  NE	1148.654	336.201	-1132.185	N.pl3	16	ARG16	-0.530	
245	  CZ	1149.046	336.685	-1131.010	C.cat	16	ARG16	0.808	
246	 NH1	1148.798	336.103	-1129.871	N.pl3	16	ARG16	-0.863	
247	 NH2	1149.711	337.797	-1130.994	N.pl3	16	ARG16	-0.863	
248	   H	1145.140	331.649	-1134.894	 H	16	ARG16	0.275	
249	  HA	1146.124	334.002	-1136.164	 H	16	ARG16	0.156	
250	 2HB	1147.298	332.555	-1133.686	 H	16	ARG16	0.033	
251	 3HB	1145.833	333.514	-1133.621	 H	16	ARG16	0.033	
252	 2HG	1147.098	335.590	-1134.323	 H	16	ARG16	0.029	
253	 3HG	1148.601	334.665	-1134.413	 H	16	ARG16	0.029	
254	 2HD	1148.425	334.068	-1131.968	 H	16	ARG16	0.069	
255	 3HD	1146.904	334.987	-1131.848	 H	16	ARG16	0.069	
256	  HE	1148.934	336.780	-1132.983	 H	16	ARG16	0.346	
257	1HH1	1148.271	335.231	-1129.953	 H	16	ARG16	0.448	
258	2HH1	1149.132	336.541	-1129.010	 H	16	ARG16	0.448	
259	1HH2	1149.897	338.238	-1131.897	 H	16	ARG16	0.448	
260	2HH2	1150.001	338.154	-1130.082	 H	16	ARG16	0.448	
@<TRIPOS>BOND
1 1 2 1
2 1 10 1
3 2 3 1
4 2 5 1
5 2 11 1
6 3 4 2
7 3 16 1
8 5 6 1
9 6 7 1
10 7 8 2
11 7 9 1
12 5 12 1
13 5 13 1
14 6 14 1
15 6 15 1
16 16 17 1
17 16 24 1
18 17 18 1
19 17 20 1
20 17 25 1
21 18 19 2
22 18 30 1
23 20 21 1
24 21 22 1
25 21 23 2
26 20 26 1
27 20 27 1
28 22 28 1
29 22 29 1
30 30 31 1
31 30 36 1
32 31 32 1
33 31 34 1
34 31 37 1
35 32 33 2
36 32 44 1
37 34 35 1
38 35 36 1
39 34 38 1
40 34 39 1
41 35 40 1
42 35 41 1
43 36 42 1
44 36 43 1
45 44 45 1
46 44 53 1
47 45 46 1
48 45 48 1
49 45 54 1
50 46 47 2
51 46 59 1
52 48 49 1
53 49 50 1
54 50 51 2
55 50 52 1
56 48 55 1
57 48 56 1
58 49 57 1
59 49 58 1
60 59 60 1
61 59 65 1
62 60 61 1
63 60 63 1
64 60 66 1
65 61 62 2
66 61 70 1
67 63 64 1
68 63 67 1
69 63 68 1
70 64 69 1
71 70 71 1
72 70 78 1
73 71 72 1
74 71 74 1
75 71 79 1
76 72 73 2
77 72 89 1
78 74 75 1
79 74 76 1
80 75 77 1
81 74 80 1
82 75 81 1
83 75 82 1
84 76 83 1
85 76 84 1
86 76 85 1
87 77 86 1
88 77 87 1
89 77 88 1
90 89 90 1
91 89 96 1
92 90 91 1
93 90 93 1
94 90 97 1
95 91 92 2
96 91 103 1
97 93 94 1
98 93 95 1
99 93 98 1
100 95 99 1
101 94 100 1
102 94 101 1
103 94 102 1
104 103 104 1
105 103 111 1
106 104 105 1
107 104 107 1
108 104 112 1
109 105 106 2
110 105 115 1
111 107 108 1
112 108 109 2
113 108 110 1
114 107 113 1
115 107 114 1
116 115 116 1
117 115 124 1
118 116 117 1
119 116 119 1
120 116 125 1
121 117 118 2
122 117 130 1
123 119 120 1
124 120 121 1
125 121 122 2
126 121 123 1
127 119 126 1
128 119 127 1
129 120 128 1
130 120 129 1
131 130 131 1
132 130 140 1
133 131 132 1
134 131 134 1
135 131 141 1
136 132 133 2
137 132 147 1
138 134 135 1
139 135 136 2
140 136 139 1
141 135 137 1
142 137 138 2
143 138 139 1
144 134 142 1
145 134 143 1
146 136 144 1
147 138 145 1
148 139 146 1
149 147 148 1
150 147 154 1
151 148 149 1
152 148 151 1
153 148 155 1
154 149 150 2
155 149 163 1
156 151 152 1
157 151 153 1
158 151 156 1
159 152 157 1
160 152 158 1
161 152 159 1
162 153 160 1
163 153 161 1
164 153 162 1
165 163 164 1
166 163 172 1
167 164 165 1
168 164 167 1
169 164 173 1
170 165 166 2
171 165 180 1
172 167 168 1
173 168 169 1
174 169 170 1
175 169 171 2
176 167 174 1
177 167 175 1
178 168 176 1
179 168 177 1
180 170 178 1
181 170 179 1
182 180 181 1
183 180 191 1
184 181 182 1
185 181 184 1
186 181 192 1
187 182 183 2
188 182 204 1
189 184 185 1
190 185 186 1
191 186 187 1
192 187 188 1
193 188 189 2
194 188 190 1
195 184 193 1
196 184 194 1
197 185 195 1
198 185 196 1
199 186 197 1
200 186 198 1
201 187 199 1
202 189 200 1
203 189 201 1
204 190 202 1
205 190 203 1
206 204 205 1
207 204 211 1
208 205 206 1
209 205 208 1
210 205 212 1
211 206 207 2
212 206 220 1
213 208 209 1
214 208 210 1
215 208 213 1
216 209 214 1
217 209 215 1
218 209 216 1
219 210 217 1
220 210 218 1
221 210 219 1
222 220 221 1
223 220 228 1
224 221 222 1
225 221 224 1
226 221 229 1
227 222 223 2
228 222 237 1
229 224 225 1
230 225 226 1
231 226 227 1
232 224 230 1
233 224 231 1
234 225 232 1
235 225 233 1
236 227 234 1
237 227 235 1
238 227 236 1
239 237 238 1
240 237 248 1
241 238 239 1
242 238 241 1
243 238 249 1
244 239 240 2
245 241 242 1
246 242 243 1
247 243 244 1
248 244 245 1
249 245 246 2
250 245 247 1
251 241 250 1
252 241 251 1
253 242 252 1
254 242 253 1
255 243 254 1
256 243 255 1
257 244 256 1
258 246 257 1
259 246 258 1
260 247 259 1
261 247 260 1
@<TRIPOS>SUBSTRUCTURE
1	GLU1	1	RESIDUE	1 ****	GLU
2	ASN2	16	RESIDUE	1 ****	ASN
3	PRO3	30	RESIDUE	1 ****	PRO
4	GLU4	44	RESIDUE	1 ****	GLU
5	SER5	59	RESIDUE	1 ****	SER
6	ILE6	70	RESIDUE	1 ****	ILE
7	THR7	89	RESIDUE	1 ****	THR
8	ASP8	103	RESIDUE	1 ****	ASP
9	GLU9	115	RESIDUE	1 ****	GLU
10	HIS10	130	RESIDUE	1 ****	HIS
11	VAL11	147	RESIDUE	1 ****	VAL
12	GLN12	163	RESIDUE	1 ****	GLN
13	ARG13	180	RESIDUE	1 ****	ARG
14	VAL14	204	RESIDUE	1 ****	VAL
15	MET15	220	RESIDUE	1 ****	MET
16	ARG16	237	RESIDUE	1 ****	ARG
