REMARK WARNING: 32 MAX_TORS EXCEEDED!!!
REMARK  70 active torsions:
REMARK  status: ('A' for Active; 'I' for Inactive)
REMARK    1  A    between atoms: N_1  and  CA_2 
REMARK    2  A    between atoms: CA_2  and  C_3 
REMARK    3  A    between atoms: CA_2  and  CB_5 
REMARK       I    between atoms: C_3  and  N_11 
REMARK    4  A    between atoms: CB_5  and  CG_6 
REMARK    5  A    between atoms: CG_6  and  CD_7 
REMARK    6  A    between atoms: N_11  and  CA_12 
REMARK    7  A    between atoms: CA_12  and  C_13 
REMARK    8  A    between atoms: CA_12  and  CB_15 
REMARK       I    between atoms: C_13  and  N_22 
REMARK    9  A    between atoms: CB_15  and  CG_16 
REMARK       I    between atoms: CG_16  and  ND2_17 
REMARK   10  A    between atoms: CA_23  and  C_24 
REMARK       I    between atoms: C_24  and  N_29 
REMARK   11  A    between atoms: N_29  and  CA_30 
REMARK   12  A    between atoms: CA_30  and  C_31 
REMARK   13  A    between atoms: CA_30  and  CB_33 
REMARK       I    between atoms: C_31  and  N_39 
REMARK   14  A    between atoms: CB_33  and  CG_34 
REMARK   15  A    between atoms: CG_34  and  CD_35 
REMARK   16  A    between atoms: N_39  and  CA_40 
REMARK   17  A    between atoms: CA_40  and  C_41 
REMARK   18  A    between atoms: CA_40  and  CB_43 
REMARK       I    between atoms: C_41  and  N_47 
REMARK   19  A    between atoms: CB_43  and  OG_44 
REMARK   20  A    between atoms: N_47  and  CA_48 
REMARK   21  A    between atoms: CA_48  and  C_49 
REMARK   22  A    between atoms: CA_48  and  CB_51 
REMARK       I    between atoms: C_49  and  N_56 
REMARK   23  A    between atoms: CB_51  and  CG1_52 
REMARK   24  A    between atoms: N_56  and  CA_57 
REMARK   25  A    between atoms: CA_57  and  C_58 
REMARK   26  A    between atoms: CA_57  and  CB_60 
REMARK       I    between atoms: C_58  and  N_65 
REMARK   27  A    between atoms: CB_60  and  CG_61 
REMARK   28  A    between atoms: N_65  and  CA_66 
REMARK   29  A    between atoms: CA_66  and  C_67 
REMARK   30  A    between atoms: CA_66  and  CB_69 
REMARK       I    between atoms: C_67  and  N_74 
REMARK   31  A    between atoms: CB_69  and  CG_70 
REMARK   32  A    between atoms: N_74  and  CA_75 
REMARK   33  A    between atoms: CA_75  and  C_76 
REMARK   34  A    between atoms: CA_75  and  CB_78 
REMARK       I    between atoms: C_76  and  N_84 
REMARK   35  A    between atoms: CB_78  and  CG_79 
REMARK   36  A    between atoms: CG_79  and  CD_80 
REMARK   37  A    between atoms: N_84  and  CA_85 
REMARK   38  A    between atoms: CA_85  and  C_86 
REMARK   39  A    between atoms: CA_85  and  CB_88 
REMARK       I    between atoms: C_86  and  N_96 
REMARK   40  A    between atoms: CB_88  and  CG_89 
REMARK   41  A    between atoms: N_96  and  CA_97 
REMARK   42  A    between atoms: CA_97  and  C_98 
REMARK   43  A    between atoms: CA_97  and  CB_100 
REMARK       I    between atoms: C_98  and  N_104 
REMARK   44  A    between atoms: N_104  and  CA_105 
REMARK   45  A    between atoms: CA_105  and  C_106 
REMARK   46  A    between atoms: CA_105  and  CB_108 
REMARK       I    between atoms: C_106  and  N_116 
REMARK   47  A    between atoms: CB_108  and  CG_109 
REMARK   48  A    between atoms: CG_109  and  CD_110 
REMARK       I    between atoms: CD_110  and  NE2_111 
REMARK   49  A    between atoms: N_116  and  CA_117 
REMARK   50  A    between atoms: CA_117  and  C_118 
REMARK   51  A    between atoms: CA_117  and  CB_120 
REMARK       I    between atoms: C_118  and  N_133 
REMARK   52  A    between atoms: CB_120  and  CG_121 
REMARK   53  A    between atoms: CG_121  and  CD_122 
REMARK   54  A    between atoms: CD_122  and  NE_123 
REMARK       I    between atoms: NE_123  and  CZ_124 
REMARK       I    between atoms: CZ_124  and  NH1_125 
REMARK       I    between atoms: CZ_124  and  NH2_126 
REMARK   55  A    between atoms: N_133  and  CA_134 
REMARK   56  A    between atoms: CA_134  and  C_135 
REMARK   57  A    between atoms: CA_134  and  CB_137 
REMARK       I    between atoms: C_135  and  N_145 
REMARK   58  A    between atoms: CB_137  and  CG_138 
REMARK   59  A    between atoms: CG_138  and  CD_139 
REMARK       I    between atoms: CD_139  and  NE2_140 
REMARK   60  A    between atoms: N_145  and  CA_146 
REMARK   61  A    between atoms: CA_146  and  C_147 
REMARK   62  A    between atoms: CA_146  and  CB_149 
REMARK       I    between atoms: C_147  and  N_154 
REMARK   63  A    between atoms: CB_149  and  CG_150 
REMARK   64  A    between atoms: CG_150  and  SD_151 
REMARK   65  A    between atoms: N_154  and  CA_155 
REMARK   66  A    between atoms: CA_155  and  C_156 
REMARK   67  A    between atoms: CA_155  and  CB_158 
REMARK   68  A    between atoms: CB_158  and  CG_159 
REMARK   69  A    between atoms: CG_159  and  CD_160 
REMARK   70  A    between atoms: CD_160  and  NE_161 
REMARK       I    between atoms: NE_161  and  CZ_162 
REMARK       I    between atoms: CZ_162  and  NH1_163 
ROOT
ATOM      1  C   GLU d   9    2301.889 706.576-2390.054  0.00  0.00     0.241 C 
ATOM      2  O   GLU d   9    2302.553 707.330-2390.780  0.00  0.00    -0.271 OA
ATOM      3  N   HIS d  10    2301.985 705.301-2390.223  0.00  0.00    -0.346 N 
ATOM      4  H   HIS d  10    2301.455 704.666-2389.644  0.00  0.00     0.163 HD
ENDROOT
BRANCH   3   5
ATOM      5  CA  HIS d  10    2302.873 704.788-2391.263  0.00  0.00     0.182 C 
BRANCH   5   6
ATOM      6  C   HIS d  10    2302.506 705.353-2392.615  0.00  0.00     0.241 C 
ATOM      7  O   HIS d  10    2303.358 705.817-2393.387  0.00  0.00    -0.271 OA
ATOM      8  N   VAL d  11    2301.268 705.352-2392.977  0.00  0.00    -0.346 N 
ATOM      9  H   VAL d  11    2300.555 704.980-2392.366  0.00  0.00     0.163 HD
BRANCH   8  10
ATOM     10  CA  VAL d  11    2300.913 705.898-2394.284  0.00  0.00     0.180 C 
BRANCH  10  11
ATOM     11  C   VAL d  11    2301.378 707.328-2394.418  0.00  0.00     0.241 C 
ATOM     12  O   VAL d  11    2301.979 707.732-2395.421  0.00  0.00    -0.271 OA
ATOM     13  N   GLN d  12    2301.142 708.154-2393.456  0.00  0.00    -0.346 N 
ATOM     14  H   GLN d  12    2300.653 707.849-2392.626  0.00  0.00     0.163 HD
BRANCH  13  15
ATOM     15  CA  GLN d  12    2301.591 709.537-2393.583  0.00  0.00     0.177 C 
BRANCH  15  16
ATOM     16  C   GLN d  12    2303.081 709.603-2393.822  0.00  0.00     0.241 C 
ATOM     17  O   GLN d  12    2303.568 710.311-2394.701  0.00  0.00    -0.271 OA
ATOM     18  N   ARG d  13    2303.865 708.897-2393.081  0.00  0.00    -0.346 N 
ATOM     19  H   ARG d  13    2303.489 708.307-2392.352  0.00  0.00     0.163 HD
BRANCH  18  20
ATOM     20  CA  ARG d  13    2305.305 708.962-2393.312  0.00  0.00     0.176 C 
BRANCH  20  21
ATOM     21  C   ARG d  13    2305.641 708.589-2394.737  0.00  0.00     0.241 C 
ATOM     22  O   ARG d  13    2306.410 709.260-2395.421  0.00  0.00    -0.271 OA
ATOM     23  N   GLN d  14    2305.104 707.535-2395.250  0.00  0.00    -0.346 N 
ATOM     24  H   GLN d  14    2304.469 706.966-2394.708  0.00  0.00     0.163 HD
BRANCH  23  25
ATOM     25  CA  GLN d  14    2305.429 707.174-2396.627  0.00  0.00     0.177 C 
BRANCH  25  26
ATOM     26  C   GLN d  14    2305.099 708.303-2397.575  0.00  0.00     0.241 C 
ATOM     27  O   GLN d  14    2305.889 708.679-2398.438  0.00  0.00    -0.271 OA
ATOM     28  N   MET d  15    2303.955 708.891-2397.475  0.00  0.00    -0.346 N 
ATOM     29  H   MET d  15    2303.289 708.600-2396.774  0.00  0.00     0.163 HD
BRANCH  28  30
ATOM     30  CA  MET d  15    2303.637 709.982-2398.392  0.00  0.00     0.177 C 
BRANCH  30  31
ATOM     31  C   MET d  15    2304.668 711.080-2398.305  0.00  0.00     0.241 C 
ATOM     32  O   MET d  15    2305.173 711.589-2399.318  0.00  0.00    -0.271 OA
ATOM     33  N   ARG d  16    2305.036 711.503-2397.143  0.00  0.00    -0.347 N 
ATOM     34  H   ARG d  16    2304.640 711.105-2396.303  0.00  0.00     0.163 HD
BRANCH  33  35
ATOM     35  CA  ARG d  16    2306.034 712.566-2397.060  0.00  0.00     0.162 C 
BRANCH  35  36
ATOM     36  C   ARG d  16    2307.305 712.171-2397.774  0.00  0.00     0.219 C 
ATOM     37  O   ARG d  16    2307.418 711.093-2398.354  0.00  0.00    -0.287 OA
ENDBRANCH  35  36
BRANCH  35  38
ATOM     38  CB  ARG d  16    2306.302 712.887-2395.562  0.00  0.00     0.035 C 
BRANCH  38  39
ATOM     39  CG  ARG d  16    2307.128 714.175-2395.291  0.00  0.00     0.023 C 
BRANCH  39  40
ATOM     40  CD  ARG d  16    2307.376 714.397-2393.790  0.00  0.00     0.138 C 
BRANCH  40  41
ATOM     41  NE  ARG d  16    2308.154 715.655-2393.591  0.00  0.00    -0.227 N 
ATOM     42  CZ  ARG d  16    2308.544 716.140-2392.416  0.00  0.00     0.665 C 
ATOM     43  NH1 ARG d  16    2308.295 715.557-2391.276  0.00  0.00    -0.235 N 
ATOM     44  NH2 ARG d  16    2309.209 717.251-2392.398  0.00  0.00    -0.235 N 
ATOM     45 11HH ARG d  16    2307.768 714.685-2391.359  0.00  0.00     0.174 HD
ATOM     46 12HH ARG d  16    2308.629 715.994-2390.416  0.00  0.00     0.174 HD
ATOM     47 21HH ARG d  16    2309.396 717.693-2393.301  0.00  0.00     0.174 HD
ATOM     48 22HH ARG d  16    2309.499 717.608-2391.486  0.00  0.00     0.174 HD
ATOM     49  HE  ARG d  16    2308.434 716.235-2394.388  0.00  0.00     0.177 HD
ENDBRANCH  40  41
ENDBRANCH  39  40
ENDBRANCH  38  39
ENDBRANCH  35  38
ENDBRANCH  33  35
ENDBRANCH  30  31
BRANCH  30  50
ATOM     50  CB  MET d  15    2302.216 710.530-2398.085  0.00  0.00     0.045 C 
BRANCH  50  51
ATOM     51  CG  MET d  15    2301.052 709.533-2398.276  0.00  0.00     0.076 C 
BRANCH  51  52
ATOM     52  SD  MET d  15    2299.480 710.401-2398.165  0.00  0.00    -0.173 SA
ATOM     53  CE  MET d  15    2298.397 708.973-2398.027  0.00  0.00     0.089 C 
ENDBRANCH  51  52
ENDBRANCH  50  51
ENDBRANCH  30  50
ENDBRANCH  28  30
ENDBRANCH  25  26
BRANCH  25  54
ATOM     54  CB  GLN d  14    2304.650 705.893-2397.000  0.00  0.00     0.044 C 
BRANCH  54  55
ATOM     55  CG  GLN d  14    2304.906 705.323-2398.434  0.00  0.00     0.105 C 
BRANCH  55  56
ATOM     56  CD  GLN d  14    2304.122 704.089-2398.898  0.00  0.00     0.215 C 
ATOM     57  NE2 GLN d  14    2303.265 703.516-2398.091  0.00  0.00    -0.370 N 
ATOM     58 21HE GLN d  14    2302.739 702.741-2398.498  0.00  0.00     0.159 HD
ATOM     59 22HE GLN d  14    2303.143 703.983-2397.190  0.00  0.00     0.159 HD
ATOM     60  OE1 GLN d  14    2304.265 703.637-2400.023  0.00  0.00    -0.274 OA
ENDBRANCH  55  56
ENDBRANCH  54  55
ENDBRANCH  25  54
ENDBRANCH  23  25
ENDBRANCH  20  21
BRANCH  20  61
ATOM     61  CB  ARG d  13    2306.019 708.023-2392.297  0.00  0.00     0.036 C 
BRANCH  61  62
ATOM     62  CG  ARG d  13    2307.564 708.176-2392.217  0.00  0.00     0.023 C 
BRANCH  62  63
ATOM     63  CD  ARG d  13    2308.191 707.189-2391.219  0.00  0.00     0.138 C 
BRANCH  63  64
ATOM     64  NE  ARG d  13    2309.668 707.396-2391.169  0.00  0.00    -0.227 N 
ATOM     65  CZ  ARG d  13    2310.516 706.704-2390.413  0.00  0.00     0.665 C 
ATOM     66  NH1 ARG d  13    2310.151 705.741-2389.615  0.00  0.00    -0.235 N 
ATOM     67  NH2 ARG d  13    2311.776 707.003-2390.471  0.00  0.00    -0.235 N 
ATOM     68 11HH ARG d  13    2309.146 705.555-2389.618  0.00  0.00     0.174 HD
ATOM     69 12HH ARG d  13    2310.864 705.258-2389.066  0.00  0.00     0.174 HD
ATOM     70 21HH ARG d  13    2312.043 707.760-2391.103  0.00  0.00     0.174 HD
ATOM     71 22HH ARG d  13    2312.411 706.462-2389.882  0.00  0.00     0.174 HD
ATOM     72  HE  ARG d  13    2310.119 708.117-2391.740  0.00  0.00     0.177 HD
ENDBRANCH  63  64
ENDBRANCH  62  63
ENDBRANCH  61  62
ENDBRANCH  20  61
ENDBRANCH  18  20
ENDBRANCH  15  16
BRANCH  15  73
ATOM     73  CB  GLN d  12    2301.200 710.305-2392.301  0.00  0.00     0.044 C 
BRANCH  73  74
ATOM     74  CG  GLN d  12    2301.562 711.827-2392.271  0.00  0.00     0.105 C 
BRANCH  74  75
ATOM     75  CD  GLN d  12    2301.260 712.641-2391.007  0.00  0.00     0.215 C 
ATOM     76  NE2 GLN d  12    2300.693 712.066-2389.977  0.00  0.00    -0.370 N 
ATOM     77 21HE GLN d  12    2300.587 712.660-2389.154  0.00  0.00     0.159 HD
ATOM     78 22HE GLN d  12    2300.529 711.062-2390.080  0.00  0.00     0.159 HD
ATOM     79  OE1 GLN d  12    2301.563 713.822-2390.930  0.00  0.00    -0.274 OA
ENDBRANCH  74  75
ENDBRANCH  73  74
ENDBRANCH  15  73
ENDBRANCH  13  15
ENDBRANCH  10  11
BRANCH  10  80
ATOM     80  CB  VAL d  11    2299.351 705.792-2394.503  0.00  0.00     0.009 C 
ATOM     81  CG1 VAL d  11    2298.783 706.495-2395.766  0.00  0.00     0.012 C 
ATOM     82  CG2 VAL d  11    2298.826 704.338-2394.575  0.00  0.00     0.012 C 
ENDBRANCH  10  80
ENDBRANCH   8  10
ENDBRANCH   5   6
BRANCH   5  83
ATOM     83  CB  HIS d  10    2302.708 703.260-2391.258  0.00  0.00     0.095 C 
BRANCH  83  84
ATOM     84  CG  HIS d  10    2303.993 702.549-2390.949  0.00  0.00     0.053 A 
ATOM     85  CD2 HIS d  10    2304.375 702.214-2389.657  0.00  0.00     0.116 A 
ATOM     86  NE2 HIS d  10    2305.589 701.582-2389.724  0.00  0.00    -0.359 N 
ATOM     87  CE1 HIS d  10    2305.851 701.584-2391.059  0.00  0.00     0.207 A 
ATOM     88  2HE HIS d  10    2306.156 701.205-2388.950  0.00  0.00     0.166 HD
ATOM     89  ND1 HIS d  10    2304.945 702.142-2391.882  0.00  0.00    -0.247 NA
ENDBRANCH  83  84
ENDBRANCH   5  83
ENDBRANCH   3   5
BRANCH   1  90
ATOM     90  CA  GLU d   9    2300.972 707.105-2388.978  0.00  0.00     0.177 C 
BRANCH  90  91
ATOM     91  N   GLU d   9    2299.669 706.448-2389.033  0.00  0.00    -0.346 N 
ATOM     92  C   ASP d   8    2298.989 706.497-2390.128  0.00  0.00     0.241 C 
ATOM     93  O   ASP d   8    2299.462 707.101-2391.103  0.00  0.00    -0.271 OA
ATOM     94  H   GLU d   9    2299.305 705.962-2388.225  0.00  0.00     0.163 HD
BRANCH  92  95
ATOM     95  CA  ASP d   8    2297.642 705.818-2390.185  0.00  0.00     0.186 C 
BRANCH  95  96
ATOM     96  N   ASP d   8    2297.711 704.469-2389.631  0.00  0.00    -0.346 N 
ATOM     97  C   LEU d   7    2298.548 703.628-2390.136  0.00  0.00     0.241 C 
ATOM     98  O   LEU d   7    2299.269 703.989-2391.079  0.00  0.00    -0.271 OA
ATOM     99  H   ASP d   8    2297.114 704.199-2388.863  0.00  0.00     0.163 HD
BRANCH  97 100
ATOM    100  CA  LEU d   7    2298.620 702.232-2389.563  0.00  0.00     0.177 C 
BRANCH 100 101
ATOM    101  N   LEU d   7    2298.675 702.269-2388.105  0.00  0.00    -0.346 N 
ATOM    102  C   ILE d   6    2299.621 702.932-2387.531  0.00  0.00     0.241 C 
ATOM    103  O   ILE d   6    2300.456 703.519-2388.235  0.00  0.00    -0.271 OA
ATOM    104  H   LEU d   7    2297.983 701.782-2387.554  0.00  0.00     0.163 HD
BRANCH 102 105
ATOM    105  CA  ILE d   6    2299.678 702.969-2386.024  0.00  0.00     0.180 C 
BRANCH 105 106
ATOM    106  N   ILE d   6    2298.365 703.265-2385.458  0.00  0.00    -0.346 N 
ATOM    107  C   SER d   5    2297.761 704.348-2385.812  0.00  0.00     0.243 C 
ATOM    108  O   SER d   5    2298.309 705.102-2386.617  0.00  0.00    -0.271 OA
ATOM    109  H   ILE d   6    2297.936 702.631-2384.799  0.00  0.00     0.163 HD
BRANCH 107 110
ATOM    110  CA  SER d   5    2296.402 704.654-2385.227  0.00  0.00     0.200 C 
BRANCH 110 111
ATOM    111  N   SER d   5    2295.532 703.483-2385.286  0.00  0.00    -0.344 N 
ATOM    112  C   GLU d   4    2295.305 702.930-2386.429  0.00  0.00     0.241 C 
ATOM    113  O   GLU d   4    2295.832 703.410-2387.443  0.00  0.00    -0.271 OA
ATOM    114  H   SER d   5    2295.115 703.112-2384.444  0.00  0.00     0.163 HD
BRANCH 112 115
ATOM    115  CA  GLU d   4    2294.406 701.720-2386.490  0.00  0.00     0.177 C 
BRANCH 115 116
ATOM    116  N   GLU d   4    2294.765 700.749-2385.461  0.00  0.00    -0.346 N 
ATOM    117  C   PRO d   3    2295.970 700.289-2385.428  0.00  0.00     0.241 C 
ATOM    118  O   PRO d   3    2296.793 700.672-2386.259  0.00  0.00    -0.271 OA
ATOM    119  H   GLU d   4    2294.081 700.442-2384.784  0.00  0.00     0.163 HD
BRANCH 117 120
ATOM    120  CA  PRO d   3    2296.368 699.265-2384.351  0.00  0.00     0.179 C 
ATOM    121  N   PRO d   3    2295.916 699.674-2383.030  0.00  0.00    -0.337 N 
ATOM    122  C   ASN d   2    2296.437 700.669-2382.395  0.00  0.00     0.243 C 
ATOM    123  CD  PRO d   3    2294.837 698.881-2382.481  0.00  0.00     0.127 C 
ATOM    124  O   ASN d   2    2297.352 701.299-2382.923  0.00  0.00    -0.271 OA
ATOM    125  CG  PRO d   3    2294.380 698.063-2383.691  0.00  0.00     0.022 C 
ATOM    126  CB  PRO d   3    2295.663 697.910-2384.521  0.00  0.00     0.037 C 
BRANCH 122 127
ATOM    127  CA  ASN d   2    2295.906 701.025-2381.027  0.00  0.00     0.185 C 
BRANCH 127 128
ATOM    128  N   ASN d   2    2294.446 701.064-2381.027  0.00  0.00    -0.346 N 
ATOM    129  C   GLU d   1    2293.842 701.849-2381.852  0.00  0.00     0.242 C 
ATOM    130  O   GLU d   1    2294.518 702.549-2382.621  0.00  0.00    -0.271 OA
ATOM    131  H   ASN d   2    2293.918 700.484-2380.390  0.00  0.00     0.163 HD
BRANCH 129 132
ATOM    132  CA  GLU d   1    2292.333 701.890-2381.852  0.00  0.00     0.191 C 
BRANCH 132 133
ATOM    133  N   GLU d   1    2291.774 700.541-2381.852  0.00  0.00    -0.326 NA
ATOM    134  H   GLU d   1    2292.401 699.661-2381.852  0.00  0.00     0.180 HD
ENDBRANCH 132 133
BRANCH 132 135
ATOM    135  CB  GLU d   1    2291.810 702.674-2380.615  0.00  0.00     0.047 C 
BRANCH 135 136
ATOM    136  CG  GLU d   1    2292.285 704.159-2380.504  0.00  0.00     0.116 C 
BRANCH 136 137
ATOM    137  CD  GLU d   1    2291.861 704.964-2379.289  0.00  0.00     0.172 C 
ATOM    138  OE1 GLU d   1    2291.133 704.461-2378.411  0.00  0.00    -0.648 OA
ATOM    139  OE2 GLU d   1    2292.291 706.133-2379.217  0.00  0.00    -0.648 OA
ENDBRANCH 136 137
ENDBRANCH 135 136
ENDBRANCH 132 135
ENDBRANCH 129 132
ENDBRANCH 127 128
BRANCH 127 140
ATOM    140  CB  ASN d   2    2296.397 700.002-2379.962  0.00  0.00     0.137 C 
BRANCH 140 141
ATOM    141  CG  ASN d   2    2295.934 700.226-2378.519  0.00  0.00     0.217 C 
ATOM    142  ND2 ASN d   2    2296.528 701.140-2377.801  0.00  0.00    -0.370 N 
ATOM    143 21HD ASN d   2    2296.047 701.314-2376.914  0.00  0.00     0.159 HD
ATOM    144 22HD ASN d   2    2297.230 701.712-2378.270  0.00  0.00     0.159 HD
ATOM    145  OD1 ASN d   2    2295.013 699.592-2378.025  0.00  0.00    -0.274 OA
ENDBRANCH 140 141
ENDBRANCH 127 140
ENDBRANCH 122 127
ENDBRANCH 117 120
ENDBRANCH 115 116
BRANCH 115 146
ATOM    146  CB  GLU d   4    2292.917 702.139-2386.321  0.00  0.00     0.045 C 
BRANCH 146 147
ATOM    147  CG  GLU d   4    2292.370 703.143-2387.386  0.00  0.00     0.116 C 
BRANCH 147 148
ATOM    148  CD  GLU d   4    2290.944 703.640-2387.243  0.00  0.00     0.172 C 
ATOM    149  OE1 GLU d   4    2290.217 703.241-2386.313  0.00  0.00    -0.648 OA
ATOM    150  OE2 GLU d   4    2290.555 704.469-2388.092  0.00  0.00    -0.648 OA
ENDBRANCH 147 148
ENDBRANCH 146 147
ENDBRANCH 115 146
ENDBRANCH 112 115
ENDBRANCH 110 111
BRANCH 110 151
ATOM    151  CB  SER d   5    2296.513 705.186-2383.776  0.00  0.00     0.199 C 
BRANCH 151 152
ATOM    152  OG  SER d   5    2297.244 704.307-2382.915  0.00  0.00    -0.398 OA
ATOM    153  HG  SER d   5    2296.755 703.482-2382.865  0.00  0.00     0.209 HD
ENDBRANCH 151 152
ENDBRANCH 110 151
ENDBRANCH 107 110
ENDBRANCH 105 106
BRANCH 105 154
ATOM    154  CB  ILE d   6    2300.278 701.633-2385.423  0.00  0.00     0.013 C 
ATOM    155  CG2 ILE d   6    2301.719 701.331-2385.938  0.00  0.00     0.012 C 
BRANCH 154 156
ATOM    156  CG1 ILE d   6    2300.296 701.571-2383.863  0.00  0.00     0.002 C 
ATOM    157  CD1 ILE d   6    2300.566 700.181-2383.247  0.00  0.00     0.005 C 
ENDBRANCH 154 156
ENDBRANCH 105 154
ENDBRANCH 102 105
ENDBRANCH 100 101
BRANCH 100 158
ATOM    158  CB  LEU d   7    2297.417 701.373-2390.044  0.00  0.00     0.038 C 
BRANCH 158 159
ATOM    159  CG  LEU d   7    2297.344 699.893-2389.577  0.00  0.00    -0.020 C 
ATOM    160  CD1 LEU d   7    2296.154 699.188-2390.243  0.00  0.00     0.009 C 
ATOM    161  CD2 LEU d   7    2298.637 699.114-2389.869  0.00  0.00     0.009 C 
ENDBRANCH 158 159
ENDBRANCH 100 158
ENDBRANCH  97 100
ENDBRANCH  95  96
BRANCH  95 162
ATOM    162  CB  ASP d   8    2296.564 706.658-2389.444  0.00  0.00     0.147 C 
BRANCH 162 163
ATOM    163  CG  ASP d   8    2296.346 708.079-2389.985  0.00  0.00     0.175 C 
ATOM    164  OD1 ASP d   8    2296.410 708.277-2391.216  0.00  0.00    -0.648 OA
ATOM    165  OD2 ASP d   8    2296.155 709.005-2389.170  0.00  0.00    -0.648 OA
ENDBRANCH 162 163
ENDBRANCH  95 162
ENDBRANCH  92  95
ENDBRANCH  90  91
BRANCH  90 166
ATOM    166  CB  GLU d   9    2301.605 706.897-2387.573  0.00  0.00     0.045 C 
BRANCH 166 167
ATOM    167  CG  GLU d   9    2302.989 707.589-2387.344  0.00  0.00     0.116 C 
BRANCH 167 168
ATOM    168  CD  GLU d   9    2303.690 707.376-2386.016  0.00  0.00     0.172 C 
ATOM    169  OE1 GLU d   9    2303.169 706.686-2385.119  0.00  0.00    -0.648 OA
ATOM    170  OE2 GLU d   9    2304.810 707.914-2385.885  0.00  0.00    -0.648 OA
ENDBRANCH 167 168
ENDBRANCH 166 167
ENDBRANCH  90 166
ENDBRANCH   1  90
TORSDOF 70
