@<TRIPOS>MOLECULE
14-3
256 257 16              
SMALL
USER_CHARGES
@<TRIPOS>ATOM
1	   N	2184.334	666.188	-2266.469	N.3	1	GLU1	-0.516	
2	  CA	2184.893	667.537	-2266.469	C.3	1	GLU1	0.040	
3	   C	2186.402	667.497	-2266.469	C.2	1	GLU1	0.537	
4	   O	2187.078	668.196	-2267.237	O.2	1	GLU1	-0.582	
5	  CB	2184.370	668.322	-2265.232	C.3	1	GLU1	0.056	
6	  CG	2184.845	669.807	-2265.121	C.3	1	GLU1	0.014	
7	  CD	2184.421	670.611	-2263.906	C.2	1	GLU1	0.805	
8	 OE1	2183.693	670.109	-2263.028	O.co2	1	GLU1	-0.819	
9	 OE2	2184.851	671.781	-2263.833	O.co2	1	GLU1	-0.819	
10	   H	2184.961	665.309	-2266.469	 H	1	GLU1	0.294	
11	  HA	2184.567	668.055	-2267.389	 H	1	GLU1	0.111	
12	 2HB	2184.659	667.791	-2264.302	 H	1	GLU1	-0.017	
13	 3HB	2183.263	668.312	-2265.219	 H	1	GLU1	-0.017	
14	 2HG	2184.535	670.392	-2266.001	 H	1	GLU1	-0.043	
15	 3HG	2185.945	669.874	-2265.092	 H	1	GLU1	-0.043	
16	   N	2187.007	666.711	-2265.643	N.am	2	ASN2	-0.416	
17	  CA	2188.466	666.672	-2265.643	C.3	2	ASN2	0.014	
18	   C	2188.997	666.317	-2267.012	C.2	2	ASN2	0.597	
19	   O	2189.912	666.947	-2267.540	O.2	2	ASN2	-0.568	
20	  CB	2188.958	665.649	-2264.579	C.3	2	ASN2	-0.204	
21	  CG	2188.494	665.873	-2263.135	C.2	2	ASN2	0.713	
22	 ND2	2189.088	666.788	-2262.417	N.pl3	2	ASN2	-0.919	
23	 OD1	2187.573	665.240	-2262.641	O.2	2	ASN2	-0.593	
24	   H	2186.478	666.132	-2265.007	 H	2	ASN2	0.272	
25	  HA	2188.844	667.682	-2265.398	 H	2	ASN2	0.105	
26	 2HB	2190.062	665.590	-2264.582	 H	2	ASN2	0.080	
27	 3HB	2188.628	664.631	-2264.865	 H	2	ASN2	0.080	
28	1HD2	2188.607	666.961	-2261.531	 H	2	ASN2	0.420	
29	2HD2	2189.790	667.360	-2262.886	 H	2	ASN2	0.420	
30	   N	2188.476	665.322	-2267.646	N.am	3	PRO3	-0.255	
31	  CA	2188.928	664.913	-2268.967	C.3	3	PRO3	-0.027	
32	   C	2188.530	665.936	-2270.044	C.2	3	PRO3	0.590	
33	   O	2189.354	666.319	-2270.876	O.2	3	PRO3	-0.575	
34	  CB	2188.224	663.558	-2269.137	C.3	3	PRO3	-0.007	
35	  CG	2186.940	663.710	-2268.307	C.3	3	PRO3	0.019	
36	  CD	2187.397	664.529	-2267.097	C.3	3	PRO3	0.019	
37	  HA	2190.014	664.792	-2268.981	 H	3	PRO3	0.064	
38	 2HB	2188.846	662.777	-2268.696	 H	3	PRO3	0.025	
39	 3HB	2188.026	663.310	-2270.182	 H	3	PRO3	0.025	
40	 2HG	2186.512	662.748	-2268.016	 H	3	PRO3	0.021	
41	 3HG	2186.203	664.282	-2268.875	 H	3	PRO3	0.021	
42	 2HD	2187.786	663.879	-2266.310	 H	3	PRO3	0.039	
43	 3HD	2186.601	665.165	-2266.705	 H	3	PRO3	0.039	
44	   N	2187.325	666.396	-2270.077	N.am	4	GLU4	-0.516	
45	  CA	2186.966	667.367	-2271.107	C.3	4	GLU4	0.040	
46	   C	2187.865	668.578	-2271.045	C.2	4	GLU4	0.537	
47	   O	2188.392	669.058	-2272.060	O.2	4	GLU4	-0.582	
48	  CB	2185.478	667.787	-2270.937	C.3	4	GLU4	0.056	
49	  CG	2184.930	668.790	-2272.003	C.3	4	GLU4	0.014	
50	  CD	2183.504	669.287	-2271.860	C.2	4	GLU4	0.805	
51	 OE1	2182.777	668.889	-2270.929	O.co2	4	GLU4	-0.819	
52	 OE2	2183.115	670.117	-2272.708	O.co2	4	GLU4	-0.819	
53	   H	2186.641	666.090	-2269.401	 H	4	GLU4	0.294	
54	  HA	2187.098	666.897	-2272.098	 H	4	GLU4	0.111	
55	 2HB	2185.325	668.226	-2269.931	 H	4	GLU4	-0.017	
56	 3HB	2184.830	666.889	-2270.944	 H	4	GLU4	-0.017	
57	 2HG	2185.012	668.375	-2273.021	 H	4	GLU4	-0.043	
58	 3HG	2185.519	669.722	-2272.014	 H	4	GLU4	-0.043	
59	   N	2188.093	669.131	-2269.902	N.am	5	SER5	-0.416	
60	  CA	2188.962	670.302	-2269.843	C.3	5	SER5	-0.025	
61	   C	2190.321	669.996	-2270.428	C.2	5	SER5	0.597	
62	   O	2190.869	670.749	-2271.233	O.2	5	SER5	-0.568	
63	  CB	2189.074	670.834	-2268.393	C.3	5	SER5	0.212	
64	  OG	2189.805	669.954	-2267.532	O.3	5	SER5	-0.655	
65	   H	2187.675	668.759	-2269.061	 H	5	SER5	0.272	
66	  HA	2188.513	671.092	-2270.472	 H	5	SER5	0.084	
67	 2HB	2188.074	671.028	-2267.960	 H	5	SER5	0.035	
68	 3HB	2189.579	671.820	-2268.395	 H	5	SER5	0.035	
69	  HG	2189.316	669.130	-2267.481	 H	5	SER5	0.428	
70	   N	2190.926	668.913	-2270.074	N.am	6	ILE6	-0.416	
71	  CA	2192.239	668.617	-2270.640	C.3	6	ILE6	-0.060	
72	   C	2192.182	668.580	-2272.148	C.2	6	ILE6	0.597	
73	   O	2193.016	669.167	-2272.852	O.2	6	ILE6	-0.568	
74	  CB	2192.838	667.281	-2270.040	C.3	6	ILE6	0.130	
75	 CG1	2192.857	667.218	-2268.479	C.3	6	ILE6	-0.043	
76	 CG2	2194.279	666.978	-2270.555	C.3	6	ILE6	-0.320	
77	 CD1	2193.126	665.829	-2267.864	C.3	6	ILE6	-0.066	
78	   H	2190.497	668.278	-2269.416	 H	6	ILE6	0.272	
79	  HA	2192.913	669.451	-2270.372	 H	6	ILE6	0.087	
80	  HB	2192.180	666.455	-2270.384	 H	6	ILE6	0.019	
81	2HG1	2191.875	667.539	-2268.083	 H	6	ILE6	0.024	
82	3HG1	2193.573	667.960	-2268.074	 H	6	ILE6	0.024	
83	1HG2	2194.338	666.885	-2271.653	 H	6	ILE6	0.088	
84	2HG2	2195.001	667.761	-2270.252	 H	6	ILE6	0.088	
85	3HG2	2194.669	666.016	-2270.176	 H	6	ILE6	0.088	
86	1HD1	2192.397	665.075	-2268.219	 H	6	ILE6	0.019	
87	2HD1	2194.136	665.450	-2268.099	 H	6	ILE6	0.019	
88	3HD1	2193.050	665.859	-2266.761	 H	6	ILE6	0.019	
89	   N	2191.236	667.916	-2272.721	N.am	7	LEU7	-0.416	
90	  CA	2191.181	667.880	-2274.180	C.3	7	LEU7	-0.052	
91	   C	2191.109	669.275	-2274.753	C.2	7	LEU7	0.597	
92	   O	2191.830	669.637	-2275.695	O.2	7	LEU7	-0.568	
93	  CB	2189.977	667.020	-2274.660	C.3	7	LEU7	-0.110	
94	  CG	2189.904	665.541	-2274.194	C.3	7	LEU7	0.353	
95	 CD1	2188.714	664.835	-2274.859	C.3	7	LEU7	-0.412	
96	 CD2	2191.198	664.761	-2274.485	C.3	7	LEU7	-0.412	
97	   H	2190.543	667.429	-2272.170	 H	7	LEU7	0.272	
98	  HA	2192.122	667.440	-2274.554	 H	7	LEU7	0.092	
99	 2HB	2189.954	667.036	-2275.768	 H	7	LEU7	0.046	
100	 3HB	2189.038	667.523	-2274.356	 H	7	LEU7	0.046	
101	  HG	2189.734	665.533	-2273.097	 H	7	LEU7	-0.036	
102	1HD1	2187.757	665.345	-2274.637	 H	7	LEU7	0.100	
103	2HD1	2188.813	664.795	-2275.961	 H	7	LEU7	0.100	
104	3HD1	2188.607	663.794	-2274.503	 H	7	LEU7	0.100	
105	1HD2	2191.473	664.792	-2275.555	 H	7	LEU7	0.100	
106	2HD2	2192.051	665.173	-2273.914	 H	7	LEU7	0.100	
107	3HD2	2191.116	663.699	-2274.189	 H	7	LEU7	0.100	
108	   N	2190.272	670.117	-2274.247	N.am	8	ASP8	-0.516	
109	  CA	2190.202	671.466	-2274.801	C.3	8	ASP8	0.038	
110	   C	2191.549	672.145	-2274.744	C.2	8	ASP8	0.537	
111	   O	2192.022	672.749	-2275.719	O.2	8	ASP8	-0.582	
112	  CB	2189.124	672.306	-2274.060	C.3	8	ASP8	-0.030	
113	  CG	2188.906	673.726	-2274.601	C.2	8	ASP8	0.799	
114	 OD1	2188.971	673.925	-2275.832	O.co2	8	ASP8	-0.801	
115	 OD2	2188.715	674.653	-2273.787	O.co2	8	ASP8	-0.801	
116	   H	2189.674	669.846	-2273.479	 H	8	ASP8	0.294	
117	  HA	2189.919	671.388	-2275.868	 H	8	ASP8	0.088	
118	 2HB	2189.382	672.390	-2272.988	 H	8	ASP8	-0.012	
119	 3HB	2188.145	671.801	-2274.093	 H	8	ASP8	-0.012	
120	   N	2192.229	672.095	-2273.649	N.am	9	GLU9	-0.516	
121	  CA	2193.532	672.752	-2273.594	C.3	9	GLU9	0.040	
122	   C	2194.450	672.224	-2274.670	C.2	9	GLU9	0.537	
123	   O	2195.114	672.977	-2275.396	O.2	9	GLU9	-0.582	
124	  CB	2194.166	672.545	-2272.189	C.3	9	GLU9	0.056	
125	  CG	2195.549	673.237	-2271.960	C.3	9	GLU9	0.014	
126	  CD	2196.251	673.024	-2270.632	C.2	9	GLU9	0.805	
127	 OE1	2195.729	672.334	-2269.735	O.co2	9	GLU9	-0.819	
128	 OE2	2197.370	673.561	-2270.501	O.co2	9	GLU9	-0.819	
129	   H	2191.865	671.610	-2272.842	 H	9	GLU9	0.294	
130	  HA	2193.390	673.834	-2273.770	 H	9	GLU9	0.111	
131	 2HB	2194.278	671.461	-2271.985	 H	9	GLU9	-0.017	
132	 3HB	2193.469	672.899	-2271.405	 H	9	GLU9	-0.017	
133	 2HG	2195.477	674.328	-2272.101	 H	9	GLU9	-0.043	
134	 3HG	2196.295	672.891	-2272.694	 H	9	GLU9	-0.043	
135	   N	2194.546	670.948	-2274.839	N.am	10	HIS10	-0.416	
136	  CA	2195.433	670.436	-2275.880	C.3	10	HIS10	-0.058	
137	   C	2195.066	671.000	-2277.231	C.2	10	HIS10	0.597	
138	   O	2195.919	671.464	-2278.003	O.2	10	HIS10	-0.568	
139	  CB	2195.268	668.907	-2275.874	C.3	10	HIS10	-0.007	
140	  CG	2196.554	668.196	-2275.566	C.2	10	HIS10	0.187	
141	 CD2	2196.935	667.862	-2274.273	C.2	10	HIS10	-0.221	
142	 ND1	2197.505	667.790	-2276.499	N.2	10	HIS10	-0.543	
143	 CE1	2198.412	667.232	-2275.675	C.2	10	HIS10	0.163	
144	 NE2	2198.149	667.230	-2274.340	N.pl3	10	HIS10	-0.280	
145	   H	2194.015	670.314	-2274.260	 H	10	HIS10	0.272	
146	  HA	2196.452	670.793	-2275.655	 H	10	HIS10	0.136	
147	 2HB	2194.902	668.540	-2276.854	 H	10	HIS10	0.037	
148	 3HB	2194.513	668.571	-2275.133	 H	10	HIS10	0.037	
149	 2HD	2196.350	668.078	-2273.384	 H	10	HIS10	0.186	
150	 1HE	2199.302	666.810	-2276.123	 H	10	HIS10	0.144	
151	 2HE	2198.716	666.853	-2273.567	 H	10	HIS10	0.334	
152	   N	2193.828	671.000	-2277.594	N.am	11	VAL11	-0.416	
153	  CA	2193.473	671.545	-2278.901	C.3	11	VAL11	-0.087	
154	   C	2193.938	672.976	-2279.034	C.2	11	VAL11	0.597	
155	   O	2194.539	673.380	-2280.037	O.2	11	VAL11	-0.568	
156	  CB	2191.912	671.439	-2279.120	C.3	11	VAL11	0.299	
157	 CG1	2191.343	672.143	-2280.383	C.3	11	VAL11	-0.319	
158	 CG2	2191.386	669.985	-2279.192	C.3	11	VAL11	-0.319	
159	   H	2193.115	670.628	-2276.983	 H	11	VAL11	0.272	
160	  HA	2193.992	670.962	-2279.683	 H	11	VAL11	0.097	
161	  HB	2191.425	671.920	-2278.245	 H	11	VAL11	-0.030	
162	1HG1	2191.781	671.750	-2281.320	 H	11	VAL11	0.079	
163	2HG1	2190.244	672.036	-2280.465	 H	11	VAL11	0.079	
164	3HG1	2191.522	673.235	-2280.374	 H	11	VAL11	0.079	
165	1HG2	2191.676	669.399	-2278.301	 H	11	VAL11	0.079	
166	2HG2	2190.281	669.949	-2279.235	 H	11	VAL11	0.079	
167	3HG2	2191.768	669.444	-2280.078	 H	11	VAL11	0.079	
168	   N	2193.702	673.802	-2278.072	N.am	12	GLN12	-0.416	
169	  CA	2194.151	675.185	-2278.200	C.3	12	GLN12	-0.003	
170	   C	2195.641	675.251	-2278.438	C.2	12	GLN12	0.597	
171	   O	2196.128	675.959	-2279.317	O.2	12	GLN12	-0.568	
172	  CB	2193.761	675.953	-2276.918	C.3	12	GLN12	-0.004	
173	  CG	2194.122	677.474	-2276.887	C.3	12	GLN12	-0.064	
174	  CD	2193.821	678.289	-2275.623	C.2	12	GLN12	0.695	
175	 NE2	2193.253	677.713	-2274.594	N.pl3	12	GLN12	-0.941	
176	 OE1	2194.123	679.470	-2275.546	O.2	12	GLN12	-0.609	
177	   H	2193.213	673.496	-2277.243	 H	12	GLN12	0.272	
178	  HA	2193.652	675.641	-2279.075	 H	12	GLN12	0.085	
179	 2HB	2194.237	675.453	-2276.048	 H	12	GLN12	0.017	
180	 3HB	2192.671	675.846	-2276.754	 H	12	GLN12	0.017	
181	 2HG	2193.645	677.995	-2277.738	 H	12	GLN12	0.035	
182	 3HG	2195.206	677.616	-2277.053	 H	12	GLN12	0.035	
183	1HE2	2193.147	678.308	-2273.771	 H	12	GLN12	0.425	
184	2HE2	2193.089	676.710	-2274.697	 H	12	GLN12	0.425	
185	   N	2196.426	674.544	-2277.697	N.am	13	ARG13	-0.348	
186	  CA	2197.866	674.609	-2277.928	C.3	13	ARG13	-0.264	
187	   C	2198.201	674.237	-2279.353	C.2	13	ARG13	0.734	
188	   O	2198.970	674.908	-2280.038	O.2	13	ARG13	-0.589	
189	  CB	2198.579	673.671	-2276.914	C.3	13	ARG13	-0.001	
190	  CG	2200.124	673.824	-2276.833	C.3	13	ARG13	0.039	
191	  CD	2200.751	672.837	-2275.835	C.3	13	ARG13	0.049	
192	  NE	2202.228	673.043	-2275.785	N.pl3	13	ARG13	-0.530	
193	  CZ	2203.076	672.352	-2275.030	C.cat	13	ARG13	0.808	
194	 NH1	2202.711	671.389	-2274.231	N.pl3	13	ARG13	-0.863	
195	 NH2	2204.336	672.651	-2275.087	N.pl3	13	ARG13	-0.863	
196	   H	2196.049	673.955	-2276.968	 H	13	ARG13	0.275	
197	  HA	2198.190	675.655	-2277.771	 H	13	ARG13	0.156	
198	 2HB	2198.312	672.620	-2277.152	 H	13	ARG13	0.033	
199	 3HB	2198.154	673.838	-2275.903	 H	13	ARG13	0.033	
200	 2HG	2200.373	674.869	-2276.555	 H	13	ARG13	0.029	
201	 3HG	2200.574	673.667	-2277.835	 H	13	ARG13	0.029	
202	 2HD	2200.506	671.796	-2276.143	 H	13	ARG13	0.069	
203	 3HD	2200.295	672.983	-2274.833	 H	13	ARG13	0.069	
204	  HE	2202.679	673.765	-2276.357	 H	13	ARG13	0.346	
205	1HH1	2201.706	671.203	-2274.234	 H	13	ARG13	0.448	
206	2HH1	2203.425	670.906	-2273.683	 H	13	ARG13	0.448	
207	1HH2	2204.604	673.408	-2275.719	 H	13	ARG13	0.448	
208	2HH2	2204.971	672.110	-2274.499	 H	13	ARG13	0.448	
209	   N	2197.665	673.182	-2279.867	N.am	14	GLY14	-0.416	
210	  CA	2197.990	672.823	-2281.244	C.3	14	GLY14	-0.025	
211	   C	2197.660	673.952	-2282.190	C.2	14	GLY14	0.597	
212	   O	2198.452	674.331	-2283.057	O.2	14	GLY14	-0.568	
213	   H	2197.030	672.614	-2279.325	 H	14	GLY14	0.272	
214	 3HA	2197.427	671.975	-2281.505	 H	14	GLY14	0.070	
215	  HA	2199.075	672.624	-2281.317	 H	14	GLY14	0.070	
216	   N	2196.515	674.538	-2282.089	N.am	15	MET15	-0.416	
217	  CA	2196.196	675.631	-2283.004	C.3	15	MET15	-0.024	
218	   C	2197.226	676.730	-2282.916	C.2	15	MET15	0.597	
219	   O	2197.729	677.241	-2283.929	O.2	15	MET15	-0.568	
220	  CB	2194.774	676.177	-2282.695	C.3	15	MET15	0.034	
221	  CG	2193.612	675.179	-2282.887	C.3	15	MET15	0.002	
222	  SD	2192.038	676.045	-2282.774	S.3	15	MET15	-0.274	
223	  CE	2190.957	674.616	-2282.636	C.3	15	MET15	-0.054	
224	   H	2195.850	674.246	-2281.388	 H	15	MET15	0.272	
225	  HA	2196.221	675.243	-2284.039	 H	15	MET15	0.088	
226	 2HB	2194.572	677.055	-2283.338	 H	15	MET15	0.024	
227	 3HB	2194.738	676.570	-2281.659	 H	15	MET15	0.024	
228	 2HG	2193.655	674.393	-2282.109	 H	15	MET15	0.044	
229	 3HG	2193.675	674.663	-2283.863	 H	15	MET15	0.044	
230	 1HE	2191.101	673.927	-2283.489	 H	15	MET15	0.068	
231	 2HE	2191.166	674.063	-2281.703	 H	15	MET15	0.068	
232	 3HE	2189.899	674.932	-2282.620	 H	15	MET15	0.068	
233	   N	2197.594	677.152	-2281.754	N.am	16	ARG16	-0.348	
234	  CA	2198.591	678.215	-2281.670	C.3	16	ARG16	-0.264	
235	   C	2199.862	677.822	-2282.386	C.2	16	ARG16	0.734	
236	   O	2199.976	676.746	-2282.966	O.2	16	ARG16	-0.589	
237	  CB	2198.859	678.534	-2280.172	C.3	16	ARG16	-0.001	
238	  CG	2199.684	679.823	-2279.899	C.3	16	ARG16	0.039	
239	  CD	2199.933	680.043	-2278.398	C.3	16	ARG16	0.049	
240	  NE	2200.709	681.302	-2278.198	N.pl3	16	ARG16	-0.530	
241	  CZ	2201.100	681.785	-2277.022	C.cat	16	ARG16	0.808	
242	 NH1	2200.852	681.201	-2275.883	N.pl3	16	ARG16	-0.863	
243	 NH2	2201.764	682.898	-2277.004	N.pl3	16	ARG16	-0.863	
244	   H	2197.199	676.752	-2280.915	 H	16	ARG16	0.275	
245	  HA	2198.182	679.108	-2282.181	 H	16	ARG16	0.156	
246	 2HB	2199.356	677.658	-2279.705	 H	16	ARG16	0.033	
247	 3HB	2197.890	678.615	-2279.639	 H	16	ARG16	0.033	
248	 2HG	2199.154	680.694	-2280.337	 H	16	ARG16	0.029	
249	 3HG	2200.658	679.770	-2280.428	 H	16	ARG16	0.029	
250	 2HD	2200.482	679.169	-2277.984	 H	16	ARG16	0.069	
251	 3HD	2198.960	680.086	-2277.864	 H	16	ARG16	0.069	
252	  HE	2200.988	681.883	-2278.995	 H	16	ARG16	0.346	
253	1HH1	2200.326	680.328	-2275.968	 H	16	ARG16	0.448	
254	2HH1	2201.186	681.637	-2275.022	 H	16	ARG16	0.448	
255	1HH2	2201.950	683.340	-2277.906	 H	16	ARG16	0.448	
256	2HH2	2202.054	683.254	-2276.091	 H	16	ARG16	0.448	
@<TRIPOS>BOND
1 1 2 1
2 1 10 1
3 2 3 1
4 2 5 1
5 2 11 1
6 3 4 2
7 3 16 1
8 5 6 1
9 6 7 1
10 7 8 2
11 7 9 1
12 5 12 1
13 5 13 1
14 6 14 1
15 6 15 1
16 16 17 1
17 16 24 1
18 17 18 1
19 17 20 1
20 17 25 1
21 18 19 2
22 18 30 1
23 20 21 1
24 21 22 1
25 21 23 2
26 20 26 1
27 20 27 1
28 22 28 1
29 22 29 1
30 30 31 1
31 30 36 1
32 31 32 1
33 31 34 1
34 31 37 1
35 32 33 2
36 32 44 1
37 34 35 1
38 35 36 1
39 34 38 1
40 34 39 1
41 35 40 1
42 35 41 1
43 36 42 1
44 36 43 1
45 44 45 1
46 44 53 1
47 45 46 1
48 45 48 1
49 45 54 1
50 46 47 2
51 46 59 1
52 48 49 1
53 49 50 1
54 50 51 2
55 50 52 1
56 48 55 1
57 48 56 1
58 49 57 1
59 49 58 1
60 59 60 1
61 59 65 1
62 60 61 1
63 60 63 1
64 60 66 1
65 61 62 2
66 61 70 1
67 63 64 1
68 63 67 1
69 63 68 1
70 64 69 1
71 70 71 1
72 70 78 1
73 71 72 1
74 71 74 1
75 71 79 1
76 72 73 2
77 72 89 1
78 74 75 1
79 74 76 1
80 75 77 1
81 74 80 1
82 75 81 1
83 75 82 1
84 76 83 1
85 76 84 1
86 76 85 1
87 77 86 1
88 77 87 1
89 77 88 1
90 89 90 1
91 89 97 1
92 90 91 1
93 90 93 1
94 90 98 1
95 91 92 2
96 91 108 1
97 93 94 1
98 94 95 1
99 94 96 1
100 93 99 1
101 93 100 1
102 94 101 1
103 95 102 1
104 95 103 1
105 95 104 1
106 96 105 1
107 96 106 1
108 96 107 1
109 108 109 1
110 108 116 1
111 109 110 1
112 109 112 1
113 109 117 1
114 110 111 2
115 110 120 1
116 112 113 1
117 113 114 2
118 113 115 1
119 112 118 1
120 112 119 1
121 120 121 1
122 120 129 1
123 121 122 1
124 121 124 1
125 121 130 1
126 122 123 2
127 122 135 1
128 124 125 1
129 125 126 1
130 126 127 2
131 126 128 1
132 124 131 1
133 124 132 1
134 125 133 1
135 125 134 1
136 135 136 1
137 135 145 1
138 136 137 1
139 136 139 1
140 136 146 1
141 137 138 2
142 137 152 1
143 139 140 1
144 140 141 2
145 141 144 1
146 140 142 1
147 142 143 2
148 143 144 1
149 139 147 1
150 139 148 1
151 141 149 1
152 143 150 1
153 144 151 1
154 152 153 1
155 152 159 1
156 153 154 1
157 153 156 1
158 153 160 1
159 154 155 2
160 154 168 1
161 156 157 1
162 156 158 1
163 156 161 1
164 157 162 1
165 157 163 1
166 157 164 1
167 158 165 1
168 158 166 1
169 158 167 1
170 168 169 1
171 168 177 1
172 169 170 1
173 169 172 1
174 169 178 1
175 170 171 2
176 170 185 1
177 172 173 1
178 173 174 1
179 174 175 1
180 174 176 2
181 172 179 1
182 172 180 1
183 173 181 1
184 173 182 1
185 175 183 1
186 175 184 1
187 185 186 1
188 185 196 1
189 186 187 1
190 186 189 1
191 186 197 1
192 187 188 2
193 187 209 1
194 189 190 1
195 190 191 1
196 191 192 1
197 192 193 1
198 193 194 2
199 193 195 1
200 189 198 1
201 189 199 1
202 190 200 1
203 190 201 1
204 191 202 1
205 191 203 1
206 192 204 1
207 194 205 1
208 194 206 1
209 195 207 1
210 195 208 1
211 209 210 1
212 209 213 1
213 210 211 1
214 210 214 1
215 210 215 1
216 211 212 2
217 211 216 1
218 216 217 1
219 216 224 1
220 217 218 1
221 217 220 1
222 217 225 1
223 218 219 2
224 218 233 1
225 220 221 1
226 221 222 1
227 222 223 1
228 220 226 1
229 220 227 1
230 221 228 1
231 221 229 1
232 223 230 1
233 223 231 1
234 223 232 1
235 233 234 1
236 233 244 1
237 234 235 1
238 234 237 1
239 234 245 1
240 235 236 2
241 237 238 1
242 238 239 1
243 239 240 1
244 240 241 1
245 241 242 2
246 241 243 1
247 237 246 1
248 237 247 1
249 238 248 1
250 238 249 1
251 239 250 1
252 239 251 1
253 240 252 1
254 242 253 1
255 242 254 1
256 243 255 1
257 243 256 1
@<TRIPOS>SUBSTRUCTURE
1	GLU1	1	RESIDUE	1 ****	GLU
2	ASN2	16	RESIDUE	1 ****	ASN
3	PRO3	30	RESIDUE	1 ****	PRO
4	GLU4	44	RESIDUE	1 ****	GLU
5	SER5	59	RESIDUE	1 ****	SER
6	ILE6	70	RESIDUE	1 ****	ILE
7	LEU7	89	RESIDUE	1 ****	LEU
8	ASP8	108	RESIDUE	1 ****	ASP
9	GLU9	120	RESIDUE	1 ****	GLU
10	HIS10	135	RESIDUE	1 ****	HIS
11	VAL11	152	RESIDUE	1 ****	VAL
12	GLN12	168	RESIDUE	1 ****	GLN
13	ARG13	185	RESIDUE	1 ****	ARG
14	GLY14	209	RESIDUE	1 ****	GLY
15	MET15	216	RESIDUE	1 ****	MET
16	ARG16	233	RESIDUE	1 ****	ARG
