REMARK WARNING: 32 MAX_TORS EXCEEDED!!!
REMARK  68 active torsions:
REMARK  status: ('A' for Active; 'I' for Inactive)
REMARK    1  A    between atoms: N_1  and  CA_2 
REMARK    2  A    between atoms: CA_2  and  C_3 
REMARK    3  A    between atoms: CA_2  and  CB_5 
REMARK       I    between atoms: C_3  and  N_11 
REMARK    4  A    between atoms: CB_5  and  CG_6 
REMARK    5  A    between atoms: CG_6  and  CD_7 
REMARK    6  A    between atoms: N_11  and  CA_12 
REMARK    7  A    between atoms: CA_12  and  C_13 
REMARK    8  A    between atoms: CA_12  and  CB_15 
REMARK       I    between atoms: C_13  and  N_22 
REMARK    9  A    between atoms: CB_15  and  CG_16 
REMARK       I    between atoms: CG_16  and  ND2_17 
REMARK   10  A    between atoms: CA_23  and  C_24 
REMARK       I    between atoms: C_24  and  N_29 
REMARK   11  A    between atoms: N_29  and  CA_30 
REMARK   12  A    between atoms: CA_30  and  C_31 
REMARK   13  A    between atoms: CA_30  and  CB_33 
REMARK       I    between atoms: C_31  and  N_39 
REMARK   14  A    between atoms: CB_33  and  CG_34 
REMARK   15  A    between atoms: CG_34  and  CD_35 
REMARK   16  A    between atoms: N_39  and  CA_40 
REMARK   17  A    between atoms: CA_40  and  C_41 
REMARK   18  A    between atoms: CA_40  and  CB_43 
REMARK       I    between atoms: C_41  and  N_47 
REMARK   19  A    between atoms: CB_43  and  OG_44 
REMARK   20  A    between atoms: N_47  and  CA_48 
REMARK   21  A    between atoms: CA_48  and  C_49 
REMARK   22  A    between atoms: CA_48  and  CB_51 
REMARK       I    between atoms: C_49  and  N_56 
REMARK   23  A    between atoms: CB_51  and  CG1_52 
REMARK   24  A    between atoms: N_56  and  CA_57 
REMARK   25  A    between atoms: CA_57  and  C_58 
REMARK   26  A    between atoms: CA_57  and  CB_60 
REMARK       I    between atoms: C_58  and  N_65 
REMARK   27  A    between atoms: CB_60  and  CG_61 
REMARK   28  A    between atoms: N_65  and  CA_66 
REMARK   29  A    between atoms: CA_66  and  C_67 
REMARK   30  A    between atoms: CA_66  and  CB_69 
REMARK       I    between atoms: C_67  and  N_74 
REMARK   31  A    between atoms: CB_69  and  CG_70 
REMARK   32  A    between atoms: N_74  and  CA_75 
REMARK   33  A    between atoms: CA_75  and  C_76 
REMARK   34  A    between atoms: CA_75  and  CB_78 
REMARK       I    between atoms: C_76  and  N_84 
REMARK   35  A    between atoms: CB_78  and  CG_79 
REMARK   36  A    between atoms: CG_79  and  CD_80 
REMARK   37  A    between atoms: N_84  and  CA_85 
REMARK   38  A    between atoms: CA_85  and  C_86 
REMARK   39  A    between atoms: CA_85  and  CB_88 
REMARK       I    between atoms: C_86  and  N_96 
REMARK   40  A    between atoms: CB_88  and  CG_89 
REMARK   41  A    between atoms: N_96  and  CA_97 
REMARK   42  A    between atoms: CA_97  and  C_98 
REMARK   43  A    between atoms: CA_97  and  CB_100 
REMARK       I    between atoms: C_98  and  N_104 
REMARK   44  A    between atoms: N_104  and  CA_105 
REMARK   45  A    between atoms: CA_105  and  C_106 
REMARK   46  A    between atoms: CA_105  and  CB_108 
REMARK       I    between atoms: C_106  and  N_113 
REMARK   47  A    between atoms: CB_108  and  CG_109 
REMARK   48  A    between atoms: CG_109  and  SD_110 
REMARK   49  A    between atoms: N_113  and  CA_114 
REMARK   50  A    between atoms: CA_114  and  C_115 
REMARK   51  A    between atoms: CA_114  and  CB_117 
REMARK       I    between atoms: C_115  and  N_130 
REMARK   52  A    between atoms: CB_117  and  CG_118 
REMARK   53  A    between atoms: CG_118  and  CD_119 
REMARK   54  A    between atoms: CD_119  and  NE_120 
REMARK       I    between atoms: NE_120  and  CZ_121 
REMARK       I    between atoms: CZ_121  and  NH1_122 
REMARK       I    between atoms: CZ_121  and  NH2_123 
REMARK   55  A    between atoms: N_130  and  CA_131 
REMARK   56  A    between atoms: CA_131  and  C_132 
REMARK   57  A    between atoms: CA_131  and  CB_134 
REMARK       I    between atoms: C_132  and  N_138 
REMARK   58  A    between atoms: N_138  and  CA_139 
REMARK   59  A    between atoms: CA_139  and  C_140 
REMARK   60  A    between atoms: CA_139  and  CB_142 
REMARK       I    between atoms: C_140  and  N_147 
REMARK   61  A    between atoms: CB_142  and  CG_143 
REMARK   62  A    between atoms: CG_143  and  SD_144 
REMARK   63  A    between atoms: N_147  and  CA_148 
REMARK   64  A    between atoms: CA_148  and  C_149 
REMARK   65  A    between atoms: CA_148  and  CB_151 
REMARK   66  A    between atoms: CB_151  and  CG_152 
REMARK   67  A    between atoms: CG_152  and  CD_153 
REMARK   68  A    between atoms: CD_153  and  NE_154 
REMARK       I    between atoms: NE_154  and  CZ_155 
REMARK       I    between atoms: CZ_155  and  NH1_156 
ROOT
ATOM      1  C   GLU d   9    1888.688 571.247-1937.212  0.00  0.00     0.241 C 
ATOM      2  O   GLU d   9    1889.352 572.002-1937.937  0.00  0.00    -0.271 OA
ATOM      3  N   HIS d  10    1888.785 569.972-1937.381  0.00  0.00    -0.346 N 
ATOM      4  H   HIS d  10    1888.255 569.336-1936.803  0.00  0.00     0.163 HD
ENDROOT
BRANCH   1   5
ATOM      5  CA  GLU d   9    1887.770 571.774-1936.135  0.00  0.00     0.177 C 
BRANCH   5   6
ATOM      6  N   GLU d   9    1886.468 571.116-1936.191  0.00  0.00    -0.346 N 
ATOM      7  C   ASP d   8    1885.788 571.166-1937.286  0.00  0.00     0.241 C 
ATOM      8  O   ASP d   8    1886.260 571.772-1938.261  0.00  0.00    -0.271 OA
ATOM      9  H   GLU d   9    1886.104 570.630-1935.384  0.00  0.00     0.163 HD
BRANCH   7  10
ATOM     10  CA  ASP d   8    1884.441 570.486-1937.343  0.00  0.00     0.186 C 
BRANCH  10  11
ATOM     11  N   ASP d   8    1884.512 569.137-1936.790  0.00  0.00    -0.346 N 
ATOM     12  C   LEU d   7    1885.349 568.296-1937.297  0.00  0.00     0.241 C 
ATOM     13  O   LEU d   7    1886.070 568.659-1938.238  0.00  0.00    -0.271 OA
ATOM     14  H   ASP d   8    1883.914 568.865-1936.023  0.00  0.00     0.163 HD
BRANCH  12  15
ATOM     15  CA  LEU d   7    1885.422 566.901-1936.724  0.00  0.00     0.177 C 
BRANCH  15  16
ATOM     16  N   LEU d   7    1885.477 566.937-1935.266  0.00  0.00    -0.346 N 
ATOM     17  C   ILE d   6    1886.422 567.601-1934.692  0.00  0.00     0.241 C 
ATOM     18  O   ILE d   6    1887.257 568.189-1935.396  0.00  0.00    -0.271 OA
ATOM     19  H   LEU d   7    1884.785 566.450-1934.714  0.00  0.00     0.163 HD
BRANCH  17  20
ATOM     20  CA  ILE d   6    1886.480 567.638-1933.184  0.00  0.00     0.180 C 
BRANCH  20  21
ATOM     21  N   ILE d   6    1885.167 567.933-1932.618  0.00  0.00    -0.346 N 
ATOM     22  C   SER d   5    1884.562 569.016-1932.972  0.00  0.00     0.243 C 
ATOM     23  O   SER d   5    1885.109 569.769-1933.777  0.00  0.00    -0.271 OA
ATOM     24  H   ILE d   6    1884.738 567.299-1931.959  0.00  0.00     0.163 HD
BRANCH  22  25
ATOM     25  CA  SER d   5    1883.203 569.321-1932.386  0.00  0.00     0.200 C 
BRANCH  25  26
ATOM     26  N   SER d   5    1882.333 568.150-1932.445  0.00  0.00    -0.344 N 
ATOM     27  C   GLU d   4    1882.106 567.597-1933.588  0.00  0.00     0.241 C 
ATOM     28  O   GLU d   4    1882.632 568.077-1934.603  0.00  0.00    -0.271 OA
ATOM     29  H   SER d   5    1881.916 567.779-1931.603  0.00  0.00     0.163 HD
BRANCH  27  30
ATOM     30  CA  GLU d   4    1881.207 566.386-1933.649  0.00  0.00     0.177 C 
BRANCH  30  31
ATOM     31  N   GLU d   4    1881.567 565.415-1932.620  0.00  0.00    -0.346 N 
ATOM     32  C   PRO d   3    1882.771 564.955-1932.587  0.00  0.00     0.241 C 
ATOM     33  O   PRO d   3    1883.595 565.338-1933.419  0.00  0.00    -0.271 OA
ATOM     34  H   GLU d   4    1880.882 565.109-1931.943  0.00  0.00     0.163 HD
BRANCH  32  35
ATOM     35  CA  PRO d   3    1883.169 563.932-1931.510  0.00  0.00     0.179 C 
ATOM     36  N   PRO d   3    1882.718 564.341-1930.189  0.00  0.00    -0.337 N 
ATOM     37  C   ASN d   2    1883.239 565.336-1929.555  0.00  0.00     0.243 C 
ATOM     38  CD  PRO d   3    1881.640 563.548-1929.640  0.00  0.00     0.127 C 
ATOM     39  O   ASN d   2    1884.154 565.967-1930.083  0.00  0.00    -0.271 OA
ATOM     40  CG  PRO d   3    1881.182 562.729-1930.849  0.00  0.00     0.022 C 
ATOM     41  CB  PRO d   3    1882.465 562.577-1931.680  0.00  0.00     0.037 C 
BRANCH  37  42
ATOM     42  CA  ASN d   2    1882.708 565.692-1928.186  0.00  0.00     0.185 C 
BRANCH  42  43
ATOM     43  N   ASN d   2    1881.249 565.730-1928.186  0.00  0.00    -0.346 N 
ATOM     44  C   GLU d   1    1880.644 566.516-1929.011  0.00  0.00     0.242 C 
ATOM     45  O   GLU d   1    1881.320 567.215-1929.780  0.00  0.00    -0.271 OA
ATOM     46  H   ASN d   2    1880.721 565.151-1927.550  0.00  0.00     0.163 HD
BRANCH  44  47
ATOM     47  CA  GLU d   1    1879.135 566.556-1929.011  0.00  0.00     0.191 C 
BRANCH  47  48
ATOM     48  N   GLU d   1    1878.576 565.207-1929.011  0.00  0.00    -0.326 NA
ATOM     49  H   GLU d   1    1879.203 564.328-1929.011  0.00  0.00     0.180 HD
ENDBRANCH  47  48
BRANCH  47  50
ATOM     50  CB  GLU d   1    1878.612 567.341-1927.774  0.00  0.00     0.047 C 
BRANCH  50  51
ATOM     51  CG  GLU d   1    1879.087 568.826-1927.663  0.00  0.00     0.116 C 
BRANCH  51  52
ATOM     52  CD  GLU d   1    1878.663 569.630-1926.448  0.00  0.00     0.172 C 
ATOM     53  OE1 GLU d   1    1877.935 569.128-1925.570  0.00  0.00    -0.648 OA
ATOM     54  OE2 GLU d   1    1879.093 570.800-1926.376  0.00  0.00    -0.648 OA
ENDBRANCH  51  52
ENDBRANCH  50  51
ENDBRANCH  47  50
ENDBRANCH  44  47
ENDBRANCH  42  43
BRANCH  42  55
ATOM     55  CB  ASN d   2    1883.200 564.669-1927.122  0.00  0.00     0.137 C 
BRANCH  55  56
ATOM     56  CG  ASN d   2    1882.737 564.893-1925.678  0.00  0.00     0.217 C 
ATOM     57  ND2 ASN d   2    1883.331 565.808-1924.960  0.00  0.00    -0.370 N 
ATOM     58 21HD ASN d   2    1882.850 565.981-1924.074  0.00  0.00     0.159 HD
ATOM     59 22HD ASN d   2    1884.033 566.379-1925.429  0.00  0.00     0.159 HD
ATOM     60  OD1 ASN d   2    1881.816 564.259-1925.184  0.00  0.00    -0.274 OA
ENDBRANCH  55  56
ENDBRANCH  42  55
ENDBRANCH  37  42
ENDBRANCH  32  35
ENDBRANCH  30  31
BRANCH  30  61
ATOM     61  CB  GLU d   4    1879.719 566.805-1933.479  0.00  0.00     0.045 C 
BRANCH  61  62
ATOM     62  CG  GLU d   4    1879.171 567.809-1934.545  0.00  0.00     0.116 C 
BRANCH  62  63
ATOM     63  CD  GLU d   4    1877.744 568.306-1934.401  0.00  0.00     0.172 C 
ATOM     64  OE1 GLU d   4    1877.018 567.907-1933.470  0.00  0.00    -0.648 OA
ATOM     65  OE2 GLU d   4    1877.354 569.135-1935.249  0.00  0.00    -0.648 OA
ENDBRANCH  62  63
ENDBRANCH  61  62
ENDBRANCH  30  61
ENDBRANCH  27  30
ENDBRANCH  25  26
BRANCH  25  66
ATOM     66  CB  SER d   5    1883.314 569.854-1930.936  0.00  0.00     0.199 C 
BRANCH  66  67
ATOM     67  OG  SER d   5    1884.046 568.975-1930.075  0.00  0.00    -0.398 OA
ATOM     68  HG  SER d   5    1883.557 568.150-1930.024  0.00  0.00     0.209 HD
ENDBRANCH  66  67
ENDBRANCH  25  66
ENDBRANCH  22  25
ENDBRANCH  20  21
BRANCH  20  69
ATOM     69  CB  ILE d   6    1887.080 566.302-1932.584  0.00  0.00     0.013 C 
ATOM     70  CG2 ILE d   6    1888.521 566.000-1933.099  0.00  0.00     0.012 C 
BRANCH  69  71
ATOM     71  CG1 ILE d   6    1887.099 566.240-1931.023  0.00  0.00     0.002 C 
ATOM     72  CD1 ILE d   6    1887.369 564.851-1930.408  0.00  0.00     0.005 C 
ENDBRANCH  69  71
ENDBRANCH  20  69
ENDBRANCH  17  20
ENDBRANCH  15  16
BRANCH  15  73
ATOM     73  CB  LEU d   7    1884.219 566.040-1937.204  0.00  0.00     0.038 C 
BRANCH  73  74
ATOM     74  CG  LEU d   7    1884.146 564.561-1936.738  0.00  0.00    -0.020 C 
ATOM     75  CD1 LEU d   7    1882.957 563.855-1937.403  0.00  0.00     0.009 C 
ATOM     76  CD2 LEU d   7    1885.440 563.782-1937.029  0.00  0.00     0.009 C 
ENDBRANCH  73  74
ENDBRANCH  15  73
ENDBRANCH  12  15
ENDBRANCH  10  11
BRANCH  10  77
ATOM     77  CB  ASP d   8    1883.363 571.325-1936.602  0.00  0.00     0.147 C 
BRANCH  77  78
ATOM     78  CG  ASP d   8    1883.144 572.746-1937.142  0.00  0.00     0.175 C 
ATOM     79  OD1 ASP d   8    1883.208 572.945-1938.372  0.00  0.00    -0.648 OA
ATOM     80  OD2 ASP d   8    1882.951 573.671-1936.326  0.00  0.00    -0.648 OA
ENDBRANCH  77  78
ENDBRANCH  10  77
ENDBRANCH   7  10
ENDBRANCH   5   6
BRANCH   5  81
ATOM     81  CB  GLU d   9    1888.404 571.567-1934.730  0.00  0.00     0.045 C 
BRANCH  81  82
ATOM     82  CG  GLU d   9    1889.786 572.260-1934.501  0.00  0.00     0.116 C 
BRANCH  82  83
ATOM     83  CD  GLU d   9    1890.488 572.047-1933.173  0.00  0.00     0.172 C 
ATOM     84  OE1 GLU d   9    1889.967 571.355-1932.276  0.00  0.00    -0.648 OA
ATOM     85  OE2 GLU d   9    1891.607 572.585-1933.041  0.00  0.00    -0.648 OA
ENDBRANCH  82  83
ENDBRANCH  81  82
ENDBRANCH   5  81
ENDBRANCH   1   5
BRANCH   3  86
ATOM     86  CA  HIS d  10    1889.673 569.462-1938.422  0.00  0.00     0.182 C 
BRANCH  86  87
ATOM     87  C   HIS d  10    1889.306 570.026-1939.773  0.00  0.00     0.241 C 
ATOM     88  O   HIS d  10    1890.158 570.492-1940.545  0.00  0.00    -0.271 OA
ATOM     89  N   VAL d  11    1888.068 570.025-1940.136  0.00  0.00    -0.346 N 
ATOM     90  H   VAL d  11    1887.355 569.651-1939.525  0.00  0.00     0.163 HD
BRANCH  89  91
ATOM     91  CA  VAL d  11    1887.712 570.571-1941.442  0.00  0.00     0.180 C 
BRANCH  91  92
ATOM     92  C   VAL d  11    1888.176 572.002-1941.575  0.00  0.00     0.241 C 
ATOM     93  O   VAL d  11    1888.776 572.407-1942.578  0.00  0.00    -0.271 OA
ATOM     94  N   MET d  12    1887.938 572.827-1940.612  0.00  0.00    -0.346 N 
ATOM     95  H   MET d  12    1887.450 572.520-1939.783  0.00  0.00     0.163 HD
BRANCH  94  96
ATOM     96  CA  MET d  12    1888.386 574.211-1940.739  0.00  0.00     0.177 C 
BRANCH  96  97
ATOM     97  C   MET d  12    1889.875 574.280-1940.977  0.00  0.00     0.241 C 
ATOM     98  O   MET d  12    1890.365 574.996-1941.863  0.00  0.00    -0.271 OA
ATOM     99  N   ARG d  13    1890.661 573.573-1940.237  0.00  0.00    -0.346 N 
ATOM    100  H   ARG d  13    1890.285 572.983-1939.508  0.00  0.00     0.163 HD
BRANCH  99 101
ATOM    101  CA  ARG d  13    1892.101 573.641-1940.468  0.00  0.00     0.176 C 
BRANCH 101 102
ATOM    102  C   ARG d  13    1892.437 573.270-1941.893  0.00  0.00     0.241 C 
ATOM    103  O   ARG d  13    1893.204 573.943-1942.577  0.00  0.00    -0.271 OA
ATOM    104  N   VAL d  14    1891.901 572.215-1942.408  0.00  0.00    -0.346 N 
ATOM    105  H   VAL d  14    1891.267 571.646-1941.866  0.00  0.00     0.163 HD
BRANCH 104 106
ATOM    106  CA  VAL d  14    1892.225 571.857-1943.786  0.00  0.00     0.180 C 
BRANCH 106 107
ATOM    107  C   VAL d  14    1891.894 572.987-1944.731  0.00  0.00     0.241 C 
ATOM    108  O   VAL d  14    1892.687 573.370-1945.600  0.00  0.00    -0.271 OA
ATOM    109  N   MET d  15    1890.749 573.572-1944.628  0.00  0.00    -0.346 N 
ATOM    110  H   MET d  15    1890.084 573.278-1943.926  0.00  0.00     0.163 HD
BRANCH 109 111
ATOM    111  CA  MET d  15    1890.427 574.665-1945.541  0.00  0.00     0.177 C 
BRANCH 111 112
ATOM    112  C   MET d  15    1891.456 575.766-1945.453  0.00  0.00     0.241 C 
ATOM    113  O   MET d  15    1891.958 576.277-1946.466  0.00  0.00    -0.271 OA
ATOM    114  N   ARG d  16    1891.825 576.186-1944.291  0.00  0.00    -0.347 N 
ATOM    115  H   ARG d  16    1891.431 575.785-1943.452  0.00  0.00     0.163 HD
BRANCH 114 116
ATOM    116  CA  ARG d  16    1892.821 577.251-1944.207  0.00  0.00     0.162 C 
BRANCH 116 117
ATOM    117  C   ARG d  16    1894.091 576.860-1944.924  0.00  0.00     0.219 C 
ATOM    118  O   ARG d  16    1894.206 575.784-1945.506  0.00  0.00    -0.287 OA
ENDBRANCH 116 117
BRANCH 116 119
ATOM    119  CB  ARG d  16    1893.090 577.568-1942.709  0.00  0.00     0.035 C 
BRANCH 119 120
ATOM    120  CG  ARG d  16    1893.914 578.858-1942.435  0.00  0.00     0.023 C 
BRANCH 120 121
ATOM    121  CD  ARG d  16    1894.164 579.077-1940.934  0.00  0.00     0.138 C 
BRANCH 121 122
ATOM    122  NE  ARG d  16    1894.939 580.336-1940.733  0.00  0.00    -0.227 N 
ATOM    123  CZ  ARG d  16    1895.331 580.818-1939.557  0.00  0.00     0.665 C 
ATOM    124  NH1 ARG d  16    1895.084 580.233-1938.418  0.00  0.00    -0.235 N 
ATOM    125  NH2 ARG d  16    1895.993 581.931-1939.538  0.00  0.00    -0.235 N 
ATOM    126 11HH ARG d  16    1894.559 579.359-1938.504  0.00  0.00     0.174 HD
ATOM    127 12HH ARG d  16    1895.418 580.668-1937.557  0.00  0.00     0.174 HD
ATOM    128 21HH ARG d  16    1896.178 582.375-1940.439  0.00  0.00     0.174 HD
ATOM    129 22HH ARG d  16    1896.284 582.286-1938.625  0.00  0.00     0.174 HD
ATOM    130  HE  ARG d  16    1895.217 580.918-1941.529  0.00  0.00     0.177 HD
ENDBRANCH 121 122
ENDBRANCH 120 121
ENDBRANCH 119 120
ENDBRANCH 116 119
ENDBRANCH 114 116
ENDBRANCH 111 112
BRANCH 111 131
ATOM    131  CB  MET d  15    1889.005 575.209-1945.231  0.00  0.00     0.045 C 
BRANCH 131 132
ATOM    132  CG  MET d  15    1887.844 574.210-1945.423  0.00  0.00     0.076 C 
BRANCH 132 133
ATOM    133  SD  MET d  15    1886.269 575.075-1945.307  0.00  0.00    -0.173 SA
ATOM    134  CE  MET d  15    1885.189 573.645-1945.171  0.00  0.00     0.089 C 
ENDBRANCH 132 133
ENDBRANCH 131 132
ENDBRANCH 111 131
ENDBRANCH 109 111
ENDBRANCH 106 107
BRANCH 106 135
ATOM    135  CB  VAL d  14    1891.454 570.540-1944.193  0.00  0.00     0.009 C 
ATOM    136  CG1 VAL d  14    1891.543 570.122-1945.686  0.00  0.00     0.012 C 
ATOM    137  CG2 VAL d  14    1891.887 569.287-1943.393  0.00  0.00     0.012 C 
ENDBRANCH 106 135
ENDBRANCH 104 106
ENDBRANCH 101 102
BRANCH 101 138
ATOM    138  CB  ARG d  13    1892.815 572.702-1939.455  0.00  0.00     0.036 C 
BRANCH 138 139
ATOM    139  CG  ARG d  13    1894.360 572.857-1939.374  0.00  0.00     0.023 C 
BRANCH 139 140
ATOM    140  CD  ARG d  13    1894.989 571.869-1938.377  0.00  0.00     0.138 C 
BRANCH 140 141
ATOM    141  NE  ARG d  13    1896.466 572.078-1938.327  0.00  0.00    -0.227 N 
ATOM    142  CZ  ARG d  13    1897.315 571.386-1937.573  0.00  0.00     0.665 C 
ATOM    143  NH1 ARG d  13    1896.951 570.421-1936.776  0.00  0.00    -0.235 N 
ATOM    144  NH2 ARG d  13    1898.574 571.687-1937.630  0.00  0.00    -0.235 N 
ATOM    145 11HH ARG d  13    1895.945 570.234-1936.778  0.00  0.00     0.174 HD
ATOM    146 12HH ARG d  13    1897.665 569.939-1936.227  0.00  0.00     0.174 HD
ATOM    147 21HH ARG d  13    1898.840 572.445-1938.260  0.00  0.00     0.174 HD
ATOM    148 22HH ARG d  13    1899.210 571.146-1937.042  0.00  0.00     0.174 HD
ATOM    149  HE  ARG d  13    1896.916 572.801-1938.898  0.00  0.00     0.177 HD
ENDBRANCH 140 141
ENDBRANCH 139 140
ENDBRANCH 138 139
ENDBRANCH 101 138
ENDBRANCH  99 101
ENDBRANCH  96  97
BRANCH  96 150
ATOM    150  CB  MET d  12    1887.990 575.011-1939.467  0.00  0.00     0.045 C 
BRANCH 150 151
ATOM    151  CG  MET d  12    1886.476 575.133-1939.191  0.00  0.00     0.076 C 
BRANCH 151 152
ATOM    152  SD  MET d  12    1886.190 576.320-1937.868  0.00  0.00    -0.173 SA
ATOM    153  CE  MET d  12    1884.465 575.939-1937.537  0.00  0.00     0.089 C 
ENDBRANCH 151 152
ENDBRANCH 150 151
ENDBRANCH  96 150
ENDBRANCH  94  96
ENDBRANCH  91  92
BRANCH  91 154
ATOM    154  CB  VAL d  11    1886.151 570.464-1941.661  0.00  0.00     0.009 C 
ATOM    155  CG1 VAL d  11    1885.582 571.167-1942.924  0.00  0.00     0.012 C 
ATOM    156  CG2 VAL d  11    1885.627 569.009-1941.735  0.00  0.00     0.012 C 
ENDBRANCH  91 154
ENDBRANCH  89  91
ENDBRANCH  86  87
BRANCH  86 157
ATOM    157  CB  HIS d  10    1889.510 567.933-1938.417  0.00  0.00     0.095 C 
BRANCH 157 158
ATOM    158  CG  HIS d  10    1890.796 567.223-1938.110  0.00  0.00     0.053 A 
ATOM    159  CD2 HIS d  10    1891.177 566.887-1936.817  0.00  0.00     0.116 A 
ATOM    160  NE2 HIS d  10    1892.393 566.256-1936.884  0.00  0.00    -0.359 N 
ATOM    161  CE1 HIS d  10    1892.655 566.260-1938.220  0.00  0.00     0.207 A 
ATOM    162  2HE HIS d  10    1892.960 565.879-1936.111  0.00  0.00     0.166 HD
ATOM    163  ND1 HIS d  10    1891.748 566.818-1939.042  0.00  0.00    -0.247 NA
ENDBRANCH 157 158
ENDBRANCH  86 157
ENDBRANCH   3  86
TORSDOF 68
