REMARK WARNING: 32 MAX_TORS EXCEEDED!!!
REMARK  66 active torsions:
REMARK  status: ('A' for Active; 'I' for Inactive)
REMARK    1  A    between atoms: N_1  and  CA_2 
REMARK    2  A    between atoms: CA_2  and  C_3 
REMARK    3  A    between atoms: CA_2  and  CB_5 
REMARK       I    between atoms: C_3  and  N_11 
REMARK    4  A    between atoms: CB_5  and  CG_6 
REMARK    5  A    between atoms: CG_6  and  CD_7 
REMARK    6  A    between atoms: N_11  and  CA_12 
REMARK    7  A    between atoms: CA_12  and  C_13 
REMARK    8  A    between atoms: CA_12  and  CB_15 
REMARK       I    between atoms: C_13  and  N_22 
REMARK    9  A    between atoms: CB_15  and  CG_16 
REMARK       I    between atoms: CG_16  and  ND2_17 
REMARK   10  A    between atoms: CA_23  and  C_24 
REMARK       I    between atoms: C_24  and  N_29 
REMARK   11  A    between atoms: N_29  and  CA_30 
REMARK   12  A    between atoms: CA_30  and  C_31 
REMARK   13  A    between atoms: CA_30  and  CB_33 
REMARK       I    between atoms: C_31  and  N_39 
REMARK   14  A    between atoms: CB_33  and  CG_34 
REMARK   15  A    between atoms: CG_34  and  CD_35 
REMARK   16  A    between atoms: N_39  and  CA_40 
REMARK   17  A    between atoms: CA_40  and  C_41 
REMARK   18  A    between atoms: CA_40  and  CB_43 
REMARK       I    between atoms: C_41  and  N_47 
REMARK   19  A    between atoms: CB_43  and  OG_44 
REMARK   20  A    between atoms: N_47  and  CA_48 
REMARK   21  A    between atoms: CA_48  and  C_49 
REMARK   22  A    between atoms: CA_48  and  CB_51 
REMARK       I    between atoms: C_49  and  N_56 
REMARK   23  A    between atoms: CB_51  and  CG1_52 
REMARK   24  A    between atoms: N_56  and  CA_57 
REMARK   25  A    between atoms: CA_57  and  C_58 
REMARK   26  A    between atoms: CA_57  and  CB_60 
REMARK       I    between atoms: C_58  and  N_65 
REMARK   27  A    between atoms: CB_60  and  CG_61 
REMARK   28  A    between atoms: N_65  and  CA_66 
REMARK   29  A    between atoms: CA_66  and  C_67 
REMARK   30  A    between atoms: CA_66  and  CB_69 
REMARK       I    between atoms: C_67  and  N_74 
REMARK   31  A    between atoms: CB_69  and  CG_70 
REMARK   32  A    between atoms: N_74  and  CA_75 
REMARK   33  A    between atoms: CA_75  and  C_76 
REMARK   34  A    between atoms: CA_75  and  CB_78 
REMARK       I    between atoms: C_76  and  N_84 
REMARK   35  A    between atoms: CB_78  and  CG_79 
REMARK   36  A    between atoms: CG_79  and  CD_80 
REMARK   37  A    between atoms: N_84  and  CA_85 
REMARK   38  A    between atoms: CA_85  and  C_86 
REMARK   39  A    between atoms: CA_85  and  CB_88 
REMARK       I    between atoms: C_86  and  N_96 
REMARK   40  A    between atoms: CB_88  and  CG_89 
REMARK   41  A    between atoms: N_96  and  CA_97 
REMARK   42  A    between atoms: CA_97  and  C_98 
REMARK   43  A    between atoms: CA_97  and  CB_100 
REMARK       I    between atoms: C_98  and  N_104 
REMARK   44  A    between atoms: N_104  and  CA_105 
REMARK   45  A    between atoms: CA_105  and  C_106 
REMARK   46  A    between atoms: CA_105  and  CB_108 
REMARK       I    between atoms: C_106  and  N_116 
REMARK   47  A    between atoms: CB_108  and  CG_109 
REMARK   48  A    between atoms: CG_109  and  CD_110 
REMARK       I    between atoms: CD_110  and  NE2_111 
REMARK   49  A    between atoms: N_116  and  CA_117 
REMARK   50  A    between atoms: CA_117  and  C_118 
REMARK   51  A    between atoms: CA_117  and  CB_120 
REMARK       I    between atoms: C_118  and  N_128 
REMARK   52  A    between atoms: CB_120  and  CG_121 
REMARK   53  A    between atoms: N_128  and  CA_129 
REMARK   54  A    between atoms: CA_129  and  C_130 
REMARK   55  A    between atoms: CA_129  and  CB_132 
REMARK       I    between atoms: C_130  and  N_136 
REMARK   56  A    between atoms: N_136  and  CA_137 
REMARK   57  A    between atoms: CA_137  and  C_138 
REMARK   58  A    between atoms: CA_137  and  CB_140 
REMARK       I    between atoms: C_138  and  N_145 
REMARK   59  A    between atoms: CB_140  and  CG_141 
REMARK   60  A    between atoms: CG_141  and  SD_142 
REMARK   61  A    between atoms: N_145  and  CA_146 
REMARK   62  A    between atoms: CA_146  and  C_147 
REMARK   63  A    between atoms: CA_146  and  CB_149 
REMARK   64  A    between atoms: CB_149  and  CG_150 
REMARK   65  A    between atoms: CG_150  and  CD_151 
REMARK   66  A    between atoms: CD_151  and  NE_152 
REMARK       I    between atoms: NE_152  and  CZ_153 
REMARK       I    between atoms: CZ_153  and  NH1_154 
ROOT
ATOM      1  CA  GLU d   9    2098.081 641.023-2167.260  0.00  0.00     0.177 C 
ENDROOT
BRANCH   1   2
ATOM      2  N   GLU d   9    2096.778 640.366-2167.315  0.00  0.00    -0.346 N 
ATOM      3  C   ASP d   8    2096.098 640.415-2168.410  0.00  0.00     0.241 C 
ATOM      4  O   ASP d   8    2096.571 641.019-2169.385  0.00  0.00    -0.271 OA
ATOM      5  H   GLU d   9    2096.414 639.880-2166.508  0.00  0.00     0.163 HD
BRANCH   3   6
ATOM      6  CA  ASP d   8    2094.750 639.736-2168.467  0.00  0.00     0.186 C 
BRANCH   6   7
ATOM      7  N   ASP d   8    2094.820 638.387-2167.913  0.00  0.00    -0.346 N 
ATOM      8  C   LEU d   7    2095.657 637.546-2168.419  0.00  0.00     0.241 C 
ATOM      9  O   LEU d   7    2096.378 637.907-2169.361  0.00  0.00    -0.271 OA
ATOM     10  H   ASP d   8    2094.222 638.117-2167.145  0.00  0.00     0.163 HD
BRANCH   8  11
ATOM     11  CA  LEU d   7    2095.729 636.150-2167.846  0.00  0.00     0.177 C 
BRANCH  11  12
ATOM     12  N   LEU d   7    2095.784 636.187-2166.387  0.00  0.00    -0.346 N 
ATOM     13  C   ILE d   6    2096.730 636.850-2165.814  0.00  0.00     0.241 C 
ATOM     14  O   ILE d   6    2097.565 637.437-2166.518  0.00  0.00    -0.271 OA
ATOM     15  H   LEU d   7    2095.092 635.700-2165.836  0.00  0.00     0.163 HD
BRANCH  13  16
ATOM     16  CA  ILE d   6    2096.787 636.887-2164.306  0.00  0.00     0.180 C 
BRANCH  16  17
ATOM     17  N   ILE d   6    2095.474 637.183-2163.740  0.00  0.00    -0.346 N 
ATOM     18  C   SER d   5    2094.870 638.266-2164.094  0.00  0.00     0.243 C 
ATOM     19  O   SER d   5    2095.418 639.020-2164.899  0.00  0.00    -0.271 OA
ATOM     20  H   ILE d   6    2095.045 636.549-2163.081  0.00  0.00     0.163 HD
BRANCH  18  21
ATOM     21  CA  SER d   5    2093.511 638.572-2163.509  0.00  0.00     0.200 C 
BRANCH  21  22
ATOM     22  N   SER d   5    2092.641 637.401-2163.568  0.00  0.00    -0.344 N 
ATOM     23  C   GLU d   4    2092.414 636.849-2164.711  0.00  0.00     0.241 C 
ATOM     24  O   GLU d   4    2092.941 637.328-2165.725  0.00  0.00    -0.271 OA
ATOM     25  H   SER d   5    2092.224 637.030-2162.727  0.00  0.00     0.163 HD
BRANCH  23  26
ATOM     26  CA  GLU d   4    2091.515 635.638-2164.773  0.00  0.00     0.177 C 
BRANCH  26  27
ATOM     27  N   GLU d   4    2091.874 634.667-2163.743  0.00  0.00    -0.346 N 
ATOM     28  C   PRO d   3    2093.079 634.207-2163.710  0.00  0.00     0.241 C 
ATOM     29  O   PRO d   3    2093.902 634.590-2164.542  0.00  0.00    -0.271 OA
ATOM     30  H   GLU d   4    2091.189 634.360-2163.066  0.00  0.00     0.163 HD
BRANCH  28  31
ATOM     31  CA  PRO d   3    2093.477 633.183-2162.633  0.00  0.00     0.179 C 
ATOM     32  N   PRO d   3    2093.024 633.592-2161.312  0.00  0.00    -0.337 N 
ATOM     33  C   ASN d   2    2093.546 634.587-2160.677  0.00  0.00     0.243 C 
ATOM     34  CD  PRO d   3    2091.946 632.799-2160.763  0.00  0.00     0.127 C 
ATOM     35  O   ASN d   2    2094.461 635.217-2161.206  0.00  0.00    -0.271 OA
ATOM     36  CG  PRO d   3    2091.489 631.981-2161.973  0.00  0.00     0.022 C 
ATOM     37  CB  PRO d   3    2092.772 631.828-2162.803  0.00  0.00     0.037 C 
BRANCH  33  38
ATOM     38  CA  ASN d   2    2093.014 634.943-2159.309  0.00  0.00     0.185 C 
BRANCH  38  39
ATOM     39  N   ASN d   2    2091.555 634.982-2159.309  0.00  0.00    -0.346 N 
ATOM     40  C   GLU d   1    2090.951 635.768-2160.134  0.00  0.00     0.242 C 
ATOM     41  O   GLU d   1    2091.626 636.467-2160.903  0.00  0.00    -0.271 OA
ATOM     42  H   ASN d   2    2091.027 634.402-2158.673  0.00  0.00     0.163 HD
BRANCH  40  43
ATOM     43  CA  GLU d   1    2089.442 635.808-2160.134  0.00  0.00     0.191 C 
BRANCH  43  44
ATOM     44  N   GLU d   1    2088.883 634.459-2160.134  0.00  0.00    -0.326 NA
ATOM     45  H   GLU d   1    2089.510 633.580-2160.134  0.00  0.00     0.180 HD
ENDBRANCH  43  44
BRANCH  43  46
ATOM     46  CB  GLU d   1    2088.918 636.593-2158.897  0.00  0.00     0.047 C 
BRANCH  46  47
ATOM     47  CG  GLU d   1    2089.394 638.078-2158.786  0.00  0.00     0.116 C 
BRANCH  47  48
ATOM     48  CD  GLU d   1    2088.969 638.882-2157.571  0.00  0.00     0.172 C 
ATOM     49  OE1 GLU d   1    2088.241 638.380-2156.693  0.00  0.00    -0.648 OA
ATOM     50  OE2 GLU d   1    2089.400 640.052-2157.499  0.00  0.00    -0.648 OA
ENDBRANCH  47  48
ENDBRANCH  46  47
ENDBRANCH  43  46
ENDBRANCH  40  43
ENDBRANCH  38  39
BRANCH  38  51
ATOM     51  CB  ASN d   2    2093.506 633.920-2158.244  0.00  0.00     0.137 C 
BRANCH  51  52
ATOM     52  CG  ASN d   2    2093.043 634.144-2156.801  0.00  0.00     0.217 C 
ATOM     53  ND2 ASN d   2    2093.637 635.058-2156.083  0.00  0.00    -0.370 N 
ATOM     54 21HD ASN d   2    2093.156 635.232-2155.197  0.00  0.00     0.159 HD
ATOM     55 22HD ASN d   2    2094.339 635.630-2156.552  0.00  0.00     0.159 HD
ATOM     56  OD1 ASN d   2    2092.122 633.510-2156.307  0.00  0.00    -0.274 OA
ENDBRANCH  51  52
ENDBRANCH  38  51
ENDBRANCH  33  38
ENDBRANCH  28  31
ENDBRANCH  26  27
BRANCH  26  57
ATOM     57  CB  GLU d   4    2090.026 636.057-2164.603  0.00  0.00     0.045 C 
BRANCH  57  58
ATOM     58  CG  GLU d   4    2089.479 637.061-2165.669  0.00  0.00     0.116 C 
BRANCH  58  59
ATOM     59  CD  GLU d   4    2088.052 637.558-2165.526  0.00  0.00     0.172 C 
ATOM     60  OE1 GLU d   4    2087.326 637.159-2164.595  0.00  0.00    -0.648 OA
ATOM     61  OE2 GLU d   4    2087.664 638.387-2166.374  0.00  0.00    -0.648 OA
ENDBRANCH  58  59
ENDBRANCH  57  58
ENDBRANCH  26  57
ENDBRANCH  23  26
ENDBRANCH  21  22
BRANCH  21  62
ATOM     62  CB  SER d   5    2093.622 639.104-2162.059  0.00  0.00     0.199 C 
BRANCH  62  63
ATOM     63  OG  SER d   5    2094.353 638.225-2161.198  0.00  0.00    -0.398 OA
ATOM     64  HG  SER d   5    2093.864 637.400-2161.147  0.00  0.00     0.209 HD
ENDBRANCH  62  63
ENDBRANCH  21  62
ENDBRANCH  18  21
ENDBRANCH  16  17
BRANCH  16  65
ATOM     65  CB  ILE d   6    2097.386 635.551-2163.706  0.00  0.00     0.013 C 
ATOM     66  CG2 ILE d   6    2098.828 635.249-2164.221  0.00  0.00     0.012 C 
BRANCH  65  67
ATOM     67  CG1 ILE d   6    2097.405 635.489-2162.145  0.00  0.00     0.002 C 
ATOM     68  CD1 ILE d   6    2097.675 634.099-2161.530  0.00  0.00     0.005 C 
ENDBRANCH  65  67
ENDBRANCH  16  65
ENDBRANCH  13  16
ENDBRANCH  11  12
BRANCH  11  69
ATOM     69  CB  LEU d   7    2094.526 635.291-2168.326  0.00  0.00     0.038 C 
BRANCH  69  70
ATOM     70  CG  LEU d   7    2094.453 633.811-2167.860  0.00  0.00    -0.020 C 
ATOM     71  CD1 LEU d   7    2093.263 633.106-2168.525  0.00  0.00     0.009 C 
ATOM     72  CD2 LEU d   7    2095.746 633.032-2168.151  0.00  0.00     0.009 C 
ENDBRANCH  69  70
ENDBRANCH  11  69
ENDBRANCH   8  11
ENDBRANCH   6   7
BRANCH   6  73
ATOM     73  CB  ASP d   8    2093.673 640.576-2167.726  0.00  0.00     0.147 C 
BRANCH  73  74
ATOM     74  CG  ASP d   8    2093.455 641.997-2168.267  0.00  0.00     0.175 C 
ATOM     75  OD1 ASP d   8    2093.519 642.195-2169.498  0.00  0.00    -0.648 OA
ATOM     76  OD2 ASP d   8    2093.263 642.923-2167.452  0.00  0.00    -0.648 OA
ENDBRANCH  73  74
ENDBRANCH   6  73
ENDBRANCH   3   6
ENDBRANCH   1   2
BRANCH   1  77
ATOM     77  C   GLU d   9    2098.998 640.494-2168.336  0.00  0.00     0.241 C 
ATOM     78  O   GLU d   9    2099.662 641.248-2169.062  0.00  0.00    -0.271 OA
ATOM     79  N   HIS d  10    2099.094 639.219-2168.505  0.00  0.00    -0.346 N 
ATOM     80  H   HIS d  10    2098.563 638.584-2167.926  0.00  0.00     0.163 HD
BRANCH  79  81
ATOM     81  CA  HIS d  10    2099.981 638.706-2169.545  0.00  0.00     0.182 C 
BRANCH  81  82
ATOM     82  C   HIS d  10    2099.615 639.271-2170.897  0.00  0.00     0.241 C 
ATOM     83  O   HIS d  10    2100.467 639.735-2171.669  0.00  0.00    -0.271 OA
ATOM     84  N   VAL d  11    2098.377 639.270-2171.260  0.00  0.00    -0.346 N 
ATOM     85  H   VAL d  11    2097.664 638.898-2170.649  0.00  0.00     0.163 HD
BRANCH  84  86
ATOM     86  CA  VAL d  11    2098.021 639.816-2172.567  0.00  0.00     0.180 C 
BRANCH  86  87
ATOM     87  C   VAL d  11    2098.487 641.246-2172.700  0.00  0.00     0.241 C 
ATOM     88  O   VAL d  11    2099.088 641.650-2173.703  0.00  0.00    -0.271 OA
ATOM     89  N   GLN d  12    2098.250 642.072-2171.738  0.00  0.00    -0.346 N 
ATOM     90  H   GLN d  12    2097.762 641.767-2170.908  0.00  0.00     0.163 HD
BRANCH  89  91
ATOM     91  CA  GLN d  12    2098.700 643.455-2171.866  0.00  0.00     0.177 C 
BRANCH  91  92
ATOM     92  C   GLN d  12    2100.189 643.521-2172.104  0.00  0.00     0.241 C 
ATOM     93  O   GLN d  12    2100.677 644.229-2172.983  0.00  0.00    -0.271 OA
ATOM     94  N   HIS d  13    2100.974 642.814-2171.363  0.00  0.00    -0.346 N 
ATOM     95  H   HIS d  13    2100.597 642.225-2170.634  0.00  0.00     0.163 HD
BRANCH  94  96
ATOM     96  CA  HIS d  13    2102.415 642.879-2171.594  0.00  0.00     0.182 C 
BRANCH  96  97
ATOM     97  C   HIS d  13    2102.752 642.507-2173.017  0.00  0.00     0.241 C 
ATOM     98  O   HIS d  13    2103.530 643.184-2173.707  0.00  0.00    -0.271 OA
ATOM     99  N   VAL d  14    2102.216 641.452-2173.531  0.00  0.00    -0.346 N 
ATOM    100  H   VAL d  14    2101.580 640.884-2172.990  0.00  0.00     0.163 HD
BRANCH  99 101
ATOM    101  CA  VAL d  14    2102.543 641.092-2174.908  0.00  0.00     0.180 C 
BRANCH 101 102
ATOM    102  C   VAL d  14    2102.215 642.223-2175.855  0.00  0.00     0.241 C 
ATOM    103  O   VAL d  14    2103.009 642.604-2176.723  0.00  0.00    -0.271 OA
ATOM    104  N   MET d  15    2101.070 642.809-2175.754  0.00  0.00    -0.346 N 
ATOM    105  H   MET d  15    2100.405 642.516-2175.053  0.00  0.00     0.163 HD
BRANCH 104 106
ATOM    106  CA  MET d  15    2100.751 643.902-2176.668  0.00  0.00     0.177 C 
BRANCH 106 107
ATOM    107  C   MET d  15    2101.782 645.001-2176.579  0.00  0.00     0.241 C 
ATOM    108  O   MET d  15    2102.286 645.512-2177.592  0.00  0.00    -0.271 OA
ATOM    109  N   ARG d  16    2102.150 645.422-2175.417  0.00  0.00    -0.347 N 
ATOM    110  H   ARG d  16    2101.754 645.022-2174.578  0.00  0.00     0.163 HD
BRANCH 109 111
ATOM    111  CA  ARG d  16    2103.147 646.486-2175.332  0.00  0.00     0.162 C 
BRANCH 111 112
ATOM    112  C   ARG d  16    2104.418 646.093-2176.047  0.00  0.00     0.219 C 
ATOM    113  O   ARG d  16    2104.532 645.017-2176.629  0.00  0.00    -0.287 OA
ENDBRANCH 111 112
BRANCH 111 114
ATOM    114  CB  ARG d  16    2103.414 646.803-2173.833  0.00  0.00     0.035 C 
BRANCH 114 115
ATOM    115  CG  ARG d  16    2104.240 648.092-2173.560  0.00  0.00     0.023 C 
BRANCH 115 116
ATOM    116  CD  ARG d  16    2104.488 648.311-2172.058  0.00  0.00     0.138 C 
BRANCH 116 117
ATOM    117  NE  ARG d  16    2105.265 649.569-2171.856  0.00  0.00    -0.227 N 
ATOM    118  CZ  ARG d  16    2105.655 650.051-2170.680  0.00  0.00     0.665 C 
ATOM    119  NH1 ARG d  16    2105.406 649.467-2169.542  0.00  0.00    -0.235 N 
ATOM    120  NH2 ARG d  16    2106.320 651.164-2170.661  0.00  0.00    -0.235 N 
ATOM    121 11HH ARG d  16    2104.880 648.594-2169.627  0.00  0.00     0.174 HD
ATOM    122 12HH ARG d  16    2105.740 649.902-2168.680  0.00  0.00     0.174 HD
ATOM    123 21HH ARG d  16    2106.506 651.607-2171.562  0.00  0.00     0.174 HD
ATOM    124 22HH ARG d  16    2106.609 651.518-2169.748  0.00  0.00     0.174 HD
ATOM    125  HE  ARG d  16    2105.544 650.150-2172.653  0.00  0.00     0.177 HD
ENDBRANCH 116 117
ENDBRANCH 115 116
ENDBRANCH 114 115
ENDBRANCH 111 114
ENDBRANCH 109 111
ENDBRANCH 106 107
BRANCH 106 126
ATOM    126  CB  MET d  15    2099.330 644.448-2176.361  0.00  0.00     0.045 C 
BRANCH 126 127
ATOM    127  CG  MET d  15    2098.167 643.450-2176.554  0.00  0.00     0.076 C 
BRANCH 127 128
ATOM    128  SD  MET d  15    2096.594 644.317-2176.441  0.00  0.00    -0.173 SA
ATOM    129  CE  MET d  15    2095.512 642.888-2176.306  0.00  0.00     0.089 C 
ENDBRANCH 127 128
ENDBRANCH 126 127
ENDBRANCH 106 126
ENDBRANCH 104 106
ENDBRANCH 101 102
BRANCH 101 130
ATOM    130  CB  VAL d  14    2101.771 639.776-2175.316  0.00  0.00     0.009 C 
ATOM    131  CG1 VAL d  14    2101.862 639.357-2176.810  0.00  0.00     0.012 C 
ATOM    132  CG2 VAL d  14    2102.201 638.524-2174.515  0.00  0.00     0.012 C 
ENDBRANCH 101 130
ENDBRANCH  99 101
ENDBRANCH  96  97
BRANCH  96 133
ATOM    133  CB  HIS d  13    2103.054 641.883-2170.612  0.00  0.00     0.095 C 
BRANCH 133 134
ATOM    134  CG  HIS d  13    2103.999 642.550-2169.657  0.00  0.00     0.053 A 
ATOM    135  CD2 HIS d  13    2103.594 643.046-2168.424  0.00  0.00     0.116 A 
ATOM    136  NE2 HIS d  13    2104.690 643.589-2167.806  0.00  0.00    -0.359 N 
ATOM    137  CE1 HIS d  13    2105.679 643.381-2168.717  0.00  0.00     0.207 A 
ATOM    138  2HE HIS d  13    2104.743 644.043-2166.882  0.00  0.00     0.166 HD
ATOM    139  ND1 HIS d  13    2105.361 642.757-2169.866  0.00  0.00    -0.247 NA
ENDBRANCH 133 134
ENDBRANCH  96 133
ENDBRANCH  94  96
ENDBRANCH  91  92
BRANCH  91 140
ATOM    140  CB  GLN d  12    2098.309 644.223-2170.583  0.00  0.00     0.044 C 
BRANCH 140 141
ATOM    141  CG  GLN d  12    2098.671 645.745-2170.553  0.00  0.00     0.105 C 
BRANCH 141 142
ATOM    142  CD  GLN d  12    2098.369 646.559-2169.289  0.00  0.00     0.215 C 
ATOM    143  NE2 GLN d  12    2097.802 645.984-2168.260  0.00  0.00    -0.370 N 
ATOM    144 21HE GLN d  12    2097.696 646.578-2167.436  0.00  0.00     0.159 HD
ATOM    145 22HE GLN d  12    2097.638 644.980-2168.362  0.00  0.00     0.159 HD
ATOM    146  OE1 GLN d  12    2098.672 647.740-2169.212  0.00  0.00    -0.274 OA
ENDBRANCH 141 142
ENDBRANCH 140 141
ENDBRANCH  91 140
ENDBRANCH  89  91
ENDBRANCH  86  87
BRANCH  86 147
ATOM    147  CB  VAL d  11    2096.460 639.710-2172.786  0.00  0.00     0.009 C 
ATOM    148  CG1 VAL d  11    2095.892 640.413-2174.049  0.00  0.00     0.012 C 
ATOM    149  CG2 VAL d  11    2095.935 638.256-2172.858  0.00  0.00     0.012 C 
ENDBRANCH  86 147
ENDBRANCH  84  86
ENDBRANCH  81  82
BRANCH  81 150
ATOM    150  CB  HIS d  10    2099.817 637.178-2169.540  0.00  0.00     0.095 C 
BRANCH 150 151
ATOM    151  CG  HIS d  10    2101.102 636.467-2169.232  0.00  0.00     0.053 A 
ATOM    152  CD2 HIS d  10    2101.484 636.132-2167.939  0.00  0.00     0.116 A 
ATOM    153  NE2 HIS d  10    2102.698 635.500-2168.006  0.00  0.00    -0.359 N 
ATOM    154  CE1 HIS d  10    2102.960 635.502-2169.341  0.00  0.00     0.207 A 
ATOM    155  2HE HIS d  10    2103.265 635.123-2167.233  0.00  0.00     0.166 HD
ATOM    156  ND1 HIS d  10    2102.054 636.060-2170.164  0.00  0.00    -0.247 NA
ENDBRANCH 150 151
ENDBRANCH  81 150
ENDBRANCH  79  81
ENDBRANCH   1  77
BRANCH   1 157
ATOM    157  CB  GLU d   9    2098.714 640.815-2165.855  0.00  0.00     0.045 C 
BRANCH 157 158
ATOM    158  CG  GLU d   9    2100.097 641.507-2165.626  0.00  0.00     0.116 C 
BRANCH 158 159
ATOM    159  CD  GLU d   9    2100.799 641.294-2164.298  0.00  0.00     0.172 C 
ATOM    160  OE1 GLU d   9    2100.278 640.604-2163.401  0.00  0.00    -0.648 OA
ATOM    161  OE2 GLU d   9    2101.919 641.832-2164.167  0.00  0.00    -0.648 OA
ENDBRANCH 158 159
ENDBRANCH 157 158
ENDBRANCH   1 157
TORSDOF 66
