REMARK WARNING: 32 MAX_TORS EXCEEDED!!!
REMARK  66 active torsions:
REMARK  status: ('A' for Active; 'I' for Inactive)
REMARK    1  A    between atoms: N_1  and  CA_2 
REMARK    2  A    between atoms: CA_2  and  C_3 
REMARK    3  A    between atoms: CA_2  and  CB_5 
REMARK       I    between atoms: C_3  and  N_11 
REMARK    4  A    between atoms: CB_5  and  CG_6 
REMARK    5  A    between atoms: CG_6  and  CD_7 
REMARK    6  A    between atoms: N_11  and  CA_12 
REMARK    7  A    between atoms: CA_12  and  C_13 
REMARK    8  A    between atoms: CA_12  and  CB_15 
REMARK       I    between atoms: C_13  and  N_22 
REMARK    9  A    between atoms: CB_15  and  CG_16 
REMARK       I    between atoms: CG_16  and  ND2_17 
REMARK   10  A    between atoms: CA_23  and  C_24 
REMARK       I    between atoms: C_24  and  N_29 
REMARK   11  A    between atoms: N_29  and  CA_30 
REMARK   12  A    between atoms: CA_30  and  C_31 
REMARK   13  A    between atoms: CA_30  and  CB_33 
REMARK       I    between atoms: C_31  and  N_39 
REMARK   14  A    between atoms: CB_33  and  CG_34 
REMARK   15  A    between atoms: CG_34  and  CD_35 
REMARK   16  A    between atoms: N_39  and  CA_40 
REMARK   17  A    between atoms: CA_40  and  C_41 
REMARK   18  A    between atoms: CA_40  and  CB_43 
REMARK       I    between atoms: C_41  and  N_47 
REMARK   19  A    between atoms: CB_43  and  OG_44 
REMARK   20  A    between atoms: N_47  and  CA_48 
REMARK   21  A    between atoms: CA_48  and  C_49 
REMARK       I    between atoms: C_49  and  N_52 
REMARK   22  A    between atoms: N_52  and  CA_53 
REMARK   23  A    between atoms: CA_53  and  C_54 
REMARK   24  A    between atoms: CA_53  and  CB_56 
REMARK       I    between atoms: C_54  and  N_61 
REMARK   25  A    between atoms: CB_56  and  CG_57 
REMARK   26  A    between atoms: N_61  and  CA_62 
REMARK   27  A    between atoms: CA_62  and  C_63 
REMARK   28  A    between atoms: CA_62  and  CB_65 
REMARK       I    between atoms: C_63  and  N_70 
REMARK   29  A    between atoms: CB_65  and  CG_66 
REMARK   30  A    between atoms: N_70  and  CA_71 
REMARK   31  A    between atoms: CA_71  and  C_72 
REMARK   32  A    between atoms: CA_71  and  CB_74 
REMARK       I    between atoms: C_72  and  N_80 
REMARK   33  A    between atoms: CB_74  and  CG_75 
REMARK   34  A    between atoms: CG_75  and  CD_76 
REMARK   35  A    between atoms: N_80  and  CA_81 
REMARK   36  A    between atoms: CA_81  and  C_82 
REMARK   37  A    between atoms: CA_81  and  CB_84 
REMARK       I    between atoms: C_82  and  N_92 
REMARK   38  A    between atoms: CB_84  and  CG_85 
REMARK   39  A    between atoms: N_92  and  CA_93 
REMARK   40  A    between atoms: CA_93  and  C_94 
REMARK   41  A    between atoms: CA_93  and  CB_96 
REMARK       I    between atoms: C_94  and  N_100 
REMARK   42  A    between atoms: N_100  and  CA_101 
REMARK   43  A    between atoms: CA_101  and  C_102 
REMARK   44  A    between atoms: CA_101  and  CB_104 
REMARK       I    between atoms: C_102  and  N_112 
REMARK   45  A    between atoms: CB_104  and  CG_105 
REMARK   46  A    between atoms: CG_105  and  CD_106 
REMARK       I    between atoms: CD_106  and  NE2_107 
REMARK   47  A    between atoms: N_112  and  CA_113 
REMARK   48  A    between atoms: CA_113  and  C_114 
REMARK   49  A    between atoms: CA_113  and  CB_116 
REMARK       I    between atoms: C_114  and  N_129 
REMARK   50  A    between atoms: CB_116  and  CG_117 
REMARK   51  A    between atoms: CG_117  and  CD_118 
REMARK   52  A    between atoms: CD_118  and  NE_119 
REMARK       I    between atoms: NE_119  and  CZ_120 
REMARK       I    between atoms: CZ_120  and  NH1_121 
REMARK       I    between atoms: CZ_120  and  NH2_122 
REMARK   53  A    between atoms: N_129  and  CA_130 
REMARK   54  A    between atoms: CA_130  and  C_131 
REMARK   55  A    between atoms: CA_130  and  CB_133 
REMARK       I    between atoms: C_131  and  N_137 
REMARK   56  A    between atoms: N_137  and  CA_138 
REMARK   57  A    between atoms: CA_138  and  C_139 
REMARK   58  A    between atoms: CA_138  and  CB_141 
REMARK       I    between atoms: C_139  and  N_146 
REMARK   59  A    between atoms: CB_141  and  CG_142 
REMARK   60  A    between atoms: CG_142  and  SD_143 
REMARK   61  A    between atoms: N_146  and  CA_147 
REMARK   62  A    between atoms: CA_147  and  C_148 
REMARK   63  A    between atoms: CA_147  and  CB_150 
REMARK   64  A    between atoms: CB_150  and  CG_151 
REMARK   65  A    between atoms: CG_151  and  CD_152 
REMARK   66  A    between atoms: CD_152  and  NE_153 
REMARK       I    between atoms: NE_153  and  CZ_154 
REMARK       I    between atoms: CZ_154  and  NH1_155 
ROOT
ATOM      1  C   GLU d   9     886.954 242.057-851.713  0.00  0.00     0.241 C 
ATOM      2  O   GLU d   9     887.618 242.812-852.438  0.00  0.00    -0.271 OA
ATOM      3  N   HIS d  10     887.051 240.782-851.882  0.00  0.00    -0.346 N 
ATOM      4  H   HIS d  10     886.520 240.146-851.304  0.00  0.00     0.163 HD
ENDROOT
BRANCH   3   5
ATOM      5  CA  HIS d  10     887.939 240.271-852.923  0.00  0.00     0.182 C 
BRANCH   5   6
ATOM      6  C   HIS d  10     887.572 240.835-854.274  0.00  0.00     0.241 C 
ATOM      7  O   HIS d  10     888.424 241.301-855.045  0.00  0.00    -0.271 OA
ATOM      8  N   VAL d  11     886.334 240.834-854.637  0.00  0.00    -0.346 N 
ATOM      9  H   VAL d  11     885.621 240.461-854.026  0.00  0.00     0.163 HD
BRANCH   8  10
ATOM     10  CA  VAL d  11     885.979 241.380-855.944  0.00  0.00     0.180 C 
BRANCH  10  11
ATOM     11  C   VAL d  11     886.443 242.811-856.076  0.00  0.00     0.241 C 
ATOM     12  O   VAL d  11     887.044 243.217-857.079  0.00  0.00    -0.271 OA
ATOM     13  N   GLN d  12     886.206 243.637-855.113  0.00  0.00    -0.346 N 
ATOM     14  H   GLN d  12     885.717 243.330-854.284  0.00  0.00     0.163 HD
BRANCH  13  15
ATOM     15  CA  GLN d  12     886.653 245.020-855.240  0.00  0.00     0.177 C 
BRANCH  15  16
ATOM     16  C   GLN d  12     888.143 245.088-855.478  0.00  0.00     0.241 C 
ATOM     17  O   GLN d  12     888.630 245.796-856.356  0.00  0.00    -0.271 OA
ATOM     18  N   ARG d  13     888.928 244.381-854.737  0.00  0.00    -0.346 N 
ATOM     19  H   ARG d  13     888.552 243.791-854.009  0.00  0.00     0.163 HD
BRANCH  18  20
ATOM     20  CA  ARG d  13     890.369 244.448-854.968  0.00  0.00     0.176 C 
BRANCH  20  21
ATOM     21  C   ARG d  13     890.705 244.077-856.393  0.00  0.00     0.241 C 
ATOM     22  O   ARG d  13     891.473 244.749-857.077  0.00  0.00    -0.271 OA
ATOM     23  N   VAL d  14     890.169 243.022-856.908  0.00  0.00    -0.346 N 
ATOM     24  H   VAL d  14     889.534 242.453-856.366  0.00  0.00     0.163 HD
BRANCH  23  25
ATOM     25  CA  VAL d  14     890.494 242.663-858.285  0.00  0.00     0.180 C 
BRANCH  25  26
ATOM     26  C   VAL d  14     890.163 243.793-859.231  0.00  0.00     0.241 C 
ATOM     27  O   VAL d  14     890.956 244.175-860.100  0.00  0.00    -0.271 OA
ATOM     28  N   MET d  15     889.018 244.379-859.129  0.00  0.00    -0.346 N 
ATOM     29  H   MET d  15     888.354 244.085-858.427  0.00  0.00     0.163 HD
BRANCH  28  30
ATOM     30  CA  MET d  15     888.697 245.471-860.042  0.00  0.00     0.177 C 
BRANCH  30  31
ATOM     31  C   MET d  15     889.727 246.572-859.954  0.00  0.00     0.241 C 
ATOM     32  O   MET d  15     890.229 247.083-860.967  0.00  0.00    -0.271 OA
ATOM     33  N   ARG d  16     890.096 246.993-858.792  0.00  0.00    -0.347 N 
ATOM     34  H   ARG d  16     889.701 246.593-857.953  0.00  0.00     0.163 HD
BRANCH  33  35
ATOM     35  CA  ARG d  16     891.092 248.057-858.708  0.00  0.00     0.162 C 
BRANCH  35  36
ATOM     36  C   ARG d  16     892.363 247.665-859.425  0.00  0.00     0.219 C 
ATOM     37  O   ARG d  16     892.477 246.589-860.006  0.00  0.00    -0.287 OA
ENDBRANCH  35  36
BRANCH  35  38
ATOM     38  CB  ARG d  16     891.361 248.375-857.210  0.00  0.00     0.035 C 
BRANCH  38  39
ATOM     39  CG  ARG d  16     892.185 249.664-856.937  0.00  0.00     0.023 C 
BRANCH  39  40
ATOM     40  CD  ARG d  16     892.435 249.884-855.436  0.00  0.00     0.138 C 
BRANCH  40  41
ATOM     41  NE  ARG d  16     893.211 251.143-855.235  0.00  0.00    -0.227 N 
ATOM     42  CZ  ARG d  16     893.602 251.625-854.059  0.00  0.00     0.665 C 
ATOM     43  NH1 ARG d  16     893.355 251.040-852.921  0.00  0.00    -0.235 N 
ATOM     44  NH2 ARG d  16     894.266 252.738-854.040  0.00  0.00    -0.235 N 
ATOM     45 11HH ARG d  16     892.830 250.167-853.005  0.00  0.00     0.174 HD
ATOM     46 12HH ARG d  16     893.689 251.476-852.059  0.00  0.00     0.174 HD
ATOM     47 21HH ARG d  16     894.451 253.181-854.942  0.00  0.00     0.174 HD
ATOM     48 22HH ARG d  16     894.556 253.093-853.128  0.00  0.00     0.174 HD
ATOM     49  HE  ARG d  16     893.489 251.724-856.032  0.00  0.00     0.177 HD
ENDBRANCH  40  41
ENDBRANCH  39  40
ENDBRANCH  38  39
ENDBRANCH  35  38
ENDBRANCH  33  35
ENDBRANCH  30  31
BRANCH  30  50
ATOM     50  CB  MET d  15     887.276 246.016-859.733  0.00  0.00     0.045 C 
BRANCH  50  51
ATOM     51  CG  MET d  15     886.114 245.018-859.924  0.00  0.00     0.076 C 
BRANCH  51  52
ATOM     52  SD  MET d  15     884.540 245.883-859.810  0.00  0.00    -0.173 SA
ATOM     53  CE  MET d  15     883.459 244.453-859.673  0.00  0.00     0.089 C 
ENDBRANCH  51  52
ENDBRANCH  50  51
ENDBRANCH  30  50
ENDBRANCH  28  30
ENDBRANCH  25  26
BRANCH  25  54
ATOM     54  CB  VAL d  14     889.722 241.346-858.693  0.00  0.00     0.009 C 
ATOM     55  CG1 VAL d  14     889.811 240.928-860.186  0.00  0.00     0.012 C 
ATOM     56  CG2 VAL d  14     890.155 240.094-857.893  0.00  0.00     0.012 C 
ENDBRANCH  25  54
ENDBRANCH  23  25
ENDBRANCH  20  21
BRANCH  20  57
ATOM     57  CB  ARG d  13     891.082 243.509-853.954  0.00  0.00     0.036 C 
BRANCH  57  58
ATOM     58  CG  ARG d  13     892.627 243.662-853.873  0.00  0.00     0.023 C 
BRANCH  58  59
ATOM     59  CD  ARG d  13     893.255 242.675-852.876  0.00  0.00     0.138 C 
BRANCH  59  60
ATOM     60  NE  ARG d  13     894.732 242.883-852.825  0.00  0.00    -0.227 N 
ATOM     61  CZ  ARG d  13     895.580 242.191-852.070  0.00  0.00     0.665 C 
ATOM     62  NH1 ARG d  13     895.215 241.226-851.273  0.00  0.00    -0.235 N 
ATOM     63  NH2 ARG d  13     896.839 242.491-852.127  0.00  0.00    -0.235 N 
ATOM     64 11HH ARG d  13     894.210 241.040-851.276  0.00  0.00     0.174 HD
ATOM     65 12HH ARG d  13     895.929 240.744-850.725  0.00  0.00     0.174 HD
ATOM     66 21HH ARG d  13     897.107 243.249-852.758  0.00  0.00     0.174 HD
ATOM     67 22HH ARG d  13     897.475 241.950-851.539  0.00  0.00     0.174 HD
ATOM     68  HE  ARG d  13     895.183 243.605-853.396  0.00  0.00     0.177 HD
ENDBRANCH  59  60
ENDBRANCH  58  59
ENDBRANCH  57  58
ENDBRANCH  20  57
ENDBRANCH  18  20
ENDBRANCH  15  16
BRANCH  15  69
ATOM     69  CB  GLN d  12     886.262 245.787-853.957  0.00  0.00     0.044 C 
BRANCH  69  70
ATOM     70  CG  GLN d  12     886.622 247.309-853.926  0.00  0.00     0.105 C 
BRANCH  70  71
ATOM     71  CD  GLN d  12     886.319 248.122-852.661  0.00  0.00     0.215 C 
ATOM     72  NE2 GLN d  12     885.752 247.545-851.632  0.00  0.00    -0.370 N 
ATOM     73 21HE GLN d  12     885.645 248.139-850.808  0.00  0.00     0.159 HD
ATOM     74 22HE GLN d  12     885.589 246.541-851.736  0.00  0.00     0.159 HD
ATOM     75  OE1 GLN d  12     886.620 249.303-852.583  0.00  0.00    -0.274 OA
ENDBRANCH  70  71
ENDBRANCH  69  70
ENDBRANCH  15  69
ENDBRANCH  13  15
ENDBRANCH  10  11
BRANCH  10  76
ATOM     76  CB  VAL d  11     884.418 241.273-856.163  0.00  0.00     0.009 C 
ATOM     77  CG1 VAL d  11     883.849 241.977-857.426  0.00  0.00     0.012 C 
ATOM     78  CG2 VAL d  11     883.894 239.819-856.237  0.00  0.00     0.012 C 
ENDBRANCH  10  76
ENDBRANCH   8  10
ENDBRANCH   5   6
BRANCH   5  79
ATOM     79  CB  HIS d  10     887.775 238.742-852.918  0.00  0.00     0.095 C 
BRANCH  79  80
ATOM     80  CG  HIS d  10     889.061 238.032-852.610  0.00  0.00     0.053 A 
ATOM     81  CD2 HIS d  10     889.442 237.696-851.318  0.00  0.00     0.116 A 
ATOM     82  NE2 HIS d  10     890.657 237.065-851.384  0.00  0.00    -0.359 N 
ATOM     83  CE1 HIS d  10     890.920 237.068-852.720  0.00  0.00     0.207 A 
ATOM     84  2HE HIS d  10     891.224 236.688-850.611  0.00  0.00     0.166 HD
ATOM     85  ND1 HIS d  10     890.013 237.626-853.543  0.00  0.00    -0.247 NA
ENDBRANCH  79  80
ENDBRANCH   5  79
ENDBRANCH   3   5
BRANCH   1  86
ATOM     86  CA  GLU d   9     886.036 242.584-850.637  0.00  0.00     0.177 C 
BRANCH  86  87
ATOM     87  N   GLU d   9     884.733 241.926-850.692  0.00  0.00    -0.346 N 
ATOM     88  C   ASP d   8     884.054 241.976-851.787  0.00  0.00     0.241 C 
ATOM     89  O   ASP d   8     884.526 242.582-852.762  0.00  0.00    -0.271 OA
ATOM     90  H   GLU d   9     884.370 241.440-849.885  0.00  0.00     0.163 HD
BRANCH  88  91
ATOM     91  CA  ASP d   8     882.707 241.296-851.845  0.00  0.00     0.186 C 
BRANCH  91  92
ATOM     92  N   ASP d   8     882.778 239.947-851.292  0.00  0.00    -0.346 N 
ATOM     93  C   LEU d   7     883.615 239.106-851.798  0.00  0.00     0.241 C 
ATOM     94  O   LEU d   7     884.336 239.469-852.740  0.00  0.00    -0.271 OA
ATOM     95  H   ASP d   8     882.180 239.675-850.524  0.00  0.00     0.163 HD
BRANCH  93  96
ATOM     96  CA  LEU d   7     883.688 237.711-851.225  0.00  0.00     0.177 C 
BRANCH  96  97
ATOM     97  N   LEU d   7     883.743 237.747-849.767  0.00  0.00    -0.346 N 
ATOM     98  C   GLY d   6     884.688 238.411-849.193  0.00  0.00     0.236 C 
ATOM     99  O   GLY d   6     885.519 238.995-849.894  0.00  0.00    -0.272 OA
ATOM    100  H   LEU d   7     883.051 237.260-849.216  0.00  0.00     0.163 HD
BRANCH  98 101
ATOM    101  CA  GLY d   6     884.746 238.448-847.685  0.00  0.00     0.225 C 
BRANCH 101 102
ATOM    102  N   GLY d   6     883.432 238.743-847.119  0.00  0.00    -0.350 N 
ATOM    103  C   SER d   5     882.828 239.826-847.474  0.00  0.00     0.242 C 
ATOM    104  O   SER d   5     883.375 240.579-848.278  0.00  0.00    -0.271 OA
ATOM    105  H   GLY d   6     883.004 238.109-846.460  0.00  0.00     0.163 HD
BRANCH 103 106
ATOM    106  CA  SER d   5     881.469 240.131-846.888  0.00  0.00     0.200 C 
BRANCH 106 107
ATOM    107  N   SER d   5     880.599 238.960-846.947  0.00  0.00    -0.344 N 
ATOM    108  C   GLU d   4     880.372 238.407-848.090  0.00  0.00     0.241 C 
ATOM    109  O   GLU d   4     880.898 238.886-849.104  0.00  0.00    -0.271 OA
ATOM    110  H   SER d   5     880.182 238.588-846.105  0.00  0.00     0.163 HD
BRANCH 108 111
ATOM    111  CA  GLU d   4     879.473 237.196-848.151  0.00  0.00     0.177 C 
BRANCH 111 112
ATOM    112  N   GLU d   4     879.833 236.225-847.121  0.00  0.00    -0.346 N 
ATOM    113  C   PRO d   3     881.038 235.765-847.089  0.00  0.00     0.241 C 
ATOM    114  O   PRO d   3     881.861 236.148-847.920  0.00  0.00    -0.271 OA
ATOM    115  H   GLU d   4     879.149 235.918-846.445  0.00  0.00     0.163 HD
BRANCH 113 116
ATOM    116  CA  PRO d   3     881.436 234.741-846.012  0.00  0.00     0.179 C 
ATOM    117  N   PRO d   3     880.984 235.151-844.690  0.00  0.00    -0.337 N 
ATOM    118  C   ASN d   2     881.506 236.146-844.056  0.00  0.00     0.243 C 
ATOM    119  CD  PRO d   3     879.906 234.357-844.141  0.00  0.00     0.127 C 
ATOM    120  O   ASN d   2     882.420 236.776-844.585  0.00  0.00    -0.271 OA
ATOM    121  CG  PRO d   3     879.449 233.539-845.351  0.00  0.00     0.022 C 
ATOM    122  CB  PRO d   3     880.732 233.387-846.181  0.00  0.00     0.037 C 
BRANCH 118 123
ATOM    123  CA  ASN d   2     880.974 236.501-842.688  0.00  0.00     0.185 C 
BRANCH 123 124
ATOM    124  N   ASN d   2     879.515 236.540-842.688  0.00  0.00    -0.346 N 
ATOM    125  C   GLU d   1     878.910 237.326-843.513  0.00  0.00     0.242 C 
ATOM    126  O   GLU d   1     879.586 238.025-844.281  0.00  0.00    -0.271 OA
ATOM    127  H   ASN d   2     878.987 235.960-842.051  0.00  0.00     0.163 HD
BRANCH 125 128
ATOM    128  CA  GLU d   1     877.401 237.366-843.513  0.00  0.00     0.191 C 
BRANCH 128 129
ATOM    129  N   GLU d   1     876.842 236.017-843.513  0.00  0.00    -0.326 NA
ATOM    130  H   GLU d   1     877.469 235.138-843.513  0.00  0.00     0.180 HD
ENDBRANCH 128 129
BRANCH 128 131
ATOM    131  CB  GLU d   1     876.878 238.151-842.276  0.00  0.00     0.047 C 
BRANCH 131 132
ATOM    132  CG  GLU d   1     877.353 239.636-842.165  0.00  0.00     0.116 C 
BRANCH 132 133
ATOM    133  CD  GLU d   1     876.929 240.440-840.950  0.00  0.00     0.172 C 
ATOM    134  OE1 GLU d   1     876.201 239.938-840.072  0.00  0.00    -0.648 OA
ATOM    135  OE2 GLU d   1     877.359 241.610-840.878  0.00  0.00    -0.648 OA
ENDBRANCH 132 133
ENDBRANCH 131 132
ENDBRANCH 128 131
ENDBRANCH 125 128
ENDBRANCH 123 124
BRANCH 123 136
ATOM    136  CB  ASN d   2     881.466 235.478-841.623  0.00  0.00     0.137 C 
BRANCH 136 137
ATOM    137  CG  ASN d   2     881.003 235.702-840.180  0.00  0.00     0.217 C 
ATOM    138  ND2 ASN d   2     881.598 236.617-839.462  0.00  0.00    -0.370 N 
ATOM    139 21HD ASN d   2     881.117 236.790-838.575  0.00  0.00     0.159 HD
ATOM    140 22HD ASN d   2     882.299 237.189-839.931  0.00  0.00     0.159 HD
ATOM    141  OD1 ASN d   2     880.083 235.068-839.686  0.00  0.00    -0.274 OA
ENDBRANCH 136 137
ENDBRANCH 123 136
ENDBRANCH 118 123
ENDBRANCH 113 116
ENDBRANCH 111 112
BRANCH 111 142
ATOM    142  CB  GLU d   4     877.985 237.614-847.981  0.00  0.00     0.045 C 
BRANCH 142 143
ATOM    143  CG  GLU d   4     877.436 238.617-849.046  0.00  0.00     0.116 C 
BRANCH 143 144
ATOM    144  CD  GLU d   4     876.010 239.114-848.903  0.00  0.00     0.172 C 
ATOM    145  OE1 GLU d   4     875.284 238.715-847.972  0.00  0.00    -0.648 OA
ATOM    146  OE2 GLU d   4     875.620 239.943-849.751  0.00  0.00    -0.648 OA
ENDBRANCH 143 144
ENDBRANCH 142 143
ENDBRANCH 111 142
ENDBRANCH 108 111
ENDBRANCH 106 107
BRANCH 106 147
ATOM    147  CB  SER d   5     881.580 240.664-845.438  0.00  0.00     0.199 C 
BRANCH 147 148
ATOM    148  OG  SER d   5     882.312 239.785-844.576  0.00  0.00    -0.398 OA
ATOM    149  HG  SER d   5     881.823 238.960-844.526  0.00  0.00     0.209 HD
ENDBRANCH 147 148
ENDBRANCH 106 147
ENDBRANCH 103 106
ENDBRANCH 101 102
ENDBRANCH  98 101
ENDBRANCH  96  97
BRANCH  96 150
ATOM    150  CB  LEU d   7     882.484 236.850-851.706  0.00  0.00     0.038 C 
BRANCH 150 151
ATOM    151  CG  LEU d   7     882.412 235.371-851.239  0.00  0.00    -0.020 C 
ATOM    152  CD1 LEU d   7     881.222 234.665-851.905  0.00  0.00     0.009 C 
ATOM    153  CD2 LEU d   7     883.706 234.592-851.531  0.00  0.00     0.009 C 
ENDBRANCH 150 151
ENDBRANCH  96 150
ENDBRANCH  93  96
ENDBRANCH  91  92
BRANCH  91 154
ATOM    154  CB  ASP d   8     881.629 242.135-851.103  0.00  0.00     0.147 C 
BRANCH 154 155
ATOM    155  CG  ASP d   8     881.410 243.556-851.643  0.00  0.00     0.175 C 
ATOM    156  OD1 ASP d   8     881.474 243.755-852.874  0.00  0.00    -0.648 OA
ATOM    157  OD2 ASP d   8     881.217 244.482-850.828  0.00  0.00    -0.648 OA
ENDBRANCH 154 155
ENDBRANCH  91 154
ENDBRANCH  88  91
ENDBRANCH  86  87
BRANCH  86 158
ATOM    158  CB  GLU d   9     886.669 242.376-849.231  0.00  0.00     0.045 C 
BRANCH 158 159
ATOM    159  CG  GLU d   9     888.052 243.069-849.002  0.00  0.00     0.116 C 
BRANCH 159 160
ATOM    160  CD  GLU d   9     888.754 242.856-847.674  0.00  0.00     0.172 C 
ATOM    161  OE1 GLU d   9     888.232 242.165-846.777  0.00  0.00    -0.648 OA
ATOM    162  OE2 GLU d   9     889.873 243.394-847.542  0.00  0.00    -0.648 OA
ENDBRANCH 159 160
ENDBRANCH 158 159
ENDBRANCH  86 158
ENDBRANCH   1  86
TORSDOF 66
