REMARK WARNING: 32 MAX_TORS EXCEEDED!!!
REMARK  71 active torsions:
REMARK  status: ('A' for Active; 'I' for Inactive)
REMARK    1  A    between atoms: N_1  and  CA_2 
REMARK    2  A    between atoms: CA_2  and  C_3 
REMARK    3  A    between atoms: CA_2  and  CB_5 
REMARK       I    between atoms: C_3  and  N_11 
REMARK    4  A    between atoms: CB_5  and  CG_6 
REMARK    5  A    between atoms: CG_6  and  CD_7 
REMARK    6  A    between atoms: N_11  and  CA_12 
REMARK    7  A    between atoms: CA_12  and  C_13 
REMARK    8  A    between atoms: CA_12  and  CB_15 
REMARK       I    between atoms: C_13  and  N_22 
REMARK    9  A    between atoms: CB_15  and  CG_16 
REMARK       I    between atoms: CG_16  and  ND2_17 
REMARK   10  A    between atoms: CA_23  and  C_24 
REMARK       I    between atoms: C_24  and  N_29 
REMARK   11  A    between atoms: N_29  and  CA_30 
REMARK   12  A    between atoms: CA_30  and  C_31 
REMARK   13  A    between atoms: CA_30  and  CB_33 
REMARK       I    between atoms: C_31  and  N_39 
REMARK   14  A    between atoms: CB_33  and  CG_34 
REMARK   15  A    between atoms: CG_34  and  CD_35 
REMARK   16  A    between atoms: N_39  and  CA_40 
REMARK   17  A    between atoms: CA_40  and  C_41 
REMARK   18  A    between atoms: CA_40  and  CB_43 
REMARK       I    between atoms: C_41  and  N_47 
REMARK   19  A    between atoms: CB_43  and  OG_44 
REMARK   20  A    between atoms: N_47  and  CA_48 
REMARK   21  A    between atoms: CA_48  and  C_49 
REMARK   22  A    between atoms: CA_48  and  CB_51 
REMARK       I    between atoms: C_49  and  N_56 
REMARK   23  A    between atoms: CB_51  and  CG1_52 
REMARK   24  A    between atoms: N_56  and  CA_57 
REMARK   25  A    between atoms: CA_57  and  C_58 
REMARK   26  A    between atoms: CA_57  and  CB_60 
REMARK       I    between atoms: C_58  and  N_65 
REMARK   27  A    between atoms: CB_60  and  CG_61 
REMARK   28  A    between atoms: N_65  and  CA_66 
REMARK   29  A    between atoms: CA_66  and  C_67 
REMARK   30  A    between atoms: CA_66  and  CB_69 
REMARK       I    between atoms: C_67  and  N_78 
REMARK   31  A    between atoms: CB_69  and  CG_70 
REMARK   32  A    between atoms: CG_70  and  CD_71 
REMARK   33  A    between atoms: CD_71  and  CE_72 
REMARK   34  A    between atoms: CE_72  and  NZ_73 
REMARK   35  A    between atoms: N_78  and  CA_79 
REMARK   36  A    between atoms: CA_79  and  C_80 
REMARK   37  A    between atoms: CA_79  and  CB_82 
REMARK       I    between atoms: C_80  and  N_88 
REMARK   38  A    between atoms: CB_82  and  CG_83 
REMARK   39  A    between atoms: CG_83  and  CD_84 
REMARK   40  A    between atoms: N_88  and  CA_89 
REMARK   41  A    between atoms: CA_89  and  C_90 
REMARK   42  A    between atoms: CA_89  and  CB_92 
REMARK       I    between atoms: C_90  and  N_100 
REMARK   43  A    between atoms: CB_92  and  CG_93 
REMARK   44  A    between atoms: N_100  and  CA_101 
REMARK   45  A    between atoms: CA_101  and  C_102 
REMARK   46  A    between atoms: CA_101  and  CB_104 
REMARK       I    between atoms: C_102  and  N_108 
REMARK   47  A    between atoms: N_108  and  CA_109 
REMARK   48  A    between atoms: CA_109  and  C_110 
REMARK   49  A    between atoms: CA_109  and  CB_112 
REMARK       I    between atoms: C_110  and  N_120 
REMARK   50  A    between atoms: CB_112  and  CG_113 
REMARK   51  A    between atoms: CG_113  and  CD_114 
REMARK       I    between atoms: CD_114  and  NE2_115 
REMARK   52  A    between atoms: N_120  and  CA_121 
REMARK   53  A    between atoms: CA_121  and  C_122 
REMARK   54  A    between atoms: CA_121  and  CB_124 
REMARK       I    between atoms: C_122  and  N_137 
REMARK   55  A    between atoms: CB_124  and  CG_125 
REMARK   56  A    between atoms: CG_125  and  CD_126 
REMARK   57  A    between atoms: CD_126  and  NE_127 
REMARK       I    between atoms: NE_127  and  CZ_128 
REMARK       I    between atoms: CZ_128  and  NH1_129 
REMARK       I    between atoms: CZ_128  and  NH2_130 
REMARK   58  A    between atoms: N_137  and  CA_138 
REMARK   59  A    between atoms: CA_138  and  C_139 
REMARK   60  A    between atoms: CA_138  and  CB_141 
REMARK       I    between atoms: C_139  and  N_145 
REMARK   61  A    between atoms: N_145  and  CA_146 
REMARK   62  A    between atoms: CA_146  and  C_147 
REMARK   63  A    between atoms: CA_146  and  CB_149 
REMARK       I    between atoms: C_147  and  N_154 
REMARK   64  A    between atoms: CB_149  and  CG_150 
REMARK   65  A    between atoms: CG_150  and  SD_151 
REMARK   66  A    between atoms: N_154  and  CA_155 
REMARK   67  A    between atoms: CA_155  and  C_156 
REMARK   68  A    between atoms: CA_155  and  CB_158 
REMARK   69  A    between atoms: CB_158  and  CG_159 
REMARK   70  A    between atoms: CG_159  and  CD_160 
REMARK   71  A    between atoms: CD_160  and  NE_161 
REMARK       I    between atoms: NE_161  and  CZ_162 
REMARK       I    between atoms: CZ_162  and  NH1_163 
ROOT
ATOM      1  CA  GLU d   9    1346.034 395.611-1349.622  0.00  0.00     0.177 C 
ENDROOT
BRANCH   1   2
ATOM      2  N   GLU d   9    1344.731 394.954-1349.678  0.00  0.00    -0.346 N 
ATOM      3  C   LYS d   8    1344.052 395.005-1350.773  0.00  0.00     0.241 C 
ATOM      4  O   LYS d   8    1344.525 395.610-1351.746  0.00  0.00    -0.271 OA
ATOM      5  H   GLU d   9    1344.368 394.467-1348.871  0.00  0.00     0.163 HD
BRANCH   3   6
ATOM      6  CA  LYS d   8    1342.704 394.325-1350.831  0.00  0.00     0.176 C 
BRANCH   6   7
ATOM      7  N   LYS d   8    1342.775 392.975-1350.278  0.00  0.00    -0.346 N 
ATOM      8  C   LEU d   7    1343.612 392.135-1350.785  0.00  0.00     0.241 C 
ATOM      9  O   LEU d   7    1344.333 392.498-1351.727  0.00  0.00    -0.271 OA
ATOM     10  H   LYS d   8    1342.177 392.704-1349.511  0.00  0.00     0.163 HD
BRANCH   8  11
ATOM     11  CA  LEU d   7    1343.685 390.739-1350.213  0.00  0.00     0.177 C 
BRANCH  11  12
ATOM     12  N   LEU d   7    1343.740 390.775-1348.754  0.00  0.00    -0.346 N 
ATOM     13  C   ILE d   6    1344.686 391.439-1348.181  0.00  0.00     0.241 C 
ATOM     14  O   ILE d   6    1345.521 392.026-1348.885  0.00  0.00    -0.271 OA
ATOM     15  H   LEU d   7    1343.048 390.288-1348.203  0.00  0.00     0.163 HD
BRANCH  13  16
ATOM     16  CA  ILE d   6    1344.743 391.476-1346.673  0.00  0.00     0.180 C 
BRANCH  16  17
ATOM     17  N   ILE d   6    1343.430 391.771-1346.106  0.00  0.00    -0.346 N 
ATOM     18  C   SER d   5    1342.825 392.854-1346.460  0.00  0.00     0.243 C 
ATOM     19  O   SER d   5    1343.372 393.607-1347.265  0.00  0.00    -0.271 OA
ATOM     20  H   ILE d   6    1343.002 391.136-1345.447  0.00  0.00     0.163 HD
BRANCH  18  21
ATOM     21  CA  SER d   5    1341.467 393.159-1345.875  0.00  0.00     0.200 C 
BRANCH  21  22
ATOM     22  N   SER d   5    1340.597 391.988-1345.933  0.00  0.00    -0.344 N 
ATOM     23  C   GLU d   4    1340.370 391.435-1347.076  0.00  0.00     0.241 C 
ATOM     24  O   GLU d   4    1340.896 391.915-1348.091  0.00  0.00    -0.271 OA
ATOM     25  H   SER d   5    1340.180 391.616-1345.091  0.00  0.00     0.163 HD
BRANCH  23  26
ATOM     26  CA  GLU d   4    1339.471 390.224-1347.137  0.00  0.00     0.177 C 
BRANCH  26  27
ATOM     27  N   GLU d   4    1339.831 389.253-1346.108  0.00  0.00    -0.346 N 
ATOM     28  C   PRO d   3    1341.035 388.793-1346.075  0.00  0.00     0.241 C 
ATOM     29  O   PRO d   3    1341.859 389.176-1346.907  0.00  0.00    -0.271 OA
ATOM     30  H   GLU d   4    1339.146 388.946-1345.431  0.00  0.00     0.163 HD
BRANCH  28  31
ATOM     31  CA  PRO d   3    1341.433 387.769-1344.999  0.00  0.00     0.179 C 
ATOM     32  N   PRO d   3    1340.982 388.179-1343.677  0.00  0.00    -0.337 N 
ATOM     33  C   ASN d   2    1341.503 389.174-1343.043  0.00  0.00     0.243 C 
ATOM     34  CD  PRO d   3    1339.904 387.385-1343.128  0.00  0.00     0.127 C 
ATOM     35  O   ASN d   2    1342.418 389.804-1343.572  0.00  0.00    -0.271 OA
ATOM     36  CG  PRO d   3    1339.446 386.567-1344.338  0.00  0.00     0.022 C 
ATOM     37  CB  PRO d   3    1340.729 386.415-1345.168  0.00  0.00     0.037 C 
BRANCH  33  38
ATOM     38  CA  ASN d   2    1340.972 389.529-1341.674  0.00  0.00     0.185 C 
BRANCH  38  39
ATOM     39  N   ASN d   2    1339.513 389.568-1341.674  0.00  0.00    -0.346 N 
ATOM     40  C   GLU d   1    1338.908 390.354-1342.499  0.00  0.00     0.242 C 
ATOM     41  O   GLU d   1    1339.584 391.053-1343.268  0.00  0.00    -0.271 OA
ATOM     42  H   ASN d   2    1338.985 388.988-1341.038  0.00  0.00     0.163 HD
BRANCH  40  43
ATOM     43  CA  GLU d   1    1337.399 390.394-1342.499  0.00  0.00     0.191 C 
BRANCH  43  44
ATOM     44  N   GLU d   1    1336.840 389.045-1342.499  0.00  0.00    -0.326 NA
ATOM     45  H   GLU d   1    1337.467 388.166-1342.499  0.00  0.00     0.180 HD
ENDBRANCH  43  44
BRANCH  43  46
ATOM     46  CB  GLU d   1    1336.876 391.179-1341.262  0.00  0.00     0.047 C 
BRANCH  46  47
ATOM     47  CG  GLU d   1    1337.351 392.664-1341.151  0.00  0.00     0.116 C 
BRANCH  47  48
ATOM     48  CD  GLU d   1    1336.927 393.468-1339.936  0.00  0.00     0.172 C 
ATOM     49  OE1 GLU d   1    1336.199 392.966-1339.058  0.00  0.00    -0.648 OA
ATOM     50  OE2 GLU d   1    1337.357 394.638-1339.864  0.00  0.00    -0.648 OA
ENDBRANCH  47  48
ENDBRANCH  46  47
ENDBRANCH  43  46
ENDBRANCH  40  43
ENDBRANCH  38  39
BRANCH  38  51
ATOM     51  CB  ASN d   2    1341.464 388.506-1340.610  0.00  0.00     0.137 C 
BRANCH  51  52
ATOM     52  CG  ASN d   2    1341.001 388.730-1339.167  0.00  0.00     0.217 C 
ATOM     53  ND2 ASN d   2    1341.595 389.645-1338.448  0.00  0.00    -0.370 N 
ATOM     54 21HD ASN d   2    1341.115 389.818-1337.562  0.00  0.00     0.159 HD
ATOM     55 22HD ASN d   2    1342.297 390.217-1338.918  0.00  0.00     0.159 HD
ATOM     56  OD1 ASN d   2    1340.080 388.096-1338.672  0.00  0.00    -0.274 OA
ENDBRANCH  51  52
ENDBRANCH  38  51
ENDBRANCH  33  38
ENDBRANCH  28  31
ENDBRANCH  26  27
BRANCH  26  57
ATOM     57  CB  GLU d   4    1337.982 390.642-1346.967  0.00  0.00     0.045 C 
BRANCH  57  58
ATOM     58  CG  GLU d   4    1337.434 391.646-1348.032  0.00  0.00     0.116 C 
BRANCH  58  59
ATOM     59  CD  GLU d   4    1336.007 392.143-1347.888  0.00  0.00     0.172 C 
ATOM     60  OE1 GLU d   4    1335.281 391.744-1346.957  0.00  0.00    -0.648 OA
ATOM     61  OE2 GLU d   4    1335.618 392.972-1348.737  0.00  0.00    -0.648 OA
ENDBRANCH  58  59
ENDBRANCH  57  58
ENDBRANCH  26  57
ENDBRANCH  23  26
ENDBRANCH  21  22
BRANCH  21  62
ATOM     62  CB  SER d   5    1341.578 393.691-1344.424  0.00  0.00     0.199 C 
BRANCH  62  63
ATOM     63  OG  SER d   5    1342.310 392.812-1343.563  0.00  0.00    -0.398 OA
ATOM     64  HG  SER d   5    1341.821 391.987-1343.512  0.00  0.00     0.209 HD
ENDBRANCH  62  63
ENDBRANCH  21  62
ENDBRANCH  18  21
ENDBRANCH  16  17
BRANCH  16  65
ATOM     65  CB  ILE d   6    1345.343 390.140-1346.073  0.00  0.00     0.013 C 
ATOM     66  CG2 ILE d   6    1346.784 389.838-1346.588  0.00  0.00     0.012 C 
BRANCH  65  67
ATOM     67  CG1 ILE d   6    1345.363 390.077-1344.512  0.00  0.00     0.002 C 
ATOM     68  CD1 ILE d   6    1345.633 388.688-1343.897  0.00  0.00     0.005 C 
ENDBRANCH  65  67
ENDBRANCH  16  65
ENDBRANCH  13  16
ENDBRANCH  11  12
BRANCH  11  69
ATOM     69  CB  LEU d   7    1342.482 389.879-1350.693  0.00  0.00     0.038 C 
BRANCH  69  70
ATOM     70  CG  LEU d   7    1342.409 388.400-1350.227  0.00  0.00    -0.020 C 
ATOM     71  CD1 LEU d   7    1341.219 387.694-1350.892  0.00  0.00     0.009 C 
ATOM     72  CD2 LEU d   7    1343.703 387.621-1350.519  0.00  0.00     0.009 C 
ENDBRANCH  69  70
ENDBRANCH  11  69
ENDBRANCH   8  11
ENDBRANCH   6   7
BRANCH   6  73
ATOM     73  CB  LYS d   8    1341.635 395.144-1350.058  0.00  0.00     0.035 C 
BRANCH  73  74
ATOM     74  CG  LYS d   8    1341.429 396.573-1350.620  0.00  0.00     0.004 C 
BRANCH  74  75
ATOM     75  CD  LYS d   8    1340.429 397.433-1349.842  0.00  0.00     0.027 C 
BRANCH  75  76
ATOM     76  CE  LYS d   8    1340.379 398.836-1350.461  0.00  0.00     0.229 C 
BRANCH  76  77
ATOM     77  NZ  LYS d   8    1339.298 399.613-1349.829  0.00  0.00    -0.079 N 
ATOM     78  3HZ LYS d   8    1338.449 399.371-1350.320  0.00  0.00     0.274 HD
ATOM     79  1HZ LYS d   8    1339.231 399.392-1348.828  0.00  0.00     0.274 HD
ATOM     80  2HZ LYS d   8    1339.479 400.620-1349.887  0.00  0.00     0.274 HD
ENDBRANCH  76  77
ENDBRANCH  75  76
ENDBRANCH  74  75
ENDBRANCH  73  74
ENDBRANCH   6  73
ENDBRANCH   3   6
ENDBRANCH   1   2
BRANCH   1  81
ATOM     81  C   GLU d   9    1346.953 395.084-1350.697  0.00  0.00     0.241 C 
ATOM     82  O   GLU d   9    1347.617 395.839-1351.422  0.00  0.00    -0.271 OA
ATOM     83  N   HIS d  10    1347.049 393.809-1350.868  0.00  0.00    -0.346 N 
ATOM     84  H   HIS d  10    1346.518 393.173-1350.290  0.00  0.00     0.163 HD
BRANCH  83  85
ATOM     85  CA  HIS d  10    1347.937 393.298-1351.908  0.00  0.00     0.182 C 
BRANCH  85  86
ATOM     86  C   HIS d  10    1347.571 393.864-1353.259  0.00  0.00     0.241 C 
ATOM     87  O   HIS d  10    1348.424 394.329-1354.030  0.00  0.00    -0.271 OA
ATOM     88  N   VAL d  11    1346.333 393.863-1353.623  0.00  0.00    -0.346 N 
ATOM     89  H   VAL d  11    1345.620 393.490-1353.012  0.00  0.00     0.163 HD
BRANCH  88  90
ATOM     90  CA  VAL d  11    1345.979 394.411-1354.929  0.00  0.00     0.180 C 
BRANCH  90  91
ATOM     91  C   VAL d  11    1346.443 395.841-1355.060  0.00  0.00     0.241 C 
ATOM     92  O   VAL d  11    1347.045 396.247-1356.063  0.00  0.00    -0.271 OA
ATOM     93  N   GLN d  12    1346.206 396.666-1354.097  0.00  0.00    -0.346 N 
ATOM     94  H   GLN d  12    1345.717 396.360-1353.269  0.00  0.00     0.163 HD
BRANCH  93  95
ATOM     95  CA  GLN d  12    1346.655 398.049-1354.223  0.00  0.00     0.177 C 
BRANCH  95  96
ATOM     96  C   GLN d  12    1348.145 398.117-1354.460  0.00  0.00     0.241 C 
ATOM     97  O   GLN d  12    1348.632 398.826-1355.338  0.00  0.00    -0.271 OA
ATOM     98  N   ARG d  13    1348.929 397.409-1353.720  0.00  0.00    -0.346 N 
ATOM     99  H   ARG d  13    1348.553 396.819-1352.992  0.00  0.00     0.163 HD
BRANCH  98 100
ATOM    100  CA  ARG d  13    1350.370 397.475-1353.950  0.00  0.00     0.176 C 
BRANCH 100 101
ATOM    101  C   ARG d  13    1350.706 397.105-1355.375  0.00  0.00     0.241 C 
ATOM    102  O   ARG d  13    1351.475 397.777-1356.058  0.00  0.00    -0.271 OA
ATOM    103  N   VAL d  14    1350.170 396.051-1355.891  0.00  0.00    -0.346 N 
ATOM    104  H   VAL d  14    1349.535 395.482-1355.350  0.00  0.00     0.163 HD
BRANCH 103 105
ATOM    105  CA  VAL d  14    1350.496 395.693-1357.269  0.00  0.00     0.180 C 
BRANCH 105 106
ATOM    106  C   VAL d  14    1350.166 396.824-1358.213  0.00  0.00     0.241 C 
ATOM    107  O   VAL d  14    1350.960 397.206-1359.082  0.00  0.00    -0.271 OA
ATOM    108  N   MET d  15    1349.022 397.410-1358.111  0.00  0.00    -0.346 N 
ATOM    109  H   MET d  15    1348.356 397.116-1357.411  0.00  0.00     0.163 HD
BRANCH 108 110
ATOM    110  CA  MET d  15    1348.702 398.503-1359.024  0.00  0.00     0.177 C 
BRANCH 110 111
ATOM    111  C   MET d  15    1349.732 399.603-1358.934  0.00  0.00     0.241 C 
ATOM    112  O   MET d  15    1350.235 400.115-1359.946  0.00  0.00    -0.271 OA
ATOM    113  N   ARG d  16    1350.100 400.023-1357.771  0.00  0.00    -0.347 N 
ATOM    114  H   ARG d  16    1349.704 399.622-1356.933  0.00  0.00     0.163 HD
BRANCH 113 115
ATOM    115  CA  ARG d  16    1351.096 401.087-1357.686  0.00  0.00     0.162 C 
BRANCH 115 116
ATOM    116  C   ARG d  16    1352.367 400.695-1358.402  0.00  0.00     0.219 C 
ATOM    117  O   ARG d  16    1352.482 399.619-1358.984  0.00  0.00    -0.287 OA
ENDBRANCH 115 116
BRANCH 115 118
ATOM    118  CB  ARG d  16    1351.364 401.403-1356.187  0.00  0.00     0.035 C 
BRANCH 118 119
ATOM    119  CG  ARG d  16    1352.189 402.692-1355.912  0.00  0.00     0.023 C 
BRANCH 119 120
ATOM    120  CD  ARG d  16    1352.438 402.910-1354.411  0.00  0.00     0.138 C 
BRANCH 120 121
ATOM    121  NE  ARG d  16    1353.214 404.168-1354.208  0.00  0.00    -0.227 N 
ATOM    122  CZ  ARG d  16    1353.604 404.649-1353.031  0.00  0.00     0.665 C 
ATOM    123  NH1 ARG d  16    1353.356 404.064-1351.894  0.00  0.00    -0.235 N 
ATOM    124  NH2 ARG d  16    1354.268 405.762-1353.011  0.00  0.00    -0.235 N 
ATOM    125 11HH ARG d  16    1352.830 403.191-1351.980  0.00  0.00     0.174 HD
ATOM    126 12HH ARG d  16    1353.690 404.498-1351.032  0.00  0.00     0.174 HD
ATOM    127 21HH ARG d  16    1354.454 406.206-1353.912  0.00  0.00     0.174 HD
ATOM    128 22HH ARG d  16    1354.557 406.116-1352.098  0.00  0.00     0.174 HD
ATOM    129  HE  ARG d  16    1353.493 404.750-1355.004  0.00  0.00     0.177 HD
ENDBRANCH 120 121
ENDBRANCH 119 120
ENDBRANCH 118 119
ENDBRANCH 115 118
ENDBRANCH 113 115
ENDBRANCH 110 111
BRANCH 110 130
ATOM    130  CB  MET d  15    1347.280 399.049-1358.715  0.00  0.00     0.045 C 
BRANCH 130 131
ATOM    131  CG  MET d  15    1346.118 398.051-1358.908  0.00  0.00     0.076 C 
BRANCH 131 132
ATOM    132  SD  MET d  15    1344.544 398.917-1358.794  0.00  0.00    -0.173 SA
ATOM    133  CE  MET d  15    1343.463 397.487-1358.659  0.00  0.00     0.089 C 
ENDBRANCH 131 132
ENDBRANCH 130 131
ENDBRANCH 110 130
ENDBRANCH 108 110
ENDBRANCH 105 106
BRANCH 105 134
ATOM    134  CB  VAL d  14    1349.723 394.376-1357.677  0.00  0.00     0.009 C 
ATOM    135  CG1 VAL d  14    1349.813 393.959-1359.171  0.00  0.00     0.012 C 
ATOM    136  CG2 VAL d  14    1350.155 393.123-1356.878  0.00  0.00     0.012 C 
ENDBRANCH 105 134
ENDBRANCH 103 105
ENDBRANCH 100 101
BRANCH 100 137
ATOM    137  CB  ARG d  13    1351.082 396.535-1352.937  0.00  0.00     0.036 C 
BRANCH 137 138
ATOM    138  CG  ARG d  13    1352.627 396.688-1352.855  0.00  0.00     0.023 C 
BRANCH 138 139
ATOM    139  CD  ARG d  13    1353.254 395.699-1351.858  0.00  0.00     0.138 C 
BRANCH 139 140
ATOM    140  NE  ARG d  13    1354.731 395.906-1351.806  0.00  0.00    -0.227 N 
ATOM    141  CZ  ARG d  13    1355.578 395.213-1351.052  0.00  0.00     0.665 C 
ATOM    142  NH1 ARG d  13    1355.213 394.248-1350.255  0.00  0.00    -0.235 N 
ATOM    143  NH2 ARG d  13    1356.838 395.512-1351.108  0.00  0.00    -0.235 N 
ATOM    144 11HH ARG d  13    1354.207 394.062-1350.259  0.00  0.00     0.174 HD
ATOM    145 12HH ARG d  13    1355.926 393.764-1349.707  0.00  0.00     0.174 HD
ATOM    146 21HH ARG d  13    1357.106 396.271-1351.738  0.00  0.00     0.174 HD
ATOM    147 22HH ARG d  13    1357.473 394.970-1350.519  0.00  0.00     0.174 HD
ATOM    148  HE  ARG d  13    1355.182 396.628-1352.376  0.00  0.00     0.177 HD
ENDBRANCH 139 140
ENDBRANCH 138 139
ENDBRANCH 137 138
ENDBRANCH 100 137
ENDBRANCH  98 100
ENDBRANCH  95  96
BRANCH  95 149
ATOM    149  CB  GLN d  12    1346.264 398.816-1352.940  0.00  0.00     0.044 C 
BRANCH 149 150
ATOM    150  CG  GLN d  12    1346.624 400.338-1352.907  0.00  0.00     0.105 C 
BRANCH 150 151
ATOM    151  CD  GLN d  12    1346.321 401.150-1351.642  0.00  0.00     0.215 C 
ATOM    152  NE2 GLN d  12    1345.754 400.573-1350.614  0.00  0.00    -0.370 N 
ATOM    153 21HE GLN d  12    1345.647 401.167-1349.790  0.00  0.00     0.159 HD
ATOM    154 22HE GLN d  12    1345.590 399.569-1350.718  0.00  0.00     0.159 HD
ATOM    155  OE1 GLN d  12    1346.623 402.331-1351.563  0.00  0.00    -0.274 OA
ENDBRANCH 150 151
ENDBRANCH 149 150
ENDBRANCH  95 149
ENDBRANCH  93  95
ENDBRANCH  90  91
BRANCH  90 156
ATOM    156  CB  VAL d  11    1344.417 394.305-1355.149  0.00  0.00     0.009 C 
ATOM    157  CG1 VAL d  11    1343.849 395.010-1356.411  0.00  0.00     0.012 C 
ATOM    158  CG2 VAL d  11    1343.892 392.851-1355.224  0.00  0.00     0.012 C 
ENDBRANCH  90 156
ENDBRANCH  88  90
ENDBRANCH  85  86
BRANCH  85 159
ATOM    159  CB  HIS d  10    1347.773 391.769-1351.905  0.00  0.00     0.095 C 
BRANCH 159 160
ATOM    160  CG  HIS d  10    1349.058 391.058-1351.597  0.00  0.00     0.053 A 
ATOM    161  CD2 HIS d  10    1349.438 390.722-1350.304  0.00  0.00     0.116 A 
ATOM    162  NE2 HIS d  10    1350.653 390.090-1350.371  0.00  0.00    -0.359 N 
ATOM    163  CE1 HIS d  10    1350.916 390.094-1351.706  0.00  0.00     0.207 A 
ATOM    164  2HE HIS d  10    1351.219 389.712-1349.598  0.00  0.00     0.166 HD
ATOM    165  ND1 HIS d  10    1350.010 390.653-1352.529  0.00  0.00    -0.247 NA
ENDBRANCH 159 160
ENDBRANCH  85 159
ENDBRANCH  83  85
ENDBRANCH   1  81
BRANCH   1 166
ATOM    166  CB  GLU d   9    1346.667 395.402-1348.216  0.00  0.00     0.045 C 
BRANCH 166 167
ATOM    167  CG  GLU d   9    1348.050 396.094-1347.986  0.00  0.00     0.116 C 
BRANCH 167 168
ATOM    168  CD  GLU d   9    1348.751 395.880-1346.657  0.00  0.00     0.172 C 
ATOM    169  OE1 GLU d   9    1348.229 395.188-1345.762  0.00  0.00    -0.648 OA
ATOM    170  OE2 GLU d   9    1349.870 396.417-1346.525  0.00  0.00    -0.648 OA
ENDBRANCH 167 168
ENDBRANCH 166 167
ENDBRANCH   1 166
TORSDOF 71
