@<TRIPOS>MOLECULE
5-18
269 270 16              
SMALL
USER_CHARGES
@<TRIPOS>ATOM
1	   N	836.055	223.195	-798.969	N.3	1	GLU1	-0.516	
2	  CA	836.614	224.544	-798.969	C.3	1	GLU1	0.040	
3	   C	838.123	224.504	-798.969	C.2	1	GLU1	0.537	
4	   O	838.799	225.204	-799.737	O.2	1	GLU1	-0.582	
5	  CB	836.091	225.329	-797.732	C.3	1	GLU1	0.056	
6	  CG	836.566	226.814	-797.620	C.3	1	GLU1	0.014	
7	  CD	836.142	227.618	-796.406	C.2	1	GLU1	0.805	
8	 OE1	835.414	227.116	-795.528	O.co2	1	GLU1	-0.819	
9	 OE2	836.572	228.788	-796.333	O.co2	1	GLU1	-0.819	
10	   H	836.682	222.316	-798.969	 H	1	GLU1	0.294	
11	  HA	836.288	225.062	-799.888	 H	1	GLU1	0.111	
12	 2HB	836.380	224.798	-796.802	 H	1	GLU1	-0.017	
13	 3HB	834.984	225.319	-797.719	 H	1	GLU1	-0.017	
14	 2HG	836.256	227.399	-798.502	 H	1	GLU1	-0.043	
15	 3HG	837.666	226.881	-797.591	 H	1	GLU1	-0.043	
16	   N	838.728	223.719	-798.143	N.am	2	ASN2	-0.416	
17	  CA	840.187	223.680	-798.143	C.3	2	ASN2	0.014	
18	   C	840.718	223.325	-799.512	C.2	2	ASN2	0.597	
19	   O	841.633	223.955	-800.041	O.2	2	ASN2	-0.568	
20	  CB	840.679	222.657	-797.079	C.3	2	ASN2	-0.204	
21	  CG	840.216	222.881	-795.636	C.2	2	ASN2	0.713	
22	 ND2	840.810	223.796	-794.918	N.pl3	2	ASN2	-0.919	
23	 OD1	839.296	222.247	-795.142	O.2	2	ASN2	-0.593	
24	   H	838.200	223.139	-797.507	 H	2	ASN2	0.272	
25	  HA	840.564	224.690	-797.898	 H	2	ASN2	0.105	
26	 2HB	841.784	222.598	-797.083	 H	2	ASN2	0.080	
27	 3HB	840.350	221.639	-797.365	 H	2	ASN2	0.080	
28	1HD2	840.330	223.969	-794.031	 H	2	ASN2	0.420	
29	2HD2	841.512	224.367	-795.387	 H	2	ASN2	0.420	
30	   N	840.197	222.329	-800.146	N.am	3	PRO3	-0.255	
31	  CA	840.649	221.920	-801.468	C.3	3	PRO3	-0.027	
32	   C	840.251	222.944	-802.545	C.2	3	PRO3	0.590	
33	   O	841.074	223.327	-803.376	O.2	3	PRO3	-0.575	
34	  CB	839.945	220.565	-801.637	C.3	3	PRO3	-0.007	
35	  CG	838.662	220.717	-800.807	C.3	3	PRO3	0.019	
36	  CD	839.119	221.536	-799.597	C.3	3	PRO3	0.019	
37	  HA	841.735	221.800	-801.481	 H	3	PRO3	0.064	
38	 2HB	840.568	219.784	-801.196	 H	3	PRO3	0.025	
39	 3HB	839.747	220.317	-802.682	 H	3	PRO3	0.025	
40	 2HG	838.234	219.755	-800.516	 H	3	PRO3	0.021	
41	 3HG	837.924	221.288	-801.374	 H	3	PRO3	0.021	
42	 2HD	839.508	220.887	-798.810	 H	3	PRO3	0.039	
43	 3HD	838.323	222.172	-799.204	 H	3	PRO3	0.039	
44	   N	839.046	223.404	-802.577	N.am	4	GLU4	-0.516	
45	  CA	838.686	224.374	-803.607	C.3	4	GLU4	0.040	
46	   C	839.585	225.586	-803.545	C.2	4	GLU4	0.537	
47	   O	840.111	226.065	-804.560	O.2	4	GLU4	-0.582	
48	  CB	837.198	224.793	-803.436	C.3	4	GLU4	0.056	
49	  CG	836.649	225.796	-804.502	C.3	4	GLU4	0.014	
50	  CD	835.223	226.293	-804.359	C.2	4	GLU4	0.805	
51	 OE1	834.496	225.894	-803.428	O.co2	4	GLU4	-0.819	
52	 OE2	834.833	227.122	-805.207	O.co2	4	GLU4	-0.819	
53	   H	838.362	223.097	-801.900	 H	4	GLU4	0.294	
54	  HA	838.817	223.904	-804.598	 H	4	GLU4	0.111	
55	 2HB	837.045	225.233	-802.430	 H	4	GLU4	-0.017	
56	 3HB	836.550	223.895	-803.443	 H	4	GLU4	-0.017	
57	 2HG	836.731	225.382	-805.520	 H	4	GLU4	-0.043	
58	 3HG	837.237	226.729	-804.513	 H	4	GLU4	-0.043	
59	   N	839.812	226.139	-802.402	N.am	5	GLU5	-0.516	
60	  CA	840.682	227.310	-802.343	C.3	5	GLU5	0.040	
61	   C	842.040	227.006	-802.927	C.2	5	GLU5	0.537	
62	   O	842.592	227.765	-803.737	O.2	5	GLU5	-0.582	
63	  CB	840.819	227.788	-800.869	C.3	5	GLU5	0.056	
64	  CG	841.685	229.071	-800.650	C.3	5	GLU5	0.014	
65	  CD	841.909	229.555	-799.229	C.2	5	GLU5	0.805	
66	 OE1	841.399	228.960	-798.261	O.co2	5	GLU5	-0.819	
67	 OE2	842.637	230.561	-799.092	O.co2	5	GLU5	-0.819	
68	   H	839.395	225.767	-801.561	 H	5	GLU5	0.294	
69	  HA	840.227	228.119	-802.943	 H	5	GLU5	0.111	
70	 2HB	841.240	226.971	-800.248	 H	5	GLU5	-0.017	
71	 3HB	839.816	227.971	-800.436	 H	5	GLU5	-0.017	
72	 2HG	841.275	229.929	-801.207	 H	5	GLU5	-0.043	
73	 3HG	842.710	228.931	-801.030	 H	5	GLU5	-0.043	
74	   N	842.645	225.923	-802.573	N.am	6	ILE6	-0.416	
75	  CA	843.958	225.629	-803.139	C.3	6	ILE6	-0.060	
76	   C	843.902	225.592	-804.646	C.2	6	ILE6	0.597	
77	   O	844.737	226.180	-805.350	O.2	6	ILE6	-0.568	
78	  CB	844.558	224.293	-802.539	C.3	6	ILE6	0.130	
79	 CG1	844.576	224.230	-800.978	C.3	6	ILE6	-0.043	
80	 CG2	846.000	223.992	-803.053	C.3	6	ILE6	-0.320	
81	 CD1	844.846	222.841	-800.363	C.3	6	ILE6	-0.066	
82	   H	842.216	225.288	-801.915	 H	6	ILE6	0.272	
83	  HA	844.632	226.463	-802.870	 H	6	ILE6	0.087	
84	  HB	843.901	223.467	-802.883	 H	6	ILE6	0.019	
85	2HG1	843.594	224.549	-800.583	 H	6	ILE6	0.024	
86	3HG1	845.292	224.972	-800.572	 H	6	ILE6	0.024	
87	1HG2	846.060	223.899	-804.151	 H	6	ILE6	0.088	
88	2HG2	846.721	224.774	-802.750	 H	6	ILE6	0.088	
89	3HG2	846.390	223.030	-802.674	 H	6	ILE6	0.088	
90	1HD1	844.119	222.087	-800.718	 H	6	ILE6	0.019	
91	2HD1	845.857	222.463	-800.598	 H	6	ILE6	0.019	
92	3HD1	844.769	222.870	-799.260	 H	6	ILE6	0.019	
93	   N	842.957	224.928	-805.221	N.am	7	LEU7	-0.416	
94	  CA	842.903	224.893	-806.680	C.3	7	LEU7	-0.052	
95	   C	842.831	226.288	-807.252	C.2	7	LEU7	0.597	
96	   O	843.552	226.651	-808.193	O.2	7	LEU7	-0.568	
97	  CB	841.701	224.032	-807.161	C.3	7	LEU7	-0.110	
98	  CG	841.628	222.553	-806.695	C.3	7	LEU7	0.353	
99	 CD1	840.439	221.846	-807.362	C.3	7	LEU7	-0.412	
100	 CD2	842.922	221.774	-806.986	C.3	7	LEU7	-0.412	
101	   H	842.265	224.441	-804.670	 H	7	LEU7	0.272	
102	  HA	843.845	224.453	-807.053	 H	7	LEU7	0.092	
103	 2HB	841.678	224.048	-808.269	 H	7	LEU7	0.046	
104	 3HB	840.760	224.534	-806.857	 H	7	LEU7	0.046	
105	  HG	841.458	222.544	-805.598	 H	7	LEU7	-0.036	
106	1HD1	839.482	222.355	-807.140	 H	7	LEU7	0.100	
107	2HD1	840.539	221.806	-808.463	 H	7	LEU7	0.100	
108	3HD1	840.332	220.805	-807.006	 H	7	LEU7	0.100	
109	1HD2	843.198	221.805	-808.056	 H	7	LEU7	0.100	
110	2HD2	843.775	222.186	-806.414	 H	7	LEU7	0.100	
111	3HD2	842.841	220.711	-806.691	 H	7	LEU7	0.100	
112	   N	841.993	227.128	-806.746	N.am	8	ASP8	-0.516	
113	  CA	841.922	228.478	-807.298	C.3	8	ASP8	0.038	
114	   C	843.268	229.158	-807.240	C.2	8	ASP8	0.537	
115	   O	843.742	229.764	-808.214	O.2	8	ASP8	-0.582	
116	  CB	840.843	229.316	-806.557	C.3	8	ASP8	-0.030	
117	  CG	840.624	230.737	-807.097	C.2	8	ASP8	0.799	
118	 OD1	840.689	230.937	-808.328	O.co2	8	ASP8	-0.801	
119	 OD2	840.431	231.663	-806.282	O.co2	8	ASP8	-0.801	
120	   H	841.394	226.857	-805.979	 H	8	ASP8	0.294	
121	  HA	841.640	228.400	-808.366	 H	8	ASP8	0.088	
122	 2HB	841.100	229.399	-805.485	 H	8	ASP8	-0.012	
123	 3HB	839.864	228.811	-806.591	 H	8	ASP8	-0.012	
124	   N	843.947	229.108	-806.144	N.am	9	GLU9	-0.516	
125	  CA	845.250	229.766	-806.088	C.3	9	GLU9	0.040	
126	   C	846.169	229.239	-807.163	C.2	9	GLU9	0.537	
127	   O	846.833	229.994	-807.888	O.2	9	GLU9	-0.582	
128	  CB	845.883	229.558	-804.682	C.3	9	GLU9	0.056	
129	  CG	847.265	230.251	-804.452	C.3	9	GLU9	0.014	
130	  CD	847.966	230.037	-803.123	C.2	9	GLU9	0.805	
131	 OE1	847.444	229.346	-802.227	O.co2	9	GLU9	-0.819	
132	 OE2	849.085	230.575	-802.990	O.co2	9	GLU9	-0.819	
133	   H	843.584	228.621	-805.338	 H	9	GLU9	0.294	
134	  HA	845.108	230.848	-806.263	 H	9	GLU9	0.111	
135	 2HB	845.996	228.473	-804.479	 H	9	GLU9	-0.017	
136	 3HB	845.185	229.911	-803.898	 H	9	GLU9	-0.017	
137	 2HG	847.192	231.342	-804.591	 H	9	GLU9	-0.043	
138	 3HG	848.012	229.906	-805.185	 H	9	GLU9	-0.043	
139	   N	846.266	227.964	-807.333	N.am	10	HIS10	-0.416	
140	  CA	847.155	227.454	-808.373	C.3	10	HIS10	-0.058	
141	   C	846.789	228.019	-809.724	C.2	10	HIS10	0.597	
142	   O	847.641	228.484	-810.495	O.2	10	HIS10	-0.568	
143	  CB	846.992	225.925	-808.369	C.3	10	HIS10	-0.007	
144	  CG	848.278	225.215	-808.060	C.2	10	HIS10	0.187	
145	 CD2	848.658	224.879	-806.768	C.2	10	HIS10	-0.221	
146	 ND1	849.230	224.810	-808.993	N.2	10	HIS10	-0.543	
147	 CE1	850.137	224.252	-808.169	C.2	10	HIS10	0.163	
148	 NE2	849.873	224.248	-806.834	N.pl3	10	HIS10	-0.280	
149	   H	845.735	227.328	-806.755	 H	10	HIS10	0.272	
150	  HA	848.174	227.811	-808.147	 H	10	HIS10	0.136	
151	 2HB	846.627	225.558	-809.349	 H	10	HIS10	0.037	
152	 3HB	846.236	225.587	-807.630	 H	10	HIS10	0.037	
153	 2HD	848.071	225.094	-805.879	 H	10	HIS10	0.186	
154	 1HE	851.028	223.832	-808.616	 H	10	HIS10	0.144	
155	 2HE	850.440	223.871	-806.061	 H	10	HIS10	0.334	
156	   N	845.551	228.017	-810.088	N.am	11	VAL11	-0.416	
157	  CA	845.196	228.564	-811.395	C.3	11	VAL11	-0.087	
158	   C	845.660	229.995	-811.526	C.2	11	VAL11	0.597	
159	   O	846.262	230.400	-812.529	O.2	11	VAL11	-0.568	
160	  CB	843.635	228.456	-811.615	C.3	11	VAL11	0.299	
161	 CG1	843.067	229.161	-812.878	C.3	11	VAL11	-0.319	
162	 CG2	843.112	227.002	-811.690	C.3	11	VAL11	-0.319	
163	   H	844.838	227.644	-809.478	 H	11	VAL11	0.272	
164	  HA	845.717	227.982	-812.177	 H	11	VAL11	0.097	
165	  HB	843.147	228.936	-810.740	 H	11	VAL11	-0.030	
166	1HG1	843.506	228.770	-813.815	 H	11	VAL11	0.079	
167	2HG1	841.968	229.053	-812.961	 H	11	VAL11	0.079	
168	3HG1	843.245	230.253	-812.868	 H	11	VAL11	0.079	
169	1HG2	843.401	226.415	-810.799	 H	11	VAL11	0.079	
170	2HG2	842.006	226.965	-811.733	 H	11	VAL11	0.079	
171	3HG2	843.494	226.462	-812.576	 H	11	VAL11	0.079	
172	   N	845.422	230.820	-810.564	N.am	12	GLN12	-0.416	
173	  CA	845.870	232.203	-810.690	C.3	12	GLN12	-0.003	
174	   C	847.360	232.271	-810.927	C.2	12	GLN12	0.597	
175	   O	847.847	232.980	-811.805	O.2	12	GLN12	-0.568	
176	  CB	845.478	232.970	-809.407	C.3	12	GLN12	-0.004	
177	  CG	845.837	234.492	-809.375	C.3	12	GLN12	-0.064	
178	  CD	845.534	235.305	-808.110	C.2	12	GLN12	0.695	
179	 NE2	844.967	234.728	-807.082	N.pl3	12	GLN12	-0.941	
180	 OE1	845.835	236.486	-808.032	O.2	12	GLN12	-0.609	
181	   H	844.933	230.513	-809.735	 H	12	GLN12	0.272	
182	  HA	845.371	232.660	-811.565	 H	12	GLN12	0.085	
183	 2HB	845.954	232.470	-808.538	 H	12	GLN12	0.017	
184	 3HB	844.388	232.862	-809.245	 H	12	GLN12	0.017	
185	 2HG	845.360	235.013	-810.226	 H	12	GLN12	0.035	
186	 3HG	846.921	234.635	-809.541	 H	12	GLN12	0.035	
187	1HE2	844.859	235.322	-806.258	 H	12	GLN12	0.425	
188	2HE2	844.804	233.724	-807.186	 H	12	GLN12	0.425	
189	   N	848.145	231.565	-810.186	N.am	13	ARG13	-0.348	
190	  CA	849.585	231.631	-810.416	C.3	13	ARG13	-0.264	
191	   C	849.922	231.261	-811.841	C.2	13	ARG13	0.734	
192	   O	850.690	231.933	-812.525	O.2	13	ARG13	-0.589	
193	  CB	850.298	230.692	-809.402	C.3	13	ARG13	-0.001	
194	  CG	851.843	230.846	-809.320	C.3	13	ARG13	0.039	
195	  CD	852.470	229.858	-808.323	C.3	13	ARG13	0.049	
196	  NE	853.947	230.066	-808.271	N.pl3	13	ARG13	-0.530	
197	  CZ	854.795	229.375	-807.516	C.cat	13	ARG13	0.808	
198	 NH1	854.430	228.410	-806.719	N.pl3	13	ARG13	-0.863	
199	 NH2	856.054	229.674	-807.572	N.pl3	13	ARG13	-0.863	
200	   H	847.768	230.974	-809.458	 H	13	ARG13	0.275	
201	  HA	849.909	232.677	-810.257	 H	13	ARG13	0.156	
202	 2HB	850.032	229.642	-809.642	 H	13	ARG13	0.033	
203	 3HB	849.872	230.858	-808.392	 H	13	ARG13	0.033	
204	 2HG	852.090	231.891	-809.040	 H	13	ARG13	0.029	
205	 3HG	852.294	230.691	-810.322	 H	13	ARG13	0.029	
206	 2HD	852.226	228.818	-808.632	 H	13	ARG13	0.069	
207	 3HD	852.013	230.003	-807.320	 H	13	ARG13	0.069	
208	  HE	854.398	230.789	-808.841	 H	13	ARG13	0.346	
209	1HH1	853.424	228.223	-806.723	 H	13	ARG13	0.448	
210	2HH1	855.143	227.927	-806.170	 H	13	ARG13	0.448	
211	1HH2	856.322	230.433	-808.203	 H	13	ARG13	0.448	
212	2HH2	856.689	229.133	-806.983	 H	13	ARG13	0.448	
213	   N	849.387	230.206	-812.356	N.am	14	VAL14	-0.416	
214	  CA	849.712	229.847	-813.734	C.3	14	VAL14	-0.087	
215	   C	849.382	230.977	-814.679	C.2	14	VAL14	0.597	
216	   O	850.176	231.360	-815.548	O.2	14	VAL14	-0.568	
217	  CB	848.941	228.530	-814.141	C.3	14	VAL14	0.299	
218	 CG1	849.031	228.112	-815.635	C.3	14	VAL14	-0.319	
219	 CG2	849.373	227.278	-813.341	C.3	14	VAL14	-0.319	
220	   H	848.752	229.637	-811.815	 H	14	VAL14	0.272	
221	  HA	850.801	229.671	-813.808	 H	14	VAL14	0.097	
222	  HB	847.864	228.701	-813.926	 H	14	VAL14	-0.030	
223	1HG1	850.072	227.936	-815.964	 H	14	VAL14	0.079	
224	2HG1	848.458	227.189	-815.848	 H	14	VAL14	0.079	
225	3HG1	848.602	228.875	-816.313	 H	14	VAL14	0.079	
226	1HG2	849.285	227.436	-812.251	 H	14	VAL14	0.079	
227	2HG2	848.738	226.401	-813.574	 H	14	VAL14	0.079	
228	3HG2	850.421	226.988	-813.547	 H	14	VAL14	0.079	
229	   N	848.237	231.563	-814.578	N.am	15	MET15	-0.416	
230	  CA	847.917	232.656	-815.491	C.3	15	MET15	-0.024	
231	   C	848.946	233.756	-815.403	C.2	15	MET15	0.597	
232	   O	849.449	234.267	-816.415	O.2	15	MET15	-0.568	
233	  CB	846.495	233.200	-815.183	C.3	15	MET15	0.034	
234	  CG	845.333	232.202	-815.375	C.3	15	MET15	0.002	
235	  SD	843.759	233.067	-815.262	S.3	15	MET15	-0.274	
236	  CE	842.678	231.637	-815.126	C.3	15	MET15	-0.054	
237	   H	847.572	231.269	-813.877	 H	15	MET15	0.272	
238	  HA	847.943	232.268	-816.527	 H	15	MET15	0.088	
239	 2HB	846.292	234.079	-815.825	 H	15	MET15	0.024	
240	 3HB	846.459	233.593	-814.146	 H	15	MET15	0.024	
241	 2HG	845.376	231.416	-814.598	 H	15	MET15	0.044	
242	 3HG	845.397	231.687	-816.352	 H	15	MET15	0.044	
243	 1HE	842.823	230.949	-815.978	 H	15	MET15	0.068	
244	 2HE	842.888	231.084	-814.193	 H	15	MET15	0.068	
245	 3HE	841.621	231.952	-815.109	 H	15	MET15	0.068	
246	   N	849.314	234.177	-814.240	N.am	16	ARG16	-0.348	
247	  CA	850.310	235.241	-814.156	C.3	16	ARG16	-0.264	
248	   C	851.581	234.849	-814.872	C.2	16	ARG16	0.734	
249	   O	851.696	233.773	-815.454	O.2	16	ARG16	-0.589	
250	  CB	850.579	235.559	-812.658	C.3	16	ARG16	-0.001	
251	  CG	851.403	236.848	-812.384	C.3	16	ARG16	0.039	
252	  CD	851.652	237.067	-810.883	C.3	16	ARG16	0.049	
253	  NE	852.428	238.327	-810.681	N.pl3	16	ARG16	-0.530	
254	  CZ	852.819	238.809	-809.506	C.cat	16	ARG16	0.808	
255	 NH1	852.571	238.224	-808.367	N.pl3	16	ARG16	-0.863	
256	 NH2	853.482	239.922	-809.487	N.pl3	16	ARG16	-0.863	
257	   H	848.919	233.777	-813.401	 H	16	ARG16	0.275	
258	  HA	849.901	236.134	-814.666	 H	16	ARG16	0.156	
259	 2HB	851.076	234.683	-812.191	 H	16	ARG16	0.033	
260	 3HB	849.610	235.639	-812.124	 H	16	ARG16	0.033	
261	 2HG	850.873	237.719	-812.821	 H	16	ARG16	0.029	
262	 3HG	852.377	236.796	-812.913	 H	16	ARG16	0.029	
263	 2HD	852.201	236.193	-810.470	 H	16	ARG16	0.069	
264	 3HD	850.680	237.110	-810.348	 H	16	ARG16	0.069	
265	  HE	852.706	238.908	-811.478	 H	16	ARG16	0.346	
266	1HH1	852.046	237.351	-808.452	 H	16	ARG16	0.448	
267	2HH1	852.905	238.660	-807.506	 H	16	ARG16	0.448	
268	1HH2	853.668	240.365	-810.388	 H	16	ARG16	0.448	
269	2HH2	853.772	240.277	-808.574	 H	16	ARG16	0.448	
@<TRIPOS>BOND
1 1 2 1
2 1 10 1
3 2 3 1
4 2 5 1
5 2 11 1
6 3 4 2
7 3 16 1
8 5 6 1
9 6 7 1
10 7 8 2
11 7 9 1
12 5 12 1
13 5 13 1
14 6 14 1
15 6 15 1
16 16 17 1
17 16 24 1
18 17 18 1
19 17 20 1
20 17 25 1
21 18 19 2
22 18 30 1
23 20 21 1
24 21 22 1
25 21 23 2
26 20 26 1
27 20 27 1
28 22 28 1
29 22 29 1
30 30 31 1
31 30 36 1
32 31 32 1
33 31 34 1
34 31 37 1
35 32 33 2
36 32 44 1
37 34 35 1
38 35 36 1
39 34 38 1
40 34 39 1
41 35 40 1
42 35 41 1
43 36 42 1
44 36 43 1
45 44 45 1
46 44 53 1
47 45 46 1
48 45 48 1
49 45 54 1
50 46 47 2
51 46 59 1
52 48 49 1
53 49 50 1
54 50 51 2
55 50 52 1
56 48 55 1
57 48 56 1
58 49 57 1
59 49 58 1
60 59 60 1
61 59 68 1
62 60 61 1
63 60 63 1
64 60 69 1
65 61 62 2
66 61 74 1
67 63 64 1
68 64 65 1
69 65 66 2
70 65 67 1
71 63 70 1
72 63 71 1
73 64 72 1
74 64 73 1
75 74 75 1
76 74 82 1
77 75 76 1
78 75 78 1
79 75 83 1
80 76 77 2
81 76 93 1
82 78 79 1
83 78 80 1
84 79 81 1
85 78 84 1
86 79 85 1
87 79 86 1
88 80 87 1
89 80 88 1
90 80 89 1
91 81 90 1
92 81 91 1
93 81 92 1
94 93 94 1
95 93 101 1
96 94 95 1
97 94 97 1
98 94 102 1
99 95 96 2
100 95 112 1
101 97 98 1
102 98 99 1
103 98 100 1
104 97 103 1
105 97 104 1
106 98 105 1
107 99 106 1
108 99 107 1
109 99 108 1
110 100 109 1
111 100 110 1
112 100 111 1
113 112 113 1
114 112 120 1
115 113 114 1
116 113 116 1
117 113 121 1
118 114 115 2
119 114 124 1
120 116 117 1
121 117 118 2
122 117 119 1
123 116 122 1
124 116 123 1
125 124 125 1
126 124 133 1
127 125 126 1
128 125 128 1
129 125 134 1
130 126 127 2
131 126 139 1
132 128 129 1
133 129 130 1
134 130 131 2
135 130 132 1
136 128 135 1
137 128 136 1
138 129 137 1
139 129 138 1
140 139 140 1
141 139 149 1
142 140 141 1
143 140 143 1
144 140 150 1
145 141 142 2
146 141 156 1
147 143 144 1
148 144 145 2
149 145 148 1
150 144 146 1
151 146 147 2
152 147 148 1
153 143 151 1
154 143 152 1
155 145 153 1
156 147 154 1
157 148 155 1
158 156 157 1
159 156 163 1
160 157 158 1
161 157 160 1
162 157 164 1
163 158 159 2
164 158 172 1
165 160 161 1
166 160 162 1
167 160 165 1
168 161 166 1
169 161 167 1
170 161 168 1
171 162 169 1
172 162 170 1
173 162 171 1
174 172 173 1
175 172 181 1
176 173 174 1
177 173 176 1
178 173 182 1
179 174 175 2
180 174 189 1
181 176 177 1
182 177 178 1
183 178 179 1
184 178 180 2
185 176 183 1
186 176 184 1
187 177 185 1
188 177 186 1
189 179 187 1
190 179 188 1
191 189 190 1
192 189 200 1
193 190 191 1
194 190 193 1
195 190 201 1
196 191 192 2
197 191 213 1
198 193 194 1
199 194 195 1
200 195 196 1
201 196 197 1
202 197 198 2
203 197 199 1
204 193 202 1
205 193 203 1
206 194 204 1
207 194 205 1
208 195 206 1
209 195 207 1
210 196 208 1
211 198 209 1
212 198 210 1
213 199 211 1
214 199 212 1
215 213 214 1
216 213 220 1
217 214 215 1
218 214 217 1
219 214 221 1
220 215 216 2
221 215 229 1
222 217 218 1
223 217 219 1
224 217 222 1
225 218 223 1
226 218 224 1
227 218 225 1
228 219 226 1
229 219 227 1
230 219 228 1
231 229 230 1
232 229 237 1
233 230 231 1
234 230 233 1
235 230 238 1
236 231 232 2
237 231 246 1
238 233 234 1
239 234 235 1
240 235 236 1
241 233 239 1
242 233 240 1
243 234 241 1
244 234 242 1
245 236 243 1
246 236 244 1
247 236 245 1
248 246 247 1
249 246 257 1
250 247 248 1
251 247 250 1
252 247 258 1
253 248 249 2
254 250 251 1
255 251 252 1
256 252 253 1
257 253 254 1
258 254 255 2
259 254 256 1
260 250 259 1
261 250 260 1
262 251 261 1
263 251 262 1
264 252 263 1
265 252 264 1
266 253 265 1
267 255 266 1
268 255 267 1
269 256 268 1
270 256 269 1
@<TRIPOS>SUBSTRUCTURE
1	GLU1	1	RESIDUE	1 ****	GLU
2	ASN2	16	RESIDUE	1 ****	ASN
3	PRO3	30	RESIDUE	1 ****	PRO
4	GLU4	44	RESIDUE	1 ****	GLU
5	GLU5	59	RESIDUE	1 ****	GLU
6	ILE6	74	RESIDUE	1 ****	ILE
7	LEU7	93	RESIDUE	1 ****	LEU
8	ASP8	112	RESIDUE	1 ****	ASP
9	GLU9	124	RESIDUE	1 ****	GLU
10	HIS10	139	RESIDUE	1 ****	HIS
11	VAL11	156	RESIDUE	1 ****	VAL
12	GLN12	172	RESIDUE	1 ****	GLN
13	ARG13	189	RESIDUE	1 ****	ARG
14	VAL14	213	RESIDUE	1 ****	VAL
15	MET15	229	RESIDUE	1 ****	MET
16	ARG16	246	RESIDUE	1 ****	ARG
