@<TRIPOS>MOLECULE
8-3
260 261 16              
SMALL
USER_CHARGES
@<TRIPOS>ATOM
1	   N	1206.500	346.214	-1200.168	N.3	1	GLU1	-0.516	
2	  CA	1207.059	347.563	-1200.168	C.3	1	GLU1	0.040	
3	   C	1208.568	347.523	-1200.168	C.2	1	GLU1	0.537	
4	   O	1209.244	348.222	-1200.937	O.2	1	GLU1	-0.582	
5	  CB	1206.536	348.348	-1198.931	C.3	1	GLU1	0.056	
6	  CG	1207.011	349.833	-1198.820	C.3	1	GLU1	0.014	
7	  CD	1206.587	350.637	-1197.605	C.2	1	GLU1	0.805	
8	 OE1	1205.859	350.135	-1196.727	O.co2	1	GLU1	-0.819	
9	 OE2	1207.017	351.807	-1197.533	O.co2	1	GLU1	-0.819	
10	   H	1207.127	345.335	-1200.168	 H	1	GLU1	0.294	
11	  HA	1206.733	348.081	-1201.088	 H	1	GLU1	0.111	
12	 2HB	1206.825	347.817	-1198.001	 H	1	GLU1	-0.017	
13	 3HB	1205.429	348.338	-1198.918	 H	1	GLU1	-0.017	
14	 2HG	1206.701	350.418	-1199.701	 H	1	GLU1	-0.043	
15	 3HG	1208.111	349.900	-1198.791	 H	1	GLU1	-0.043	
16	   N	1209.172	346.737	-1199.343	N.am	2	ASN2	-0.416	
17	  CA	1210.632	346.699	-1199.343	C.3	2	ASN2	0.014	
18	   C	1211.163	346.343	-1200.712	C.2	2	ASN2	0.597	
19	   O	1212.078	346.974	-1201.240	O.2	2	ASN2	-0.568	
20	  CB	1211.124	345.676	-1198.279	C.3	2	ASN2	-0.204	
21	  CG	1210.661	345.900	-1196.835	C.2	2	ASN2	0.713	
22	 ND2	1211.255	346.815	-1196.117	N.pl3	2	ASN2	-0.919	
23	 OD1	1209.740	345.266	-1196.341	O.2	2	ASN2	-0.593	
24	   H	1208.644	346.158	-1198.706	 H	2	ASN2	0.272	
25	  HA	1211.009	347.709	-1199.098	 H	2	ASN2	0.105	
26	 2HB	1212.228	345.617	-1198.282	 H	2	ASN2	0.080	
27	 3HB	1210.795	344.658	-1198.564	 H	2	ASN2	0.080	
28	1HD2	1210.774	346.988	-1195.231	 H	2	ASN2	0.420	
29	2HD2	1211.957	347.386	-1196.586	 H	2	ASN2	0.420	
30	   N	1210.641	345.348	-1201.346	N.am	3	PRO3	-0.255	
31	  CA	1211.093	344.939	-1202.667	C.3	3	PRO3	-0.027	
32	   C	1210.695	345.962	-1203.744	C.2	3	PRO3	0.590	
33	   O	1211.518	346.345	-1204.576	O.2	3	PRO3	-0.575	
34	  CB	1210.389	343.584	-1202.837	C.3	3	PRO3	-0.007	
35	  CG	1209.106	343.736	-1202.006	C.3	3	PRO3	0.019	
36	  CD	1209.563	344.555	-1200.797	C.3	3	PRO3	0.019	
37	  HA	1212.179	344.819	-1202.681	 H	3	PRO3	0.064	
38	 2HB	1211.012	342.803	-1202.396	 H	3	PRO3	0.025	
39	 3HB	1210.191	343.335	-1203.882	 H	3	PRO3	0.025	
40	 2HG	1208.678	342.774	-1201.715	 H	3	PRO3	0.021	
41	 3HG	1208.368	344.307	-1202.574	 H	3	PRO3	0.021	
42	 2HD	1209.953	343.906	-1200.009	 H	3	PRO3	0.039	
43	 3HD	1208.767	345.191	-1200.403	 H	3	PRO3	0.039	
44	   N	1209.490	346.422	-1203.776	N.am	4	GLU4	-0.516	
45	  CA	1209.130	347.393	-1204.806	C.3	4	GLU4	0.040	
46	   C	1210.029	348.605	-1204.745	C.2	4	GLU4	0.537	
47	   O	1210.555	349.084	-1205.759	O.2	4	GLU4	-0.582	
48	  CB	1207.642	347.812	-1204.635	C.3	4	GLU4	0.056	
49	  CG	1207.093	348.816	-1205.701	C.3	4	GLU4	0.014	
50	  CD	1205.667	349.312	-1205.557	C.2	4	GLU4	0.805	
51	 OE1	1204.941	348.914	-1204.626	O.co2	4	GLU4	-0.819	
52	 OE2	1205.277	350.141	-1206.405	O.co2	4	GLU4	-0.819	
53	   H	1208.806	346.116	-1203.100	 H	4	GLU4	0.294	
54	  HA	1209.261	346.923	-1205.797	 H	4	GLU4	0.111	
55	 2HB	1207.489	348.252	-1203.629	 H	4	GLU4	-0.017	
56	 3HB	1206.994	346.914	-1204.641	 H	4	GLU4	-0.017	
57	 2HG	1207.175	348.401	-1206.719	 H	4	GLU4	-0.043	
58	 3HG	1207.681	349.748	-1205.712	 H	4	GLU4	-0.043	
59	   N	1210.257	349.157	-1203.602	N.am	5	SER5	-0.416	
60	  CA	1211.126	350.329	-1203.543	C.3	5	SER5	-0.025	
61	   C	1212.485	350.023	-1204.129	C.2	5	SER5	0.597	
62	   O	1213.032	350.777	-1204.934	O.2	5	SER5	-0.568	
63	  CB	1211.238	350.861	-1202.093	C.3	5	SER5	0.212	
64	  OG	1211.970	349.981	-1201.232	O.3	5	SER5	-0.655	
65	   H	1209.840	348.786	-1202.760	 H	5	SER5	0.272	
66	  HA	1210.677	351.119	-1204.172	 H	5	SER5	0.084	
67	 2HB	1210.238	351.054	-1201.659	 H	5	SER5	0.035	
68	 3HB	1211.743	351.846	-1202.095	 H	5	SER5	0.035	
69	  HG	1211.481	349.156	-1201.181	 H	5	SER5	0.428	
70	   N	1213.090	348.940	-1203.775	N.am	6	ILE6	-0.416	
71	  CA	1214.403	348.645	-1204.341	C.3	6	ILE6	-0.060	
72	   C	1214.345	348.608	-1205.849	C.2	6	ILE6	0.597	
73	   O	1215.180	349.196	-1206.553	O.2	6	ILE6	-0.568	
74	  CB	1215.003	347.309	-1203.742	C.3	6	ILE6	0.130	
75	 CG1	1215.022	347.247	-1202.181	C.3	6	ILE6	-0.043	
76	 CG2	1216.444	347.008	-1204.257	C.3	6	ILE6	-0.320	
77	 CD1	1215.292	345.858	-1201.566	C.3	6	ILE6	-0.066	
78	   H	1212.661	348.306	-1203.116	 H	6	ILE6	0.272	
79	  HA	1215.077	349.480	-1204.074	 H	6	ILE6	0.087	
80	  HB	1214.345	346.483	-1204.086	 H	6	ILE6	0.019	
81	2HG1	1214.040	347.567	-1201.785	 H	6	ILE6	0.024	
82	3HG1	1215.738	347.989	-1201.776	 H	6	ILE6	0.024	
83	1HG2	1216.503	346.914	-1205.355	 H	6	ILE6	0.088	
84	2HG2	1217.166	347.790	-1203.955	 H	6	ILE6	0.088	
85	3HG2	1216.834	346.046	-1203.879	 H	6	ILE6	0.088	
86	1HD1	1214.564	345.103	-1201.921	 H	6	ILE6	0.019	
87	2HD1	1216.303	345.479	-1201.802	 H	6	ILE6	0.019	
88	3HD1	1215.216	345.887	-1200.463	 H	6	ILE6	0.019	
89	   N	1213.400	347.945	-1206.423	N.am	7	LEU7	-0.416	
90	  CA	1213.344	347.909	-1207.881	C.3	7	LEU7	-0.052	
91	   C	1213.272	349.304	-1208.454	C.2	7	LEU7	0.597	
92	   O	1213.992	349.667	-1209.396	O.2	7	LEU7	-0.568	
93	  CB	1212.141	347.048	-1208.362	C.3	7	LEU7	-0.110	
94	  CG	1212.069	345.569	-1207.896	C.3	7	LEU7	0.353	
95	 CD1	1210.879	344.863	-1208.561	C.3	7	LEU7	-0.412	
96	 CD2	1213.362	344.790	-1208.187	C.3	7	LEU7	-0.412	
97	   H	1212.708	347.457	-1205.871	 H	7	LEU7	0.272	
98	  HA	1214.286	347.469	-1208.256	 H	7	LEU7	0.092	
99	 2HB	1212.118	347.065	-1209.469	 H	7	LEU7	0.046	
100	 3HB	1211.202	347.551	-1208.057	 H	7	LEU7	0.046	
101	  HG	1211.899	345.561	-1206.798	 H	7	LEU7	-0.036	
102	1HD1	1209.922	345.372	-1208.338	 H	7	LEU7	0.100	
103	2HD1	1210.978	344.823	-1209.662	 H	7	LEU7	0.100	
104	3HD1	1210.772	343.822	-1208.205	 H	7	LEU7	0.100	
105	1HD2	1213.637	344.821	-1209.257	 H	7	LEU7	0.100	
106	2HD2	1214.216	345.202	-1207.616	 H	7	LEU7	0.100	
107	3HD2	1213.281	343.728	-1207.891	 H	7	LEU7	0.100	
108	   N	1212.435	350.145	-1207.947	N.am	8	GLY8	-0.416	
109	  CA	1212.364	351.494	-1208.500	C.3	8	GLY8	-0.025	
110	   C	1213.711	352.173	-1208.442	C.2	8	GLY8	0.597	
111	   O	1214.182	352.775	-1209.411	O.2	8	GLY8	-0.568	
112	   H	1211.837	349.873	-1207.180	 H	8	GLY8	0.272	
113	 3HA	1211.672	352.046	-1207.936	 H	8	GLY8	0.070	
114	  HA	1212.060	351.432	-1209.562	 H	8	GLY8	0.070	
115	   N	1214.391	352.123	-1207.347	N.am	9	GLU9	-0.516	
116	  CA	1215.694	352.779	-1207.291	C.3	9	GLU9	0.040	
117	   C	1216.612	352.252	-1208.367	C.2	9	GLU9	0.537	
118	   O	1217.276	353.006	-1209.091	O.2	9	GLU9	-0.582	
119	  CB	1216.327	352.571	-1205.885	C.3	9	GLU9	0.056	
120	  CG	1217.709	353.262	-1205.655	C.3	9	GLU9	0.014	
121	  CD	1218.411	353.048	-1204.327	C.2	9	GLU9	0.805	
122	 OE1	1217.888	352.357	-1203.431	O.co2	9	GLU9	-0.819	
123	 OE2	1219.530	353.585	-1204.194	O.co2	9	GLU9	-0.819	
124	   H	1214.027	351.636	-1206.540	 H	9	GLU9	0.294	
125	  HA	1215.552	353.861	-1207.466	 H	9	GLU9	0.111	
126	 2HB	1216.439	351.486	-1205.682	 H	9	GLU9	-0.017	
127	 3HB	1215.630	352.924	-1205.101	 H	9	GLU9	-0.017	
128	 2HG	1217.638	354.353	-1205.794	 H	9	GLU9	-0.043	
129	 3HG	1218.456	352.917	-1206.389	 H	9	GLU9	-0.043	
130	   N	1216.708	350.977	-1208.537	N.am	10	HIS10	-0.416	
131	  CA	1217.596	350.465	-1209.577	C.3	10	HIS10	-0.058	
132	   C	1217.230	351.031	-1210.928	C.2	10	HIS10	0.597	
133	   O	1218.083	351.496	-1211.699	O.2	10	HIS10	-0.568	
134	  CB	1217.432	348.936	-1209.573	C.3	10	HIS10	-0.007	
135	  CG	1218.717	348.226	-1209.265	C.2	10	HIS10	0.187	
136	 CD2	1219.097	347.890	-1207.973	C.2	10	HIS10	-0.221	
137	 ND1	1219.669	347.820	-1210.197	N.2	10	HIS10	-0.543	
138	 CE1	1220.575	347.261	-1209.374	C.2	10	HIS10	0.163	
139	 NE2	1220.312	347.258	-1208.039	N.pl3	10	HIS10	-0.280	
140	   H	1216.177	350.341	-1207.959	 H	10	HIS10	0.272	
141	  HA	1218.615	350.822	-1209.351	 H	10	HIS10	0.136	
142	 2HB	1217.067	348.570	-1210.553	 H	10	HIS10	0.037	
143	 3HB	1216.676	348.599	-1208.834	 H	10	HIS10	0.037	
144	 2HD	1218.511	348.104	-1207.083	 H	10	HIS10	0.186	
145	 1HE	1221.466	346.840	-1209.821	 H	10	HIS10	0.144	
146	 2HE	1220.878	346.880	-1207.266	 H	10	HIS10	0.334	
147	   N	1215.992	351.030	-1211.291	N.am	11	VAL11	-0.416	
148	  CA	1215.637	351.577	-1212.598	C.3	11	VAL11	-0.087	
149	   C	1216.102	353.008	-1212.729	C.2	11	VAL11	0.597	
150	   O	1216.703	353.413	-1213.732	O.2	11	VAL11	-0.568	
151	  CB	1214.076	351.471	-1212.818	C.3	11	VAL11	0.299	
152	 CG1	1213.508	352.176	-1214.080	C.3	11	VAL11	-0.319	
153	 CG2	1213.551	350.017	-1212.892	C.3	11	VAL11	-0.319	
154	   H	1215.279	350.657	-1210.681	 H	11	VAL11	0.272	
155	  HA	1216.157	350.995	-1213.380	 H	11	VAL11	0.097	
156	  HB	1213.589	351.951	-1211.942	 H	11	VAL11	-0.030	
157	1HG1	1213.947	351.785	-1215.017	 H	11	VAL11	0.079	
158	2HG1	1212.409	352.069	-1214.162	 H	11	VAL11	0.079	
159	3HG1	1213.686	353.268	-1214.070	 H	11	VAL11	0.079	
160	1HG2	1213.841	349.429	-1212.001	 H	11	VAL11	0.079	
161	2HG2	1212.445	349.980	-1212.934	 H	11	VAL11	0.079	
162	3HG2	1213.933	349.477	-1213.778	 H	11	VAL11	0.079	
163	   N	1215.865	353.833	-1211.766	N.am	12	GLN12	-0.416	
164	  CA	1216.314	355.216	-1211.893	C.3	12	GLN12	-0.003	
165	   C	1217.804	355.283	-1212.130	C.2	12	GLN12	0.597	
166	   O	1218.292	355.992	-1213.009	O.2	12	GLN12	-0.568	
167	  CB	1215.923	355.983	-1210.610	C.3	12	GLN12	-0.004	
168	  CG	1216.284	357.505	-1210.578	C.3	12	GLN12	-0.064	
169	  CD	1215.981	358.317	-1209.313	C.2	12	GLN12	0.695	
170	 NE2	1215.414	357.741	-1208.284	N.pl3	12	GLN12	-0.941	
171	 OE1	1216.283	359.498	-1209.235	O.2	12	GLN12	-0.609	
172	   H	1215.376	353.527	-1210.937	 H	12	GLN12	0.272	
173	  HA	1215.815	355.673	-1212.767	 H	12	GLN12	0.085	
174	 2HB	1216.399	355.482	-1209.741	 H	12	GLN12	0.017	
175	 3HB	1214.833	355.876	-1210.447	 H	12	GLN12	0.017	
176	 2HG	1215.806	358.026	-1211.428	 H	12	GLN12	0.035	
177	 3HG	1217.367	357.646	-1210.743	 H	12	GLN12	0.035	
178	1HE2	1215.307	358.335	-1207.460	 H	12	GLN12	0.425	
179	2HE2	1215.250	356.737	-1208.388	 H	12	GLN12	0.425	
180	   N	1218.588	354.576	-1211.390	N.am	13	ARG13	-0.348	
181	  CA	1220.029	354.641	-1211.620	C.3	13	ARG13	-0.264	
182	   C	1220.365	354.270	-1213.046	C.2	13	ARG13	0.734	
183	   O	1221.133	354.942	-1213.729	O.2	13	ARG13	-0.589	
184	  CB	1220.742	353.702	-1210.607	C.3	13	ARG13	-0.001	
185	  CG	1222.287	353.855	-1210.526	C.3	13	ARG13	0.039	
186	  CD	1222.914	352.867	-1209.528	C.3	13	ARG13	0.049	
187	  NE	1224.391	353.074	-1209.478	N.pl3	13	ARG13	-0.530	
188	  CZ	1225.239	352.381	-1208.723	C.cat	13	ARG13	0.808	
189	 NH1	1224.873	351.417	-1207.926	N.pl3	13	ARG13	-0.863	
190	 NH2	1226.498	352.680	-1208.780	N.pl3	13	ARG13	-0.863	
191	   H	1218.212	353.986	-1210.661	 H	13	ARG13	0.275	
192	  HA	1220.353	355.687	-1211.461	 H	13	ARG13	0.156	
193	 2HB	1220.475	352.652	-1210.846	 H	13	ARG13	0.033	
194	 3HB	1220.317	353.868	-1209.596	 H	13	ARG13	0.033	
195	 2HG	1222.535	354.899	-1210.246	 H	13	ARG13	0.029	
196	 3HG	1222.737	353.699	-1211.527	 H	13	ARG13	0.029	
197	 2HD	1222.669	351.827	-1209.838	 H	13	ARG13	0.069	
198	 3HD	1222.457	353.012	-1208.526	 H	13	ARG13	0.069	
199	  HE	1224.842	353.796	-1210.048	 H	13	ARG13	0.346	
200	1HH1	1223.868	351.231	-1207.929	 H	13	ARG13	0.448	
201	2HH1	1225.586	350.933	-1207.377	 H	13	ARG13	0.448	
202	1HH2	1226.766	353.438	-1209.410	 H	13	ARG13	0.448	
203	2HH2	1227.133	352.139	-1208.191	 H	13	ARG13	0.448	
204	   N	1219.828	353.216	-1213.560	N.am	14	VAL14	-0.416	
205	  CA	1220.153	352.858	-1214.938	C.3	14	VAL14	-0.087	
206	   C	1219.823	353.988	-1215.883	C.2	14	VAL14	0.597	
207	   O	1220.616	354.370	-1216.753	O.2	14	VAL14	-0.568	
208	  CB	1219.380	351.541	-1215.345	C.3	14	VAL14	0.299	
209	 CG1	1219.469	351.123	-1216.839	C.3	14	VAL14	-0.319	
210	 CG2	1219.812	350.288	-1214.546	C.3	14	VAL14	-0.319	
211	   H	1219.193	352.648	-1213.019	 H	14	VAL14	0.272	
212	  HA	1221.241	352.680	-1215.013	 H	14	VAL14	0.097	
213	  HB	1218.304	351.712	-1215.129	 H	14	VAL14	-0.030	
214	1HG1	1220.511	350.946	-1217.168	 H	14	VAL14	0.079	
215	2HG1	1218.896	350.200	-1217.052	 H	14	VAL14	0.079	
216	3HG1	1219.040	351.886	-1217.517	 H	14	VAL14	0.079	
217	1HG2	1219.725	350.446	-1213.455	 H	14	VAL14	0.079	
218	2HG2	1219.176	349.412	-1214.778	 H	14	VAL14	0.079	
219	3HG2	1220.860	349.998	-1214.751	 H	14	VAL14	0.079	
220	   N	1218.678	354.574	-1215.781	N.am	15	MET15	-0.416	
221	  CA	1218.358	355.667	-1216.694	C.3	15	MET15	-0.024	
222	   C	1219.389	356.766	-1216.606	C.2	15	MET15	0.597	
223	   O	1219.892	357.278	-1217.619	O.2	15	MET15	-0.568	
224	  CB	1216.937	356.213	-1216.385	C.3	15	MET15	0.034	
225	  CG	1215.775	355.215	-1216.577	C.3	15	MET15	0.002	
226	  SD	1214.201	356.082	-1216.463	S.3	15	MET15	-0.274	
227	  CE	1213.119	354.653	-1216.327	C.3	15	MET15	-0.054	
228	   H	1218.013	354.281	-1215.080	 H	15	MET15	0.272	
229	  HA	1218.384	355.280	-1217.730	 H	15	MET15	0.088	
230	 2HB	1216.735	357.092	-1217.027	 H	15	MET15	0.024	
231	 3HB	1216.902	356.605	-1215.349	 H	15	MET15	0.024	
232	 2HG	1215.817	354.429	-1215.800	 H	15	MET15	0.044	
233	 3HG	1215.838	354.701	-1217.554	 H	15	MET15	0.044	
234	 1HE	1213.263	353.965	-1217.179	 H	15	MET15	0.068	
235	 2HE	1213.328	354.100	-1215.394	 H	15	MET15	0.068	
236	 3HE	1212.062	354.968	-1216.310	 H	15	MET15	0.068	
237	   N	1219.758	357.187	-1215.444	N.am	16	ARG16	-0.348	
238	  CA	1220.755	358.250	-1215.359	C.3	16	ARG16	-0.264	
239	   C	1222.025	357.858	-1216.076	C.2	16	ARG16	0.734	
240	   O	1222.139	356.781	-1216.658	O.2	16	ARG16	-0.589	
241	  CB	1221.023	358.568	-1213.861	C.3	16	ARG16	-0.001	
242	  CG	1221.849	359.856	-1213.588	C.3	16	ARG16	0.039	
243	  CD	1222.099	360.075	-1212.086	C.3	16	ARG16	0.049	
244	  NE	1222.875	361.334	-1211.885	N.pl3	16	ARG16	-0.530	
245	  CZ	1223.266	361.816	-1210.709	C.cat	16	ARG16	0.808	
246	 NH1	1223.018	361.231	-1209.571	N.pl3	16	ARG16	-0.863	
247	 NH2	1223.931	362.928	-1210.690	N.pl3	16	ARG16	-0.863	
248	   H	1219.363	356.787	-1214.605	 H	16	ARG16	0.275	
249	  HA	1220.346	359.144	-1215.869	 H	16	ARG16	0.156	
250	 2HB	1221.520	357.691	-1213.395	 H	16	ARG16	0.033	
251	 3HB	1220.054	358.649	-1213.327	 H	16	ARG16	0.033	
252	 2HG	1221.319	360.728	-1214.025	 H	16	ARG16	0.029	
253	 3HG	1222.823	359.803	-1214.117	 H	16	ARG16	0.029	
254	 2HD	1222.647	359.200	-1211.673	 H	16	ARG16	0.069	
255	 3HD	1221.126	360.118	-1211.551	 H	16	ARG16	0.069	
256	  HE	1223.154	361.915	-1212.682	 H	16	ARG16	0.346	
257	1HH1	1222.492	360.358	-1209.655	 H	16	ARG16	0.448	
258	2HH1	1223.353	361.666	-1208.709	 H	16	ARG16	0.448	
259	1HH2	1224.116	363.371	-1211.592	 H	16	ARG16	0.448	
260	2HH2	1224.221	363.283	-1209.777	 H	16	ARG16	0.448	
@<TRIPOS>BOND
1 1 2 1
2 1 10 1
3 2 3 1
4 2 5 1
5 2 11 1
6 3 4 2
7 3 16 1
8 5 6 1
9 6 7 1
10 7 8 2
11 7 9 1
12 5 12 1
13 5 13 1
14 6 14 1
15 6 15 1
16 16 17 1
17 16 24 1
18 17 18 1
19 17 20 1
20 17 25 1
21 18 19 2
22 18 30 1
23 20 21 1
24 21 22 1
25 21 23 2
26 20 26 1
27 20 27 1
28 22 28 1
29 22 29 1
30 30 31 1
31 30 36 1
32 31 32 1
33 31 34 1
34 31 37 1
35 32 33 2
36 32 44 1
37 34 35 1
38 35 36 1
39 34 38 1
40 34 39 1
41 35 40 1
42 35 41 1
43 36 42 1
44 36 43 1
45 44 45 1
46 44 53 1
47 45 46 1
48 45 48 1
49 45 54 1
50 46 47 2
51 46 59 1
52 48 49 1
53 49 50 1
54 50 51 2
55 50 52 1
56 48 55 1
57 48 56 1
58 49 57 1
59 49 58 1
60 59 60 1
61 59 65 1
62 60 61 1
63 60 63 1
64 60 66 1
65 61 62 2
66 61 70 1
67 63 64 1
68 63 67 1
69 63 68 1
70 64 69 1
71 70 71 1
72 70 78 1
73 71 72 1
74 71 74 1
75 71 79 1
76 72 73 2
77 72 89 1
78 74 75 1
79 74 76 1
80 75 77 1
81 74 80 1
82 75 81 1
83 75 82 1
84 76 83 1
85 76 84 1
86 76 85 1
87 77 86 1
88 77 87 1
89 77 88 1
90 89 90 1
91 89 97 1
92 90 91 1
93 90 93 1
94 90 98 1
95 91 92 2
96 91 108 1
97 93 94 1
98 94 95 1
99 94 96 1
100 93 99 1
101 93 100 1
102 94 101 1
103 95 102 1
104 95 103 1
105 95 104 1
106 96 105 1
107 96 106 1
108 96 107 1
109 108 109 1
110 108 112 1
111 109 110 1
112 109 113 1
113 109 114 1
114 110 111 2
115 110 115 1
116 115 116 1
117 115 124 1
118 116 117 1
119 116 119 1
120 116 125 1
121 117 118 2
122 117 130 1
123 119 120 1
124 120 121 1
125 121 122 2
126 121 123 1
127 119 126 1
128 119 127 1
129 120 128 1
130 120 129 1
131 130 131 1
132 130 140 1
133 131 132 1
134 131 134 1
135 131 141 1
136 132 133 2
137 132 147 1
138 134 135 1
139 135 136 2
140 136 139 1
141 135 137 1
142 137 138 2
143 138 139 1
144 134 142 1
145 134 143 1
146 136 144 1
147 138 145 1
148 139 146 1
149 147 148 1
150 147 154 1
151 148 149 1
152 148 151 1
153 148 155 1
154 149 150 2
155 149 163 1
156 151 152 1
157 151 153 1
158 151 156 1
159 152 157 1
160 152 158 1
161 152 159 1
162 153 160 1
163 153 161 1
164 153 162 1
165 163 164 1
166 163 172 1
167 164 165 1
168 164 167 1
169 164 173 1
170 165 166 2
171 165 180 1
172 167 168 1
173 168 169 1
174 169 170 1
175 169 171 2
176 167 174 1
177 167 175 1
178 168 176 1
179 168 177 1
180 170 178 1
181 170 179 1
182 180 181 1
183 180 191 1
184 181 182 1
185 181 184 1
186 181 192 1
187 182 183 2
188 182 204 1
189 184 185 1
190 185 186 1
191 186 187 1
192 187 188 1
193 188 189 2
194 188 190 1
195 184 193 1
196 184 194 1
197 185 195 1
198 185 196 1
199 186 197 1
200 186 198 1
201 187 199 1
202 189 200 1
203 189 201 1
204 190 202 1
205 190 203 1
206 204 205 1
207 204 211 1
208 205 206 1
209 205 208 1
210 205 212 1
211 206 207 2
212 206 220 1
213 208 209 1
214 208 210 1
215 208 213 1
216 209 214 1
217 209 215 1
218 209 216 1
219 210 217 1
220 210 218 1
221 210 219 1
222 220 221 1
223 220 228 1
224 221 222 1
225 221 224 1
226 221 229 1
227 222 223 2
228 222 237 1
229 224 225 1
230 225 226 1
231 226 227 1
232 224 230 1
233 224 231 1
234 225 232 1
235 225 233 1
236 227 234 1
237 227 235 1
238 227 236 1
239 237 238 1
240 237 248 1
241 238 239 1
242 238 241 1
243 238 249 1
244 239 240 2
245 241 242 1
246 242 243 1
247 243 244 1
248 244 245 1
249 245 246 2
250 245 247 1
251 241 250 1
252 241 251 1
253 242 252 1
254 242 253 1
255 243 254 1
256 243 255 1
257 244 256 1
258 246 257 1
259 246 258 1
260 247 259 1
261 247 260 1
@<TRIPOS>SUBSTRUCTURE
1	GLU1	1	RESIDUE	1 ****	GLU
2	ASN2	16	RESIDUE	1 ****	ASN
3	PRO3	30	RESIDUE	1 ****	PRO
4	GLU4	44	RESIDUE	1 ****	GLU
5	SER5	59	RESIDUE	1 ****	SER
6	ILE6	70	RESIDUE	1 ****	ILE
7	LEU7	89	RESIDUE	1 ****	LEU
8	GLY8	108	RESIDUE	1 ****	GLY
9	GLU9	115	RESIDUE	1 ****	GLU
10	HIS10	130	RESIDUE	1 ****	HIS
11	VAL11	147	RESIDUE	1 ****	VAL
12	GLN12	163	RESIDUE	1 ****	GLN
13	ARG13	180	RESIDUE	1 ****	ARG
14	VAL14	204	RESIDUE	1 ****	VAL
15	MET15	220	RESIDUE	1 ****	MET
16	ARG16	237	RESIDUE	1 ****	ARG
