@<TRIPOS>MOLECULE
2-6
270 271 16              
SMALL
USER_CHARGES
@<TRIPOS>ATOM
1	   N	215.345	37.083	-188.027	N.3	1	GLU1	-0.516	
2	  CA	215.904	38.432	-188.027	C.3	1	GLU1	0.040	
3	   C	217.413	38.392	-188.027	C.2	1	GLU1	0.537	
4	   O	218.089	39.091	-188.795	O.2	1	GLU1	-0.582	
5	  CB	215.381	39.217	-186.790	C.3	1	GLU1	0.056	
6	  CG	215.856	40.702	-186.679	C.3	1	GLU1	0.014	
7	  CD	215.432	41.506	-185.464	C.2	1	GLU1	0.805	
8	 OE1	214.704	41.004	-184.586	O.co2	1	GLU1	-0.819	
9	 OE2	215.862	42.676	-185.392	O.co2	1	GLU1	-0.819	
10	   H	215.972	36.204	-188.027	 H	1	GLU1	0.294	
11	  HA	215.578	38.950	-188.947	 H	1	GLU1	0.111	
12	 2HB	215.670	38.686	-185.860	 H	1	GLU1	-0.017	
13	 3HB	214.274	39.207	-186.777	 H	1	GLU1	-0.017	
14	 2HG	215.546	41.287	-187.560	 H	1	GLU1	-0.043	
15	 3HG	216.956	40.769	-186.650	 H	1	GLU1	-0.043	
16	   N	218.018	37.606	-187.201	N.am	2	ILE2	-0.416	
17	  CA	219.477	37.567	-187.202	C.3	2	ILE2	-0.060	
18	   C	220.009	37.212	-188.569	C.2	2	ILE2	0.597	
19	   O	220.931	37.848	-189.101	O.2	2	ILE2	-0.568	
20	  CB	220.028	36.591	-186.084	C.3	2	ILE2	0.130	
21	 CG1	219.460	36.853	-184.652	C.3	2	ILE2	-0.043	
22	 CG2	221.586	36.591	-185.994	C.3	2	ILE2	-0.320	
23	 CD1	219.715	35.742	-183.613	C.3	2	ILE2	-0.066	
24	   H	217.490	37.026	-186.565	 H	2	ILE2	0.272	
25	  HA	219.838	38.588	-186.980	 H	2	ILE2	0.087	
26	  HB	219.710	35.567	-186.371	 H	2	ILE2	0.019	
27	2HG1	218.361	36.970	-184.706	 H	2	ILE2	0.024	
28	3HG1	219.823	37.826	-184.267	 H	2	ILE2	0.024	
29	1HG2	222.076	36.297	-186.939	 H	2	ILE2	0.088	
30	2HG2	221.987	37.583	-185.711	 H	2	ILE2	0.088	
31	3HG2	221.965	35.866	-185.251	 H	2	ILE2	0.088	
32	1HD1	219.324	34.764	-183.953	 H	2	ILE2	0.019	
33	2HD1	220.789	35.609	-183.389	 H	2	ILE2	0.019	
34	3HD1	219.219	35.972	-182.652	 H	2	ILE2	0.019	
35	   N	219.488	36.217	-189.203	N.am	3	PRO3	-0.255	
36	  CA	219.941	35.808	-190.525	C.3	3	PRO3	-0.027	
37	   C	219.544	36.832	-191.602	C.2	3	PRO3	0.590	
38	   O	220.367	37.215	-192.432	O.2	3	PRO3	-0.575	
39	  CB	219.238	34.453	-190.695	C.3	3	PRO3	-0.007	
40	  CG	217.954	34.605	-189.865	C.3	3	PRO3	0.019	
41	  CD	218.410	35.424	-188.655	C.3	3	PRO3	0.019	
42	  HA	221.027	35.689	-190.538	 H	3	PRO3	0.064	
43	 2HB	219.861	33.672	-190.254	 H	3	PRO3	0.025	
44	 3HB	219.041	34.205	-191.740	 H	3	PRO3	0.025	
45	 2HG	217.526	33.642	-189.575	 H	3	PRO3	0.021	
46	 3HG	217.217	35.176	-190.433	 H	3	PRO3	0.021	
47	 2HD	218.799	34.774	-187.867	 H	3	PRO3	0.039	
48	 3HD	217.613	36.059	-188.263	 H	3	PRO3	0.039	
49	   N	218.339	37.291	-191.635	N.am	4	GLU4	-0.516	
50	  CA	217.979	38.262	-192.665	C.3	4	GLU4	0.040	
51	   C	218.878	39.474	-192.602	C.2	4	GLU4	0.537	
52	   O	219.405	39.954	-193.617	O.2	4	GLU4	-0.582	
53	  CB	216.491	38.680	-192.495	C.3	4	GLU4	0.056	
54	  CG	215.943	39.684	-193.561	C.3	4	GLU4	0.014	
55	  CD	214.516	40.180	-193.419	C.2	4	GLU4	0.805	
56	 OE1	213.789	39.781	-192.488	O.co2	4	GLU4	-0.819	
57	 OE2	214.127	41.009	-194.267	O.co2	4	GLU4	-0.819	
58	   H	217.654	36.984	-190.959	 H	4	GLU4	0.294	
59	  HA	218.111	37.792	-193.656	 H	4	GLU4	0.111	
60	 2HB	216.337	39.120	-191.489	 H	4	GLU4	-0.017	
61	 3HB	215.843	37.782	-192.502	 H	4	GLU4	-0.017	
62	 2HG	216.025	39.269	-194.579	 H	4	GLU4	-0.043	
63	 3HG	216.530	40.616	-193.572	 H	4	GLU4	-0.043	
64	   N	219.104	40.026	-191.459	N.am	5	SER5	-0.416	
65	  CA	219.973	41.198	-191.400	C.3	5	SER5	-0.025	
66	   C	221.332	40.893	-191.984	C.2	5	SER5	0.597	
67	   O	221.880	41.647	-192.789	O.2	5	SER5	-0.568	
68	  CB	220.083	41.730	-189.949	C.3	5	SER5	0.212	
69	  OG	220.815	40.851	-189.088	O.3	5	SER5	-0.655	
70	   H	218.687	39.654	-190.618	 H	5	SER5	0.272	
71	  HA	219.524	41.988	-192.029	 H	5	SER5	0.084	
72	 2HB	219.083	41.923	-189.517	 H	5	SER5	0.035	
73	 3HB	220.588	42.716	-189.951	 H	5	SER5	0.035	
74	  HG	220.326	40.026	-189.038	 H	5	SER5	0.428	
75	   N	221.937	39.811	-191.630	N.am	6	ILE6	-0.416	
76	  CA	223.251	39.516	-192.195	C.3	6	ILE6	-0.060	
77	   C	223.195	39.479	-193.703	C.2	6	ILE6	0.597	
78	   O	224.030	40.067	-194.406	O.2	6	ILE6	-0.568	
79	  CB	223.851	38.180	-191.595	C.3	6	ILE6	0.130	
80	 CG1	223.870	38.118	-190.034	C.3	6	ILE6	-0.043	
81	 CG2	225.293	37.880	-192.109	C.3	6	ILE6	-0.320	
82	 CD1	224.140	36.729	-189.419	C.3	6	ILE6	-0.066	
83	   H	221.509	39.176	-190.972	 H	6	ILE6	0.272	
84	  HA	223.925	40.351	-191.927	 H	6	ILE6	0.087	
85	  HB	223.194	37.354	-191.940	 H	6	ILE6	0.019	
86	2HG1	222.887	38.437	-189.639	 H	6	ILE6	0.024	
87	3HG1	224.585	38.860	-189.629	 H	6	ILE6	0.024	
88	1HG2	225.353	37.786	-193.208	 H	6	ILE6	0.088	
89	2HG2	226.015	38.662	-191.807	 H	6	ILE6	0.088	
90	3HG2	225.683	36.918	-191.731	 H	6	ILE6	0.088	
91	1HD1	223.412	35.974	-189.774	 H	6	ILE6	0.019	
92	2HD1	225.151	36.351	-189.654	 H	6	ILE6	0.019	
93	3HD1	224.063	36.759	-188.317	 H	6	ILE6	0.019	
94	   N	222.250	38.815	-194.278	N.am	7	LEU7	-0.416	
95	  CA	222.196	38.779	-195.736	C.3	7	LEU7	-0.052	
96	   C	222.124	40.175	-196.309	C.2	7	LEU7	0.597	
97	   O	222.845	40.538	-197.250	O.2	7	LEU7	-0.568	
98	  CB	220.994	37.918	-196.218	C.3	7	LEU7	-0.110	
99	  CG	220.922	36.439	-195.752	C.3	7	LEU7	0.353	
100	 CD1	219.733	35.732	-196.418	C.3	7	LEU7	-0.412	
101	 CD2	222.216	35.660	-196.042	C.3	7	LEU7	-0.412	
102	   H	221.558	38.327	-193.727	 H	7	LEU7	0.272	
103	  HA	223.139	38.340	-196.110	 H	7	LEU7	0.092	
104	 2HB	220.972	37.935	-197.325	 H	7	LEU7	0.046	
105	 3HB	220.054	38.421	-195.914	 H	7	LEU7	0.046	
106	  HG	220.751	36.431	-194.655	 H	7	LEU7	-0.036	
107	1HD1	218.775	36.241	-196.196	 H	7	LEU7	0.100	
108	2HD1	219.833	35.692	-197.519	 H	7	LEU7	0.100	
109	3HD1	219.626	34.691	-196.062	 H	7	LEU7	0.100	
110	1HD2	222.492	35.691	-197.112	 H	7	LEU7	0.100	
111	2HD2	223.069	36.072	-195.470	 H	7	LEU7	0.100	
112	3HD2	222.135	34.598	-195.746	 H	7	LEU7	0.100	
113	   N	221.285	41.015	-195.803	N.am	8	ASP8	-0.516	
114	  CA	221.215	42.364	-196.356	C.3	8	ASP8	0.038	
115	   C	222.561	43.045	-196.298	C.2	8	ASP8	0.537	
116	   O	223.034	43.650	-197.272	O.2	8	ASP8	-0.582	
117	  CB	220.136	43.202	-195.615	C.3	8	ASP8	-0.030	
118	  CG	219.916	44.623	-196.155	C.2	8	ASP8	0.799	
119	 OD1	219.981	44.822	-197.386	O.co2	8	ASP8	-0.801	
120	 OD2	219.723	45.549	-195.340	O.co2	8	ASP8	-0.801	
121	   H	220.687	40.743	-195.036	 H	8	ASP8	0.294	
122	  HA	220.933	42.286	-197.423	 H	8	ASP8	0.088	
123	 2HB	220.392	43.286	-194.543	 H	8	ASP8	-0.012	
124	 3HB	219.157	42.697	-195.649	 H	8	ASP8	-0.012	
125	   N	223.240	42.995	-195.202	N.am	9	GLU9	-0.516	
126	  CA	224.542	43.653	-195.145	C.3	9	GLU9	0.040	
127	   C	225.461	43.127	-196.221	C.2	9	GLU9	0.537	
128	   O	226.125	43.882	-196.945	O.2	9	GLU9	-0.582	
129	  CB	225.175	43.446	-193.739	C.3	9	GLU9	0.056	
130	  CG	226.557	44.139	-193.509	C.3	9	GLU9	0.014	
131	  CD	227.258	43.926	-192.180	C.2	9	GLU9	0.805	
132	 OE1	226.736	43.234	-191.284	O.co2	9	GLU9	-0.819	
133	 OE2	228.376	44.464	-192.047	O.co2	9	GLU9	-0.819	
134	   H	222.876	42.508	-194.395	 H	9	GLU9	0.294	
135	  HA	224.400	44.735	-195.320	 H	9	GLU9	0.111	
136	 2HB	225.288	42.361	-193.536	 H	9	GLU9	-0.017	
137	 3HB	224.477	43.799	-192.956	 H	9	GLU9	-0.017	
138	 2HG	226.484	45.230	-193.648	 H	9	GLU9	-0.043	
139	 3HG	227.304	43.795	-194.242	 H	9	GLU9	-0.043	
140	   N	225.559	41.852	-196.390	N.am	10	HIS10	-0.416	
141	  CA	226.448	41.341	-197.430	C.3	10	HIS10	-0.058	
142	   C	226.082	41.906	-198.781	C.2	10	HIS10	0.597	
143	   O	226.934	42.371	-199.552	O.2	10	HIS10	-0.568	
144	  CB	226.285	39.812	-197.426	C.3	10	HIS10	-0.007	
145	  CG	227.571	39.103	-197.117	C.2	10	HIS10	0.187	
146	 CD2	227.951	38.767	-195.824	C.2	10	HIS10	-0.221	
147	 ND1	228.524	38.698	-198.049	N.2	10	HIS10	-0.543	
148	 CE1	229.430	38.140	-197.225	C.2	10	HIS10	0.163	
149	 NE2	229.166	38.137	-195.890	N.pl3	10	HIS10	-0.280	
150	   H	225.028	41.216	-195.812	 H	10	HIS10	0.272	
151	  HA	227.467	41.699	-197.204	 H	10	HIS10	0.136	
152	 2HB	225.921	39.445	-198.406	 H	10	HIS10	0.037	
153	 3HB	225.529	39.474	-196.686	 H	10	HIS10	0.037	
154	 2HD	227.365	38.982	-194.935	 H	10	HIS10	0.186	
155	 1HE	230.322	37.720	-197.671	 H	10	HIS10	0.144	
156	 2HE	229.733	37.759	-195.116	 H	10	HIS10	0.334	
157	   N	224.844	41.904	-199.145	N.am	11	VAL11	-0.416	
158	  CA	224.490	42.450	-200.452	C.3	11	VAL11	-0.087	
159	   C	224.953	43.881	-200.584	C.2	11	VAL11	0.597	
160	   O	225.555	44.287	-201.586	O.2	11	VAL11	-0.568	
161	  CB	222.929	42.342	-200.673	C.3	11	VAL11	0.299	
162	 CG1	222.360	43.046	-201.936	C.3	11	VAL11	-0.319	
163	 CG2	222.405	40.888	-200.747	C.3	11	VAL11	-0.319	
164	   H	224.131	41.530	-198.535	 H	11	VAL11	0.272	
165	  HA	225.010	41.868	-201.234	 H	11	VAL11	0.097	
166	  HB	222.440	42.822	-199.798	 H	11	VAL11	-0.030	
167	1HG1	222.800	42.655	-202.873	 H	11	VAL11	0.079	
168	2HG1	221.262	42.938	-202.019	 H	11	VAL11	0.079	
169	3HG1	222.538	44.139	-201.926	 H	11	VAL11	0.079	
170	1HG2	222.695	40.301	-199.856	 H	11	VAL11	0.079	
171	2HG2	221.299	40.850	-200.790	 H	11	VAL11	0.079	
172	3HG2	222.788	40.348	-201.633	 H	11	VAL11	0.079	
173	   N	224.715	44.706	-199.622	N.am	12	GLN12	-0.416	
174	  CA	225.162	46.090	-199.748	C.3	12	GLN12	-0.003	
175	   C	226.652	46.158	-199.985	C.2	12	GLN12	0.597	
176	   O	227.140	46.867	-200.863	O.2	12	GLN12	-0.568	
177	  CB	224.770	46.857	-198.465	C.3	12	GLN12	-0.004	
178	  CG	225.129	48.379	-198.434	C.3	12	GLN12	-0.064	
179	  CD	224.825	49.191	-197.169	C.2	12	GLN12	0.695	
180	 NE2	224.257	48.614	-196.141	N.pl3	12	GLN12	-0.941	
181	 OE1	225.126	50.373	-197.091	O.2	12	GLN12	-0.609	
182	   H	224.225	44.400	-198.793	 H	12	GLN12	0.272	
183	  HA	224.663	46.546	-200.623	 H	12	GLN12	0.085	
184	 2HB	225.245	46.357	-197.596	 H	12	GLN12	0.017	
185	 3HB	223.679	46.748	-198.303	 H	12	GLN12	0.017	
186	 2HG	224.652	48.899	-199.285	 H	12	GLN12	0.035	
187	 3HG	226.212	48.522	-198.598	 H	12	GLN12	0.035	
188	1HE2	224.149	49.209	-195.317	 H	12	GLN12	0.425	
189	2HE2	224.095	47.611	-196.244	 H	12	GLN12	0.425	
190	   N	227.437	45.452	-199.244	N.am	13	ARG13	-0.348	
191	  CA	228.877	45.519	-199.473	C.3	13	ARG13	-0.264	
192	   C	229.215	45.148	-200.898	C.2	13	ARG13	0.734	
193	   O	229.983	45.820	-201.581	O.2	13	ARG13	-0.589	
194	  CB	229.590	44.580	-198.459	C.3	13	ARG13	-0.001	
195	  CG	231.135	44.734	-198.377	C.3	13	ARG13	0.039	
196	  CD	231.762	43.747	-197.379	C.3	13	ARG13	0.049	
197	  NE	233.239	43.955	-197.327	N.pl3	13	ARG13	-0.530	
198	  CZ	234.087	43.264	-196.571	C.cat	13	ARG13	0.808	
199	 NH1	233.722	42.299	-195.775	N.pl3	13	ARG13	-0.863	
200	 NH2	235.346	43.564	-196.627	N.pl3	13	ARG13	-0.863	
201	   H	227.060	44.862	-198.515	 H	13	ARG13	0.275	
202	  HA	229.201	46.565	-199.314	 H	13	ARG13	0.156	
203	 2HB	229.325	43.529	-198.699	 H	13	ARG13	0.033	
204	 3HB	229.164	44.746	-197.449	 H	13	ARG13	0.033	
205	 2HG	231.382	45.779	-198.097	 H	13	ARG13	0.029	
206	 3HG	231.587	44.579	-199.378	 H	13	ARG13	0.029	
207	 2HD	231.519	42.707	-197.688	 H	13	ARG13	0.069	
208	 3HD	231.305	43.892	-196.376	 H	13	ARG13	0.069	
209	  HE	233.690	44.678	-197.897	 H	13	ARG13	0.346	
210	1HH1	232.717	42.112	-195.779	 H	13	ARG13	0.448	
211	2HH1	234.435	41.816	-195.225	 H	13	ARG13	0.448	
212	1HH2	235.614	44.322	-197.258	 H	13	ARG13	0.448	
213	2HH2	235.982	43.023	-196.038	 H	13	ARG13	0.448	
214	   N	228.680	44.093	-201.413	N.am	14	VAL14	-0.416	
215	  CA	229.006	43.734	-202.790	C.3	14	VAL14	-0.087	
216	   C	228.676	44.864	-203.736	C.2	14	VAL14	0.597	
217	   O	229.469	45.247	-204.605	O.2	14	VAL14	-0.568	
218	  CB	228.235	42.417	-203.198	C.3	14	VAL14	0.299	
219	 CG1	228.325	41.999	-204.692	C.3	14	VAL14	-0.319	
220	 CG2	228.667	41.165	-202.398	C.3	14	VAL14	-0.319	
221	   H	228.045	43.524	-200.872	 H	14	VAL14	0.272	
222	  HA	230.094	43.559	-202.864	 H	14	VAL14	0.097	
223	  HB	227.158	42.587	-202.983	 H	14	VAL14	-0.030	
224	1HG1	229.367	41.823	-205.020	 H	14	VAL14	0.079	
225	2HG1	227.753	41.076	-204.905	 H	14	VAL14	0.079	
226	3HG1	227.896	42.761	-205.370	 H	14	VAL14	0.079	
227	1HG2	228.579	41.323	-201.307	 H	14	VAL14	0.079	
228	2HG2	228.032	40.288	-202.631	 H	14	VAL14	0.079	
229	3HG2	229.715	40.876	-202.603	 H	14	VAL14	0.079	
230	   N	227.530	45.450	-203.635	N.am	15	MET15	-0.416	
231	  CA	227.210	46.542	-204.549	C.3	15	MET15	-0.024	
232	   C	228.239	47.643	-204.460	C.2	15	MET15	0.597	
233	   O	228.742	48.154	-205.472	O.2	15	MET15	-0.568	
234	  CB	225.788	47.087	-204.241	C.3	15	MET15	0.034	
235	  CG	224.627	46.088	-204.433	C.3	15	MET15	0.002	
236	  SD	223.052	46.953	-204.320	S.3	15	MET15	-0.274	
237	  CE	221.972	45.522	-204.185	C.3	15	MET15	-0.054	
238	   H	226.865	45.156	-202.934	 H	15	MET15	0.272	
239	  HA	227.237	46.155	-205.584	 H	15	MET15	0.088	
240	 2HB	225.585	47.965	-204.883	 H	15	MET15	0.024	
241	 3HB	225.751	47.479	-203.204	 H	15	MET15	0.024	
242	 2HG	224.670	45.302	-203.656	 H	15	MET15	0.044	
243	 3HG	224.691	45.573	-205.410	 H	15	MET15	0.044	
244	 1HE	222.117	44.834	-205.037	 H	15	MET15	0.068	
245	 2HE	222.181	44.970	-203.252	 H	15	MET15	0.068	
246	 3HE	220.914	45.837	-204.169	 H	15	MET15	0.068	
247	   N	228.607	48.064	-203.297	N.am	16	ARG16	-0.348	
248	  CA	229.603	49.128	-203.212	C.3	16	ARG16	-0.264	
249	   C	230.874	48.737	-203.928	C.2	16	ARG16	0.734	
250	   O	230.989	47.660	-204.509	O.2	16	ARG16	-0.589	
251	  CB	229.870	49.446	-201.714	C.3	16	ARG16	-0.001	
252	  CG	230.694	50.736	-201.440	C.3	16	ARG16	0.039	
253	  CD	230.943	50.955	-199.939	C.3	16	ARG16	0.049	
254	  NE	231.718	52.214	-199.737	N.pl3	16	ARG16	-0.530	
255	  CZ	232.108	52.697	-198.561	C.cat	16	ARG16	0.808	
256	 NH1	231.860	52.112	-197.423	N.pl3	16	ARG16	-0.863	
257	 NH2	232.771	53.810	-198.542	N.pl3	16	ARG16	-0.863	
258	   H	228.212	47.663	-202.458	 H	16	ARG16	0.275	
259	  HA	229.193	50.021	-203.722	 H	16	ARG16	0.156	
260	 2HB	230.367	48.570	-201.247	 H	16	ARG16	0.033	
261	 3HB	228.901	49.526	-201.181	 H	16	ARG16	0.033	
262	 2HG	230.164	51.606	-201.878	 H	16	ARG16	0.029	
263	 3HG	231.668	50.683	-201.968	 H	16	ARG16	0.029	
264	 2HD	231.492	50.080	-199.525	 H	16	ARG16	0.069	
265	 3HD	229.969	50.997	-199.404	 H	16	ARG16	0.069	
266	  HE	231.996	52.796	-200.534	 H	16	ARG16	0.346	
267	1HH1	231.335	51.238	-197.508	 H	16	ARG16	0.448	
268	2HH1	232.193	52.547	-196.561	 H	16	ARG16	0.448	
269	1HH2	232.957	54.253	-199.443	 H	16	ARG16	0.448	
270	2HH2	233.060	54.165	-197.629	 H	16	ARG16	0.448	
@<TRIPOS>BOND
1 1 2 1
2 1 10 1
3 2 3 1
4 2 5 1
5 2 11 1
6 3 4 2
7 3 16 1
8 5 6 1
9 6 7 1
10 7 8 2
11 7 9 1
12 5 12 1
13 5 13 1
14 6 14 1
15 6 15 1
16 16 17 1
17 16 24 1
18 17 18 1
19 17 20 1
20 17 25 1
21 18 19 2
22 18 35 1
23 20 21 1
24 20 22 1
25 21 23 1
26 20 26 1
27 21 27 1
28 21 28 1
29 22 29 1
30 22 30 1
31 22 31 1
32 23 32 1
33 23 33 1
34 23 34 1
35 35 36 1
36 35 41 1
37 36 37 1
38 36 39 1
39 36 42 1
40 37 38 2
41 37 49 1
42 39 40 1
43 40 41 1
44 39 43 1
45 39 44 1
46 40 45 1
47 40 46 1
48 41 47 1
49 41 48 1
50 49 50 1
51 49 58 1
52 50 51 1
53 50 53 1
54 50 59 1
55 51 52 2
56 51 64 1
57 53 54 1
58 54 55 1
59 55 56 2
60 55 57 1
61 53 60 1
62 53 61 1
63 54 62 1
64 54 63 1
65 64 65 1
66 64 70 1
67 65 66 1
68 65 68 1
69 65 71 1
70 66 67 2
71 66 75 1
72 68 69 1
73 68 72 1
74 68 73 1
75 69 74 1
76 75 76 1
77 75 83 1
78 76 77 1
79 76 79 1
80 76 84 1
81 77 78 2
82 77 94 1
83 79 80 1
84 79 81 1
85 80 82 1
86 79 85 1
87 80 86 1
88 80 87 1
89 81 88 1
90 81 89 1
91 81 90 1
92 82 91 1
93 82 92 1
94 82 93 1
95 94 95 1
96 94 102 1
97 95 96 1
98 95 98 1
99 95 103 1
100 96 97 2
101 96 113 1
102 98 99 1
103 99 100 1
104 99 101 1
105 98 104 1
106 98 105 1
107 99 106 1
108 100 107 1
109 100 108 1
110 100 109 1
111 101 110 1
112 101 111 1
113 101 112 1
114 113 114 1
115 113 121 1
116 114 115 1
117 114 117 1
118 114 122 1
119 115 116 2
120 115 125 1
121 117 118 1
122 118 119 2
123 118 120 1
124 117 123 1
125 117 124 1
126 125 126 1
127 125 134 1
128 126 127 1
129 126 129 1
130 126 135 1
131 127 128 2
132 127 140 1
133 129 130 1
134 130 131 1
135 131 132 2
136 131 133 1
137 129 136 1
138 129 137 1
139 130 138 1
140 130 139 1
141 140 141 1
142 140 150 1
143 141 142 1
144 141 144 1
145 141 151 1
146 142 143 2
147 142 157 1
148 144 145 1
149 145 146 2
150 146 149 1
151 145 147 1
152 147 148 2
153 148 149 1
154 144 152 1
155 144 153 1
156 146 154 1
157 148 155 1
158 149 156 1
159 157 158 1
160 157 164 1
161 158 159 1
162 158 161 1
163 158 165 1
164 159 160 2
165 159 173 1
166 161 162 1
167 161 163 1
168 161 166 1
169 162 167 1
170 162 168 1
171 162 169 1
172 163 170 1
173 163 171 1
174 163 172 1
175 173 174 1
176 173 182 1
177 174 175 1
178 174 177 1
179 174 183 1
180 175 176 2
181 175 190 1
182 177 178 1
183 178 179 1
184 179 180 1
185 179 181 2
186 177 184 1
187 177 185 1
188 178 186 1
189 178 187 1
190 180 188 1
191 180 189 1
192 190 191 1
193 190 201 1
194 191 192 1
195 191 194 1
196 191 202 1
197 192 193 2
198 192 214 1
199 194 195 1
200 195 196 1
201 196 197 1
202 197 198 1
203 198 199 2
204 198 200 1
205 194 203 1
206 194 204 1
207 195 205 1
208 195 206 1
209 196 207 1
210 196 208 1
211 197 209 1
212 199 210 1
213 199 211 1
214 200 212 1
215 200 213 1
216 214 215 1
217 214 221 1
218 215 216 1
219 215 218 1
220 215 222 1
221 216 217 2
222 216 230 1
223 218 219 1
224 218 220 1
225 218 223 1
226 219 224 1
227 219 225 1
228 219 226 1
229 220 227 1
230 220 228 1
231 220 229 1
232 230 231 1
233 230 238 1
234 231 232 1
235 231 234 1
236 231 239 1
237 232 233 2
238 232 247 1
239 234 235 1
240 235 236 1
241 236 237 1
242 234 240 1
243 234 241 1
244 235 242 1
245 235 243 1
246 237 244 1
247 237 245 1
248 237 246 1
249 247 248 1
250 247 258 1
251 248 249 1
252 248 251 1
253 248 259 1
254 249 250 2
255 251 252 1
256 252 253 1
257 253 254 1
258 254 255 1
259 255 256 2
260 255 257 1
261 251 260 1
262 251 261 1
263 252 262 1
264 252 263 1
265 253 264 1
266 253 265 1
267 254 266 1
268 256 267 1
269 256 268 1
270 257 269 1
271 257 270 1
@<TRIPOS>SUBSTRUCTURE
1	GLU1	1	RESIDUE	1 ****	GLU
2	ILE2	16	RESIDUE	1 ****	ILE
3	PRO3	35	RESIDUE	1 ****	PRO
4	GLU4	49	RESIDUE	1 ****	GLU
5	SER5	64	RESIDUE	1 ****	SER
6	ILE6	75	RESIDUE	1 ****	ILE
7	LEU7	94	RESIDUE	1 ****	LEU
8	ASP8	113	RESIDUE	1 ****	ASP
9	GLU9	125	RESIDUE	1 ****	GLU
10	HIS10	140	RESIDUE	1 ****	HIS
11	VAL11	157	RESIDUE	1 ****	VAL
12	GLN12	173	RESIDUE	1 ****	GLN
13	ARG13	190	RESIDUE	1 ****	ARG
14	VAL14	214	RESIDUE	1 ****	VAL
15	MET15	230	RESIDUE	1 ****	MET
16	ARG16	247	RESIDUE	1 ****	ARG
