REMARK WARNING: 32 MAX_TORS EXCEEDED!!!
REMARK  69 active torsions:
REMARK  status: ('A' for Active; 'I' for Inactive)
REMARK    1  A    between atoms: N_1  and  CA_2 
REMARK    2  A    between atoms: CA_2  and  C_3 
REMARK    3  A    between atoms: CA_2  and  CB_5 
REMARK       I    between atoms: C_3  and  N_11 
REMARK    4  A    between atoms: CB_5  and  CG_6 
REMARK    5  A    between atoms: CG_6  and  CD_7 
REMARK    6  A    between atoms: N_11  and  CA_12 
REMARK    7  A    between atoms: CA_12  and  C_13 
REMARK    8  A    between atoms: CA_12  and  CB_15 
REMARK       I    between atoms: C_13  and  N_22 
REMARK    9  A    between atoms: CB_15  and  CG_16 
REMARK       I    between atoms: CG_16  and  ND2_17 
REMARK   10  A    between atoms: CA_23  and  C_24 
REMARK       I    between atoms: C_24  and  N_29 
REMARK   11  A    between atoms: N_29  and  CA_30 
REMARK   12  A    between atoms: CA_30  and  C_31 
REMARK   13  A    between atoms: CA_30  and  CB_33 
REMARK       I    between atoms: C_31  and  N_39 
REMARK   14  A    between atoms: CB_33  and  CG_34 
REMARK   15  A    between atoms: CG_34  and  CD_35 
REMARK   16  A    between atoms: N_39  and  CA_40 
REMARK   17  A    between atoms: CA_40  and  C_41 
REMARK   18  A    between atoms: CA_40  and  CB_43 
REMARK       I    between atoms: C_41  and  N_53 
REMARK   19  A    between atoms: CB_43  and  CG_44 
REMARK   20  A    between atoms: CZ_49  and  OH_50 
REMARK   21  A    between atoms: N_53  and  CA_54 
REMARK   22  A    between atoms: CA_54  and  C_55 
REMARK   23  A    between atoms: CA_54  and  CB_57 
REMARK       I    between atoms: C_55  and  N_62 
REMARK   24  A    between atoms: CB_57  and  CG1_58 
REMARK   25  A    between atoms: N_62  and  CA_63 
REMARK   26  A    between atoms: CA_63  and  C_64 
REMARK   27  A    between atoms: CA_63  and  CB_66 
REMARK       I    between atoms: C_64  and  N_71 
REMARK   28  A    between atoms: CB_66  and  CG_67 
REMARK   29  A    between atoms: N_71  and  CA_72 
REMARK   30  A    between atoms: CA_72  and  C_73 
REMARK   31  A    between atoms: CA_72  and  CB_75 
REMARK       I    between atoms: C_73  and  N_80 
REMARK   32  A    between atoms: CB_75  and  CG_76 
REMARK   33  A    between atoms: N_80  and  CA_81 
REMARK   34  A    between atoms: CA_81  and  C_82 
REMARK   35  A    between atoms: CA_81  and  CB_84 
REMARK       I    between atoms: C_82  and  N_90 
REMARK   36  A    between atoms: CB_84  and  CG_85 
REMARK   37  A    between atoms: CG_85  and  CD_86 
REMARK   38  A    between atoms: N_90  and  CA_91 
REMARK   39  A    between atoms: CA_91  and  C_92 
REMARK   40  A    between atoms: CA_91  and  CB_94 
REMARK       I    between atoms: C_92  and  N_102 
REMARK   41  A    between atoms: CB_94  and  CG_95 
REMARK   42  A    between atoms: N_102  and  CA_103 
REMARK   43  A    between atoms: CA_103  and  C_104 
REMARK   44  A    between atoms: CA_103  and  CB_106 
REMARK       I    between atoms: C_104  and  N_110 
REMARK   45  A    between atoms: N_110  and  CA_111 
REMARK   46  A    between atoms: CA_111  and  C_112 
REMARK   47  A    between atoms: CA_111  and  CB_114 
REMARK       I    between atoms: C_112  and  N_122 
REMARK   48  A    between atoms: CB_114  and  CG_115 
REMARK   49  A    between atoms: CG_115  and  CD_116 
REMARK       I    between atoms: CD_116  and  NE2_117 
REMARK   50  A    between atoms: N_122  and  CA_123 
REMARK   51  A    between atoms: CA_123  and  C_124 
REMARK   52  A    between atoms: CA_123  and  CB_126 
REMARK       I    between atoms: C_124  and  N_139 
REMARK   53  A    between atoms: CB_126  and  CG_127 
REMARK   54  A    between atoms: CG_127  and  CD_128 
REMARK   55  A    between atoms: CD_128  and  NE_129 
REMARK       I    between atoms: NE_129  and  CZ_130 
REMARK       I    between atoms: CZ_130  and  NH1_131 
REMARK       I    between atoms: CZ_130  and  NH2_132 
REMARK   56  A    between atoms: N_139  and  CA_140 
REMARK   57  A    between atoms: CA_140  and  C_141 
REMARK   58  A    between atoms: CA_140  and  CB_143 
REMARK       I    between atoms: C_141  and  N_147 
REMARK   59  A    between atoms: N_147  and  CA_148 
REMARK   60  A    between atoms: CA_148  and  C_149 
REMARK   61  A    between atoms: CA_148  and  CB_151 
REMARK       I    between atoms: C_149  and  N_156 
REMARK   62  A    between atoms: CB_151  and  CG_152 
REMARK   63  A    between atoms: CG_152  and  SD_153 
REMARK   64  A    between atoms: N_156  and  CA_157 
REMARK   65  A    between atoms: CA_157  and  C_158 
REMARK   66  A    between atoms: CA_157  and  CB_160 
REMARK   67  A    between atoms: CB_160  and  CG_161 
REMARK   68  A    between atoms: CG_161  and  CD_162 
REMARK   69  A    between atoms: CD_162  and  NE_163 
REMARK       I    between atoms: NE_163  and  CZ_164 
REMARK       I    between atoms: CZ_164  and  NH1_165 
ROOT
ATOM      1  CA  GLU d   9     771.877 205.332-727.123  0.00  0.00     0.177 C 
ENDROOT
BRANCH   1   2
ATOM      2  N   GLU d   9     770.575 204.674-727.180  0.00  0.00    -0.346 N 
ATOM      3  C   ASP d   8     769.895 204.724-728.275  0.00  0.00     0.241 C 
ATOM      4  O   ASP d   8     770.369 205.330-729.249  0.00  0.00    -0.271 OA
ATOM      5  H   GLU d   9     770.211 204.187-726.373  0.00  0.00     0.163 HD
BRANCH   3   6
ATOM      6  CA  ASP d   8     768.549 204.044-728.334  0.00  0.00     0.186 C 
BRANCH   6   7
ATOM      7  N   ASP d   8     768.620 202.694-727.781  0.00  0.00    -0.346 N 
ATOM      8  C   LEU d   7     769.457 201.854-728.288  0.00  0.00     0.241 C 
ATOM      9  O   LEU d   7     770.178 202.217-729.229  0.00  0.00    -0.271 OA
ATOM     10  H   ASP d   8     768.021 202.422-727.014  0.00  0.00     0.163 HD
BRANCH   8  11
ATOM     11  CA  LEU d   7     769.530 200.458-727.716  0.00  0.00     0.177 C 
BRANCH  11  12
ATOM     12  N   LEU d   7     769.584 200.494-726.257  0.00  0.00    -0.346 N 
ATOM     13  C   ILE d   6     770.529 201.157-725.683  0.00  0.00     0.241 C 
ATOM     14  O   ILE d   6     771.364 201.745-726.386  0.00  0.00    -0.271 OA
ATOM     15  H   LEU d   7     768.892 200.006-725.707  0.00  0.00     0.163 HD
BRANCH  13  16
ATOM     16  CA  ILE d   6     770.585 201.194-724.175  0.00  0.00     0.180 C 
BRANCH  16  17
ATOM     17  N   ILE d   6     769.272 201.488-723.609  0.00  0.00    -0.346 N 
ATOM     18  C   TYR d   5     768.667 202.571-723.963  0.00  0.00     0.241 C 
ATOM     19  O   TYR d   5     769.216 203.327-724.769  0.00  0.00    -0.271 OA
ATOM     20  H   ILE d   6     768.843 200.854-722.951  0.00  0.00     0.163 HD
BRANCH  18  21
ATOM     21  CA  TYR d   5     767.309 202.876-723.379  0.00  0.00     0.180 C 
BRANCH  21  22
ATOM     22  N   TYR d   5     766.440 201.704-723.438  0.00  0.00    -0.346 N 
ATOM     23  C   GLU d   4     766.212 201.151-724.581  0.00  0.00     0.241 C 
ATOM     24  O   GLU d   4     766.739 201.631-725.596  0.00  0.00    -0.271 OA
ATOM     25  H   TYR d   5     766.022 201.332-722.597  0.00  0.00     0.163 HD
BRANCH  23  26
ATOM     26  CA  GLU d   4     765.313 199.940-724.642  0.00  0.00     0.177 C 
BRANCH  26  27
ATOM     27  N   GLU d   4     765.673 198.969-723.613  0.00  0.00    -0.346 N 
ATOM     28  C   PRO d   3     766.878 198.509-723.580  0.00  0.00     0.241 C 
ATOM     29  O   PRO d   3     767.701 198.893-724.412  0.00  0.00    -0.271 OA
ATOM     30  H   GLU d   4     764.989 198.662-722.936  0.00  0.00     0.163 HD
BRANCH  28  31
ATOM     31  CA  PRO d   3     767.276 197.486-722.503  0.00  0.00     0.179 C 
ATOM     32  N   PRO d   3     766.824 197.895-721.182  0.00  0.00    -0.337 N 
ATOM     33  C   ASN d   2     767.346 198.890-720.548  0.00  0.00     0.243 C 
ATOM     34  CD  PRO d   3     765.746 197.102-720.633  0.00  0.00     0.127 C 
ATOM     35  O   ASN d   2     768.261 199.521-721.076  0.00  0.00    -0.271 OA
ATOM     36  CG  PRO d   3     765.289 196.283-721.843  0.00  0.00     0.022 C 
ATOM     37  CB  PRO d   3     766.572 196.131-722.673  0.00  0.00     0.037 C 
BRANCH  33  38
ATOM     38  CA  ASN d   2     766.815 199.246-719.179  0.00  0.00     0.185 C 
BRANCH  38  39
ATOM     39  N   ASN d   2     765.355 199.284-719.179  0.00  0.00    -0.346 N 
ATOM     40  C   GLU d   1     764.751 200.070-720.004  0.00  0.00     0.242 C 
ATOM     41  O   GLU d   1     765.426 200.769-720.773  0.00  0.00    -0.271 OA
ATOM     42  H   ASN d   2     764.827 198.704-718.543  0.00  0.00     0.163 HD
BRANCH  40  43
ATOM     43  CA  GLU d   1     763.242 200.110-720.004  0.00  0.00     0.191 C 
BRANCH  43  44
ATOM     44  N   GLU d   1     762.683 198.761-720.004  0.00  0.00    -0.326 NA
ATOM     45  H   GLU d   1     763.310 197.882-720.004  0.00  0.00     0.180 HD
ENDBRANCH  43  44
BRANCH  43  46
ATOM     46  CB  GLU d   1     762.719 200.895-718.767  0.00  0.00     0.047 C 
BRANCH  46  47
ATOM     47  CG  GLU d   1     763.194 202.380-718.656  0.00  0.00     0.116 C 
BRANCH  47  48
ATOM     48  CD  GLU d   1     762.770 203.184-717.441  0.00  0.00     0.172 C 
ATOM     49  OE1 GLU d   1     762.042 202.682-716.563  0.00  0.00    -0.648 OA
ATOM     50  OE2 GLU d   1     763.200 204.354-717.369  0.00  0.00    -0.648 OA
ENDBRANCH  47  48
ENDBRANCH  46  47
ENDBRANCH  43  46
ENDBRANCH  40  43
ENDBRANCH  38  39
BRANCH  38  51
ATOM     51  CB  ASN d   2     767.307 198.223-718.115  0.00  0.00     0.137 C 
BRANCH  51  52
ATOM     52  CG  ASN d   2     766.844 198.446-716.671  0.00  0.00     0.217 C 
ATOM     53  ND2 ASN d   2     767.438 199.361-715.953  0.00  0.00    -0.370 N 
ATOM     54 21HD ASN d   2     766.957 199.534-715.067  0.00  0.00     0.159 HD
ATOM     55 22HD ASN d   2     768.140 199.933-716.422  0.00  0.00     0.159 HD
ATOM     56  OD1 ASN d   2     765.923 197.813-716.177  0.00  0.00    -0.274 OA
ENDBRANCH  51  52
ENDBRANCH  38  51
ENDBRANCH  33  38
ENDBRANCH  28  31
ENDBRANCH  26  27
BRANCH  26  57
ATOM     57  CB  GLU d   4     763.825 200.358-724.472  0.00  0.00     0.045 C 
BRANCH  57  58
ATOM     58  CG  GLU d   4     763.277 201.362-725.538  0.00  0.00     0.116 C 
BRANCH  58  59
ATOM     59  CD  GLU d   4     761.850 201.858-725.394  0.00  0.00     0.172 C 
ATOM     60  OE1 GLU d   4     761.124 201.460-724.463  0.00  0.00    -0.648 OA
ATOM     61  OE2 GLU d   4     761.460 202.687-726.243  0.00  0.00    -0.648 OA
ENDBRANCH  58  59
ENDBRANCH  57  58
ENDBRANCH  26  57
ENDBRANCH  23  26
ENDBRANCH  21  22
BRANCH  21  62
ATOM     62  CB  TYR d   5     767.513 203.342-721.908  0.00  0.00     0.073 C 
BRANCH  62  63
ATOM     63  CG  TYR d   5     766.258 203.785-721.146  0.00  0.00    -0.056 A 
ATOM     64  CD1 TYR d   5     765.701 205.049-721.365  0.00  0.00     0.010 A 
ATOM     65  CE1 TYR d   5     764.553 205.435-720.678  0.00  0.00     0.037 A 
ATOM     66  CZ  TYR d   5     763.959 204.563-719.768  0.00  0.00     0.065 A 
ATOM     67  CE2 TYR d   5     764.511 203.304-719.544  0.00  0.00     0.037 A 
ATOM     68  CD2 TYR d   5     765.658 202.916-720.230  0.00  0.00     0.010 A 
BRANCH  66  69
ATOM     69  OH  TYR d   5     762.832 204.945-719.099  0.00  0.00    -0.361 OA
ATOM     70  HH  TYR d   5     762.563 204.226-718.523  0.00  0.00     0.217 HD
ENDBRANCH  66  69
ENDBRANCH  62  63
ENDBRANCH  21  62
ENDBRANCH  18  21
ENDBRANCH  16  17
BRANCH  16  71
ATOM     71  CB  ILE d   6     771.185 199.858-723.575  0.00  0.00     0.013 C 
ATOM     72  CG2 ILE d   6     772.627 199.557-724.089  0.00  0.00     0.012 C 
BRANCH  71  73
ATOM     73  CG1 ILE d   6     771.203 199.795-722.014  0.00  0.00     0.002 C 
ATOM     74  CD1 ILE d   6     771.473 198.406-721.399  0.00  0.00     0.005 C 
ENDBRANCH  71  73
ENDBRANCH  16  71
ENDBRANCH  13  16
ENDBRANCH  11  12
BRANCH  11  75
ATOM     75  CB  LEU d   7     768.327 199.598-728.197  0.00  0.00     0.038 C 
BRANCH  75  76
ATOM     76  CG  LEU d   7     768.255 198.118-727.732  0.00  0.00    -0.020 C 
ATOM     77  CD1 LEU d   7     767.065 197.412-728.398  0.00  0.00     0.009 C 
ATOM     78  CD2 LEU d   7     769.549 197.340-728.023  0.00  0.00     0.009 C 
ENDBRANCH  75  76
ENDBRANCH  11  75
ENDBRANCH   8  11
ENDBRANCH   6   7
BRANCH   6  79
ATOM     79  CB  ASP d   8     767.470 204.882-727.592  0.00  0.00     0.147 C 
BRANCH  79  80
ATOM     80  CG  ASP d   8     767.251 206.303-728.132  0.00  0.00     0.175 C 
ATOM     81  OD1 ASP d   8     767.316 206.503-729.363  0.00  0.00    -0.648 OA
ATOM     82  OD2 ASP d   8     767.058 207.228-727.316  0.00  0.00    -0.648 OA
ENDBRANCH  79  80
ENDBRANCH   6  79
ENDBRANCH   3   6
ENDBRANCH   1   2
BRANCH   1  83
ATOM     83  C   GLU d   9     772.796 204.805-728.199  0.00  0.00     0.241 C 
ATOM     84  O   GLU d   9     773.460 205.560-728.923  0.00  0.00    -0.271 OA
ATOM     85  N   HIS d  10     772.893 203.530-728.369  0.00  0.00    -0.346 N 
ATOM     86  H   HIS d  10     772.362 202.894-727.791  0.00  0.00     0.163 HD
BRANCH  85  87
ATOM     87  CA  HIS d  10     773.782 203.019-729.409  0.00  0.00     0.182 C 
BRANCH  87  88
ATOM     88  C   HIS d  10     773.416 203.585-730.760  0.00  0.00     0.241 C 
ATOM     89  O   HIS d  10     774.269 204.050-731.531  0.00  0.00    -0.271 OA
ATOM     90  N   VAL d  11     772.178 203.584-731.124  0.00  0.00    -0.346 N 
ATOM     91  H   VAL d  11     771.465 203.210-730.514  0.00  0.00     0.163 HD
BRANCH  90  92
ATOM     92  CA  VAL d  11     771.824 204.130-732.431  0.00  0.00     0.180 C 
BRANCH  92  93
ATOM     93  C   VAL d  11     772.288 205.561-732.562  0.00  0.00     0.241 C 
ATOM     94  O   VAL d  11     772.890 205.967-733.564  0.00  0.00    -0.271 OA
ATOM     95  N   GLN d  12     772.050 206.386-731.599  0.00  0.00    -0.346 N 
ATOM     96  H   GLN d  12     771.561 206.080-730.771  0.00  0.00     0.163 HD
BRANCH  95  97
ATOM     97  CA  GLN d  12     772.498 207.770-731.725  0.00  0.00     0.177 C 
BRANCH  97  98
ATOM     98  C   GLN d  12     773.988 207.838-731.962  0.00  0.00     0.241 C 
ATOM     99  O   GLN d  12     774.476 208.547-732.839  0.00  0.00    -0.271 OA
ATOM    100  N   ARG d  13     774.773 207.131-731.221  0.00  0.00    -0.346 N 
ATOM    101  H   ARG d  13     774.396 206.540-730.493  0.00  0.00     0.163 HD
BRANCH 100 102
ATOM    102  CA  ARG d  13     776.213 207.197-731.450  0.00  0.00     0.176 C 
BRANCH 102 103
ATOM    103  C   ARG d  13     776.551 206.827-732.875  0.00  0.00     0.241 C 
ATOM    104  O   ARG d  13     777.319 207.499-733.558  0.00  0.00    -0.271 OA
ATOM    105  N   VAL d  14     776.015 205.772-733.391  0.00  0.00    -0.346 N 
ATOM    106  H   VAL d  14     775.380 205.203-732.850  0.00  0.00     0.163 HD
BRANCH 105 107
ATOM    107  CA  VAL d  14     776.341 205.414-734.768  0.00  0.00     0.180 C 
BRANCH 107 108
ATOM    108  C   VAL d  14     776.012 206.545-735.713  0.00  0.00     0.241 C 
ATOM    109  O   VAL d  14     776.806 206.927-736.582  0.00  0.00    -0.271 OA
ATOM    110  N   MET d  15     774.867 207.130-735.612  0.00  0.00    -0.346 N 
ATOM    111  H   MET d  15     774.201 206.836-734.911  0.00  0.00     0.163 HD
BRANCH 110 112
ATOM    112  CA  MET d  15     774.547 208.223-736.525  0.00  0.00     0.177 C 
BRANCH 112 113
ATOM    113  C   MET d  15     775.576 209.323-736.436  0.00  0.00     0.241 C 
ATOM    114  O   MET d  15     776.080 209.835-737.447  0.00  0.00    -0.271 OA
ATOM    115  N   ARG d  16     775.944 209.744-735.273  0.00  0.00    -0.347 N 
ATOM    116  H   ARG d  16     775.549 209.343-734.434  0.00  0.00     0.163 HD
BRANCH 115 117
ATOM    117  CA  ARG d  16     776.940 210.808-735.187  0.00  0.00     0.162 C 
BRANCH 117 118
ATOM    118  C   ARG d  16     778.211 210.416-735.903  0.00  0.00     0.219 C 
ATOM    119  O   ARG d  16     778.326 209.341-736.485  0.00  0.00    -0.287 OA
ENDBRANCH 117 118
BRANCH 117 120
ATOM    120  CB  ARG d  16     777.207 211.125-733.688  0.00  0.00     0.035 C 
BRANCH 120 121
ATOM    121  CG  ARG d  16     778.032 212.414-733.414  0.00  0.00     0.023 C 
BRANCH 121 122
ATOM    122  CD  ARG d  16     778.280 212.632-731.912  0.00  0.00     0.138 C 
BRANCH 122 123
ATOM    123  NE  ARG d  16     779.055 213.891-731.709  0.00  0.00    -0.227 N 
ATOM    124  CZ  ARG d  16     779.445 214.373-730.533  0.00  0.00     0.665 C 
ATOM    125  NH1 ARG d  16     779.197 213.788-729.395  0.00  0.00    -0.235 N 
ATOM    126  NH2 ARG d  16     780.109 215.486-730.513  0.00  0.00    -0.235 N 
ATOM    127 11HH ARG d  16     778.672 212.914-729.481  0.00  0.00     0.174 HD
ATOM    128 12HH ARG d  16     779.530 214.223-728.534  0.00  0.00     0.174 HD
ATOM    129 21HH ARG d  16     780.295 215.930-731.414  0.00  0.00     0.174 HD
ATOM    130 22HH ARG d  16     780.398 215.840-729.600  0.00  0.00     0.174 HD
ATOM    131  HE  ARG d  16     779.334 214.473-732.506  0.00  0.00     0.177 HD
ENDBRANCH 122 123
ENDBRANCH 121 122
ENDBRANCH 120 121
ENDBRANCH 117 120
ENDBRANCH 115 117
ENDBRANCH 112 113
BRANCH 112 132
ATOM    132  CB  MET d  15     773.125 208.768-736.217  0.00  0.00     0.045 C 
BRANCH 132 133
ATOM    133  CG  MET d  15     771.963 207.770-736.411  0.00  0.00     0.076 C 
BRANCH 133 134
ATOM    134  SD  MET d  15     770.389 208.635-736.297  0.00  0.00    -0.173 SA
ATOM    135  CE  MET d  15     769.308 207.205-736.163  0.00  0.00     0.089 C 
ENDBRANCH 133 134
ENDBRANCH 132 133
ENDBRANCH 112 132
ENDBRANCH 110 112
ENDBRANCH 107 108
BRANCH 107 136
ATOM    136  CB  VAL d  14     775.570 204.097-735.177  0.00  0.00     0.009 C 
ATOM    137  CG1 VAL d  14     775.660 203.680-736.670  0.00  0.00     0.012 C 
ATOM    138  CG2 VAL d  14     776.002 202.844-734.377  0.00  0.00     0.012 C 
ENDBRANCH 107 136
ENDBRANCH 105 107
ENDBRANCH 102 103
BRANCH 102 139
ATOM    139  CB  ARG d  13     776.926 206.258-730.436  0.00  0.00     0.036 C 
BRANCH 139 140
ATOM    140  CG  ARG d  13     778.471 206.412-730.354  0.00  0.00     0.023 C 
BRANCH 140 141
ATOM    141  CD  ARG d  13     779.097 205.424-729.356  0.00  0.00     0.138 C 
BRANCH 141 142
ATOM    142  NE  ARG d  13     780.574 205.631-729.304  0.00  0.00    -0.227 N 
ATOM    143  CZ  ARG d  13     781.422 204.940-728.549  0.00  0.00     0.665 C 
ATOM    144  NH1 ARG d  13     781.057 203.974-727.752  0.00  0.00    -0.235 N 
ATOM    145  NH2 ARG d  13     782.681 205.239-728.604  0.00  0.00    -0.235 N 
ATOM    146 11HH ARG d  13     780.051 203.788-727.756  0.00  0.00     0.174 HD
ATOM    147 12HH ARG d  13     781.770 203.491-727.203  0.00  0.00     0.174 HD
ATOM    148 21HH ARG d  13     782.949 205.997-729.235  0.00  0.00     0.174 HD
ATOM    149 22HH ARG d  13     783.316 204.698-728.016  0.00  0.00     0.174 HD
ATOM    150  HE  ARG d  13     781.026 206.354-729.874  0.00  0.00     0.177 HD
ENDBRANCH 141 142
ENDBRANCH 140 141
ENDBRANCH 139 140
ENDBRANCH 102 139
ENDBRANCH 100 102
ENDBRANCH  97  98
BRANCH  97 151
ATOM    151  CB  GLN d  12     772.106 208.536-730.442  0.00  0.00     0.044 C 
BRANCH 151 152
ATOM    152  CG  GLN d  12     772.466 210.058-730.409  0.00  0.00     0.105 C 
BRANCH 152 153
ATOM    153  CD  GLN d  12     772.162 210.870-729.144  0.00  0.00     0.215 C 
ATOM    154  NE2 GLN d  12     771.594 210.293-728.116  0.00  0.00    -0.370 N 
ATOM    155 21HE GLN d  12     771.486 210.887-727.292  0.00  0.00     0.159 HD
ATOM    156 22HE GLN d  12     771.431 209.289-728.221  0.00  0.00     0.159 HD
ATOM    157  OE1 GLN d  12     772.463 212.051-729.066  0.00  0.00    -0.274 OA
ENDBRANCH 152 153
ENDBRANCH 151 152
ENDBRANCH  97 151
ENDBRANCH  95  97
ENDBRANCH  92  93
BRANCH  92 158
ATOM    158  CB  VAL d  11     770.263 204.023-732.652  0.00  0.00     0.009 C 
ATOM    159  CG1 VAL d  11     769.695 204.728-733.914  0.00  0.00     0.012 C 
ATOM    160  CG2 VAL d  11     769.739 202.569-732.726  0.00  0.00     0.012 C 
ENDBRANCH  92 158
ENDBRANCH  90  92
ENDBRANCH  87  88
BRANCH  87 161
ATOM    161  CB  HIS d  10     773.618 201.490-729.405  0.00  0.00     0.095 C 
BRANCH 161 162
ATOM    162  CG  HIS d  10     774.904 200.780-729.096  0.00  0.00     0.053 A 
ATOM    163  CD2 HIS d  10     775.284 200.444-727.804  0.00  0.00     0.116 A 
ATOM    164  NE2 HIS d  10     776.499 199.813-727.870  0.00  0.00    -0.359 N 
ATOM    165  CE1 HIS d  10     776.763 199.817-729.205  0.00  0.00     0.207 A 
ATOM    166  2HE HIS d  10     777.065 199.436-727.096  0.00  0.00     0.166 HD
ATOM    167  ND1 HIS d  10     775.857 200.375-730.029  0.00  0.00    -0.247 NA
ENDBRANCH 161 162
ENDBRANCH  87 161
ENDBRANCH  85  87
ENDBRANCH   1  83
BRANCH   1 168
ATOM    168  CB  GLU d   9     772.510 205.123-725.717  0.00  0.00     0.045 C 
BRANCH 168 169
ATOM    169  CG  GLU d   9     773.892 205.816-725.487  0.00  0.00     0.116 C 
BRANCH 169 170
ATOM    170  CD  GLU d   9     774.593 205.602-724.158  0.00  0.00     0.172 C 
ATOM    171  OE1 GLU d   9     774.071 204.910-723.262  0.00  0.00    -0.648 OA
ATOM    172  OE2 GLU d   9     775.712 206.140-724.025  0.00  0.00    -0.648 OA
ENDBRANCH 169 170
ENDBRANCH 168 169
ENDBRANCH   1 168
TORSDOF 69
