@<TRIPOS>MOLECULE
15-19
270 271 16              
SMALL
USER_CHARGES
@<TRIPOS>ATOM
1	   N	2482.055	761.692	-2586.367	N.3	1	GLU1	-0.516	
2	  CA	2482.614	763.041	-2586.367	C.3	1	GLU1	0.040	
3	   C	2484.123	763.001	-2586.367	C.2	1	GLU1	0.537	
4	   O	2484.799	763.700	-2587.136	O.2	1	GLU1	-0.582	
5	  CB	2482.091	763.826	-2585.131	C.3	1	GLU1	0.056	
6	  CG	2482.566	765.311	-2585.020	C.3	1	GLU1	0.014	
7	  CD	2482.142	766.115	-2583.804	C.2	1	GLU1	0.805	
8	 OE1	2481.414	765.613	-2582.927	O.co2	1	GLU1	-0.819	
9	 OE2	2482.572	767.285	-2583.732	O.co2	1	GLU1	-0.819	
10	   H	2482.682	760.813	-2586.367	 H	1	GLU1	0.294	
11	  HA	2482.288	763.559	-2587.288	 H	1	GLU1	0.111	
12	 2HB	2482.380	763.295	-2584.200	 H	1	GLU1	-0.017	
13	 3HB	2480.984	763.816	-2585.117	 H	1	GLU1	-0.017	
14	 2HG	2482.256	765.896	-2585.900	 H	1	GLU1	-0.043	
15	 3HG	2483.666	765.378	-2584.990	 H	1	GLU1	-0.043	
16	   N	2484.727	762.215	-2585.542	N.am	2	ASN2	-0.416	
17	  CA	2486.187	762.176	-2585.542	C.3	2	ASN2	0.014	
18	   C	2486.718	761.820	-2586.911	C.2	2	ASN2	0.597	
19	   O	2487.633	762.451	-2587.439	O.2	2	ASN2	-0.568	
20	  CB	2486.678	761.153	-2584.478	C.3	2	ASN2	-0.204	
21	  CG	2486.215	761.377	-2583.034	C.2	2	ASN2	0.713	
22	 ND2	2486.809	762.292	-2582.316	N.pl3	2	ASN2	-0.919	
23	 OD1	2485.294	760.743	-2582.540	O.2	2	ASN2	-0.593	
24	   H	2484.199	761.635	-2584.906	 H	2	ASN2	0.272	
25	  HA	2486.564	763.186	-2585.297	 H	2	ASN2	0.105	
26	 2HB	2487.782	761.094	-2584.481	 H	2	ASN2	0.080	
27	 3HB	2486.349	760.135	-2584.763	 H	2	ASN2	0.080	
28	1HD2	2486.328	762.465	-2581.430	 H	2	ASN2	0.420	
29	2HD2	2487.511	762.863	-2582.785	 H	2	ASN2	0.420	
30	   N	2486.197	760.826	-2587.545	N.am	3	PRO3	-0.255	
31	  CA	2486.649	760.416	-2588.866	C.3	3	PRO3	-0.027	
32	   C	2486.251	761.440	-2589.943	C.2	3	PRO3	0.590	
33	   O	2487.074	761.823	-2590.775	O.2	3	PRO3	-0.575	
34	  CB	2485.944	759.062	-2589.036	C.3	3	PRO3	-0.007	
35	  CG	2484.661	759.214	-2588.206	C.3	3	PRO3	0.019	
36	  CD	2485.118	760.033	-2586.996	C.3	3	PRO3	0.019	
37	  HA	2487.735	760.296	-2588.880	 H	3	PRO3	0.064	
38	 2HB	2486.567	758.281	-2588.595	 H	3	PRO3	0.025	
39	 3HB	2485.746	758.813	-2590.081	 H	3	PRO3	0.025	
40	 2HG	2484.233	758.252	-2587.915	 H	3	PRO3	0.021	
41	 3HG	2483.924	759.785	-2588.774	 H	3	PRO3	0.021	
42	 2HD	2485.507	759.383	-2586.209	 H	3	PRO3	0.039	
43	 3HD	2484.322	760.669	-2586.604	 H	3	PRO3	0.039	
44	   N	2485.046	761.900	-2589.976	N.am	4	GLU4	-0.516	
45	  CA	2484.687	762.871	-2591.006	C.3	4	GLU4	0.040	
46	   C	2485.586	764.082	-2590.944	C.2	4	GLU4	0.537	
47	   O	2486.113	764.561	-2591.958	O.2	4	GLU4	-0.582	
48	  CB	2483.198	763.290	-2590.836	C.3	4	GLU4	0.056	
49	  CG	2482.651	764.294	-2591.902	C.3	4	GLU4	0.014	
50	  CD	2481.225	764.791	-2591.759	C.2	4	GLU4	0.805	
51	 OE1	2480.498	764.393	-2590.828	O.co2	4	GLU4	-0.819	
52	 OE2	2480.836	765.620	-2592.607	O.co2	4	GLU4	-0.819	
53	   H	2484.362	761.594	-2589.300	 H	4	GLU4	0.294	
54	  HA	2484.819	762.401	-2591.997	 H	4	GLU4	0.111	
55	 2HB	2483.046	763.730	-2589.830	 H	4	GLU4	-0.017	
56	 3HB	2482.551	762.392	-2590.843	 H	4	GLU4	-0.017	
57	 2HG	2482.733	763.879	-2592.920	 H	4	GLU4	-0.043	
58	 3HG	2483.240	765.226	-2591.913	 H	4	GLU4	-0.043	
59	   N	2485.813	764.634	-2589.801	N.am	5	SER5	-0.416	
60	  CA	2486.683	765.806	-2589.742	C.3	5	SER5	-0.025	
61	   C	2488.042	765.499	-2590.327	C.2	5	SER5	0.597	
62	   O	2488.590	766.253	-2591.132	O.2	5	SER5	-0.568	
63	  CB	2486.794	766.338	-2588.292	C.3	5	SER5	0.212	
64	  OG	2487.525	765.458	-2587.431	O.3	5	SER5	-0.655	
65	   H	2485.396	764.263	-2588.960	 H	5	SER5	0.272	
66	  HA	2486.234	766.596	-2590.371	 H	5	SER5	0.084	
67	 2HB	2485.794	766.532	-2587.859	 H	5	SER5	0.035	
68	 3HB	2487.300	767.323	-2588.294	 H	5	SER5	0.035	
69	  HG	2487.036	764.633	-2587.380	 H	5	SER5	0.428	
70	   N	2488.646	764.416	-2589.973	N.am	6	ILE6	-0.416	
71	  CA	2489.959	764.121	-2590.539	C.3	6	ILE6	-0.060	
72	   C	2489.902	764.083	-2592.047	C.2	6	ILE6	0.597	
73	   O	2490.737	764.670	-2592.751	O.2	6	ILE6	-0.568	
74	  CB	2490.559	762.784	-2589.939	C.3	6	ILE6	0.130	
75	 CG1	2490.577	762.722	-2588.378	C.3	6	ILE6	-0.043	
76	 CG2	2492.000	762.482	-2590.454	C.3	6	ILE6	-0.320	
77	 CD1	2490.847	761.333	-2587.763	C.3	6	ILE6	-0.066	
78	   H	2488.217	763.782	-2589.314	 H	6	ILE6	0.272	
79	  HA	2490.634	764.955	-2590.271	 H	6	ILE6	0.087	
80	  HB	2489.900	761.958	-2590.283	 H	6	ILE6	0.019	
81	2HG1	2489.595	763.042	-2587.982	 H	6	ILE6	0.024	
82	3HG1	2491.293	763.464	-2587.973	 H	6	ILE6	0.024	
83	1HG2	2492.059	762.389	-2591.552	 H	6	ILE6	0.088	
84	2HG2	2492.722	763.264	-2590.151	 H	6	ILE6	0.088	
85	3HG2	2492.389	761.520	-2590.075	 H	6	ILE6	0.088	
86	1HD1	2490.118	760.579	-2588.118	 H	6	ILE6	0.019	
87	2HD1	2491.857	760.954	-2587.998	 H	6	ILE6	0.019	
88	3HD1	2490.770	761.363	-2586.660	 H	6	ILE6	0.019	
89	   N	2488.956	763.420	-2592.620	N.am	7	LEU7	-0.416	
90	  CA	2488.901	763.384	-2594.079	C.3	7	LEU7	-0.052	
91	   C	2488.829	764.779	-2594.652	C.2	7	LEU7	0.597	
92	   O	2489.550	765.141	-2595.594	O.2	7	LEU7	-0.568	
93	  CB	2487.698	762.524	-2594.559	C.3	7	LEU7	-0.110	
94	  CG	2487.625	761.044	-2594.093	C.3	7	LEU7	0.353	
95	 CD1	2486.435	760.339	-2594.758	C.3	7	LEU7	-0.412	
96	 CD2	2488.918	760.265	-2594.384	C.3	7	LEU7	-0.412	
97	   H	2488.264	762.933	-2592.069	 H	7	LEU7	0.272	
98	  HA	2489.843	762.943	-2594.453	 H	7	LEU7	0.092	
99	 2HB	2487.675	762.540	-2595.667	 H	7	LEU7	0.046	
100	 3HB	2486.758	763.027	-2594.255	 H	7	LEU7	0.046	
101	  HG	2487.455	761.037	-2592.996	 H	7	LEU7	-0.036	
102	1HD1	2485.478	760.848	-2594.536	 H	7	LEU7	0.100	
103	2HD1	2486.534	760.298	-2595.860	 H	7	LEU7	0.100	
104	3HD1	2486.327	759.298	-2594.402	 H	7	LEU7	0.100	
105	1HD2	2489.193	760.295	-2595.454	 H	7	LEU7	0.100	
106	2HD2	2489.771	760.676	-2593.813	 H	7	LEU7	0.100	
107	3HD2	2488.836	759.203	-2594.088	 H	7	LEU7	0.100	
108	   N	2487.992	765.620	-2594.146	N.am	8	ASP8	-0.516	
109	  CA	2487.923	766.969	-2594.700	C.3	8	ASP8	0.038	
110	   C	2489.270	767.649	-2594.643	C.2	8	ASP8	0.537	
111	   O	2489.743	768.253	-2595.618	O.2	8	ASP8	-0.582	
112	  CB	2486.845	767.810	-2593.959	C.3	8	ASP8	-0.030	
113	  CG	2486.627	769.230	-2594.500	C.2	8	ASP8	0.799	
114	 OD1	2486.691	769.428	-2595.731	O.co2	8	ASP8	-0.801	
115	 OD2	2486.436	770.156	-2593.686	O.co2	8	ASP8	-0.801	
116	   H	2487.395	765.350	-2593.378	 H	8	ASP8	0.294	
117	  HA	2487.640	766.891	-2595.767	 H	8	ASP8	0.088	
118	 2HB	2487.102	767.893	-2592.887	 H	8	ASP8	-0.012	
119	 3HB	2485.866	767.305	-2593.992	 H	8	ASP8	-0.012	
120	   N	2489.950	767.599	-2593.548	N.am	9	GLU9	-0.516	
121	  CA	2491.253	768.256	-2593.493	C.3	9	GLU9	0.040	
122	   C	2492.170	767.727	-2594.569	C.2	9	GLU9	0.537	
123	   O	2492.834	768.481	-2595.295	O.2	9	GLU9	-0.582	
124	  CB	2491.886	768.049	-2592.088	C.3	9	GLU9	0.056	
125	  CG	2493.270	768.741	-2591.859	C.3	9	GLU9	0.014	
126	  CD	2493.971	768.527	-2590.531	C.2	9	GLU9	0.805	
127	 OE1	2493.450	767.837	-2589.634	O.co2	9	GLU9	-0.819	
128	 OE2	2495.091	769.065	-2590.400	O.co2	9	GLU9	-0.819	
129	   H	2489.586	767.113	-2592.741	 H	9	GLU9	0.294	
130	  HA	2491.111	769.338	-2593.669	 H	9	GLU9	0.111	
131	 2HB	2491.999	766.964	-2591.884	 H	9	GLU9	-0.017	
132	 3HB	2491.190	768.403	-2591.304	 H	9	GLU9	-0.017	
133	 2HG	2493.198	769.831	-2592.000	 H	9	GLU9	-0.043	
134	 3HG	2494.016	768.395	-2592.593	 H	9	GLU9	-0.043	
135	   N	2492.266	766.452	-2594.738	N.am	10	HIS10	-0.416	
136	  CA	2493.154	765.940	-2595.779	C.3	10	HIS10	-0.058	
137	   C	2492.787	766.504	-2597.130	C.2	10	HIS10	0.597	
138	   O	2493.639	766.968	-2597.902	O.2	10	HIS10	-0.568	
139	  CB	2492.989	764.411	-2595.773	C.3	10	HIS10	-0.007	
140	  CG	2494.274	763.700	-2595.465	C.2	10	HIS10	0.187	
141	 CD2	2494.656	763.366	-2594.172	C.2	10	HIS10	-0.221	
142	 ND1	2495.226	763.293	-2596.397	N.2	10	HIS10	-0.543	
143	 CE1	2496.132	762.735	-2595.574	C.2	10	HIS10	0.163	
144	 NE2	2495.870	762.733	-2594.239	N.pl3	10	HIS10	-0.280	
145	   H	2491.736	765.817	-2594.159	 H	10	HIS10	0.272	
146	  HA	2494.173	766.297	-2595.554	 H	10	HIS10	0.136	
147	 2HB	2492.623	764.044	-2596.752	 H	10	HIS10	0.037	
148	 3HB	2492.233	764.075	-2595.032	 H	10	HIS10	0.037	
149	 2HD	2494.071	763.581	-2593.283	 H	10	HIS10	0.186	
150	 1HE	2497.023	762.314	-2596.021	 H	10	HIS10	0.144	
151	 2HE	2496.437	762.356	-2593.466	 H	10	HIS10	0.334	
152	   N	2491.549	766.503	-2597.493	N.am	11	VAL11	-0.416	
153	  CA	2491.194	767.049	-2598.800	C.3	11	VAL11	-0.087	
154	   C	2491.659	768.479	-2598.933	C.2	11	VAL11	0.597	
155	   O	2492.260	768.884	-2599.936	O.2	11	VAL11	-0.568	
156	  CB	2489.632	766.943	-2599.019	C.3	11	VAL11	0.299	
157	 CG1	2489.064	767.646	-2600.282	C.3	11	VAL11	-0.319	
158	 CG2	2489.107	765.489	-2599.091	C.3	11	VAL11	-0.319	
159	   H	2490.836	766.131	-2596.882	 H	11	VAL11	0.272	
160	  HA	2491.713	766.466	-2599.582	 H	11	VAL11	0.097	
161	  HB	2489.145	767.424	-2598.144	 H	11	VAL11	-0.030	
162	1HG1	2489.502	767.254	-2601.219	 H	11	VAL11	0.079	
163	2HG1	2487.965	767.540	-2600.364	 H	11	VAL11	0.079	
164	3HG1	2489.243	768.739	-2600.273	 H	11	VAL11	0.079	
165	1HG2	2489.397	764.902	-2598.200	 H	11	VAL11	0.079	
166	2HG2	2488.001	765.453	-2599.134	 H	11	VAL11	0.079	
167	3HG2	2489.489	764.948	-2599.977	 H	11	VAL11	0.079	
168	   N	2491.423	769.305	-2597.971	N.am	12	GLN12	-0.416	
169	  CA	2491.872	770.688	-2598.099	C.3	12	GLN12	-0.003	
170	   C	2493.362	770.755	-2598.337	C.2	12	GLN12	0.597	
171	   O	2493.849	771.462	-2599.216	O.2	12	GLN12	-0.568	
172	  CB	2491.481	771.457	-2596.817	C.3	12	GLN12	-0.004	
173	  CG	2491.843	772.978	-2596.786	C.3	12	GLN12	-0.064	
174	  CD	2491.541	773.792	-2595.522	C.2	12	GLN12	0.695	
175	 NE2	2490.974	773.217	-2594.493	N.pl3	12	GLN12	-0.941	
176	 OE1	2491.844	774.973	-2595.445	O.2	12	GLN12	-0.609	
177	   H	2490.934	769.000	-2597.142	 H	12	GLN12	0.272	
178	  HA	2491.372	771.144	-2598.974	 H	12	GLN12	0.085	
179	 2HB	2491.958	770.956	-2595.947	 H	12	GLN12	0.017	
180	 3HB	2490.391	771.350	-2596.653	 H	12	GLN12	0.017	
181	 2HG	2491.365	773.499	-2597.637	 H	12	GLN12	0.035	
182	 3HG	2492.926	773.120	-2596.952	 H	12	GLN12	0.035	
183	1HE2	2490.868	773.812	-2593.669	 H	12	GLN12	0.425	
184	2HE2	2490.810	772.214	-2594.595	 H	12	GLN12	0.425	
185	   N	2494.146	770.048	-2597.596	N.am	13	ARG13	-0.348	
186	  CA	2495.586	770.113	-2597.827	C.3	13	ARG13	-0.264	
187	   C	2495.922	769.741	-2599.252	C.2	13	ARG13	0.734	
188	   O	2496.691	770.412	-2599.937	O.2	13	ARG13	-0.589	
189	  CB	2496.300	769.175	-2596.813	C.3	13	ARG13	-0.001	
190	  CG	2497.845	769.327	-2596.732	C.3	13	ARG13	0.039	
191	  CD	2498.472	768.340	-2595.734	C.3	13	ARG13	0.049	
192	  NE	2499.949	768.547	-2595.684	N.pl3	13	ARG13	-0.530	
193	  CZ	2500.797	767.856	-2594.929	C.cat	13	ARG13	0.808	
194	 NH1	2500.432	766.892	-2594.130	N.pl3	13	ARG13	-0.863	
195	 NH2	2502.057	768.154	-2594.986	N.pl3	13	ARG13	-0.863	
196	   H	2493.770	769.459	-2596.867	 H	13	ARG13	0.275	
197	  HA	2495.911	771.159	-2597.670	 H	13	ARG13	0.156	
198	 2HB	2496.033	768.124	-2597.051	 H	13	ARG13	0.033	
199	 3HB	2495.875	769.342	-2595.802	 H	13	ARG13	0.033	
200	 2HG	2498.093	770.372	-2596.454	 H	13	ARG13	0.029	
201	 3HG	2498.295	769.170	-2597.734	 H	13	ARG13	0.029	
202	 2HD	2498.227	767.300	-2596.042	 H	13	ARG13	0.069	
203	 3HD	2498.016	768.487	-2594.731	 H	13	ARG13	0.069	
204	  HE	2500.400	769.269	-2596.256	 H	13	ARG13	0.346	
205	1HH1	2499.427	766.706	-2594.133	 H	13	ARG13	0.448	
206	2HH1	2501.145	766.409	-2593.582	 H	13	ARG13	0.448	
207	1HH2	2502.324	768.912	-2595.618	 H	13	ARG13	0.448	
208	2HH2	2502.692	767.613	-2594.397	 H	13	ARG13	0.448	
209	   N	2495.385	768.686	-2599.766	N.am	14	VAL14	-0.416	
210	  CA	2495.710	768.326	-2601.143	C.3	14	VAL14	-0.087	
211	   C	2495.380	769.455	-2602.089	C.2	14	VAL14	0.597	
212	   O	2496.173	769.836	-2602.959	O.2	14	VAL14	-0.568	
213	  CB	2494.937	767.009	-2601.549	C.3	14	VAL14	0.299	
214	 CG1	2495.026	766.589	-2603.042	C.3	14	VAL14	-0.319	
215	 CG2	2495.369	765.757	-2600.748	C.3	14	VAL14	-0.319	
216	   H	2494.750	768.118	-2599.223	 H	14	VAL14	0.272	
217	  HA	2496.798	768.148	-2601.218	 H	14	VAL14	0.097	
218	  HB	2493.861	767.180	-2601.333	 H	14	VAL14	-0.030	
219	1HG1	2496.067	766.412	-2603.371	 H	14	VAL14	0.079	
220	2HG1	2494.452	765.666	-2603.254	 H	14	VAL14	0.079	
221	3HG1	2494.597	767.351	-2603.721	 H	14	VAL14	0.079	
222	1HG2	2495.282	765.916	-2599.657	 H	14	VAL14	0.079	
223	2HG2	2494.732	764.880	-2600.979	 H	14	VAL14	0.079	
224	3HG2	2496.416	765.466	-2600.954	 H	14	VAL14	0.079	
225	   N	2494.236	770.042	-2601.987	N.am	15	LYS15	-0.348	
226	  CA	2493.915	771.134	-2602.902	C.3	15	LYS15	-0.240	
227	   C	2494.947	772.234	-2602.814	C.2	15	LYS15	0.734	
228	   O	2495.451	772.745	-2603.825	O.2	15	LYS15	-0.589	
229	  CB	2492.496	771.677	-2602.581	C.3	15	LYS15	-0.009	
230	  CG	2492.030	772.793	-2603.549	C.3	15	LYS15	0.019	
231	  CD	2490.661	773.398	-2603.223	C.3	15	LYS15	-0.048	
232	  CE	2490.362	774.533	-2604.212	C.3	15	LYS15	-0.014	
233	  NZ	2488.979	775.002	-2604.015	N.4	15	LYS15	-0.385	
234	   H	2493.571	769.749	-2601.286	 H	15	LYS15	0.275	
235	  HA	2493.936	770.742	-2603.935	 H	15	LYS15	0.143	
236	 2HB	2492.466	772.048	-2601.536	 H	15	LYS15	0.036	
237	 3HB	2491.764	770.846	-2602.608	 H	15	LYS15	0.036	
238	 2HG	2492.036	772.410	-2604.588	 H	15	LYS15	0.010	
239	 3HG	2492.751	773.632	-2603.540	 H	15	LYS15	0.010	
240	 2HD	2490.660	773.786	-2602.184	 H	15	LYS15	0.062	
241	 3HD	2489.884	772.611	-2603.263	 H	15	LYS15	0.062	
242	 2HE	2490.493	774.195	-2605.261	 H	15	LYS15	0.113	
243	 3HE	2491.079	775.369	-2604.072	 H	15	LYS15	0.113	
244	 1HZ	2488.731	774.989	-2603.018	 H	15	LYS15	0.340	
245	 2HZ	2488.867	775.973	-2604.323	 H	15	LYS15	0.340	
246	 3HZ	2488.389	774.383	-2604.553	 H	15	LYS15	0.340	
247	   N	2495.316	772.654	-2601.651	N.am	16	ARG16	-0.348	
248	  CA	2496.313	773.717	-2601.566	C.3	16	ARG16	-0.264	
249	   C	2497.584	773.324	-2602.282	C.2	16	ARG16	0.734	
250	   O	2497.697	772.247	-2602.864	O.2	16	ARG16	-0.589	
251	  CB	2496.582	774.034	-2600.068	C.3	16	ARG16	-0.001	
252	  CG	2497.408	775.322	-2599.794	C.3	16	ARG16	0.039	
253	  CD	2497.657	775.541	-2598.293	C.3	16	ARG16	0.049	
254	  NE	2498.434	776.799	-2598.091	N.pl3	16	ARG16	-0.530	
255	  CZ	2498.825	777.280	-2596.915	C.cat	16	ARG16	0.808	
256	 NH1	2498.577	776.696	-2595.777	N.pl3	16	ARG16	-0.863	
257	 NH2	2499.490	778.392	-2596.896	N.pl3	16	ARG16	-0.863	
258	   H	2494.920	772.254	-2600.812	 H	16	ARG16	0.275	
259	  HA	2495.905	774.610	-2602.076	 H	16	ARG16	0.156	
260	 2HB	2497.078	773.157	-2599.602	 H	16	ARG16	0.033	
261	 3HB	2495.613	774.115	-2599.534	 H	16	ARG16	0.033	
262	 2HG	2496.879	776.194	-2600.231	 H	16	ARG16	0.029	
263	 3HG	2498.382	775.269	-2600.323	 H	16	ARG16	0.029	
264	 2HD	2498.205	774.666	-2597.880	 H	16	ARG16	0.069	
265	 3HD	2496.684	775.584	-2597.758	 H	16	ARG16	0.069	
266	  HE	2498.714	777.380	-2598.888	 H	16	ARG16	0.346	
267	1HH1	2498.051	775.823	-2595.862	 H	16	ARG16	0.448	
268	2HH1	2498.911	777.131	-2594.916	 H	16	ARG16	0.448	
269	1HH2	2499.677	778.836	-2597.797	 H	16	ARG16	0.448	
270	2HH2	2499.781	778.747	-2595.983	 H	16	ARG16	0.448	
@<TRIPOS>BOND
1 1 2 1
2 1 10 1
3 2 3 1
4 2 5 1
5 2 11 1
6 3 4 2
7 3 16 1
8 5 6 1
9 6 7 1
10 7 8 2
11 7 9 1
12 5 12 1
13 5 13 1
14 6 14 1
15 6 15 1
16 16 17 1
17 16 24 1
18 17 18 1
19 17 20 1
20 17 25 1
21 18 19 2
22 18 30 1
23 20 21 1
24 21 22 1
25 21 23 2
26 20 26 1
27 20 27 1
28 22 28 1
29 22 29 1
30 30 31 1
31 30 36 1
32 31 32 1
33 31 34 1
34 31 37 1
35 32 33 2
36 32 44 1
37 34 35 1
38 35 36 1
39 34 38 1
40 34 39 1
41 35 40 1
42 35 41 1
43 36 42 1
44 36 43 1
45 44 45 1
46 44 53 1
47 45 46 1
48 45 48 1
49 45 54 1
50 46 47 2
51 46 59 1
52 48 49 1
53 49 50 1
54 50 51 2
55 50 52 1
56 48 55 1
57 48 56 1
58 49 57 1
59 49 58 1
60 59 60 1
61 59 65 1
62 60 61 1
63 60 63 1
64 60 66 1
65 61 62 2
66 61 70 1
67 63 64 1
68 63 67 1
69 63 68 1
70 64 69 1
71 70 71 1
72 70 78 1
73 71 72 1
74 71 74 1
75 71 79 1
76 72 73 2
77 72 89 1
78 74 75 1
79 74 76 1
80 75 77 1
81 74 80 1
82 75 81 1
83 75 82 1
84 76 83 1
85 76 84 1
86 76 85 1
87 77 86 1
88 77 87 1
89 77 88 1
90 89 90 1
91 89 97 1
92 90 91 1
93 90 93 1
94 90 98 1
95 91 92 2
96 91 108 1
97 93 94 1
98 94 95 1
99 94 96 1
100 93 99 1
101 93 100 1
102 94 101 1
103 95 102 1
104 95 103 1
105 95 104 1
106 96 105 1
107 96 106 1
108 96 107 1
109 108 109 1
110 108 116 1
111 109 110 1
112 109 112 1
113 109 117 1
114 110 111 2
115 110 120 1
116 112 113 1
117 113 114 2
118 113 115 1
119 112 118 1
120 112 119 1
121 120 121 1
122 120 129 1
123 121 122 1
124 121 124 1
125 121 130 1
126 122 123 2
127 122 135 1
128 124 125 1
129 125 126 1
130 126 127 2
131 126 128 1
132 124 131 1
133 124 132 1
134 125 133 1
135 125 134 1
136 135 136 1
137 135 145 1
138 136 137 1
139 136 139 1
140 136 146 1
141 137 138 2
142 137 152 1
143 139 140 1
144 140 141 2
145 141 144 1
146 140 142 1
147 142 143 2
148 143 144 1
149 139 147 1
150 139 148 1
151 141 149 1
152 143 150 1
153 144 151 1
154 152 153 1
155 152 159 1
156 153 154 1
157 153 156 1
158 153 160 1
159 154 155 2
160 154 168 1
161 156 157 1
162 156 158 1
163 156 161 1
164 157 162 1
165 157 163 1
166 157 164 1
167 158 165 1
168 158 166 1
169 158 167 1
170 168 169 1
171 168 177 1
172 169 170 1
173 169 172 1
174 169 178 1
175 170 171 2
176 170 185 1
177 172 173 1
178 173 174 1
179 174 175 1
180 174 176 2
181 172 179 1
182 172 180 1
183 173 181 1
184 173 182 1
185 175 183 1
186 175 184 1
187 185 186 1
188 185 196 1
189 186 187 1
190 186 189 1
191 186 197 1
192 187 188 2
193 187 209 1
194 189 190 1
195 190 191 1
196 191 192 1
197 192 193 1
198 193 194 2
199 193 195 1
200 189 198 1
201 189 199 1
202 190 200 1
203 190 201 1
204 191 202 1
205 191 203 1
206 192 204 1
207 194 205 1
208 194 206 1
209 195 207 1
210 195 208 1
211 209 210 1
212 209 216 1
213 210 211 1
214 210 213 1
215 210 217 1
216 211 212 2
217 211 225 1
218 213 214 1
219 213 215 1
220 213 218 1
221 214 219 1
222 214 220 1
223 214 221 1
224 215 222 1
225 215 223 1
226 215 224 1
227 225 226 1
228 225 234 1
229 226 227 1
230 226 229 1
231 226 235 1
232 227 228 2
233 227 247 1
234 229 230 1
235 230 231 1
236 231 232 1
237 232 233 1
238 233 246 1
239 229 236 1
240 229 237 1
241 230 238 1
242 230 239 1
243 231 240 1
244 231 241 1
245 232 242 1
246 232 243 1
247 233 244 1
248 233 245 1
249 247 248 1
250 247 258 1
251 248 249 1
252 248 251 1
253 248 259 1
254 249 250 2
255 251 252 1
256 252 253 1
257 253 254 1
258 254 255 1
259 255 256 2
260 255 257 1
261 251 260 1
262 251 261 1
263 252 262 1
264 252 263 1
265 253 264 1
266 253 265 1
267 254 266 1
268 256 267 1
269 256 268 1
270 257 269 1
271 257 270 1
@<TRIPOS>SUBSTRUCTURE
1	GLU1	1	RESIDUE	1 ****	GLU
2	ASN2	16	RESIDUE	1 ****	ASN
3	PRO3	30	RESIDUE	1 ****	PRO
4	GLU4	44	RESIDUE	1 ****	GLU
5	SER5	59	RESIDUE	1 ****	SER
6	ILE6	70	RESIDUE	1 ****	ILE
7	LEU7	89	RESIDUE	1 ****	LEU
8	ASP8	108	RESIDUE	1 ****	ASP
9	GLU9	120	RESIDUE	1 ****	GLU
10	HIS10	135	RESIDUE	1 ****	HIS
11	VAL11	152	RESIDUE	1 ****	VAL
12	GLN12	168	RESIDUE	1 ****	GLN
13	ARG13	185	RESIDUE	1 ****	ARG
14	VAL14	209	RESIDUE	1 ****	VAL
15	LYS15	225	RESIDUE	1 ****	LYS
16	ARG16	247	RESIDUE	1 ****	ARG
