@<TRIPOS>MOLECULE
8-2
267 269 16              
SMALL
USER_CHARGES
@<TRIPOS>ATOM
1	   N	1198.281	343.020	-1192.090	N.3	1	GLU1	-0.516	
2	  CA	1198.840	344.369	-1192.090	C.3	1	GLU1	0.040	
3	   C	1200.349	344.329	-1192.090	C.2	1	GLU1	0.537	
4	   O	1201.025	345.028	-1192.859	O.2	1	GLU1	-0.582	
5	  CB	1198.317	345.154	-1190.853	C.3	1	GLU1	0.056	
6	  CG	1198.792	346.639	-1190.742	C.3	1	GLU1	0.014	
7	  CD	1198.368	347.443	-1189.527	C.2	1	GLU1	0.805	
8	 OE1	1197.640	346.941	-1188.649	O.co2	1	GLU1	-0.819	
9	 OE2	1198.798	348.613	-1189.455	O.co2	1	GLU1	-0.819	
10	   H	1198.908	342.141	-1192.090	 H	1	GLU1	0.294	
11	  HA	1198.514	344.887	-1193.010	 H	1	GLU1	0.111	
12	 2HB	1198.606	344.623	-1189.923	 H	1	GLU1	-0.017	
13	 3HB	1197.210	345.144	-1190.840	 H	1	GLU1	-0.017	
14	 2HG	1198.482	347.224	-1191.623	 H	1	GLU1	-0.043	
15	 3HG	1199.892	346.706	-1190.713	 H	1	GLU1	-0.043	
16	   N	1200.953	343.543	-1191.265	N.am	2	ASN2	-0.416	
17	  CA	1202.413	343.505	-1191.265	C.3	2	ASN2	0.014	
18	   C	1202.944	343.149	-1192.634	C.2	2	ASN2	0.597	
19	   O	1203.858	343.780	-1193.163	O.2	2	ASN2	-0.568	
20	  CB	1202.905	342.482	-1190.201	C.3	2	ASN2	-0.204	
21	  CG	1202.442	342.706	-1188.757	C.2	2	ASN2	0.713	
22	 ND2	1203.036	343.620	-1188.039	N.pl3	2	ASN2	-0.919	
23	 OD1	1201.521	342.072	-1188.263	O.2	2	ASN2	-0.593	
24	   H	1200.425	342.964	-1190.629	 H	2	ASN2	0.272	
25	  HA	1202.790	344.515	-1191.020	 H	2	ASN2	0.105	
26	 2HB	1204.009	342.423	-1190.204	 H	2	ASN2	0.080	
27	 3HB	1202.576	341.464	-1190.487	 H	2	ASN2	0.080	
28	1HD2	1202.555	343.793	-1187.153	 H	2	ASN2	0.420	
29	2HD2	1203.737	344.192	-1188.509	 H	2	ASN2	0.420	
30	   N	1202.422	342.154	-1193.268	N.am	3	PRO3	-0.255	
31	  CA	1202.874	341.745	-1194.589	C.3	3	PRO3	-0.027	
32	   C	1202.476	342.768	-1195.666	C.2	3	PRO3	0.590	
33	   O	1203.299	343.151	-1196.498	O.2	3	PRO3	-0.575	
34	  CB	1202.170	340.390	-1194.759	C.3	3	PRO3	-0.007	
35	  CG	1200.887	340.542	-1193.929	C.3	3	PRO3	0.019	
36	  CD	1201.344	341.361	-1192.719	C.3	3	PRO3	0.019	
37	  HA	1203.960	341.625	-1194.603	 H	3	PRO3	0.064	
38	 2HB	1202.793	339.609	-1194.318	 H	3	PRO3	0.025	
39	 3HB	1201.972	340.141	-1195.804	 H	3	PRO3	0.025	
40	 2HG	1200.459	339.580	-1193.637	 H	3	PRO3	0.021	
41	 3HG	1200.149	341.113	-1194.496	 H	3	PRO3	0.021	
42	 2HD	1201.734	340.711	-1191.931	 H	3	PRO3	0.039	
43	 3HD	1200.548	341.997	-1192.326	 H	3	PRO3	0.039	
44	   N	1201.271	343.228	-1195.699	N.am	4	GLU4	-0.516	
45	  CA	1200.911	344.199	-1196.728	C.3	4	GLU4	0.040	
46	   C	1201.810	345.410	-1196.667	C.2	4	GLU4	0.537	
47	   O	1202.336	345.890	-1197.682	O.2	4	GLU4	-0.582	
48	  CB	1199.423	344.618	-1196.558	C.3	4	GLU4	0.056	
49	  CG	1198.874	345.621	-1197.623	C.3	4	GLU4	0.014	
50	  CD	1197.448	346.118	-1197.479	C.2	4	GLU4	0.805	
51	 OE1	1196.722	345.720	-1196.548	O.co2	4	GLU4	-0.819	
52	 OE2	1197.058	346.947	-1198.328	O.co2	4	GLU4	-0.819	
53	   H	1200.587	342.921	-1195.022	 H	4	GLU4	0.294	
54	  HA	1201.042	343.729	-1197.719	 H	4	GLU4	0.111	
55	 2HB	1199.270	345.058	-1195.551	 H	4	GLU4	-0.017	
56	 3HB	1198.775	343.720	-1196.564	 H	4	GLU4	-0.017	
57	 2HG	1198.956	345.207	-1198.641	 H	4	GLU4	-0.043	
58	 3HG	1199.462	346.554	-1197.634	 H	4	GLU4	-0.043	
59	   N	1202.038	345.963	-1195.524	N.am	5	SER5	-0.416	
60	  CA	1202.907	347.135	-1195.465	C.3	5	SER5	-0.025	
61	   C	1204.266	346.829	-1196.051	C.2	5	SER5	0.597	
62	   O	1204.813	347.583	-1196.856	O.2	5	SER5	-0.568	
63	  CB	1203.019	347.667	-1194.015	C.3	5	SER5	0.212	
64	  OG	1203.751	346.787	-1193.154	O.3	5	SER5	-0.655	
65	   H	1201.621	345.591	-1194.682	 H	5	SER5	0.272	
66	  HA	1202.458	347.925	-1196.094	 H	5	SER5	0.084	
67	 2HB	1202.019	347.860	-1193.581	 H	5	SER5	0.035	
68	 3HB	1203.524	348.652	-1194.017	 H	5	SER5	0.035	
69	  HG	1203.262	345.962	-1193.103	 H	5	SER5	0.428	
70	   N	1204.871	345.746	-1195.697	N.am	6	ILE6	-0.416	
71	  CA	1206.184	345.451	-1196.264	C.3	6	ILE6	-0.060	
72	   C	1206.126	345.414	-1197.771	C.2	6	ILE6	0.597	
73	   O	1206.961	346.002	-1198.475	O.2	6	ILE6	-0.568	
74	  CB	1206.783	344.115	-1195.664	C.3	6	ILE6	0.130	
75	 CG1	1206.803	344.053	-1194.103	C.3	6	ILE6	-0.043	
76	 CG2	1208.225	343.814	-1196.179	C.3	6	ILE6	-0.320	
77	 CD1	1207.073	342.664	-1193.488	C.3	6	ILE6	-0.066	
78	   H	1204.442	345.112	-1195.038	 H	6	ILE6	0.272	
79	  HA	1206.858	346.286	-1195.996	 H	6	ILE6	0.087	
80	  HB	1206.126	343.289	-1196.008	 H	6	ILE6	0.019	
81	2HG1	1205.821	344.373	-1193.707	 H	6	ILE6	0.024	
82	3HG1	1207.519	344.795	-1193.698	 H	6	ILE6	0.024	
83	1HG2	1208.284	343.720	-1197.278	 H	6	ILE6	0.088	
84	2HG2	1208.947	344.596	-1195.877	 H	6	ILE6	0.088	
85	3HG2	1208.615	342.851	-1195.801	 H	6	ILE6	0.088	
86	1HD1	1206.345	341.909	-1193.843	 H	6	ILE6	0.019	
87	2HD1	1208.084	342.285	-1193.724	 H	6	ILE6	0.019	
88	3HD1	1206.997	342.693	-1192.385	 H	6	ILE6	0.019	
89	   N	1205.180	344.751	-1198.345	N.am	7	LEU7	-0.416	
90	  CA	1205.125	344.715	-1199.804	C.3	7	LEU7	-0.052	
91	   C	1205.053	346.110	-1200.376	C.2	7	LEU7	0.597	
92	   O	1205.773	346.473	-1201.318	O.2	7	LEU7	-0.568	
93	  CB	1203.922	343.854	-1200.284	C.3	7	LEU7	-0.110	
94	  CG	1203.850	342.375	-1199.818	C.3	7	LEU7	0.353	
95	 CD1	1202.660	341.669	-1200.483	C.3	7	LEU7	-0.412	
96	 CD2	1205.143	341.596	-1200.110	C.3	7	LEU7	-0.412	
97	   H	1204.489	344.263	-1197.794	 H	7	LEU7	0.272	
98	  HA	1206.067	344.275	-1200.178	 H	7	LEU7	0.092	
99	 2HB	1203.899	343.871	-1201.391	 H	7	LEU7	0.046	
100	 3HB	1202.983	344.357	-1199.980	 H	7	LEU7	0.046	
101	  HG	1203.680	342.367	-1198.721	 H	7	LEU7	-0.036	
102	1HD1	1201.703	342.178	-1200.261	 H	7	LEU7	0.100	
103	2HD1	1202.759	341.629	-1201.584	 H	7	LEU7	0.100	
104	3HD1	1202.553	340.628	-1200.127	 H	7	LEU7	0.100	
105	1HD2	1205.418	341.626	-1201.179	 H	7	LEU7	0.100	
106	2HD2	1205.997	342.007	-1199.538	 H	7	LEU7	0.100	
107	3HD2	1205.062	340.534	-1199.814	 H	7	LEU7	0.100	
108	   N	1204.215	346.951	-1199.869	N.am	8	PRO8	-0.255	
109	  CA	1204.081	348.314	-1200.360	C.3	8	PRO8	-0.027	
110	   C	1205.309	349.169	-1200.002	C.2	8	PRO8	0.590	
111	   O	1205.845	349.878	-1200.853	O.2	8	PRO8	-0.575	
112	  CB	1202.799	348.780	-1199.655	C.3	8	PRO8	-0.007	
113	  CG	1202.792	347.974	-1198.347	C.3	8	PRO8	0.019	
114	  CD	1203.339	346.609	-1198.770	C.3	8	PRO8	0.019	
115	  HA	1203.954	348.320	-1201.446	 H	8	PRO8	0.064	
116	 2HB	1201.936	348.491	-1200.259	 H	8	PRO8	0.025	
117	 3HB	1202.773	349.859	-1199.489	 H	8	PRO8	0.025	
118	 2HG	1201.796	347.901	-1197.905	 H	8	PRO8	0.021	
119	 3HG	1203.476	348.434	-1197.630	 H	8	PRO8	0.021	
120	 2HD	1202.537	345.961	-1199.131	 H	8	PRO8	0.039	
121	 3HD	1203.890	346.117	-1197.965	 H	8	PRO8	0.039	
122	   N	1205.780	349.141	-1198.801	N.am	9	GLU9	-0.516	
123	  CA	1206.946	349.959	-1198.479	C.3	9	GLU9	0.040	
124	   C	1208.108	349.623	-1199.382	C.2	9	GLU9	0.537	
125	   O	1208.780	350.501	-1199.943	O.2	9	GLU9	-0.582	
126	  CB	1207.338	349.751	-1196.989	C.3	9	GLU9	0.056	
127	  CG	1208.545	350.603	-1196.479	C.3	9	GLU9	0.014	
128	  CD	1209.018	350.403	-1195.052	C.2	9	GLU9	0.805	
129	 OE1	1208.445	349.596	-1194.294	O.co2	9	GLU9	-0.819	
130	 OE2	1210.009	351.073	-1194.693	O.co2	9	GLU9	-0.819	
131	   H	1205.348	348.563	-1198.095	 H	9	GLU9	0.294	
132	  HA	1206.688	351.022	-1198.639	 H	9	GLU9	0.111	
133	 2HB	1207.563	348.680	-1196.807	 H	9	GLU9	-0.017	
134	 3HB	1206.468	349.961	-1196.337	 H	9	GLU9	-0.017	
135	 2HG	1208.348	351.681	-1196.591	 H	9	GLU9	-0.043	
136	 3HG	1209.453	350.404	-1197.072	 H	9	GLU9	-0.043	
137	   N	1208.411	348.385	-1199.576	N.am	10	HIS10	-0.416	
138	  CA	1209.535	348.059	-1200.450	C.3	10	HIS10	-0.058	
139	   C	1209.343	348.652	-1201.824	C.2	10	HIS10	0.597	
140	   O	1210.248	349.271	-1202.406	O.2	10	HIS10	-0.568	
141	  CB	1209.589	346.524	-1200.530	C.3	10	HIS10	-0.007	
142	  CG	1210.884	345.971	-1200.012	C.2	10	HIS10	0.187	
143	 CD2	1211.068	345.610	-1198.684	C.2	10	HIS10	-0.221	
144	 ND1	1212.036	345.751	-1200.764	N.2	10	HIS10	-0.543	
145	 CE1	1212.848	345.267	-1199.806	C.2	10	HIS10	0.163	
146	 NE2	1212.351	345.148	-1198.545	N.pl3	10	HIS10	-0.280	
147	   H	1207.879	347.651	-1199.131	 H	10	HIS10	0.272	
148	  HA	1210.437	348.532	-1200.025	 H	10	HIS10	0.136	
149	 2HB	1209.462	346.173	-1201.574	 H	10	HIS10	0.037	
150	 3HB	1208.766	346.046	-1199.958	 H	10	HIS10	0.037	
151	 2HD	1210.307	345.691	-1197.914	 H	10	HIS10	0.186	
152	 1HE	1213.855	344.994	-1200.093	 H	10	HIS10	0.144	
153	 2HE	1212.816	344.801	-1197.693	 H	10	HIS10	0.334	
154	   N	1208.204	348.511	-1202.413	N.am	11	VAL11	-0.416	
155	  CA	1208.018	349.085	-1203.742	C.3	11	VAL11	-0.087	
156	   C	1208.294	350.569	-1203.734	C.2	11	VAL11	0.597	
157	   O	1209.003	351.110	-1204.591	O.2	11	VAL11	-0.568	
158	  CB	1206.553	348.788	-1204.254	C.3	11	VAL11	0.299	
159	 CG1	1206.129	349.487	-1205.575	C.3	11	VAL11	-0.319	
160	 CG2	1206.259	347.285	-1204.477	C.3	11	VAL11	-0.319	
161	   H	1207.452	348.011	-1201.960	 H	11	VAL11	0.272	
162	  HA	1208.747	348.624	-1204.434	 H	11	VAL11	0.097	
163	  HB	1205.853	349.146	-1203.469	 H	11	VAL11	-0.030	
164	1HG1	1206.780	349.215	-1206.427	 H	11	VAL11	0.079	
165	2HG1	1205.089	349.242	-1205.865	 H	11	VAL11	0.079	
166	3HG1	1206.148	350.591	-1205.493	 H	11	VAL11	0.079	
167	1HG2	1206.463	346.687	-1203.569	 H	11	VAL11	0.079	
168	2HG2	1205.196	347.106	-1204.727	 H	11	VAL11	0.079	
169	3HG2	1206.867	346.854	-1205.295	 H	11	VAL11	0.079	
170	   N	1207.773	351.296	-1202.804	N.am	12	GLN12	-0.416	
171	  CA	1208.039	352.731	-1202.795	C.3	12	GLN12	-0.003	
172	   C	1209.523	353.008	-1202.747	C.2	12	GLN12	0.597	
173	   O	1210.057	353.826	-1203.493	O.2	12	GLN12	-0.568	
174	  CB	1207.319	353.361	-1201.582	C.3	12	GLN12	-0.004	
175	  CG	1207.451	354.912	-1201.429	C.3	12	GLN12	-0.064	
176	  CD	1206.814	355.600	-1200.215	C.2	12	GLN12	0.695	
177	 NE2	1206.157	354.892	-1199.332	N.pl3	12	GLN12	-0.941	
178	 OE1	1206.928	356.803	-1200.040	O.2	12	GLN12	-0.609	
179	   H	1207.191	350.878	-1202.093	 H	12	GLN12	0.272	
180	  HA	1207.647	353.171	-1203.731	 H	12	GLN12	0.085	
181	 2HB	1207.696	352.875	-1200.657	 H	12	GLN12	0.017	
182	 3HB	1206.243	353.102	-1201.630	 H	12	GLN12	0.017	
183	 2HG	1207.067	355.417	-1202.335	 H	12	GLN12	0.035	
184	 3HG	1208.516	355.205	-1201.383	 H	12	GLN12	0.035	
185	1HE2	1205.821	355.416	-1198.522	 H	12	GLN12	0.425	
186	2HE2	1206.157	353.884	-1199.500	 H	12	GLN12	0.425	
187	   N	1210.252	352.366	-1201.898	N.am	13	ARG13	-0.348	
188	  CA	1211.687	352.634	-1201.852	C.3	13	ARG13	-0.264	
189	   C	1212.323	352.398	-1203.201	C.2	13	ARG13	0.734	
190	   O	1213.101	353.205	-1203.704	O.2	13	ARG13	-0.589	
191	  CB	1212.329	351.736	-1200.757	C.3	13	ARG13	-0.001	
192	  CG	1213.797	352.085	-1200.382	C.3	13	ARG13	0.039	
193	  CD	1214.366	351.129	-1199.321	C.3	13	ARG13	0.049	
194	  NE	1215.765	351.524	-1198.987	N.pl3	13	ARG13	-0.530	
195	  CZ	1216.551	350.905	-1198.112	C.cat	13	ARG13	0.808	
196	 NH1	1216.187	349.854	-1197.432	N.pl3	13	ARG13	-0.863	
197	 NH2	1217.746	351.369	-1197.921	N.pl3	13	ARG13	-0.863	
198	   H	1209.837	351.688	-1201.275	 H	13	ARG13	0.275	
199	  HA	1211.827	353.702	-1201.598	 H	13	ARG13	0.156	
200	 2HB	1212.260	350.676	-1201.080	 H	13	ARG13	0.033	
201	 3HB	1211.709	351.783	-1199.839	 H	13	ARG13	0.033	
202	 2HG	1213.842	353.134	-1200.024	 H	13	ARG13	0.029	
203	 3HG	1214.439	352.051	-1201.286	 H	13	ARG13	0.029	
204	 2HD	1214.329	350.087	-1199.708	 H	13	ARG13	0.069	
205	 3HD	1213.719	351.151	-1198.417	 H	13	ARG13	0.069	
206	  HE	1216.206	352.333	-1199.437	 H	13	ARG13	0.346	
207	1HH1	1215.235	349.538	-1197.630	 H	13	ARG13	0.448	
208	2HH1	1216.850	349.436	-1196.777	 H	13	ARG13	0.448	
209	1HH2	1218.014	352.193	-1198.463	 H	13	ARG13	0.448	
210	2HH2	1218.334	350.881	-1197.243	 H	13	ARG13	0.448	
211	   N	1212.042	351.316	-1203.845	N.am	14	VAL14	-0.416	
212	  CA	1212.658	351.087	-1205.149	C.3	14	VAL14	-0.087	
213	   C	1212.349	352.220	-1206.099	C.2	14	VAL14	0.597	
214	   O	1213.226	352.755	-1206.789	O.2	14	VAL14	-0.568	
215	  CB	1212.165	349.708	-1205.741	C.3	14	VAL14	0.299	
216	 CG1	1212.580	349.398	-1207.205	C.3	14	VAL14	-0.319	
217	 CG2	1212.616	348.476	-1204.920	C.3	14	VAL14	-0.319	
218	   H	1211.406	350.637	-1203.453	 H	14	VAL14	0.272	
219	  HA	1213.756	351.060	-1205.025	 H	14	VAL14	0.097	
220	  HB	1211.054	349.723	-1205.725	 H	14	VAL14	-0.030	
221	1HG1	1213.678	349.379	-1207.339	 H	14	VAL14	0.079	
222	2HG1	1212.190	348.422	-1207.555	 H	14	VAL14	0.079	
223	3HG1	1212.178	350.137	-1207.924	 H	14	VAL14	0.079	
224	1HG2	1212.312	348.555	-1203.860	 H	14	VAL14	0.079	
225	2HG2	1212.162	347.540	-1205.299	 H	14	VAL14	0.079	
226	3HG2	1213.714	348.340	-1204.935	 H	14	VAL14	0.079	
227	   N	1211.135	352.644	-1206.192	N.am	15	MET15	-0.416	
228	  CA	1210.835	353.739	-1207.110	C.3	15	MET15	-0.024	
229	   C	1211.667	354.957	-1206.791	C.2	15	MET15	0.597	
230	   O	1212.268	355.591	-1207.672	O.2	15	MET15	-0.568	
231	  CB	1209.319	354.074	-1207.053	C.3	15	MET15	0.034	
232	  CG	1208.362	352.945	-1207.495	C.3	15	MET15	0.002	
233	  SD	1206.688	353.589	-1207.647	S.3	15	MET15	-0.274	
234	  CE	1205.811	352.024	-1207.767	C.3	15	MET15	-0.054	
235	   H	1210.401	352.224	-1205.639	 H	15	MET15	0.272	
236	  HA	1211.101	353.423	-1208.135	 H	15	MET15	0.088	
237	 2HB	1209.115	354.956	-1207.690	 H	15	MET15	0.024	
238	 3HB	1209.042	354.394	-1206.029	 H	15	MET15	0.024	
239	 2HG	1208.374	352.126	-1206.752	 H	15	MET15	0.044	
240	 3HG	1208.672	352.504	-1208.460	 H	15	MET15	0.044	
241	 1HE	1206.202	351.414	-1208.602	 H	15	MET15	0.068	
242	 2HE	1205.923	351.447	-1206.832	 H	15	MET15	0.068	
243	 3HE	1204.734	352.196	-1207.938	 H	15	MET15	0.068	
244	   N	1211.757	355.351	-1205.565	N.am	16	ARG16	-0.348	
245	  CA	1212.563	356.529	-1205.258	C.3	16	ARG16	-0.264	
246	   C	1213.984	356.351	-1205.737	C.2	16	ARG16	0.734	
247	   O	1214.351	355.337	-1206.326	O.2	16	ARG16	-0.589	
248	  CB	1212.509	356.786	-1203.725	C.3	16	ARG16	-0.001	
249	  CG	1213.083	358.153	-1203.256	C.3	16	ARG16	0.039	
250	  CD	1213.023	358.311	-1201.728	C.3	16	ARG16	0.049	
251	  NE	1213.566	359.646	-1201.339	N.pl3	16	ARG16	-0.530	
252	  CZ	1213.667	360.102	-1200.095	C.cat	16	ARG16	0.808	
253	 NH1	1213.302	359.421	-1199.045	N.pl3	16	ARG16	-0.863	
254	 NH2	1214.154	361.289	-1199.912	N.pl3	16	ARG16	-0.863	
255	   H	1211.278	354.851	-1204.830	 H	16	ARG16	0.275	
256	  HA	1212.131	357.390	-1205.803	 H	16	ARG16	0.156	
257	 2HB	1213.032	355.956	-1203.206	 H	16	ARG16	0.033	
258	 3HB	1211.459	356.706	-1203.380	 H	16	ARG16	0.033	
259	 2HG	1212.523	358.972	-1203.753	 H	16	ARG16	0.029	
260	 3HG	1214.133	358.261	-1203.595	 H	16	ARG16	0.029	
261	 2HD	1213.606	357.492	-1201.251	 H	16	ARG16	0.069	
262	 3HD	1211.974	358.192	-1201.383	 H	16	ARG16	0.069	
263	  HE	1213.900	360.306	-1202.049	 H	16	ARG16	0.346	
264	1HH1	1212.928	358.494	-1199.258	 H	16	ARG16	0.448	
265	2HH1	1213.411	359.843	-1198.121	 H	16	ARG16	0.448	
266	1HH2	1214.435	361.807	-1200.746	 H	16	ARG16	0.448	
267	2HH2	1214.222	361.622	-1198.949	 H	16	ARG16	0.448	
@<TRIPOS>BOND
1 1 2 1
2 1 10 1
3 2 3 1
4 2 5 1
5 2 11 1
6 3 4 2
7 3 16 1
8 5 6 1
9 6 7 1
10 7 8 2
11 7 9 1
12 5 12 1
13 5 13 1
14 6 14 1
15 6 15 1
16 16 17 1
17 16 24 1
18 17 18 1
19 17 20 1
20 17 25 1
21 18 19 2
22 18 30 1
23 20 21 1
24 21 22 1
25 21 23 2
26 20 26 1
27 20 27 1
28 22 28 1
29 22 29 1
30 30 31 1
31 30 36 1
32 31 32 1
33 31 34 1
34 31 37 1
35 32 33 2
36 32 44 1
37 34 35 1
38 35 36 1
39 34 38 1
40 34 39 1
41 35 40 1
42 35 41 1
43 36 42 1
44 36 43 1
45 44 45 1
46 44 53 1
47 45 46 1
48 45 48 1
49 45 54 1
50 46 47 2
51 46 59 1
52 48 49 1
53 49 50 1
54 50 51 2
55 50 52 1
56 48 55 1
57 48 56 1
58 49 57 1
59 49 58 1
60 59 60 1
61 59 65 1
62 60 61 1
63 60 63 1
64 60 66 1
65 61 62 2
66 61 70 1
67 63 64 1
68 63 67 1
69 63 68 1
70 64 69 1
71 70 71 1
72 70 78 1
73 71 72 1
74 71 74 1
75 71 79 1
76 72 73 2
77 72 89 1
78 74 75 1
79 74 76 1
80 75 77 1
81 74 80 1
82 75 81 1
83 75 82 1
84 76 83 1
85 76 84 1
86 76 85 1
87 77 86 1
88 77 87 1
89 77 88 1
90 89 90 1
91 89 97 1
92 90 91 1
93 90 93 1
94 90 98 1
95 91 92 2
96 91 108 1
97 93 94 1
98 94 95 1
99 94 96 1
100 93 99 1
101 93 100 1
102 94 101 1
103 95 102 1
104 95 103 1
105 95 104 1
106 96 105 1
107 96 106 1
108 96 107 1
109 108 109 1
110 108 114 1
111 109 110 1
112 109 112 1
113 109 115 1
114 110 111 2
115 110 122 1
116 112 113 1
117 113 114 1
118 112 116 1
119 112 117 1
120 113 118 1
121 113 119 1
122 114 120 1
123 114 121 1
124 122 123 1
125 122 131 1
126 123 124 1
127 123 126 1
128 123 132 1
129 124 125 2
130 124 137 1
131 126 127 1
132 127 128 1
133 128 129 2
134 128 130 1
135 126 133 1
136 126 134 1
137 127 135 1
138 127 136 1
139 137 138 1
140 137 147 1
141 138 139 1
142 138 141 1
143 138 148 1
144 139 140 2
145 139 154 1
146 141 142 1
147 142 143 2
148 143 146 1
149 142 144 1
150 144 145 2
151 145 146 1
152 141 149 1
153 141 150 1
154 143 151 1
155 145 152 1
156 146 153 1
157 154 155 1
158 154 161 1
159 155 156 1
160 155 158 1
161 155 162 1
162 156 157 2
163 156 170 1
164 158 159 1
165 158 160 1
166 158 163 1
167 159 164 1
168 159 165 1
169 159 166 1
170 160 167 1
171 160 168 1
172 160 169 1
173 170 171 1
174 170 179 1
175 171 172 1
176 171 174 1
177 171 180 1
178 172 173 2
179 172 187 1
180 174 175 1
181 175 176 1
182 176 177 1
183 176 178 2
184 174 181 1
185 174 182 1
186 175 183 1
187 175 184 1
188 177 185 1
189 177 186 1
190 187 188 1
191 187 198 1
192 188 189 1
193 188 191 1
194 188 199 1
195 189 190 2
196 189 211 1
197 191 192 1
198 192 193 1
199 193 194 1
200 194 195 1
201 195 196 2
202 195 197 1
203 191 200 1
204 191 201 1
205 192 202 1
206 192 203 1
207 193 204 1
208 193 205 1
209 194 206 1
210 196 207 1
211 196 208 1
212 197 209 1
213 197 210 1
214 211 212 1
215 211 218 1
216 212 213 1
217 212 215 1
218 212 219 1
219 213 214 2
220 213 227 1
221 215 216 1
222 215 217 1
223 215 220 1
224 216 221 1
225 216 222 1
226 216 223 1
227 217 224 1
228 217 225 1
229 217 226 1
230 227 228 1
231 227 235 1
232 228 229 1
233 228 231 1
234 228 236 1
235 229 230 2
236 229 244 1
237 231 232 1
238 232 233 1
239 233 234 1
240 231 237 1
241 231 238 1
242 232 239 1
243 232 240 1
244 234 241 1
245 234 242 1
246 234 243 1
247 244 245 1
248 244 255 1
249 245 246 1
250 245 248 1
251 245 256 1
252 246 247 2
253 248 249 1
254 249 250 1
255 250 251 1
256 251 252 1
257 252 253 2
258 252 254 1
259 248 257 1
260 248 258 1
261 249 259 1
262 249 260 1
263 250 261 1
264 250 262 1
265 251 263 1
266 253 264 1
267 253 265 1
268 254 266 1
269 254 267 1
@<TRIPOS>SUBSTRUCTURE
1	GLU1	1	RESIDUE	1 ****	GLU
2	ASN2	16	RESIDUE	1 ****	ASN
3	PRO3	30	RESIDUE	1 ****	PRO
4	GLU4	44	RESIDUE	1 ****	GLU
5	SER5	59	RESIDUE	1 ****	SER
6	ILE6	70	RESIDUE	1 ****	ILE
7	LEU7	89	RESIDUE	1 ****	LEU
8	PRO8	108	RESIDUE	1 ****	PRO
9	GLU9	122	RESIDUE	1 ****	GLU
10	HIS10	137	RESIDUE	1 ****	HIS
11	VAL11	154	RESIDUE	1 ****	VAL
12	GLN12	170	RESIDUE	1 ****	GLN
13	ARG13	187	RESIDUE	1 ****	ARG
14	VAL14	211	RESIDUE	1 ****	VAL
15	MET15	227	RESIDUE	1 ****	MET
16	ARG16	244	RESIDUE	1 ****	ARG
