@<TRIPOS>MOLECULE
13-16
258 259 16              
SMALL
USER_CHARGES
@<TRIPOS>ATOM
1	   N	2128.059	647.626	-2204.418	N.3	1	GLU1	-0.516	
2	  CA	2128.618	648.975	-2204.418	C.3	1	GLU1	0.040	
3	   C	2130.127	648.935	-2204.418	C.2	1	GLU1	0.537	
4	   O	2130.802	649.634	-2205.186	O.2	1	GLU1	-0.582	
5	  CB	2128.094	649.760	-2203.181	C.3	1	GLU1	0.056	
6	  CG	2128.570	651.245	-2203.070	C.3	1	GLU1	0.014	
7	  CD	2128.146	652.049	-2201.855	C.2	1	GLU1	0.805	
8	 OE1	2127.417	651.547	-2200.977	O.co2	1	GLU1	-0.819	
9	 OE2	2128.576	653.219	-2201.783	O.co2	1	GLU1	-0.819	
10	   H	2128.686	646.747	-2204.418	 H	1	GLU1	0.294	
11	  HA	2128.292	649.493	-2205.338	 H	1	GLU1	0.111	
12	 2HB	2128.384	649.229	-2202.251	 H	1	GLU1	-0.017	
13	 3HB	2126.988	649.750	-2203.168	 H	1	GLU1	-0.017	
14	 2HG	2128.260	651.830	-2203.951	 H	1	GLU1	-0.043	
15	 3HG	2129.670	651.312	-2203.041	 H	1	GLU1	-0.043	
16	   N	2130.731	648.149	-2203.593	N.am	2	ASN2	-0.416	
17	  CA	2132.190	648.110	-2203.592	C.3	2	ASN2	0.014	
18	   C	2132.722	647.755	-2204.961	C.2	2	ASN2	0.597	
19	   O	2133.637	648.385	-2205.489	O.2	2	ASN2	-0.568	
20	  CB	2132.682	647.087	-2202.528	C.3	2	ASN2	-0.204	
21	  CG	2132.219	647.311	-2201.085	C.2	2	ASN2	0.713	
22	 ND2	2132.813	648.226	-2200.366	N.pl3	2	ASN2	-0.919	
23	 OD1	2131.298	646.678	-2200.591	O.2	2	ASN2	-0.593	
24	   H	2130.203	647.570	-2202.956	 H	2	ASN2	0.272	
25	  HA	2132.568	649.120	-2203.347	 H	2	ASN2	0.105	
26	 2HB	2133.786	647.028	-2202.531	 H	2	ASN2	0.080	
27	 3HB	2132.353	646.069	-2202.814	 H	2	ASN2	0.080	
28	1HD2	2132.332	648.399	-2199.480	 H	2	ASN2	0.420	
29	2HD2	2133.515	648.797	-2200.835	 H	2	ASN2	0.420	
30	   N	2132.200	646.760	-2205.595	N.am	3	PRO3	-0.255	
31	  CA	2132.653	646.350	-2206.917	C.3	3	PRO3	-0.027	
32	   C	2132.255	647.374	-2207.994	C.2	3	PRO3	0.590	
33	   O	2133.078	647.757	-2208.825	O.2	3	PRO3	-0.575	
34	  CB	2131.948	644.996	-2207.086	C.3	3	PRO3	-0.007	
35	  CG	2130.665	645.148	-2206.256	C.3	3	PRO3	0.019	
36	  CD	2131.122	645.967	-2205.046	C.3	3	PRO3	0.019	
37	  HA	2133.739	646.230	-2206.930	 H	3	PRO3	0.064	
38	 2HB	2132.571	644.215	-2206.645	 H	3	PRO3	0.025	
39	 3HB	2131.750	644.747	-2208.132	 H	3	PRO3	0.025	
40	 2HG	2130.237	644.186	-2205.965	 H	3	PRO3	0.021	
41	 3HG	2129.927	645.719	-2206.824	 H	3	PRO3	0.021	
42	 2HD	2131.511	645.317	-2204.259	 H	3	PRO3	0.039	
43	 3HD	2130.325	646.603	-2204.654	 H	3	PRO3	0.039	
44	   N	2131.050	647.834	-2208.026	N.am	4	GLU4	-0.516	
45	  CA	2130.691	648.805	-2209.056	C.3	4	GLU4	0.040	
46	   C	2131.590	650.016	-2208.995	C.2	4	GLU4	0.537	
47	   O	2132.117	650.495	-2210.009	O.2	4	GLU4	-0.582	
48	  CB	2129.202	649.224	-2208.886	C.3	4	GLU4	0.056	
49	  CG	2128.655	650.228	-2209.952	C.3	4	GLU4	0.014	
50	  CD	2127.229	650.725	-2209.809	C.2	4	GLU4	0.805	
51	 OE1	2126.502	650.327	-2208.879	O.co2	4	GLU4	-0.819	
52	 OE2	2126.840	651.554	-2210.658	O.co2	4	GLU4	-0.819	
53	   H	2130.365	647.528	-2207.350	 H	4	GLU4	0.294	
54	  HA	2130.823	648.335	-2210.047	 H	4	GLU4	0.111	
55	 2HB	2129.050	649.664	-2207.880	 H	4	GLU4	-0.017	
56	 3HB	2128.554	648.327	-2208.893	 H	4	GLU4	-0.017	
57	 2HG	2128.737	649.813	-2210.970	 H	4	GLU4	-0.043	
58	 3HG	2129.243	651.160	-2209.963	 H	4	GLU4	-0.043	
59	   N	2131.817	650.569	-2207.851	N.am	5	SER5	-0.416	
60	  CA	2132.687	651.740	-2207.792	C.3	5	SER5	-0.025	
61	   C	2134.046	651.434	-2208.378	C.2	5	SER5	0.597	
62	   O	2134.594	652.187	-2209.182	O.2	5	SER5	-0.568	
63	  CB	2132.798	652.272	-2206.342	C.3	5	SER5	0.212	
64	  OG	2133.529	651.392	-2205.481	O.3	5	SER5	-0.655	
65	   H	2131.400	650.197	-2207.010	 H	5	SER5	0.272	
66	  HA	2132.238	652.530	-2208.422	 H	5	SER5	0.084	
67	 2HB	2131.798	652.466	-2205.909	 H	5	SER5	0.035	
68	 3HB	2133.304	653.257	-2206.344	 H	5	SER5	0.035	
69	  HG	2133.040	650.568	-2205.430	 H	5	SER5	0.428	
70	   N	2134.650	650.350	-2208.023	N.am	6	ILE6	-0.416	
71	  CA	2135.963	650.055	-2208.589	C.3	6	ILE6	-0.060	
72	   C	2135.906	650.017	-2210.097	C.2	6	ILE6	0.597	
73	   O	2136.741	650.605	-2210.801	O.2	6	ILE6	-0.568	
74	  CB	2136.562	648.719	-2207.989	C.3	6	ILE6	0.130	
75	 CG1	2136.581	648.656	-2206.428	C.3	6	ILE6	-0.043	
76	 CG2	2138.004	648.416	-2208.504	C.3	6	ILE6	-0.320	
77	 CD1	2136.851	647.267	-2205.813	C.3	6	ILE6	-0.066	
78	   H	2134.221	649.716	-2207.365	 H	6	ILE6	0.272	
79	  HA	2136.638	650.889	-2208.322	 H	6	ILE6	0.087	
80	  HB	2135.904	647.893	-2208.333	 H	6	ILE6	0.019	
81	2HG1	2135.599	648.976	-2206.032	 H	6	ILE6	0.024	
82	3HG1	2137.297	649.398	-2206.023	 H	6	ILE6	0.024	
83	1HG2	2138.063	648.323	-2209.602	 H	6	ILE6	0.088	
84	2HG2	2138.726	649.198	-2208.201	 H	6	ILE6	0.088	
85	3HG2	2138.393	647.454	-2208.125	 H	6	ILE6	0.088	
86	1HD1	2136.122	646.513	-2206.168	 H	6	ILE6	0.019	
87	2HD1	2137.861	646.888	-2206.049	 H	6	ILE6	0.019	
88	3HD1	2136.774	647.297	-2204.710	 H	6	ILE6	0.019	
89	   N	2134.960	649.354	-2210.671	N.am	7	LEU7	-0.416	
90	  CA	2134.905	649.318	-2212.129	C.3	7	LEU7	-0.052	
91	   C	2134.833	650.713	-2212.702	C.2	7	LEU7	0.597	
92	   O	2135.554	651.075	-2213.645	O.2	7	LEU7	-0.568	
93	  CB	2133.702	648.458	-2212.610	C.3	7	LEU7	-0.110	
94	  CG	2133.629	646.979	-2212.143	C.3	7	LEU7	0.353	
95	 CD1	2132.439	646.273	-2212.808	C.3	7	LEU7	-0.412	
96	 CD2	2134.922	646.199	-2212.435	C.3	7	LEU7	-0.412	
97	   H	2134.268	648.867	-2210.119	 H	7	LEU7	0.272	
98	  HA	2135.847	648.878	-2212.504	 H	7	LEU7	0.092	
99	 2HB	2133.679	648.474	-2213.717	 H	7	LEU7	0.046	
100	 3HB	2132.762	648.961	-2212.306	 H	7	LEU7	0.046	
101	  HG	2133.459	646.971	-2211.046	 H	7	LEU7	-0.036	
102	1HD1	2131.481	646.782	-2212.586	 H	7	LEU7	0.100	
103	2HD1	2132.538	646.233	-2213.910	 H	7	LEU7	0.100	
104	3HD1	2132.331	645.232	-2212.452	 H	7	LEU7	0.100	
105	1HD2	2135.197	646.229	-2213.504	 H	7	LEU7	0.100	
106	2HD2	2135.775	646.610	-2211.863	 H	7	LEU7	0.100	
107	3HD2	2134.840	645.137	-2212.138	 H	7	LEU7	0.100	
108	   N	2133.996	651.555	-2212.196	N.am	8	ASP8	-0.516	
109	  CA	2133.927	652.904	-2212.750	C.3	8	ASP8	0.038	
110	   C	2135.274	653.583	-2212.694	C.2	8	ASP8	0.537	
111	   O	2135.747	654.187	-2213.669	O.2	8	ASP8	-0.582	
112	  CB	2132.849	653.744	-2212.009	C.3	8	ASP8	-0.030	
113	  CG	2132.631	655.164	-2212.551	C.2	8	ASP8	0.799	
114	 OD1	2132.695	655.362	-2213.781	O.co2	8	ASP8	-0.801	
115	 OD2	2132.439	656.091	-2211.736	O.co2	8	ASP8	-0.801	
116	   H	2133.398	651.284	-2211.428	 H	8	ASP8	0.294	
117	  HA	2133.644	652.825	-2213.817	 H	8	ASP8	0.088	
118	 2HB	2133.106	653.827	-2210.938	 H	8	ASP8	-0.012	
119	 3HB	2131.870	653.239	-2212.042	 H	8	ASP8	-0.012	
120	   N	2135.954	653.533	-2211.598	N.am	9	GLU9	-0.516	
121	  CA	2137.257	654.190	-2211.544	C.3	9	GLU9	0.040	
122	   C	2138.174	653.662	-2212.620	C.2	9	GLU9	0.537	
123	   O	2138.838	654.415	-2213.346	O.2	9	GLU9	-0.582	
124	  CB	2137.890	653.983	-2210.138	C.3	9	GLU9	0.056	
125	  CG	2139.273	654.675	-2209.910	C.3	9	GLU9	0.014	
126	  CD	2139.975	654.462	-2208.581	C.2	9	GLU9	0.805	
127	 OE1	2139.454	653.771	-2207.685	O.co2	9	GLU9	-0.819	
128	 OE2	2141.095	654.999	-2208.450	O.co2	9	GLU9	-0.819	
129	   H	2135.590	653.047	-2210.791	 H	9	GLU9	0.294	
130	  HA	2137.115	655.272	-2211.719	 H	9	GLU9	0.111	
131	 2HB	2138.003	652.898	-2209.935	 H	9	GLU9	-0.017	
132	 3HB	2137.194	654.337	-2209.354	 H	9	GLU9	-0.017	
133	 2HG	2139.202	655.765	-2210.050	 H	9	GLU9	-0.043	
134	 3HG	2140.020	654.329	-2210.644	 H	9	GLU9	-0.043	
135	   N	2138.270	652.386	-2212.788	N.am	10	HIS10	-0.416	
136	  CA	2139.157	651.874	-2213.829	C.3	10	HIS10	-0.058	
137	   C	2138.791	652.438	-2215.180	C.2	10	HIS10	0.597	
138	   O	2139.643	652.902	-2215.952	O.2	10	HIS10	-0.568	
139	  CB	2138.993	650.345	-2213.823	C.3	10	HIS10	-0.007	
140	  CG	2140.278	649.634	-2213.515	C.2	10	HIS10	0.187	
141	 CD2	2140.660	649.300	-2212.223	C.2	10	HIS10	-0.221	
142	 ND1	2141.230	649.228	-2214.448	N.2	10	HIS10	-0.543	
143	 CE1	2142.136	648.670	-2213.625	C.2	10	HIS10	0.163	
144	 NE2	2141.874	648.667	-2212.289	N.pl3	10	HIS10	-0.280	
145	   H	2137.740	651.751	-2212.209	 H	10	HIS10	0.272	
146	  HA	2140.177	652.231	-2213.604	 H	10	HIS10	0.136	
147	 2HB	2138.627	649.978	-2214.803	 H	10	HIS10	0.037	
148	 3HB	2138.237	650.009	-2213.083	 H	10	HIS10	0.037	
149	 2HD	2140.074	649.516	-2211.333	 H	10	HIS10	0.186	
150	 1HE	2143.027	648.248	-2214.072	 H	10	HIS10	0.144	
151	 2HE	2142.441	648.290	-2211.516	 H	10	HIS10	0.334	
152	   N	2137.553	652.438	-2215.543	N.am	11	VAL11	-0.416	
153	  CA	2137.198	652.983	-2216.850	C.3	11	VAL11	-0.087	
154	   C	2137.663	654.413	-2216.983	C.2	11	VAL11	0.597	
155	   O	2138.264	654.818	-2217.987	O.2	11	VAL11	-0.568	
156	  CB	2135.636	652.877	-2217.069	C.3	11	VAL11	0.299	
157	 CG1	2135.068	653.581	-2218.332	C.3	11	VAL11	-0.319	
158	 CG2	2135.111	651.423	-2217.141	C.3	11	VAL11	-0.319	
159	   H	2136.840	652.066	-2214.932	 H	11	VAL11	0.272	
160	  HA	2137.717	652.400	-2217.632	 H	11	VAL11	0.097	
161	  HB	2135.149	653.358	-2216.194	 H	11	VAL11	-0.030	
162	1HG1	2135.506	653.188	-2219.269	 H	11	VAL11	0.079	
163	2HG1	2133.969	653.474	-2218.414	 H	11	VAL11	0.079	
164	3HG1	2135.247	654.673	-2218.323	 H	11	VAL11	0.079	
165	1HG2	2135.401	650.836	-2216.250	 H	11	VAL11	0.079	
166	2HG2	2134.005	651.387	-2217.184	 H	11	VAL11	0.079	
167	3HG2	2135.492	650.882	-2218.027	 H	11	VAL11	0.079	
168	   N	2137.427	655.240	-2216.021	N.am	12	GLN12	-0.416	
169	  CA	2137.876	656.622	-2216.149	C.3	12	GLN12	-0.003	
170	   C	2139.365	656.689	-2216.387	C.2	12	GLN12	0.597	
171	   O	2139.853	657.396	-2217.267	O.2	12	GLN12	-0.568	
172	  CB	2137.485	657.391	-2214.867	C.3	12	GLN12	-0.004	
173	  CG	2137.847	658.912	-2214.837	C.3	12	GLN12	-0.064	
174	  CD	2137.545	659.727	-2213.572	C.2	12	GLN12	0.695	
175	 NE2	2136.978	659.151	-2212.543	N.pl3	12	GLN12	-0.941	
176	 OE1	2137.848	660.908	-2213.495	O.2	12	GLN12	-0.609	
177	   H	2136.938	654.934	-2215.192	 H	12	GLN12	0.272	
178	  HA	2137.376	657.078	-2217.024	 H	12	GLN12	0.085	
179	 2HB	2137.961	656.891	-2213.997	 H	12	GLN12	0.017	
180	 3HB	2136.395	657.284	-2214.703	 H	12	GLN12	0.017	
181	 2HG	2137.369	659.433	-2215.688	 H	12	GLN12	0.035	
182	 3HG	2138.930	659.054	-2215.003	 H	12	GLN12	0.035	
183	1HE2	2136.872	659.746	-2211.720	 H	12	GLN12	0.425	
184	2HE2	2136.814	658.148	-2212.646	 H	12	GLN12	0.425	
185	   N	2140.150	655.982	-2215.646	N.am	13	GLN13	-0.416	
186	  CA	2141.589	656.046	-2215.877	C.3	13	GLN13	-0.003	
187	   C	2141.928	655.674	-2217.301	C.2	13	GLN13	0.597	
188	   O	2142.699	656.346	-2217.983	O.2	13	GLN13	-0.568	
189	  CB	2142.293	655.103	-2214.876	C.3	13	GLN13	-0.004	
190	  CG	2143.856	655.070	-2214.939	C.3	13	GLN13	-0.064	
191	  CD	2144.621	654.112	-2214.018	C.2	13	GLN13	0.695	
192	 NE2	2143.968	653.347	-2213.181	N.pl3	13	GLN13	-0.941	
193	 OE1	2145.839	654.029	-2214.065	O.2	13	GLN13	-0.609	
194	   H	2139.773	655.393	-2214.918	 H	13	GLN13	0.272	
195	  HA	2141.930	657.085	-2215.712	 H	13	GLN13	0.085	
196	 2HB	2141.906	654.073	-2215.028	 H	13	GLN13	0.017	
197	 3HB	2141.988	655.379	-2213.848	 H	13	GLN13	0.017	
198	 2HG	2144.264	656.085	-2214.774	 H	13	GLN13	0.035	
199	 3HG	2144.194	654.802	-2215.957	 H	13	GLN13	0.035	
200	1HE2	2144.547	652.694	-2212.651	 H	13	GLN13	0.425	
201	2HE2	2142.950	653.415	-2213.240	 H	13	GLN13	0.425	
202	   N	2141.393	654.620	-2217.816	N.am	14	VAL14	-0.416	
203	  CA	2141.721	654.260	-2219.193	C.3	14	VAL14	-0.087	
204	   C	2141.393	655.391	-2220.139	C.2	14	VAL14	0.597	
205	   O	2142.189	655.772	-2221.007	O.2	14	VAL14	-0.568	
206	  CB	2140.948	652.944	-2219.602	C.3	14	VAL14	0.299	
207	 CG1	2141.041	652.525	-2221.095	C.3	14	VAL14	-0.319	
208	 CG2	2141.378	651.691	-2218.801	C.3	14	VAL14	-0.319	
209	   H	2140.756	654.051	-2217.276	 H	14	VAL14	0.272	
210	  HA	2142.809	654.083	-2219.265	 H	14	VAL14	0.097	
211	  HB	2139.872	653.115	-2219.389	 H	14	VAL14	-0.030	
212	1HG1	2142.083	652.348	-2221.422	 H	14	VAL14	0.079	
213	2HG1	2140.468	651.602	-2221.309	 H	14	VAL14	0.079	
214	3HG1	2140.614	653.288	-2221.774	 H	14	VAL14	0.079	
215	1HG2	2141.288	651.850	-2217.710	 H	14	VAL14	0.079	
216	2HG2	2140.742	650.815	-2219.034	 H	14	VAL14	0.079	
217	3HG2	2142.426	651.401	-2219.004	 H	14	VAL14	0.079	
218	   N	2140.249	655.977	-2220.040	N.am	15	MET15	-0.416	
219	  CA	2139.931	657.070	-2220.954	C.3	15	MET15	-0.024	
220	   C	2140.961	658.169	-2220.864	C.2	15	MET15	0.597	
221	   O	2141.467	658.680	-2221.875	O.2	15	MET15	-0.568	
222	  CB	2138.509	657.617	-2220.648	C.3	15	MET15	0.034	
223	  CG	2137.347	656.619	-2220.843	C.3	15	MET15	0.002	
224	  SD	2135.773	657.486	-2220.731	S.3	15	MET15	-0.274	
225	  CE	2134.691	656.057	-2220.597	C.3	15	MET15	-0.054	
226	   H	2139.582	655.685	-2219.340	 H	15	MET15	0.272	
227	  HA	2139.958	656.683	-2221.990	 H	15	MET15	0.088	
228	 2HB	2138.309	658.496	-2221.291	 H	15	MET15	0.024	
229	 3HB	2138.471	658.009	-2219.612	 H	15	MET15	0.024	
230	 2HG	2137.388	655.833	-2220.065	 H	15	MET15	0.044	
231	 3HG	2137.412	656.104	-2221.819	 H	15	MET15	0.044	
232	 1HE	2134.836	655.369	-2221.449	 H	15	MET15	0.068	
233	 2HE	2134.898	655.504	-2219.664	 H	15	MET15	0.068	
234	 3HE	2133.633	656.373	-2220.583	 H	15	MET15	0.068	
235	   N	2141.327	658.590	-2219.700	N.am	16	ARG16	-0.348	
236	  CA	2142.324	659.653	-2219.614	C.3	16	ARG16	-0.264	
237	   C	2143.596	659.260	-2220.327	C.2	16	ARG16	0.734	
238	   O	2143.711	658.184	-2220.908	O.2	16	ARG16	-0.589	
239	  CB	2142.590	659.971	-2218.115	C.3	16	ARG16	-0.001	
240	  CG	2143.415	661.259	-2217.839	C.3	16	ARG16	0.039	
241	  CD	2143.661	661.478	-2216.337	C.3	16	ARG16	0.049	
242	  NE	2144.437	662.736	-2216.134	N.pl3	16	ARG16	-0.530	
243	  CZ	2144.825	663.218	-2214.957	C.cat	16	ARG16	0.808	
244	 NH1	2144.574	662.634	-2213.819	N.pl3	16	ARG16	-0.863	
245	 NH2	2145.490	664.330	-2214.937	N.pl3	16	ARG16	-0.863	
246	   H	2140.930	658.190	-2218.863	 H	16	ARG16	0.275	
247	  HA	2141.917	660.547	-2220.124	 H	16	ARG16	0.156	
248	 2HB	2143.085	659.094	-2217.647	 H	16	ARG16	0.033	
249	 3HB	2141.619	660.052	-2217.583	 H	16	ARG16	0.033	
250	 2HG	2142.886	662.130	-2218.278	 H	16	ARG16	0.029	
251	 3HG	2144.390	661.206	-2218.366	 H	16	ARG16	0.029	
252	 2HD	2144.208	660.603	-2215.923	 H	16	ARG16	0.069	
253	 3HD	2142.686	661.521	-2215.805	 H	16	ARG16	0.069	
254	  HE	2144.718	663.317	-2216.930	 H	16	ARG16	0.346	
255	1HH1	2144.049	661.761	-2213.906	 H	16	ARG16	0.448	
256	2HH1	2144.907	663.068	-2212.958	 H	16	ARG16	0.448	
257	1HH2	2145.678	664.774	-2215.838	 H	16	ARG16	0.448	
258	2HH2	2145.778	664.685	-2214.023	 H	16	ARG16	0.448	
@<TRIPOS>BOND
1 1 2 1
2 1 10 1
3 2 3 1
4 2 5 1
5 2 11 1
6 3 4 2
7 3 16 1
8 5 6 1
9 6 7 1
10 7 8 2
11 7 9 1
12 5 12 1
13 5 13 1
14 6 14 1
15 6 15 1
16 16 17 1
17 16 24 1
18 17 18 1
19 17 20 1
20 17 25 1
21 18 19 2
22 18 30 1
23 20 21 1
24 21 22 1
25 21 23 2
26 20 26 1
27 20 27 1
28 22 28 1
29 22 29 1
30 30 31 1
31 30 36 1
32 31 32 1
33 31 34 1
34 31 37 1
35 32 33 2
36 32 44 1
37 34 35 1
38 35 36 1
39 34 38 1
40 34 39 1
41 35 40 1
42 35 41 1
43 36 42 1
44 36 43 1
45 44 45 1
46 44 53 1
47 45 46 1
48 45 48 1
49 45 54 1
50 46 47 2
51 46 59 1
52 48 49 1
53 49 50 1
54 50 51 2
55 50 52 1
56 48 55 1
57 48 56 1
58 49 57 1
59 49 58 1
60 59 60 1
61 59 65 1
62 60 61 1
63 60 63 1
64 60 66 1
65 61 62 2
66 61 70 1
67 63 64 1
68 63 67 1
69 63 68 1
70 64 69 1
71 70 71 1
72 70 78 1
73 71 72 1
74 71 74 1
75 71 79 1
76 72 73 2
77 72 89 1
78 74 75 1
79 74 76 1
80 75 77 1
81 74 80 1
82 75 81 1
83 75 82 1
84 76 83 1
85 76 84 1
86 76 85 1
87 77 86 1
88 77 87 1
89 77 88 1
90 89 90 1
91 89 97 1
92 90 91 1
93 90 93 1
94 90 98 1
95 91 92 2
96 91 108 1
97 93 94 1
98 94 95 1
99 94 96 1
100 93 99 1
101 93 100 1
102 94 101 1
103 95 102 1
104 95 103 1
105 95 104 1
106 96 105 1
107 96 106 1
108 96 107 1
109 108 109 1
110 108 116 1
111 109 110 1
112 109 112 1
113 109 117 1
114 110 111 2
115 110 120 1
116 112 113 1
117 113 114 2
118 113 115 1
119 112 118 1
120 112 119 1
121 120 121 1
122 120 129 1
123 121 122 1
124 121 124 1
125 121 130 1
126 122 123 2
127 122 135 1
128 124 125 1
129 125 126 1
130 126 127 2
131 126 128 1
132 124 131 1
133 124 132 1
134 125 133 1
135 125 134 1
136 135 136 1
137 135 145 1
138 136 137 1
139 136 139 1
140 136 146 1
141 137 138 2
142 137 152 1
143 139 140 1
144 140 141 2
145 141 144 1
146 140 142 1
147 142 143 2
148 143 144 1
149 139 147 1
150 139 148 1
151 141 149 1
152 143 150 1
153 144 151 1
154 152 153 1
155 152 159 1
156 153 154 1
157 153 156 1
158 153 160 1
159 154 155 2
160 154 168 1
161 156 157 1
162 156 158 1
163 156 161 1
164 157 162 1
165 157 163 1
166 157 164 1
167 158 165 1
168 158 166 1
169 158 167 1
170 168 169 1
171 168 177 1
172 169 170 1
173 169 172 1
174 169 178 1
175 170 171 2
176 170 185 1
177 172 173 1
178 173 174 1
179 174 175 1
180 174 176 2
181 172 179 1
182 172 180 1
183 173 181 1
184 173 182 1
185 175 183 1
186 175 184 1
187 185 186 1
188 185 194 1
189 186 187 1
190 186 189 1
191 186 195 1
192 187 188 2
193 187 202 1
194 189 190 1
195 190 191 1
196 191 192 1
197 191 193 2
198 189 196 1
199 189 197 1
200 190 198 1
201 190 199 1
202 192 200 1
203 192 201 1
204 202 203 1
205 202 209 1
206 203 204 1
207 203 206 1
208 203 210 1
209 204 205 2
210 204 218 1
211 206 207 1
212 206 208 1
213 206 211 1
214 207 212 1
215 207 213 1
216 207 214 1
217 208 215 1
218 208 216 1
219 208 217 1
220 218 219 1
221 218 226 1
222 219 220 1
223 219 222 1
224 219 227 1
225 220 221 2
226 220 235 1
227 222 223 1
228 223 224 1
229 224 225 1
230 222 228 1
231 222 229 1
232 223 230 1
233 223 231 1
234 225 232 1
235 225 233 1
236 225 234 1
237 235 236 1
238 235 246 1
239 236 237 1
240 236 239 1
241 236 247 1
242 237 238 2
243 239 240 1
244 240 241 1
245 241 242 1
246 242 243 1
247 243 244 2
248 243 245 1
249 239 248 1
250 239 249 1
251 240 250 1
252 240 251 1
253 241 252 1
254 241 253 1
255 242 254 1
256 244 255 1
257 244 256 1
258 245 257 1
259 245 258 1
@<TRIPOS>SUBSTRUCTURE
1	GLU1	1	RESIDUE	1 ****	GLU
2	ASN2	16	RESIDUE	1 ****	ASN
3	PRO3	30	RESIDUE	1 ****	PRO
4	GLU4	44	RESIDUE	1 ****	GLU
5	SER5	59	RESIDUE	1 ****	SER
6	ILE6	70	RESIDUE	1 ****	ILE
7	LEU7	89	RESIDUE	1 ****	LEU
8	ASP8	108	RESIDUE	1 ****	ASP
9	GLU9	120	RESIDUE	1 ****	GLU
10	HIS10	135	RESIDUE	1 ****	HIS
11	VAL11	152	RESIDUE	1 ****	VAL
12	GLN12	168	RESIDUE	1 ****	GLN
13	GLN13	185	RESIDUE	1 ****	GLN
14	VAL14	202	RESIDUE	1 ****	VAL
15	MET15	218	RESIDUE	1 ****	MET
16	ARG16	235	RESIDUE	1 ****	ARG
