REMARK WARNING: 32 MAX_TORS EXCEEDED!!!
REMARK  67 active torsions:
REMARK  status: ('A' for Active; 'I' for Inactive)
REMARK    1  A    between atoms: N_1  and  CA_2 
REMARK    2  A    between atoms: CA_2  and  C_3 
REMARK    3  A    between atoms: CA_2  and  CB_5 
REMARK       I    between atoms: C_3  and  N_11 
REMARK    4  A    between atoms: CB_5  and  CG_6 
REMARK    5  A    between atoms: CG_6  and  CD_7 
REMARK    6  A    between atoms: N_11  and  CA_12 
REMARK    7  A    between atoms: CA_12  and  C_13 
REMARK    8  A    between atoms: CA_12  and  CB_15 
REMARK       I    between atoms: C_13  and  N_22 
REMARK    9  A    between atoms: CB_15  and  CG_16 
REMARK       I    between atoms: CG_16  and  ND2_17 
REMARK   10  A    between atoms: CA_23  and  C_24 
REMARK       I    between atoms: C_24  and  N_29 
REMARK   11  A    between atoms: N_29  and  CA_30 
REMARK   12  A    between atoms: CA_30  and  C_31 
REMARK   13  A    between atoms: CA_30  and  CB_33 
REMARK       I    between atoms: C_31  and  N_39 
REMARK   14  A    between atoms: CB_33  and  CG_34 
REMARK   15  A    between atoms: CG_34  and  CD_35 
REMARK   16  A    between atoms: N_39  and  CA_40 
REMARK   17  A    between atoms: CA_40  and  C_41 
REMARK   18  A    between atoms: CA_40  and  CB_43 
REMARK       I    between atoms: C_41  and  N_47 
REMARK   19  A    between atoms: CB_43  and  OG_44 
REMARK   20  A    between atoms: N_47  and  CA_48 
REMARK   21  A    between atoms: CA_48  and  C_49 
REMARK   22  A    between atoms: CA_48  and  CB_51 
REMARK       I    between atoms: C_49  and  N_56 
REMARK   23  A    between atoms: CB_51  and  CG1_52 
REMARK   24  A    between atoms: N_56  and  CA_57 
REMARK   25  A    between atoms: CA_57  and  C_58 
REMARK   26  A    between atoms: CA_57  and  CB_60 
REMARK       I    between atoms: C_58  and  N_65 
REMARK   27  A    between atoms: CB_60  and  CG_61 
REMARK   28  A    between atoms: N_65  and  CA_66 
REMARK   29  A    between atoms: CA_66  and  C_67 
REMARK   30  A    between atoms: CA_66  and  CB_69 
REMARK       I    between atoms: C_67  and  N_74 
REMARK   31  A    between atoms: CB_69  and  CG_70 
REMARK   32  A    between atoms: N_74  and  CA_75 
REMARK   33  A    between atoms: CA_75  and  C_76 
REMARK   34  A    between atoms: CA_75  and  CB_78 
REMARK       I    between atoms: C_76  and  N_84 
REMARK   35  A    between atoms: CB_78  and  CG_79 
REMARK   36  A    between atoms: CG_79  and  CD_80 
REMARK   37  A    between atoms: N_84  and  CA_85 
REMARK   38  A    between atoms: CA_85  and  C_86 
REMARK   39  A    between atoms: CA_85  and  CB_88 
REMARK       I    between atoms: C_86  and  N_96 
REMARK   40  A    between atoms: CB_88  and  CG_89 
REMARK   41  A    between atoms: N_96  and  CA_97 
REMARK   42  A    between atoms: CA_97  and  C_98 
REMARK   43  A    between atoms: CA_97  and  CB_100 
REMARK       I    between atoms: C_98  and  N_104 
REMARK   44  A    between atoms: N_104  and  CA_105 
REMARK   45  A    between atoms: CA_105  and  C_106 
REMARK   46  A    between atoms: CA_105  and  CB_108 
REMARK       I    between atoms: C_106  and  N_116 
REMARK   47  A    between atoms: CB_108  and  CG_109 
REMARK   48  A    between atoms: CG_109  and  CD_110 
REMARK       I    between atoms: CD_110  and  NE2_111 
REMARK   49  A    between atoms: N_116  and  CA_117 
REMARK   50  A    between atoms: CA_117  and  C_118 
REMARK   51  A    between atoms: CA_117  and  CB_120 
REMARK       I    between atoms: C_118  and  N_133 
REMARK   52  A    between atoms: CB_120  and  CG_121 
REMARK   53  A    between atoms: CG_121  and  CD_122 
REMARK   54  A    between atoms: CD_122  and  NE_123 
REMARK       I    between atoms: NE_123  and  CZ_124 
REMARK       I    between atoms: CZ_124  and  NH1_125 
REMARK   55  A    between atoms: N_133  and  CA_134 
REMARK   56  A    between atoms: CA_134  and  C_135 
REMARK   57  A    between atoms: CA_134  and  CB_137 
REMARK       I    between atoms: C_135  and  N_141 
REMARK   58  A    between atoms: N_141  and  CA_142 
REMARK   59  A    between atoms: CA_142  and  C_143 
REMARK   60  A    between atoms: CA_142  and  CB_145 
REMARK       I    between atoms: C_143  and  N_150 
REMARK   61  A    between atoms: CB_145  and  CG_146 
REMARK   62  A    between atoms: CG_146  and  SD_147 
REMARK   63  A    between atoms: N_150  and  CA_151 
REMARK   64  A    between atoms: CA_151  and  C_152 
REMARK   65  A    between atoms: CA_151  and  CB_154 
REMARK   66  A    between atoms: CB_154  and  CG_155 
REMARK   67  A    between atoms: CG_155  and  CD_156 
ROOT
ATOM      1  CA  GLU d   9    2642.539 813.309-2761.608  0.00  0.00     0.177 C 
ENDROOT
BRANCH   1   2
ATOM      2  N   GLU d   9    2641.236 812.652-2761.663  0.00  0.00    -0.346 N 
ATOM      3  C   ASP d   8    2640.556 812.701-2762.758  0.00  0.00     0.241 C 
ATOM      4  O   ASP d   8    2641.029 813.305-2763.733  0.00  0.00    -0.271 OA
ATOM      5  H   GLU d   9    2640.872 812.166-2760.855  0.00  0.00     0.163 HD
BRANCH   3   6
ATOM      6  CA  ASP d   8    2639.208 812.022-2762.815  0.00  0.00     0.186 C 
BRANCH   6   7
ATOM      7  N   ASP d   8    2639.278 810.673-2762.261  0.00  0.00    -0.346 N 
ATOM      8  C   LEU d   7    2640.115 809.832-2762.767  0.00  0.00     0.241 C 
ATOM      9  O   LEU d   7    2640.836 810.193-2763.709  0.00  0.00    -0.271 OA
ATOM     10  H   ASP d   8    2638.680 810.403-2761.493  0.00  0.00     0.163 HD
BRANCH   8  11
ATOM     11  CA  LEU d   7    2640.187 808.436-2762.194  0.00  0.00     0.177 C 
BRANCH  11  12
ATOM     12  N   LEU d   7    2640.242 808.473-2760.735  0.00  0.00    -0.346 N 
ATOM     13  C   ILE d   6    2641.188 809.136-2760.162  0.00  0.00     0.241 C 
ATOM     14  O   ILE d   6    2642.023 809.723-2760.865  0.00  0.00    -0.271 OA
ATOM     15  H   LEU d   7    2639.550 807.986-2760.184  0.00  0.00     0.163 HD
BRANCH  13  16
ATOM     16  CA  ILE d   6    2641.245 809.173-2758.654  0.00  0.00     0.180 C 
BRANCH  16  17
ATOM     17  N   ILE d   6    2639.932 809.469-2758.088  0.00  0.00    -0.346 N 
ATOM     18  C   SER d   5    2639.328 810.552-2758.442  0.00  0.00     0.243 C 
ATOM     19  O   SER d   5    2639.876 811.306-2759.247  0.00  0.00    -0.271 OA
ATOM     20  H   ILE d   6    2639.503 808.835-2757.429  0.00  0.00     0.163 HD
BRANCH  18  21
ATOM     21  CA  SER d   5    2637.969 810.858-2757.857  0.00  0.00     0.200 C 
BRANCH  21  22
ATOM     22  N   SER d   5    2637.099 809.687-2757.916  0.00  0.00    -0.344 N 
ATOM     23  C   GLU d   4    2636.872 809.135-2759.059  0.00  0.00     0.241 C 
ATOM     24  O   GLU d   4    2637.399 809.614-2760.073  0.00  0.00    -0.271 OA
ATOM     25  H   SER d   5    2636.682 809.316-2757.074  0.00  0.00     0.163 HD
BRANCH  23  26
ATOM     26  CA  GLU d   4    2635.973 807.924-2759.121  0.00  0.00     0.177 C 
BRANCH  26  27
ATOM     27  N   GLU d   4    2636.332 806.953-2758.091  0.00  0.00    -0.346 N 
ATOM     28  C   PRO d   3    2637.537 806.493-2758.058  0.00  0.00     0.241 C 
ATOM     29  O   PRO d   3    2638.360 806.876-2758.889  0.00  0.00    -0.271 OA
ATOM     30  H   GLU d   4    2635.647 806.646-2757.414  0.00  0.00     0.163 HD
BRANCH  28  31
ATOM     31  CA  PRO d   3    2637.935 805.469-2756.981  0.00  0.00     0.179 C 
ATOM     32  N   PRO d   3    2637.482 805.878-2755.660  0.00  0.00    -0.337 N 
ATOM     33  C   ASN d   2    2638.004 806.873-2755.025  0.00  0.00     0.243 C 
ATOM     34  CD  PRO d   3    2636.404 805.085-2755.111  0.00  0.00     0.127 C 
ATOM     35  O   ASN d   2    2638.919 807.503-2755.553  0.00  0.00    -0.271 OA
ATOM     36  CG  PRO d   3    2635.947 804.267-2756.321  0.00  0.00     0.022 C 
ATOM     37  CB  PRO d   3    2637.230 804.114-2757.151  0.00  0.00     0.037 C 
BRANCH  33  38
ATOM     38  CA  ASN d   2    2637.472 807.229-2753.657  0.00  0.00     0.185 C 
BRANCH  38  39
ATOM     39  N   ASN d   2    2636.013 807.268-2753.657  0.00  0.00    -0.346 N 
ATOM     40  C   GLU d   1    2635.409 808.054-2754.482  0.00  0.00     0.242 C 
ATOM     41  O   GLU d   1    2636.084 808.753-2755.251  0.00  0.00    -0.271 OA
ATOM     42  H   ASN d   2    2635.485 806.688-2753.021  0.00  0.00     0.163 HD
BRANCH  40  43
ATOM     43  CA  GLU d   1    2633.900 808.094-2754.482  0.00  0.00     0.191 C 
BRANCH  43  44
ATOM     44  N   GLU d   1    2633.341 806.745-2754.482  0.00  0.00    -0.326 NA
ATOM     45  H   GLU d   1    2633.968 805.866-2754.482  0.00  0.00     0.180 HD
ENDBRANCH  43  44
BRANCH  43  46
ATOM     46  CB  GLU d   1    2633.376 808.879-2753.245  0.00  0.00     0.047 C 
BRANCH  46  47
ATOM     47  CG  GLU d   1    2633.852 810.364-2753.134  0.00  0.00     0.116 C 
BRANCH  47  48
ATOM     48  CD  GLU d   1    2633.427 811.168-2751.919  0.00  0.00     0.172 C 
ATOM     49  OE1 GLU d   1    2632.699 810.666-2751.041  0.00  0.00    -0.648 OA
ATOM     50  OE2 GLU d   1    2633.858 812.338-2751.847  0.00  0.00    -0.648 OA
ENDBRANCH  47  48
ENDBRANCH  46  47
ENDBRANCH  43  46
ENDBRANCH  40  43
ENDBRANCH  38  39
BRANCH  38  51
ATOM     51  CB  ASN d   2    2637.964 806.206-2752.592  0.00  0.00     0.137 C 
BRANCH  51  52
ATOM     52  CG  ASN d   2    2637.501 806.430-2751.149  0.00  0.00     0.217 C 
ATOM     53  ND2 ASN d   2    2638.095 807.344-2750.431  0.00  0.00    -0.370 N 
ATOM     54 21HD ASN d   2    2637.614 807.518-2749.544  0.00  0.00     0.159 HD
ATOM     55 22HD ASN d   2    2638.797 807.916-2750.900  0.00  0.00     0.159 HD
ATOM     56  OD1 ASN d   2    2636.580 805.796-2750.655  0.00  0.00    -0.274 OA
ENDBRANCH  51  52
ENDBRANCH  38  51
ENDBRANCH  33  38
ENDBRANCH  28  31
ENDBRANCH  26  27
BRANCH  26  57
ATOM     57  CB  GLU d   4    2634.484 808.343-2758.951  0.00  0.00     0.045 C 
BRANCH  57  58
ATOM     58  CG  GLU d   4    2633.937 809.347-2760.017  0.00  0.00     0.116 C 
BRANCH  58  59
ATOM     59  CD  GLU d   4    2632.510 809.844-2759.874  0.00  0.00     0.172 C 
ATOM     60  OE1 GLU d   4    2631.784 809.445-2758.943  0.00  0.00    -0.648 OA
ATOM     61  OE2 GLU d   4    2632.122 810.673-2760.722  0.00  0.00    -0.648 OA
ENDBRANCH  58  59
ENDBRANCH  57  58
ENDBRANCH  26  57
ENDBRANCH  23  26
ENDBRANCH  21  22
BRANCH  21  62
ATOM     62  CB  SER d   5    2638.080 811.390-2756.406  0.00  0.00     0.199 C 
BRANCH  62  63
ATOM     63  OG  SER d   5    2638.811 810.511-2755.545  0.00  0.00    -0.398 OA
ATOM     64  HG  SER d   5    2638.322 809.686-2755.495  0.00  0.00     0.209 HD
ENDBRANCH  62  63
ENDBRANCH  21  62
ENDBRANCH  18  21
ENDBRANCH  16  17
BRANCH  16  65
ATOM     65  CB  ILE d   6    2641.844 807.837-2758.053  0.00  0.00     0.013 C 
ATOM     66  CG2 ILE d   6    2643.286 807.535-2758.569  0.00  0.00     0.012 C 
BRANCH  65  67
ATOM     67  CG1 ILE d   6    2641.863 807.775-2756.493  0.00  0.00     0.002 C 
ATOM     68  CD1 ILE d   6    2642.133 806.385-2755.877  0.00  0.00     0.005 C 
ENDBRANCH  65  67
ENDBRANCH  16  65
ENDBRANCH  13  16
ENDBRANCH  11  12
BRANCH  11  69
ATOM     69  CB  LEU d   7    2638.984 807.577-2762.674  0.00  0.00     0.038 C 
BRANCH  69  70
ATOM     70  CG  LEU d   7    2638.911 806.097-2762.208  0.00  0.00    -0.020 C 
ATOM     71  CD1 LEU d   7    2637.721 805.392-2762.873  0.00  0.00     0.009 C 
ATOM     72  CD2 LEU d   7    2640.204 805.318-2762.499  0.00  0.00     0.009 C 
ENDBRANCH  69  70
ENDBRANCH  11  69
ENDBRANCH   8  11
ENDBRANCH   6   7
BRANCH   6  73
ATOM     73  CB  ASP d   8    2638.131 812.862-2762.074  0.00  0.00     0.147 C 
BRANCH  73  74
ATOM     74  CG  ASP d   8    2637.913 814.283-2762.615  0.00  0.00     0.175 C 
ATOM     75  OD1 ASP d   8    2637.977 814.481-2763.846  0.00  0.00    -0.648 OA
ATOM     76  OD2 ASP d   8    2637.721 815.209-2761.800  0.00  0.00    -0.648 OA
ENDBRANCH  73  74
ENDBRANCH   6  73
ENDBRANCH   3   6
ENDBRANCH   1   2
BRANCH   1  77
ATOM     77  C   GLU d   9    2643.456 812.780-2762.684  0.00  0.00     0.241 C 
ATOM     78  O   GLU d   9    2644.120 813.534-2763.410  0.00  0.00    -0.271 OA
ATOM     79  N   HIS d  10    2643.552 811.505-2762.853  0.00  0.00    -0.346 N 
ATOM     80  H   HIS d  10    2643.021 810.870-2762.274  0.00  0.00     0.163 HD
BRANCH  79  81
ATOM     81  CA  HIS d  10    2644.439 810.992-2763.893  0.00  0.00     0.182 C 
BRANCH  81  82
ATOM     82  C   HIS d  10    2644.073 811.557-2765.245  0.00  0.00     0.241 C 
ATOM     83  O   HIS d  10    2644.925 812.021-2766.017  0.00  0.00    -0.271 OA
ATOM     84  N   VAL d  11    2642.835 811.556-2765.607  0.00  0.00    -0.346 N 
ATOM     85  H   VAL d  11    2642.122 811.184-2764.997  0.00  0.00     0.163 HD
BRANCH  84  86
ATOM     86  CA  VAL d  11    2642.479 812.102-2766.915  0.00  0.00     0.180 C 
BRANCH  86  87
ATOM     87  C   VAL d  11    2642.945 813.532-2767.048  0.00  0.00     0.241 C 
ATOM     88  O   VAL d  11    2643.546 813.936-2768.051  0.00  0.00    -0.271 OA
ATOM     89  N   GLN d  12    2642.708 814.358-2766.086  0.00  0.00    -0.346 N 
ATOM     90  H   GLN d  12    2642.220 814.053-2765.256  0.00  0.00     0.163 HD
BRANCH  89  91
ATOM     91  CA  GLN d  12    2643.158 815.741-2766.214  0.00  0.00     0.177 C 
BRANCH  91  92
ATOM     92  C   GLN d  12    2644.647 815.807-2766.452  0.00  0.00     0.241 C 
ATOM     93  O   GLN d  12    2645.135 816.515-2767.331  0.00  0.00    -0.271 OA
ATOM     94  N   ARG d  13    2645.432 815.101-2765.711  0.00  0.00    -0.346 N 
ATOM     95  H   ARG d  13    2645.056 814.511-2764.982  0.00  0.00     0.163 HD
BRANCH  94  96
ATOM     96  CA  ARG d  13    2646.872 815.166-2765.942  0.00  0.00     0.176 C 
BRANCH  96  97
ATOM     97  C   ARG d  13    2647.208 814.793-2767.367  0.00  0.00     0.241 C 
ATOM     98  O   ARG d  13    2647.977 815.464-2768.052  0.00  0.00    -0.271 OA
ATOM     99  N   VAL d  14    2646.671 813.739-2767.880  0.00  0.00    -0.346 N 
ATOM    100  H   VAL d  14    2646.036 813.170-2767.338  0.00  0.00     0.163 HD
BRANCH  99 101
ATOM    101  CA  VAL d  14    2646.996 813.378-2769.258  0.00  0.00     0.180 C 
BRANCH 101 102
ATOM    102  C   VAL d  14    2646.666 814.508-2770.204  0.00  0.00     0.241 C 
ATOM    103  O   VAL d  14    2647.459 814.889-2771.073  0.00  0.00    -0.271 OA
ATOM    104  N   MET d  15    2645.521 815.094-2770.102  0.00  0.00    -0.346 N 
ATOM    105  H   MET d  15    2644.856 814.802-2769.400  0.00  0.00     0.163 HD
BRANCH 104 106
ATOM    106  CA  MET d  15    2645.201 816.187-2771.016  0.00  0.00     0.177 C 
BRANCH 106 107
ATOM    107  C   MET d  15    2646.231 817.287-2770.929  0.00  0.00     0.241 C 
ATOM    108  O   MET d  15    2646.734 817.797-2771.942  0.00  0.00    -0.271 OA
ATOM    109  N   GLU d  16    2646.600 817.708-2769.767  0.00  0.00    -0.347 N 
ATOM    110  H   GLU d  16    2646.206 817.308-2768.927  0.00  0.00     0.163 HD
BRANCH 109 111
ATOM    111  CA  GLU d  16    2647.597 818.772-2769.683  0.00  0.00     0.163 C 
BRANCH 111 112
ATOM    112  C   GLU d  16    2648.867 818.380-2770.398  0.00  0.00     0.219 C 
ATOM    113  O   GLU d  16    2648.991 817.286-2770.965  0.00  0.00    -0.287 OA
ENDBRANCH 111 112
BRANCH 111 114
ATOM    114  CB  GLU d  16    2647.892 819.099-2768.191  0.00  0.00     0.044 C 
BRANCH 114 115
ATOM    115  CG  GLU d  16    2648.908 820.259-2767.939  0.00  0.00     0.116 C 
BRANCH 115 116
ATOM    116  CD  GLU d  16    2649.287 820.588-2766.507  0.00  0.00     0.172 C 
ATOM    117  OE1 GLU d  16    2648.784 819.965-2765.552  0.00  0.00    -0.648 OA
ATOM    118  OE2 GLU d  16    2650.130 821.495-2766.348  0.00  0.00    -0.648 OA
ENDBRANCH 115 116
ENDBRANCH 114 115
ENDBRANCH 111 114
ENDBRANCH 109 111
ENDBRANCH 106 107
BRANCH 106 119
ATOM    119  CB  MET d  15    2643.780 816.732-2770.707  0.00  0.00     0.045 C 
BRANCH 119 120
ATOM    120  CG  MET d  15    2642.617 815.735-2770.898  0.00  0.00     0.076 C 
BRANCH 120 121
ATOM    121  SD  MET d  15    2641.044 816.601-2770.784  0.00  0.00    -0.173 SA
ATOM    122  CE  MET d  15    2639.963 815.171-2770.646  0.00  0.00     0.089 C 
ENDBRANCH 120 121
ENDBRANCH 119 120
ENDBRANCH 106 119
ENDBRANCH 104 106
ENDBRANCH 101 102
BRANCH 101 123
ATOM    123  CB  VAL d  14    2646.223 812.061-2769.664  0.00  0.00     0.009 C 
ATOM    124  CG1 VAL d  14    2646.312 811.642-2771.157  0.00  0.00     0.012 C 
ATOM    125  CG2 VAL d  14    2646.655 810.809-2768.863  0.00  0.00     0.012 C 
ENDBRANCH 101 123
ENDBRANCH  99 101
ENDBRANCH  96  97
BRANCH  96 126
ATOM    126  CB  ARG d  13    2647.585 814.227-2764.927  0.00  0.00     0.036 C 
BRANCH 126 127
ATOM    127  CG  ARG d  13    2649.131 814.380-2764.847  0.00  0.00     0.023 C 
BRANCH 127 128
ATOM    128  CD  ARG d  13    2649.758 813.393-2763.849  0.00  0.00     0.138 C 
BRANCH 128 129
ATOM    129  NE  ARG d  13    2651.235 813.600-2763.799  0.00  0.00    -0.227 N 
ATOM    130  CZ  ARG d  13    2652.083 812.909-2763.043  0.00  0.00     0.665 C 
ATOM    131  NH1 ARG d  13    2651.718 811.945-2762.245  0.00  0.00    -0.235 N 
ATOM    132  NH2 ARG d  13    2653.343 813.207-2763.101  0.00  0.00    -0.235 N 
ATOM    133 11HH ARG d  13    2650.712 811.759-2762.248  0.00  0.00     0.174 HD
ATOM    134 12HH ARG d  13    2652.431 811.462-2761.696  0.00  0.00     0.174 HD
ATOM    135 21HH ARG d  13    2653.610 813.965-2763.733  0.00  0.00     0.174 HD
ATOM    136 22HH ARG d  13    2653.978 812.666-2762.512  0.00  0.00     0.174 HD
ATOM    137  HE  ARG d  13    2651.686 814.321-2764.370  0.00  0.00     0.177 HD
ENDBRANCH 128 129
ENDBRANCH 127 128
ENDBRANCH 126 127
ENDBRANCH  96 126
ENDBRANCH  94  96
ENDBRANCH  91  92
BRANCH  91 138
ATOM    138  CB  GLN d  12    2642.767 816.509-2764.931  0.00  0.00     0.044 C 
BRANCH 138 139
ATOM    139  CG  GLN d  12    2643.129 818.031-2764.901  0.00  0.00     0.105 C 
BRANCH 139 140
ATOM    140  CD  GLN d  12    2642.827 818.845-2763.637  0.00  0.00     0.215 C 
ATOM    141  NE2 GLN d  12    2642.260 818.270-2762.607  0.00  0.00    -0.370 N 
ATOM    142 21HE GLN d  12    2642.154 818.865-2761.784  0.00  0.00     0.159 HD
ATOM    143 22HE GLN d  12    2642.096 817.266-2762.710  0.00  0.00     0.159 HD
ATOM    144  OE1 GLN d  12    2643.130 820.026-2763.560  0.00  0.00    -0.274 OA
ENDBRANCH 139 140
ENDBRANCH 138 139
ENDBRANCH  91 138
ENDBRANCH  89  91
ENDBRANCH  86  87
BRANCH  86 145
ATOM    145  CB  VAL d  11    2640.918 811.996-2767.134  0.00  0.00     0.009 C 
ATOM    146  CG1 VAL d  11    2640.350 812.699-2768.396  0.00  0.00     0.012 C 
ATOM    147  CG2 VAL d  11    2640.393 810.542-2767.206  0.00  0.00     0.012 C 
ENDBRANCH  86 145
ENDBRANCH  84  86
ENDBRANCH  81  82
BRANCH  81 148
ATOM    148  CB  HIS d  10    2644.275 809.464-2763.888  0.00  0.00     0.095 C 
BRANCH 148 149
ATOM    149  CG  HIS d  10    2645.560 808.753-2763.580  0.00  0.00     0.053 A 
ATOM    150  CD2 HIS d  10    2645.942 808.418-2762.287  0.00  0.00     0.116 A 
ATOM    151  NE2 HIS d  10    2647.156 807.786-2762.354  0.00  0.00    -0.359 N 
ATOM    152  CE1 HIS d  10    2647.418 807.788-2763.689  0.00  0.00     0.207 A 
ATOM    153  2HE HIS d  10    2647.723 807.409-2761.581  0.00  0.00     0.166 HD
ATOM    154  ND1 HIS d  10    2646.512 808.346-2764.512  0.00  0.00    -0.247 NA
ENDBRANCH 148 149
ENDBRANCH  81 148
ENDBRANCH  79  81
ENDBRANCH   1  77
BRANCH   1 155
ATOM    155  CB  GLU d   9    2643.172 813.101-2760.203  0.00  0.00     0.045 C 
BRANCH 155 156
ATOM    156  CG  GLU d   9    2644.555 813.793-2759.974  0.00  0.00     0.116 C 
BRANCH 156 157
ATOM    157  CD  GLU d   9    2645.257 813.580-2758.646  0.00  0.00     0.172 C 
ATOM    158  OE1 GLU d   9    2644.736 812.890-2757.749  0.00  0.00    -0.648 OA
ATOM    159  OE2 GLU d   9    2646.377 814.118-2758.515  0.00  0.00    -0.648 OA
ENDBRANCH 156 157
ENDBRANCH 155 156
ENDBRANCH   1 155
TORSDOF 67
