@<TRIPOS>MOLECULE
2-13
262 263 16              
SMALL
USER_CHARGES
@<TRIPOS>ATOM
1	   N	272.670	55.206	-248.726	N.3	1	GLU1	-0.516	
2	  CA	273.229	56.555	-248.726	C.3	1	GLU1	0.040	
3	   C	274.738	56.515	-248.726	C.2	1	GLU1	0.537	
4	   O	275.414	57.215	-249.494	O.2	1	GLU1	-0.582	
5	  CB	272.706	57.340	-247.489	C.3	1	GLU1	0.056	
6	  CG	273.181	58.825	-247.378	C.3	1	GLU1	0.014	
7	  CD	272.757	59.629	-246.163	C.2	1	GLU1	0.805	
8	 OE1	272.029	59.127	-245.285	O.co2	1	GLU1	-0.819	
9	 OE2	273.187	60.799	-246.091	O.co2	1	GLU1	-0.819	
10	   H	273.297	54.327	-248.726	 H	1	GLU1	0.294	
11	  HA	272.903	57.073	-249.646	 H	1	GLU1	0.111	
12	 2HB	272.995	56.809	-246.559	 H	1	GLU1	-0.017	
13	 3HB	271.599	57.330	-247.476	 H	1	GLU1	-0.017	
14	 2HG	272.871	59.410	-248.259	 H	1	GLU1	-0.043	
15	 3HG	274.281	58.892	-247.349	 H	1	GLU1	-0.043	
16	   N	275.342	55.730	-247.901	N.am	2	SER2	-0.416	
17	  CA	276.802	55.691	-247.901	C.3	2	SER2	-0.025	
18	   C	277.333	55.336	-249.270	C.2	2	SER2	0.597	
19	   O	278.248	55.968	-249.798	O.2	2	SER2	-0.568	
20	  CB	277.329	54.719	-246.816	C.3	2	SER2	0.212	
21	  OG	277.057	53.347	-247.119	O.3	2	SER2	-0.655	
22	   H	274.814	55.150	-247.264	 H	2	SER2	0.272	
23	  HA	277.170	56.708	-247.669	 H	2	SER2	0.084	
24	 2HB	276.913	54.967	-245.821	 H	2	SER2	0.035	
25	 3HB	278.424	54.842	-246.705	 H	2	SER2	0.035	
26	  HG	276.103	53.240	-247.139	 H	2	SER2	0.428	
27	   N	276.812	54.341	-249.904	N.am	3	PRO3	-0.255	
28	  CA	277.264	53.932	-251.226	C.3	3	PRO3	-0.027	
29	   C	276.866	54.956	-252.303	C.2	3	PRO3	0.590	
30	   O	277.689	55.340	-253.134	O.2	3	PRO3	-0.575	
31	  CB	276.561	52.577	-251.396	C.3	3	PRO3	-0.007	
32	  CG	275.278	52.728	-250.566	C.3	3	PRO3	0.019	
33	  CD	275.735	53.547	-249.356	C.3	3	PRO3	0.019	
34	  HA	278.350	53.813	-251.240	 H	3	PRO3	0.064	
35	 2HB	277.184	51.796	-250.955	 H	3	PRO3	0.025	
36	 3HB	276.363	52.329	-252.441	 H	3	PRO3	0.025	
37	 2HG	274.851	51.766	-250.275	 H	3	PRO3	0.021	
38	 3HG	274.540	53.299	-251.133	 H	3	PRO3	0.021	
39	 2HD	276.124	52.897	-248.568	 H	3	PRO3	0.039	
40	 3HD	274.938	54.182	-248.962	 H	3	PRO3	0.039	
41	   N	275.661	55.415	-252.335	N.am	4	GLU4	-0.516	
42	  CA	275.300	56.386	-253.364	C.3	4	GLU4	0.040	
43	   C	276.198	57.598	-253.303	C.2	4	GLU4	0.537	
44	   O	276.725	58.078	-254.317	O.2	4	GLU4	-0.582	
45	  CB	273.812	56.804	-253.194	C.3	4	GLU4	0.056	
46	  CG	273.263	57.807	-254.260	C.3	4	GLU4	0.014	
47	  CD	271.836	58.303	-254.116	C.2	4	GLU4	0.805	
48	 OE1	271.110	57.904	-253.185	O.co2	4	GLU4	-0.819	
49	 OE2	271.446	59.132	-254.964	O.co2	4	GLU4	-0.819	
50	   H	274.977	55.108	-251.658	 H	4	GLU4	0.294	
51	  HA	275.432	55.916	-254.356	 H	4	GLU4	0.111	
52	 2HB	273.659	57.243	-252.187	 H	4	GLU4	-0.017	
53	 3HB	273.164	55.905	-253.201	 H	4	GLU4	-0.017	
54	 2HG	273.345	57.393	-255.277	 H	4	GLU4	-0.043	
55	 3HG	273.850	58.740	-254.270	 H	4	GLU4	-0.043	
56	   N	276.425	58.150	-252.160	N.am	5	SER5	-0.416	
57	  CA	277.294	59.322	-252.101	C.3	5	SER5	-0.025	
58	   C	278.653	59.018	-252.686	C.2	5	SER5	0.597	
59	   O	279.200	59.772	-253.491	O.2	5	SER5	-0.568	
60	  CB	277.405	59.854	-250.650	C.3	5	SER5	0.212	
61	  OG	278.138	58.975	-249.789	O.3	5	SER5	-0.655	
62	   H	276.009	57.778	-251.318	 H	5	SER5	0.272	
63	  HA	276.844	60.112	-252.730	 H	5	SER5	0.084	
64	 2HB	276.405	60.047	-250.217	 H	5	SER5	0.035	
65	 3HB	277.910	60.840	-250.652	 H	5	SER5	0.035	
66	  HG	277.649	58.150	-249.739	 H	5	SER5	0.428	
67	   N	279.259	57.935	-252.333	N.am	6	ILE6	-0.416	
68	  CA	280.572	57.641	-252.899	C.3	6	ILE6	-0.060	
69	   C	280.515	57.604	-254.407	C.2	6	ILE6	0.597	
70	   O	281.349	58.192	-255.110	O.2	6	ILE6	-0.568	
71	  CB	281.173	56.305	-252.299	C.3	6	ILE6	0.130	
72	 CG1	281.192	56.243	-250.738	C.3	6	ILE6	-0.043	
73	 CG2	282.614	56.005	-252.814	C.3	6	ILE6	-0.320	
74	 CD1	281.463	54.854	-250.123	C.3	6	ILE6	-0.066	
75	   H	278.831	57.300	-251.674	 H	6	ILE6	0.272	
76	  HA	281.246	58.476	-252.631	 H	6	ILE6	0.087	
77	  HB	280.516	55.479	-252.643	 H	6	ILE6	0.019	
78	2HG1	280.210	56.562	-250.342	 H	6	ILE6	0.024	
79	3HG1	281.908	56.985	-250.333	 H	6	ILE6	0.024	
80	1HG2	282.673	55.912	-253.913	 H	6	ILE6	0.088	
81	2HG2	283.336	56.788	-252.512	 H	6	ILE6	0.088	
82	3HG2	283.005	55.043	-252.436	 H	6	ILE6	0.088	
83	1HD1	280.736	54.099	-250.478	 H	6	ILE6	0.019	
84	2HD1	282.474	54.476	-250.359	 H	6	ILE6	0.019	
85	3HD1	281.387	54.884	-249.021	 H	6	ILE6	0.019	
86	   N	279.570	56.940	-254.980	N.am	7	LEU7	-0.416	
87	  CA	279.515	56.904	-256.439	C.3	7	LEU7	-0.052	
88	   C	279.441	58.299	-257.011	C.2	7	LEU7	0.597	
89	   O	280.162	58.663	-257.953	O.2	7	LEU7	-0.568	
90	  CB	278.312	56.043	-256.920	C.3	7	LEU7	-0.110	
91	  CG	278.241	54.563	-256.453	C.3	7	LEU7	0.353	
92	 CD1	277.051	53.857	-257.119	C.3	7	LEU7	-0.412	
93	 CD2	279.535	53.785	-256.745	C.3	7	LEU7	-0.412	
94	   H	278.878	56.452	-254.429	 H	7	LEU7	0.272	
95	  HA	280.457	56.465	-256.813	 H	7	LEU7	0.092	
96	 2HB	278.289	56.059	-258.027	 H	7	LEU7	0.046	
97	 3HB	277.372	56.545	-256.615	 H	7	LEU7	0.046	
98	  HG	278.071	54.555	-255.356	 H	7	LEU7	-0.036	
99	1HD1	276.094	54.365	-256.896	 H	7	LEU7	0.100	
100	2HD1	277.151	53.817	-258.220	 H	7	LEU7	0.100	
101	3HD1	276.945	52.815	-256.763	 H	7	LEU7	0.100	
102	1HD2	279.810	53.816	-257.815	 H	7	LEU7	0.100	
103	2HD2	280.388	54.197	-256.174	 H	7	LEU7	0.100	
104	3HD2	279.454	52.723	-256.449	 H	7	LEU7	0.100	
105	   N	278.603	59.139	-256.505	N.am	8	ASP8	-0.516	
106	  CA	278.532	60.489	-257.058	C.3	8	ASP8	0.038	
107	   C	279.878	61.170	-257.000	C.2	8	ASP8	0.537	
108	   O	280.350	61.775	-257.975	O.2	8	ASP8	-0.582	
109	  CB	277.453	61.327	-256.316	C.3	8	ASP8	-0.030	
110	  CG	277.233	62.747	-256.856	C.2	8	ASP8	0.799	
111	 OD1	277.297	62.947	-258.086	O.co2	8	ASP8	-0.801	
112	 OD2	277.040	63.673	-256.040	O.co2	8	ASP8	-0.801	
113	   H	278.006	58.867	-255.737	 H	8	ASP8	0.294	
114	  HA	278.249	60.411	-258.125	 H	8	ASP8	0.088	
115	 2HB	277.710	61.410	-255.244	 H	8	ASP8	-0.012	
116	 3HB	276.475	60.821	-256.349	 H	8	ASP8	-0.012	
117	   N	280.558	61.120	-255.905	N.am	9	GLU9	-0.516	
118	  CA	281.860	61.779	-255.849	C.3	9	GLU9	0.040	
119	   C	282.779	61.252	-256.925	C.2	9	GLU9	0.537	
120	   O	283.442	62.008	-257.650	O.2	9	GLU9	-0.582	
121	  CB	282.494	61.571	-254.444	C.3	9	GLU9	0.056	
122	  CG	283.876	62.265	-254.214	C.3	9	GLU9	0.014	
123	  CD	284.577	62.052	-252.886	C.2	9	GLU9	0.805	
124	 OE1	284.056	61.360	-251.990	O.co2	9	GLU9	-0.819	
125	 OE2	285.696	62.590	-252.754	O.co2	9	GLU9	-0.819	
126	   H	280.195	60.633	-255.098	 H	9	GLU9	0.294	
127	  HA	281.717	62.860	-256.024	 H	9	GLU9	0.111	
128	 2HB	282.607	60.487	-254.241	 H	9	GLU9	-0.017	
129	 3HB	281.796	61.924	-253.660	 H	9	GLU9	-0.017	
130	 2HG	283.803	63.355	-254.354	 H	9	GLU9	-0.043	
131	 3HG	284.623	61.921	-254.948	 H	9	GLU9	-0.043	
132	   N	282.876	59.977	-257.095	N.am	10	HIS10	-0.416	
133	  CA	283.765	59.467	-258.136	C.3	10	HIS10	-0.058	
134	   C	283.397	60.032	-259.487	C.2	10	HIS10	0.597	
135	   O	284.250	60.498	-260.258	O.2	10	HIS10	-0.568	
136	  CB	283.602	57.938	-258.131	C.3	10	HIS10	-0.007	
137	  CG	284.889	57.229	-257.823	C.2	10	HIS10	0.187	
138	 CD2	285.270	56.893	-256.531	C.2	10	HIS10	-0.221	
139	 ND1	285.841	56.824	-258.756	N.2	10	HIS10	-0.543	
140	 CE1	286.748	56.267	-257.933	C.2	10	HIS10	0.163	
141	 NE2	286.485	56.263	-256.598	N.pl3	10	HIS10	-0.280	
142	   H	282.346	59.341	-256.517	 H	10	HIS10	0.272	
143	  HA	284.783	59.825	-257.910	 H	10	HIS10	0.136	
144	 2HB	283.237	57.571	-259.111	 H	10	HIS10	0.037	
145	 3HB	282.847	57.600	-257.392	 H	10	HIS10	0.037	
146	 2HD	284.684	57.108	-255.642	 H	10	HIS10	0.186	
147	 1HE	287.639	55.847	-258.380	 H	10	HIS10	0.144	
148	 2HE	287.052	55.886	-255.825	 H	10	HIS10	0.334	
149	   N	282.160	60.030	-259.850	N.am	11	VAL11	-0.416	
150	  CA	281.804	60.576	-261.156	C.3	11	VAL11	-0.087	
151	   C	282.267	62.007	-261.288	C.2	11	VAL11	0.597	
152	   O	282.868	62.413	-262.291	O.2	11	VAL11	-0.568	
153	  CB	280.243	60.468	-261.376	C.3	11	VAL11	0.299	
154	 CG1	279.674	61.172	-262.638	C.3	11	VAL11	-0.319	
155	 CG2	279.720	59.013	-261.450	C.3	11	VAL11	-0.319	
156	   H	281.447	59.656	-259.239	 H	11	VAL11	0.272	
157	  HA	282.324	59.995	-261.939	 H	11	VAL11	0.097	
158	  HB	279.755	60.947	-260.500	 H	11	VAL11	-0.030	
159	1HG1	280.113	60.781	-263.576	 H	11	VAL11	0.079	
160	2HG1	278.575	61.064	-262.720	 H	11	VAL11	0.079	
161	3HG1	279.851	62.264	-262.628	 H	11	VAL11	0.079	
162	1HG2	280.010	58.426	-260.559	 H	11	VAL11	0.079	
163	2HG2	278.614	58.975	-261.492	 H	11	VAL11	0.079	
164	3HG2	280.102	58.473	-262.336	 H	11	VAL11	0.079	
165	   N	282.029	62.832	-260.325	N.am	12	GLN12	-0.416	
166	  CA	282.476	64.216	-260.452	C.3	12	GLN12	-0.003	
167	   C	283.966	64.285	-260.690	C.2	12	GLN12	0.597	
168	   O	284.453	64.994	-261.568	O.2	12	GLN12	-0.568	
169	  CB	282.085	64.982	-259.169	C.3	12	GLN12	-0.004	
170	  CG	282.443	66.504	-259.137	C.3	12	GLN12	-0.064	
171	  CD	282.140	67.317	-257.872	C.2	12	GLN12	0.695	
172	 NE2	281.573	66.740	-256.843	N.pl3	12	GLN12	-0.941	
173	 OE1	282.441	68.498	-257.794	O.2	12	GLN12	-0.609	
174	   H	281.541	62.525	-259.496	 H	12	GLN12	0.272	
175	  HA	281.976	64.672	-261.327	 H	12	GLN12	0.085	
176	 2HB	282.561	64.482	-258.300	 H	12	GLN12	0.017	
177	 3HB	280.994	64.874	-259.006	 H	12	GLN12	0.017	
178	 2HG	281.965	67.025	-259.988	 H	12	GLN12	0.035	
179	 3HG	283.527	66.648	-259.303	 H	12	GLN12	0.035	
180	1HE2	281.466	67.334	-256.020	 H	12	GLN12	0.425	
181	2HE2	281.411	65.736	-256.947	 H	12	GLN12	0.425	
182	   N	284.751	63.578	-259.949	N.am	13	ARG13	-0.348	
183	  CA	286.192	63.646	-260.180	C.3	13	ARG13	-0.264	
184	   C	286.528	63.275	-261.605	C.2	13	ARG13	0.734	
185	   O	287.296	63.948	-262.289	O.2	13	ARG13	-0.589	
186	  CB	286.906	62.707	-259.166	C.3	13	ARG13	-0.001	
187	  CG	288.451	62.862	-259.085	C.3	13	ARG13	0.039	
188	  CD	289.079	61.874	-258.088	C.3	13	ARG13	0.049	
189	  NE	290.556	62.083	-258.037	N.pl3	13	ARG13	-0.530	
190	  CZ	291.404	61.392	-257.282	C.cat	13	ARG13	0.808	
191	 NH1	291.040	60.426	-256.485	N.pl3	13	ARG13	-0.863	
192	 NH2	292.664	61.692	-257.339	N.pl3	13	ARG13	-0.863	
193	   H	284.376	62.988	-259.221	 H	13	ARG13	0.275	
194	  HA	286.515	64.692	-260.021	 H	13	ARG13	0.156	
195	 2HB	286.641	61.656	-259.406	 H	13	ARG13	0.033	
196	 3HB	286.481	62.873	-258.156	 H	13	ARG13	0.033	
197	 2HG	288.698	63.906	-258.805	 H	13	ARG13	0.029	
198	 3HG	288.901	62.706	-260.087	 H	13	ARG13	0.029	
199	 2HD	288.835	60.834	-258.397	 H	13	ARG13	0.069	
200	 3HD	288.622	62.019	-257.085	 H	13	ARG13	0.069	
201	  HE	291.006	62.806	-258.607	 H	13	ARG13	0.346	
202	1HH1	290.035	60.239	-256.489	 H	13	ARG13	0.448	
203	2HH1	291.754	59.944	-255.937	 H	13	ARG13	0.448	
204	1HH2	292.930	62.450	-257.970	 H	13	ARG13	0.448	
205	2HH2	293.299	61.151	-256.750	 H	13	ARG13	0.448	
206	   N	285.993	62.220	-262.120	N.am	14	VAL14	-0.416	
207	  CA	286.318	61.862	-263.497	C.3	14	VAL14	-0.087	
208	   C	285.987	62.992	-264.443	C.2	14	VAL14	0.597	
209	   O	286.780	63.375	-265.312	O.2	14	VAL14	-0.568	
210	  CB	285.547	60.544	-263.905	C.3	14	VAL14	0.299	
211	 CG1	285.637	60.127	-265.399	C.3	14	VAL14	-0.319	
212	 CG2	285.981	59.292	-263.105	C.3	14	VAL14	-0.319	
213	   H	285.359	61.651	-261.578	 H	14	VAL14	0.272	
214	  HA	287.407	61.686	-263.572	 H	14	VAL14	0.097	
215	  HB	284.471	60.715	-263.689	 H	14	VAL14	-0.030	
216	1HG1	286.679	59.951	-265.728	 H	14	VAL14	0.079	
217	2HG1	285.065	59.203	-265.612	 H	14	VAL14	0.079	
218	3HG1	285.207	60.889	-266.077	 H	14	VAL14	0.079	
219	1HG2	285.893	59.450	-262.015	 H	14	VAL14	0.079	
220	2HG2	285.346	58.415	-263.338	 H	14	VAL14	0.079	
221	3HG2	287.029	59.004	-263.311	 H	14	VAL14	0.079	
222	   N	284.842	63.577	-264.341	N.am	15	MET15	-0.416	
223	  CA	284.521	64.670	-265.254	C.3	15	MET15	-0.024	
224	   C	285.550	65.770	-265.165	C.2	15	MET15	0.597	
225	   O	286.052	66.282	-266.178	O.2	15	MET15	-0.568	
226	  CB	283.099	65.214	-264.945	C.3	15	MET15	0.034	
227	  CG	281.938	64.215	-265.137	C.3	15	MET15	0.002	
228	  SD	280.363	65.079	-265.022	S.3	15	MET15	-0.274	
229	  CE	279.283	63.648	-264.887	C.3	15	MET15	-0.054	
230	   H	284.177	63.283	-263.639	 H	15	MET15	0.272	
231	  HA	284.547	64.283	-266.290	 H	15	MET15	0.088	
232	 2HB	282.896	66.093	-265.586	 H	15	MET15	0.024	
233	 3HB	283.063	65.606	-263.908	 H	15	MET15	0.024	
234	 2HG	281.981	63.429	-264.360	 H	15	MET15	0.044	
235	 3HG	282.001	63.700	-266.113	 H	15	MET15	0.044	
236	 1HE	279.427	62.961	-265.739	 H	15	MET15	0.068	
237	 2HE	279.493	63.095	-263.954	 H	15	MET15	0.068	
238	 3HE	278.225	63.963	-264.870	 H	15	MET15	0.068	
239	   N	285.918	66.191	-264.003	N.am	16	ARG16	-0.348	
240	  CA	286.914	67.256	-263.919	C.3	16	ARG16	-0.264	
241	   C	288.185	66.865	-264.635	C.2	16	ARG16	0.734	
242	   O	288.299	65.789	-265.217	O.2	16	ARG16	-0.589	
243	  CB	287.182	67.574	-262.420	C.3	16	ARG16	-0.001	
244	  CG	288.006	68.863	-262.147	C.3	16	ARG16	0.039	
245	  CD	288.255	69.082	-260.646	C.3	16	ARG16	0.049	
246	  NE	289.030	70.342	-260.444	N.pl3	16	ARG16	-0.530	
247	  CZ	289.421	70.824	-259.268	C.cat	16	ARG16	0.808	
248	 NH1	289.174	70.239	-258.130	N.pl3	16	ARG16	-0.863	
249	 NH2	290.084	71.937	-259.249	N.pl3	16	ARG16	-0.863	
250	   H	285.524	65.791	-263.164	 H	16	ARG16	0.275	
251	  HA	286.504	68.149	-264.428	 H	16	ARG16	0.156	
252	 2HB	287.680	66.698	-261.954	 H	16	ARG16	0.033	
253	 3HB	286.213	67.653	-261.886	 H	16	ARG16	0.033	
254	 2HG	287.475	69.734	-262.584	 H	16	ARG16	0.029	
255	 3HG	288.980	68.812	-262.676	 H	16	ARG16	0.029	
256	 2HD	288.805	68.208	-260.232	 H	16	ARG16	0.069	
257	 3HD	287.283	69.124	-260.110	 H	16	ARG16	0.069	
258	  HE	289.308	70.923	-261.241	 H	16	ARG16	0.346	
259	1HH1	288.649	69.366	-258.215	 H	16	ARG16	0.448	
260	2HH1	289.508	70.675	-257.268	 H	16	ARG16	0.448	
261	1HH2	290.269	72.381	-260.151	 H	16	ARG16	0.448	
262	2HH2	290.374	72.292	-258.336	 H	16	ARG16	0.448	
@<TRIPOS>BOND
1 1 2 1
2 1 10 1
3 2 3 1
4 2 5 1
5 2 11 1
6 3 4 2
7 3 16 1
8 5 6 1
9 6 7 1
10 7 8 2
11 7 9 1
12 5 12 1
13 5 13 1
14 6 14 1
15 6 15 1
16 16 17 1
17 16 22 1
18 17 18 1
19 17 20 1
20 17 23 1
21 18 19 2
22 18 27 1
23 20 21 1
24 20 24 1
25 20 25 1
26 21 26 1
27 27 28 1
28 27 33 1
29 28 29 1
30 28 31 1
31 28 34 1
32 29 30 2
33 29 41 1
34 31 32 1
35 32 33 1
36 31 35 1
37 31 36 1
38 32 37 1
39 32 38 1
40 33 39 1
41 33 40 1
42 41 42 1
43 41 50 1
44 42 43 1
45 42 45 1
46 42 51 1
47 43 44 2
48 43 56 1
49 45 46 1
50 46 47 1
51 47 48 2
52 47 49 1
53 45 52 1
54 45 53 1
55 46 54 1
56 46 55 1
57 56 57 1
58 56 62 1
59 57 58 1
60 57 60 1
61 57 63 1
62 58 59 2
63 58 67 1
64 60 61 1
65 60 64 1
66 60 65 1
67 61 66 1
68 67 68 1
69 67 75 1
70 68 69 1
71 68 71 1
72 68 76 1
73 69 70 2
74 69 86 1
75 71 72 1
76 71 73 1
77 72 74 1
78 71 77 1
79 72 78 1
80 72 79 1
81 73 80 1
82 73 81 1
83 73 82 1
84 74 83 1
85 74 84 1
86 74 85 1
87 86 87 1
88 86 94 1
89 87 88 1
90 87 90 1
91 87 95 1
92 88 89 2
93 88 105 1
94 90 91 1
95 91 92 1
96 91 93 1
97 90 96 1
98 90 97 1
99 91 98 1
100 92 99 1
101 92 100 1
102 92 101 1
103 93 102 1
104 93 103 1
105 93 104 1
106 105 106 1
107 105 113 1
108 106 107 1
109 106 109 1
110 106 114 1
111 107 108 2
112 107 117 1
113 109 110 1
114 110 111 2
115 110 112 1
116 109 115 1
117 109 116 1
118 117 118 1
119 117 126 1
120 118 119 1
121 118 121 1
122 118 127 1
123 119 120 2
124 119 132 1
125 121 122 1
126 122 123 1
127 123 124 2
128 123 125 1
129 121 128 1
130 121 129 1
131 122 130 1
132 122 131 1
133 132 133 1
134 132 142 1
135 133 134 1
136 133 136 1
137 133 143 1
138 134 135 2
139 134 149 1
140 136 137 1
141 137 138 2
142 138 141 1
143 137 139 1
144 139 140 2
145 140 141 1
146 136 144 1
147 136 145 1
148 138 146 1
149 140 147 1
150 141 148 1
151 149 150 1
152 149 156 1
153 150 151 1
154 150 153 1
155 150 157 1
156 151 152 2
157 151 165 1
158 153 154 1
159 153 155 1
160 153 158 1
161 154 159 1
162 154 160 1
163 154 161 1
164 155 162 1
165 155 163 1
166 155 164 1
167 165 166 1
168 165 174 1
169 166 167 1
170 166 169 1
171 166 175 1
172 167 168 2
173 167 182 1
174 169 170 1
175 170 171 1
176 171 172 1
177 171 173 2
178 169 176 1
179 169 177 1
180 170 178 1
181 170 179 1
182 172 180 1
183 172 181 1
184 182 183 1
185 182 193 1
186 183 184 1
187 183 186 1
188 183 194 1
189 184 185 2
190 184 206 1
191 186 187 1
192 187 188 1
193 188 189 1
194 189 190 1
195 190 191 2
196 190 192 1
197 186 195 1
198 186 196 1
199 187 197 1
200 187 198 1
201 188 199 1
202 188 200 1
203 189 201 1
204 191 202 1
205 191 203 1
206 192 204 1
207 192 205 1
208 206 207 1
209 206 213 1
210 207 208 1
211 207 210 1
212 207 214 1
213 208 209 2
214 208 222 1
215 210 211 1
216 210 212 1
217 210 215 1
218 211 216 1
219 211 217 1
220 211 218 1
221 212 219 1
222 212 220 1
223 212 221 1
224 222 223 1
225 222 230 1
226 223 224 1
227 223 226 1
228 223 231 1
229 224 225 2
230 224 239 1
231 226 227 1
232 227 228 1
233 228 229 1
234 226 232 1
235 226 233 1
236 227 234 1
237 227 235 1
238 229 236 1
239 229 237 1
240 229 238 1
241 239 240 1
242 239 250 1
243 240 241 1
244 240 243 1
245 240 251 1
246 241 242 2
247 243 244 1
248 244 245 1
249 245 246 1
250 246 247 1
251 247 248 2
252 247 249 1
253 243 252 1
254 243 253 1
255 244 254 1
256 244 255 1
257 245 256 1
258 245 257 1
259 246 258 1
260 248 259 1
261 248 260 1
262 249 261 1
263 249 262 1
@<TRIPOS>SUBSTRUCTURE
1	GLU1	1	RESIDUE	1 ****	GLU
2	SER2	16	RESIDUE	1 ****	SER
3	PRO3	27	RESIDUE	1 ****	PRO
4	GLU4	41	RESIDUE	1 ****	GLU
5	SER5	56	RESIDUE	1 ****	SER
6	ILE6	67	RESIDUE	1 ****	ILE
7	LEU7	86	RESIDUE	1 ****	LEU
8	ASP8	105	RESIDUE	1 ****	ASP
9	GLU9	117	RESIDUE	1 ****	GLU
10	HIS10	132	RESIDUE	1 ****	HIS
11	VAL11	149	RESIDUE	1 ****	VAL
12	GLN12	165	RESIDUE	1 ****	GLN
13	ARG13	182	RESIDUE	1 ****	ARG
14	VAL14	206	RESIDUE	1 ****	VAL
15	MET15	222	RESIDUE	1 ****	MET
16	ARG16	239	RESIDUE	1 ****	ARG
