@<TRIPOS>MOLECULE
2-3
258 259 16              
SMALL
USER_CHARGES
@<TRIPOS>ATOM
1	   N	190.519	29.044	-161.267	N.3	1	GLU1	-0.516	
2	  CA	191.078	30.393	-161.267	C.3	1	GLU1	0.040	
3	   C	192.587	30.353	-161.267	C.2	1	GLU1	0.537	
4	   O	193.263	31.052	-162.036	O.2	1	GLU1	-0.582	
5	  CB	190.555	31.178	-160.030	C.3	1	GLU1	0.056	
6	  CG	191.030	32.663	-159.919	C.3	1	GLU1	0.014	
7	  CD	190.606	33.467	-158.704	C.2	1	GLU1	0.805	
8	 OE1	189.878	32.965	-157.826	O.co2	1	GLU1	-0.819	
9	 OE2	191.036	34.637	-158.632	O.co2	1	GLU1	-0.819	
10	   H	191.146	28.165	-161.267	 H	1	GLU1	0.294	
11	  HA	190.752	30.911	-162.187	 H	1	GLU1	0.111	
12	 2HB	190.844	30.647	-159.100	 H	1	GLU1	-0.017	
13	 3HB	189.448	31.168	-160.017	 H	1	GLU1	-0.017	
14	 2HG	190.720	33.248	-160.800	 H	1	GLU1	-0.043	
15	 3HG	192.130	32.730	-159.890	 H	1	GLU1	-0.043	
16	   N	193.192	29.567	-160.442	N.am	2	GLY2	-0.416	
17	  CA	194.651	29.528	-160.442	C.3	2	GLY2	-0.025	
18	   C	195.183	29.173	-161.809	C.2	2	GLY2	0.597	
19	   O	196.100	29.805	-162.339	O.2	2	GLY2	-0.568	
20	   H	192.663	28.987	-159.805	 H	2	GLY2	0.272	
21	 3HA	194.962	28.803	-159.749	 H	2	GLY2	0.070	
22	  HA	195.037	30.531	-160.177	 H	2	GLY2	0.070	
23	   N	194.662	28.178	-162.443	N.am	3	PRO3	-0.255	
24	  CA	195.114	27.769	-163.765	C.3	3	PRO3	-0.027	
25	   C	194.717	28.792	-164.842	C.2	3	PRO3	0.590	
26	   O	195.540	29.176	-165.673	O.2	3	PRO3	-0.575	
27	  CB	194.410	26.414	-163.935	C.3	3	PRO3	-0.007	
28	  CG	193.126	26.566	-163.105	C.3	3	PRO3	0.019	
29	  CD	193.583	27.385	-161.895	C.3	3	PRO3	0.019	
30	  HA	196.200	27.649	-163.778	 H	3	PRO3	0.064	
31	 2HB	195.033	25.633	-163.493	 H	3	PRO3	0.025	
32	 3HB	194.213	26.166	-164.980	 H	3	PRO3	0.025	
33	 2HG	192.699	25.604	-162.814	 H	3	PRO3	0.021	
34	 3HG	192.389	27.137	-163.673	 H	3	PRO3	0.021	
35	 2HD	193.972	26.735	-161.107	 H	3	PRO3	0.039	
36	 3HD	192.786	28.021	-161.502	 H	3	PRO3	0.039	
37	   N	193.512	29.252	-164.875	N.am	4	GLU4	-0.516	
38	  CA	193.153	30.223	-165.905	C.3	4	GLU4	0.040	
39	   C	194.051	31.434	-165.843	C.2	4	GLU4	0.537	
40	   O	194.578	31.914	-166.857	O.2	4	GLU4	-0.582	
41	  CB	191.664	30.642	-165.735	C.3	4	GLU4	0.056	
42	  CG	191.116	31.645	-166.801	C.3	4	GLU4	0.014	
43	  CD	189.690	32.142	-166.658	C.2	4	GLU4	0.805	
44	 OE1	188.963	31.743	-165.728	O.co2	4	GLU4	-0.819	
45	 OE2	189.300	32.971	-167.507	O.co2	4	GLU4	-0.819	
46	   H	192.827	28.945	-164.199	 H	4	GLU4	0.294	
47	  HA	193.284	29.753	-166.896	 H	4	GLU4	0.111	
48	 2HB	191.511	31.082	-164.728	 H	4	GLU4	-0.017	
49	 3HB	191.016	29.744	-165.742	 H	4	GLU4	-0.017	
50	 2HG	191.199	31.231	-167.819	 H	4	GLU4	-0.043	
51	 3HG	191.704	32.578	-166.812	 H	4	GLU4	-0.043	
52	   N	194.278	31.987	-164.700	N.am	5	SER5	-0.416	
53	  CA	195.148	33.159	-164.641	C.3	5	SER5	-0.025	
54	   C	196.507	32.853	-165.225	C.2	5	SER5	0.597	
55	   O	197.054	33.607	-166.030	O.2	5	SER5	-0.568	
56	  CB	195.258	33.691	-163.190	C.3	5	SER5	0.212	
57	  OG	195.990	32.812	-162.329	O.3	5	SER5	-0.655	
58	   H	193.861	31.615	-163.858	 H	5	SER5	0.272	
59	  HA	194.698	33.949	-165.270	 H	5	SER5	0.084	
60	 2HB	194.258	33.884	-162.757	 H	5	SER5	0.035	
61	 3HB	195.763	34.676	-163.192	 H	5	SER5	0.035	
62	  HG	195.501	31.987	-162.278	 H	5	SER5	0.428	
63	   N	197.111	31.770	-164.871	N.am	6	ILE6	-0.416	
64	  CA	198.425	31.476	-165.437	C.3	6	ILE6	-0.060	
65	   C	198.369	31.438	-166.944	C.2	6	ILE6	0.597	
66	   O	199.204	32.026	-167.648	O.2	6	ILE6	-0.568	
67	  CB	199.025	30.139	-164.836	C.3	6	ILE6	0.130	
68	 CG1	199.043	30.077	-163.275	C.3	6	ILE6	-0.043	
69	 CG2	200.466	29.838	-165.351	C.3	6	ILE6	-0.320	
70	 CD1	199.313	28.688	-162.660	C.3	6	ILE6	-0.066	
71	   H	196.683	31.136	-164.212	 H	6	ILE6	0.272	
72	  HA	199.099	32.310	-165.169	 H	6	ILE6	0.087	
73	  HB	198.367	29.313	-165.181	 H	6	ILE6	0.019	
74	2HG1	198.061	30.397	-162.880	 H	6	ILE6	0.024	
75	3HG1	199.759	30.819	-162.870	 H	6	ILE6	0.024	
76	1HG2	200.526	29.745	-166.449	 H	6	ILE6	0.088	
77	2HG2	201.188	30.620	-165.048	 H	6	ILE6	0.088	
78	3HG2	200.856	28.876	-164.972	 H	6	ILE6	0.088	
79	1HD1	198.585	27.934	-163.015	 H	6	ILE6	0.019	
80	2HD1	200.324	28.309	-162.896	 H	6	ILE6	0.019	
81	3HD1	199.236	28.718	-161.558	 H	6	ILE6	0.019	
82	   N	197.423	30.774	-167.519	N.am	7	LEU7	-0.416	
83	  CA	197.369	30.738	-168.977	C.3	7	LEU7	-0.052	
84	   C	197.297	32.134	-169.550	C.2	7	LEU7	0.597	
85	   O	198.018	32.497	-170.491	O.2	7	LEU7	-0.568	
86	  CB	196.166	29.878	-169.458	C.3	7	LEU7	-0.110	
87	  CG	196.093	28.399	-168.992	C.3	7	LEU7	0.353	
88	 CD1	194.904	27.693	-169.658	C.3	7	LEU7	-0.412	
89	 CD2	197.387	27.620	-169.283	C.3	7	LEU7	-0.412	
90	   H	196.731	30.287	-166.968	 H	7	LEU7	0.272	
91	  HA	198.311	30.299	-169.351	 H	7	LEU7	0.092	
92	 2HB	196.144	29.894	-170.566	 H	7	LEU7	0.046	
93	 3HB	195.226	30.381	-169.155	 H	7	LEU7	0.046	
94	  HG	195.923	28.390	-167.895	 H	7	LEU7	-0.036	
95	1HD1	193.947	28.202	-169.436	 H	7	LEU7	0.100	
96	2HD1	195.004	27.652	-170.759	 H	7	LEU7	0.100	
97	3HD1	194.797	26.651	-169.302	 H	7	LEU7	0.100	
98	1HD2	197.663	27.650	-170.353	 H	7	LEU7	0.100	
99	2HD2	198.240	28.031	-168.711	 H	7	LEU7	0.100	
100	3HD2	197.306	26.557	-168.987	 H	7	LEU7	0.100	
101	   N	196.459	32.974	-169.044	N.am	8	ASP8	-0.516	
102	  CA	196.389	34.324	-169.597	C.3	8	ASP8	0.038	
103	   C	197.735	35.004	-169.539	C.2	8	ASP8	0.537	
104	   O	198.208	35.609	-170.513	O.2	8	ASP8	-0.582	
105	  CB	195.310	35.162	-168.856	C.3	8	ASP8	-0.030	
106	  CG	195.091	36.583	-169.396	C.2	8	ASP8	0.799	
107	 OD1	195.156	36.782	-170.627	O.co2	8	ASP8	-0.801	
108	 OD2	194.898	37.509	-168.581	O.co2	8	ASP8	-0.801	
109	   H	195.861	32.703	-168.277	 H	8	ASP8	0.294	
110	  HA	196.106	34.246	-170.664	 H	8	ASP8	0.088	
111	 2HB	195.567	35.246	-167.784	 H	8	ASP8	-0.012	
112	 3HB	194.331	34.657	-168.889	 H	8	ASP8	-0.012	
113	   N	198.414	34.954	-168.443	N.am	9	GLU9	-0.516	
114	  CA	199.717	35.612	-168.387	C.3	9	GLU9	0.040	
115	   C	200.635	35.085	-169.462	C.2	9	GLU9	0.537	
116	   O	201.300	35.840	-170.187	O.2	9	GLU9	-0.582	
117	  CB	200.349	35.404	-166.981	C.3	9	GLU9	0.056	
118	  CG	201.732	36.097	-166.751	C.3	9	GLU9	0.014	
119	  CD	202.433	35.883	-165.422	C.2	9	GLU9	0.805	
120	 OE1	201.911	35.192	-164.526	O.co2	9	GLU9	-0.819	
121	 OE2	203.552	36.421	-165.290	O.co2	9	GLU9	-0.819	
122	   H	198.051	34.467	-167.636	 H	9	GLU9	0.294	
123	  HA	199.574	36.694	-168.562	 H	9	GLU9	0.111	
124	 2HB	200.463	34.320	-166.778	 H	9	GLU9	-0.017	
125	 3HB	199.652	35.757	-166.197	 H	9	GLU9	-0.017	
126	 2HG	201.660	37.187	-166.891	 H	9	GLU9	-0.043	
127	 3HG	202.479	35.752	-167.485	 H	9	GLU9	-0.043	
128	   N	200.732	33.810	-169.632	N.am	10	HIS10	-0.416	
129	  CA	201.621	33.299	-170.672	C.3	10	HIS10	-0.058	
130	   C	201.255	33.864	-172.023	C.2	10	HIS10	0.597	
131	   O	202.108	34.329	-172.795	O.2	10	HIS10	-0.568	
132	  CB	201.458	31.770	-170.668	C.3	10	HIS10	-0.007	
133	  CG	202.743	31.060	-170.359	C.2	10	HIS10	0.187	
134	 CD2	203.124	30.725	-169.066	C.2	10	HIS10	-0.221	
135	 ND1	203.696	30.655	-171.291	N.2	10	HIS10	-0.543	
136	 CE1	204.602	30.097	-170.467	C.2	10	HIS10	0.163	
137	 NE2	204.339	30.093	-169.132	N.pl3	10	HIS10	-0.280	
138	   H	200.202	33.174	-169.054	 H	10	HIS10	0.272	
139	  HA	202.640	33.656	-170.446	 H	10	HIS10	0.136	
140	 2HB	201.093	31.403	-171.648	 H	10	HIS10	0.037	
141	 3HB	200.702	31.432	-169.928	 H	10	HIS10	0.037	
142	 2HD	202.537	30.939	-168.177	 H	10	HIS10	0.186	
143	 1HE	205.494	29.676	-170.914	 H	10	HIS10	0.144	
144	 2HE	204.905	29.716	-168.359	 H	10	HIS10	0.334	
145	   N	200.017	33.862	-172.387	N.am	11	VAL11	-0.416	
146	  CA	199.663	34.408	-173.694	C.3	11	VAL11	-0.087	
147	   C	200.127	35.839	-173.826	C.2	11	VAL11	0.597	
148	   O	200.728	36.245	-174.828	O.2	11	VAL11	-0.568	
149	  CB	198.102	34.301	-173.914	C.3	11	VAL11	0.299	
150	 CG1	197.533	35.005	-175.177	C.3	11	VAL11	-0.319	
151	 CG2	197.578	32.847	-173.988	C.3	11	VAL11	-0.319	
152	   H	199.304	33.489	-171.777	 H	11	VAL11	0.272	
153	  HA	200.183	33.826	-174.476	 H	11	VAL11	0.097	
154	  HB	197.613	34.781	-173.039	 H	11	VAL11	-0.030	
155	1HG1	197.973	34.614	-176.114	 H	11	VAL11	0.079	
156	2HG1	196.435	34.898	-175.260	 H	11	VAL11	0.079	
157	3HG1	197.711	36.098	-175.167	 H	11	VAL11	0.079	
158	1HG2	197.867	32.260	-173.097	 H	11	VAL11	0.079	
159	2HG2	196.472	32.809	-174.031	 H	11	VAL11	0.079	
160	3HG2	197.960	32.306	-174.875	 H	11	VAL11	0.079	
161	   N	199.889	36.665	-172.863	N.am	12	GLN12	-0.416	
162	  CA	200.337	38.048	-172.990	C.3	12	GLN12	-0.003	
163	   C	201.827	38.116	-173.227	C.2	12	GLN12	0.597	
164	   O	202.314	38.825	-174.105	O.2	12	GLN12	-0.568	
165	  CB	199.945	38.815	-171.707	C.3	12	GLN12	-0.004	
166	  CG	200.304	40.337	-171.675	C.3	12	GLN12	-0.064	
167	  CD	200.001	41.150	-170.411	C.2	12	GLN12	0.695	
168	 NE2	199.433	40.573	-169.382	N.pl3	12	GLN12	-0.941	
169	 OE1	200.302	42.331	-170.333	O.2	12	GLN12	-0.609	
170	   H	199.399	36.358	-172.035	 H	12	GLN12	0.272	
171	  HA	199.838	38.504	-173.865	 H	12	GLN12	0.085	
172	 2HB	200.420	38.315	-170.838	 H	12	GLN12	0.017	
173	 3HB	198.854	38.707	-171.545	 H	12	GLN12	0.017	
174	 2HG	199.827	40.858	-172.526	 H	12	GLN12	0.035	
175	 3HG	201.388	40.479	-171.840	 H	12	GLN12	0.035	
176	1HE2	199.325	41.167	-168.559	 H	12	GLN12	0.425	
177	2HE2	199.270	39.569	-169.486	 H	12	GLN12	0.425	
178	   N	202.611	37.409	-172.486	N.am	13	ARG13	-0.348	
179	  CA	204.052	37.476	-172.715	C.3	13	ARG13	-0.264	
180	   C	204.389	37.105	-174.140	C.2	13	ARG13	0.734	
181	   O	205.157	37.777	-174.824	O.2	13	ARG13	-0.589	
182	  CB	204.765	36.537	-171.701	C.3	13	ARG13	-0.001	
183	  CG	206.309	36.690	-171.619	C.3	13	ARG13	0.039	
184	  CD	206.936	35.703	-170.621	C.3	13	ARG13	0.049	
185	  NE	208.413	35.910	-170.570	N.pl3	13	ARG13	-0.530	
186	  CZ	209.261	35.219	-169.814	C.cat	13	ARG13	0.808	
187	 NH1	208.896	34.254	-169.018	N.pl3	13	ARG13	-0.863	
188	 NH2	210.521	35.518	-169.871	N.pl3	13	ARG13	-0.863	
189	   H	202.235	36.819	-171.758	 H	13	ARG13	0.275	
190	  HA	204.375	38.522	-172.556	 H	13	ARG13	0.156	
191	 2HB	204.499	35.486	-171.941	 H	13	ARG13	0.033	
192	 3HB	204.339	36.703	-170.691	 H	13	ARG13	0.033	
193	 2HG	206.557	37.735	-171.339	 H	13	ARG13	0.029	
194	 3HG	206.761	36.535	-172.621	 H	13	ARG13	0.029	
195	 2HD	206.692	34.662	-170.931	 H	13	ARG13	0.069	
196	 3HD	206.479	35.848	-169.619	 H	13	ARG13	0.069	
197	  HE	208.865	36.633	-171.140	 H	13	ARG13	0.346	
198	1HH1	207.891	34.068	-169.021	 H	13	ARG13	0.448	
199	2HH1	209.609	33.771	-168.469	 H	13	ARG13	0.448	
200	1HH2	210.788	36.276	-170.501	 H	13	ARG13	0.448	
201	2HH2	211.156	34.977	-169.282	 H	13	ARG13	0.448	
202	   N	203.853	36.050	-174.655	N.am	14	VAL14	-0.416	
203	  CA	204.179	35.691	-176.033	C.3	14	VAL14	-0.087	
204	   C	203.849	36.821	-176.978	C.2	14	VAL14	0.597	
205	   O	204.643	37.203	-177.847	O.2	14	VAL14	-0.568	
206	  CB	203.407	34.374	-176.440	C.3	14	VAL14	0.299	
207	 CG1	203.498	33.956	-177.934	C.3	14	VAL14	-0.319	
208	 CG2	203.839	33.122	-175.640	C.3	14	VAL14	-0.319	
209	   H	203.218	35.481	-174.114	 H	14	VAL14	0.272	
210	  HA	205.267	35.515	-176.107	 H	14	VAL14	0.097	
211	  HB	202.331	34.545	-176.225	 H	14	VAL14	-0.030	
212	1HG1	204.539	33.780	-178.262	 H	14	VAL14	0.079	
213	2HG1	202.925	33.033	-178.147	 H	14	VAL14	0.079	
214	3HG1	203.069	34.718	-178.612	 H	14	VAL14	0.079	
215	1HG2	203.751	33.280	-174.550	 H	14	VAL14	0.079	
216	2HG2	203.204	32.245	-175.873	 H	14	VAL14	0.079	
217	3HG2	204.887	32.832	-175.845	 H	14	VAL14	0.079	
218	   N	202.704	37.407	-176.877	N.am	15	MET15	-0.416	
219	  CA	202.384	38.500	-177.791	C.3	15	MET15	-0.024	
220	   C	203.414	39.600	-177.702	C.2	15	MET15	0.597	
221	   O	203.917	40.111	-178.714	O.2	15	MET15	-0.568	
222	  CB	200.962	39.045	-177.482	C.3	15	MET15	0.034	
223	  CG	199.800	38.046	-177.675	C.3	15	MET15	0.002	
224	  SD	198.226	38.912	-177.561	S.3	15	MET15	-0.274	
225	  CE	197.145	37.481	-177.426	C.3	15	MET15	-0.054	
226	   H	202.039	37.113	-176.176	 H	15	MET15	0.272	
227	  HA	202.410	38.113	-178.826	 H	15	MET15	0.088	
228	 2HB	200.760	39.924	-178.124	 H	15	MET15	0.024	
229	 3HB	200.926	39.437	-176.446	 H	15	MET15	0.024	
230	 2HG	199.843	37.260	-176.897	 H	15	MET15	0.044	
231	 3HG	199.864	37.531	-178.651	 H	15	MET15	0.044	
232	 1HE	197.290	36.793	-178.278	 H	15	MET15	0.068	
233	 2HE	197.354	36.929	-176.493	 H	15	MET15	0.068	
234	 3HE	196.088	37.796	-177.410	 H	15	MET15	0.068	
235	   N	203.781	40.021	-176.539	N.am	16	ARG16	-0.348	
236	  CA	204.778	41.085	-176.455	C.3	16	ARG16	-0.264	
237	   C	206.049	40.693	-177.170	C.2	16	ARG16	0.734	
238	   O	206.163	39.617	-177.752	O.2	16	ARG16	-0.589	
239	  CB	205.045	41.403	-174.956	C.3	16	ARG16	-0.001	
240	  CG	205.870	42.692	-174.682	C.3	16	ARG16	0.039	
241	  CD	206.119	42.911	-173.181	C.3	16	ARG16	0.049	
242	  NE	206.894	44.170	-172.979	N.pl3	16	ARG16	-0.530	
243	  CZ	207.285	44.652	-171.803	C.cat	16	ARG16	0.808	
244	 NH1	207.037	44.067	-170.665	N.pl3	16	ARG16	-0.863	
245	 NH2	207.948	45.765	-171.784	N.pl3	16	ARG16	-0.863	
246	   H	203.386	39.620	-175.700	 H	16	ARG16	0.275	
247	  HA	204.368	41.978	-176.964	 H	16	ARG16	0.156	
248	 2HB	205.543	40.527	-174.490	 H	16	ARG16	0.033	
249	 3HB	204.076	41.483	-174.423	 H	16	ARG16	0.033	
250	 2HG	205.340	43.563	-175.120	 H	16	ARG16	0.029	
251	 3HG	206.844	42.639	-175.211	 H	16	ARG16	0.029	
252	 2HD	206.668	42.036	-172.768	 H	16	ARG16	0.069	
253	 3HD	205.146	42.953	-172.646	 H	16	ARG16	0.069	
254	  HE	207.173	44.751	-173.776	 H	16	ARG16	0.346	
255	1HH1	206.511	43.194	-170.750	 H	16	ARG16	0.448	
256	2HH1	207.370	44.503	-169.804	 H	16	ARG16	0.448	
257	1HH2	208.134	46.208	-172.686	 H	16	ARG16	0.448	
258	2HH2	208.238	46.120	-170.871	 H	16	ARG16	0.448	
@<TRIPOS>BOND
1 1 2 1
2 1 10 1
3 2 3 1
4 2 5 1
5 2 11 1
6 3 4 2
7 3 16 1
8 5 6 1
9 6 7 1
10 7 8 2
11 7 9 1
12 5 12 1
13 5 13 1
14 6 14 1
15 6 15 1
16 16 17 1
17 16 20 1
18 17 18 1
19 17 21 1
20 17 22 1
21 18 19 2
22 18 23 1
23 23 24 1
24 23 29 1
25 24 25 1
26 24 27 1
27 24 30 1
28 25 26 2
29 25 37 1
30 27 28 1
31 28 29 1
32 27 31 1
33 27 32 1
34 28 33 1
35 28 34 1
36 29 35 1
37 29 36 1
38 37 38 1
39 37 46 1
40 38 39 1
41 38 41 1
42 38 47 1
43 39 40 2
44 39 52 1
45 41 42 1
46 42 43 1
47 43 44 2
48 43 45 1
49 41 48 1
50 41 49 1
51 42 50 1
52 42 51 1
53 52 53 1
54 52 58 1
55 53 54 1
56 53 56 1
57 53 59 1
58 54 55 2
59 54 63 1
60 56 57 1
61 56 60 1
62 56 61 1
63 57 62 1
64 63 64 1
65 63 71 1
66 64 65 1
67 64 67 1
68 64 72 1
69 65 66 2
70 65 82 1
71 67 68 1
72 67 69 1
73 68 70 1
74 67 73 1
75 68 74 1
76 68 75 1
77 69 76 1
78 69 77 1
79 69 78 1
80 70 79 1
81 70 80 1
82 70 81 1
83 82 83 1
84 82 90 1
85 83 84 1
86 83 86 1
87 83 91 1
88 84 85 2
89 84 101 1
90 86 87 1
91 87 88 1
92 87 89 1
93 86 92 1
94 86 93 1
95 87 94 1
96 88 95 1
97 88 96 1
98 88 97 1
99 89 98 1
100 89 99 1
101 89 100 1
102 101 102 1
103 101 109 1
104 102 103 1
105 102 105 1
106 102 110 1
107 103 104 2
108 103 113 1
109 105 106 1
110 106 107 2
111 106 108 1
112 105 111 1
113 105 112 1
114 113 114 1
115 113 122 1
116 114 115 1
117 114 117 1
118 114 123 1
119 115 116 2
120 115 128 1
121 117 118 1
122 118 119 1
123 119 120 2
124 119 121 1
125 117 124 1
126 117 125 1
127 118 126 1
128 118 127 1
129 128 129 1
130 128 138 1
131 129 130 1
132 129 132 1
133 129 139 1
134 130 131 2
135 130 145 1
136 132 133 1
137 133 134 2
138 134 137 1
139 133 135 1
140 135 136 2
141 136 137 1
142 132 140 1
143 132 141 1
144 134 142 1
145 136 143 1
146 137 144 1
147 145 146 1
148 145 152 1
149 146 147 1
150 146 149 1
151 146 153 1
152 147 148 2
153 147 161 1
154 149 150 1
155 149 151 1
156 149 154 1
157 150 155 1
158 150 156 1
159 150 157 1
160 151 158 1
161 151 159 1
162 151 160 1
163 161 162 1
164 161 170 1
165 162 163 1
166 162 165 1
167 162 171 1
168 163 164 2
169 163 178 1
170 165 166 1
171 166 167 1
172 167 168 1
173 167 169 2
174 165 172 1
175 165 173 1
176 166 174 1
177 166 175 1
178 168 176 1
179 168 177 1
180 178 179 1
181 178 189 1
182 179 180 1
183 179 182 1
184 179 190 1
185 180 181 2
186 180 202 1
187 182 183 1
188 183 184 1
189 184 185 1
190 185 186 1
191 186 187 2
192 186 188 1
193 182 191 1
194 182 192 1
195 183 193 1
196 183 194 1
197 184 195 1
198 184 196 1
199 185 197 1
200 187 198 1
201 187 199 1
202 188 200 1
203 188 201 1
204 202 203 1
205 202 209 1
206 203 204 1
207 203 206 1
208 203 210 1
209 204 205 2
210 204 218 1
211 206 207 1
212 206 208 1
213 206 211 1
214 207 212 1
215 207 213 1
216 207 214 1
217 208 215 1
218 208 216 1
219 208 217 1
220 218 219 1
221 218 226 1
222 219 220 1
223 219 222 1
224 219 227 1
225 220 221 2
226 220 235 1
227 222 223 1
228 223 224 1
229 224 225 1
230 222 228 1
231 222 229 1
232 223 230 1
233 223 231 1
234 225 232 1
235 225 233 1
236 225 234 1
237 235 236 1
238 235 246 1
239 236 237 1
240 236 239 1
241 236 247 1
242 237 238 2
243 239 240 1
244 240 241 1
245 241 242 1
246 242 243 1
247 243 244 2
248 243 245 1
249 239 248 1
250 239 249 1
251 240 250 1
252 240 251 1
253 241 252 1
254 241 253 1
255 242 254 1
256 244 255 1
257 244 256 1
258 245 257 1
259 245 258 1
@<TRIPOS>SUBSTRUCTURE
1	GLU1	1	RESIDUE	1 ****	GLU
2	GLY2	16	RESIDUE	1 ****	GLY
3	PRO3	23	RESIDUE	1 ****	PRO
4	GLU4	37	RESIDUE	1 ****	GLU
5	SER5	52	RESIDUE	1 ****	SER
6	ILE6	63	RESIDUE	1 ****	ILE
7	LEU7	82	RESIDUE	1 ****	LEU
8	ASP8	101	RESIDUE	1 ****	ASP
9	GLU9	113	RESIDUE	1 ****	GLU
10	HIS10	128	RESIDUE	1 ****	HIS
11	VAL11	145	RESIDUE	1 ****	VAL
12	GLN12	161	RESIDUE	1 ****	GLN
13	ARG13	178	RESIDUE	1 ****	ARG
14	VAL14	202	RESIDUE	1 ****	VAL
15	MET15	218	RESIDUE	1 ****	MET
16	ARG16	235	RESIDUE	1 ****	ARG
