@<TRIPOS>MOLECULE
5-2
268 270 16              
SMALL
USER_CHARGES
@<TRIPOS>ATOM
1	   N	704.730	180.224	-659.759	N.3	1	GLU1	-0.516	
2	  CA	705.289	181.573	-659.759	C.3	1	GLU1	0.040	
3	   C	706.798	181.533	-659.759	C.2	1	GLU1	0.537	
4	   O	707.474	182.232	-660.528	O.2	1	GLU1	-0.582	
5	  CB	704.766	182.358	-658.522	C.3	1	GLU1	0.056	
6	  CG	705.241	183.843	-658.411	C.3	1	GLU1	0.014	
7	  CD	704.817	184.647	-657.196	C.2	1	GLU1	0.805	
8	 OE1	704.089	184.145	-656.318	O.co2	1	GLU1	-0.819	
9	 OE2	705.247	185.817	-657.124	O.co2	1	GLU1	-0.819	
10	   H	705.357	179.345	-659.759	 H	1	GLU1	0.294	
11	  HA	704.963	182.091	-660.679	 H	1	GLU1	0.111	
12	 2HB	705.055	181.827	-657.592	 H	1	GLU1	-0.017	
13	 3HB	703.659	182.348	-658.509	 H	1	GLU1	-0.017	
14	 2HG	704.931	184.428	-659.292	 H	1	GLU1	-0.043	
15	 3HG	706.341	183.910	-658.382	 H	1	GLU1	-0.043	
16	   N	707.403	180.747	-658.934	N.am	2	ASN2	-0.416	
17	  CA	708.862	180.708	-658.934	C.3	2	ASN2	0.014	
18	   C	709.393	180.353	-660.303	C.2	2	ASN2	0.597	
19	   O	710.308	180.983	-660.831	O.2	2	ASN2	-0.568	
20	  CB	709.354	179.685	-657.870	C.3	2	ASN2	-0.204	
21	  CG	708.891	179.909	-656.427	C.2	2	ASN2	0.713	
22	 ND2	709.485	180.824	-655.708	N.pl3	2	ASN2	-0.919	
23	 OD1	707.970	179.275	-655.932	O.2	2	ASN2	-0.593	
24	   H	706.874	180.167	-658.298	 H	2	ASN2	0.272	
25	  HA	709.239	181.718	-658.689	 H	2	ASN2	0.105	
26	 2HB	710.458	179.626	-657.874	 H	2	ASN2	0.080	
27	 3HB	709.025	178.667	-658.156	 H	2	ASN2	0.080	
28	1HD2	709.004	180.997	-654.822	 H	2	ASN2	0.420	
29	2HD2	710.187	181.396	-656.178	 H	2	ASN2	0.420	
30	   N	708.872	179.358	-660.937	N.am	3	PRO3	-0.255	
31	  CA	709.324	178.948	-662.258	C.3	3	PRO3	-0.027	
32	   C	708.925	179.972	-663.335	C.2	3	PRO3	0.590	
33	   O	709.749	180.355	-664.167	O.2	3	PRO3	-0.575	
34	  CB	708.620	177.594	-662.428	C.3	3	PRO3	-0.007	
35	  CG	707.336	177.746	-661.598	C.3	3	PRO3	0.019	
36	  CD	707.794	178.564	-660.388	C.3	3	PRO3	0.019	
37	  HA	710.410	178.829	-662.272	 H	3	PRO3	0.064	
38	 2HB	709.243	176.812	-661.987	 H	3	PRO3	0.025	
39	 3HB	708.422	177.345	-663.473	 H	3	PRO3	0.025	
40	 2HG	706.909	176.783	-661.307	 H	3	PRO3	0.021	
41	 3HG	706.599	178.316	-662.165	 H	3	PRO3	0.021	
42	 2HD	708.183	177.915	-659.600	 H	3	PRO3	0.039	
43	 3HD	706.997	179.200	-659.995	 H	3	PRO3	0.039	
44	   N	707.721	180.432	-663.368	N.am	4	GLU4	-0.516	
45	  CA	707.361	181.403	-664.397	C.3	4	GLU4	0.040	
46	   C	708.260	182.614	-664.336	C.2	4	GLU4	0.537	
47	   O	708.786	183.093	-665.351	O.2	4	GLU4	-0.582	
48	  CB	705.872	181.821	-664.227	C.3	4	GLU4	0.056	
49	  CG	705.324	182.824	-665.293	C.3	4	GLU4	0.014	
50	  CD	703.897	183.321	-665.149	C.2	4	GLU4	0.805	
51	 OE1	703.171	182.922	-664.219	O.co2	4	GLU4	-0.819	
52	 OE2	703.508	184.150	-665.998	O.co2	4	GLU4	-0.819	
53	   H	707.036	180.125	-662.691	 H	4	GLU4	0.294	
54	  HA	707.492	180.932	-665.389	 H	4	GLU4	0.111	
55	 2HB	705.720	182.261	-663.221	 H	4	GLU4	-0.017	
56	 3HB	705.225	180.923	-664.234	 H	4	GLU4	-0.017	
57	 2HG	705.406	182.410	-666.311	 H	4	GLU4	-0.043	
58	 3HG	705.912	183.757	-665.304	 H	4	GLU4	-0.043	
59	   N	708.487	183.167	-663.193	N.am	5	PRO5	-0.255	
60	  CA	709.340	184.336	-663.046	C.3	5	PRO5	-0.027	
61	   C	710.820	183.992	-663.285	C.2	5	PRO5	0.590	
62	   O	711.516	184.700	-664.014	O.2	5	PRO5	-0.575	
63	  CB	709.049	184.760	-661.598	C.3	5	PRO5	-0.007	
64	  CG	708.701	183.438	-660.897	C.3	5	PRO5	0.019	
65	  CD	707.913	182.671	-661.962	C.3	5	PRO5	0.019	
66	  HA	709.044	185.119	-663.748	 H	5	PRO5	0.064	
67	 2HB	708.174	185.413	-661.589	 H	5	PRO5	0.025	
68	 3HB	709.888	185.280	-661.130	 H	5	PRO5	0.025	
69	 2HG	708.121	183.588	-659.983	 H	5	PRO5	0.021	
70	 3HG	709.618	182.895	-660.662	 H	5	PRO5	0.021	
71	 2HD	706.851	182.928	-661.924	 H	5	PRO5	0.039	
72	 3HD	708.043	181.590	-661.873	 H	5	PRO5	0.039	
73	   N	711.336	182.954	-662.718	N.am	6	ILE6	-0.416	
74	  CA	712.742	182.643	-662.957	C.3	6	ILE6	-0.060	
75	   C	713.018	182.483	-664.433	C.2	6	ILE6	0.597	
76	   O	713.985	183.030	-664.984	O.2	6	ILE6	-0.568	
77	  CB	713.200	181.372	-662.132	C.3	6	ILE6	0.130	
78	 CG1	712.876	181.437	-660.604	C.3	6	ILE6	-0.043	
79	 CG2	714.720	181.061	-662.293	C.3	6	ILE6	-0.320	
80	 CD1	713.009	180.108	-659.832	C.3	6	ILE6	-0.066	
81	   H	710.775	182.366	-662.118	 H	6	ILE6	0.272	
82	  HA	713.338	183.510	-662.619	 H	6	ILE6	0.087	
83	  HB	712.636	180.508	-662.541	 H	6	ILE6	0.019	
84	2HG1	711.830	181.766	-660.461	 H	6	ILE6	0.024	
85	3HG1	713.484	182.224	-660.116	 H	6	ILE6	0.024	
86	1HG2	715.019	180.881	-663.340	 H	6	ILE6	0.088	
87	2HG2	715.356	181.881	-661.906	 H	6	ILE6	0.088	
88	3HG2	715.021	180.141	-661.759	 H	6	ILE6	0.088	
89	1HD1	712.379	179.312	-660.273	 H	6	ILE6	0.019	
90	2HD1	714.048	179.733	-659.809	 H	6	ILE6	0.019	
91	3HD1	712.693	180.224	-658.779	 H	6	ILE6	0.019	
92	   N	712.223	181.755	-665.142	N.am	7	LEU7	-0.416	
93	  CA	712.490	181.600	-666.569	C.3	7	LEU7	-0.052	
94	   C	712.540	182.943	-667.258	C.2	7	LEU7	0.597	
95	   O	713.449	183.244	-668.046	O.2	7	LEU7	-0.568	
96	  CB	711.424	180.679	-667.227	C.3	7	LEU7	-0.110	
97	  CG	711.256	179.240	-666.667	C.3	7	LEU7	0.353	
98	 CD1	710.243	178.458	-667.515	C.3	7	LEU7	-0.412	
99	 CD2	712.584	178.468	-666.602	C.3	7	LEU7	-0.412	
100	   H	711.428	181.299	-664.717	 H	7	LEU7	0.272	
101	  HA	713.492	181.152	-666.690	 H	7	LEU7	0.092	
102	 2HB	711.645	180.605	-668.310	 H	7	LEU7	0.046	
103	 3HB	710.439	181.184	-667.179	 H	7	LEU7	0.046	
104	  HG	710.849	179.317	-665.636	 H	7	LEU7	-0.036	
105	1HD1	709.259	178.963	-667.550	 H	7	LEU7	0.100	
106	2HD1	710.582	178.331	-668.560	 H	7	LEU7	0.100	
107	3HD1	710.064	177.447	-667.105	 H	7	LEU7	0.100	
108	1HD2	713.087	178.418	-667.585	 H	7	LEU7	0.100	
109	2HD2	713.290	178.943	-665.895	 H	7	LEU7	0.100	
110	3HD2	712.443	177.432	-666.244	 H	7	LEU7	0.100	
111	   N	711.609	183.804	-667.018	N.am	8	ASP8	-0.516	
112	  CA	711.658	185.103	-667.684	C.3	8	ASP8	0.038	
113	   C	712.956	185.814	-667.391	C.2	8	ASP8	0.537	
114	   O	713.630	186.348	-668.285	O.2	8	ASP8	-0.582	
115	  CB	710.440	185.975	-667.268	C.3	8	ASP8	-0.030	
116	  CG	710.341	187.343	-667.960	C.2	8	ASP8	0.799	
117	 OD1	710.673	187.443	-669.159	O.co2	8	ASP8	-0.801	
118	 OD2	709.971	188.327	-667.286	O.co2	8	ASP8	-0.801	
119	   H	710.858	183.583	-666.380	 H	8	ASP8	0.294	
120	  HA	711.616	184.933	-668.777	 H	8	ASP8	0.088	
121	 2HB	710.456	186.150	-666.177	 H	8	ASP8	-0.012	
122	 3HB	709.494	185.448	-667.472	 H	8	ASP8	-0.012	
123	   N	713.379	185.867	-666.173	N.am	9	GLU9	-0.516	
124	  CA	714.636	186.555	-665.889	C.3	9	GLU9	0.040	
125	   C	715.770	185.962	-666.691	C.2	9	GLU9	0.537	
126	   O	716.574	186.670	-667.314	O.2	9	GLU9	-0.582	
127	  CB	714.946	186.474	-664.367	C.3	9	GLU9	0.056	
128	  CG	716.242	187.212	-663.900	C.3	9	GLU9	0.014	
129	  CD	716.636	187.122	-662.437	C.2	9	GLU9	0.805	
130	 OE1	715.933	186.494	-661.622	O.co2	9	GLU9	-0.819	
131	 OE2	717.697	187.692	-662.109	O.co2	9	GLU9	-0.819	
132	   H	712.849	185.439	-665.427	 H	9	GLU9	0.294	
133	  HA	714.532	187.615	-666.181	 H	9	GLU9	0.111	
134	 2HB	715.016	185.412	-664.055	 H	9	GLU9	-0.017	
135	 3HB	714.093	186.874	-663.786	 H	9	GLU9	-0.017	
136	 2HG	716.199	188.287	-664.142	 H	9	GLU9	-0.043	
137	 3HG	717.133	186.826	-664.422	 H	9	GLU9	-0.043	
138	   N	715.905	184.680	-666.729	N.am	10	HIS10	-0.416	
139	  CA	717.002	184.106	-667.504	C.3	10	HIS10	-0.058	
140	   C	716.938	184.552	-668.944	C.2	10	HIS10	0.597	
141	   O	717.938	184.971	-669.547	O.2	10	HIS10	-0.568	
142	  CB	716.846	182.579	-667.407	C.3	10	HIS10	-0.007	
143	  CG	718.035	181.924	-666.768	C.2	10	HIS10	0.187	
144	 CD2	718.124	181.702	-665.400	C.2	10	HIS10	-0.221	
145	 ND1	719.170	181.465	-667.433	N.2	10	HIS10	-0.543	
146	 CE1	719.875	180.994	-666.388	C.2	10	HIS10	0.163	
147	 NE2	719.326	181.093	-665.147	N.pl3	10	HIS10	-0.280	
148	   H	715.263	184.082	-666.229	 H	10	HIS10	0.272	
149	  HA	717.945	184.502	-667.092	 H	10	HIS10	0.136	
150	 2HB	716.706	182.126	-668.409	 H	10	HIS10	0.037	
151	 3HB	715.947	182.286	-666.825	 H	10	HIS10	0.037	
152	 2HD	717.357	181.975	-664.681	 H	10	HIS10	0.186	
153	 1HE	720.844	180.558	-666.593	 H	10	HIS10	0.144	
154	 2HE	719.711	180.792	-664.240	 H	10	HIS10	0.334	
155	   N	715.810	184.495	-669.568	N.am	11	VAL11	-0.416	
156	  CA	715.749	184.926	-670.961	C.3	11	VAL11	-0.087	
157	   C	716.226	186.351	-671.108	C.2	11	VAL11	0.597	
158	   O	717.031	186.687	-671.985	O.2	11	VAL11	-0.568	
159	  CB	714.274	184.768	-671.507	C.3	11	VAL11	0.299	
160	 CG1	713.994	185.356	-672.917	C.3	11	VAL11	-0.319	
161	 CG2	713.784	183.302	-671.571	C.3	11	VAL11	-0.319	
162	   H	714.982	184.157	-669.099	 H	11	VAL11	0.272	
163	  HA	716.430	184.294	-671.560	 H	11	VAL11	0.097	
164	  HB	713.605	185.307	-670.802	 H	11	VAL11	-0.030	
165	1HG1	714.629	184.900	-673.700	 H	11	VAL11	0.079	
166	2HG1	712.941	185.219	-673.228	 H	11	VAL11	0.079	
167	3HG1	714.162	186.449	-672.960	 H	11	VAL11	0.079	
168	1HG2	713.873	182.795	-670.593	 H	11	VAL11	0.079	
169	2HG2	712.714	183.238	-671.851	 H	11	VAL11	0.079	
170	3HG2	714.353	182.700	-672.305	 H	11	VAL11	0.079	
171	   N	715.781	187.246	-670.293	N.am	12	GLN12	-0.416	
172	  CA	716.241	188.624	-670.433	C.3	12	GLN12	-0.003	
173	   C	717.747	188.704	-670.345	C.2	12	GLN12	0.597	
174	   O	718.412	189.350	-671.152	O.2	12	GLN12	-0.568	
175	  CB	715.576	189.484	-669.336	C.3	12	GLN12	-0.004	
176	  CG	715.915	191.010	-669.354	C.3	12	GLN12	-0.064	
177	  CD	715.339	191.916	-668.258	C.2	12	GLN12	0.695	
178	 NE2	714.562	191.412	-667.333	N.pl3	12	GLN12	-0.941	
179	 OE1	715.613	193.106	-668.215	O.2	12	GLN12	-0.609	
180	   H	715.123	186.997	-669.568	 H	12	GLN12	0.272	
181	  HA	715.944	188.997	-671.431	 H	12	GLN12	0.085	
182	 2HB	715.851	189.065	-668.345	 H	12	GLN12	0.017	
183	 3HB	714.477	189.366	-669.406	 H	12	GLN12	0.017	
184	 2HG	715.634	191.450	-670.328	 H	12	GLN12	0.035	
185	 3HG	717.008	191.162	-669.290	 H	12	GLN12	0.035	
186	1HE2	714.275	192.069	-666.605	 H	12	GLN12	0.425	
187	2HE2	714.429	190.400	-667.386	 H	12	GLN12	0.425	
188	   N	718.352	188.077	-669.394	N.am	13	ARG13	-0.348	
189	  CA	719.808	188.155	-669.309	C.3	13	ARG13	-0.264	
190	   C	720.450	187.677	-670.591	C.2	13	ARG13	0.734	
191	   O	721.347	188.308	-671.144	O.2	13	ARG13	-0.589	
192	  CB	720.284	187.317	-668.089	C.3	13	ARG13	-0.001	
193	  CG	721.773	187.509	-667.686	C.3	13	ARG13	0.039	
194	  CD	722.169	186.619	-666.496	C.3	13	ARG13	0.049	
195	  NE	723.599	186.862	-666.142	N.pl3	13	ARG13	-0.530	
196	  CZ	724.263	186.252	-665.165	C.cat	13	ARG13	0.808	
197	 NH1	723.735	185.347	-664.389	N.pl3	13	ARG13	-0.863	
198	 NH2	725.503	186.572	-664.970	N.pl3	13	ARG13	-0.863	
199	   H	717.827	187.539	-668.719	 H	13	ARG13	0.275	
200	  HA	720.086	189.217	-669.172	 H	13	ARG13	0.156	
201	 2HB	720.081	186.245	-668.293	 H	13	ARG13	0.033	
202	 3HB	719.647	187.555	-667.214	 H	13	ARG13	0.033	
203	 2HG	721.950	188.578	-667.447	 H	13	ARG13	0.029	
204	 3HG	722.433	187.283	-668.548	 H	13	ARG13	0.029	
205	 2HD	722.003	185.552	-666.764	 H	13	ARG13	0.069	
206	 3HD	721.503	186.835	-665.634	 H	13	ARG13	0.069	
207	  HE	724.162	187.545	-666.659	 H	13	ARG13	0.346	
208	1HH1	722.755	185.139	-664.596	 H	13	ARG13	0.448	
209	2HH1	724.312	184.925	-663.659	 H	13	ARG13	0.448	
210	1HH2	725.900	187.283	-665.588	 H	13	ARG13	0.448	
211	2HH2	725.995	186.094	-664.214	 H	13	ARG13	0.448	
212	   N	720.043	186.573	-671.120	N.am	14	VAL14	-0.416	
213	  CA	720.664	186.111	-672.358	C.3	14	VAL14	-0.087	
214	   C	720.546	187.154	-673.444	C.2	14	VAL14	0.597	
215	   O	721.509	187.481	-674.148	O.2	14	VAL14	-0.568	
216	  CB	720.005	184.749	-672.813	C.3	14	VAL14	0.299	
217	 CG1	720.421	184.214	-674.211	C.3	14	VAL14	-0.319	
218	 CG2	720.255	183.575	-671.836	C.3	14	VAL14	-0.319	
219	   H	719.307	186.036	-670.684	 H	14	VAL14	0.272	
220	  HA	721.743	185.953	-672.178	 H	14	VAL14	0.097	
221	  HB	718.906	184.914	-672.852	 H	14	VAL14	-0.030	
222	1HG1	721.510	184.034	-674.288	 H	14	VAL14	0.079	
223	2HG1	719.912	183.264	-674.466	 H	14	VAL14	0.079	
224	3HG1	720.148	184.910	-675.027	 H	14	VAL14	0.079	
225	1HG2	719.930	183.819	-670.808	 H	14	VAL14	0.079	
226	2HG2	719.688	182.669	-672.128	 H	14	VAL14	0.079	
227	3HG2	721.323	183.293	-671.783	 H	14	VAL14	0.079	
228	   N	719.404	187.721	-673.644	N.am	15	MET15	-0.416	
229	  CA	719.289	188.729	-674.694	C.3	15	MET15	-0.024	
230	   C	720.271	189.855	-674.475	C.2	15	MET15	0.597	
231	   O	720.982	190.293	-675.392	O.2	15	MET15	-0.568	
232	  CB	717.832	189.267	-674.749	C.3	15	MET15	0.034	
233	  CG	716.744	188.232	-675.106	C.3	15	MET15	0.002	
234	  SD	715.180	189.070	-675.412	S.3	15	MET15	-0.274	
235	  CE	714.101	187.633	-675.396	C.3	15	MET15	-0.054	
236	   H	718.603	187.471	-673.083	 H	15	MET15	0.272	
237	  HA	719.542	188.261	-675.663	 H	15	MET15	0.088	
238	 2HB	717.773	190.087	-675.491	 H	15	MET15	0.024	
239	 3HB	717.569	189.741	-673.782	 H	15	MET15	0.024	
240	 2HG	716.618	187.512	-674.275	 H	15	MET15	0.044	
241	 3HG	717.022	187.641	-675.999	 H	15	MET15	0.044	
242	 1HE	714.430	186.881	-676.136	 H	15	MET15	0.068	
243	 2HE	714.102	187.162	-674.397	 H	15	MET15	0.068	
244	 3HE	713.064	187.925	-675.637	 H	15	MET15	0.068	
245	   N	720.373	190.376	-673.299	N.am	16	ARG16	-0.348	
246	  CA	721.324	191.465	-673.089	C.3	16	ARG16	-0.264	
247	   C	722.722	191.043	-673.475	C.2	16	ARG16	0.734	
248	   O	722.964	189.926	-673.925	O.2	16	ARG16	-0.589	
249	  CB	721.256	191.908	-671.600	C.3	16	ARG16	-0.001	
250	  CG	721.997	193.232	-671.262	C.3	16	ARG16	0.039	
251	  CD	721.910	193.577	-669.766	C.3	16	ARG16	0.049	
252	  NE	722.618	194.865	-669.506	N.pl3	16	ARG16	-0.530	
253	  CZ	722.740	195.449	-668.317	C.cat	16	ARG16	0.808	
254	 NH1	722.251	194.953	-667.216	N.pl3	16	ARG16	-0.863	
255	 NH2	723.380	196.573	-668.247	N.pl3	16	ARG16	-0.863	
256	   H	719.805	190.037	-672.536	 H	16	ARG16	0.275	
257	  HA	721.033	192.304	-673.748	 H	16	ARG16	0.156	
258	 2HB	721.641	191.083	-670.965	 H	16	ARG16	0.033	
259	 3HB	720.193	192.011	-671.299	 H	16	ARG16	0.033	
260	 2HG	721.572	194.054	-671.875	 H	16	ARG16	0.029	
261	 3HG	723.063	193.158	-671.559	 H	16	ARG16	0.029	
262	 2HD	722.357	192.751	-669.171	 H	16	ARG16	0.069	
263	 3HD	720.843	193.642	-669.461	 H	16	ARG16	0.069	
264	  HE	723.063	195.386	-670.268	 H	16	ARG16	0.346	
265	1HH1	721.759	194.065	-667.340	 H	16	ARG16	0.448	
266	2HH1	722.386	195.464	-666.342	 H	16	ARG16	0.448	
267	1HH2	723.758	196.946	-669.120	 H	16	ARG16	0.448	
268	2HH2	723.462	197.007	-667.326	 H	16	ARG16	0.448	
@<TRIPOS>BOND
1 1 2 1
2 1 10 1
3 2 3 1
4 2 5 1
5 2 11 1
6 3 4 2
7 3 16 1
8 5 6 1
9 6 7 1
10 7 8 2
11 7 9 1
12 5 12 1
13 5 13 1
14 6 14 1
15 6 15 1
16 16 17 1
17 16 24 1
18 17 18 1
19 17 20 1
20 17 25 1
21 18 19 2
22 18 30 1
23 20 21 1
24 21 22 1
25 21 23 2
26 20 26 1
27 20 27 1
28 22 28 1
29 22 29 1
30 30 31 1
31 30 36 1
32 31 32 1
33 31 34 1
34 31 37 1
35 32 33 2
36 32 44 1
37 34 35 1
38 35 36 1
39 34 38 1
40 34 39 1
41 35 40 1
42 35 41 1
43 36 42 1
44 36 43 1
45 44 45 1
46 44 53 1
47 45 46 1
48 45 48 1
49 45 54 1
50 46 47 2
51 46 59 1
52 48 49 1
53 49 50 1
54 50 51 2
55 50 52 1
56 48 55 1
57 48 56 1
58 49 57 1
59 49 58 1
60 59 60 1
61 59 65 1
62 60 61 1
63 60 63 1
64 60 66 1
65 61 62 2
66 61 73 1
67 63 64 1
68 64 65 1
69 63 67 1
70 63 68 1
71 64 69 1
72 64 70 1
73 65 71 1
74 65 72 1
75 73 74 1
76 73 81 1
77 74 75 1
78 74 77 1
79 74 82 1
80 75 76 2
81 75 92 1
82 77 78 1
83 77 79 1
84 78 80 1
85 77 83 1
86 78 84 1
87 78 85 1
88 79 86 1
89 79 87 1
90 79 88 1
91 80 89 1
92 80 90 1
93 80 91 1
94 92 93 1
95 92 100 1
96 93 94 1
97 93 96 1
98 93 101 1
99 94 95 2
100 94 111 1
101 96 97 1
102 97 98 1
103 97 99 1
104 96 102 1
105 96 103 1
106 97 104 1
107 98 105 1
108 98 106 1
109 98 107 1
110 99 108 1
111 99 109 1
112 99 110 1
113 111 112 1
114 111 119 1
115 112 113 1
116 112 115 1
117 112 120 1
118 113 114 2
119 113 123 1
120 115 116 1
121 116 117 2
122 116 118 1
123 115 121 1
124 115 122 1
125 123 124 1
126 123 132 1
127 124 125 1
128 124 127 1
129 124 133 1
130 125 126 2
131 125 138 1
132 127 128 1
133 128 129 1
134 129 130 2
135 129 131 1
136 127 134 1
137 127 135 1
138 128 136 1
139 128 137 1
140 138 139 1
141 138 148 1
142 139 140 1
143 139 142 1
144 139 149 1
145 140 141 2
146 140 155 1
147 142 143 1
148 143 144 2
149 144 147 1
150 143 145 1
151 145 146 2
152 146 147 1
153 142 150 1
154 142 151 1
155 144 152 1
156 146 153 1
157 147 154 1
158 155 156 1
159 155 162 1
160 156 157 1
161 156 159 1
162 156 163 1
163 157 158 2
164 157 171 1
165 159 160 1
166 159 161 1
167 159 164 1
168 160 165 1
169 160 166 1
170 160 167 1
171 161 168 1
172 161 169 1
173 161 170 1
174 171 172 1
175 171 180 1
176 172 173 1
177 172 175 1
178 172 181 1
179 173 174 2
180 173 188 1
181 175 176 1
182 176 177 1
183 177 178 1
184 177 179 2
185 175 182 1
186 175 183 1
187 176 184 1
188 176 185 1
189 178 186 1
190 178 187 1
191 188 189 1
192 188 199 1
193 189 190 1
194 189 192 1
195 189 200 1
196 190 191 2
197 190 212 1
198 192 193 1
199 193 194 1
200 194 195 1
201 195 196 1
202 196 197 2
203 196 198 1
204 192 201 1
205 192 202 1
206 193 203 1
207 193 204 1
208 194 205 1
209 194 206 1
210 195 207 1
211 197 208 1
212 197 209 1
213 198 210 1
214 198 211 1
215 212 213 1
216 212 219 1
217 213 214 1
218 213 216 1
219 213 220 1
220 214 215 2
221 214 228 1
222 216 217 1
223 216 218 1
224 216 221 1
225 217 222 1
226 217 223 1
227 217 224 1
228 218 225 1
229 218 226 1
230 218 227 1
231 228 229 1
232 228 236 1
233 229 230 1
234 229 232 1
235 229 237 1
236 230 231 2
237 230 245 1
238 232 233 1
239 233 234 1
240 234 235 1
241 232 238 1
242 232 239 1
243 233 240 1
244 233 241 1
245 235 242 1
246 235 243 1
247 235 244 1
248 245 246 1
249 245 256 1
250 246 247 1
251 246 249 1
252 246 257 1
253 247 248 2
254 249 250 1
255 250 251 1
256 251 252 1
257 252 253 1
258 253 254 2
259 253 255 1
260 249 258 1
261 249 259 1
262 250 260 1
263 250 261 1
264 251 262 1
265 251 263 1
266 252 264 1
267 254 265 1
268 254 266 1
269 255 267 1
270 255 268 1
@<TRIPOS>SUBSTRUCTURE
1	GLU1	1	RESIDUE	1 ****	GLU
2	ASN2	16	RESIDUE	1 ****	ASN
3	PRO3	30	RESIDUE	1 ****	PRO
4	GLU4	44	RESIDUE	1 ****	GLU
5	PRO5	59	RESIDUE	1 ****	PRO
6	ILE6	73	RESIDUE	1 ****	ILE
7	LEU7	92	RESIDUE	1 ****	LEU
8	ASP8	111	RESIDUE	1 ****	ASP
9	GLU9	123	RESIDUE	1 ****	GLU
10	HIS10	138	RESIDUE	1 ****	HIS
11	VAL11	155	RESIDUE	1 ****	VAL
12	GLN12	171	RESIDUE	1 ****	GLN
13	ARG13	188	RESIDUE	1 ****	ARG
14	VAL14	212	RESIDUE	1 ****	VAL
15	MET15	228	RESIDUE	1 ****	MET
16	ARG16	245	RESIDUE	1 ****	ARG
