@<TRIPOS>MOLECULE
8-10
277 280 16              
SMALL
USER_CHARGES
@<TRIPOS>ATOM
1	   N	1263.283	364.883	-1262.374	N.3	1	GLU1	-0.516	
2	  CA	1263.842	366.232	-1262.374	C.3	1	GLU1	0.040	
3	   C	1265.351	366.192	-1262.374	C.2	1	GLU1	0.537	
4	   O	1266.027	366.891	-1263.142	O.2	1	GLU1	-0.582	
5	  CB	1263.319	367.017	-1261.137	C.3	1	GLU1	0.056	
6	  CG	1263.794	368.502	-1261.026	C.3	1	GLU1	0.014	
7	  CD	1263.370	369.306	-1259.811	C.2	1	GLU1	0.805	
8	 OE1	1262.642	368.804	-1258.933	O.co2	1	GLU1	-0.819	
9	 OE2	1263.800	370.476	-1259.739	O.co2	1	GLU1	-0.819	
10	   H	1263.910	364.004	-1262.374	 H	1	GLU1	0.294	
11	  HA	1263.516	366.750	-1263.294	 H	1	GLU1	0.111	
12	 2HB	1263.608	366.486	-1260.207	 H	1	GLU1	-0.017	
13	 3HB	1262.212	367.007	-1261.124	 H	1	GLU1	-0.017	
14	 2HG	1263.484	369.087	-1261.907	 H	1	GLU1	-0.043	
15	 3HG	1264.894	368.569	-1260.997	 H	1	GLU1	-0.043	
16	   N	1265.956	365.406	-1261.549	N.am	2	ASN2	-0.416	
17	  CA	1267.415	365.367	-1261.549	C.3	2	ASN2	0.014	
18	   C	1267.947	365.012	-1262.917	C.2	2	ASN2	0.597	
19	   O	1268.861	365.642	-1263.446	O.2	2	ASN2	-0.568	
20	  CB	1267.907	364.344	-1260.484	C.3	2	ASN2	-0.204	
21	  CG	1267.444	364.568	-1259.041	C.2	2	ASN2	0.713	
22	 ND2	1268.039	365.483	-1258.323	N.pl3	2	ASN2	-0.919	
23	 OD1	1266.524	363.934	-1258.547	O.2	2	ASN2	-0.593	
24	   H	1265.428	364.826	-1260.912	 H	2	ASN2	0.272	
25	  HA	1267.793	366.377	-1261.303	 H	2	ASN2	0.105	
26	 2HB	1269.012	364.285	-1260.488	 H	2	ASN2	0.080	
27	 3HB	1267.578	363.326	-1260.770	 H	2	ASN2	0.080	
28	1HD2	1267.558	365.656	-1257.436	 H	2	ASN2	0.420	
29	2HD2	1268.740	366.055	-1258.792	 H	2	ASN2	0.420	
30	   N	1267.425	364.017	-1263.551	N.am	3	PRO3	-0.255	
31	  CA	1267.877	363.607	-1264.873	C.3	3	PRO3	-0.027	
32	   C	1267.479	364.631	-1265.950	C.2	3	PRO3	0.590	
33	   O	1268.302	365.014	-1266.781	O.2	3	PRO3	-0.575	
34	  CB	1267.173	362.253	-1265.042	C.3	3	PRO3	-0.007	
35	  CG	1265.889	362.405	-1264.212	C.3	3	PRO3	0.019	
36	  CD	1266.347	363.224	-1263.002	C.3	3	PRO3	0.019	
37	  HA	1268.963	363.488	-1264.887	 H	3	PRO3	0.064	
38	 2HB	1267.796	361.472	-1264.601	 H	3	PRO3	0.025	
39	 3HB	1266.974	362.004	-1266.088	 H	3	PRO3	0.025	
40	 2HG	1265.462	361.443	-1263.921	 H	3	PRO3	0.021	
41	 3HG	1265.152	362.976	-1264.779	 H	3	PRO3	0.021	
42	 2HD	1266.736	362.574	-1262.215	 H	3	PRO3	0.039	
43	 3HD	1265.551	363.859	-1262.609	 H	3	PRO3	0.039	
44	   N	1266.274	365.091	-1265.982	N.am	4	GLU4	-0.516	
45	  CA	1265.914	366.062	-1267.012	C.3	4	GLU4	0.040	
46	   C	1266.813	367.273	-1266.950	C.2	4	GLU4	0.537	
47	   O	1267.339	367.753	-1267.965	O.2	4	GLU4	-0.582	
48	  CB	1264.425	366.481	-1266.841	C.3	4	GLU4	0.056	
49	  CG	1263.877	367.484	-1267.907	C.3	4	GLU4	0.014	
50	  CD	1262.451	367.981	-1267.763	C.2	4	GLU4	0.805	
51	 OE1	1261.724	367.582	-1266.832	O.co2	4	GLU4	-0.819	
52	 OE2	1262.061	368.810	-1268.611	O.co2	4	GLU4	-0.819	
53	   H	1265.590	364.784	-1265.305	 H	4	GLU4	0.294	
54	  HA	1266.045	365.592	-1268.003	 H	4	GLU4	0.111	
55	 2HB	1264.273	366.921	-1265.834	 H	4	GLU4	-0.017	
56	 3HB	1263.778	365.583	-1266.847	 H	4	GLU4	-0.017	
57	 2HG	1263.959	367.069	-1268.924	 H	4	GLU4	-0.043	
58	 3HG	1264.465	368.417	-1267.918	 H	4	GLU4	-0.043	
59	   N	1267.040	367.826	-1265.807	N.am	5	SER5	-0.416	
60	  CA	1267.910	368.997	-1265.749	C.3	5	SER5	-0.025	
61	   C	1269.269	368.692	-1266.335	C.2	5	SER5	0.597	
62	   O	1269.816	369.445	-1267.140	O.2	5	SER5	-0.568	
63	  CB	1268.021	369.529	-1264.298	C.3	5	SER5	0.212	
64	  OG	1268.753	368.650	-1263.438	O.3	5	SER5	-0.655	
65	   H	1266.624	367.454	-1264.966	 H	5	SER5	0.272	
66	  HA	1267.460	369.787	-1266.378	 H	5	SER5	0.084	
67	 2HB	1267.022	369.723	-1263.865	 H	5	SER5	0.035	
68	 3HB	1268.527	370.515	-1264.301	 H	5	SER5	0.035	
69	  HG	1268.265	367.825	-1263.387	 H	5	SER5	0.428	
70	   N	1269.873	367.609	-1265.981	N.am	6	ILE6	-0.416	
71	  CA	1271.187	367.314	-1266.547	C.3	6	ILE6	-0.060	
72	   C	1271.129	367.277	-1268.055	C.2	6	ILE6	0.597	
73	   O	1271.964	367.865	-1268.759	O.2	6	ILE6	-0.568	
74	  CB	1271.786	365.978	-1265.947	C.3	6	ILE6	0.130	
75	 CG1	1271.806	365.916	-1264.386	C.3	6	ILE6	-0.043	
76	 CG2	1273.228	365.677	-1266.463	C.3	6	ILE6	-0.320	
77	 CD1	1272.076	364.526	-1263.772	C.3	6	ILE6	-0.066	
78	   H	1269.445	366.974	-1265.322	 H	6	ILE6	0.272	
79	  HA	1271.861	368.149	-1266.279	 H	6	ILE6	0.087	
80	  HB	1271.129	365.152	-1266.292	 H	6	ILE6	0.019	
81	2HG1	1270.824	366.235	-1263.990	 H	6	ILE6	0.024	
82	3HG1	1272.522	366.658	-1263.982	 H	6	ILE6	0.024	
83	1HG2	1273.286	365.583	-1267.561	 H	6	ILE6	0.088	
84	2HG2	1273.950	366.459	-1266.161	 H	6	ILE6	0.088	
85	3HG2	1273.618	364.714	-1266.084	 H	6	ILE6	0.088	
86	1HD1	1271.348	363.772	-1264.126	 H	6	ILE6	0.019	
87	2HD1	1273.087	364.148	-1264.007	 H	6	ILE6	0.019	
88	3HD1	1272.000	364.556	-1262.669	 H	6	ILE6	0.019	
89	   N	1270.183	366.613	-1268.629	N.am	7	LEU7	-0.416	
90	  CA	1270.128	366.578	-1270.087	C.3	7	LEU7	-0.052	
91	   C	1270.056	367.973	-1270.659	C.2	7	LEU7	0.597	
92	   O	1270.776	368.336	-1271.601	O.2	7	LEU7	-0.568	
93	  CB	1268.925	365.717	-1270.568	C.3	7	LEU7	-0.110	
94	  CG	1268.852	364.238	-1270.101	C.3	7	LEU7	0.353	
95	 CD1	1267.663	363.532	-1270.767	C.3	7	LEU7	-0.412	
96	 CD2	1270.146	363.459	-1270.393	C.3	7	LEU7	-0.412	
97	   H	1269.491	366.126	-1268.077	 H	7	LEU7	0.272	
98	  HA	1271.070	366.138	-1270.462	 H	7	LEU7	0.092	
99	 2HB	1268.902	365.733	-1271.675	 H	7	LEU7	0.046	
100	 3HB	1267.985	366.220	-1270.263	 H	7	LEU7	0.046	
101	  HG	1268.683	364.230	-1269.004	 H	7	LEU7	-0.036	
102	1HD1	1266.705	364.041	-1270.544	 H	7	LEU7	0.100	
103	2HD1	1267.762	363.492	-1271.868	 H	7	LEU7	0.100	
104	3HD1	1267.556	362.491	-1270.411	 H	7	LEU7	0.100	
105	1HD2	1270.421	363.489	-1271.463	 H	7	LEU7	0.100	
106	2HD2	1270.999	363.870	-1269.822	 H	7	LEU7	0.100	
107	3HD2	1270.065	362.396	-1270.097	 H	7	LEU7	0.100	
108	   N	1269.218	368.813	-1270.153	N.am	8	TRP8	-0.416	
109	  CA	1269.148	370.163	-1270.705	C.3	8	TRP8	-0.027	
110	   C	1270.495	370.843	-1270.648	C.2	8	TRP8	0.597	
111	   O	1270.964	371.443	-1271.614	O.2	8	TRP8	-0.568	
112	  CB	1268.107	370.989	-1269.899	C.3	8	TRP8	-0.005	
113	  CG	1266.660	370.507	-1270.037	C.2	8	TRP8	-0.141	
114	 CD1	1265.987	369.657	-1269.136	C.2	8	TRP8	-0.164	
115	 CD2	1265.783	370.723	-1271.080	C.2	8	TRP8	0.124	
116	 CE2	1264.592	370.009	-1270.801	C.2	8	TRP8	0.138	
117	 CE3	1265.916	371.464	-1272.283	C.2	8	TRP8	-0.239	
118	 NE1	1264.693	369.337	-1269.592	N.pl3	8	TRP8	-0.342	
119	 CZ2	1263.518	370.040	-1271.718	C.2	8	TRP8	-0.260	
120	 CZ3	1264.839	371.485	-1273.169	C.2	8	TRP8	-0.197	
121	 CH2	1263.656	370.786	-1272.891	C.2	8	TRP8	-0.113	
122	   H	1268.621	368.542	-1269.385	 H	8	TRP8	0.272	
123	  HA	1268.849	370.104	-1271.769	 H	8	TRP8	0.112	
124	 2HB	1268.137	372.050	-1270.210	 H	8	TRP8	0.034	
125	 3HB	1268.386	371.011	-1268.827	 H	8	TRP8	0.034	
126	 1HD	1266.432	369.263	-1268.232	 H	8	TRP8	0.206	
127	 1HE	1264.004	368.712	-1269.160	 H	8	TRP8	0.341	
128	 3HE	1266.827	372.000	-1272.509	 H	8	TRP8	0.170	
129	 2HZ	1262.608	369.497	-1271.510	 H	8	TRP8	0.157	
130	 3HZ	1264.921	372.051	-1274.086	 H	8	TRP8	0.145	
131	 2HH	1262.839	370.825	-1273.594	 H	8	TRP8	0.142	
132	   N	1271.175	370.793	-1269.553	N.am	9	GLU9	-0.516	
133	  CA	1272.478	371.451	-1269.497	C.3	9	GLU9	0.040	
134	   C	1273.396	370.923	-1270.573	C.2	9	GLU9	0.537	
135	   O	1274.060	371.678	-1271.299	O.2	9	GLU9	-0.582	
136	  CB	1273.112	371.243	-1268.092	C.3	9	GLU9	0.056	
137	  CG	1274.494	371.935	-1267.863	C.3	9	GLU9	0.014	
138	  CD	1275.196	371.722	-1266.535	C.2	9	GLU9	0.805	
139	 OE1	1274.675	371.030	-1265.638	O.co2	9	GLU9	-0.819	
140	 OE2	1276.315	372.259	-1266.403	O.co2	9	GLU9	-0.819	
141	   H	1270.812	370.306	-1268.746	 H	9	GLU9	0.294	
142	  HA	1272.336	372.532	-1269.672	 H	9	GLU9	0.111	
143	 2HB	1273.225	370.158	-1267.889	 H	9	GLU9	-0.017	
144	 3HB	1272.414	371.596	-1267.308	 H	9	GLU9	-0.017	
145	 2HG	1274.422	373.026	-1268.002	 H	9	GLU9	-0.043	
146	 3HG	1275.241	371.590	-1268.597	 H	9	GLU9	-0.043	
147	   N	1273.493	369.648	-1270.743	N.am	10	HIS10	-0.416	
148	  CA	1274.381	369.137	-1271.784	C.3	10	HIS10	-0.058	
149	   C	1274.014	369.702	-1273.135	C.2	10	HIS10	0.597	
150	   O	1274.866	370.167	-1273.906	O.2	10	HIS10	-0.568	
151	  CB	1274.217	367.609	-1271.779	C.3	10	HIS10	-0.007	
152	  CG	1275.503	366.898	-1271.471	C.2	10	HIS10	0.187	
153	 CD2	1275.884	366.563	-1270.179	C.2	10	HIS10	-0.221	
154	 ND1	1276.455	366.493	-1272.404	N.2	10	HIS10	-0.543	
155	 CE1	1277.362	365.935	-1271.581	C.2	10	HIS10	0.163	
156	 NE2	1277.099	365.932	-1270.245	N.pl3	10	HIS10	-0.280	
157	   H	1272.962	369.013	-1270.165	 H	10	HIS10	0.272	
158	  HA	1275.400	369.495	-1271.558	 H	10	HIS10	0.136	
159	 2HB	1273.852	367.242	-1272.759	 H	10	HIS10	0.037	
160	 3HB	1273.462	367.271	-1271.039	 H	10	HIS10	0.037	
161	 2HD	1275.298	366.778	-1269.290	 H	10	HIS10	0.186	
162	 1HE	1278.253	365.514	-1272.028	 H	10	HIS10	0.144	
163	 2HE	1277.666	365.554	-1269.472	 H	10	HIS10	0.334	
164	   N	1272.776	369.701	-1273.498	N.am	11	VAL11	-0.416	
165	  CA	1272.421	370.247	-1274.804	C.3	11	VAL11	-0.087	
166	   C	1272.885	371.678	-1274.937	C.2	11	VAL11	0.597	
167	   O	1273.486	372.084	-1275.940	O.2	11	VAL11	-0.568	
168	  CB	1270.860	370.140	-1275.024	C.3	11	VAL11	0.299	
169	 CG1	1270.291	370.844	-1276.286	C.3	11	VAL11	-0.319	
170	 CG2	1270.336	368.686	-1275.097	C.3	11	VAL11	-0.319	
171	   H	1272.063	369.328	-1272.887	 H	11	VAL11	0.272	
172	  HA	1272.941	369.665	-1275.587	 H	11	VAL11	0.097	
173	  HB	1270.372	370.620	-1274.148	 H	11	VAL11	-0.030	
174	1HG1	1270.730	370.453	-1277.224	 H	11	VAL11	0.079	
175	2HG1	1269.192	370.737	-1276.368	 H	11	VAL11	0.079	
176	3HG1	1270.469	371.937	-1276.277	 H	11	VAL11	0.079	
177	1HG2	1270.625	368.099	-1274.207	 H	11	VAL11	0.079	
178	2HG2	1269.230	368.649	-1275.140	 H	11	VAL11	0.079	
179	3HG2	1270.717	368.146	-1275.984	 H	11	VAL11	0.079	
180	   N	1272.648	372.503	-1273.974	N.am	12	GLN12	-0.416	
181	  CA	1273.096	373.886	-1274.101	C.3	12	GLN12	-0.003	
182	   C	1274.586	373.954	-1274.339	C.2	12	GLN12	0.597	
183	   O	1275.073	374.663	-1275.217	O.2	12	GLN12	-0.568	
184	  CB	1272.705	374.653	-1272.818	C.3	12	GLN12	-0.004	
185	  CG	1273.064	376.175	-1272.786	C.3	12	GLN12	-0.064	
186	  CD	1272.762	376.988	-1271.521	C.2	12	GLN12	0.695	
187	 NE2	1272.195	376.411	-1270.492	N.pl3	12	GLN12	-0.941	
188	 OE1	1273.064	378.169	-1271.443	O.2	12	GLN12	-0.609	
189	   H	1272.159	372.197	-1273.145	 H	12	GLN12	0.272	
190	  HA	1272.596	374.343	-1274.976	 H	12	GLN12	0.085	
191	 2HB	1273.181	374.153	-1271.949	 H	12	GLN12	0.017	
192	 3HB	1271.615	374.546	-1272.655	 H	12	GLN12	0.017	
193	 2HG	1272.587	376.696	-1273.637	 H	12	GLN12	0.035	
194	 3HG	1274.148	376.318	-1272.952	 H	12	GLN12	0.035	
195	1HE2	1272.088	377.006	-1269.669	 H	12	GLN12	0.425	
196	2HE2	1272.032	375.408	-1270.596	 H	12	GLN12	0.425	
197	   N	1275.371	373.247	-1273.598	N.am	13	ARG13	-0.348	
198	  CA	1276.811	373.314	-1273.829	C.3	13	ARG13	-0.264	
199	   C	1277.147	372.943	-1275.254	C.2	13	ARG13	0.734	
200	   O	1277.915	373.615	-1275.938	O.2	13	ARG13	-0.589	
201	  CB	1277.525	372.375	-1272.815	C.3	13	ARG13	-0.001	
202	  CG	1279.069	372.528	-1272.734	C.3	13	ARG13	0.039	
203	  CD	1279.697	371.540	-1271.737	C.3	13	ARG13	0.049	
204	  NE	1281.174	371.748	-1271.687	N.pl3	13	ARG13	-0.530	
205	  CZ	1282.022	371.056	-1270.932	C.cat	13	ARG13	0.808	
206	 NH1	1281.657	370.091	-1270.135	N.pl3	13	ARG13	-0.863	
207	 NH2	1283.281	371.356	-1270.988	N.pl3	13	ARG13	-0.863	
208	   H	1274.995	372.657	-1272.870	 H	13	ARG13	0.275	
209	  HA	1277.135	374.360	-1273.670	 H	13	ARG13	0.156	
210	 2HB	1277.258	371.324	-1273.055	 H	13	ARG13	0.033	
211	 3HB	1277.099	372.541	-1271.805	 H	13	ARG13	0.033	
212	 2HG	1279.317	373.573	-1272.454	 H	13	ARG13	0.029	
213	 3HG	1279.520	372.373	-1273.736	 H	13	ARG13	0.029	
214	 2HD	1279.453	370.500	-1272.047	 H	13	ARG13	0.069	
215	 3HD	1279.240	371.685	-1270.734	 H	13	ARG13	0.069	
216	  HE	1281.625	372.471	-1272.257	 H	13	ARG13	0.346	
217	1HH1	1280.652	369.905	-1270.138	 H	13	ARG13	0.448	
218	2HH1	1282.371	369.608	-1269.586	 H	13	ARG13	0.448	
219	1HH2	1283.549	372.114	-1271.619	 H	13	ARG13	0.448	
220	2HH2	1283.917	370.814	-1270.400	 H	13	ARG13	0.448	
221	   N	1276.611	371.889	-1275.769	N.am	14	VAL14	-0.416	
222	  CA	1276.936	371.530	-1277.146	C.3	14	VAL14	-0.087	
223	   C	1276.605	372.660	-1278.092	C.2	14	VAL14	0.597	
224	   O	1277.399	373.042	-1278.961	O.2	14	VAL14	-0.568	
225	  CB	1276.164	370.213	-1277.554	C.3	14	VAL14	0.299	
226	 CG1	1276.253	369.795	-1279.047	C.3	14	VAL14	-0.319	
227	 CG2	1276.596	368.960	-1276.754	C.3	14	VAL14	-0.319	
228	   H	1275.977	371.320	-1275.227	 H	14	VAL14	0.272	
229	  HA	1278.024	371.354	-1277.221	 H	14	VAL14	0.097	
230	  HB	1275.088	370.384	-1277.338	 H	14	VAL14	-0.030	
231	1HG1	1277.294	369.619	-1279.377	 H	14	VAL14	0.079	
232	2HG1	1275.680	368.872	-1279.260	 H	14	VAL14	0.079	
233	3HG1	1275.824	370.558	-1279.725	 H	14	VAL14	0.079	
234	1HG2	1276.509	369.118	-1275.663	 H	14	VAL14	0.079	
235	2HG2	1275.961	368.084	-1276.986	 H	14	VAL14	0.079	
236	3HG2	1277.644	368.671	-1276.960	 H	14	VAL14	0.079	
237	   N	1275.461	373.246	-1277.990	N.am	15	MET15	-0.416	
238	  CA	1275.140	374.339	-1278.903	C.3	15	MET15	-0.024	
239	   C	1276.170	375.439	-1278.814	C.2	15	MET15	0.597	
240	   O	1276.672	375.950	-1279.827	O.2	15	MET15	-0.568	
241	  CB	1273.719	374.884	-1278.593	C.3	15	MET15	0.034	
242	  CG	1272.557	373.886	-1278.786	C.3	15	MET15	0.002	
243	  SD	1270.983	374.751	-1278.671	S.3	15	MET15	-0.274	
244	  CE	1269.902	373.321	-1278.535	C.3	15	MET15	-0.054	
245	   H	1274.796	372.953	-1277.288	 H	15	MET15	0.272	
246	  HA	1275.166	373.952	-1279.938	 H	15	MET15	0.088	
247	 2HB	1273.516	375.763	-1279.235	 H	15	MET15	0.024	
248	 3HB	1273.683	375.276	-1277.557	 H	15	MET15	0.024	
249	 2HG	1272.600	373.100	-1278.008	 H	15	MET15	0.044	
250	 3HG	1272.620	373.371	-1279.762	 H	15	MET15	0.044	
251	 1HE	1270.046	372.633	-1279.388	 H	15	MET15	0.068	
252	 2HE	1270.111	372.768	-1277.602	 H	15	MET15	0.068	
253	 3HE	1268.844	373.636	-1278.518	 H	15	MET15	0.068	
254	   N	1276.538	375.860	-1277.652	N.am	16	ARG16	-0.348	
255	  CA	1277.535	376.924	-1277.568	C.3	16	ARG16	-0.264	
256	   C	1278.806	376.531	-1278.284	C.2	16	ARG16	0.734	
257	   O	1278.920	375.455	-1278.866	O.2	16	ARG16	-0.589	
258	  CB	1277.804	377.241	-1276.069	C.3	16	ARG16	-0.001	
259	  CG	1278.629	378.530	-1275.796	C.3	16	ARG16	0.039	
260	  CD	1278.878	378.748	-1274.294	C.3	16	ARG16	0.049	
261	  NE	1279.654	380.007	-1274.093	N.pl3	16	ARG16	-0.530	
262	  CZ	1280.045	380.489	-1272.917	C.cat	16	ARG16	0.808	
263	 NH1	1279.798	379.904	-1271.779	N.pl3	16	ARG16	-0.863	
264	 NH2	1280.709	381.602	-1272.898	N.pl3	16	ARG16	-0.863	
265	   H	1276.144	375.459	-1276.813	 H	16	ARG16	0.275	
266	  HA	1277.126	377.817	-1278.077	 H	16	ARG16	0.156	
267	 2HB	1278.301	376.365	-1275.603	 H	16	ARG16	0.033	
268	 3HB	1276.835	377.321	-1275.536	 H	16	ARG16	0.033	
269	 2HG	1278.098	379.401	-1276.232	 H	16	ARG16	0.029	
270	 3HG	1279.602	378.477	-1276.325	 H	16	ARG16	0.029	
271	 2HD	1279.427	377.874	-1273.881	 H	16	ARG16	0.069	
272	 3HD	1277.905	378.791	-1273.759	 H	16	ARG16	0.069	
273	  HE	1279.932	380.589	-1274.890	 H	16	ARG16	0.346	
274	1HH1	1279.272	379.031	-1271.864	 H	16	ARG16	0.448	
275	2HH1	1280.132	380.340	-1270.917	 H	16	ARG16	0.448	
276	1HH2	1280.895	382.046	-1273.799	 H	16	ARG16	0.448	
277	2HH2	1280.999	381.957	-1271.985	 H	16	ARG16	0.448	
@<TRIPOS>BOND
1 1 2 1
2 1 10 1
3 2 3 1
4 2 5 1
5 2 11 1
6 3 4 2
7 3 16 1
8 5 6 1
9 6 7 1
10 7 8 2
11 7 9 1
12 5 12 1
13 5 13 1
14 6 14 1
15 6 15 1
16 16 17 1
17 16 24 1
18 17 18 1
19 17 20 1
20 17 25 1
21 18 19 2
22 18 30 1
23 20 21 1
24 21 22 1
25 21 23 2
26 20 26 1
27 20 27 1
28 22 28 1
29 22 29 1
30 30 31 1
31 30 36 1
32 31 32 1
33 31 34 1
34 31 37 1
35 32 33 2
36 32 44 1
37 34 35 1
38 35 36 1
39 34 38 1
40 34 39 1
41 35 40 1
42 35 41 1
43 36 42 1
44 36 43 1
45 44 45 1
46 44 53 1
47 45 46 1
48 45 48 1
49 45 54 1
50 46 47 2
51 46 59 1
52 48 49 1
53 49 50 1
54 50 51 2
55 50 52 1
56 48 55 1
57 48 56 1
58 49 57 1
59 49 58 1
60 59 60 1
61 59 65 1
62 60 61 1
63 60 63 1
64 60 66 1
65 61 62 2
66 61 70 1
67 63 64 1
68 63 67 1
69 63 68 1
70 64 69 1
71 70 71 1
72 70 78 1
73 71 72 1
74 71 74 1
75 71 79 1
76 72 73 2
77 72 89 1
78 74 75 1
79 74 76 1
80 75 77 1
81 74 80 1
82 75 81 1
83 75 82 1
84 76 83 1
85 76 84 1
86 76 85 1
87 77 86 1
88 77 87 1
89 77 88 1
90 89 90 1
91 89 97 1
92 90 91 1
93 90 93 1
94 90 98 1
95 91 92 2
96 91 108 1
97 93 94 1
98 94 95 1
99 94 96 1
100 93 99 1
101 93 100 1
102 94 101 1
103 95 102 1
104 95 103 1
105 95 104 1
106 96 105 1
107 96 106 1
108 96 107 1
109 108 109 1
110 108 122 1
111 109 110 1
112 109 112 1
113 109 123 1
114 110 111 2
115 110 132 1
116 112 113 1
117 113 115 1
118 113 114 2
119 115 117 1
120 115 116 2
121 116 118 1
122 117 120 2
123 114 118 1
124 116 119 1
125 120 121 1
126 119 121 2
127 112 124 1
128 112 125 1
129 114 126 1
130 118 127 1
131 117 128 1
132 119 129 1
133 120 130 1
134 121 131 1
135 132 133 1
136 132 141 1
137 133 134 1
138 133 136 1
139 133 142 1
140 134 135 2
141 134 147 1
142 136 137 1
143 137 138 1
144 138 139 2
145 138 140 1
146 136 143 1
147 136 144 1
148 137 145 1
149 137 146 1
150 147 148 1
151 147 157 1
152 148 149 1
153 148 151 1
154 148 158 1
155 149 150 2
156 149 164 1
157 151 152 1
158 152 153 2
159 153 156 1
160 152 154 1
161 154 155 2
162 155 156 1
163 151 159 1
164 151 160 1
165 153 161 1
166 155 162 1
167 156 163 1
168 164 165 1
169 164 171 1
170 165 166 1
171 165 168 1
172 165 172 1
173 166 167 2
174 166 180 1
175 168 169 1
176 168 170 1
177 168 173 1
178 169 174 1
179 169 175 1
180 169 176 1
181 170 177 1
182 170 178 1
183 170 179 1
184 180 181 1
185 180 189 1
186 181 182 1
187 181 184 1
188 181 190 1
189 182 183 2
190 182 197 1
191 184 185 1
192 185 186 1
193 186 187 1
194 186 188 2
195 184 191 1
196 184 192 1
197 185 193 1
198 185 194 1
199 187 195 1
200 187 196 1
201 197 198 1
202 197 208 1
203 198 199 1
204 198 201 1
205 198 209 1
206 199 200 2
207 199 221 1
208 201 202 1
209 202 203 1
210 203 204 1
211 204 205 1
212 205 206 2
213 205 207 1
214 201 210 1
215 201 211 1
216 202 212 1
217 202 213 1
218 203 214 1
219 203 215 1
220 204 216 1
221 206 217 1
222 206 218 1
223 207 219 1
224 207 220 1
225 221 222 1
226 221 228 1
227 222 223 1
228 222 225 1
229 222 229 1
230 223 224 2
231 223 237 1
232 225 226 1
233 225 227 1
234 225 230 1
235 226 231 1
236 226 232 1
237 226 233 1
238 227 234 1
239 227 235 1
240 227 236 1
241 237 238 1
242 237 245 1
243 238 239 1
244 238 241 1
245 238 246 1
246 239 240 2
247 239 254 1
248 241 242 1
249 242 243 1
250 243 244 1
251 241 247 1
252 241 248 1
253 242 249 1
254 242 250 1
255 244 251 1
256 244 252 1
257 244 253 1
258 254 255 1
259 254 265 1
260 255 256 1
261 255 258 1
262 255 266 1
263 256 257 2
264 258 259 1
265 259 260 1
266 260 261 1
267 261 262 1
268 262 263 2
269 262 264 1
270 258 267 1
271 258 268 1
272 259 269 1
273 259 270 1
274 260 271 1
275 260 272 1
276 261 273 1
277 263 274 1
278 263 275 1
279 264 276 1
280 264 277 1
@<TRIPOS>SUBSTRUCTURE
1	GLU1	1	RESIDUE	1 ****	GLU
2	ASN2	16	RESIDUE	1 ****	ASN
3	PRO3	30	RESIDUE	1 ****	PRO
4	GLU4	44	RESIDUE	1 ****	GLU
5	SER5	59	RESIDUE	1 ****	SER
6	ILE6	70	RESIDUE	1 ****	ILE
7	LEU7	89	RESIDUE	1 ****	LEU
8	TRP8	108	RESIDUE	1 ****	TRP
9	GLU9	132	RESIDUE	1 ****	GLU
10	HIS10	147	RESIDUE	1 ****	HIS
11	VAL11	164	RESIDUE	1 ****	VAL
12	GLN12	180	RESIDUE	1 ****	GLN
13	ARG13	197	RESIDUE	1 ****	ARG
14	VAL14	221	RESIDUE	1 ****	VAL
15	MET15	237	RESIDUE	1 ****	MET
16	ARG16	254	RESIDUE	1 ****	ARG
