REMARK WARNING: 32 MAX_TORS EXCEEDED!!!
REMARK  67 active torsions:
REMARK  status: ('A' for Active; 'I' for Inactive)
REMARK    1  A    between atoms: N_1  and  CA_2 
REMARK    2  A    between atoms: CA_2  and  C_3 
REMARK    3  A    between atoms: CA_2  and  CB_5 
REMARK       I    between atoms: C_3  and  N_11 
REMARK    4  A    between atoms: CB_5  and  CG_6 
REMARK    5  A    between atoms: CG_6  and  CD_7 
REMARK    6  A    between atoms: N_11  and  CA_12 
REMARK    7  A    between atoms: CA_12  and  C_13 
REMARK    8  A    between atoms: CA_12  and  CB_15 
REMARK       I    between atoms: C_13  and  N_22 
REMARK    9  A    between atoms: CB_15  and  CG_16 
REMARK       I    between atoms: CG_16  and  ND2_17 
REMARK   10  A    between atoms: CA_23  and  C_24 
REMARK       I    between atoms: C_24  and  N_29 
REMARK   11  A    between atoms: N_29  and  CA_30 
REMARK   12  A    between atoms: CA_30  and  C_31 
REMARK   13  A    between atoms: CA_30  and  CB_33 
REMARK       I    between atoms: C_31  and  N_38 
REMARK   14  A    between atoms: CB_33  and  CG_34 
REMARK   15  A    between atoms: N_38  and  CA_39 
REMARK   16  A    between atoms: CA_39  and  C_40 
REMARK   17  A    between atoms: CA_39  and  CB_42 
REMARK       I    between atoms: C_40  and  N_46 
REMARK   18  A    between atoms: CB_42  and  OG_43 
REMARK   19  A    between atoms: N_46  and  CA_47 
REMARK   20  A    between atoms: CA_47  and  C_48 
REMARK   21  A    between atoms: CA_47  and  CB_50 
REMARK       I    between atoms: C_48  and  N_55 
REMARK   22  A    between atoms: CB_50  and  CG1_51 
REMARK   23  A    between atoms: N_55  and  CA_56 
REMARK   24  A    between atoms: CA_56  and  C_57 
REMARK   25  A    between atoms: CA_56  and  CB_59 
REMARK       I    between atoms: C_57  and  N_64 
REMARK   26  A    between atoms: CB_59  and  CG_60 
REMARK   27  A    between atoms: N_64  and  CA_65 
REMARK   28  A    between atoms: CA_65  and  C_66 
REMARK   29  A    between atoms: CA_65  and  CB_68 
REMARK       I    between atoms: C_66  and  N_73 
REMARK   30  A    between atoms: CB_68  and  CG_69 
REMARK   31  A    between atoms: N_73  and  CA_74 
REMARK   32  A    between atoms: CA_74  and  C_75 
REMARK   33  A    between atoms: CA_74  and  CB_77 
REMARK       I    between atoms: C_75  and  N_83 
REMARK   34  A    between atoms: CB_77  and  CG_78 
REMARK   35  A    between atoms: CG_78  and  CD_79 
REMARK   36  A    between atoms: N_83  and  CA_84 
REMARK   37  A    between atoms: CA_84  and  C_85 
REMARK   38  A    between atoms: CA_84  and  CB_87 
REMARK       I    between atoms: C_85  and  N_95 
REMARK   39  A    between atoms: CB_87  and  CG_88 
REMARK   40  A    between atoms: N_95  and  CA_96 
REMARK   41  A    between atoms: CA_96  and  C_97 
REMARK   42  A    between atoms: CA_96  and  CB_99 
REMARK       I    between atoms: C_97  and  N_103 
REMARK   43  A    between atoms: N_103  and  CA_104 
REMARK   44  A    between atoms: CA_104  and  C_105 
REMARK   45  A    between atoms: CA_104  and  CB_107 
REMARK       I    between atoms: C_105  and  N_115 
REMARK   46  A    between atoms: CB_107  and  CG_108 
REMARK   47  A    between atoms: CG_108  and  CD_109 
REMARK       I    between atoms: CD_109  and  NE2_110 
REMARK   48  A    between atoms: N_115  and  CA_116 
REMARK   49  A    between atoms: CA_116  and  C_117 
REMARK   50  A    between atoms: CA_116  and  CB_119 
REMARK       I    between atoms: C_117  and  N_132 
REMARK   51  A    between atoms: CB_119  and  CG_120 
REMARK   52  A    between atoms: CG_120  and  CD_121 
REMARK   53  A    between atoms: CD_121  and  NE_122 
REMARK       I    between atoms: NE_122  and  CZ_123 
REMARK       I    between atoms: CZ_123  and  NH1_124 
REMARK       I    between atoms: CZ_123  and  NH2_125 
REMARK   54  A    between atoms: N_132  and  CA_133 
REMARK   55  A    between atoms: CA_133  and  C_134 
REMARK   56  A    between atoms: CA_133  and  CB_136 
REMARK       I    between atoms: C_134  and  N_140 
REMARK   57  A    between atoms: N_140  and  CA_141 
REMARK   58  A    between atoms: CA_141  and  C_142 
REMARK   59  A    between atoms: CA_141  and  CB_144 
REMARK       I    between atoms: C_142  and  N_149 
REMARK   60  A    between atoms: CB_144  and  CG_145 
REMARK   61  A    between atoms: CG_145  and  SD_146 
REMARK   62  A    between atoms: N_149  and  CA_150 
REMARK   63  A    between atoms: CA_150  and  C_151 
REMARK   64  A    between atoms: CA_150  and  CB_153 
REMARK   65  A    between atoms: CB_153  and  CG_154 
REMARK   66  A    between atoms: CG_154  and  CD_155 
REMARK   67  A    between atoms: CD_155  and  NE_156 
REMARK       I    between atoms: NE_156  and  CZ_157 
REMARK       I    between atoms: CZ_157  and  NH1_158 
ROOT
ATOM      1  C   GLU d   9     674.117 172.919-623.488  0.00  0.00     0.241 C 
ATOM      2  O   GLU d   9     674.781 173.674-624.214  0.00  0.00    -0.271 OA
ATOM      3  N   HIS d  10     674.215 171.644-623.657  0.00  0.00    -0.346 N 
ATOM      4  H   HIS d  10     673.685 171.008-623.078  0.00  0.00     0.163 HD
ENDROOT
BRANCH   3   5
ATOM      5  CA  HIS d  10     675.103 171.133-624.697  0.00  0.00     0.182 C 
BRANCH   5   6
ATOM      6  C   HIS d  10     674.736 171.697-626.049  0.00  0.00     0.241 C 
ATOM      7  O   HIS d  10     675.588 172.162-626.821  0.00  0.00    -0.271 OA
ATOM      8  N   VAL d  11     673.498 171.694-626.411  0.00  0.00    -0.346 N 
ATOM      9  H   VAL d  11     672.785 171.321-625.801  0.00  0.00     0.163 HD
BRANCH   8  10
ATOM     10  CA  VAL d  11     673.142 172.239-627.719  0.00  0.00     0.180 C 
BRANCH  10  11
ATOM     11  C   VAL d  11     673.605 173.671-627.852  0.00  0.00     0.241 C 
ATOM     12  O   VAL d  11     674.206 174.076-628.855  0.00  0.00    -0.271 OA
ATOM     13  N   GLN d  12     673.367 174.496-626.890  0.00  0.00    -0.346 N 
ATOM     14  H   GLN d  12     672.879 174.190-626.060  0.00  0.00     0.163 HD
BRANCH  13  15
ATOM     15  CA  GLN d  12     673.814 175.880-627.018  0.00  0.00     0.177 C 
BRANCH  15  16
ATOM     16  C   GLN d  12     675.304 175.948-627.256  0.00  0.00     0.241 C 
ATOM     17  O   GLN d  12     675.791 176.657-628.135  0.00  0.00    -0.271 OA
ATOM     18  N   ARG d  13     676.090 175.243-626.515  0.00  0.00    -0.346 N 
ATOM     19  H   ARG d  13     675.714 174.653-625.786  0.00  0.00     0.163 HD
BRANCH  18  20
ATOM     20  CA  ARG d  13     677.530 175.310-626.746  0.00  0.00     0.176 C 
BRANCH  20  21
ATOM     21  C   ARG d  13     677.866 174.938-628.171  0.00  0.00     0.241 C 
ATOM     22  O   ARG d  13     678.634 175.610-628.855  0.00  0.00    -0.271 OA
ATOM     23  N   VAL d  14     677.331 173.883-628.684  0.00  0.00    -0.346 N 
ATOM     24  H   VAL d  14     676.697 173.314-628.142  0.00  0.00     0.163 HD
BRANCH  23  25
ATOM     25  CA  VAL d  14     677.656 173.523-630.062  0.00  0.00     0.180 C 
BRANCH  25  26
ATOM     26  C   VAL d  14     677.325 174.653-631.008  0.00  0.00     0.241 C 
ATOM     27  O   VAL d  14     678.118 175.034-631.878  0.00  0.00    -0.271 OA
ATOM     28  N   MET d  15     676.179 175.237-630.906  0.00  0.00    -0.346 N 
ATOM     29  H   MET d  15     675.515 174.944-630.204  0.00  0.00     0.163 HD
BRANCH  28  30
ATOM     30  CA  MET d  15     675.858 176.329-631.820  0.00  0.00     0.177 C 
BRANCH  30  31
ATOM     31  C   MET d  15     676.887 177.430-631.733  0.00  0.00     0.241 C 
ATOM     32  O   MET d  15     677.389 177.941-632.746  0.00  0.00    -0.271 OA
ATOM     33  N   ARG d  16     677.255 177.852-630.571  0.00  0.00    -0.347 N 
ATOM     34  H   ARG d  16     676.861 177.452-629.731  0.00  0.00     0.163 HD
BRANCH  33  35
ATOM     35  CA  ARG d  16     678.251 178.917-630.488  0.00  0.00     0.162 C 
BRANCH  35  36
ATOM     36  C   ARG d  16     679.522 178.525-631.204  0.00  0.00     0.219 C 
ATOM     37  O   ARG d  16     679.636 177.449-631.785  0.00  0.00    -0.287 OA
ENDBRANCH  35  36
BRANCH  35  38
ATOM     38  CB  ARG d  16     678.520 179.236-628.990  0.00  0.00     0.035 C 
BRANCH  38  39
ATOM     39  CG  ARG d  16     679.344 180.526-628.717  0.00  0.00     0.023 C 
BRANCH  39  40
ATOM     40  CD  ARG d  16     679.594 180.746-627.216  0.00  0.00     0.138 C 
BRANCH  40  41
ATOM     41  NE  ARG d  16     680.369 182.005-627.016  0.00  0.00    -0.227 N 
ATOM     42  CZ  ARG d  16     680.760 182.489-625.841  0.00  0.00     0.665 C 
ATOM     43  NH1 ARG d  16     680.513 181.904-624.702  0.00  0.00    -0.235 N 
ATOM     44  NH2 ARG d  16     681.423 183.602-625.823  0.00  0.00    -0.235 N 
ATOM     45 11HH ARG d  16     679.988 181.031-624.786  0.00  0.00     0.174 HD
ATOM     46 12HH ARG d  16     680.847 182.341-623.841  0.00  0.00     0.174 HD
ATOM     47 21HH ARG d  16     681.608 184.045-626.725  0.00  0.00     0.174 HD
ATOM     48 22HH ARG d  16     681.713 183.958-624.910  0.00  0.00     0.174 HD
ATOM     49  HE  ARG d  16     680.646 182.586-627.813  0.00  0.00     0.177 HD
ENDBRANCH  40  41
ENDBRANCH  39  40
ENDBRANCH  38  39
ENDBRANCH  35  38
ENDBRANCH  33  35
ENDBRANCH  30  31
BRANCH  30  50
ATOM     50  CB  MET d  15     674.436 176.874-631.511  0.00  0.00     0.045 C 
BRANCH  50  51
ATOM     51  CG  MET d  15     673.275 175.874-631.702  0.00  0.00     0.076 C 
BRANCH  51  52
ATOM     52  SD  MET d  15     671.700 176.739-631.588  0.00  0.00    -0.173 SA
ATOM     53  CE  MET d  15     670.620 175.308-631.450  0.00  0.00     0.089 C 
ENDBRANCH  51  52
ENDBRANCH  50  51
ENDBRANCH  30  50
ENDBRANCH  28  30
ENDBRANCH  25  26
BRANCH  25  54
ATOM     54  CB  VAL d  14     676.885 172.205-630.468  0.00  0.00     0.009 C 
ATOM     55  CG1 VAL d  14     676.974 171.786-631.961  0.00  0.00     0.012 C 
ATOM     56  CG2 VAL d  14     677.318 170.954-629.667  0.00  0.00     0.012 C 
ENDBRANCH  25  54
ENDBRANCH  23  25
ENDBRANCH  20  21
BRANCH  20  57
ATOM     57  CB  ARG d  13     678.244 174.372-625.731  0.00  0.00     0.036 C 
BRANCH  57  58
ATOM     58  CG  ARG d  13     679.789 174.527-625.651  0.00  0.00     0.023 C 
BRANCH  58  59
ATOM     59  CD  ARG d  13     680.417 173.540-624.653  0.00  0.00     0.138 C 
BRANCH  59  60
ATOM     60  NE  ARG d  13     681.894 173.749-624.603  0.00  0.00    -0.227 N 
ATOM     61  CZ  ARG d  13     682.743 173.059-623.847  0.00  0.00     0.665 C 
ATOM     62  NH1 ARG d  13     682.379 172.094-623.049  0.00  0.00    -0.235 N 
ATOM     63  NH2 ARG d  13     684.002 173.359-623.904  0.00  0.00    -0.235 N 
ATOM     64 11HH ARG d  13     681.374 171.907-623.052  0.00  0.00     0.174 HD
ATOM     65 12HH ARG d  13     683.093 171.612-622.500  0.00  0.00     0.174 HD
ATOM     66 21HH ARG d  13     684.269 174.117-624.536  0.00  0.00     0.174 HD
ATOM     67 22HH ARG d  13     684.638 172.819-623.316  0.00  0.00     0.174 HD
ATOM     68  HE  ARG d  13     682.345 174.471-625.174  0.00  0.00     0.177 HD
ENDBRANCH  59  60
ENDBRANCH  58  59
ENDBRANCH  57  58
ENDBRANCH  20  57
ENDBRANCH  18  20
ENDBRANCH  15  16
BRANCH  15  69
ATOM     69  CB  GLN d  12     673.423 176.647-625.735  0.00  0.00     0.044 C 
BRANCH  69  70
ATOM     70  CG  GLN d  12     673.782 178.170-625.705  0.00  0.00     0.105 C 
BRANCH  70  71
ATOM     71  CD  GLN d  12     673.479 178.983-624.440  0.00  0.00     0.215 C 
ATOM     72  NE2 GLN d  12     672.913 178.407-623.411  0.00  0.00    -0.370 N 
ATOM     73 21HE GLN d  12     672.805 179.002-622.588  0.00  0.00     0.159 HD
ATOM     74 22HE GLN d  12     672.750 177.403-623.514  0.00  0.00     0.159 HD
ATOM     75  OE1 GLN d  12     673.780 180.165-624.363  0.00  0.00    -0.274 OA
ENDBRANCH  70  71
ENDBRANCH  69  70
ENDBRANCH  15  69
ENDBRANCH  13  15
ENDBRANCH  10  11
BRANCH  10  76
ATOM     76  CB  VAL d  11     671.581 172.131-627.938  0.00  0.00     0.009 C 
ATOM     77  CG1 VAL d  11     671.011 172.834-629.201  0.00  0.00     0.012 C 
ATOM     78  CG2 VAL d  11     671.058 170.676-628.010  0.00  0.00     0.012 C 
ENDBRANCH  10  76
ENDBRANCH   8  10
ENDBRANCH   5   6
BRANCH   5  79
ATOM     79  CB  HIS d  10     674.940 169.604-624.692  0.00  0.00     0.095 C 
BRANCH  79  80
ATOM     80  CG  HIS d  10     676.227 168.895-624.383  0.00  0.00     0.053 A 
ATOM     81  CD2 HIS d  10     676.608 168.561-623.091  0.00  0.00     0.116 A 
ATOM     82  NE2 HIS d  10     677.823 167.930-623.157  0.00  0.00    -0.359 N 
ATOM     83  CE1 HIS d  10     678.086 167.933-624.492  0.00  0.00     0.207 A 
ATOM     84  2HE HIS d  10     678.391 167.554-622.384  0.00  0.00     0.166 HD
ATOM     85  ND1 HIS d  10     677.179 168.490-625.316  0.00  0.00    -0.247 NA
ENDBRANCH  79  80
ENDBRANCH   5  79
ENDBRANCH   3   5
BRANCH   1  86
ATOM     86  CA  GLU d   9     673.199 173.447-622.413  0.00  0.00     0.177 C 
BRANCH  86  87
ATOM     87  N   GLU d   9     671.897 172.788-622.467  0.00  0.00    -0.346 N 
ATOM     88  C   ASP d   8     671.217 172.837-623.563  0.00  0.00     0.241 C 
ATOM     89  O   ASP d   8     671.689 173.442-624.538  0.00  0.00    -0.271 OA
ATOM     90  H   GLU d   9     671.534 172.302-621.660  0.00  0.00     0.163 HD
BRANCH  88  91
ATOM     91  CA  ASP d   8     669.871 172.156-623.619  0.00  0.00     0.186 C 
BRANCH  91  92
ATOM     92  N   ASP d   8     669.942 170.807-623.065  0.00  0.00    -0.346 N 
ATOM     93  C   LEU d   7     670.780 169.966-623.571  0.00  0.00     0.241 C 
ATOM     94  O   LEU d   7     671.500 170.329-624.513  0.00  0.00    -0.271 OA
ATOM     95  H   ASP d   8     669.345 170.535-622.297  0.00  0.00     0.163 HD
BRANCH  93  96
ATOM     96  CA  LEU d   7     670.854 168.571-622.998  0.00  0.00     0.177 C 
BRANCH  96  97
ATOM     97  N   LEU d   7     670.909 168.608-621.539  0.00  0.00    -0.346 N 
ATOM     98  C   ILE d   6     671.854 169.273-620.966  0.00  0.00     0.241 C 
ATOM     99  O   ILE d   6     672.688 169.861-621.670  0.00  0.00    -0.271 OA
ATOM    100  H   LEU d   7     670.217 168.121-620.987  0.00  0.00     0.163 HD
BRANCH  98 101
ATOM    101  CA  ILE d   6     671.912 169.312-619.458  0.00  0.00     0.180 C 
BRANCH 101 102
ATOM    102  N   ILE d   6     670.599 169.606-618.892  0.00  0.00    -0.346 N 
ATOM    103  C   SER d   5     669.993 170.688-619.247  0.00  0.00     0.243 C 
ATOM    104  O   SER d   5     670.540 171.442-620.052  0.00  0.00    -0.271 OA
ATOM    105  H   ILE d   6     670.171 168.972-618.232  0.00  0.00     0.163 HD
BRANCH 103 106
ATOM    106  CA  SER d   5     668.634 170.994-618.661  0.00  0.00     0.200 C 
BRANCH 106 107
ATOM    107  N   SER d   5     667.765 169.822-618.718  0.00  0.00    -0.344 N 
ATOM    108  C   ASP d   4     667.538 169.268-619.861  0.00  0.00     0.241 C 
ATOM    109  O   ASP d   4     668.064 169.748-620.877  0.00  0.00    -0.271 OA
ATOM    110  H   SER d   5     667.349 169.450-617.876  0.00  0.00     0.163 HD
BRANCH 108 111
ATOM    111  CA  ASP d   4     666.639 168.057-619.921  0.00  0.00     0.186 C 
BRANCH 111 112
ATOM    112  N   ASP d   4     666.999 167.086-618.892  0.00  0.00    -0.346 N 
ATOM    113  C   PRO d   3     668.204 166.626-618.859  0.00  0.00     0.241 C 
ATOM    114  O   PRO d   3     669.027 167.009-619.691  0.00  0.00    -0.271 OA
ATOM    115  H   ASP d   4     666.315 166.779-618.215  0.00  0.00     0.163 HD
BRANCH 113 116
ATOM    116  CA  PRO d   3     668.602 165.602-617.782  0.00  0.00     0.179 C 
ATOM    117  N   PRO d   3     668.150 166.012-616.461  0.00  0.00    -0.337 N 
ATOM    118  C   ASN d   2     668.672 167.007-615.827  0.00  0.00     0.243 C 
ATOM    119  CD  PRO d   3     667.072 165.218-615.912  0.00  0.00     0.127 C 
ATOM    120  O   ASN d   2     669.587 167.637-616.355  0.00  0.00    -0.271 OA
ATOM    121  CG  PRO d   3     666.615 164.399-617.122  0.00  0.00     0.022 C 
ATOM    122  CB  PRO d   3     667.898 164.247-617.952  0.00  0.00     0.037 C 
BRANCH 118 123
ATOM    123  CA  ASN d   2     668.140 167.362-614.458  0.00  0.00     0.185 C 
BRANCH 123 124
ATOM    124  N   ASN d   2     666.681 167.401-614.458  0.00  0.00    -0.346 N 
ATOM    125  C   GLU d   1     666.076 168.186-615.283  0.00  0.00     0.242 C 
ATOM    126  O   GLU d   1     666.752 168.886-616.052  0.00  0.00    -0.271 OA
ATOM    127  H   ASN d   2     666.153 166.821-613.822  0.00  0.00     0.163 HD
BRANCH 125 128
ATOM    128  CA  GLU d   1     664.568 168.226-615.283  0.00  0.00     0.191 C 
BRANCH 128 129
ATOM    129  N   GLU d   1     664.008 166.877-615.283  0.00  0.00    -0.326 NA
ATOM    130  H   GLU d   1     664.635 165.998-615.283  0.00  0.00     0.180 HD
ENDBRANCH 128 129
BRANCH 128 131
ATOM    131  CB  GLU d   1     664.044 169.011-614.046  0.00  0.00     0.047 C 
BRANCH 131 132
ATOM    132  CG  GLU d   1     664.519 170.496-613.935  0.00  0.00     0.116 C 
BRANCH 132 133
ATOM    133  CD  GLU d   1     664.095 171.300-612.720  0.00  0.00     0.172 C 
ATOM    134  OE1 GLU d   1     663.367 170.798-611.842  0.00  0.00    -0.648 OA
ATOM    135  OE2 GLU d   1     664.526 172.470-612.648  0.00  0.00    -0.648 OA
ENDBRANCH 132 133
ENDBRANCH 131 132
ENDBRANCH 128 131
ENDBRANCH 125 128
ENDBRANCH 123 124
BRANCH 123 136
ATOM    136  CB  ASN d   2     668.633 166.339-613.394  0.00  0.00     0.137 C 
BRANCH 136 137
ATOM    137  CG  ASN d   2     668.169 166.563-611.950  0.00  0.00     0.217 C 
ATOM    138  ND2 ASN d   2     668.764 167.478-611.232  0.00  0.00    -0.370 N 
ATOM    139 21HD ASN d   2     668.283 167.651-610.346  0.00  0.00     0.159 HD
ATOM    140 22HD ASN d   2     669.465 168.050-611.702  0.00  0.00     0.159 HD
ATOM    141  OD1 ASN d   2     667.249 165.929-611.456  0.00  0.00    -0.274 OA
ENDBRANCH 136 137
ENDBRANCH 123 136
ENDBRANCH 118 123
ENDBRANCH 113 116
ENDBRANCH 111 112
BRANCH 111 142
ATOM    142  CB  ASP d   4     665.146 168.465-619.789  0.00  0.00     0.147 C 
BRANCH 142 143
ATOM    143  CG  ASP d   4     664.627 169.431-620.864  0.00  0.00     0.175 C 
ATOM    144  OD1 ASP d   4     665.036 169.312-622.037  0.00  0.00    -0.648 OA
ATOM    145  OD2 ASP d   4     663.842 170.340-620.521  0.00  0.00    -0.648 OA
ENDBRANCH 142 143
ENDBRANCH 111 142
ENDBRANCH 108 111
ENDBRANCH 106 107
BRANCH 106 146
ATOM    146  CB  SER d   5     668.746 171.527-617.211  0.00  0.00     0.199 C 
BRANCH 146 147
ATOM    147  OG  SER d   5     669.478 170.648-616.349  0.00  0.00    -0.398 OA
ATOM    148  HG  SER d   5     668.990 169.823-616.298  0.00  0.00     0.209 HD
ENDBRANCH 146 147
ENDBRANCH 106 146
ENDBRANCH 103 106
ENDBRANCH 101 102
BRANCH 101 149
ATOM    149  CB  ILE d   6     672.512 167.976-618.858  0.00  0.00     0.013 C 
ATOM    150  CG2 ILE d   6     673.954 167.675-619.373  0.00  0.00     0.012 C 
BRANCH 149 151
ATOM    151  CG1 ILE d   6     672.532 167.915-617.296  0.00  0.00     0.002 C 
ATOM    152  CD1 ILE d   6     672.803 166.527-616.681  0.00  0.00     0.005 C 
ENDBRANCH 149 151
ENDBRANCH 101 149
ENDBRANCH  98 101
ENDBRANCH  96  97
BRANCH  96 153
ATOM    153  CB  LEU d   7     669.651 167.710-623.477  0.00  0.00     0.038 C 
BRANCH 153 154
ATOM    154  CG  LEU d   7     669.580 166.231-623.010  0.00  0.00    -0.020 C 
ATOM    155  CD1 LEU d   7     668.390 165.523-623.675  0.00  0.00     0.009 C 
ATOM    156  CD2 LEU d   7     670.874 165.452-623.301  0.00  0.00     0.009 C 
ENDBRANCH 153 154
ENDBRANCH  96 153
ENDBRANCH  93  96
ENDBRANCH  91  92
BRANCH  91 157
ATOM    157  CB  ASP d   8     668.792 172.994-622.878  0.00  0.00     0.147 C 
BRANCH 157 158
ATOM    158  CG  ASP d   8     668.572 174.414-623.419  0.00  0.00     0.175 C 
ATOM    159  OD1 ASP d   8     668.635 174.613-624.650  0.00  0.00    -0.648 OA
ATOM    160  OD2 ASP d   8     668.379 175.341-622.604  0.00  0.00    -0.648 OA
ENDBRANCH 157 158
ENDBRANCH  91 157
ENDBRANCH  88  91
ENDBRANCH  86  87
BRANCH  86 161
ATOM    161  CB  GLU d   9     673.833 173.241-621.007  0.00  0.00     0.045 C 
BRANCH 161 162
ATOM    162  CG  GLU d   9     675.215 173.934-620.778  0.00  0.00     0.116 C 
BRANCH 162 163
ATOM    163  CD  GLU d   9     675.917 173.722-619.450  0.00  0.00     0.172 C 
ATOM    164  OE1 GLU d   9     675.396 173.031-618.553  0.00  0.00    -0.648 OA
ATOM    165  OE2 GLU d   9     677.035 174.261-619.319  0.00  0.00    -0.648 OA
ENDBRANCH 162 163
ENDBRANCH 161 162
ENDBRANCH  86 161
ENDBRANCH   1  86
TORSDOF 67
