@<TRIPOS>MOLECULE
3-3
258 258 16              
SMALL
USER_CHARGES
@<TRIPOS>ATOM
1	   N	357.096	81.295	-335.958	N.3	1	GLU1	-0.516	
2	  CA	357.655	82.644	-335.958	C.3	1	GLU1	0.040	
3	   C	359.164	82.604	-335.958	C.2	1	GLU1	0.537	
4	   O	359.840	83.303	-336.727	O.2	1	GLU1	-0.582	
5	  CB	357.132	83.429	-334.721	C.3	1	GLU1	0.056	
6	  CG	357.607	84.914	-334.610	C.3	1	GLU1	0.014	
7	  CD	357.183	85.718	-333.395	C.2	1	GLU1	0.805	
8	 OE1	356.455	85.216	-332.517	O.co2	1	GLU1	-0.819	
9	 OE2	357.613	86.888	-333.323	O.co2	1	GLU1	-0.819	
10	   H	357.723	80.416	-335.958	 H	1	GLU1	0.294	
11	  HA	357.329	83.162	-336.878	 H	1	GLU1	0.111	
12	 2HB	357.421	82.898	-333.791	 H	1	GLU1	-0.017	
13	 3HB	356.025	83.419	-334.708	 H	1	GLU1	-0.017	
14	 2HG	357.297	85.499	-335.491	 H	1	GLU1	-0.043	
15	 3HG	358.707	84.981	-334.581	 H	1	GLU1	-0.043	
16	   N	359.768	81.818	-335.133	N.am	2	ASN2	-0.416	
17	  CA	361.228	81.780	-335.133	C.3	2	ASN2	0.014	
18	   C	361.759	81.424	-336.502	C.2	2	ASN2	0.597	
19	   O	362.674	82.055	-337.030	O.2	2	ASN2	-0.568	
20	  CB	361.720	80.757	-334.069	C.3	2	ASN2	-0.204	
21	  CG	361.257	80.981	-332.625	C.2	2	ASN2	0.713	
22	 ND2	361.851	81.896	-331.907	N.pl3	2	ASN2	-0.919	
23	 OD1	360.336	80.347	-332.131	O.2	2	ASN2	-0.593	
24	   H	359.240	81.239	-334.496	 H	2	ASN2	0.272	
25	  HA	361.605	82.790	-334.888	 H	2	ASN2	0.105	
26	 2HB	362.824	80.698	-334.072	 H	2	ASN2	0.080	
27	 3HB	361.391	79.739	-334.355	 H	2	ASN2	0.080	
28	1HD2	361.371	82.069	-331.021	 H	2	ASN2	0.420	
29	2HD2	362.553	82.467	-332.376	 H	2	ASN2	0.420	
30	   N	361.237	80.429	-337.136	N.am	3	GLY3	-0.416	
31	  CA	361.751	80.086	-338.459	C.3	3	GLY3	-0.025	
32	   C	361.657	81.264	-339.398	C.2	3	GLY3	0.597	
33	   O	362.601	81.606	-340.114	O.2	3	GLY3	-0.568	
34	   H	360.485	79.896	-336.723	 H	3	GLY3	0.272	
35	 3HA	361.178	79.291	-338.839	 H	3	GLY3	0.070	
36	  HA	362.817	79.807	-338.369	 H	3	GLY3	0.070	
37	   N	360.555	81.933	-339.453	N.am	4	GLU4	-0.516	
38	  CA	360.464	83.072	-340.362	C.3	4	GLU4	0.040	
39	   C	361.544	84.086	-340.068	C.2	4	GLU4	0.537	
40	   O	362.238	84.585	-340.966	O.2	4	GLU4	-0.582	
41	  CB	359.058	83.727	-340.243	C.3	4	GLU4	0.056	
42	  CG	358.790	84.936	-341.197	C.3	4	GLU4	0.014	
43	  CD	357.461	85.659	-341.089	C.2	4	GLU4	0.805	
44	 OE1	356.592	85.285	-340.278	O.co2	4	GLU4	-0.819	
45	 OE2	357.299	86.643	-341.840	O.co2	4	GLU4	-0.819	
46	   H	359.768	81.672	-338.877	 H	4	GLU4	0.294	
47	  HA	360.608	82.712	-341.397	 H	4	GLU4	0.111	
48	 2HB	358.886	84.059	-339.199	 H	4	GLU4	-0.017	
49	 3HB	358.272	82.967	-340.421	 H	4	GLU4	-0.017	
50	 2HG	358.898	84.643	-342.253	 H	4	GLU4	-0.043	
51	 3HG	359.525	85.742	-341.036	 H	4	GLU4	-0.043	
52	   N	361.750	84.443	-338.846	N.am	5	SER5	-0.416	
53	  CA	362.795	85.423	-338.563	C.3	5	SER5	-0.025	
54	   C	364.133	84.953	-339.085	C.2	5	SER5	0.597	
55	   O	364.873	85.690	-339.736	O.2	5	SER5	-0.568	
56	  CB	362.855	85.743	-337.048	C.3	5	SER5	0.212	
57	  OG	363.343	84.647	-336.267	O.3	5	SER5	-0.655	
58	   H	361.198	84.051	-338.097	 H	5	SER5	0.272	
59	  HA	362.547	86.352	-339.107	 H	5	SER5	0.084	
60	 2HB	361.865	86.057	-336.666	 H	5	SER5	0.035	
61	 3HB	363.517	86.614	-336.878	 H	5	SER5	0.035	
62	  HG	362.720	83.923	-336.367	 H	5	SER5	0.428	
63	   N	364.510	83.744	-338.842	N.am	6	ILE6	-0.416	
64	  CA	365.803	83.291	-339.347	C.3	6	ILE6	-0.060	
65	   C	365.885	83.451	-340.845	C.2	6	ILE6	0.597	
66	   O	366.870	83.962	-341.399	O.2	6	ILE6	-0.568	
67	  CB	366.109	81.805	-338.896	C.3	6	ILE6	0.130	
68	 CG1	365.969	81.548	-337.361	C.3	6	ILE6	-0.043	
69	 CG2	367.522	81.316	-339.342	C.3	6	ILE6	-0.320	
70	 CD1	365.941	80.067	-336.927	C.3	6	ILE6	-0.066	
71	   H	363.920	83.120	-338.310	 H	6	ILE6	0.272	
72	  HA	366.579	83.951	-338.918	 H	6	ILE6	0.087	
73	  HB	365.358	81.160	-339.398	 H	6	ILE6	0.019	
74	2HG1	365.021	81.987	-336.997	 H	6	ILE6	0.024	
75	3HG1	366.757	82.094	-336.807	 H	6	ILE6	0.024	
76	1HG2	367.669	81.350	-340.436	 H	6	ILE6	0.088	
77	2HG2	368.333	81.913	-338.883	 H	6	ILE6	0.088	
78	3HG2	367.707	80.260	-339.073	 H	6	ILE6	0.088	
79	1HD1	365.134	79.506	-337.434	 H	6	ILE6	0.019	
80	2HD1	366.892	79.546	-337.139	 H	6	ILE6	0.019	
81	3HD1	365.766	79.974	-335.839	 H	6	ILE6	0.019	
82	   N	364.900	83.044	-341.573	N.am	7	LEU7	-0.416	
83	  CA	364.980	83.200	-343.022	C.3	7	LEU7	-0.052	
84	   C	365.198	84.645	-343.399	C.2	7	LEU7	0.597	
85	   O	366.056	84.987	-344.227	O.2	7	LEU7	-0.568	
86	  CB	363.700	82.635	-343.703	C.3	7	LEU7	-0.110	
87	  CG	363.336	81.146	-343.453	C.3	7	LEU7	0.353	
88	 CD1	362.113	80.753	-344.294	C.3	7	LEU7	-0.412	
89	 CD2	364.502	80.190	-343.755	C.3	7	LEU7	-0.412	
90	   H	364.087	82.625	-341.146	 H	7	LEU7	0.272	
91	  HA	365.865	82.648	-343.384	 H	7	LEU7	0.092	
92	 2HB	363.786	82.792	-344.796	 H	7	LEU7	0.046	
93	 3HB	362.834	83.257	-343.401	 H	7	LEU7	0.046	
94	  HG	363.063	81.033	-342.382	 H	7	LEU7	-0.036	
95	1HD1	361.239	81.394	-344.073	 H	7	LEU7	0.100	
96	2HD1	362.309	80.832	-345.380	 H	7	LEU7	0.100	
97	3HD1	361.800	79.712	-344.095	 H	7	LEU7	0.100	
98	1HD2	364.879	80.303	-344.787	 H	7	LEU7	0.100	
99	2HD2	365.354	80.368	-343.072	 H	7	LEU7	0.100	
100	3HD2	364.215	79.131	-343.616	 H	7	LEU7	0.100	
101	   N	364.469	85.553	-342.843	N.am	8	ASP8	-0.516	
102	  CA	364.680	86.951	-343.208	C.3	8	ASP8	0.038	
103	   C	366.110	87.366	-342.959	C.2	8	ASP8	0.537	
104	   O	366.768	87.993	-343.804	O.2	8	ASP8	-0.582	
105	  CB	363.692	87.871	-342.437	C.3	8	ASP8	-0.030	
106	  CG	363.768	89.364	-342.790	C.2	8	ASP8	0.799	
107	 OD1	363.982	89.699	-343.973	O.co2	8	ASP8	-0.801	
108	 OD2	363.657	90.201	-341.870	O.co2	8	ASP8	-0.801	
109	   H	363.764	85.300	-342.166	 H	8	ASP8	0.294	
110	  HA	364.491	87.058	-344.293	 H	8	ASP8	0.088	
111	 2HB	363.856	87.774	-341.348	 H	8	ASP8	-0.012	
112	 3HB	362.650	87.558	-342.611	 H	8	ASP8	-0.012	
113	   N	366.663	87.060	-341.835	N.am	9	GLU9	-0.516	
114	  CA	368.047	87.462	-341.595	C.3	9	GLU9	0.040	
115	   C	368.962	86.915	-342.664	C.2	9	GLU9	0.537	
116	   O	369.809	87.623	-343.228	O.2	9	GLU9	-0.582	
117	  CB	368.499	86.971	-340.190	C.3	9	GLU9	0.056	
118	  CG	369.950	87.371	-339.767	C.3	9	GLU9	0.014	
119	  CD	370.475	86.872	-338.433	C.2	9	GLU9	0.805	
120	 OE1	369.762	86.180	-337.682	O.co2	9	GLU9	-0.819	
121	 OE2	371.651	87.180	-338.147	O.co2	9	GLU9	-0.819	
122	   H	366.148	86.550	-341.132	 H	9	GLU9	0.294	
123	  HA	368.106	88.564	-341.628	 H	9	GLU9	0.111	
124	 2HB	368.408	85.867	-340.131	 H	9	GLU9	-0.017	
125	 3HB	367.799	87.344	-339.417	 H	9	GLU9	-0.017	
126	 2HG	370.076	88.465	-339.759	 H	9	GLU9	-0.043	
127	 3HG	370.695	86.991	-340.485	 H	9	GLU9	-0.043	
128	   N	368.859	85.675	-343.001	N.am	10	HIS10	-0.416	
129	  CA	369.743	85.145	-344.035	C.3	10	HIS10	-0.058	
130	   C	369.608	85.930	-345.318	C.2	10	HIS10	0.597	
131	   O	370.596	86.326	-345.954	O.2	10	HIS10	-0.568	
132	  CB	369.325	83.682	-344.255	C.3	10	HIS10	-0.007	
133	  CG	370.438	82.720	-343.956	C.2	10	HIS10	0.187	
134	 CD2	370.631	82.165	-342.698	C.2	10	HIS10	-0.221	
135	 ND1	371.393	82.269	-344.864	N.2	10	HIS10	-0.543	
136	 CE1	372.110	81.460	-344.062	C.2	10	HIS10	0.163	
137	 NE2	371.724	81.339	-342.763	N.pl3	10	HIS10	-0.280	
138	   H	368.176	85.078	-342.557	 H	10	HIS10	0.272	
139	  HA	370.782	85.284	-343.689	 H	10	HIS10	0.136	
140	 2HB	368.999	83.511	-345.300	 H	10	HIS10	0.037	
141	 3HB	368.456	83.397	-343.625	 H	10	HIS10	0.037	
142	 2HD	370.008	82.369	-341.832	 H	10	HIS10	0.186	
143	 1HE	372.956	80.945	-344.497	 H	10	HIS10	0.144	
144	 2HE	372.142	80.773	-342.011	 H	10	HIS10	0.334	
145	   N	368.428	86.196	-345.767	N.am	11	VAL11	-0.416	
146	  CA	368.296	86.954	-347.007	C.3	11	VAL11	-0.087	
147	   C	369.005	88.284	-346.906	C.2	11	VAL11	0.597	
148	   O	369.759	88.696	-347.796	O.2	11	VAL11	-0.568	
149	  CB	366.768	87.157	-347.352	C.3	11	VAL11	0.299	
150	 CG1	366.449	88.103	-348.543	C.3	11	VAL11	-0.319	
151	 CG2	366.016	85.841	-347.664	C.3	11	VAL11	-0.319	
152	   H	367.607	85.884	-345.267	 H	11	VAL11	0.272	
153	  HA	368.783	86.390	-347.823	 H	11	VAL11	0.097	
154	  HB	366.286	87.604	-346.456	 H	11	VAL11	-0.030	
155	1HG1	366.903	87.758	-349.491	 H	11	VAL11	0.079	
156	2HG1	365.361	88.205	-348.718	 H	11	VAL11	0.079	
157	3HG1	366.806	89.136	-348.369	 H	11	VAL11	0.079	
158	1HG2	366.116	85.105	-346.845	 H	11	VAL11	0.079	
159	2HG2	364.929	86.008	-347.792	 H	11	VAL11	0.079	
160	3HG2	366.384	85.355	-348.587	 H	11	VAL11	0.079	
161	   N	368.819	89.013	-345.858	N.am	12	GLN12	-0.416	
162	  CA	369.503	90.298	-345.759	C.3	12	GLN12	-0.003	
163	   C	370.999	90.126	-345.876	C.2	12	GLN12	0.597	
164	   O	371.680	90.839	-346.610	O.2	12	GLN12	-0.568	
165	  CB	369.126	90.958	-344.414	C.3	12	GLN12	-0.004	
166	  CG	369.732	92.375	-344.145	C.3	12	GLN12	-0.064	
167	  CD	369.451	93.066	-342.805	C.2	12	GLN12	0.695	
168	 NE2	368.699	92.477	-341.910	N.pl3	12	GLN12	-0.941	
169	 OE1	369.938	94.155	-342.543	O.2	12	GLN12	-0.609	
170	   H	368.208	88.699	-345.117	 H	12	GLN12	0.272	
171	  HA	369.174	90.941	-346.596	 H	12	GLN12	0.085	
172	 2HB	369.426	90.276	-343.590	 H	12	GLN12	0.017	
173	 3HB	368.022	91.028	-344.347	 H	12	GLN12	0.017	
174	 2HG	369.432	93.074	-344.948	 H	12	GLN12	0.035	
175	 3HG	370.835	92.340	-344.211	 H	12	GLN12	0.035	
176	1HE2	368.615	92.974	-341.022	 H	12	GLN12	0.425	
177	2HE2	368.380	91.540	-342.164	 H	12	GLN12	0.425	
178	   N	371.579	89.204	-345.186	N.am	13	ARG13	-0.348	
179	  CA	373.026	89.039	-345.300	C.3	13	ARG13	-0.264	
180	   C	373.429	88.793	-346.734	C.2	13	ARG13	0.734	
181	   O	374.362	89.395	-347.261	O.2	13	ARG13	-0.589	
182	  CB	373.471	87.869	-344.377	C.3	13	ARG13	-0.001	
183	  CG	375.004	87.731	-344.163	C.3	13	ARG13	0.039	
184	  CD	375.358	86.531	-343.270	C.3	13	ARG13	0.049	
185	  NE	376.837	86.462	-343.084	N.pl3	13	ARG13	-0.530	
186	  CZ	377.481	85.542	-342.372	C.cat	13	ARG13	0.808	
187	 NH1	376.884	84.567	-341.745	N.pl3	13	ARG13	-0.863	
188	 NH2	378.772	85.615	-342.296	N.pl3	13	ARG13	-0.863	
189	   H	371.041	88.605	-344.575	 H	13	ARG13	0.275	
190	  HA	373.504	89.982	-344.974	 H	13	ARG13	0.156	
191	 2HB	373.056	86.921	-344.778	 H	13	ARG13	0.033	
192	 3HB	372.985	87.982	-343.386	 H	13	ARG13	0.033	
193	 2HG	375.396	88.672	-343.724	 H	13	ARG13	0.029	
194	 3HG	375.516	87.622	-345.141	 H	13	ARG13	0.029	
195	 2HD	374.973	85.598	-343.737	 H	13	ARG13	0.069	
196	 3HD	374.839	86.631	-342.292	 H	13	ARG13	0.069	
197	  HE	377.456	87.157	-343.514	 H	13	ARG13	0.346	
198	1HH1	375.867	84.566	-341.847	 H	13	ARG13	0.448	
199	2HH1	377.451	83.900	-341.219	 H	13	ARG13	0.448	
200	1HH2	379.223	86.385	-342.794	 H	13	ARG13	0.448	
201	2HH2	379.248	84.900	-341.743	 H	13	ARG13	0.448	
202	   N	372.776	87.923	-347.428	N.am	14	VAL14	-0.416	
203	  CA	373.166	87.685	-348.814	C.3	14	VAL14	-0.087	
204	   C	373.122	88.965	-349.615	C.2	14	VAL14	0.597	
205	   O	374.048	89.303	-350.364	O.2	14	VAL14	-0.568	
206	  CB	372.226	86.589	-349.455	C.3	14	VAL14	0.299	
207	 CG1	372.386	86.350	-350.982	C.3	14	VAL14	-0.319	
208	 CG2	372.363	85.190	-348.807	C.3	14	VAL14	-0.319	
209	   H	372.005	87.415	-347.018	 H	14	VAL14	0.272	
210	  HA	374.211	87.327	-348.834	 H	14	VAL14	0.097	
211	  HB	371.178	86.922	-349.296	 H	14	VAL14	-0.030	
212	1HG1	373.409	86.031	-351.256	 H	14	VAL14	0.079	
213	2HG1	371.689	85.578	-351.362	 H	14	VAL14	0.079	
214	3HG1	372.158	87.255	-351.577	 H	14	VAL14	0.079	
215	1HG2	372.199	85.225	-347.715	 H	14	VAL14	0.079	
216	2HG2	371.614	84.477	-349.205	 H	14	VAL14	0.079	
217	3HG2	373.362	84.745	-348.975	 H	14	VAL14	0.079	
218	   N	372.088	89.729	-349.517	N.am	15	MET15	-0.416	
219	  CA	372.044	90.966	-350.291	C.3	15	MET15	-0.024	
220	   C	373.232	91.844	-349.976	C.2	15	MET15	0.597	
221	   O	373.908	92.378	-350.869	O.2	15	MET15	-0.568	
222	  CB	370.712	91.715	-350.013	C.3	15	MET15	0.034	
223	  CG	369.423	90.973	-350.425	C.3	15	MET15	0.002	
224	  SD	368.013	92.086	-350.306	S.3	15	MET15	-0.274	
225	  CE	366.699	90.868	-350.448	C.3	15	MET15	-0.054	
226	   H	371.319	89.475	-348.913	 H	15	MET15	0.272	
227	  HA	372.104	90.712	-351.365	 H	15	MET15	0.088	
228	 2HB	370.723	92.689	-350.540	 H	15	MET15	0.024	
229	 3HB	370.644	91.976	-348.937	 H	15	MET15	0.024	
230	 2HG	369.258	90.102	-349.763	 H	15	MET15	0.044	
231	 3HG	369.491	90.580	-351.456	 H	15	MET15	0.044	
232	 1HE	366.806	90.276	-351.375	 H	15	MET15	0.068	
233	 2HE	366.722	90.175	-349.588	 H	15	MET15	0.068	
234	 3HE	365.713	91.363	-350.465	 H	15	MET15	0.068	
235	   N	373.553	92.045	-348.743	N.am	16	ARG16	-0.348	
236	  CA	374.701	92.894	-348.441	C.3	16	ARG16	-0.264	
237	   C	375.951	92.372	-349.110	C.2	16	ARG16	0.734	
238	   O	375.937	91.373	-349.826	O.2	16	ARG16	-0.589	
239	  CB	374.875	92.970	-346.897	C.3	16	ARG16	-0.001	
240	  CG	375.875	94.046	-346.389	C.3	16	ARG16	0.039	
241	  CD	376.013	94.030	-344.857	C.3	16	ARG16	0.049	
242	  NE	376.967	95.094	-344.428	N.pl3	16	ARG16	-0.530	
243	  CZ	377.320	95.349	-343.171	C.cat	16	ARG16	0.808	
244	 NH1	376.870	94.682	-342.146	N.pl3	16	ARG16	-0.863	
245	 NH2	378.156	96.313	-342.950	N.pl3	16	ARG16	-0.863	
246	   H	373.018	91.621	-347.999	 H	16	ARG16	0.275	
247	  HA	374.499	93.902	-348.850	 H	16	ARG16	0.156	
248	 2HB	375.171	91.968	-346.522	 H	16	ARG16	0.033	
249	 3HB	373.887	93.157	-346.429	 H	16	ARG16	0.033	
250	 2HG	375.543	95.046	-346.738	 H	16	ARG16	0.029	
251	 3HG	376.872	93.886	-346.848	 H	16	ARG16	0.029	
252	 2HD	376.365	93.026	-344.531	 H	16	ARG16	0.069	
253	 3HD	375.015	94.179	-344.393	 H	16	ARG16	0.069	
254	  HE	377.414	95.710	-345.114	 H	16	ARG16	0.346	
255	1HH1	376.215	93.934	-342.389	 H	16	ARG16	0.448	
256	2HH1	377.188	94.940	-341.211	 H	16	ARG16	0.448	
257	1HH2	378.499	96.825	-343.766	 H	16	ARG16	0.448	
258	2HH2	378.413	96.495	-341.979	 H	16	ARG16	0.448	
@<TRIPOS>BOND
1 1 2 1
2 1 10 1
3 2 3 1
4 2 5 1
5 2 11 1
6 3 4 2
7 3 16 1
8 5 6 1
9 6 7 1
10 7 8 2
11 7 9 1
12 5 12 1
13 5 13 1
14 6 14 1
15 6 15 1
16 16 17 1
17 16 24 1
18 17 18 1
19 17 20 1
20 17 25 1
21 18 19 2
22 18 30 1
23 20 21 1
24 21 22 1
25 21 23 2
26 20 26 1
27 20 27 1
28 22 28 1
29 22 29 1
30 30 31 1
31 30 34 1
32 31 32 1
33 31 35 1
34 31 36 1
35 32 33 2
36 32 37 1
37 37 38 1
38 37 46 1
39 38 39 1
40 38 41 1
41 38 47 1
42 39 40 2
43 39 52 1
44 41 42 1
45 42 43 1
46 43 44 2
47 43 45 1
48 41 48 1
49 41 49 1
50 42 50 1
51 42 51 1
52 52 53 1
53 52 58 1
54 53 54 1
55 53 56 1
56 53 59 1
57 54 55 2
58 54 63 1
59 56 57 1
60 56 60 1
61 56 61 1
62 57 62 1
63 63 64 1
64 63 71 1
65 64 65 1
66 64 67 1
67 64 72 1
68 65 66 2
69 65 82 1
70 67 68 1
71 67 69 1
72 68 70 1
73 67 73 1
74 68 74 1
75 68 75 1
76 69 76 1
77 69 77 1
78 69 78 1
79 70 79 1
80 70 80 1
81 70 81 1
82 82 83 1
83 82 90 1
84 83 84 1
85 83 86 1
86 83 91 1
87 84 85 2
88 84 101 1
89 86 87 1
90 87 88 1
91 87 89 1
92 86 92 1
93 86 93 1
94 87 94 1
95 88 95 1
96 88 96 1
97 88 97 1
98 89 98 1
99 89 99 1
100 89 100 1
101 101 102 1
102 101 109 1
103 102 103 1
104 102 105 1
105 102 110 1
106 103 104 2
107 103 113 1
108 105 106 1
109 106 107 2
110 106 108 1
111 105 111 1
112 105 112 1
113 113 114 1
114 113 122 1
115 114 115 1
116 114 117 1
117 114 123 1
118 115 116 2
119 115 128 1
120 117 118 1
121 118 119 1
122 119 120 2
123 119 121 1
124 117 124 1
125 117 125 1
126 118 126 1
127 118 127 1
128 128 129 1
129 128 138 1
130 129 130 1
131 129 132 1
132 129 139 1
133 130 131 2
134 130 145 1
135 132 133 1
136 133 134 2
137 134 137 1
138 133 135 1
139 135 136 2
140 136 137 1
141 132 140 1
142 132 141 1
143 134 142 1
144 136 143 1
145 137 144 1
146 145 146 1
147 145 152 1
148 146 147 1
149 146 149 1
150 146 153 1
151 147 148 2
152 147 161 1
153 149 150 1
154 149 151 1
155 149 154 1
156 150 155 1
157 150 156 1
158 150 157 1
159 151 158 1
160 151 159 1
161 151 160 1
162 161 162 1
163 161 170 1
164 162 163 1
165 162 165 1
166 162 171 1
167 163 164 2
168 163 178 1
169 165 166 1
170 166 167 1
171 167 168 1
172 167 169 2
173 165 172 1
174 165 173 1
175 166 174 1
176 166 175 1
177 168 176 1
178 168 177 1
179 178 179 1
180 178 189 1
181 179 180 1
182 179 182 1
183 179 190 1
184 180 181 2
185 180 202 1
186 182 183 1
187 183 184 1
188 184 185 1
189 185 186 1
190 186 187 2
191 186 188 1
192 182 191 1
193 182 192 1
194 183 193 1
195 183 194 1
196 184 195 1
197 184 196 1
198 185 197 1
199 187 198 1
200 187 199 1
201 188 200 1
202 188 201 1
203 202 203 1
204 202 209 1
205 203 204 1
206 203 206 1
207 203 210 1
208 204 205 2
209 204 218 1
210 206 207 1
211 206 208 1
212 206 211 1
213 207 212 1
214 207 213 1
215 207 214 1
216 208 215 1
217 208 216 1
218 208 217 1
219 218 219 1
220 218 226 1
221 219 220 1
222 219 222 1
223 219 227 1
224 220 221 2
225 220 235 1
226 222 223 1
227 223 224 1
228 224 225 1
229 222 228 1
230 222 229 1
231 223 230 1
232 223 231 1
233 225 232 1
234 225 233 1
235 225 234 1
236 235 236 1
237 235 246 1
238 236 237 1
239 236 239 1
240 236 247 1
241 237 238 2
242 239 240 1
243 240 241 1
244 241 242 1
245 242 243 1
246 243 244 2
247 243 245 1
248 239 248 1
249 239 249 1
250 240 250 1
251 240 251 1
252 241 252 1
253 241 253 1
254 242 254 1
255 244 255 1
256 244 256 1
257 245 257 1
258 245 258 1
@<TRIPOS>SUBSTRUCTURE
1	GLU1	1	RESIDUE	1 ****	GLU
2	ASN2	16	RESIDUE	1 ****	ASN
3	GLY3	30	RESIDUE	1 ****	GLY
4	GLU4	37	RESIDUE	1 ****	GLU
5	SER5	52	RESIDUE	1 ****	SER
6	ILE6	63	RESIDUE	1 ****	ILE
7	LEU7	82	RESIDUE	1 ****	LEU
8	ASP8	101	RESIDUE	1 ****	ASP
9	GLU9	113	RESIDUE	1 ****	GLU
10	HIS10	128	RESIDUE	1 ****	HIS
11	VAL11	145	RESIDUE	1 ****	VAL
12	GLN12	161	RESIDUE	1 ****	GLN
13	ARG13	178	RESIDUE	1 ****	ARG
14	VAL14	202	RESIDUE	1 ****	VAL
15	MET15	218	RESIDUE	1 ****	MET
16	ARG16	235	RESIDUE	1 ****	ARG
