REMARK WARNING: 32 MAX_TORS EXCEEDED!!!
REMARK  68 active torsions:
REMARK  status: ('A' for Active; 'I' for Inactive)
REMARK    1  A    between atoms: N_1  and  CA_2 
REMARK    2  A    between atoms: CA_2  and  C_3 
REMARK    3  A    between atoms: CA_2  and  CB_5 
REMARK       I    between atoms: C_3  and  N_11 
REMARK    4  A    between atoms: CB_5  and  CG_6 
REMARK    5  A    between atoms: CG_6  and  CD_7 
REMARK    6  A    between atoms: N_11  and  CA_12 
REMARK    7  A    between atoms: CA_12  and  C_13 
REMARK    8  A    between atoms: CA_12  and  CB_15 
REMARK       I    between atoms: C_13  and  N_22 
REMARK    9  A    between atoms: CB_15  and  CG_16 
REMARK       I    between atoms: CG_16  and  ND2_17 
REMARK   10  A    between atoms: CA_23  and  C_24 
REMARK       I    between atoms: C_24  and  N_29 
REMARK   11  A    between atoms: N_29  and  CA_30 
REMARK   12  A    between atoms: CA_30  and  C_31 
REMARK   13  A    between atoms: CA_30  and  CB_33 
REMARK       I    between atoms: C_31  and  N_39 
REMARK   14  A    between atoms: CB_33  and  CG_34 
REMARK   15  A    between atoms: CG_34  and  CD_35 
REMARK   16  A    between atoms: N_39  and  CA_40 
REMARK   17  A    between atoms: CA_40  and  C_41 
REMARK   18  A    between atoms: CA_40  and  CB_43 
REMARK       I    between atoms: C_41  and  N_47 
REMARK   19  A    between atoms: CB_43  and  OG_44 
REMARK   20  A    between atoms: N_47  and  CA_48 
REMARK   21  A    between atoms: CA_48  and  C_49 
REMARK   22  A    between atoms: CA_48  and  CB_51 
REMARK       I    between atoms: C_49  and  N_56 
REMARK   23  A    between atoms: CB_51  and  CG1_52 
REMARK   24  A    between atoms: N_56  and  CA_57 
REMARK   25  A    between atoms: CA_57  and  C_58 
REMARK   26  A    between atoms: CA_57  and  CB_60 
REMARK       I    between atoms: C_58  and  N_65 
REMARK   27  A    between atoms: CB_60  and  CG_61 
REMARK   28  A    between atoms: N_65  and  CA_66 
REMARK   29  A    between atoms: CA_66  and  C_67 
REMARK   30  A    between atoms: CA_66  and  CB_69 
REMARK       I    between atoms: C_67  and  N_74 
REMARK   31  A    between atoms: CB_69  and  CG_70 
REMARK   32  A    between atoms: N_74  and  CA_75 
REMARK   33  A    between atoms: CA_75  and  C_76 
REMARK   34  A    between atoms: CA_75  and  CB_78 
REMARK       I    between atoms: C_76  and  N_88 
REMARK   35  A    between atoms: CB_78  and  CG_79 
REMARK   36  A    between atoms: CZ_84  and  OH_85 
REMARK   37  A    between atoms: N_88  and  CA_89 
REMARK   38  A    between atoms: CA_89  and  C_90 
REMARK   39  A    between atoms: CA_89  and  CB_92 
REMARK       I    between atoms: C_90  and  N_100 
REMARK   40  A    between atoms: CB_92  and  CG_93 
REMARK   41  A    between atoms: N_100  and  CA_101 
REMARK   42  A    between atoms: CA_101  and  C_102 
REMARK   43  A    between atoms: CA_101  and  CB_104 
REMARK       I    between atoms: C_102  and  N_108 
REMARK   44  A    between atoms: N_108  and  CA_109 
REMARK   45  A    between atoms: CA_109  and  C_110 
REMARK   46  A    between atoms: CA_109  and  CB_112 
REMARK       I    between atoms: C_110  and  N_120 
REMARK   47  A    between atoms: CB_112  and  CG_113 
REMARK   48  A    between atoms: CG_113  and  CD_114 
REMARK       I    between atoms: CD_114  and  NE2_115 
REMARK   49  A    between atoms: N_120  and  CA_121 
REMARK   50  A    between atoms: CA_121  and  C_122 
REMARK   51  A    between atoms: CA_121  and  CB_124 
REMARK       I    between atoms: C_122  and  N_137 
REMARK   52  A    between atoms: CB_124  and  CG_125 
REMARK   53  A    between atoms: CG_125  and  CD_126 
REMARK   54  A    between atoms: CD_126  and  NE_127 
REMARK       I    between atoms: NE_127  and  CZ_128 
REMARK       I    between atoms: CZ_128  and  NH1_129 
REMARK       I    between atoms: CZ_128  and  NH2_130 
REMARK   55  A    between atoms: N_137  and  CA_138 
REMARK   56  A    between atoms: CA_138  and  C_139 
REMARK   57  A    between atoms: CA_138  and  CB_141 
REMARK       I    between atoms: C_139  and  N_145 
REMARK   58  A    between atoms: N_145  and  CA_146 
REMARK   59  A    between atoms: CA_146  and  C_147 
REMARK   60  A    between atoms: CA_146  and  CB_149 
REMARK       I    between atoms: C_147  and  N_154 
REMARK   61  A    between atoms: CB_149  and  CG_150 
REMARK   62  A    between atoms: CG_150  and  SD_151 
REMARK   63  A    between atoms: N_154  and  CA_155 
REMARK   64  A    between atoms: CA_155  and  C_156 
REMARK   65  A    between atoms: CA_155  and  CB_158 
REMARK   66  A    between atoms: CB_158  and  CG_159 
REMARK   67  A    between atoms: CG_159  and  CD_160 
REMARK   68  A    between atoms: CD_160  and  NE_161 
REMARK       I    between atoms: NE_161  and  CZ_162 
REMARK       I    between atoms: CZ_162  and  NH1_163 
ROOT
ATOM      1  CA  TYR d   9    1428.004 422.297-1438.163  0.00  0.00     0.180 C 
ENDROOT
BRANCH   1   2
ATOM      2  N   TYR d   9    1426.701 421.640-1438.218  0.00  0.00    -0.346 N 
ATOM      3  C   ASP d   8    1426.021 421.690-1439.313  0.00  0.00     0.241 C 
ATOM      4  O   ASP d   8    1426.494 422.295-1440.288  0.00  0.00    -0.271 OA
ATOM      5  H   TYR d   9    1426.338 421.153-1437.411  0.00  0.00     0.163 HD
BRANCH   3   6
ATOM      6  CA  ASP d   8    1424.675 421.010-1439.371  0.00  0.00     0.186 C 
BRANCH   6   7
ATOM      7  N   ASP d   8    1424.745 419.660-1438.818  0.00  0.00    -0.346 N 
ATOM      8  C   LEU d   7    1425.583 418.820-1439.324  0.00  0.00     0.241 C 
ATOM      9  O   LEU d   7    1426.303 419.183-1440.266  0.00  0.00    -0.271 OA
ATOM     10  H   ASP d   8    1424.148 419.389-1438.050  0.00  0.00     0.163 HD
BRANCH   8  11
ATOM     11  CA  LEU d   7    1425.655 417.424-1438.752  0.00  0.00     0.177 C 
BRANCH  11  12
ATOM     12  N   LEU d   7    1425.710 417.460-1437.294  0.00  0.00    -0.346 N 
ATOM     13  C   ILE d   6    1426.656 418.124-1436.720  0.00  0.00     0.241 C 
ATOM     14  O   ILE d   6    1427.491 418.711-1437.424  0.00  0.00    -0.271 OA
ATOM     15  H   LEU d   7    1425.018 416.973-1436.742  0.00  0.00     0.163 HD
BRANCH  13  16
ATOM     16  CA  ILE d   6    1426.714 418.161-1435.212  0.00  0.00     0.180 C 
BRANCH  16  17
ATOM     17  N   ILE d   6    1425.400 418.456-1434.646  0.00  0.00    -0.346 N 
ATOM     18  C   SER d   5    1424.796 419.539-1435.000  0.00  0.00     0.243 C 
ATOM     19  O   SER d   5    1425.343 420.292-1435.805  0.00  0.00    -0.271 OA
ATOM     20  H   ILE d   6    1424.972 417.821-1433.987  0.00  0.00     0.163 HD
BRANCH  18  21
ATOM     21  CA  SER d   5    1423.437 419.844-1434.414  0.00  0.00     0.200 C 
BRANCH  21  22
ATOM     22  N   SER d   5    1422.567 418.673-1434.472  0.00  0.00    -0.344 N 
ATOM     23  C   GLU d   4    1422.340 418.120-1435.615  0.00  0.00     0.241 C 
ATOM     24  O   GLU d   4    1422.866 418.600-1436.630  0.00  0.00    -0.271 OA
ATOM     25  H   SER d   5    1422.151 418.301-1433.631  0.00  0.00     0.163 HD
BRANCH  23  26
ATOM     26  CA  GLU d   4    1421.441 416.909-1435.677  0.00  0.00     0.177 C 
BRANCH  26  27
ATOM     27  N   GLU d   4    1421.801 415.938-1434.647  0.00  0.00    -0.346 N 
ATOM     28  C   PRO d   3    1423.005 415.478-1434.615  0.00  0.00     0.241 C 
ATOM     29  O   PRO d   3    1423.829 415.861-1435.446  0.00  0.00    -0.271 OA
ATOM     30  H   GLU d   4    1421.117 415.631-1433.970  0.00  0.00     0.163 HD
BRANCH  28  31
ATOM     31  CA  PRO d   3    1423.404 414.454-1433.538  0.00  0.00     0.179 C 
ATOM     32  N   PRO d   3    1422.952 414.863-1432.216  0.00  0.00    -0.337 N 
ATOM     33  C   ASN d   2    1423.474 415.859-1431.582  0.00  0.00     0.243 C 
ATOM     34  CD  PRO d   3    1421.874 414.070-1431.667  0.00  0.00     0.127 C 
ATOM     35  O   ASN d   2    1424.388 416.489-1432.111  0.00  0.00    -0.271 OA
ATOM     36  CG  PRO d   3    1421.416 413.252-1432.877  0.00  0.00     0.022 C 
ATOM     37  CB  PRO d   3    1422.700 413.099-1433.707  0.00  0.00     0.037 C 
BRANCH  33  38
ATOM     38  CA  ASN d   2    1422.942 416.214-1430.214  0.00  0.00     0.185 C 
BRANCH  38  39
ATOM     39  N   ASN d   2    1421.483 416.253-1430.214  0.00  0.00    -0.346 N 
ATOM     40  C   GLU d   1    1420.878 417.039-1431.039  0.00  0.00     0.242 C 
ATOM     41  O   GLU d   1    1421.554 417.738-1431.807  0.00  0.00    -0.271 OA
ATOM     42  H   ASN d   2    1420.955 415.673-1429.577  0.00  0.00     0.163 HD
BRANCH  40  43
ATOM     43  CA  GLU d   1    1419.369 417.079-1431.039  0.00  0.00     0.191 C 
BRANCH  43  44
ATOM     44  N   GLU d   1    1418.810 415.730-1431.039  0.00  0.00    -0.326 NA
ATOM     45  H   GLU d   1    1419.437 414.851-1431.039  0.00  0.00     0.180 HD
ENDBRANCH  43  44
BRANCH  43  46
ATOM     46  CB  GLU d   1    1418.846 417.864-1429.802  0.00  0.00     0.047 C 
BRANCH  46  47
ATOM     47  CG  GLU d   1    1419.321 419.349-1429.691  0.00  0.00     0.116 C 
BRANCH  47  48
ATOM     48  CD  GLU d   1    1418.897 420.153-1428.476  0.00  0.00     0.172 C 
ATOM     49  OE1 GLU d   1    1418.169 419.651-1427.598  0.00  0.00    -0.648 OA
ATOM     50  OE2 GLU d   1    1419.327 421.323-1428.404  0.00  0.00    -0.648 OA
ENDBRANCH  47  48
ENDBRANCH  46  47
ENDBRANCH  43  46
ENDBRANCH  40  43
ENDBRANCH  38  39
BRANCH  38  51
ATOM     51  CB  ASN d   2    1423.434 415.191-1429.149  0.00  0.00     0.137 C 
BRANCH  51  52
ATOM     52  CG  ASN d   2    1422.971 415.415-1427.706  0.00  0.00     0.217 C 
ATOM     53  ND2 ASN d   2    1423.566 416.330-1426.988  0.00  0.00    -0.370 N 
ATOM     54 21HD ASN d   2    1423.085 416.503-1426.101  0.00  0.00     0.159 HD
ATOM     55 22HD ASN d   2    1424.267 416.902-1427.457  0.00  0.00     0.159 HD
ATOM     56  OD1 ASN d   2    1422.051 414.781-1427.212  0.00  0.00    -0.274 OA
ENDBRANCH  51  52
ENDBRANCH  38  51
ENDBRANCH  33  38
ENDBRANCH  28  31
ENDBRANCH  26  27
BRANCH  26  57
ATOM     57  CB  GLU d   4    1419.952 417.327-1435.506  0.00  0.00     0.045 C 
BRANCH  57  58
ATOM     58  CG  GLU d   4    1419.404 418.331-1436.572  0.00  0.00     0.116 C 
BRANCH  58  59
ATOM     59  CD  GLU d   4    1417.978 418.828-1436.428  0.00  0.00     0.172 C 
ATOM     60  OE1 GLU d   4    1417.251 418.429-1435.497  0.00  0.00    -0.648 OA
ATOM     61  OE2 GLU d   4    1417.588 419.657-1437.276  0.00  0.00    -0.648 OA
ENDBRANCH  58  59
ENDBRANCH  57  58
ENDBRANCH  26  57
ENDBRANCH  23  26
ENDBRANCH  21  22
BRANCH  21  62
ATOM     62  CB  SER d   5    1423.548 420.376-1432.963  0.00  0.00     0.199 C 
BRANCH  62  63
ATOM     63  OG  SER d   5    1424.280 419.497-1432.103  0.00  0.00    -0.398 OA
ATOM     64  HG  SER d   5    1423.792 418.672-1432.052  0.00  0.00     0.209 HD
ENDBRANCH  62  63
ENDBRANCH  21  62
ENDBRANCH  18  21
ENDBRANCH  16  17
BRANCH  16  65
ATOM     65  CB  ILE d   6    1427.313 416.825-1434.612  0.00  0.00     0.013 C 
ATOM     66  CG2 ILE d   6    1428.755 416.523-1435.128  0.00  0.00     0.012 C 
BRANCH  65  67
ATOM     67  CG1 ILE d   6    1427.333 416.762-1433.051  0.00  0.00     0.002 C 
ATOM     68  CD1 ILE d   6    1427.603 415.373-1432.437  0.00  0.00     0.005 C 
ENDBRANCH  65  67
ENDBRANCH  16  65
ENDBRANCH  13  16
ENDBRANCH  11  12
BRANCH  11  69
ATOM     69  CB  LEU d   7    1424.452 416.564-1439.233  0.00  0.00     0.038 C 
BRANCH  69  70
ATOM     70  CG  LEU d   7    1424.379 415.084-1438.766  0.00  0.00    -0.020 C 
ATOM     71  CD1 LEU d   7    1423.190 414.379-1439.432  0.00  0.00     0.009 C 
ATOM     72  CD2 LEU d   7    1425.673 414.305-1439.058  0.00  0.00     0.009 C 
ENDBRANCH  69  70
ENDBRANCH  11  69
ENDBRANCH   8  11
ENDBRANCH   6   7
BRANCH   6  73
ATOM     73  CB  ASP d   8    1423.597 421.849-1438.629  0.00  0.00     0.147 C 
BRANCH  73  74
ATOM     74  CG  ASP d   8    1423.378 423.269-1439.169  0.00  0.00     0.175 C 
ATOM     75  OD1 ASP d   8    1423.442 423.469-1440.399  0.00  0.00    -0.648 OA
ATOM     76  OD2 ASP d   8    1423.186 424.195-1438.353  0.00  0.00    -0.648 OA
ENDBRANCH  73  74
ENDBRANCH   6  73
ENDBRANCH   3   6
ENDBRANCH   1   2
BRANCH   1  77
ATOM     77  C   TYR d   9    1428.922 421.770-1439.239  0.00  0.00     0.241 C 
ATOM     78  O   TYR d   9    1429.582 422.521-1439.961  0.00  0.00    -0.271 OA
ATOM     79  N   HIS d  10    1429.018 420.495-1439.408  0.00  0.00    -0.346 N 
ATOM     80  H   HIS d  10    1428.488 419.859-1438.830  0.00  0.00     0.163 HD
BRANCH  79  81
ATOM     81  CA  HIS d  10    1429.906 419.984-1440.449  0.00  0.00     0.182 C 
BRANCH  81  82
ATOM     82  C   HIS d  10    1429.539 420.548-1441.800  0.00  0.00     0.241 C 
ATOM     83  O   HIS d  10    1430.391 421.013-1442.572  0.00  0.00    -0.271 OA
ATOM     84  N   VAL d  11    1428.301 420.547-1442.163  0.00  0.00    -0.346 N 
ATOM     85  H   VAL d  11    1427.588 420.174-1441.552  0.00  0.00     0.163 HD
BRANCH  84  86
ATOM     86  CA  VAL d  11    1427.946 421.093-1443.469  0.00  0.00     0.180 C 
BRANCH  86  87
ATOM     87  C   VAL d  11    1428.410 422.524-1443.601  0.00  0.00     0.241 C 
ATOM     88  O   VAL d  11    1429.010 422.930-1444.604  0.00  0.00    -0.271 OA
ATOM     89  N   GLN d  12    1428.172 423.350-1442.639  0.00  0.00    -0.346 N 
ATOM     90  H   GLN d  12    1427.684 423.043-1441.810  0.00  0.00     0.163 HD
BRANCH  89  91
ATOM     91  CA  GLN d  12    1428.620 424.733-1442.766  0.00  0.00     0.177 C 
BRANCH  91  92
ATOM     92  C   GLN d  12    1430.110 424.801-1443.004  0.00  0.00     0.241 C 
ATOM     93  O   GLN d  12    1430.597 425.509-1443.882  0.00  0.00    -0.271 OA
ATOM     94  N   ARG d  13    1430.895 424.094-1442.263  0.00  0.00    -0.346 N 
ATOM     95  H   ARG d  13    1430.519 423.504-1441.535  0.00  0.00     0.163 HD
BRANCH  94  96
ATOM     96  CA  ARG d  13    1432.336 424.160-1442.495  0.00  0.00     0.176 C 
BRANCH  96  97
ATOM     97  C   ARG d  13    1432.671 423.789-1443.920  0.00  0.00     0.241 C 
ATOM     98  O   ARG d  13    1433.440 424.461-1444.604  0.00  0.00    -0.271 OA
ATOM     99  N   VAL d  14    1432.135 422.735-1444.434  0.00  0.00    -0.346 N 
ATOM    100  H   VAL d  14    1431.501 422.166-1443.892  0.00  0.00     0.163 HD
BRANCH  99 101
ATOM    101  CA  VAL d  14    1432.460 422.376-1445.812  0.00  0.00     0.180 C 
BRANCH 101 102
ATOM    102  C   VAL d  14    1432.129 423.506-1446.757  0.00  0.00     0.241 C 
ATOM    103  O   VAL d  14    1432.923 423.887-1447.627  0.00  0.00    -0.271 OA
ATOM    104  N   MET d  15    1430.984 424.091-1446.655  0.00  0.00    -0.346 N 
ATOM    105  H   MET d  15    1430.320 423.798-1445.953  0.00  0.00     0.163 HD
BRANCH 104 106
ATOM    106  CA  MET d  15    1430.664 425.184-1447.569  0.00  0.00     0.177 C 
BRANCH 106 107
ATOM    107  C   MET d  15    1431.694 426.284-1447.481  0.00  0.00     0.241 C 
ATOM    108  O   MET d  15    1432.196 426.795-1448.494  0.00  0.00    -0.271 OA
ATOM    109  N   ARG d  16    1432.063 426.705-1446.319  0.00  0.00    -0.347 N 
ATOM    110  H   ARG d  16    1431.668 426.305-1445.480  0.00  0.00     0.163 HD
BRANCH 109 111
ATOM    111  CA  ARG d  16    1433.059 427.769-1446.235  0.00  0.00     0.162 C 
BRANCH 111 112
ATOM    112  C   ARG d  16    1434.330 427.377-1446.952  0.00  0.00     0.219 C 
ATOM    113  O   ARG d  16    1434.443 426.300-1447.533  0.00  0.00    -0.287 OA
ENDBRANCH 111 112
BRANCH 111 114
ATOM    114  CB  ARG d  16    1433.328 428.087-1444.737  0.00  0.00     0.035 C 
BRANCH 114 115
ATOM    115  CG  ARG d  16    1434.153 429.376-1444.464  0.00  0.00     0.023 C 
BRANCH 115 116
ATOM    116  CD  ARG d  16    1434.403 429.596-1442.963  0.00  0.00     0.138 C 
BRANCH 116 117
ATOM    117  NE  ARG d  16    1435.179 430.855-1442.762  0.00  0.00    -0.227 N 
ATOM    118  CZ  ARG d  16    1435.571 431.337-1441.587  0.00  0.00     0.665 C 
ATOM    119  NH1 ARG d  16    1435.323 430.752-1440.448  0.00  0.00    -0.235 N 
ATOM    120  NH2 ARG d  16    1436.234 432.450-1441.568  0.00  0.00    -0.235 N 
ATOM    121 11HH ARG d  16    1434.798 429.879-1440.532  0.00  0.00     0.174 HD
ATOM    122 12HH ARG d  16    1435.658 431.188-1439.587  0.00  0.00     0.174 HD
ATOM    123 21HH ARG d  16    1436.420 432.893-1442.470  0.00  0.00     0.174 HD
ATOM    124 22HH ARG d  16    1436.525 432.805-1440.656  0.00  0.00     0.174 HD
ATOM    125  HE  ARG d  16    1435.458 431.436-1443.559  0.00  0.00     0.177 HD
ENDBRANCH 116 117
ENDBRANCH 115 116
ENDBRANCH 114 115
ENDBRANCH 111 114
ENDBRANCH 109 111
ENDBRANCH 106 107
BRANCH 106 126
ATOM    126  CB  MET d  15    1429.242 425.730-1447.260  0.00  0.00     0.045 C 
BRANCH 126 127
ATOM    127  CG  MET d  15    1428.080 424.731-1447.451  0.00  0.00     0.076 C 
BRANCH 127 128
ATOM    128  SD  MET d  15    1426.506 425.597-1447.336  0.00  0.00    -0.173 SA
ATOM    129  CE  MET d  15    1425.426 424.167-1447.200  0.00  0.00     0.089 C 
ENDBRANCH 127 128
ENDBRANCH 126 127
ENDBRANCH 106 126
ENDBRANCH 104 106
ENDBRANCH 101 102
BRANCH 101 130
ATOM    130  CB  VAL d  14    1431.688 421.059-1446.219  0.00  0.00     0.009 C 
ATOM    131  CG1 VAL d  14    1431.776 420.641-1447.712  0.00  0.00     0.012 C 
ATOM    132  CG2 VAL d  14    1432.120 419.806-1445.419  0.00  0.00     0.012 C 
ENDBRANCH 101 130
ENDBRANCH  99 101
ENDBRANCH  96  97
BRANCH  96 133
ATOM    133  CB  ARG d  13    1433.049 423.221-1441.481  0.00  0.00     0.036 C 
BRANCH 133 134
ATOM    134  CG  ARG d  13    1434.594 423.375-1441.400  0.00  0.00     0.023 C 
BRANCH 134 135
ATOM    135  CD  ARG d  13    1435.222 422.387-1440.403  0.00  0.00     0.138 C 
BRANCH 135 136
ATOM    136  NE  ARG d  13    1436.699 422.595-1440.353  0.00  0.00    -0.227 N 
ATOM    137  CZ  ARG d  13    1437.548 421.903-1439.598  0.00  0.00     0.665 C 
ATOM    138  NH1 ARG d  13    1437.183 420.938-1438.801  0.00  0.00    -0.235 N 
ATOM    139  NH2 ARG d  13    1438.807 422.203-1439.655  0.00  0.00    -0.235 N 
ATOM    140 11HH ARG d  13    1436.178 420.752-1438.804  0.00  0.00     0.174 HD
ATOM    141 12HH ARG d  13    1437.896 420.456-1438.253  0.00  0.00     0.174 HD
ATOM    142 21HH ARG d  13    1439.074 422.961-1440.286  0.00  0.00     0.174 HD
ATOM    143 22HH ARG d  13    1439.443 421.661-1439.067  0.00  0.00     0.174 HD
ATOM    144  HE  ARG d  13    1437.150 423.317-1440.924  0.00  0.00     0.177 HD
ENDBRANCH 135 136
ENDBRANCH 134 135
ENDBRANCH 133 134
ENDBRANCH  96 133
ENDBRANCH  94  96
ENDBRANCH  91  92
BRANCH  91 145
ATOM    145  CB  GLN d  12    1428.230 425.500-1441.483  0.00  0.00     0.044 C 
BRANCH 145 146
ATOM    146  CG  GLN d  12    1428.589 427.022-1441.452  0.00  0.00     0.105 C 
BRANCH 146 147
ATOM    147  CD  GLN d  12    1428.287 427.835-1440.186  0.00  0.00     0.215 C 
ATOM    148  NE2 GLN d  12    1427.720 427.258-1439.157  0.00  0.00    -0.370 N 
ATOM    149 21HE GLN d  12    1427.613 427.852-1438.334  0.00  0.00     0.159 HD
ATOM    150 22HE GLN d  12    1427.557 426.255-1439.261  0.00  0.00     0.159 HD
ATOM    151  OE1 GLN d  12    1428.588 429.016-1440.109  0.00  0.00    -0.274 OA
ENDBRANCH 146 147
ENDBRANCH 145 146
ENDBRANCH  91 145
ENDBRANCH  89  91
ENDBRANCH  86  87
BRANCH  86 152
ATOM    152  CB  VAL d  11    1426.384 420.986-1443.688  0.00  0.00     0.009 C 
ATOM    153  CG1 VAL d  11    1425.815 421.691-1444.950  0.00  0.00     0.012 C 
ATOM    154  CG2 VAL d  11    1425.860 419.532-1443.761  0.00  0.00     0.012 C 
ENDBRANCH  86 152
ENDBRANCH  84  86
ENDBRANCH  81  82
BRANCH  81 155
ATOM    155  CB  HIS d  10    1429.743 418.455-1440.444  0.00  0.00     0.095 C 
BRANCH 155 156
ATOM    156  CG  HIS d  10    1431.028 417.745-1440.136  0.00  0.00     0.053 A 
ATOM    157  CD2 HIS d  10    1431.410 417.409-1438.844  0.00  0.00     0.116 A 
ATOM    158  NE2 HIS d  10    1432.625 416.778-1438.911  0.00  0.00    -0.359 N 
ATOM    159  CE1 HIS d  10    1432.887 416.781-1440.246  0.00  0.00     0.207 A 
ATOM    160  2HE HIS d  10    1433.192 416.401-1438.137  0.00  0.00     0.166 HD
ATOM    161  ND1 HIS d  10    1431.980 417.339-1441.069  0.00  0.00    -0.247 NA
ENDBRANCH 155 156
ENDBRANCH  81 155
ENDBRANCH  79  81
ENDBRANCH   1  77
BRANCH   1 162
ATOM    162  CB  TYR d   9    1428.690 422.056-1436.786  0.00  0.00     0.073 C 
BRANCH 162 163
ATOM    163  CG  TYR d   9    1427.961 422.597-1435.550  0.00  0.00    -0.056 A 
ATOM    164  CD1 TYR d   9    1428.015 423.957-1435.228  0.00  0.00     0.010 A 
ATOM    165  CE1 TYR d   9    1427.337 424.438-1434.112  0.00  0.00     0.037 A 
ATOM    166  CZ  TYR d   9    1426.605 423.564-1433.311  0.00  0.00     0.065 A 
ATOM    167  CE2 TYR d   9    1426.548 422.208-1433.625  0.00  0.00     0.037 A 
ATOM    168  CD2 TYR d   9    1427.225 421.725-1434.741  0.00  0.00     0.010 A 
BRANCH 166 169
ATOM    169  OH  TYR d   9    1425.939 424.041-1432.218  0.00  0.00    -0.361 OA
ATOM    170  HH  TYR d   9    1425.491 423.308-1431.792  0.00  0.00     0.217 HD
ENDBRANCH 166 169
ENDBRANCH 162 163
ENDBRANCH   1 162
TORSDOF 68
