@<TRIPOS>MOLECULE
1-19
272 273 16              
SMALL
USER_CHARGES
@<TRIPOS>ATOM
1	   N	156.855	30.710	-128.583	N.3	1	LYS1	-0.348	
2	  CA	157.414	32.059	-128.583	C.3	1	LYS1	-0.240	
3	   C	158.924	32.019	-128.583	C.2	1	LYS1	0.734	
4	   O	159.600	32.718	-129.352	O.2	1	LYS1	-0.589	
5	  CB	156.879	32.840	-127.352	C.3	1	LYS1	-0.009	
6	  CG	157.356	34.313	-127.302	C.3	1	LYS1	0.019	
7	  CD	156.901	35.096	-126.067	C.3	1	LYS1	-0.048	
8	  CE	157.502	36.507	-126.113	C.3	1	LYS1	-0.014	
9	  NZ	156.932	37.318	-125.023	N.4	1	LYS1	-0.385	
10	   H	157.483	29.831	-128.583	 H	1	LYS1	0.275	
11	  HA	157.095	32.569	-129.511	 H	1	LYS1	0.143	
12	 2HB	157.176	32.316	-126.420	 H	1	LYS1	0.036	
13	 3HB	155.771	32.818	-127.349	 H	1	LYS1	0.036	
14	 2HG	157.034	34.839	-128.222	 H	1	LYS1	0.010	
15	 3HG	158.461	34.357	-127.309	 H	1	LYS1	0.010	
16	 2HD	157.229	34.570	-125.147	 H	1	LYS1	0.062	
17	 3HD	155.795	35.128	-126.030	 H	1	LYS1	0.062	
18	 2HE	157.297	36.998	-127.087	 H	1	LYS1	0.113	
19	 3HE	158.608	36.461	-126.024	 H	1	LYS1	0.113	
20	 1HZ	156.796	36.747	-124.180	 H	1	LYS1	0.340	
21	 2HZ	157.565	38.078	-124.753	 H	1	LYS1	0.340	
22	 3HZ	156.057	37.684	-125.369	 H	1	LYS1	0.340	
23	   N	159.529	31.233	-127.758	N.am	2	ASN2	-0.416	
24	  CA	160.988	31.194	-127.758	C.3	2	ASN2	0.014	
25	   C	161.519	30.839	-129.127	C.2	2	ASN2	0.597	
26	   O	162.434	31.470	-129.656	O.2	2	ASN2	-0.568	
27	  CB	161.480	30.172	-126.694	C.3	2	ASN2	-0.204	
28	  CG	161.017	30.395	-125.250	C.2	2	ASN2	0.713	
29	 ND2	161.611	31.310	-124.532	N.pl3	2	ASN2	-0.919	
30	 OD1	160.097	29.761	-124.756	O.2	2	ASN2	-0.593	
31	   H	159.001	30.653	-127.122	 H	2	ASN2	0.272	
32	  HA	161.365	32.204	-127.513	 H	2	ASN2	0.105	
33	 2HB	162.585	30.113	-126.697	 H	2	ASN2	0.080	
34	 3HB	161.151	29.153	-126.980	 H	2	ASN2	0.080	
35	1HD2	161.131	31.483	-123.646	 H	2	ASN2	0.420	
36	2HD2	162.313	31.882	-125.002	 H	2	ASN2	0.420	
37	   N	160.998	29.844	-129.761	N.am	3	PRO3	-0.255	
38	  CA	161.450	29.435	-131.082	C.3	3	PRO3	-0.027	
39	   C	161.051	30.458	-132.159	C.2	3	PRO3	0.590	
40	   O	161.874	30.841	-132.991	O.2	3	PRO3	-0.575	
41	  CB	160.746	28.080	-131.252	C.3	3	PRO3	-0.007	
42	  CG	159.462	28.232	-130.421	C.3	3	PRO3	0.019	
43	  CD	159.920	29.051	-129.212	C.3	3	PRO3	0.019	
44	  HA	162.535	29.315	-131.096	 H	3	PRO3	0.064	
45	 2HB	161.369	27.299	-130.811	 H	3	PRO3	0.025	
46	 3HB	160.547	27.831	-132.297	 H	3	PRO3	0.025	
47	 2HG	159.035	27.270	-130.130	 H	3	PRO3	0.021	
48	 3HG	158.725	28.803	-130.989	 H	3	PRO3	0.021	
49	 2HD	160.309	28.401	-128.424	 H	3	PRO3	0.039	
50	 3HD	159.123	29.686	-128.819	 H	3	PRO3	0.039	
51	   N	159.846	30.918	-132.192	N.am	4	GLU4	-0.516	
52	  CA	159.486	31.889	-133.221	C.3	4	GLU4	0.040	
53	   C	160.385	33.100	-133.160	C.2	4	GLU4	0.537	
54	   O	160.911	33.580	-134.175	O.2	4	GLU4	-0.582	
55	  CB	157.998	32.307	-133.051	C.3	4	GLU4	0.056	
56	  CG	157.449	33.311	-134.116	C.3	4	GLU4	0.014	
57	  CD	156.023	33.807	-133.973	C.2	4	GLU4	0.805	
58	 OE1	155.297	33.409	-133.042	O.co2	4	GLU4	-0.819	
59	 OE2	155.633	34.636	-134.821	O.co2	4	GLU4	-0.819	
60	   H	159.162	30.611	-131.515	 H	4	GLU4	0.294	
61	  HA	159.618	31.418	-134.212	 H	4	GLU4	0.111	
62	 2HB	157.845	32.747	-132.044	 H	4	GLU4	-0.017	
63	 3HB	157.350	31.409	-133.057	 H	4	GLU4	-0.017	
64	 2HG	157.531	32.896	-135.134	 H	4	GLU4	-0.043	
65	 3HG	158.037	34.243	-134.128	 H	4	GLU4	-0.043	
66	   N	160.613	33.653	-132.017	N.am	5	SER5	-0.416	
67	  CA	161.482	34.824	-131.958	C.3	5	SER5	-0.025	
68	   C	162.841	34.519	-132.544	C.2	5	SER5	0.597	
69	   O	163.388	35.273	-133.349	O.2	5	SER5	-0.568	
70	  CB	161.593	35.357	-130.508	C.3	5	SER5	0.212	
71	  OG	162.325	34.478	-129.647	O.3	5	SER5	-0.655	
72	   H	160.196	33.281	-131.175	 H	5	SER5	0.272	
73	  HA	161.032	35.614	-132.588	 H	5	SER5	0.084	
74	 2HB	160.594	35.550	-130.075	 H	5	SER5	0.035	
75	 3HB	162.098	36.342	-130.510	 H	5	SER5	0.035	
76	  HG	161.837	33.653	-129.596	 H	5	SER5	0.428	
77	   N	163.446	33.436	-132.190	N.am	6	ILE6	-0.416	
78	  CA	164.759	33.142	-132.757	C.3	6	ILE6	-0.060	
79	   C	164.702	33.104	-134.264	C.2	6	ILE6	0.597	
80	   O	165.536	33.692	-134.968	O.2	6	ILE6	-0.568	
81	  CB	165.359	31.806	-132.157	C.3	6	ILE6	0.130	
82	 CG1	165.379	31.744	-130.596	C.3	6	ILE6	-0.043	
83	 CG2	166.800	31.504	-132.672	C.3	6	ILE6	-0.320	
84	 CD1	165.649	30.355	-129.981	C.3	6	ILE6	-0.066	
85	   H	163.018	32.802	-131.531	 H	6	ILE6	0.272	
86	  HA	165.433	33.976	-132.489	 H	6	ILE6	0.087	
87	  HB	164.701	30.980	-132.501	 H	6	ILE6	0.019	
88	2HG1	164.397	32.063	-130.200	 H	6	ILE6	0.024	
89	3HG1	166.094	32.486	-130.191	 H	6	ILE6	0.024	
90	1HG2	166.859	31.411	-133.771	 H	6	ILE6	0.088	
91	2HG2	167.522	32.287	-132.370	 H	6	ILE6	0.088	
92	3HG2	167.191	30.542	-132.293	 H	6	ILE6	0.088	
93	1HD1	164.921	29.600	-130.335	 H	6	ILE6	0.019	
94	2HD1	166.660	29.976	-130.217	 H	6	ILE6	0.019	
95	3HD1	165.573	30.384	-128.878	 H	6	ILE6	0.019	
96	   N	163.756	32.440	-134.838	N.am	7	LEU7	-0.416	
97	  CA	163.701	32.404	-136.297	C.3	7	LEU7	-0.052	
98	   C	163.628	33.800	-136.869	C.2	7	LEU7	0.597	
99	   O	164.348	34.163	-137.811	O.2	7	LEU7	-0.568	
100	  CB	162.498	31.544	-136.777	C.3	7	LEU7	-0.110	
101	  CG	162.426	30.064	-136.310	C.3	7	LEU7	0.353	
102	 CD1	161.236	29.358	-136.976	C.3	7	LEU7	-0.412	
103	 CD2	163.719	29.286	-136.602	C.3	7	LEU7	-0.412	
104	   H	163.064	31.953	-134.287	 H	7	LEU7	0.272	
105	  HA	164.643	31.965	-136.671	 H	7	LEU7	0.092	
106	 2HB	162.475	31.560	-137.884	 H	7	LEU7	0.046	
107	 3HB	161.558	32.046	-136.472	 H	7	LEU7	0.046	
108	  HG	162.256	30.056	-135.213	 H	7	LEU7	-0.036	
109	1HD1	160.279	29.867	-136.753	 H	7	LEU7	0.100	
110	2HD1	161.335	29.318	-138.077	 H	7	LEU7	0.100	
111	3HD1	161.129	28.317	-136.620	 H	7	LEU7	0.100	
112	1HD2	163.994	29.316	-137.672	 H	7	LEU7	0.100	
113	2HD2	164.573	29.697	-136.031	 H	7	LEU7	0.100	
114	3HD2	163.638	28.223	-136.306	 H	7	LEU7	0.100	
115	   N	162.790	34.640	-136.362	N.am	8	ASP8	-0.516	
116	  CA	162.720	35.989	-136.916	C.3	8	ASP8	0.038	
117	   C	164.066	36.670	-136.858	C.2	8	ASP8	0.537	
118	   O	164.538	37.275	-137.833	O.2	8	ASP8	-0.582	
119	  CB	161.641	36.828	-136.174	C.3	8	ASP8	-0.030	
120	  CG	161.422	38.249	-136.714	C.2	8	ASP8	0.799	
121	 OD1	161.486	38.448	-137.945	O.co2	8	ASP8	-0.801	
122	 OD2	161.229	39.174	-135.899	O.co2	8	ASP8	-0.801	
123	   H	162.193	34.369	-135.595	 H	8	ASP8	0.294	
124	  HA	162.436	35.912	-137.983	 H	8	ASP8	0.088	
125	 2HB	161.898	36.911	-135.102	 H	8	ASP8	-0.012	
126	 3HB	160.662	36.323	-136.207	 H	8	ASP8	-0.012	
127	   N	164.746	36.620	-135.763	N.am	9	GLU9	-0.516	
128	  CA	166.048	37.278	-135.708	C.3	9	GLU9	0.040	
129	   C	166.966	36.751	-136.784	C.2	9	GLU9	0.537	
130	   O	167.630	37.506	-137.509	O.2	9	GLU9	-0.582	
131	  CB	166.682	37.070	-134.303	C.3	9	GLU9	0.056	
132	  CG	168.064	37.763	-134.073	C.3	9	GLU9	0.014	
133	  CD	168.766	37.550	-132.745	C.2	9	GLU9	0.805	
134	 OE1	168.245	36.859	-131.849	O.co2	9	GLU9	-0.819	
135	 OE2	169.885	38.088	-132.613	O.co2	9	GLU9	-0.819	
136	   H	164.383	36.133	-134.956	 H	9	GLU9	0.294	
137	  HA	165.906	38.360	-135.883	 H	9	GLU9	0.111	
138	 2HB	166.795	35.986	-134.099	 H	9	GLU9	-0.017	
139	 3HB	165.985	37.423	-133.518	 H	9	GLU9	-0.017	
140	 2HG	167.992	38.854	-134.213	 H	9	GLU9	-0.043	
141	 3HG	168.811	37.419	-134.807	 H	9	GLU9	-0.043	
142	   N	167.063	35.476	-136.953	N.am	10	HIS10	-0.416	
143	  CA	167.952	34.965	-137.994	C.3	10	HIS10	-0.058	
144	   C	167.584	35.529	-139.345	C.2	10	HIS10	0.597	
145	   O	168.437	35.995	-140.117	O.2	10	HIS10	-0.568	
146	  CB	167.788	33.436	-137.989	C.3	10	HIS10	-0.007	
147	  CG	169.074	32.726	-137.681	C.2	10	HIS10	0.187	
148	 CD2	169.455	32.391	-136.389	C.2	10	HIS10	-0.221	
149	 ND1	170.026	32.321	-138.614	N.2	10	HIS10	-0.543	
150	 CE1	170.933	31.763	-137.791	C.2	10	HIS10	0.163	
151	 NE2	170.670	31.760	-136.455	N.pl3	10	HIS10	-0.280	
152	   H	166.533	34.840	-136.375	 H	10	HIS10	0.272	
153	  HA	168.970	35.323	-137.769	 H	10	HIS10	0.136	
154	 2HB	167.423	33.069	-138.969	 H	10	HIS10	0.037	
155	 3HB	167.033	33.098	-137.249	 H	10	HIS10	0.037	
156	 2HD	168.870	32.606	-135.500	 H	10	HIS10	0.186	
157	 1HE	171.824	31.342	-138.238	 H	10	HIS10	0.144	
158	 2HE	171.237	31.383	-135.682	 H	10	HIS10	0.334	
159	   N	166.347	35.528	-139.708	N.am	11	VAL11	-0.416	
160	  CA	165.991	36.074	-141.015	C.3	11	VAL11	-0.087	
161	   C	166.455	37.505	-141.147	C.2	11	VAL11	0.597	
162	   O	167.056	37.910	-142.150	O.2	11	VAL11	-0.568	
163	  CB	164.430	35.967	-141.234	C.3	11	VAL11	0.299	
164	 CG1	163.861	36.670	-142.497	C.3	11	VAL11	-0.319	
165	 CG2	163.906	34.512	-141.307	C.3	11	VAL11	-0.319	
166	   H	165.634	35.155	-139.097	 H	11	VAL11	0.272	
167	  HA	166.511	35.492	-141.797	 H	11	VAL11	0.097	
168	  HB	163.942	36.446	-140.359	 H	11	VAL11	-0.030	
169	1HG1	164.300	36.279	-143.434	 H	11	VAL11	0.079	
170	2HG1	162.762	36.563	-142.579	 H	11	VAL11	0.079	
171	3HG1	164.039	37.763	-142.487	 H	11	VAL11	0.079	
172	1HG2	164.196	33.925	-140.417	 H	11	VAL11	0.079	
173	2HG2	162.800	34.475	-141.350	 H	11	VAL11	0.079	
174	3HG2	164.288	33.972	-142.194	 H	11	VAL11	0.079	
175	   N	166.217	38.330	-140.185	N.am	12	GLN12	-0.416	
176	  CA	166.665	39.713	-140.312	C.3	12	GLN12	-0.003	
177	   C	168.155	39.782	-140.549	C.2	12	GLN12	0.597	
178	   O	168.642	40.490	-141.428	O.2	12	GLN12	-0.568	
179	  CB	166.274	40.481	-139.029	C.3	12	GLN12	-0.004	
180	  CG	166.634	42.003	-138.998	C.3	12	GLN12	-0.064	
181	  CD	166.331	42.816	-137.733	C.2	12	GLN12	0.695	
182	 NE2	165.764	42.239	-136.704	N.pl3	12	GLN12	-0.941	
183	 OE1	166.632	43.997	-137.655	O.2	12	GLN12	-0.609	
184	   H	165.729	38.024	-139.355	 H	12	GLN12	0.272	
185	  HA	166.166	40.170	-141.187	 H	12	GLN12	0.085	
186	 2HB	166.750	39.981	-138.160	 H	12	GLN12	0.017	
187	 3HB	165.184	40.373	-138.866	 H	12	GLN12	0.017	
188	 2HG	166.156	42.523	-139.848	 H	12	GLN12	0.035	
189	 3HG	167.717	42.145	-139.163	 H	12	GLN12	0.035	
190	1HE2	165.657	42.833	-135.880	 H	12	GLN12	0.425	
191	2HE2	165.601	41.235	-136.807	 H	12	GLN12	0.425	
192	   N	168.940	39.075	-139.809	N.am	13	ARG13	-0.348	
193	  CA	170.380	39.142	-140.039	C.3	13	ARG13	-0.264	
194	   C	170.717	38.770	-141.464	C.2	13	ARG13	0.734	
195	   O	171.485	39.443	-142.149	O.2	13	ARG13	-0.589	
196	  CB	171.094	38.203	-139.026	C.3	13	ARG13	-0.001	
197	  CG	172.639	38.357	-138.945	C.3	13	ARG13	0.039	
198	  CD	173.267	37.369	-137.947	C.3	13	ARG13	0.049	
199	  NE	174.744	37.577	-137.896	N.pl3	13	ARG13	-0.530	
200	  CZ	175.592	36.886	-137.141	C.cat	13	ARG13	0.808	
201	 NH1	175.227	35.921	-136.344	N.pl3	13	ARG13	-0.863	
202	 NH2	176.851	37.185	-137.198	N.pl3	13	ARG13	-0.863	
203	   H	168.564	38.485	-139.080	 H	13	ARG13	0.275	
204	  HA	170.704	40.188	-139.881	 H	13	ARG13	0.156	
205	 2HB	170.828	37.152	-139.265	 H	13	ARG13	0.033	
206	 3HB	170.669	38.369	-138.015	 H	13	ARG13	0.033	
207	 2HG	172.887	39.401	-138.665	 H	13	ARG13	0.029	
208	 3HG	173.090	38.201	-139.946	 H	13	ARG13	0.029	
209	 2HD	173.023	36.329	-138.256	 H	13	ARG13	0.069	
210	 3HD	172.810	37.514	-136.944	 H	13	ARG13	0.069	
211	  HE	175.194	38.299	-138.467	 H	13	ARG13	0.346	
212	1HH1	174.222	35.734	-136.347	 H	13	ARG13	0.448	
213	2HH1	175.941	35.438	-135.795	 H	13	ARG13	0.448	
214	1HH2	177.118	37.943	-137.829	 H	13	ARG13	0.448	
215	2HH2	177.487	36.644	-136.610	 H	13	ARG13	0.448	
216	   N	170.181	37.716	-141.979	N.am	14	VAL14	-0.416	
217	  CA	170.506	37.357	-143.357	C.3	14	VAL14	-0.087	
218	   C	170.176	38.487	-144.302	C.2	14	VAL14	0.597	
219	   O	170.969	38.869	-145.172	O.2	14	VAL14	-0.568	
220	  CB	169.734	36.039	-143.764	C.3	14	VAL14	0.299	
221	 CG1	169.824	35.621	-145.257	C.3	14	VAL14	-0.319	
222	 CG2	170.167	34.787	-142.963	C.3	14	VAL14	-0.319	
223	   H	169.547	37.147	-141.437	 H	14	VAL14	0.272	
224	  HA	171.595	37.181	-143.431	 H	14	VAL14	0.097	
225	  HB	168.658	36.210	-143.548	 H	14	VAL14	-0.030	
226	1HG1	170.865	35.445	-145.586	 H	14	VAL14	0.079	
227	2HG1	169.251	34.698	-145.470	 H	14	VAL14	0.079	
228	3HG1	169.394	36.384	-145.935	 H	14	VAL14	0.079	
229	1HG2	170.080	34.946	-141.873	 H	14	VAL14	0.079	
230	2HG2	169.532	33.911	-143.196	 H	14	VAL14	0.079	
231	3HG2	171.215	34.498	-143.169	 H	14	VAL14	0.079	
232	   N	169.031	39.072	-144.200	N.am	15	MET15	-0.416	
233	  CA	168.710	40.165	-145.114	C.3	15	MET15	-0.024	
234	   C	169.739	41.265	-145.026	C.2	15	MET15	0.597	
235	   O	170.242	41.776	-146.038	O.2	15	MET15	-0.568	
236	  CB	167.288	40.710	-144.805	C.3	15	MET15	0.034	
237	  CG	166.126	39.711	-144.996	C.3	15	MET15	0.002	
238	  SD	164.552	40.576	-144.882	S.3	15	MET15	-0.274	
239	  CE	163.472	39.146	-144.746	C.3	15	MET15	-0.054	
240	   H	168.366	38.779	-143.499	 H	15	MET15	0.272	
241	  HA	168.736	39.778	-146.149	 H	15	MET15	0.088	
242	 2HB	167.085	41.588	-145.447	 H	15	MET15	0.024	
243	 3HB	167.252	41.102	-143.768	 H	15	MET15	0.024	
244	 2HG	166.170	38.925	-144.219	 H	15	MET15	0.044	
245	 3HG	166.190	39.196	-145.973	 H	15	MET15	0.044	
246	 1HE	163.616	38.458	-145.598	 H	15	MET15	0.068	
247	 2HE	163.681	38.593	-143.813	 H	15	MET15	0.068	
248	 3HE	162.414	39.461	-144.729	 H	15	MET15	0.068	
249	   N	170.108	41.686	-143.863	N.am	16	ARG16	-0.348	
250	  CA	171.104	42.751	-143.780	C.3	16	ARG16	-0.264	
251	   C	172.375	42.358	-144.496	C.2	16	ARG16	0.734	
252	   O	172.489	41.282	-145.078	O.2	16	ARG16	-0.589	
253	  CB	171.373	43.068	-142.281	C.3	16	ARG16	-0.001	
254	  CG	172.197	44.358	-142.008	C.3	16	ARG16	0.039	
255	  CD	172.447	44.577	-140.507	C.3	16	ARG16	0.049	
256	  NE	173.222	45.836	-140.306	N.pl3	16	ARG16	-0.530	
257	  CZ	173.614	46.319	-139.130	C.cat	16	ARG16	0.808	
258	 NH1	173.366	45.734	-137.992	N.pl3	16	ARG16	-0.863	
259	 NH2	174.277	47.432	-139.112	N.pl3	16	ARG16	-0.863	
260	   H	169.713	41.286	-143.024	 H	16	ARG16	0.275	
261	  HA	170.694	43.643	-144.289	 H	16	ARG16	0.156	
262	 2HB	171.870	42.193	-141.815	 H	16	ARG16	0.033	
263	 3HB	170.404	43.149	-141.747	 H	16	ARG16	0.033	
264	 2HG	171.667	45.228	-142.445	 H	16	ARG16	0.029	
265	 3HG	173.171	44.305	-142.537	 H	16	ARG16	0.029	
266	 2HD	172.996	43.703	-140.094	 H	16	ARG16	0.069	
267	 3HD	171.474	44.619	-139.972	 H	16	ARG16	0.069	
268	  HE	173.501	46.417	-141.103	 H	16	ARG16	0.346	
269	1HH1	172.841	44.861	-138.076	 H	16	ARG16	0.448	
270	2HH1	173.700	46.170	-137.131	 H	16	ARG16	0.448	
271	1HH2	174.462	47.875	-140.013	 H	16	ARG16	0.448	
272	2HH2	174.567	47.787	-138.199	 H	16	ARG16	0.448	
@<TRIPOS>BOND
1 1 2 1
2 1 10 1
3 2 3 1
4 2 5 1
5 2 11 1
6 3 4 2
7 3 23 1
8 5 6 1
9 6 7 1
10 7 8 1
11 8 9 1
12 9 22 1
13 5 12 1
14 5 13 1
15 6 14 1
16 6 15 1
17 7 16 1
18 7 17 1
19 8 18 1
20 8 19 1
21 9 20 1
22 9 21 1
23 23 24 1
24 23 31 1
25 24 25 1
26 24 27 1
27 24 32 1
28 25 26 2
29 25 37 1
30 27 28 1
31 28 29 1
32 28 30 2
33 27 33 1
34 27 34 1
35 29 35 1
36 29 36 1
37 37 38 1
38 37 43 1
39 38 39 1
40 38 41 1
41 38 44 1
42 39 40 2
43 39 51 1
44 41 42 1
45 42 43 1
46 41 45 1
47 41 46 1
48 42 47 1
49 42 48 1
50 43 49 1
51 43 50 1
52 51 52 1
53 51 60 1
54 52 53 1
55 52 55 1
56 52 61 1
57 53 54 2
58 53 66 1
59 55 56 1
60 56 57 1
61 57 58 2
62 57 59 1
63 55 62 1
64 55 63 1
65 56 64 1
66 56 65 1
67 66 67 1
68 66 72 1
69 67 68 1
70 67 70 1
71 67 73 1
72 68 69 2
73 68 77 1
74 70 71 1
75 70 74 1
76 70 75 1
77 71 76 1
78 77 78 1
79 77 85 1
80 78 79 1
81 78 81 1
82 78 86 1
83 79 80 2
84 79 96 1
85 81 82 1
86 81 83 1
87 82 84 1
88 81 87 1
89 82 88 1
90 82 89 1
91 83 90 1
92 83 91 1
93 83 92 1
94 84 93 1
95 84 94 1
96 84 95 1
97 96 97 1
98 96 104 1
99 97 98 1
100 97 100 1
101 97 105 1
102 98 99 2
103 98 115 1
104 100 101 1
105 101 102 1
106 101 103 1
107 100 106 1
108 100 107 1
109 101 108 1
110 102 109 1
111 102 110 1
112 102 111 1
113 103 112 1
114 103 113 1
115 103 114 1
116 115 116 1
117 115 123 1
118 116 117 1
119 116 119 1
120 116 124 1
121 117 118 2
122 117 127 1
123 119 120 1
124 120 121 2
125 120 122 1
126 119 125 1
127 119 126 1
128 127 128 1
129 127 136 1
130 128 129 1
131 128 131 1
132 128 137 1
133 129 130 2
134 129 142 1
135 131 132 1
136 132 133 1
137 133 134 2
138 133 135 1
139 131 138 1
140 131 139 1
141 132 140 1
142 132 141 1
143 142 143 1
144 142 152 1
145 143 144 1
146 143 146 1
147 143 153 1
148 144 145 2
149 144 159 1
150 146 147 1
151 147 148 2
152 148 151 1
153 147 149 1
154 149 150 2
155 150 151 1
156 146 154 1
157 146 155 1
158 148 156 1
159 150 157 1
160 151 158 1
161 159 160 1
162 159 166 1
163 160 161 1
164 160 163 1
165 160 167 1
166 161 162 2
167 161 175 1
168 163 164 1
169 163 165 1
170 163 168 1
171 164 169 1
172 164 170 1
173 164 171 1
174 165 172 1
175 165 173 1
176 165 174 1
177 175 176 1
178 175 184 1
179 176 177 1
180 176 179 1
181 176 185 1
182 177 178 2
183 177 192 1
184 179 180 1
185 180 181 1
186 181 182 1
187 181 183 2
188 179 186 1
189 179 187 1
190 180 188 1
191 180 189 1
192 182 190 1
193 182 191 1
194 192 193 1
195 192 203 1
196 193 194 1
197 193 196 1
198 193 204 1
199 194 195 2
200 194 216 1
201 196 197 1
202 197 198 1
203 198 199 1
204 199 200 1
205 200 201 2
206 200 202 1
207 196 205 1
208 196 206 1
209 197 207 1
210 197 208 1
211 198 209 1
212 198 210 1
213 199 211 1
214 201 212 1
215 201 213 1
216 202 214 1
217 202 215 1
218 216 217 1
219 216 223 1
220 217 218 1
221 217 220 1
222 217 224 1
223 218 219 2
224 218 232 1
225 220 221 1
226 220 222 1
227 220 225 1
228 221 226 1
229 221 227 1
230 221 228 1
231 222 229 1
232 222 230 1
233 222 231 1
234 232 233 1
235 232 240 1
236 233 234 1
237 233 236 1
238 233 241 1
239 234 235 2
240 234 249 1
241 236 237 1
242 237 238 1
243 238 239 1
244 236 242 1
245 236 243 1
246 237 244 1
247 237 245 1
248 239 246 1
249 239 247 1
250 239 248 1
251 249 250 1
252 249 260 1
253 250 251 1
254 250 253 1
255 250 261 1
256 251 252 2
257 253 254 1
258 254 255 1
259 255 256 1
260 256 257 1
261 257 258 2
262 257 259 1
263 253 262 1
264 253 263 1
265 254 264 1
266 254 265 1
267 255 266 1
268 255 267 1
269 256 268 1
270 258 269 1
271 258 270 1
272 259 271 1
273 259 272 1
@<TRIPOS>SUBSTRUCTURE
1	LYS1	1	RESIDUE	1 ****	LYS
2	ASN2	23	RESIDUE	1 ****	ASN
3	PRO3	37	RESIDUE	1 ****	PRO
4	GLU4	51	RESIDUE	1 ****	GLU
5	SER5	66	RESIDUE	1 ****	SER
6	ILE6	77	RESIDUE	1 ****	ILE
7	LEU7	96	RESIDUE	1 ****	LEU
8	ASP8	115	RESIDUE	1 ****	ASP
9	GLU9	127	RESIDUE	1 ****	GLU
10	HIS10	142	RESIDUE	1 ****	HIS
11	VAL11	159	RESIDUE	1 ****	VAL
12	GLN12	175	RESIDUE	1 ****	GLN
13	ARG13	192	RESIDUE	1 ****	ARG
14	VAL14	216	RESIDUE	1 ****	VAL
15	MET15	232	RESIDUE	1 ****	MET
16	ARG16	249	RESIDUE	1 ****	ARG
