REMARK WARNING: 32 MAX_TORS EXCEEDED!!!
REMARK  64 active torsions:
REMARK  status: ('A' for Active; 'I' for Inactive)
REMARK    1  A    between atoms: N_1  and  CA_2 
REMARK    2  A    between atoms: CA_2  and  C_3 
REMARK    3  A    between atoms: CA_2  and  CB_5 
REMARK       I    between atoms: C_3  and  N_11 
REMARK    4  A    between atoms: CB_5  and  CG_6 
REMARK    5  A    between atoms: CG_6  and  CD_7 
REMARK    6  A    between atoms: N_11  and  CA_12 
REMARK    7  A    between atoms: CA_12  and  C_13 
REMARK    8  A    between atoms: CA_12  and  CB_15 
REMARK       I    between atoms: C_13  and  N_22 
REMARK    9  A    between atoms: CB_15  and  CG_16 
REMARK       I    between atoms: CG_16  and  ND2_17 
REMARK   10  A    between atoms: CA_23  and  C_24 
REMARK       I    between atoms: C_24  and  N_29 
REMARK   11  A    between atoms: N_29  and  CA_30 
REMARK   12  A    between atoms: CA_30  and  C_31 
REMARK   13  A    between atoms: CA_30  and  CB_33 
REMARK       I    between atoms: C_31  and  N_39 
REMARK   14  A    between atoms: CB_33  and  CG_34 
REMARK   15  A    between atoms: CG_34  and  CD_35 
REMARK   16  A    between atoms: N_39  and  CA_40 
REMARK   17  A    between atoms: CA_40  and  C_41 
REMARK   18  A    between atoms: CA_40  and  CB_43 
REMARK       I    between atoms: C_41  and  N_47 
REMARK   19  A    between atoms: CB_43  and  OG_44 
REMARK   20  A    between atoms: N_47  and  CA_48 
REMARK   21  A    between atoms: CA_48  and  C_49 
REMARK   22  A    between atoms: CA_48  and  CB_51 
REMARK       I    between atoms: C_49  and  N_56 
REMARK   23  A    between atoms: CB_51  and  CG1_52 
REMARK   24  A    between atoms: N_56  and  CA_57 
REMARK   25  A    between atoms: CA_57  and  C_58 
REMARK   26  A    between atoms: CA_57  and  CB_60 
REMARK       I    between atoms: C_58  and  N_65 
REMARK   27  A    between atoms: CB_60  and  CG_61 
REMARK   28  A    between atoms: N_65  and  CA_66 
REMARK   29  A    between atoms: CA_66  and  C_67 
REMARK   30  A    between atoms: CA_66  and  CB_69 
REMARK       I    between atoms: C_67  and  N_74 
REMARK   31  A    between atoms: CB_69  and  CG_70 
REMARK   32  A    between atoms: CA_75  and  C_76 
REMARK       I    between atoms: C_76  and  N_81 
REMARK   33  A    between atoms: N_81  and  CA_82 
REMARK   34  A    between atoms: CA_82  and  C_83 
REMARK   35  A    between atoms: CA_82  and  CB_85 
REMARK       I    between atoms: C_83  and  N_93 
REMARK   36  A    between atoms: CB_85  and  CG_86 
REMARK   37  A    between atoms: N_93  and  CA_94 
REMARK   38  A    between atoms: CA_94  and  C_95 
REMARK   39  A    between atoms: CA_94  and  CB_97 
REMARK       I    between atoms: C_95  and  N_101 
REMARK   40  A    between atoms: N_101  and  CA_102 
REMARK   41  A    between atoms: CA_102  and  C_103 
REMARK   42  A    between atoms: CA_102  and  CB_105 
REMARK       I    between atoms: C_103  and  N_113 
REMARK   43  A    between atoms: CB_105  and  CG_106 
REMARK   44  A    between atoms: CG_106  and  CD_107 
REMARK       I    between atoms: CD_107  and  NE2_108 
REMARK   45  A    between atoms: N_113  and  CA_114 
REMARK   46  A    between atoms: CA_114  and  C_115 
REMARK   47  A    between atoms: CA_114  and  CB_117 
REMARK       I    between atoms: C_115  and  N_130 
REMARK   48  A    between atoms: CB_117  and  CG_118 
REMARK   49  A    between atoms: CG_118  and  CD_119 
REMARK   50  A    between atoms: CD_119  and  NE_120 
REMARK       I    between atoms: NE_120  and  CZ_121 
REMARK       I    between atoms: CZ_121  and  NH1_122 
REMARK       I    between atoms: CZ_121  and  NH2_123 
REMARK   51  A    between atoms: N_130  and  CA_131 
REMARK   52  A    between atoms: CA_131  and  C_132 
REMARK   53  A    between atoms: CA_131  and  CB_134 
REMARK       I    between atoms: C_132  and  N_138 
REMARK   54  A    between atoms: N_138  and  CA_139 
REMARK   55  A    between atoms: CA_139  and  C_140 
REMARK   56  A    between atoms: CA_139  and  CB_142 
REMARK       I    between atoms: C_140  and  N_147 
REMARK   57  A    between atoms: CB_142  and  CG_143 
REMARK   58  A    between atoms: CG_143  and  SD_144 
REMARK   59  A    between atoms: N_147  and  CA_148 
REMARK   60  A    between atoms: CA_148  and  C_149 
REMARK   61  A    between atoms: CA_148  and  CB_151 
REMARK   62  A    between atoms: CB_151  and  CG_152 
REMARK   63  A    between atoms: CG_152  and  CD_153 
REMARK   64  A    between atoms: CD_153  and  NE_154 
REMARK       I    between atoms: NE_154  and  CZ_155 
REMARK       I    between atoms: CZ_155  and  NH1_156 
ROOT
ATOM      1  C   PRO d   9    1371.320 403.207-1377.084  0.00  0.00     0.241 C 
ATOM      2  O   PRO d   9    1372.101 403.835-1377.799  0.00  0.00    -0.271 OA
ATOM      3  N   HIS d  10    1371.403 401.921-1377.020  0.00  0.00    -0.346 N 
ATOM      4  H   HIS d  10    1370.768 401.395-1376.437  0.00  0.00     0.163 HD
ENDROOT
BRANCH   3   5
ATOM      5  CA  HIS d  10    1372.429 401.237-1377.802  0.00  0.00     0.182 C 
BRANCH   5   6
ATOM      6  C   HIS d  10    1372.299 401.565-1379.270  0.00  0.00     0.241 C 
ATOM      7  O   HIS d  10    1373.277 401.889-1379.960  0.00  0.00    -0.271 OA
ATOM      8  N   VAL d  11    1371.135 401.506-1379.823  0.00  0.00    -0.346 N 
ATOM      9  H   VAL d  11    1370.323 401.245-1379.282  0.00  0.00     0.163 HD
BRANCH   8  10
ATOM     10  CA  VAL d  11    1371.009 401.823-1381.243  0.00  0.00     0.180 C 
BRANCH  10  11
ATOM     11  C   VAL d  11    1371.532 403.209-1381.536  0.00  0.00     0.241 C 
ATOM     12  O   VAL d  11    1372.297 403.435-1382.482  0.00  0.00    -0.271 OA
ATOM     13  N   GLN d  12    1371.170 404.187-1380.777  0.00  0.00    -0.346 N 
ATOM     14  H   GLN d  12    1370.547 404.028-1379.998  0.00  0.00     0.163 HD
BRANCH  13  15
ATOM     15  CA  GLN d  12    1371.675 405.527-1381.059  0.00  0.00     0.177 C 
BRANCH  15  16
ATOM     16  C   GLN d  12    1373.185 405.548-1381.061  0.00  0.00     0.241 C 
ATOM     17  O   GLN d  12    1373.828 406.095-1381.955  0.00  0.00    -0.271 OA
ATOM     18  N   ARG d  13    1373.820 404.975-1380.095  0.00  0.00    -0.346 N 
ATOM     19  H   ARG d  13    1373.315 404.519-1379.349  0.00  0.00     0.163 HD
BRANCH  18  20
ATOM     20  CA  ARG d  13    1375.280 404.996-1380.098  0.00  0.00     0.176 C 
BRANCH  20  21
ATOM     21  C   ARG d  13    1375.827 404.387-1381.367  0.00  0.00     0.241 C 
ATOM     22  O   ARG d  13    1376.715 404.930-1382.020  0.00  0.00    -0.271 OA
ATOM     23  N   VAL d  14    1375.348 403.262-1381.777  0.00  0.00    -0.346 N 
ATOM     24  H   VAL d  14    1374.618 402.796-1381.258  0.00  0.00     0.163 HD
BRANCH  23  25
ATOM     25  CA  VAL d  14    1375.876 402.673-1383.005  0.00  0.00     0.180 C 
BRANCH  25  26
ATOM     26  C   VAL d  14    1375.735 403.627-1384.167  0.00  0.00     0.241 C 
ATOM     27  O   VAL d  14    1376.667 403.853-1384.948  0.00  0.00    -0.271 OA
ATOM     28  N   MET d  15    1374.607 404.225-1384.350  0.00  0.00    -0.346 N 
ATOM     29  H   MET d  15    1373.830 404.057-1383.727  0.00  0.00     0.163 HD
BRANCH  28  30
ATOM     30  CA  MET d  15    1374.469 405.147-1385.474  0.00  0.00     0.177 C 
BRANCH  30  31
ATOM     31  C   MET d  15    1375.505 406.243-1385.406  0.00  0.00     0.241 C 
ATOM     32  O   MET d  15    1376.177 406.573-1386.395  0.00  0.00    -0.271 OA
ATOM     33  N   ARG d  16    1375.697 406.854-1384.286  0.00  0.00    -0.347 N 
ATOM     34  H   ARG d  16    1375.162 406.604-1383.467  0.00  0.00     0.163 HD
BRANCH  33  35
ATOM     35  CA  ARG d  16    1376.699 407.914-1384.222  0.00  0.00     0.162 C 
BRANCH  35  36
ATOM     36  C   ARG d  16    1378.055 407.402-1384.647  0.00  0.00     0.219 C 
ATOM     37  O   ARG d  16    1378.227 406.242-1385.014  0.00  0.00    -0.287 OA
ENDBRANCH  35  36
BRANCH  35  38
ATOM     38  CB  ARG d  16    1376.736 408.481-1382.774  0.00  0.00     0.035 C 
BRANCH  38  39
ATOM     39  CG  ARG d  16    1377.547 409.795-1382.591  0.00  0.00     0.023 C 
BRANCH  39  40
ATOM     40  CD  ARG d  16    1377.562 410.266-1381.127  0.00  0.00     0.138 C 
BRANCH  40  41
ATOM     41  NE  ARG d  16    1378.334 411.538-1381.017  0.00  0.00    -0.227 N 
ATOM     42  CZ  ARG d  16    1378.548 412.212-1379.891  0.00  0.00     0.665 C 
ATOM     43  NH1 ARG d  16    1378.105 411.830-1378.726  0.00  0.00    -0.235 N 
ATOM     44  NH2 ARG d  16    1379.234 413.310-1379.951  0.00  0.00    -0.235 N 
ATOM     45 11HH ARG d  16    1377.573 410.957-1378.747  0.00  0.00     0.174 HD
ATOM     46 12HH ARG d  16    1378.312 412.405-1377.907  0.00  0.00     0.174 HD
ATOM     47 21HH ARG d  16    1379.574 413.592-1380.872  0.00  0.00     0.174 HD
ATOM     48 22HH ARG d  16    1379.386 413.814-1379.076  0.00  0.00     0.174 HD
ATOM     49  HE  ARG d  16    1378.753 411.975-1381.844  0.00  0.00     0.177 HD
ENDBRANCH  40  41
ENDBRANCH  39  40
ENDBRANCH  38  39
ENDBRANCH  35  38
ENDBRANCH  33  35
ENDBRANCH  30  31
BRANCH  30  50
ATOM     50  CB  MET d  15    1373.033 405.742-1385.494  0.00  0.00     0.045 C 
BRANCH  50  51
ATOM     51  CG  MET d  15    1371.887 404.729-1385.701  0.00  0.00     0.076 C 
BRANCH  51  52
ATOM     52  SD  MET d  15    1370.342 405.606-1385.989  0.00  0.00    -0.173 SA
ATOM     53  CE  MET d  15    1369.210 404.224-1385.792  0.00  0.00     0.089 C 
ENDBRANCH  51  52
ENDBRANCH  50  51
ENDBRANCH  30  50
ENDBRANCH  28  30
ENDBRANCH  25  26
BRANCH  25  54
ATOM     54  CB  VAL d  14    1375.138 401.308-1383.305  0.00  0.00     0.009 C 
ATOM     55  CG1 VAL d  14    1375.451 400.642-1384.673  0.00  0.00     0.012 C 
ATOM     56  CG2 VAL d  14    1375.399 400.209-1382.247  0.00  0.00     0.012 C 
ENDBRANCH  25  54
ENDBRANCH  23  25
ENDBRANCH  20  21
BRANCH  20  57
ATOM     57  CB  ARG d  13    1375.795 404.241-1378.839  0.00  0.00     0.036 C 
BRANCH  57  58
ATOM     58  CG  ARG d  13    1377.311 404.401-1378.536  0.00  0.00     0.023 C 
BRANCH  58  59
ATOM     59  CD  ARG d  13    1377.741 403.596-1377.299  0.00  0.00     0.138 C 
BRANCH  59  60
ATOM     60  NE  ARG d  13    1379.197 403.804-1377.045  0.00  0.00    -0.227 N 
ATOM     61  CZ  ARG d  13    1379.893 403.249-1376.058  0.00  0.00     0.665 C 
ATOM     62  NH1 ARG d  13    1379.377 402.435-1375.180  0.00  0.00    -0.235 N 
ATOM     63  NH2 ARG d  13    1381.154 403.530-1375.960  0.00  0.00    -0.235 N 
ATOM     64 11HH ARG d  13    1378.379 402.254-1375.315  0.00  0.00     0.174 HD
ATOM     65 12HH ARG d  13    1379.979 402.050-1374.450  0.00  0.00     0.174 HD
ATOM     66 21HH ARG d  13    1381.541 404.168-1376.657  0.00  0.00     0.174 HD
ATOM     67 22HH ARG d  13    1381.671 403.095-1375.194  0.00  0.00     0.174 HD
ATOM     68  HE  ARG d  13    1379.755 404.418-1377.649  0.00  0.00     0.177 HD
ENDBRANCH  59  60
ENDBRANCH  58  59
ENDBRANCH  57  58
ENDBRANCH  20  57
ENDBRANCH  18  20
ENDBRANCH  15  16
BRANCH  15  69
ATOM     69  CB  GLN d  12    1371.109 406.502-1380.003  0.00  0.00     0.044 C 
BRANCH  69  70
ATOM     70  CG  GLN d  12    1371.506 408.006-1380.170  0.00  0.00     0.105 C 
BRANCH  70  71
ATOM     71  CD  GLN d  12    1371.031 409.024-1379.125  0.00  0.00     0.215 C 
ATOM     72  NE2 GLN d  12    1370.291 408.633-1378.120  0.00  0.00    -0.370 N 
ATOM     73 21HE GLN d  12    1370.072 409.359-1377.436  0.00  0.00     0.159 HD
ATOM     74 22HE GLN d  12    1370.115 407.627-1378.078  0.00  0.00     0.159 HD
ATOM     75  OE1 GLN d  12    1371.353 410.200-1379.198  0.00  0.00    -0.274 OA
ENDBRANCH  70  71
ENDBRANCH  69  70
ENDBRANCH  15  69
ENDBRANCH  13  15
ENDBRANCH  10  11
BRANCH  10  76
ATOM     76  CB  VAL d  11    1369.500 401.685-1381.691  0.00  0.00     0.009 C 
ATOM     77  CG1 VAL d  11    1369.161 402.166-1383.129  0.00  0.00     0.012 C 
ATOM     78  CG2 VAL d  11    1368.949 400.241-1381.603  0.00  0.00     0.012 C 
ENDBRANCH  10  76
ENDBRANCH   8  10
ENDBRANCH   5   6
BRANCH   5  79
ATOM     79  CB  HIS d  10    1372.219 399.732-1377.568  0.00  0.00     0.095 C 
BRANCH  79  80
ATOM     80  CG  HIS d  10    1373.417 399.080-1376.941  0.00  0.00     0.053 A 
ATOM     81  CD2 HIS d  10    1373.578 398.969-1375.567  0.00  0.00     0.116 A 
ATOM     82  NE2 HIS d  10    1374.768 398.331-1375.329  0.00  0.00    -0.359 N 
ATOM     83  CE1 HIS d  10    1375.239 398.106-1376.585  0.00  0.00     0.207 A 
ATOM     84  2HE HIS d  10    1375.193 398.089-1374.422  0.00  0.00     0.166 HD
ATOM     85  ND1 HIS d  10    1374.493 398.519-1377.626  0.00  0.00    -0.247 NA
ENDBRANCH  79  80
ENDBRANCH   5  79
ENDBRANCH   3   5
BRANCH   1  86
ATOM     86  CA  PRO d   9    1370.246 403.944-1376.267  0.00  0.00     0.179 C 
ATOM     87  N   PRO d   9    1368.940 403.316-1376.407  0.00  0.00    -0.337 N 
ATOM     88  C   ASP d   8    1368.261 403.366-1377.502  0.00  0.00     0.243 C 
ATOM     89  CD  PRO d   9    1368.463 402.632-1375.225  0.00  0.00     0.127 C 
ATOM     90  O   ASP d   8    1368.733 403.972-1378.477  0.00  0.00    -0.271 OA
ATOM     91  CG  PRO d   9    1369.710 402.591-1374.340  0.00  0.00     0.022 C 
ATOM     92  CB  PRO d   9    1370.478 403.856-1374.751  0.00  0.00     0.037 C 
BRANCH  88  93
ATOM     93  CA  ASP d   8    1366.914 402.687-1377.560  0.00  0.00     0.187 C 
BRANCH  93  94
ATOM     94  N   ASP d   8    1366.984 401.337-1377.007  0.00  0.00    -0.346 N 
ATOM     95  C   LEU d   7    1367.822 400.496-1377.513  0.00  0.00     0.241 C 
ATOM     96  O   LEU d   7    1368.542 400.859-1378.455  0.00  0.00    -0.271 OA
ATOM     97  H   ASP d   8    1366.387 401.066-1376.239  0.00  0.00     0.163 HD
BRANCH  95  98
ATOM     98  CA  LEU d   7    1367.894 399.101-1376.941  0.00  0.00     0.177 C 
BRANCH  98  99
ATOM     99  N   LEU d   7    1367.949 399.137-1375.482  0.00  0.00    -0.346 N 
ATOM    100  C   ILE d   6    1368.895 399.800-1374.909  0.00  0.00     0.241 C 
ATOM    101  O   ILE d   6    1369.730 400.388-1375.613  0.00  0.00    -0.271 OA
ATOM    102  H   LEU d   7    1367.257 398.650-1374.931  0.00  0.00     0.163 HD
BRANCH 100 103
ATOM    103  CA  ILE d   6    1368.953 399.838-1373.401  0.00  0.00     0.180 C 
BRANCH 103 104
ATOM    104  N   ILE d   6    1367.640 400.132-1372.835  0.00  0.00    -0.346 N 
ATOM    105  C   SER d   5    1367.035 401.215-1373.189  0.00  0.00     0.243 C 
ATOM    106  O   SER d   5    1367.582 401.969-1373.993  0.00  0.00    -0.271 OA
ATOM    107  H   ILE d   6    1367.211 399.498-1372.176  0.00  0.00     0.163 HD
BRANCH 105 108
ATOM    108  CA  SER d   5    1365.676 401.521-1372.603  0.00  0.00     0.200 C 
BRANCH 108 109
ATOM    109  N   SER d   5    1364.807 400.350-1372.661  0.00  0.00    -0.344 N 
ATOM    110  C   GLU d   4    1364.579 399.797-1373.804  0.00  0.00     0.241 C 
ATOM    111  O   GLU d   4    1365.105 400.276-1374.819  0.00  0.00    -0.271 OA
ATOM    112  H   SER d   5    1364.390 399.978-1371.820  0.00  0.00     0.163 HD
BRANCH 110 113
ATOM    113  CA  GLU d   4    1363.680 398.586-1373.865  0.00  0.00     0.177 C 
BRANCH 113 114
ATOM    114  N   GLU d   4    1364.040 397.614-1372.836  0.00  0.00    -0.346 N 
ATOM    115  C   PRO d   3    1365.245 397.154-1372.804  0.00  0.00     0.241 C 
ATOM    116  O   PRO d   3    1366.068 397.538-1373.635  0.00  0.00    -0.271 OA
ATOM    117  H   GLU d   4    1363.356 397.308-1372.159  0.00  0.00     0.163 HD
BRANCH 115 118
ATOM    118  CA  PRO d   3    1365.643 396.131-1371.727  0.00  0.00     0.179 C 
ATOM    119  N   PRO d   3    1365.191 396.540-1370.405  0.00  0.00    -0.337 N 
ATOM    120  C   ASN d   2    1365.713 397.535-1369.771  0.00  0.00     0.243 C 
ATOM    121  CD  PRO d   3    1364.113 395.747-1369.856  0.00  0.00     0.127 C 
ATOM    122  O   ASN d   2    1366.627 398.166-1370.300  0.00  0.00    -0.271 OA
ATOM    123  CG  PRO d   3    1363.656 394.928-1371.066  0.00  0.00     0.022 C 
ATOM    124  CB  PRO d   3    1364.939 394.776-1371.896  0.00  0.00     0.037 C 
BRANCH 120 125
ATOM    125  CA  ASN d   2    1365.182 397.891-1368.402  0.00  0.00     0.185 C 
BRANCH 125 126
ATOM    126  N   ASN d   2    1363.722 397.930-1368.402  0.00  0.00    -0.346 N 
ATOM    127  C   GLU d   1    1363.118 398.715-1369.228  0.00  0.00     0.242 C 
ATOM    128  O   GLU d   1    1363.793 399.414-1369.996  0.00  0.00    -0.271 OA
ATOM    129  H   ASN d   2    1363.194 397.350-1367.766  0.00  0.00     0.163 HD
BRANCH 127 130
ATOM    130  CA  GLU d   1    1361.609 398.755-1369.228  0.00  0.00     0.191 C 
BRANCH 130 131
ATOM    131  N   GLU d   1    1361.050 397.406-1369.228  0.00  0.00    -0.326 NA
ATOM    132  H   GLU d   1    1361.677 396.527-1369.228  0.00  0.00     0.180 HD
ENDBRANCH 130 131
BRANCH 130 133
ATOM    133  CB  GLU d   1    1361.086 399.540-1367.991  0.00  0.00     0.047 C 
BRANCH 133 134
ATOM    134  CG  GLU d   1    1361.561 401.025-1367.880  0.00  0.00     0.116 C 
BRANCH 134 135
ATOM    135  CD  GLU d   1    1361.137 401.829-1366.665  0.00  0.00     0.172 C 
ATOM    136  OE1 GLU d   1    1360.409 401.327-1365.787  0.00  0.00    -0.648 OA
ATOM    137  OE2 GLU d   1    1361.567 402.999-1366.593  0.00  0.00    -0.648 OA
ENDBRANCH 134 135
ENDBRANCH 133 134
ENDBRANCH 130 133
ENDBRANCH 127 130
ENDBRANCH 125 126
BRANCH 125 138
ATOM    138  CB  ASN d   2    1365.673 396.868-1367.338  0.00  0.00     0.137 C 
BRANCH 138 139
ATOM    139  CG  ASN d   2    1365.211 397.092-1365.895  0.00  0.00     0.217 C 
ATOM    140  ND2 ASN d   2    1365.805 398.007-1365.177  0.00  0.00    -0.370 N 
ATOM    141 21HD ASN d   2    1365.324 398.180-1364.290  0.00  0.00     0.159 HD
ATOM    142 22HD ASN d   2    1366.506 398.578-1365.646  0.00  0.00     0.159 HD
ATOM    143  OD1 ASN d   2    1364.290 396.458-1365.401  0.00  0.00    -0.274 OA
ENDBRANCH 138 139
ENDBRANCH 125 138
ENDBRANCH 120 125
ENDBRANCH 115 118
ENDBRANCH 113 114
BRANCH 113 144
ATOM    144  CB  GLU d   4    1362.192 399.004-1373.695  0.00  0.00     0.045 C 
BRANCH 144 145
ATOM    145  CG  GLU d   4    1361.643 400.008-1374.760  0.00  0.00     0.116 C 
BRANCH 145 146
ATOM    146  CD  GLU d   4    1360.217 400.504-1374.617  0.00  0.00     0.172 C 
ATOM    147  OE1 GLU d   4    1359.491 400.106-1373.686  0.00  0.00    -0.648 OA
ATOM    148  OE2 GLU d   4    1359.827 401.334-1375.465  0.00  0.00    -0.648 OA
ENDBRANCH 145 146
ENDBRANCH 144 145
ENDBRANCH 113 144
ENDBRANCH 110 113
ENDBRANCH 108 109
BRANCH 108 149
ATOM    149  CB  SER d   5    1365.788 402.053-1371.152  0.00  0.00     0.199 C 
BRANCH 149 150
ATOM    150  OG  SER d   5    1366.520 401.174-1370.291  0.00  0.00    -0.398 OA
ATOM    151  HG  SER d   5    1366.031 400.349-1370.241  0.00  0.00     0.209 HD
ENDBRANCH 149 150
ENDBRANCH 108 149
ENDBRANCH 105 108
ENDBRANCH 103 104
BRANCH 103 152
ATOM    152  CB  ILE d   6    1369.552 398.501-1372.801  0.00  0.00     0.013 C 
ATOM    153  CG2 ILE d   6    1370.994 398.200-1373.317  0.00  0.00     0.012 C 
BRANCH 152 154
ATOM    154  CG1 ILE d   6    1369.572 398.439-1371.240  0.00  0.00     0.002 C 
ATOM    155  CD1 ILE d   6    1369.842 397.050-1370.625  0.00  0.00     0.005 C 
ENDBRANCH 152 154
ENDBRANCH 103 152
ENDBRANCH 100 103
ENDBRANCH  98  99
BRANCH  98 156
ATOM    156  CB  LEU d   7    1366.691 398.241-1377.421  0.00  0.00     0.038 C 
BRANCH 156 157
ATOM    157  CG  LEU d   7    1366.619 396.761-1376.955  0.00  0.00    -0.020 C 
ATOM    158  CD1 LEU d   7    1365.429 396.056-1377.621  0.00  0.00     0.009 C 
ATOM    159  CD2 LEU d   7    1367.912 395.982-1377.247  0.00  0.00     0.009 C 
ENDBRANCH 156 157
ENDBRANCH  98 156
ENDBRANCH  95  98
ENDBRANCH  93  94
BRANCH  93 160
ATOM    160  CB  ASP d   8    1365.836 403.525-1376.818  0.00  0.00     0.147 C 
BRANCH 160 161
ATOM    161  CG  ASP d   8    1365.617 404.946-1377.358  0.00  0.00     0.175 C 
ATOM    162  OD1 ASP d   8    1365.681 405.146-1378.588  0.00  0.00    -0.648 OA
ATOM    163  OD2 ASP d   8    1365.425 405.872-1376.542  0.00  0.00    -0.648 OA
ENDBRANCH 160 161
ENDBRANCH  93 160
ENDBRANCH  88  93
ENDBRANCH   1  86
TORSDOF 64
