@<TRIPOS>MOLECULE
12-10
272 275 16              
SMALL
USER_CHARGES
@<TRIPOS>ATOM
1	   N	1919.402	578.595	-1973.644	N.3	1	GLU1	-0.516	
2	  CA	1919.961	579.944	-1973.644	C.3	1	GLU1	0.040	
3	   C	1921.470	579.904	-1973.644	C.2	1	GLU1	0.537	
4	   O	1922.146	580.603	-1974.413	O.2	1	GLU1	-0.582	
5	  CB	1919.438	580.729	-1972.407	C.3	1	GLU1	0.056	
6	  CG	1919.913	582.214	-1972.296	C.3	1	GLU1	0.014	
7	  CD	1919.490	583.018	-1971.081	C.2	1	GLU1	0.805	
8	 OE1	1918.761	582.516	-1970.203	O.co2	1	GLU1	-0.819	
9	 OE2	1919.919	584.188	-1971.009	O.co2	1	GLU1	-0.819	
10	   H	1920.029	577.716	-1973.644	 H	1	GLU1	0.294	
11	  HA	1919.635	580.462	-1974.564	 H	1	GLU1	0.111	
12	 2HB	1919.727	580.198	-1971.477	 H	1	GLU1	-0.017	
13	 3HB	1918.331	580.719	-1972.394	 H	1	GLU1	-0.017	
14	 2HG	1919.604	582.799	-1973.177	 H	1	GLU1	-0.043	
15	 3HG	1921.013	582.281	-1972.267	 H	1	GLU1	-0.043	
16	   N	1922.075	579.118	-1972.819	N.am	2	ASN2	-0.416	
17	  CA	1923.534	579.079	-1972.819	C.3	2	ASN2	0.014	
18	   C	1924.066	578.724	-1974.188	C.2	2	ASN2	0.597	
19	   O	1924.980	579.354	-1974.716	O.2	2	ASN2	-0.568	
20	  CB	1924.026	578.056	-1971.755	C.3	2	ASN2	-0.204	
21	  CG	1923.563	578.280	-1970.311	C.2	2	ASN2	0.713	
22	 ND2	1924.157	579.195	-1969.593	N.pl3	2	ASN2	-0.919	
23	 OD1	1922.642	577.646	-1969.817	O.2	2	ASN2	-0.593	
24	   H	1921.547	578.538	-1972.182	 H	2	ASN2	0.272	
25	  HA	1923.912	580.089	-1972.574	 H	2	ASN2	0.105	
26	 2HB	1925.131	577.997	-1971.758	 H	2	ASN2	0.080	
27	 3HB	1923.697	577.038	-1972.041	 H	2	ASN2	0.080	
28	1HD2	1923.677	579.368	-1968.707	 H	2	ASN2	0.420	
29	2HD2	1924.859	579.767	-1970.062	 H	2	ASN2	0.420	
30	   N	1923.544	577.729	-1974.822	N.am	3	PRO3	-0.255	
31	  CA	1923.996	577.319	-1976.143	C.3	3	PRO3	-0.027	
32	   C	1923.598	578.343	-1977.220	C.2	3	PRO3	0.590	
33	   O	1924.421	578.726	-1978.052	O.2	3	PRO3	-0.575	
34	  CB	1923.292	575.965	-1976.312	C.3	3	PRO3	-0.007	
35	  CG	1922.008	576.117	-1975.482	C.3	3	PRO3	0.019	
36	  CD	1922.466	576.936	-1974.272	C.3	3	PRO3	0.019	
37	  HA	1925.082	577.200	-1976.157	 H	3	PRO3	0.064	
38	 2HB	1923.914	575.183	-1975.872	 H	3	PRO3	0.025	
39	 3HB	1923.093	575.716	-1977.358	 H	3	PRO3	0.025	
40	 2HG	1921.581	575.155	-1975.191	 H	3	PRO3	0.021	
41	 3HG	1921.271	576.688	-1976.050	 H	3	PRO3	0.021	
42	 2HD	1922.855	576.286	-1973.485	 H	3	PRO3	0.039	
43	 3HD	1921.670	577.572	-1973.879	 H	3	PRO3	0.039	
44	   N	1922.393	578.803	-1977.252	N.am	4	GLU4	-0.516	
45	  CA	1922.033	579.774	-1978.282	C.3	4	GLU4	0.040	
46	   C	1922.932	580.985	-1978.221	C.2	4	GLU4	0.537	
47	   O	1923.459	581.465	-1979.235	O.2	4	GLU4	-0.582	
48	  CB	1920.545	580.193	-1978.112	C.3	4	GLU4	0.056	
49	  CG	1919.997	581.196	-1979.177	C.3	4	GLU4	0.014	
50	  CD	1918.570	581.693	-1979.034	C.2	4	GLU4	0.805	
51	 OE1	1917.844	581.295	-1978.103	O.co2	4	GLU4	-0.819	
52	 OE2	1918.181	582.522	-1979.882	O.co2	4	GLU4	-0.819	
53	   H	1921.709	578.496	-1976.576	 H	4	GLU4	0.294	
54	  HA	1922.164	579.304	-1979.273	 H	4	GLU4	0.111	
55	 2HB	1920.392	580.633	-1977.105	 H	4	GLU4	-0.017	
56	 3HB	1919.897	579.295	-1978.118	 H	4	GLU4	-0.017	
57	 2HG	1920.078	580.782	-1980.195	 H	4	GLU4	-0.043	
58	 3HG	1920.585	582.129	-1979.188	 H	4	GLU4	-0.043	
59	   N	1923.160	581.538	-1977.078	N.am	5	SER5	-0.416	
60	  CA	1924.029	582.709	-1977.019	C.3	5	SER5	-0.025	
61	   C	1925.388	582.404	-1977.605	C.2	5	SER5	0.597	
62	   O	1925.935	583.157	-1978.410	O.2	5	SER5	-0.568	
63	  CB	1924.141	583.241	-1975.569	C.3	5	SER5	0.212	
64	  OG	1924.872	582.362	-1974.708	O.3	5	SER5	-0.655	
65	   H	1922.743	581.166	-1976.236	 H	5	SER5	0.272	
66	  HA	1923.580	583.499	-1977.649	 H	5	SER5	0.084	
67	 2HB	1923.141	583.435	-1975.135	 H	5	SER5	0.035	
68	 3HB	1924.646	584.227	-1975.571	 H	5	SER5	0.035	
69	  HG	1924.384	581.537	-1974.657	 H	5	SER5	0.428	
70	   N	1925.993	581.320	-1977.251	N.am	6	ILE6	-0.416	
71	  CA	1927.306	581.026	-1977.817	C.3	6	ILE6	-0.060	
72	   C	1927.249	580.988	-1979.325	C.2	6	ILE6	0.597	
73	   O	1928.083	581.576	-1980.029	O.2	6	ILE6	-0.568	
74	  CB	1927.906	579.689	-1977.217	C.3	6	ILE6	0.130	
75	 CG1	1927.926	579.628	-1975.656	C.3	6	ILE6	-0.043	
76	 CG2	1929.347	579.388	-1977.732	C.3	6	ILE6	-0.320	
77	 CD1	1928.195	578.238	-1975.041	C.3	6	ILE6	-0.066	
78	   H	1925.565	580.686	-1976.592	 H	6	ILE6	0.272	
79	  HA	1927.980	581.860	-1977.549	 H	6	ILE6	0.087	
80	  HB	1927.248	578.864	-1977.561	 H	6	ILE6	0.019	
81	2HG1	1926.943	579.947	-1975.260	 H	6	ILE6	0.024	
82	3HG1	1928.641	580.370	-1975.251	 H	6	ILE6	0.024	
83	1HG2	1929.406	579.295	-1978.831	 H	6	ILE6	0.088	
84	2HG2	1930.069	580.170	-1977.430	 H	6	ILE6	0.088	
85	3HG2	1929.737	578.426	-1977.354	 H	6	ILE6	0.088	
86	1HD1	1927.467	577.484	-1975.396	 H	6	ILE6	0.019	
87	2HD1	1929.206	577.860	-1975.277	 H	6	ILE6	0.019	
88	3HD1	1928.119	578.268	-1973.938	 H	6	ILE6	0.019	
89	   N	1926.303	580.325	-1979.898	N.am	7	LEU7	-0.416	
90	  CA	1926.248	580.289	-1981.357	C.3	7	LEU7	-0.052	
91	   C	1926.176	581.684	-1981.929	C.2	7	LEU7	0.597	
92	   O	1926.896	582.047	-1982.871	O.2	7	LEU7	-0.568	
93	  CB	1925.045	579.428	-1981.837	C.3	7	LEU7	-0.110	
94	  CG	1924.973	577.949	-1981.371	C.3	7	LEU7	0.353	
95	 CD1	1923.783	577.243	-1982.036	C.3	7	LEU7	-0.412	
96	 CD2	1926.266	577.170	-1981.662	C.3	7	LEU7	-0.412	
97	   H	1925.611	579.837	-1979.347	 H	7	LEU7	0.272	
98	  HA	1927.190	579.849	-1981.731	 H	7	LEU7	0.092	
99	 2HB	1925.022	579.444	-1982.945	 H	7	LEU7	0.046	
100	 3HB	1924.105	579.931	-1981.533	 H	7	LEU7	0.046	
101	  HG	1924.803	577.941	-1980.274	 H	7	LEU7	-0.036	
102	1HD1	1922.826	577.752	-1981.814	 H	7	LEU7	0.100	
103	2HD1	1923.882	577.202	-1983.138	 H	7	LEU7	0.100	
104	3HD1	1923.676	576.202	-1981.680	 H	7	LEU7	0.100	
105	1HD2	1926.542	577.200	-1982.732	 H	7	LEU7	0.100	
106	2HD2	1927.120	577.582	-1981.091	 H	7	LEU7	0.100	
107	3HD2	1926.185	576.107	-1981.366	 H	7	LEU7	0.100	
108	   N	1925.338	582.524	-1981.423	N.am	8	ASP8	-0.516	
109	  CA	1925.267	583.874	-1981.976	C.3	8	ASP8	0.038	
110	   C	1926.614	584.554	-1981.919	C.2	8	ASP8	0.537	
111	   O	1927.086	585.159	-1982.893	O.2	8	ASP8	-0.582	
112	  CB	1924.189	584.712	-1981.234	C.3	8	ASP8	-0.030	
113	  CG	1923.970	586.133	-1981.775	C.2	8	ASP8	0.799	
114	 OD1	1924.034	586.333	-1983.005	O.co2	8	ASP8	-0.801	
115	 OD2	1923.778	587.059	-1980.959	O.co2	8	ASP8	-0.801	
116	   H	1924.740	582.253	-1980.656	 H	8	ASP8	0.294	
117	  HA	1924.985	583.796	-1983.043	 H	8	ASP8	0.088	
118	 2HB	1924.446	584.796	-1980.162	 H	8	ASP8	-0.012	
119	 3HB	1923.210	584.207	-1981.267	 H	8	ASP8	-0.012	
120	   N	1927.294	584.504	-1980.824	N.am	9	GLU9	-0.516	
121	  CA	1928.596	585.162	-1980.768	C.3	9	GLU9	0.040	
122	   C	1929.515	584.635	-1981.844	C.2	9	GLU9	0.537	
123	   O	1930.178	585.390	-1982.569	O.2	9	GLU9	-0.582	
124	  CB	1929.230	584.954	-1979.362	C.3	9	GLU9	0.056	
125	  CG	1930.612	585.647	-1979.133	C.3	9	GLU9	0.014	
126	  CD	1931.314	585.433	-1977.805	C.2	9	GLU9	0.805	
127	 OE1	1930.792	584.742	-1976.909	O.co2	9	GLU9	-0.819	
128	 OE2	1932.432	585.972	-1977.672	O.co2	9	GLU9	-0.819	
129	   H	1926.930	584.017	-1980.017	 H	9	GLU9	0.294	
130	  HA	1928.454	586.244	-1980.943	 H	9	GLU9	0.111	
131	 2HB	1929.343	583.870	-1979.160	 H	9	GLU9	-0.017	
132	 3HB	1928.532	585.307	-1978.578	 H	9	GLU9	-0.017	
133	 2HG	1930.540	586.738	-1979.272	 H	9	GLU9	-0.043	
134	 3HG	1931.359	585.302	-1979.867	 H	9	GLU9	-0.043	
135	   N	1929.612	583.360	-1982.014	N.am	10	HIS10	-0.416	
136	  CA	1930.500	582.849	-1983.054	C.3	10	HIS10	-0.058	
137	   C	1930.133	583.414	-1984.405	C.2	10	HIS10	0.597	
138	   O	1930.985	583.880	-1985.177	O.2	10	HIS10	-0.568	
139	  CB	1930.337	581.320	-1983.050	C.3	10	HIS10	-0.007	
140	  CG	1931.623	580.610	-1982.742	C.2	10	HIS10	0.187	
141	 CD2	1932.003	580.275	-1981.449	C.2	10	HIS10	-0.221	
142	 ND1	1932.575	580.205	-1983.674	N.2	10	HIS10	-0.543	
143	 CE1	1933.482	579.647	-1982.851	C.2	10	HIS10	0.163	
144	 NE2	1933.219	579.644	-1981.516	N.pl3	10	HIS10	-0.280	
145	   H	1929.081	582.724	-1981.435	 H	10	HIS10	0.272	
146	  HA	1931.519	583.207	-1982.829	 H	10	HIS10	0.136	
147	 2HB	1929.972	580.953	-1984.030	 H	10	HIS10	0.037	
148	 3HB	1929.581	580.982	-1982.310	 H	10	HIS10	0.037	
149	 2HD	1931.418	580.489	-1980.560	 H	10	HIS10	0.186	
150	 1HE	1934.373	579.227	-1983.298	 H	10	HIS10	0.144	
151	 2HE	1933.786	579.267	-1980.743	 H	10	HIS10	0.334	
152	   N	1928.895	583.413	-1984.768	N.am	11	VAL11	-0.416	
153	  CA	1928.540	583.959	-1986.075	C.3	11	VAL11	-0.087	
154	   C	1929.004	585.390	-1986.207	C.2	11	VAL11	0.597	
155	   O	1929.605	585.796	-1987.209	O.2	11	VAL11	-0.568	
156	  CB	1926.979	583.852	-1986.295	C.3	11	VAL11	0.299	
157	 CG1	1926.410	584.556	-1987.557	C.3	11	VAL11	-0.319	
158	 CG2	1926.455	582.397	-1986.368	C.3	11	VAL11	-0.319	
159	   H	1928.182	583.039	-1984.158	 H	11	VAL11	0.272	
160	  HA	1929.060	583.377	-1986.857	 H	11	VAL11	0.097	
161	  HB	1926.491	584.331	-1985.419	 H	11	VAL11	-0.030	
162	1HG1	1926.849	584.165	-1988.494	 H	11	VAL11	0.079	
163	2HG1	1925.311	584.448	-1987.639	 H	11	VAL11	0.079	
164	3HG1	1926.588	585.648	-1987.547	 H	11	VAL11	0.079	
165	1HG2	1926.745	581.810	-1985.478	 H	11	VAL11	0.079	
166	2HG2	1925.349	582.360	-1986.411	 H	11	VAL11	0.079	
167	3HG2	1926.837	581.857	-1987.255	 H	11	VAL11	0.079	
168	   N	1928.766	586.215	-1985.244	N.am	12	TRP12	-0.416	
169	  CA	1929.214	587.599	-1985.370	C.3	12	TRP12	-0.027	
170	   C	1930.704	587.666	-1985.608	C.2	12	TRP12	0.597	
171	   O	1931.192	588.374	-1986.487	O.2	12	TRP12	-0.568	
172	  CB	1928.854	588.370	-1984.070	C.3	12	TRP12	-0.005	
173	  CG	1927.353	588.539	-1983.820	C.2	12	TRP12	-0.141	
174	 CD1	1926.559	587.717	-1982.993	C.2	12	TRP12	-0.164	
175	 CD2	1926.484	589.439	-1984.403	C.2	12	TRP12	0.124	
176	 CE2	1925.181	589.158	-1983.924	C.2	12	TRP12	0.138	
177	 CE3	1926.699	590.480	-1985.343	C.2	12	TRP12	-0.239	
178	 NE1	1925.202	588.088	-1983.041	N.pl3	12	TRP12	-0.342	
179	 CZ2	1924.083	589.924	-1984.373	C.2	12	TRP12	-0.260	
180	 CZ3	1925.600	591.227	-1985.766	C.2	12	TRP12	-0.197	
181	 CH2	1924.311	590.956	-1985.287	C.2	12	TRP12	-0.113	
182	   H	1928.277	585.908	-1984.415	 H	12	TRP12	0.272	
183	  HA	1928.716	588.063	-1986.242	 H	12	TRP12	0.112	
184	 2HB	1929.305	589.381	-1984.088	 H	12	TRP12	0.034	
185	 3HB	1929.320	587.879	-1983.194	 H	12	TRP12	0.034	
186	 1HD	1926.944	586.875	-1982.433	 H	12	TRP12	0.206	
187	 1HE	1924.404	587.642	-1982.574	 H	12	TRP12	0.341	
188	 3HE	1927.688	590.691	-1985.723	 H	12	TRP12	0.170	
189	 2HZ	1923.087	589.713	-1984.011	 H	12	TRP12	0.157	
190	 3HZ	1925.747	592.028	-1986.476	 H	12	TRP12	0.145	
191	 2HH	1923.480	591.554	-1985.629	 H	12	TRP12	0.142	
192	   N	1931.489	586.958	-1984.867	N.am	13	ARG13	-0.348	
193	  CA	1932.929	587.024	-1985.098	C.3	13	ARG13	-0.264	
194	   C	1933.266	586.652	-1986.523	C.2	13	ARG13	0.734	
195	   O	1934.034	587.324	-1987.207	O.2	13	ARG13	-0.589	
196	  CB	1933.642	586.085	-1984.084	C.3	13	ARG13	-0.001	
197	  CG	1935.187	586.237	-1984.002	C.3	13	ARG13	0.039	
198	  CD	1935.813	585.249	-1983.005	C.3	13	ARG13	0.049	
199	  NE	1937.291	585.456	-1982.954	N.pl3	13	ARG13	-0.530	
200	  CZ	1938.138	584.764	-1982.199	C.cat	13	ARG13	0.808	
201	 NH1	1937.773	583.799	-1981.401	N.pl3	13	ARG13	-0.863	
202	 NH2	1939.398	585.063	-1982.255	N.pl3	13	ARG13	-0.863	
203	   H	1931.112	586.369	-1984.139	 H	13	ARG13	0.275	
204	  HA	1933.254	588.070	-1984.939	 H	13	ARG13	0.156	
205	 2HB	1933.375	585.034	-1984.323	 H	13	ARG13	0.033	
206	 3HB	1933.217	586.251	-1983.073	 H	13	ARG13	0.033	
207	 2HG	1935.435	587.282	-1983.723	 H	13	ARG13	0.029	
208	 3HG	1935.638	586.081	-1985.004	 H	13	ARG13	0.029	
209	 2HD	1935.569	584.209	-1983.314	 H	13	ARG13	0.069	
210	 3HD	1935.357	585.395	-1982.002	 H	13	ARG13	0.069	
211	  HE	1937.742	586.178	-1983.524	 H	13	ARG13	0.346	
212	1HH1	1936.767	583.614	-1981.405	 H	13	ARG13	0.448	
213	2HH1	1938.485	583.316	-1980.853	 H	13	ARG13	0.448	
214	1HH2	1939.666	585.820	-1982.886	 H	13	ARG13	0.448	
215	2HH2	1940.033	584.521	-1981.666	 H	13	ARG13	0.448	
216	   N	1932.729	585.598	-1987.038	N.am	14	VAL14	-0.416	
217	  CA	1933.054	585.239	-1988.415	C.3	14	VAL14	-0.087	
218	   C	1932.725	586.369	-1989.361	C.2	14	VAL14	0.597	
219	   O	1933.519	586.751	-1990.230	O.2	14	VAL14	-0.568	
220	  CB	1932.281	583.922	-1988.823	C.3	14	VAL14	0.299	
221	 CG1	1932.371	583.504	-1990.316	C.3	14	VAL14	-0.319	
222	 CG2	1932.713	582.670	-1988.022	C.3	14	VAL14	-0.319	
223	   H	1932.094	585.030	-1986.496	 H	14	VAL14	0.272	
224	  HA	1934.142	585.062	-1988.490	 H	14	VAL14	0.097	
225	  HB	1931.205	584.094	-1988.607	 H	14	VAL14	-0.030	
226	1HG1	1933.412	583.327	-1990.645	 H	14	VAL14	0.079	
227	2HG1	1931.798	582.581	-1990.529	 H	14	VAL14	0.079	
228	3HG1	1931.942	584.267	-1990.994	 H	14	VAL14	0.079	
229	1HG2	1932.625	582.828	-1986.932	 H	14	VAL14	0.079	
230	2HG2	1932.077	581.794	-1988.255	 H	14	VAL14	0.079	
231	3HG2	1933.760	582.380	-1988.228	 H	14	VAL14	0.079	
232	   N	1931.580	586.956	-1989.259	N.am	15	MET15	-0.416	
233	  CA	1931.261	588.049	-1990.173	C.3	15	MET15	-0.024	
234	   C	1932.291	589.148	-1990.084	C.2	15	MET15	0.597	
235	   O	1932.794	589.659	-1991.097	O.2	15	MET15	-0.568	
236	  CB	1929.839	588.595	-1989.864	C.3	15	MET15	0.034	
237	  CG	1928.677	587.597	-1990.056	C.3	15	MET15	0.002	
238	  SD	1927.103	588.464	-1989.942	S.3	15	MET15	-0.274	
239	  CE	1926.022	587.035	-1989.806	C.3	15	MET15	-0.054	
240	   H	1930.915	586.663	-1988.558	 H	15	MET15	0.272	
241	  HA	1931.287	587.661	-1991.208	 H	15	MET15	0.088	
242	 2HB	1929.638	589.474	-1990.506	 H	15	MET15	0.024	
243	 3HB	1929.804	588.987	-1988.828	 H	15	MET15	0.024	
244	 2HG	1928.719	586.811	-1989.279	 H	15	MET15	0.044	
245	 3HG	1928.740	587.082	-1991.032	 H	15	MET15	0.044	
246	 1HE	1926.165	586.346	-1990.659	 H	15	MET15	0.068	
247	 2HE	1926.230	586.482	-1988.873	 H	15	MET15	0.068	
248	 3HE	1924.964	587.350	-1989.790	 H	15	MET15	0.068	
249	   N	1932.660	589.569	-1988.922	N.am	16	ARG16	-0.348	
250	  CA	1933.657	590.633	-1988.838	C.3	16	ARG16	-0.264	
251	   C	1934.927	590.239	-1989.554	C.2	16	ARG16	0.734	
252	   O	1935.041	589.163	-1990.135	O.2	16	ARG16	-0.589	
253	  CB	1933.926	590.950	-1987.339	C.3	16	ARG16	-0.001	
254	  CG	1934.751	592.239	-1987.066	C.3	16	ARG16	0.039	
255	  CD	1935.001	592.458	-1985.565	C.3	16	ARG16	0.049	
256	  NE	1935.777	593.716	-1985.364	N.pl3	16	ARG16	-0.530	
257	  CZ	1936.169	594.198	-1984.188	C.cat	16	ARG16	0.808	
258	 NH1	1935.921	593.614	-1983.049	N.pl3	16	ARG16	-0.863	
259	 NH2	1936.833	595.311	-1984.169	N.pl3	16	ARG16	-0.863	
260	   H	1932.265	589.169	-1988.083	 H	16	ARG16	0.275	
261	  HA	1933.248	591.526	-1989.348	 H	16	ARG16	0.156	
262	 2HB	1934.422	590.074	-1986.873	 H	16	ARG16	0.033	
263	 3HB	1932.957	591.031	-1986.806	 H	16	ARG16	0.033	
264	 2HG	1934.221	593.110	-1987.503	 H	16	ARG16	0.029	
265	 3HG	1935.725	592.186	-1987.595	 H	16	ARG16	0.029	
266	 2HD	1935.549	591.583	-1985.152	 H	16	ARG16	0.069	
267	 3HD	1934.028	592.501	-1985.030	 H	16	ARG16	0.069	
268	  HE	1936.056	594.297	-1986.161	 H	16	ARG16	0.346	
269	1HH1	1935.395	592.741	-1983.134	 H	16	ARG16	0.448	
270	2HH1	1936.255	594.049	-1982.188	 H	16	ARG16	0.448	
271	1HH2	1937.019	595.754	-1985.071	 H	16	ARG16	0.448	
272	2HH2	1937.123	595.666	-1983.256	 H	16	ARG16	0.448	
@<TRIPOS>BOND
1 1 2 1
2 1 10 1
3 2 3 1
4 2 5 1
5 2 11 1
6 3 4 2
7 3 16 1
8 5 6 1
9 6 7 1
10 7 8 2
11 7 9 1
12 5 12 1
13 5 13 1
14 6 14 1
15 6 15 1
16 16 17 1
17 16 24 1
18 17 18 1
19 17 20 1
20 17 25 1
21 18 19 2
22 18 30 1
23 20 21 1
24 21 22 1
25 21 23 2
26 20 26 1
27 20 27 1
28 22 28 1
29 22 29 1
30 30 31 1
31 30 36 1
32 31 32 1
33 31 34 1
34 31 37 1
35 32 33 2
36 32 44 1
37 34 35 1
38 35 36 1
39 34 38 1
40 34 39 1
41 35 40 1
42 35 41 1
43 36 42 1
44 36 43 1
45 44 45 1
46 44 53 1
47 45 46 1
48 45 48 1
49 45 54 1
50 46 47 2
51 46 59 1
52 48 49 1
53 49 50 1
54 50 51 2
55 50 52 1
56 48 55 1
57 48 56 1
58 49 57 1
59 49 58 1
60 59 60 1
61 59 65 1
62 60 61 1
63 60 63 1
64 60 66 1
65 61 62 2
66 61 70 1
67 63 64 1
68 63 67 1
69 63 68 1
70 64 69 1
71 70 71 1
72 70 78 1
73 71 72 1
74 71 74 1
75 71 79 1
76 72 73 2
77 72 89 1
78 74 75 1
79 74 76 1
80 75 77 1
81 74 80 1
82 75 81 1
83 75 82 1
84 76 83 1
85 76 84 1
86 76 85 1
87 77 86 1
88 77 87 1
89 77 88 1
90 89 90 1
91 89 97 1
92 90 91 1
93 90 93 1
94 90 98 1
95 91 92 2
96 91 108 1
97 93 94 1
98 94 95 1
99 94 96 1
100 93 99 1
101 93 100 1
102 94 101 1
103 95 102 1
104 95 103 1
105 95 104 1
106 96 105 1
107 96 106 1
108 96 107 1
109 108 109 1
110 108 116 1
111 109 110 1
112 109 112 1
113 109 117 1
114 110 111 2
115 110 120 1
116 112 113 1
117 113 114 2
118 113 115 1
119 112 118 1
120 112 119 1
121 120 121 1
122 120 129 1
123 121 122 1
124 121 124 1
125 121 130 1
126 122 123 2
127 122 135 1
128 124 125 1
129 125 126 1
130 126 127 2
131 126 128 1
132 124 131 1
133 124 132 1
134 125 133 1
135 125 134 1
136 135 136 1
137 135 145 1
138 136 137 1
139 136 139 1
140 136 146 1
141 137 138 2
142 137 152 1
143 139 140 1
144 140 141 2
145 141 144 1
146 140 142 1
147 142 143 2
148 143 144 1
149 139 147 1
150 139 148 1
151 141 149 1
152 143 150 1
153 144 151 1
154 152 153 1
155 152 159 1
156 153 154 1
157 153 156 1
158 153 160 1
159 154 155 2
160 154 168 1
161 156 157 1
162 156 158 1
163 156 161 1
164 157 162 1
165 157 163 1
166 157 164 1
167 158 165 1
168 158 166 1
169 158 167 1
170 168 169 1
171 168 182 1
172 169 170 1
173 169 172 1
174 169 183 1
175 170 171 2
176 170 192 1
177 172 173 1
178 173 175 1
179 173 174 2
180 175 177 1
181 175 176 2
182 176 178 1
183 177 180 2
184 174 178 1
185 176 179 1
186 180 181 1
187 179 181 2
188 172 184 1
189 172 185 1
190 174 186 1
191 178 187 1
192 177 188 1
193 179 189 1
194 180 190 1
195 181 191 1
196 192 193 1
197 192 203 1
198 193 194 1
199 193 196 1
200 193 204 1
201 194 195 2
202 194 216 1
203 196 197 1
204 197 198 1
205 198 199 1
206 199 200 1
207 200 201 2
208 200 202 1
209 196 205 1
210 196 206 1
211 197 207 1
212 197 208 1
213 198 209 1
214 198 210 1
215 199 211 1
216 201 212 1
217 201 213 1
218 202 214 1
219 202 215 1
220 216 217 1
221 216 223 1
222 217 218 1
223 217 220 1
224 217 224 1
225 218 219 2
226 218 232 1
227 220 221 1
228 220 222 1
229 220 225 1
230 221 226 1
231 221 227 1
232 221 228 1
233 222 229 1
234 222 230 1
235 222 231 1
236 232 233 1
237 232 240 1
238 233 234 1
239 233 236 1
240 233 241 1
241 234 235 2
242 234 249 1
243 236 237 1
244 237 238 1
245 238 239 1
246 236 242 1
247 236 243 1
248 237 244 1
249 237 245 1
250 239 246 1
251 239 247 1
252 239 248 1
253 249 250 1
254 249 260 1
255 250 251 1
256 250 253 1
257 250 261 1
258 251 252 2
259 253 254 1
260 254 255 1
261 255 256 1
262 256 257 1
263 257 258 2
264 257 259 1
265 253 262 1
266 253 263 1
267 254 264 1
268 254 265 1
269 255 266 1
270 255 267 1
271 256 268 1
272 258 269 1
273 258 270 1
274 259 271 1
275 259 272 1
@<TRIPOS>SUBSTRUCTURE
1	GLU1	1	RESIDUE	1 ****	GLU
2	ASN2	16	RESIDUE	1 ****	ASN
3	PRO3	30	RESIDUE	1 ****	PRO
4	GLU4	44	RESIDUE	1 ****	GLU
5	SER5	59	RESIDUE	1 ****	SER
6	ILE6	70	RESIDUE	1 ****	ILE
7	LEU7	89	RESIDUE	1 ****	LEU
8	ASP8	108	RESIDUE	1 ****	ASP
9	GLU9	120	RESIDUE	1 ****	GLU
10	HIS10	135	RESIDUE	1 ****	HIS
11	VAL11	152	RESIDUE	1 ****	VAL
12	TRP12	168	RESIDUE	1 ****	TRP
13	ARG13	192	RESIDUE	1 ****	ARG
14	VAL14	216	RESIDUE	1 ****	VAL
15	MET15	232	RESIDUE	1 ****	MET
16	ARG16	249	RESIDUE	1 ****	ARG
