REMARK WARNING: 32 MAX_TORS EXCEEDED!!!
REMARK  65 active torsions:
REMARK  status: ('A' for Active; 'I' for Inactive)
REMARK    1  A    between atoms: N_1  and  CA_2 
REMARK    2  A    between atoms: CA_2  and  C_3 
REMARK    3  A    between atoms: CA_2  and  CB_5 
REMARK       I    between atoms: C_3  and  N_11 
REMARK    4  A    between atoms: CB_5  and  CG_6 
REMARK    5  A    between atoms: CG_6  and  CD_7 
REMARK    6  A    between atoms: N_11  and  CA_12 
REMARK    7  A    between atoms: CA_12  and  C_13 
REMARK    8  A    between atoms: CA_12  and  CB_15 
REMARK       I    between atoms: C_13  and  N_22 
REMARK    9  A    between atoms: CB_15  and  CG_16 
REMARK       I    between atoms: CG_16  and  ND2_17 
REMARK   10  A    between atoms: CA_23  and  C_24 
REMARK       I    between atoms: C_24  and  N_29 
REMARK   11  A    between atoms: N_29  and  CA_30 
REMARK   12  A    between atoms: CA_30  and  C_31 
REMARK   13  A    between atoms: CA_30  and  CB_33 
REMARK       I    between atoms: C_31  and  N_39 
REMARK   14  A    between atoms: CB_33  and  CG_34 
REMARK   15  A    between atoms: CG_34  and  CD_35 
REMARK   16  A    between atoms: N_39  and  CA_40 
REMARK   17  A    between atoms: CA_40  and  C_41 
REMARK   18  A    between atoms: CA_40  and  CB_43 
REMARK       I    between atoms: C_41  and  N_47 
REMARK   19  A    between atoms: CB_43  and  OG_44 
REMARK   20  A    between atoms: N_47  and  CA_48 
REMARK   21  A    between atoms: CA_48  and  C_49 
REMARK   22  A    between atoms: CA_48  and  CB_51 
REMARK       I    between atoms: C_49  and  N_56 
REMARK   23  A    between atoms: CB_51  and  CG1_52 
REMARK   24  A    between atoms: CA_57  and  C_58 
REMARK       I    between atoms: C_58  and  N_63 
REMARK   25  A    between atoms: N_63  and  CA_64 
REMARK   26  A    between atoms: CA_64  and  C_65 
REMARK   27  A    between atoms: CA_64  and  CB_67 
REMARK       I    between atoms: C_65  and  N_72 
REMARK   28  A    between atoms: CB_67  and  CG_68 
REMARK   29  A    between atoms: N_72  and  CA_73 
REMARK   30  A    between atoms: CA_73  and  C_74 
REMARK   31  A    between atoms: CA_73  and  CB_76 
REMARK       I    between atoms: C_74  and  N_82 
REMARK   32  A    between atoms: CB_76  and  CG_77 
REMARK   33  A    between atoms: CG_77  and  CD_78 
REMARK   34  A    between atoms: N_82  and  CA_83 
REMARK   35  A    between atoms: CA_83  and  C_84 
REMARK   36  A    between atoms: CA_83  and  CB_86 
REMARK       I    between atoms: C_84  and  N_94 
REMARK   37  A    between atoms: CB_86  and  CG_87 
REMARK   38  A    between atoms: N_94  and  CA_95 
REMARK   39  A    between atoms: CA_95  and  C_96 
REMARK   40  A    between atoms: CA_95  and  CB_98 
REMARK       I    between atoms: C_96  and  N_102 
REMARK   41  A    between atoms: N_102  and  CA_103 
REMARK   42  A    between atoms: CA_103  and  C_104 
REMARK   43  A    between atoms: CA_103  and  CB_106 
REMARK       I    between atoms: C_104  and  N_114 
REMARK   44  A    between atoms: CB_106  and  CG_107 
REMARK   45  A    between atoms: CG_107  and  CD_108 
REMARK       I    between atoms: CD_108  and  NE2_109 
REMARK   46  A    between atoms: N_114  and  CA_115 
REMARK   47  A    between atoms: CA_115  and  C_116 
REMARK   48  A    between atoms: CA_115  and  CB_118 
REMARK       I    between atoms: C_116  and  N_131 
REMARK   49  A    between atoms: CB_118  and  CG_119 
REMARK   50  A    between atoms: CG_119  and  CD_120 
REMARK   51  A    between atoms: CD_120  and  NE_121 
REMARK       I    between atoms: NE_121  and  CZ_122 
REMARK       I    between atoms: CZ_122  and  NH1_123 
REMARK       I    between atoms: CZ_122  and  NH2_124 
REMARK   52  A    between atoms: N_131  and  CA_132 
REMARK   53  A    between atoms: CA_132  and  C_133 
REMARK   54  A    between atoms: CA_132  and  CB_135 
REMARK       I    between atoms: C_133  and  N_139 
REMARK   55  A    between atoms: N_139  and  CA_140 
REMARK   56  A    between atoms: CA_140  and  C_141 
REMARK   57  A    between atoms: CA_140  and  CB_143 
REMARK       I    between atoms: C_141  and  N_148 
REMARK   58  A    between atoms: CB_143  and  CG_144 
REMARK   59  A    between atoms: CG_144  and  SD_145 
REMARK   60  A    between atoms: N_148  and  CA_149 
REMARK   61  A    between atoms: CA_149  and  C_150 
REMARK   62  A    between atoms: CA_149  and  CB_152 
REMARK   63  A    between atoms: CB_152  and  CG_153 
REMARK   64  A    between atoms: CG_153  and  CD_154 
REMARK   65  A    between atoms: CD_154  and  NE_155 
REMARK       I    between atoms: NE_155  and  CZ_156 
REMARK       I    between atoms: CZ_156  and  NH1_157 
ROOT
ATOM      1  C   GLU d   9    1042.881 294.443-1021.917  0.00  0.00     0.241 C 
ATOM      2  O   GLU d   9    1043.322 295.292-1022.705  0.00  0.00    -0.271 OA
ATOM      3  N   HIS d  10    1043.254 293.215-1022.047  0.00  0.00    -0.346 N 
ATOM      4  H   HIS d  10    1042.908 292.505-1021.418  0.00  0.00     0.163 HD
ENDROOT
BRANCH   3   5
ATOM      5  CA  HIS d  10    1044.183 292.867-1023.118  0.00  0.00     0.182 C 
BRANCH   5   6
ATOM      6  C   HIS d  10    1043.634 293.272-1024.465  0.00  0.00     0.241 C 
ATOM      7  O   HIS d  10    1044.322 293.878-1025.300  0.00  0.00    -0.271 OA
ATOM      8  N   VAL d  11    1042.412 292.978-1024.756  0.00  0.00    -0.346 N 
ATOM      9  H   VAL d  11    1041.832 292.484-1024.093  0.00  0.00     0.163 HD
BRANCH   8  10
ATOM     10  CA  VAL d  11    1041.881 293.369-1026.059  0.00  0.00     0.180 C 
BRANCH  10  11
ATOM     11  C   VAL d  11    1042.004 294.859-1026.268  0.00  0.00     0.241 C 
ATOM     12  O   VAL d  11    1042.450 295.341-1027.317  0.00  0.00    -0.271 OA
ATOM     13  N   GLN d  12    1041.634 295.656-1025.323  0.00  0.00    -0.346 N 
ATOM     14  H   GLN d  12    1041.267 295.287-1024.457  0.00  0.00     0.163 HD
BRANCH  13  15
ATOM     15  CA  GLN d  12    1041.752 297.096-1025.524  0.00  0.00     0.177 C 
BRANCH  15  16
ATOM     16  C   GLN d  12    1043.175 297.483-1025.849  0.00  0.00     0.241 C 
ATOM     17  O   GLN d  12    1043.448 298.240-1026.778  0.00  0.00    -0.271 OA
ATOM     18  N   ARG d  13    1044.134 297.005-1025.130  0.00  0.00    -0.346 N 
ATOM     19  H   ARG d  13    1043.936 296.381-1024.361  0.00  0.00     0.163 HD
BRANCH  18  20
ATOM     20  CA  ARG d  13    1045.509 297.380-1025.445  0.00  0.00     0.176 C 
BRANCH  20  21
ATOM     21  C   ARG d  13    1045.852 297.026-1026.873  0.00  0.00     0.241 C 
ATOM     22  O   ARG d  13    1046.416 297.820-1027.623  0.00  0.00    -0.271 OA
ATOM     23  N   VAL d  14    1045.543 295.856-1027.319  0.00  0.00    -0.346 N 
ATOM     24  H   VAL d  14    1045.080 295.186-1026.722  0.00  0.00     0.163 HD
BRANCH  23  25
ATOM     25  CA  VAL d  14    1045.874 295.514-1028.699  0.00  0.00     0.180 C 
BRANCH  25  26
ATOM     26  C   VAL d  14    1045.253 296.496-1029.663  0.00  0.00     0.241 C 
ATOM     27  O   VAL d  14    1045.897 297.004-1030.590  0.00  0.00    -0.271 OA
ATOM     28  N   MET d  15    1044.012 296.816-1029.517  0.00  0.00    -0.346 N 
ATOM     29  H   MET d  15    1043.464 296.415-1028.768  0.00  0.00     0.163 HD
BRANCH  28  30
ATOM     30  CA  MET d  15    1043.410 297.765-1030.448  0.00  0.00     0.177 C 
BRANCH  30  31
ATOM     31  C   MET d  15    1044.169 299.070-1030.458  0.00  0.00     0.241 C 
ATOM     32  O   MET d  15    1044.494 299.632-1031.515  0.00  0.00    -0.271 OA
ATOM     33  N   ARG d  16    1044.488 299.617-1029.334  0.00  0.00    -0.347 N 
ATOM     34  H   ARG d  16    1044.234 299.178-1028.460  0.00  0.00     0.163 HD
BRANCH  33  35
ATOM     35  CA  ARG d  16    1045.222 300.879-1029.345  0.00  0.00     0.162 C 
BRANCH  35  36
ATOM     36  C   ARG d  16    1046.513 300.747-1030.118  0.00  0.00     0.219 C 
ATOM     37  O   ARG d  16    1046.838 299.697-1030.667  0.00  0.00    -0.287 OA
ENDBRANCH  35  36
BRANCH  35  38
ATOM     38  CB  ARG d  16    1045.484 301.319-1027.876  0.00  0.00     0.035 C 
BRANCH  38  39
ATOM     39  CG  ARG d  16    1046.009 302.771-1027.696  0.00  0.00     0.023 C 
BRANCH  39  40
ATOM     40  CD  ARG d  16    1046.274 303.110-1026.220  0.00  0.00     0.138 C 
BRANCH  40  41
ATOM     41  NE  ARG d  16    1046.755 304.519-1026.108  0.00  0.00    -0.227 N 
ATOM     42  CZ  ARG d  16    1047.083 305.131-1024.974  0.00  0.00     0.665 C 
ATOM     43  NH1 ARG d  16    1047.029 304.560-1023.803  0.00  0.00    -0.235 N 
ATOM     44  NH2 ARG d  16    1047.480 306.363-1025.032  0.00  0.00    -0.235 N 
ATOM     45 11HH ARG d  16    1046.710 303.589-1023.827  0.00  0.00     0.174 HD
ATOM     46 12HH ARG d  16    1047.297 305.099-1022.978  0.00  0.00     0.174 HD
ATOM     47 21HH ARG d  16    1047.517 306.794-1025.958  0.00  0.00     0.174 HD
ATOM     48 22HH ARG d  16    1047.726 306.816-1024.151  0.00  0.00     0.174 HD
ATOM     49  HE  ARG d  16    1046.857 305.109-1026.939  0.00  0.00     0.177 HD
ENDBRANCH  40  41
ENDBRANCH  39  40
ENDBRANCH  38  39
ENDBRANCH  35  38
ENDBRANCH  33  35
ENDBRANCH  30  31
BRANCH  30  50
ATOM     50  CB  MET d  15    1041.919 297.994-1030.078  0.00  0.00     0.045 C 
BRANCH  50  51
ATOM     51  CG  MET d  15    1041.004 296.753-1030.167  0.00  0.00     0.076 C 
BRANCH  51  52
ATOM     52  SD  MET d  15    1039.282 297.251-1029.993  0.00  0.00    -0.173 SA
ATOM     53  CE  MET d  15    1038.559 295.624-1029.745  0.00  0.00     0.089 C 
ENDBRANCH  51  52
ENDBRANCH  50  51
ENDBRANCH  30  50
ENDBRANCH  28  30
ENDBRANCH  25  26
BRANCH  25  54
ATOM     54  CB  VAL d  14    1045.401 294.040-1029.015  0.00  0.00     0.009 C 
ATOM     55  CG1 VAL d  14    1045.510 293.583-1030.496  0.00  0.00     0.012 C 
ATOM     56  CG2 VAL d  14    1046.141 292.955-1028.198  0.00  0.00     0.012 C 
ENDBRANCH  25  54
ENDBRANCH  23  25
ENDBRANCH  20  21
BRANCH  20  57
ATOM     57  CB  ARG d  13    1046.464 296.672-1024.442  0.00  0.00     0.036 C 
BRANCH  57  58
ATOM     58  CG  ARG d  13    1047.937 297.170-1024.455  0.00  0.00     0.023 C 
BRANCH  58  59
ATOM     59  CD  ARG d  13    1048.817 296.395-1023.461  0.00  0.00     0.138 C 
BRANCH  59  60
ATOM     60  NE  ARG d  13    1050.211 296.929-1023.502  0.00  0.00    -0.227 N 
ATOM     61  CZ  ARG d  13    1051.228 296.480-1022.773  0.00  0.00     0.665 C 
ATOM     62  NH1 ARG d  13    1051.128 295.497-1021.923  0.00  0.00    -0.235 N 
ATOM     63  NH2 ARG d  13    1052.383 297.050-1022.913  0.00  0.00    -0.235 N 
ATOM     64 11HH ARG d  13    1050.192 295.091-1021.862  0.00  0.00     0.174 HD
ATOM     65 12HH ARG d  13    1051.958 295.211-1021.400  0.00  0.00     0.174 HD
ATOM     66 21HH ARG d  13    1052.443 297.818-1023.584  0.00  0.00     0.174 HD
ATOM     67 22HH ARG d  13    1053.152 296.692-1022.343  0.00  0.00     0.174 HD
ATOM     68  HE  ARG d  13    1050.459 297.706-1024.123  0.00  0.00     0.177 HD
ENDBRANCH  59  60
ENDBRANCH  58  59
ENDBRANCH  57  58
ENDBRANCH  20  57
ENDBRANCH  18  20
ENDBRANCH  15  16
BRANCH  15  69
ATOM     69  CB  GLN d  12    1041.260 297.816-1024.248  0.00  0.00     0.044 C 
BRANCH  69  70
ATOM     70  CG  GLN d  12    1041.270 299.380-1024.291  0.00  0.00     0.105 C 
BRANCH  70  71
ATOM     71  CD  GLN d  12    1040.853 300.164-1023.040  0.00  0.00     0.215 C 
ATOM     72  NE2 GLN d  12    1040.480 299.524-1021.961  0.00  0.00    -0.370 N 
ATOM     73 21HE GLN d  12    1040.281 300.118-1021.154  0.00  0.00     0.159 HD
ATOM     74 22HE GLN d  12    1040.542 298.506-1022.020  0.00  0.00     0.159 HD
ATOM     75  OE1 GLN d  12    1040.884 301.385-1023.021  0.00  0.00    -0.274 OA
ENDBRANCH  70  71
ENDBRANCH  69  70
ENDBRANCH  15  69
ENDBRANCH  13  15
ENDBRANCH  10  11
BRANCH  10  76
ATOM     76  CB  VAL d  11    1040.375 292.907-1026.185  0.00  0.00     0.009 C 
ATOM     77  CG1 VAL d  11    1039.603 293.406-1027.437  0.00  0.00     0.012 C 
ATOM     78  CG2 VAL d  11    1040.189 291.370-1026.177  0.00  0.00     0.012 C 
ENDBRANCH  10  76
ENDBRANCH   8  10
ENDBRANCH   5   6
BRANCH   5  79
ATOM     79  CB  HIS d  10    1044.368 291.342-1023.051  0.00  0.00     0.095 C 
BRANCH  79  80
ATOM     80  CG  HIS d  10    1045.794 290.952-1022.792  0.00  0.00     0.053 A 
ATOM     81  CD2 HIS d  10    1046.302 290.770-1021.513  0.00  0.00     0.116 A 
ATOM     82  NE2 HIS d  10    1047.624 290.423-1021.627  0.00  0.00    -0.359 N 
ATOM     83  CE1 HIS d  10    1047.814 290.422-1022.974  0.00  0.00     0.207 A 
ATOM     84  2HE HIS d  10    1048.297 290.219-1020.875  0.00  0.00     0.166 HD
ATOM     85  ND1 HIS d  10    1046.767 290.725-1023.763  0.00  0.00    -0.247 NA
ENDBRANCH  79  80
ENDBRANCH   5  79
ENDBRANCH   3   5
BRANCH   1  86
ATOM     86  CA  GLU d   9    1041.920 294.803-1020.810  0.00  0.00     0.177 C 
BRANCH  86  87
ATOM     87  N   GLU d   9    1040.798 293.870-1020.767  0.00  0.00    -0.346 N 
ATOM     88  C   ASP d   8    1040.073 293.715-1021.823  0.00  0.00     0.241 C 
ATOM     89  O   ASP d   8    1040.350 294.364-1022.843  0.00  0.00    -0.271 OA
ATOM     90  H   GLU d   9    1040.593 293.353-1019.924  0.00  0.00     0.163 HD
BRANCH  88  91
ATOM     91  CA  ASP d   8    1038.913 292.751-1021.779  0.00  0.00     0.186 C 
BRANCH  91  92
ATOM     92  N   ASP d   8    1039.312 291.478-1021.185  0.00  0.00    -0.346 N 
ATOM     93  C   PRO d   7    1040.291 290.822-1021.708  0.00  0.00     0.241 C 
ATOM     94  O   PRO d   7    1040.872 291.276-1022.695  0.00  0.00    -0.271 OA
ATOM     95  H   ASP d   8    1038.828 291.116-1020.375  0.00  0.00     0.163 HD
BRANCH  93  96
ATOM     96  CA  PRO d   7    1040.726 289.480-1021.096  0.00  0.00     0.179 C 
ATOM     97  N   PRO d   7    1040.854 289.568-1019.649  0.00  0.00    -0.337 N 
ATOM     98  C   ILE d   6    1041.800 290.231-1019.075  0.00  0.00     0.243 C 
ATOM     99  CD  PRO d   7    1039.841 288.854-1018.903  0.00  0.00     0.127 C 
ATOM    100  O   ILE d   6    1042.635 290.819-1019.779  0.00  0.00    -0.271 OA
ATOM    101  CG  PRO d   7    1038.814 288.511-1019.984  0.00  0.00     0.022 C 
ATOM    102  CB  PRO d   7    1039.668 288.377-1021.254  0.00  0.00     0.037 C 
BRANCH  98 103
ATOM    103  CA  ILE d   6    1041.857 290.268-1017.568  0.00  0.00     0.180 C 
BRANCH 103 104
ATOM    104  N   ILE d   6    1040.544 290.563-1017.001  0.00  0.00    -0.346 N 
ATOM    105  C   SER d   5    1039.939 291.646-1017.355  0.00  0.00     0.243 C 
ATOM    106  O   SER d   5    1040.486 292.400-1018.160  0.00  0.00    -0.271 OA
ATOM    107  H   ILE d   6    1040.115 289.929-1016.342  0.00  0.00     0.163 HD
BRANCH 105 108
ATOM    108  CA  SER d   5    1038.580 291.952-1016.770  0.00  0.00     0.200 C 
BRANCH 108 109
ATOM    109  N   SER d   5    1037.711 290.780-1016.828  0.00  0.00    -0.344 N 
ATOM    110  C   GLU d   4    1037.483 290.228-1017.971  0.00  0.00     0.241 C 
ATOM    111  O   GLU d   4    1038.010 290.707-1018.986  0.00  0.00    -0.271 OA
ATOM    112  H   SER d   5    1037.294 290.409-1015.987  0.00  0.00     0.163 HD
BRANCH 110 113
ATOM    113  CA  GLU d   4    1036.584 289.017-1018.033  0.00  0.00     0.177 C 
BRANCH 113 114
ATOM    114  N   GLU d   4    1036.944 288.046-1017.003  0.00  0.00    -0.346 N 
ATOM    115  C   PRO d   3    1038.149 287.586-1016.970  0.00  0.00     0.241 C 
ATOM    116  O   PRO d   3    1038.972 287.969-1017.802  0.00  0.00    -0.271 OA
ATOM    117  H   GLU d   4    1036.260 287.739-1016.326  0.00  0.00     0.163 HD
BRANCH 115 118
ATOM    118  CA  PRO d   3    1038.547 286.562-1015.893  0.00  0.00     0.179 C 
ATOM    119  N   PRO d   3    1038.095 286.972-1014.572  0.00  0.00    -0.337 N 
ATOM    120  C   ASN d   2    1038.617 287.967-1013.938  0.00  0.00     0.243 C 
ATOM    121  CD  PRO d   3    1037.018 286.178-1014.023  0.00  0.00     0.127 C 
ATOM    122  O   ASN d   2    1039.532 288.597-1014.467  0.00  0.00    -0.271 OA
ATOM    123  CG  PRO d   3    1036.560 285.360-1015.233  0.00  0.00     0.022 C 
ATOM    124  CB  PRO d   3    1037.843 285.208-1016.063  0.00  0.00     0.037 C 
BRANCH 120 125
ATOM    125  CA  ASN d   2    1038.086 288.322-1012.569  0.00  0.00     0.185 C 
BRANCH 125 126
ATOM    126  N   ASN d   2    1036.626 288.361-1012.569  0.00  0.00    -0.346 N 
ATOM    127  C   GLU d   1    1036.022 289.147-1013.395  0.00  0.00     0.242 C 
ATOM    128  O   GLU d   1    1036.698 289.846-1014.163  0.00  0.00    -0.271 OA
ATOM    129  H   ASN d   2    1036.098 287.781-1011.933  0.00  0.00     0.163 HD
BRANCH 127 130
ATOM    130  CA  GLU d   1    1034.513 289.187-1013.395  0.00  0.00     0.191 C 
BRANCH 130 131
ATOM    131  N   GLU d   1    1033.954 287.838-1013.395  0.00  0.00    -0.326 NA
ATOM    132  H   GLU d   1    1034.581 286.959-1013.395  0.00  0.00     0.180 HD
ENDBRANCH 130 131
BRANCH 130 133
ATOM    133  CB  GLU d   1    1033.990 289.972-1012.158  0.00  0.00     0.047 C 
BRANCH 133 134
ATOM    134  CG  GLU d   1    1034.465 291.457-1012.047  0.00  0.00     0.116 C 
BRANCH 134 135
ATOM    135  CD  GLU d   1    1034.041 292.261-1010.832  0.00  0.00     0.172 C 
ATOM    136  OE1 GLU d   1    1033.313 291.759-1009.954  0.00  0.00    -0.648 OA
ATOM    137  OE2 GLU d   1    1034.471 293.431-1010.760  0.00  0.00    -0.648 OA
ENDBRANCH 134 135
ENDBRANCH 133 134
ENDBRANCH 130 133
ENDBRANCH 127 130
ENDBRANCH 125 126
BRANCH 125 138
ATOM    138  CB  ASN d   2    1038.578 287.299-1011.505  0.00  0.00     0.137 C 
BRANCH 138 139
ATOM    139  CG  ASN d   2    1038.115 287.523-1010.062  0.00  0.00     0.217 C 
ATOM    140  ND2 ASN d   2    1038.709 288.438-1009.344  0.00  0.00    -0.370 N 
ATOM    141 21HD ASN d   2    1038.228 288.611-1008.457  0.00  0.00     0.159 HD
ATOM    142 22HD ASN d   2    1039.411 289.010-1009.813  0.00  0.00     0.159 HD
ATOM    143  OD1 ASN d   2    1037.194 286.889-1009.568  0.00  0.00    -0.274 OA
ENDBRANCH 138 139
ENDBRANCH 125 138
ENDBRANCH 120 125
ENDBRANCH 115 118
ENDBRANCH 113 114
BRANCH 113 144
ATOM    144  CB  GLU d   4    1035.096 289.435-1017.862  0.00  0.00     0.045 C 
BRANCH 144 145
ATOM    145  CG  GLU d   4    1034.548 290.439-1018.928  0.00  0.00     0.116 C 
BRANCH 145 146
ATOM    146  CD  GLU d   4    1033.121 290.935-1018.784  0.00  0.00     0.172 C 
ATOM    147  OE1 GLU d   4    1032.395 290.537-1017.853  0.00  0.00    -0.648 OA
ATOM    148  OE2 GLU d   4    1032.732 291.764-1019.633  0.00  0.00    -0.648 OA
ENDBRANCH 145 146
ENDBRANCH 144 145
ENDBRANCH 113 144
ENDBRANCH 110 113
ENDBRANCH 108 109
BRANCH 108 149
ATOM    149  CB  SER d   5    1038.692 292.484-1015.319  0.00  0.00     0.199 C 
BRANCH 149 150
ATOM    150  OG  SER d   5    1039.423 291.605-1014.458  0.00  0.00    -0.398 OA
ATOM    151  HG  SER d   5    1038.935 290.780-1014.408  0.00  0.00     0.209 HD
ENDBRANCH 149 150
ENDBRANCH 108 149
ENDBRANCH 105 108
ENDBRANCH 103 104
BRANCH 103 152
ATOM    152  CB  ILE d   6    1042.456 288.932-1016.968  0.00  0.00     0.013 C 
ATOM    153  CG2 ILE d   6    1043.898 288.630-1017.483  0.00  0.00     0.012 C 
BRANCH 152 154
ATOM    154  CG1 ILE d   6    1042.476 288.870-1015.407  0.00  0.00     0.002 C 
ATOM    155  CD1 ILE d   6    1042.746 287.480-1014.792  0.00  0.00     0.005 C 
ENDBRANCH 152 154
ENDBRANCH 103 152
ENDBRANCH  98 103
ENDBRANCH  93  96
ENDBRANCH  91  92
BRANCH  91 156
ATOM    156  CB  ASP d   8    1037.710 293.362-1021.007  0.00  0.00     0.147 C 
BRANCH 156 157
ATOM    157  CG  ASP d   8    1037.151 294.671-1021.583  0.00  0.00     0.175 C 
ATOM    158  OD1 ASP d   8    1037.110 294.822-1022.821  0.00  0.00    -0.648 OA
ATOM    159  OD2 ASP d   8    1036.795 295.568-1020.790  0.00  0.00    -0.648 OA
ENDBRANCH 156 157
ENDBRANCH  91 156
ENDBRANCH  88  91
ENDBRANCH  86  87
BRANCH  86 160
ATOM    160  CB  GLU d   9    1042.651 294.808-1019.436  0.00  0.00     0.045 C 
BRANCH 160 161
ATOM    161  CG  GLU d   9    1043.851 295.801-1019.310  0.00  0.00     0.116 C 
BRANCH 161 162
ATOM    162  CD  GLU d   9    1044.646 295.812-1018.018  0.00  0.00     0.172 C 
ATOM    163  OE1 GLU d   9    1044.337 295.064-1017.070  0.00  0.00    -0.648 OA
ATOM    164  OE2 GLU d   9    1045.620 296.591-1017.969  0.00  0.00    -0.648 OA
ENDBRANCH 161 162
ENDBRANCH 160 161
ENDBRANCH  86 160
ENDBRANCH   1  86
TORSDOF 65
