REMARK WARNING: 32 MAX_TORS EXCEEDED!!!
REMARK  69 active torsions:
REMARK  status: ('A' for Active; 'I' for Inactive)
REMARK    1  A    between atoms: N_1  and  CA_2 
REMARK    2  A    between atoms: CA_2  and  C_3 
REMARK    3  A    between atoms: CA_2  and  CB_5 
REMARK       I    between atoms: C_3  and  N_18 
REMARK    4  A    between atoms: CB_5  and  CG_6 
REMARK    5  A    between atoms: CG_6  and  CD_7 
REMARK    6  A    between atoms: CD_7  and  NE_8 
REMARK       I    between atoms: NE_8  and  CZ_9 
REMARK       I    between atoms: CZ_9  and  NH1_10 
REMARK       I    between atoms: CZ_9  and  NH2_11 
REMARK    7  A    between atoms: N_18  and  CA_19 
REMARK    8  A    between atoms: CA_19  and  C_20 
REMARK    9  A    between atoms: CA_19  and  CB_22 
REMARK       I    between atoms: C_20  and  N_29 
REMARK   10  A    between atoms: CB_22  and  CG_23 
REMARK       I    between atoms: CG_23  and  ND2_24 
REMARK   11  A    between atoms: CA_30  and  C_31 
REMARK       I    between atoms: C_31  and  N_36 
REMARK   12  A    between atoms: N_36  and  CA_37 
REMARK   13  A    between atoms: CA_37  and  C_38 
REMARK   14  A    between atoms: CA_37  and  CB_40 
REMARK       I    between atoms: C_38  and  N_46 
REMARK   15  A    between atoms: CB_40  and  CG_41 
REMARK   16  A    between atoms: CG_41  and  CD_42 
REMARK   17  A    between atoms: N_46  and  CA_47 
REMARK   18  A    between atoms: CA_47  and  C_48 
REMARK   19  A    between atoms: CA_47  and  CB_50 
REMARK       I    between atoms: C_48  and  N_54 
REMARK   20  A    between atoms: CB_50  and  OG_51 
REMARK   21  A    between atoms: N_54  and  CA_55 
REMARK   22  A    between atoms: CA_55  and  C_56 
REMARK   23  A    between atoms: CA_55  and  CB_58 
REMARK       I    between atoms: C_56  and  N_63 
REMARK   24  A    between atoms: CB_58  and  CG1_59 
REMARK   25  A    between atoms: N_63  and  CA_64 
REMARK   26  A    between atoms: CA_64  and  C_65 
REMARK   27  A    between atoms: CA_64  and  CB_67 
REMARK       I    between atoms: C_65  and  N_72 
REMARK   28  A    between atoms: CB_67  and  CG_68 
REMARK   29  A    between atoms: N_72  and  CA_73 
REMARK   30  A    between atoms: CA_73  and  C_74 
REMARK   31  A    between atoms: CA_73  and  CB_76 
REMARK       I    between atoms: C_74  and  N_81 
REMARK   32  A    between atoms: CB_76  and  CG_77 
REMARK   33  A    between atoms: N_81  and  CA_82 
REMARK   34  A    between atoms: CA_82  and  C_83 
REMARK   35  A    between atoms: CA_82  and  CB_85 
REMARK       I    between atoms: C_83  and  N_91 
REMARK   36  A    between atoms: CB_85  and  CG_86 
REMARK   37  A    between atoms: CG_86  and  CD_87 
REMARK   38  A    between atoms: N_91  and  CA_92 
REMARK   39  A    between atoms: CA_92  and  C_93 
REMARK   40  A    between atoms: CA_92  and  CB_95 
REMARK       I    between atoms: C_93  and  N_103 
REMARK   41  A    between atoms: CB_95  and  CG_96 
REMARK   42  A    between atoms: N_103  and  CA_104 
REMARK   43  A    between atoms: CA_104  and  C_105 
REMARK   44  A    between atoms: CA_104  and  CB_107 
REMARK       I    between atoms: C_105  and  N_111 
REMARK   45  A    between atoms: N_111  and  CA_112 
REMARK   46  A    between atoms: CA_112  and  C_113 
REMARK   47  A    between atoms: CA_112  and  CB_115 
REMARK       I    between atoms: C_113  and  N_123 
REMARK   48  A    between atoms: CB_115  and  CG_116 
REMARK   49  A    between atoms: CG_116  and  CD_117 
REMARK       I    between atoms: CD_117  and  NE2_118 
REMARK   50  A    between atoms: N_123  and  CA_124 
REMARK   51  A    between atoms: CA_124  and  C_125 
REMARK   52  A    between atoms: CA_124  and  CB_127 
REMARK       I    between atoms: C_125  and  N_140 
REMARK   53  A    between atoms: CB_127  and  CG_128 
REMARK   54  A    between atoms: CG_128  and  CD_129 
REMARK   55  A    between atoms: CD_129  and  NE_130 
REMARK       I    between atoms: NE_130  and  CZ_131 
REMARK       I    between atoms: CZ_131  and  NH1_132 
REMARK       I    between atoms: CZ_131  and  NH2_133 
REMARK   56  A    between atoms: N_140  and  CA_141 
REMARK   57  A    between atoms: CA_141  and  C_142 
REMARK   58  A    between atoms: CA_141  and  CB_144 
REMARK       I    between atoms: C_142  and  N_148 
REMARK   59  A    between atoms: N_148  and  CA_149 
REMARK   60  A    between atoms: CA_149  and  C_150 
REMARK   61  A    between atoms: CA_149  and  CB_152 
REMARK       I    between atoms: C_150  and  N_157 
REMARK   62  A    between atoms: CB_152  and  CG_153 
REMARK   63  A    between atoms: CG_153  and  SD_154 
REMARK   64  A    between atoms: N_157  and  CA_158 
REMARK   65  A    between atoms: CA_158  and  C_159 
REMARK   66  A    between atoms: CA_158  and  CB_161 
REMARK   67  A    between atoms: CB_161  and  CG_162 
REMARK   68  A    between atoms: CG_162  and  CD_163 
REMARK   69  A    between atoms: CD_163  and  NE_164 
REMARK       I    between atoms: NE_164  and  CZ_165 
REMARK       I    between atoms: CZ_165  and  NH1_166 
ROOT
ATOM      1  CA  GLU d   9     174.639  29.383-142.886  0.00  0.00     0.177 C 
ENDROOT
BRANCH   1   2
ATOM      2  N   GLU d   9     173.346  28.979-142.340  0.00  0.00    -0.346 N 
ATOM      3  C   ASP d   8     172.688  28.034-142.923  0.00  0.00     0.241 C 
ATOM      4  O   ASP d   8     173.173  27.497-143.931  0.00  0.00    -0.271 OA
ATOM      5  H   GLU d   9     172.972  29.432-141.518  0.00  0.00     0.163 HD
BRANCH   3   6
ATOM      6  CA  ASP d   8     171.352  27.616-142.359  0.00  0.00     0.186 C 
BRANCH   6   7
ATOM      7  N   ASP d   8     171.428  27.434-140.912  0.00  0.00    -0.346 N 
ATOM      8  C   LEU d   7     172.286  26.599-140.431  0.00  0.00     0.241 C 
ATOM      9  O   LEU d   7     173.022  25.977-141.212  0.00  0.00    -0.271 OA
ATOM     10  H   ASP d   8     170.818  27.953-140.297  0.00  0.00     0.163 HD
BRANCH   8  11
ATOM     11  CA  LEU d   7     172.365  26.411-138.935  0.00  0.00     0.177 C 
BRANCH  11  12
ATOM     12  N   LEU d   7     172.389  27.698-138.247  0.00  0.00    -0.346 N 
ATOM     13  C   ILE d   6     173.314  28.547-138.542  0.00  0.00     0.241 C 
ATOM     14  O   ILE d   6     174.156  28.245-139.401  0.00  0.00    -0.271 OA
ATOM     15  H   LEU d   7     171.692  27.920-137.551  0.00  0.00     0.163 HD
BRANCH  13  16
ATOM     16  CA  ILE d   6     173.339  29.878-137.831  0.00  0.00     0.180 C 
BRANCH  16  17
ATOM     17  N   ILE d   6     172.011  30.484-137.807  0.00  0.00    -0.346 N 
ATOM     18  C   SER d   5     171.400  30.696-138.923  0.00  0.00     0.243 C 
ATOM     19  O   SER d   5     171.954  30.381-139.976  0.00  0.00    -0.271 OA
ATOM     20  H   ILE d   6     171.577  30.734-136.930  0.00  0.00     0.163 HD
BRANCH  18  21
ATOM     21  CA  SER d   5     170.026  31.323-138.899  0.00  0.00     0.200 C 
BRANCH  21  22
ATOM     22  N   SER d   5     169.172  30.673-137.909  0.00  0.00    -0.344 N 
ATOM     23  C   GLU d   4     168.976  29.401-137.991  0.00  0.00     0.241 C 
ATOM     24  O   GLU d   4     169.517  28.768-138.910  0.00  0.00    -0.271 OA
ATOM     25  H   SER d   5     168.743  31.211-137.170  0.00  0.00     0.163 HD
BRANCH  23  26
ATOM     26  CA  GLU d   4     168.094  28.728-136.968  0.00  0.00     0.177 C 
BRANCH  26  27
ATOM     27  N   GLU d   4     168.444  29.154-135.615  0.00  0.00    -0.346 N 
ATOM     28  C   PRO d   3     169.654  28.984-135.200  0.00  0.00     0.241 C 
ATOM     29  O   PRO d   3     170.489  28.470-135.944  0.00  0.00    -0.271 OA
ATOM     30  H   GLU d   4     167.750  29.574-135.014  0.00  0.00     0.163 HD
BRANCH  28  31
ATOM     31  CA  PRO d   3     170.042  29.426-133.779  0.00  0.00     0.179 C 
ATOM     32  N   PRO d   3     169.558  30.766-133.483  0.00  0.00    -0.337 N 
ATOM     33  C   ASN d   2     170.054  31.820-134.036  0.00  0.00     0.243 C 
ATOM     34  CD  PRO d   3     168.479  30.826-132.521  0.00  0.00     0.127 C 
ATOM     35  O   ASN d   2     170.971  31.694-134.846  0.00  0.00    -0.271 OA
ATOM     36  CG  PRO d   3     168.057  29.359-132.405  0.00  0.00     0.022 C 
ATOM     37  CB  PRO d   3     169.359  28.593-132.684  0.00  0.00     0.037 C 
BRANCH  33  38
ATOM     38  CA  ASN d   2     169.490  33.173-133.669  0.00  0.00     0.185 C 
BRANCH  38  39
ATOM     39  N   ASN d   2     168.030  33.157-133.702  0.00  0.00    -0.346 N 
ATOM     40  C   ARG d   1     167.433  32.812-134.792  0.00  0.00     0.242 C 
ATOM     41  O   ARG d   1     168.110  32.507-135.772  0.00  0.00    -0.271 OA
ATOM     42  H   ASN d   2     167.496  33.411-132.884  0.00  0.00     0.163 HD
BRANCH  40  43
ATOM     43  CA  ARG d   1     165.923  32.795-134.826  0.00  0.00     0.191 C 
BRANCH  43  44
ATOM     44  N   ARG d   1     165.382  32.116-133.652  0.00  0.00    -0.326 NA
ATOM     45  H   ARG d   1     165.988  31.718-132.926  0.00  0.00     0.180 HD
ENDBRANCH  43  44
BRANCH  43  46
ATOM     46  CB  ARG d   1     165.341  34.236-134.884  0.00  0.00     0.038 C 
BRANCH  46  47
ATOM     47  CG  ARG d   1     165.592  35.006-136.211  0.00  0.00     0.023 C 
BRANCH  47  48
ATOM     48  CD  ARG d   1     165.016  36.431-136.170  0.00  0.00     0.138 C 
BRANCH  48  49
ATOM     49  NE  ARG d   1     165.268  37.112-137.474  0.00  0.00    -0.227 N 
ATOM     50  CZ  ARG d   1     164.907  38.356-137.774  0.00  0.00     0.665 C 
ATOM     51  NH1 ARG d   1     164.283  39.146-136.946  0.00  0.00    -0.235 N 
ATOM     52  NH2 ARG d   1     165.189  38.811-138.954  0.00  0.00    -0.235 N 
ATOM     53 11HH ARG d   1     164.092  38.727-136.033  0.00  0.00     0.174 HD
ATOM     54 12HH ARG d   1     164.039  40.089-137.253  0.00  0.00     0.174 HD
ATOM     55 21HH ARG d   1     165.679  38.178-139.589  0.00  0.00     0.174 HD
ATOM     56 22HH ARG d   1     164.902  39.768-139.166  0.00  0.00     0.174 HD
ATOM     57  HE  ARG d   1     165.752  36.628-138.237  0.00  0.00     0.177 HD
ENDBRANCH  48  49
ENDBRANCH  47  48
ENDBRANCH  46  47
ENDBRANCH  43  46
ENDBRANCH  40  43
ENDBRANCH  38  39
BRANCH  38  58
ATOM     58  CB  ASN d   2     169.972  33.606-132.255  0.00  0.00     0.137 C 
BRANCH  58  59
ATOM     59  CG  ASN d   2     169.476  34.960-131.737  0.00  0.00     0.217 C 
ATOM     60  ND2 ASN d   2     170.044  36.050-132.179  0.00  0.00    -0.370 N 
ATOM     61 21HD ASN d   2     169.543  36.895-131.892  0.00  0.00     0.159 HD
ATOM     62 22HD ASN d   2     170.748  35.941-132.908  0.00  0.00     0.159 HD
ATOM     63  OD1 ASN d   2     168.554  35.055-130.942  0.00  0.00    -0.274 OA
ENDBRANCH  58  59
ENDBRANCH  38  58
ENDBRANCH  33  38
ENDBRANCH  28  31
ENDBRANCH  26  27
BRANCH  26  64
ATOM     64  CB  GLU d   4     166.597  29.047-137.247  0.00  0.00     0.045 C 
BRANCH  64  65
ATOM     65  CG  GLU d   4     166.058  28.602-138.645  0.00  0.00     0.116 C 
BRANCH  65  66
ATOM     66  CD  GLU d   4     164.623  28.937-139.005  0.00  0.00     0.172 C 
ATOM     67  OE1 GLU d   4     163.883  29.532-138.199  0.00  0.00    -0.648 OA
ATOM     68  OE2 GLU d   4     164.241  28.599-140.144  0.00  0.00    -0.648 OA
ENDBRANCH  65  66
ENDBRANCH  64  65
ENDBRANCH  26  64
ENDBRANCH  23  26
ENDBRANCH  21  22
BRANCH  21  69
ATOM     69  CB  SER d   5     170.100  32.849-138.647  0.00  0.00     0.199 C 
BRANCH  69  70
ATOM     70  OG  SER d   5     170.825  33.182-137.458  0.00  0.00    -0.398 OA
ATOM     71  HG  SER d   5     170.346  32.807-136.715  0.00  0.00     0.209 HD
ENDBRANCH  69  70
ENDBRANCH  21  69
ENDBRANCH  18  21
ENDBRANCH  16  17
BRANCH  16  72
ATOM     72  CB  ILE d   6     173.944  29.756-136.373  0.00  0.00     0.013 C 
ATOM     73  CG2 ILE d   6     175.399  29.194-136.366  0.00  0.00     0.012 C 
BRANCH  72  74
ATOM     74  CG1 ILE d   6     173.931  31.083-135.549  0.00  0.00     0.002 C 
ATOM     75  CD1 ILE d   6     174.206  30.939-134.038  0.00  0.00     0.005 C 
ENDBRANCH  72  74
ENDBRANCH  16  72
ENDBRANCH  13  16
ENDBRANCH  11  12
BRANCH  11  76
ATOM     76  CB  LEU d   7     171.183  25.539-138.423  0.00  0.00     0.038 C 
BRANCH  76  77
ATOM     77  CG  LEU d   7     171.119  25.214-136.906  0.00  0.00    -0.020 C 
ATOM     78  CD1 LEU d   7     169.952  24.258-136.619  0.00  0.00     0.009 C 
ATOM     79  CD2 LEU d   7     172.428  24.607-136.373  0.00  0.00     0.009 C 
ENDBRANCH  76  77
ENDBRANCH  11  76
ENDBRANCH   8  11
ENDBRANCH   6   7
BRANCH   6  80
ATOM     80  CB  ASP d   8     170.248  28.649-142.722  0.00  0.00     0.147 C 
BRANCH  80  81
ATOM     81  CG  ASP d   8     170.022  28.874-144.224  0.00  0.00     0.175 C 
ATOM     82  OD1 ASP d   8     170.109  27.904-145.004  0.00  0.00    -0.648 OA
ATOM     83  OD2 ASP d   8     169.802  30.035-144.627  0.00  0.00    -0.648 OA
ENDBRANCH  80  81
ENDBRANCH   6  80
ENDBRANCH   3   6
ENDBRANCH   1   2
BRANCH   1  84
ATOM     84  C   GLU d   9     175.585  28.209-142.958  0.00  0.00     0.241 C 
ATOM     85  O   GLU d   9     176.255  27.967-143.973  0.00  0.00    -0.271 OA
ATOM     86  N   HIS d  10     175.702  27.435-141.933  0.00  0.00    -0.346 N 
ATOM     87  H   HIS d  10     175.167  27.612-141.094  0.00  0.00     0.163 HD
BRANCH  86  88
ATOM     88  CA  HIS d  10     176.618  26.300-142.002  0.00  0.00     0.182 C 
BRANCH  88  89
ATOM     89  C   HIS d  10     176.272  25.395-143.160  0.00  0.00     0.241 C 
ATOM     90  O   HIS d  10     177.134  24.974-143.945  0.00  0.00    -0.271 OA
ATOM     91  N   VAL d  11     175.042  25.048-143.337  0.00  0.00    -0.346 N 
ATOM     92  H   VAL d  11     174.321  25.378-142.710  0.00  0.00     0.163 HD
BRANCH  91  93
ATOM     93  CA  VAL d  11     174.707  24.173-144.456  0.00  0.00     0.180 C 
BRANCH  93  94
ATOM     94  C   VAL d  11     175.155  24.774-145.766  0.00  0.00     0.241 C 
ATOM     95  O   VAL d  11     175.772  24.117-146.614  0.00  0.00    -0.271 OA
ATOM     96  N   GLN d  12     174.888  26.013-146.009  0.00  0.00    -0.346 N 
ATOM     97  H   GLN d  12     174.386  26.571-145.334  0.00  0.00     0.163 HD
BRANCH  96  98
ATOM     98  CA  GLN d  12     175.321  26.595-147.276  0.00  0.00     0.177 C 
BRANCH  98  99
ATOM     99  C   GLN d  12     176.814  26.458-147.453  0.00  0.00     0.241 C 
ATOM    100  O   GLN d  12     177.310  26.055-148.503  0.00  0.00    -0.271 OA
ATOM    101  N   ARG d  13     177.592  26.773-146.473  0.00  0.00    -0.346 N 
ATOM    102  H   ARG d  13     177.209  27.106-145.601  0.00  0.00     0.163 HD
BRANCH 101 103
ATOM    103  CA  ARG d  13     179.036  26.640-146.646  0.00  0.00     0.176 C 
BRANCH 103 104
ATOM    104  C   ARG d  13     179.407  25.226-147.026  0.00  0.00     0.241 C 
ATOM    105  O   ARG d  13     180.181  24.981-147.949  0.00  0.00    -0.271 OA
ATOM    106  N   VAL d  14     178.895  24.245-146.362  0.00  0.00    -0.346 N 
ATOM    107  H   VAL d  14     178.256  24.421-145.600  0.00  0.00     0.163 HD
BRANCH 106 108
ATOM    108  CA  VAL d  14     179.253  22.878-146.730  0.00  0.00     0.180 C 
BRANCH 108 109
ATOM    109  C   VAL d  14     178.928  22.605-148.179  0.00  0.00     0.241 C 
ATOM    110  O   VAL d  14     179.734  22.057-148.941  0.00  0.00    -0.271 OA
ATOM    111  N   MET d  15     177.774  22.955-148.637  0.00  0.00    -0.346 N 
ATOM    112  H   MET d  15     177.098  23.404-148.036  0.00  0.00     0.163 HD
BRANCH 111 113
ATOM    113  CA  MET d  15     177.458  22.691-150.038  0.00  0.00     0.177 C 
BRANCH 113 114
ATOM    114  C   MET d  15     178.472  23.335-150.952  0.00  0.00     0.241 C 
ATOM    115  O   MET d  15     178.989  22.719-151.897  0.00  0.00    -0.271 OA
ATOM    116  N   ARG d  16     178.811  24.563-150.746  0.00  0.00    -0.347 N 
ATOM    117  H   ARG d  16     178.404  25.085-149.983  0.00  0.00     0.163 HD
BRANCH 116 118
ATOM    118  CA  ARG d  16     179.792  25.184-151.631  0.00  0.00     0.162 C 
BRANCH 118 119
ATOM    119  C   ARG d  16     181.082  24.399-151.644  0.00  0.00     0.219 C 
ATOM    120  O   ARG d  16     181.222  23.365-150.995  0.00  0.00    -0.287 OA
ENDBRANCH 118 119
BRANCH 118 121
ATOM    121  CB  ARG d  16     180.026  26.651-151.168  0.00  0.00     0.035 C 
BRANCH 121 122
ATOM    122  CG  ARG d  16     180.828  27.544-152.156  0.00  0.00     0.023 C 
BRANCH 122 123
ATOM    123  CD  ARG d  16     181.044  28.964-151.606  0.00  0.00     0.138 C 
BRANCH 123 124
ATOM    124  NE  ARG d  16     181.799  29.778-152.603  0.00  0.00    -0.227 N 
ATOM    125  CZ  ARG d  16     182.160  31.048-152.443  0.00  0.00     0.665 C 
ATOM    126  NH1 ARG d  16     181.896  31.744-151.373  0.00  0.00    -0.235 N 
ATOM    127  NH2 ARG d  16     182.809  31.629-153.402  0.00  0.00    -0.235 N 
ATOM    128 11HH ARG d  16     181.384  31.227-150.654  0.00  0.00     0.174 HD
ATOM    129 12HH ARG d  16     182.207  32.716-151.327  0.00  0.00     0.174 HD
ATOM    130 21HH ARG d  16     183.007  31.068-154.233  0.00  0.00     0.174 HD
ATOM    131 22HH ARG d  16     183.075  32.605-153.261  0.00  0.00     0.174 HD
ATOM    132  HE  ARG d  16     182.087  29.378-153.502  0.00  0.00     0.177 HD
ENDBRANCH 123 124
ENDBRANCH 122 123
ENDBRANCH 121 122
ENDBRANCH 118 121
ENDBRANCH 116 118
ENDBRANCH 113 114
BRANCH 113 133
ATOM    133  CB  MET d  15     176.024  23.194-150.359  0.00  0.00     0.045 C 
BRANCH 133 134
ATOM    134  CG  MET d  15     174.879  22.507-149.584  0.00  0.00     0.076 C 
BRANCH 134 135
ATOM    135  SD  MET d  15     173.292  22.995-150.279  0.00  0.00    -0.173 SA
ATOM    136  CE  MET d  15     172.227  22.382-148.967  0.00  0.00     0.089 C 
ENDBRANCH 134 135
ENDBRANCH 133 134
ENDBRANCH 113 133
ENDBRANCH 111 113
ENDBRANCH 108 109
BRANCH 108 137
ATOM    137  CB  VAL d  14     178.507  21.856-145.784  0.00  0.00     0.009 C 
ATOM    138  CG1 VAL d  14     178.632  20.353-146.157  0.00  0.00     0.012 C 
ATOM    139  CG2 VAL d  14     178.938  21.945-144.301  0.00  0.00     0.012 C 
ENDBRANCH 108 137
ENDBRANCH 106 108
ENDBRANCH 103 104
BRANCH 103 140
ATOM    140  CB  ARG d  13     179.740  27.076-145.330  0.00  0.00     0.036 C 
BRANCH 140 141
ATOM    141  CG  ARG d  13     181.281  27.260-145.425  0.00  0.00     0.023 C 
BRANCH 141 142
ATOM    142  CD  ARG d  13     181.900  27.656-144.074  0.00  0.00     0.138 C 
BRANCH 142 143
ATOM    143  NE  ARG d  13     183.373  27.838-144.231  0.00  0.00    -0.227 N 
ATOM    144  CZ  ARG d  13     184.214  28.174-143.257  0.00  0.00     0.665 C 
ATOM    145  NH1 ARG d  13     183.845  28.383-142.025  0.00  0.00    -0.235 N 
ATOM    146  NH2 ARG d  13     185.471  28.303-143.547  0.00  0.00    -0.235 N 
ATOM    147 11HH ARG d  13     182.843  28.264-141.863  0.00  0.00     0.174 HD
ATOM    148 12HH ARG d  13     184.553  28.639-141.335  0.00  0.00     0.174 HD
ATOM    149 21HH ARG d  13     185.741  28.134-144.518  0.00  0.00     0.174 HD
ATOM    150 22HH ARG d  13     186.100  28.563-142.786  0.00  0.00     0.174 HD
ATOM    151  HE  ARG d  13     183.827  27.709-145.141  0.00  0.00     0.177 HD
ENDBRANCH 142 143
ENDBRANCH 141 142
ENDBRANCH 140 141
ENDBRANCH 103 140
ENDBRANCH 101 103
ENDBRANCH  98  99
BRANCH  98 152
ATOM    152  CB  GLN d  12     174.893  28.080-147.310  0.00  0.00     0.044 C 
BRANCH 152 153
ATOM    153  CG  GLN d  12     175.233  28.866-148.619  0.00  0.00     0.105 C 
BRANCH 153 154
ATOM    154  CD  GLN d  12     174.894  30.360-148.702  0.00  0.00     0.215 C 
ATOM    155  NE2 GLN d  12     174.313  30.956-147.692  0.00  0.00    -0.370 N 
ATOM    156 21HE GLN d  12     174.181  31.963-147.803  0.00  0.00     0.159 HD
ATOM    157 22HE GLN d  12     174.165  30.367-146.870  0.00  0.00     0.159 HD
ATOM    158  OE1 GLN d  12     175.179  31.017-149.691  0.00  0.00    -0.274 OA
ENDBRANCH 153 154
ENDBRANCH 152 153
ENDBRANCH  98 152
ENDBRANCH  96  98
ENDBRANCH  93  94
BRANCH  93 159
ATOM    159  CB  VAL d  11     173.152  23.891-144.470  0.00  0.00     0.009 C 
ATOM    160  CG1 VAL d  11     172.601  23.126-145.705  0.00  0.00     0.012 C 
ATOM    161  CG2 VAL d  11     172.648  23.098-143.241  0.00  0.00     0.012 C 
ENDBRANCH  93 159
ENDBRANCH  91  93
ENDBRANCH  88  89
BRANCH  88 162
ATOM    162  CB  HIS d  10     176.473  25.546-140.670  0.00  0.00     0.095 C 
BRANCH 162 163
ATOM    163  CG  HIS d  10     177.761  25.495-139.901  0.00  0.00     0.053 A 
ATOM    164  CD2 HIS d  10     178.120  26.463-138.972  0.00  0.00     0.116 A 
ATOM    165  NE2 HIS d  10     179.344  26.124-138.457  0.00  0.00    -0.359 N 
ATOM    166  CE1 HIS d  10     179.634  24.970-139.118  0.00  0.00     0.207 A 
ATOM    167  2HE HIS d  10     179.899  26.624-137.748  0.00  0.00     0.166 HD
ATOM    168  ND1 HIS d  10     178.738  24.508-140.009  0.00  0.00    -0.247 NA
ENDBRANCH 162 163
ENDBRANCH  88 162
ENDBRANCH  86  88
ENDBRANCH   1  84
BRANCH   1 169
ATOM    169  CB  GLU d   9     175.245  30.518-142.012  0.00  0.00     0.045 C 
BRANCH 169 170
ATOM    170  CG  GLU d   9     176.614  31.092-142.503  0.00  0.00     0.116 C 
BRANCH 170 171
ATOM    171  CD  GLU d   9     177.291  32.159-141.662  0.00  0.00     0.172 C 
ATOM    172  OE1 GLU d   9     176.760  32.585-140.619  0.00  0.00    -0.648 OA
ATOM    173  OE2 GLU d   9     178.400  32.566-142.066  0.00  0.00    -0.648 OA
ENDBRANCH 170 171
ENDBRANCH 169 170
ENDBRANCH   1 169
TORSDOF 69
