REMARK WARNING: 32 MAX_TORS EXCEEDED!!!
REMARK  67 active torsions:
REMARK  status: ('A' for Active; 'I' for Inactive)
REMARK    1  A    between atoms: N_1  and  CA_2 
REMARK    2  A    between atoms: CA_2  and  C_3 
REMARK    3  A    between atoms: CA_2  and  CB_5 
REMARK       I    between atoms: C_3  and  N_11 
REMARK    4  A    between atoms: CB_5  and  CG_6 
REMARK    5  A    between atoms: CG_6  and  CD_7 
REMARK    6  A    between atoms: N_11  and  CA_12 
REMARK    7  A    between atoms: CA_12  and  C_13 
REMARK    8  A    between atoms: CA_12  and  CB_15 
REMARK       I    between atoms: C_13  and  N_22 
REMARK    9  A    between atoms: CB_15  and  CG_16 
REMARK       I    between atoms: CG_16  and  ND2_17 
REMARK   10  A    between atoms: CA_23  and  C_24 
REMARK       I    between atoms: C_24  and  N_29 
REMARK   11  A    between atoms: N_29  and  CA_30 
REMARK   12  A    between atoms: CA_30  and  C_31 
REMARK   13  A    between atoms: CA_30  and  CB_33 
REMARK       I    between atoms: C_31  and  N_39 
REMARK   14  A    between atoms: CB_33  and  CG_34 
REMARK   15  A    between atoms: CG_34  and  CD_35 
REMARK   16  A    between atoms: N_39  and  CA_40 
REMARK   17  A    between atoms: CA_40  and  C_41 
REMARK   18  A    between atoms: CA_40  and  CB_43 
REMARK       I    between atoms: C_41  and  N_47 
REMARK   19  A    between atoms: CB_43  and  OG_44 
REMARK   20  A    between atoms: N_47  and  CA_48 
REMARK   21  A    between atoms: CA_48  and  C_49 
REMARK   22  A    between atoms: CA_48  and  CB_51 
REMARK       I    between atoms: C_49  and  N_56 
REMARK   23  A    between atoms: CB_51  and  CG1_52 
REMARK   24  A    between atoms: N_56  and  CA_57 
REMARK   25  A    between atoms: CA_57  and  C_58 
REMARK   26  A    between atoms: CA_57  and  CB_60 
REMARK       I    between atoms: C_58  and  N_65 
REMARK   27  A    between atoms: CB_60  and  CG_61 
REMARK   28  A    between atoms: N_65  and  CA_66 
REMARK   29  A    between atoms: CA_66  and  C_67 
REMARK   30  A    between atoms: CA_66  and  CB_69 
REMARK       I    between atoms: C_67  and  N_74 
REMARK   31  A    between atoms: CB_69  and  CG_70 
REMARK   32  A    between atoms: N_74  and  CA_75 
REMARK   33  A    between atoms: CA_75  and  C_76 
REMARK   34  A    between atoms: CA_75  and  CB_78 
REMARK       I    between atoms: C_76  and  N_84 
REMARK   35  A    between atoms: CB_78  and  CG_79 
REMARK   36  A    between atoms: CG_79  and  CD_80 
REMARK   37  A    between atoms: N_84  and  CA_85 
REMARK   38  A    between atoms: CA_85  and  C_86 
REMARK   39  A    between atoms: CA_85  and  CB_88 
REMARK       I    between atoms: C_86  and  N_96 
REMARK   40  A    between atoms: CB_88  and  CG_89 
REMARK   41  A    between atoms: N_96  and  CA_97 
REMARK   42  A    between atoms: CA_97  and  C_98 
REMARK   43  A    between atoms: CA_97  and  CB_100 
REMARK       I    between atoms: C_98  and  N_104 
REMARK   44  A    between atoms: N_104  and  CA_105 
REMARK   45  A    between atoms: CA_105  and  C_106 
REMARK   46  A    between atoms: CA_105  and  CB_108 
REMARK       I    between atoms: C_106  and  N_120 
REMARK   47  A    between atoms: CB_108  and  CG_109 
REMARK   48  A    between atoms: N_120  and  CA_121 
REMARK   49  A    between atoms: CA_121  and  C_122 
REMARK   50  A    between atoms: CA_121  and  CB_124 
REMARK       I    between atoms: C_122  and  N_137 
REMARK   51  A    between atoms: CB_124  and  CG_125 
REMARK   52  A    between atoms: CG_125  and  CD_126 
REMARK   53  A    between atoms: CD_126  and  NE_127 
REMARK       I    between atoms: NE_127  and  CZ_128 
REMARK       I    between atoms: CZ_128  and  NH1_129 
REMARK       I    between atoms: CZ_128  and  NH2_130 
REMARK   54  A    between atoms: N_137  and  CA_138 
REMARK   55  A    between atoms: CA_138  and  C_139 
REMARK   56  A    between atoms: CA_138  and  CB_141 
REMARK       I    between atoms: C_139  and  N_145 
REMARK   57  A    between atoms: N_145  and  CA_146 
REMARK   58  A    between atoms: CA_146  and  C_147 
REMARK   59  A    between atoms: CA_146  and  CB_149 
REMARK       I    between atoms: C_147  and  N_154 
REMARK   60  A    between atoms: CB_149  and  CG_150 
REMARK   61  A    between atoms: CG_150  and  SD_151 
REMARK   62  A    between atoms: N_154  and  CA_155 
REMARK   63  A    between atoms: CA_155  and  C_156 
REMARK   64  A    between atoms: CA_155  and  CB_158 
REMARK   65  A    between atoms: CB_158  and  CG_159 
REMARK   66  A    between atoms: CG_159  and  CD_160 
REMARK   67  A    between atoms: CD_160  and  NE_161 
REMARK       I    between atoms: NE_161  and  CZ_162 
REMARK       I    between atoms: CZ_162  and  NH1_163 
ROOT
ATOM      1  C   GLU d   9    1929.515 584.635-1981.844  0.00  0.00     0.241 C 
ATOM      2  O   GLU d   9    1930.178 585.390-1982.569  0.00  0.00    -0.271 OA
ATOM      3  N   HIS d  10    1929.612 583.360-1982.014  0.00  0.00    -0.346 N 
ATOM      4  H   HIS d  10    1929.081 582.724-1981.435  0.00  0.00     0.163 HD
ENDROOT
BRANCH   3   5
ATOM      5  CA  HIS d  10    1930.500 582.849-1983.054  0.00  0.00     0.182 C 
BRANCH   5   6
ATOM      6  C   HIS d  10    1930.133 583.414-1984.405  0.00  0.00     0.241 C 
ATOM      7  O   HIS d  10    1930.985 583.880-1985.177  0.00  0.00    -0.271 OA
ATOM      8  N   VAL d  11    1928.895 583.413-1984.768  0.00  0.00    -0.346 N 
ATOM      9  H   VAL d  11    1928.182 583.039-1984.158  0.00  0.00     0.163 HD
BRANCH   8  10
ATOM     10  CA  VAL d  11    1928.540 583.959-1986.075  0.00  0.00     0.180 C 
BRANCH  10  11
ATOM     11  C   VAL d  11    1929.004 585.390-1986.207  0.00  0.00     0.241 C 
ATOM     12  O   VAL d  11    1929.605 585.796-1987.209  0.00  0.00    -0.271 OA
ATOM     13  N   TRP d  12    1928.766 586.215-1985.244  0.00  0.00    -0.346 N 
ATOM     14  H   TRP d  12    1928.277 585.908-1984.415  0.00  0.00     0.163 HD
BRANCH  13  15
ATOM     15  CA  TRP d  12    1929.214 587.599-1985.370  0.00  0.00     0.181 C 
BRANCH  15  16
ATOM     16  C   TRP d  12    1930.704 587.666-1985.608  0.00  0.00     0.241 C 
ATOM     17  O   TRP d  12    1931.192 588.374-1986.487  0.00  0.00    -0.271 OA
ATOM     18  N   ARG d  13    1931.489 586.958-1984.867  0.00  0.00    -0.346 N 
ATOM     19  H   ARG d  13    1931.112 586.369-1984.139  0.00  0.00     0.163 HD
BRANCH  18  20
ATOM     20  CA  ARG d  13    1932.929 587.024-1985.098  0.00  0.00     0.176 C 
BRANCH  20  21
ATOM     21  C   ARG d  13    1933.266 586.652-1986.523  0.00  0.00     0.241 C 
ATOM     22  O   ARG d  13    1934.034 587.324-1987.207  0.00  0.00    -0.271 OA
ATOM     23  N   VAL d  14    1932.729 585.598-1987.038  0.00  0.00    -0.346 N 
ATOM     24  H   VAL d  14    1932.094 585.030-1986.496  0.00  0.00     0.163 HD
BRANCH  23  25
ATOM     25  CA  VAL d  14    1933.054 585.239-1988.415  0.00  0.00     0.180 C 
BRANCH  25  26
ATOM     26  C   VAL d  14    1932.725 586.369-1989.361  0.00  0.00     0.241 C 
ATOM     27  O   VAL d  14    1933.519 586.751-1990.230  0.00  0.00    -0.271 OA
ATOM     28  N   MET d  15    1931.580 586.956-1989.259  0.00  0.00    -0.346 N 
ATOM     29  H   MET d  15    1930.915 586.663-1988.558  0.00  0.00     0.163 HD
BRANCH  28  30
ATOM     30  CA  MET d  15    1931.261 588.049-1990.173  0.00  0.00     0.177 C 
BRANCH  30  31
ATOM     31  C   MET d  15    1932.291 589.148-1990.084  0.00  0.00     0.241 C 
ATOM     32  O   MET d  15    1932.794 589.659-1991.097  0.00  0.00    -0.271 OA
ATOM     33  N   ARG d  16    1932.660 589.569-1988.922  0.00  0.00    -0.347 N 
ATOM     34  H   ARG d  16    1932.265 589.169-1988.083  0.00  0.00     0.163 HD
BRANCH  33  35
ATOM     35  CA  ARG d  16    1933.657 590.633-1988.838  0.00  0.00     0.162 C 
BRANCH  35  36
ATOM     36  C   ARG d  16    1934.927 590.239-1989.554  0.00  0.00     0.219 C 
ATOM     37  O   ARG d  16    1935.041 589.163-1990.135  0.00  0.00    -0.287 OA
ENDBRANCH  35  36
BRANCH  35  38
ATOM     38  CB  ARG d  16    1933.926 590.950-1987.339  0.00  0.00     0.035 C 
BRANCH  38  39
ATOM     39  CG  ARG d  16    1934.751 592.239-1987.066  0.00  0.00     0.023 C 
BRANCH  39  40
ATOM     40  CD  ARG d  16    1935.001 592.458-1985.565  0.00  0.00     0.138 C 
BRANCH  40  41
ATOM     41  NE  ARG d  16    1935.777 593.716-1985.364  0.00  0.00    -0.227 N 
ATOM     42  CZ  ARG d  16    1936.169 594.198-1984.188  0.00  0.00     0.665 C 
ATOM     43  NH1 ARG d  16    1935.921 593.614-1983.049  0.00  0.00    -0.235 N 
ATOM     44  NH2 ARG d  16    1936.833 595.311-1984.169  0.00  0.00    -0.235 N 
ATOM     45 11HH ARG d  16    1935.395 592.741-1983.134  0.00  0.00     0.174 HD
ATOM     46 12HH ARG d  16    1936.255 594.049-1982.188  0.00  0.00     0.174 HD
ATOM     47 21HH ARG d  16    1937.019 595.754-1985.071  0.00  0.00     0.174 HD
ATOM     48 22HH ARG d  16    1937.123 595.666-1983.256  0.00  0.00     0.174 HD
ATOM     49  HE  ARG d  16    1936.056 594.297-1986.161  0.00  0.00     0.177 HD
ENDBRANCH  40  41
ENDBRANCH  39  40
ENDBRANCH  38  39
ENDBRANCH  35  38
ENDBRANCH  33  35
ENDBRANCH  30  31
BRANCH  30  50
ATOM     50  CB  MET d  15    1929.839 588.595-1989.864  0.00  0.00     0.045 C 
BRANCH  50  51
ATOM     51  CG  MET d  15    1928.677 587.597-1990.056  0.00  0.00     0.076 C 
BRANCH  51  52
ATOM     52  SD  MET d  15    1927.103 588.464-1989.942  0.00  0.00    -0.173 SA
ATOM     53  CE  MET d  15    1926.022 587.035-1989.806  0.00  0.00     0.089 C 
ENDBRANCH  51  52
ENDBRANCH  50  51
ENDBRANCH  30  50
ENDBRANCH  28  30
ENDBRANCH  25  26
BRANCH  25  54
ATOM     54  CB  VAL d  14    1932.281 583.922-1988.823  0.00  0.00     0.009 C 
ATOM     55  CG1 VAL d  14    1932.371 583.504-1990.316  0.00  0.00     0.012 C 
ATOM     56  CG2 VAL d  14    1932.713 582.670-1988.022  0.00  0.00     0.012 C 
ENDBRANCH  25  54
ENDBRANCH  23  25
ENDBRANCH  20  21
BRANCH  20  57
ATOM     57  CB  ARG d  13    1933.642 586.085-1984.084  0.00  0.00     0.036 C 
BRANCH  57  58
ATOM     58  CG  ARG d  13    1935.187 586.237-1984.002  0.00  0.00     0.023 C 
BRANCH  58  59
ATOM     59  CD  ARG d  13    1935.813 585.249-1983.005  0.00  0.00     0.138 C 
BRANCH  59  60
ATOM     60  NE  ARG d  13    1937.291 585.456-1982.954  0.00  0.00    -0.227 N 
ATOM     61  CZ  ARG d  13    1938.138 584.764-1982.199  0.00  0.00     0.665 C 
ATOM     62  NH1 ARG d  13    1937.773 583.799-1981.401  0.00  0.00    -0.235 N 
ATOM     63  NH2 ARG d  13    1939.398 585.063-1982.255  0.00  0.00    -0.235 N 
ATOM     64 11HH ARG d  13    1936.767 583.614-1981.405  0.00  0.00     0.174 HD
ATOM     65 12HH ARG d  13    1938.485 583.316-1980.853  0.00  0.00     0.174 HD
ATOM     66 21HH ARG d  13    1939.666 585.820-1982.886  0.00  0.00     0.174 HD
ATOM     67 22HH ARG d  13    1940.033 584.521-1981.666  0.00  0.00     0.174 HD
ATOM     68  HE  ARG d  13    1937.742 586.178-1983.524  0.00  0.00     0.177 HD
ENDBRANCH  59  60
ENDBRANCH  58  59
ENDBRANCH  57  58
ENDBRANCH  20  57
ENDBRANCH  18  20
ENDBRANCH  15  16
BRANCH  15  69
ATOM     69  CB  TRP d  12    1928.854 588.370-1984.070  0.00  0.00     0.075 C 
BRANCH  69  70
ATOM     70  CG  TRP d  12    1927.353 588.539-1983.820  0.00  0.00    -0.028 A 
ATOM     71  CD2 TRP d  12    1926.484 589.439-1984.403  0.00  0.00    -0.002 A 
ATOM     72  CE3 TRP d  12    1926.699 590.480-1985.343  0.00  0.00     0.014 A 
ATOM     73  CE2 TRP d  12    1925.181 589.158-1983.924  0.00  0.00     0.042 A 
ATOM     74  CZ3 TRP d  12    1925.600 591.227-1985.766  0.00  0.00     0.001 A 
ATOM     75  CH2 TRP d  12    1924.311 590.956-1985.287  0.00  0.00     0.002 A 
ATOM     76  CZ2 TRP d  12    1924.083 589.924-1984.373  0.00  0.00     0.030 A 
ATOM     77  NE1 TRP d  12    1925.202 588.088-1983.041  0.00  0.00    -0.365 N 
ATOM     78  CD1 TRP d  12    1926.559 587.717-1982.993  0.00  0.00     0.096 A 
ATOM     79  1HE TRP d  12    1924.404 587.642-1982.574  0.00  0.00     0.165 HD
ENDBRANCH  69  70
ENDBRANCH  15  69
ENDBRANCH  13  15
ENDBRANCH  10  11
BRANCH  10  80
ATOM     80  CB  VAL d  11    1926.979 583.852-1986.295  0.00  0.00     0.009 C 
ATOM     81  CG1 VAL d  11    1926.410 584.556-1987.557  0.00  0.00     0.012 C 
ATOM     82  CG2 VAL d  11    1926.455 582.397-1986.368  0.00  0.00     0.012 C 
ENDBRANCH  10  80
ENDBRANCH   8  10
ENDBRANCH   5   6
BRANCH   5  83
ATOM     83  CB  HIS d  10    1930.337 581.320-1983.050  0.00  0.00     0.095 C 
BRANCH  83  84
ATOM     84  CG  HIS d  10    1931.623 580.610-1982.742  0.00  0.00     0.053 A 
ATOM     85  CD2 HIS d  10    1932.003 580.275-1981.449  0.00  0.00     0.116 A 
ATOM     86  NE2 HIS d  10    1933.219 579.644-1981.516  0.00  0.00    -0.359 N 
ATOM     87  CE1 HIS d  10    1933.482 579.647-1982.851  0.00  0.00     0.207 A 
ATOM     88  2HE HIS d  10    1933.786 579.267-1980.743  0.00  0.00     0.166 HD
ATOM     89  ND1 HIS d  10    1932.575 580.205-1983.674  0.00  0.00    -0.247 NA
ENDBRANCH  83  84
ENDBRANCH   5  83
ENDBRANCH   3   5
BRANCH   1  90
ATOM     90  CA  GLU d   9    1928.596 585.162-1980.768  0.00  0.00     0.177 C 
BRANCH  90  91
ATOM     91  N   GLU d   9    1927.294 584.504-1980.824  0.00  0.00    -0.346 N 
ATOM     92  C   ASP d   8    1926.614 584.554-1981.919  0.00  0.00     0.241 C 
ATOM     93  O   ASP d   8    1927.086 585.159-1982.893  0.00  0.00    -0.271 OA
ATOM     94  H   GLU d   9    1926.930 584.017-1980.017  0.00  0.00     0.163 HD
BRANCH  92  95
ATOM     95  CA  ASP d   8    1925.267 583.874-1981.976  0.00  0.00     0.186 C 
BRANCH  95  96
ATOM     96  N   ASP d   8    1925.338 582.524-1981.423  0.00  0.00    -0.346 N 
ATOM     97  C   LEU d   7    1926.176 581.684-1981.929  0.00  0.00     0.241 C 
ATOM     98  O   LEU d   7    1926.896 582.047-1982.871  0.00  0.00    -0.271 OA
ATOM     99  H   ASP d   8    1924.740 582.253-1980.656  0.00  0.00     0.163 HD
BRANCH  97 100
ATOM    100  CA  LEU d   7    1926.248 580.289-1981.357  0.00  0.00     0.177 C 
BRANCH 100 101
ATOM    101  N   LEU d   7    1926.303 580.325-1979.898  0.00  0.00    -0.346 N 
ATOM    102  C   ILE d   6    1927.249 580.988-1979.325  0.00  0.00     0.241 C 
ATOM    103  O   ILE d   6    1928.083 581.576-1980.029  0.00  0.00    -0.271 OA
ATOM    104  H   LEU d   7    1925.611 579.837-1979.347  0.00  0.00     0.163 HD
BRANCH 102 105
ATOM    105  CA  ILE d   6    1927.306 581.026-1977.817  0.00  0.00     0.180 C 
BRANCH 105 106
ATOM    106  N   ILE d   6    1925.993 581.320-1977.251  0.00  0.00    -0.346 N 
ATOM    107  C   SER d   5    1925.388 582.404-1977.605  0.00  0.00     0.243 C 
ATOM    108  O   SER d   5    1925.935 583.157-1978.410  0.00  0.00    -0.271 OA
ATOM    109  H   ILE d   6    1925.565 580.686-1976.592  0.00  0.00     0.163 HD
BRANCH 107 110
ATOM    110  CA  SER d   5    1924.029 582.709-1977.019  0.00  0.00     0.200 C 
BRANCH 110 111
ATOM    111  N   SER d   5    1923.160 581.538-1977.078  0.00  0.00    -0.344 N 
ATOM    112  C   GLU d   4    1922.932 580.985-1978.221  0.00  0.00     0.241 C 
ATOM    113  O   GLU d   4    1923.459 581.465-1979.235  0.00  0.00    -0.271 OA
ATOM    114  H   SER d   5    1922.743 581.166-1976.236  0.00  0.00     0.163 HD
BRANCH 112 115
ATOM    115  CA  GLU d   4    1922.033 579.774-1978.282  0.00  0.00     0.177 C 
BRANCH 115 116
ATOM    116  N   GLU d   4    1922.393 578.803-1977.252  0.00  0.00    -0.346 N 
ATOM    117  C   PRO d   3    1923.598 578.343-1977.220  0.00  0.00     0.241 C 
ATOM    118  O   PRO d   3    1924.421 578.726-1978.052  0.00  0.00    -0.271 OA
ATOM    119  H   GLU d   4    1921.709 578.496-1976.576  0.00  0.00     0.163 HD
BRANCH 117 120
ATOM    120  CA  PRO d   3    1923.996 577.319-1976.143  0.00  0.00     0.179 C 
ATOM    121  N   PRO d   3    1923.544 577.729-1974.822  0.00  0.00    -0.337 N 
ATOM    122  C   ASN d   2    1924.066 578.724-1974.188  0.00  0.00     0.243 C 
ATOM    123  CD  PRO d   3    1922.466 576.936-1974.272  0.00  0.00     0.127 C 
ATOM    124  O   ASN d   2    1924.980 579.354-1974.716  0.00  0.00    -0.271 OA
ATOM    125  CG  PRO d   3    1922.008 576.117-1975.482  0.00  0.00     0.022 C 
ATOM    126  CB  PRO d   3    1923.292 575.965-1976.312  0.00  0.00     0.037 C 
BRANCH 122 127
ATOM    127  CA  ASN d   2    1923.534 579.079-1972.819  0.00  0.00     0.185 C 
BRANCH 127 128
ATOM    128  N   ASN d   2    1922.075 579.118-1972.819  0.00  0.00    -0.346 N 
ATOM    129  C   GLU d   1    1921.470 579.904-1973.644  0.00  0.00     0.242 C 
ATOM    130  O   GLU d   1    1922.146 580.603-1974.413  0.00  0.00    -0.271 OA
ATOM    131  H   ASN d   2    1921.547 578.538-1972.182  0.00  0.00     0.163 HD
BRANCH 129 132
ATOM    132  CA  GLU d   1    1919.961 579.944-1973.644  0.00  0.00     0.191 C 
BRANCH 132 133
ATOM    133  N   GLU d   1    1919.402 578.595-1973.644  0.00  0.00    -0.326 NA
ATOM    134  H   GLU d   1    1920.029 577.716-1973.644  0.00  0.00     0.180 HD
ENDBRANCH 132 133
BRANCH 132 135
ATOM    135  CB  GLU d   1    1919.438 580.729-1972.407  0.00  0.00     0.047 C 
BRANCH 135 136
ATOM    136  CG  GLU d   1    1919.913 582.214-1972.296  0.00  0.00     0.116 C 
BRANCH 136 137
ATOM    137  CD  GLU d   1    1919.490 583.018-1971.081  0.00  0.00     0.172 C 
ATOM    138  OE1 GLU d   1    1918.761 582.516-1970.203  0.00  0.00    -0.648 OA
ATOM    139  OE2 GLU d   1    1919.919 584.188-1971.009  0.00  0.00    -0.648 OA
ENDBRANCH 136 137
ENDBRANCH 135 136
ENDBRANCH 132 135
ENDBRANCH 129 132
ENDBRANCH 127 128
BRANCH 127 140
ATOM    140  CB  ASN d   2    1924.026 578.056-1971.755  0.00  0.00     0.137 C 
BRANCH 140 141
ATOM    141  CG  ASN d   2    1923.563 578.280-1970.311  0.00  0.00     0.217 C 
ATOM    142  ND2 ASN d   2    1924.157 579.195-1969.593  0.00  0.00    -0.370 N 
ATOM    143 21HD ASN d   2    1923.677 579.368-1968.707  0.00  0.00     0.159 HD
ATOM    144 22HD ASN d   2    1924.859 579.767-1970.062  0.00  0.00     0.159 HD
ATOM    145  OD1 ASN d   2    1922.642 577.646-1969.817  0.00  0.00    -0.274 OA
ENDBRANCH 140 141
ENDBRANCH 127 140
ENDBRANCH 122 127
ENDBRANCH 117 120
ENDBRANCH 115 116
BRANCH 115 146
ATOM    146  CB  GLU d   4    1920.545 580.193-1978.112  0.00  0.00     0.045 C 
BRANCH 146 147
ATOM    147  CG  GLU d   4    1919.997 581.196-1979.177  0.00  0.00     0.116 C 
BRANCH 147 148
ATOM    148  CD  GLU d   4    1918.570 581.693-1979.034  0.00  0.00     0.172 C 
ATOM    149  OE1 GLU d   4    1917.844 581.295-1978.103  0.00  0.00    -0.648 OA
ATOM    150  OE2 GLU d   4    1918.181 582.522-1979.882  0.00  0.00    -0.648 OA
ENDBRANCH 147 148
ENDBRANCH 146 147
ENDBRANCH 115 146
ENDBRANCH 112 115
ENDBRANCH 110 111
BRANCH 110 151
ATOM    151  CB  SER d   5    1924.141 583.241-1975.569  0.00  0.00     0.199 C 
BRANCH 151 152
ATOM    152  OG  SER d   5    1924.872 582.362-1974.708  0.00  0.00    -0.398 OA
ATOM    153  HG  SER d   5    1924.384 581.537-1974.657  0.00  0.00     0.209 HD
ENDBRANCH 151 152
ENDBRANCH 110 151
ENDBRANCH 107 110
ENDBRANCH 105 106
BRANCH 105 154
ATOM    154  CB  ILE d   6    1927.906 579.689-1977.217  0.00  0.00     0.013 C 
ATOM    155  CG2 ILE d   6    1929.347 579.388-1977.732  0.00  0.00     0.012 C 
BRANCH 154 156
ATOM    156  CG1 ILE d   6    1927.926 579.628-1975.656  0.00  0.00     0.002 C 
ATOM    157  CD1 ILE d   6    1928.195 578.238-1975.041  0.00  0.00     0.005 C 
ENDBRANCH 154 156
ENDBRANCH 105 154
ENDBRANCH 102 105
ENDBRANCH 100 101
BRANCH 100 158
ATOM    158  CB  LEU d   7    1925.045 579.428-1981.837  0.00  0.00     0.038 C 
BRANCH 158 159
ATOM    159  CG  LEU d   7    1924.973 577.949-1981.371  0.00  0.00    -0.020 C 
ATOM    160  CD1 LEU d   7    1923.783 577.243-1982.036  0.00  0.00     0.009 C 
ATOM    161  CD2 LEU d   7    1926.266 577.170-1981.662  0.00  0.00     0.009 C 
ENDBRANCH 158 159
ENDBRANCH 100 158
ENDBRANCH  97 100
ENDBRANCH  95  96
BRANCH  95 162
ATOM    162  CB  ASP d   8    1924.189 584.712-1981.234  0.00  0.00     0.147 C 
BRANCH 162 163
ATOM    163  CG  ASP d   8    1923.970 586.133-1981.775  0.00  0.00     0.175 C 
ATOM    164  OD1 ASP d   8    1924.034 586.333-1983.005  0.00  0.00    -0.648 OA
ATOM    165  OD2 ASP d   8    1923.778 587.059-1980.959  0.00  0.00    -0.648 OA
ENDBRANCH 162 163
ENDBRANCH  95 162
ENDBRANCH  92  95
ENDBRANCH  90  91
BRANCH  90 166
ATOM    166  CB  GLU d   9    1929.230 584.954-1979.362  0.00  0.00     0.045 C 
BRANCH 166 167
ATOM    167  CG  GLU d   9    1930.612 585.647-1979.133  0.00  0.00     0.116 C 
BRANCH 167 168
ATOM    168  CD  GLU d   9    1931.314 585.433-1977.805  0.00  0.00     0.172 C 
ATOM    169  OE1 GLU d   9    1930.792 584.742-1976.909  0.00  0.00    -0.648 OA
ATOM    170  OE2 GLU d   9    1932.432 585.972-1977.672  0.00  0.00    -0.648 OA
ENDBRANCH 167 168
ENDBRANCH 166 167
ENDBRANCH  90 166
ENDBRANCH   1  90
TORSDOF 67
