REMARK WARNING: 32 MAX_TORS EXCEEDED!!!
REMARK  66 active torsions:
REMARK  status: ('A' for Active; 'I' for Inactive)
REMARK    1  A    between atoms: N_1  and  CA_2 
REMARK    2  A    between atoms: CA_2  and  C_3 
REMARK    3  A    between atoms: CA_2  and  CB_5 
REMARK       I    between atoms: C_3  and  N_11 
REMARK    4  A    between atoms: CB_5  and  CG_6 
REMARK    5  A    between atoms: CG_6  and  CD_7 
REMARK    6  A    between atoms: N_11  and  CA_12 
REMARK    7  A    between atoms: CA_12  and  C_13 
REMARK    8  A    between atoms: CA_12  and  CB_15 
REMARK       I    between atoms: C_13  and  N_22 
REMARK    9  A    between atoms: CB_15  and  CG_16 
REMARK       I    between atoms: CG_16  and  ND2_17 
REMARK   10  A    between atoms: CA_23  and  C_24 
REMARK       I    between atoms: C_24  and  N_29 
REMARK   11  A    between atoms: N_29  and  CA_30 
REMARK   12  A    between atoms: CA_30  and  C_31 
REMARK   13  A    between atoms: CA_30  and  CB_33 
REMARK       I    between atoms: C_31  and  N_39 
REMARK   14  A    between atoms: CB_33  and  CG_34 
REMARK   15  A    between atoms: CG_34  and  CD_35 
REMARK   16  A    between atoms: N_39  and  CA_40 
REMARK   17  A    between atoms: CA_40  and  C_41 
REMARK   18  A    between atoms: CA_40  and  CB_43 
REMARK       I    between atoms: C_41  and  N_47 
REMARK   19  A    between atoms: CB_43  and  OG_44 
REMARK   20  A    between atoms: N_47  and  CA_48 
REMARK   21  A    between atoms: CA_48  and  C_49 
REMARK   22  A    between atoms: CA_48  and  CB_51 
REMARK       I    between atoms: C_49  and  N_56 
REMARK   23  A    between atoms: CB_51  and  CG1_52 
REMARK   24  A    between atoms: N_56  and  CA_57 
REMARK   25  A    between atoms: CA_57  and  C_58 
REMARK       I    between atoms: C_58  and  N_62 
REMARK   26  A    between atoms: N_62  and  CA_63 
REMARK   27  A    between atoms: CA_63  and  C_64 
REMARK   28  A    between atoms: CA_63  and  CB_66 
REMARK       I    between atoms: C_64  and  N_71 
REMARK   29  A    between atoms: CB_66  and  CG_67 
REMARK   30  A    between atoms: N_71  and  CA_72 
REMARK   31  A    between atoms: CA_72  and  C_73 
REMARK   32  A    between atoms: CA_72  and  CB_75 
REMARK       I    between atoms: C_73  and  N_81 
REMARK   33  A    between atoms: CB_75  and  CG_76 
REMARK   34  A    between atoms: CG_76  and  CD_77 
REMARK   35  A    between atoms: N_81  and  CA_82 
REMARK   36  A    between atoms: CA_82  and  C_83 
REMARK   37  A    between atoms: CA_82  and  CB_85 
REMARK       I    between atoms: C_83  and  N_93 
REMARK   38  A    between atoms: CB_85  and  CG_86 
REMARK   39  A    between atoms: N_93  and  CA_94 
REMARK   40  A    between atoms: CA_94  and  C_95 
REMARK   41  A    between atoms: CA_94  and  CB_97 
REMARK       I    between atoms: C_95  and  N_101 
REMARK   42  A    between atoms: N_101  and  CA_102 
REMARK   43  A    between atoms: CA_102  and  C_103 
REMARK   44  A    between atoms: CA_102  and  CB_105 
REMARK       I    between atoms: C_103  and  N_113 
REMARK   45  A    between atoms: CB_105  and  CG_106 
REMARK   46  A    between atoms: CG_106  and  CD_107 
REMARK       I    between atoms: CD_107  and  NE2_108 
REMARK   47  A    between atoms: N_113  and  CA_114 
REMARK   48  A    between atoms: CA_114  and  C_115 
REMARK   49  A    between atoms: CA_114  and  CB_117 
REMARK       I    between atoms: C_115  and  N_130 
REMARK   50  A    between atoms: CB_117  and  CG_118 
REMARK   51  A    between atoms: CG_118  and  CD_119 
REMARK   52  A    between atoms: CD_119  and  NE_120 
REMARK       I    between atoms: NE_120  and  CZ_121 
REMARK       I    between atoms: CZ_121  and  NH1_122 
REMARK       I    between atoms: CZ_121  and  NH2_123 
REMARK   53  A    between atoms: N_130  and  CA_131 
REMARK   54  A    between atoms: CA_131  and  C_132 
REMARK   55  A    between atoms: CA_131  and  CB_134 
REMARK       I    between atoms: C_132  and  N_138 
REMARK   56  A    between atoms: N_138  and  CA_139 
REMARK   57  A    between atoms: CA_139  and  C_140 
REMARK   58  A    between atoms: CA_139  and  CB_142 
REMARK       I    between atoms: C_140  and  N_147 
REMARK   59  A    between atoms: CB_142  and  CG_143 
REMARK   60  A    between atoms: CG_143  and  SD_144 
REMARK   61  A    between atoms: N_147  and  CA_148 
REMARK   62  A    between atoms: CA_148  and  C_149 
REMARK   63  A    between atoms: CA_148  and  CB_151 
REMARK   64  A    between atoms: CB_151  and  CG_152 
REMARK   65  A    between atoms: CG_152  and  CD_153 
REMARK   66  A    between atoms: CD_153  and  NE_154 
REMARK       I    between atoms: NE_154  and  CZ_155 
REMARK       I    between atoms: CZ_155  and  NH1_156 
ROOT
ATOM      1  C   GLU d   9    1035.704 290.974-1012.705  0.00  0.00     0.241 C 
ATOM      2  O   GLU d   9    1036.368 291.729-1013.430  0.00  0.00    -0.271 OA
ATOM      3  N   HIS d  10    1035.800 289.699-1012.875  0.00  0.00    -0.346 N 
ATOM      4  H   HIS d  10    1035.270 289.063-1012.296  0.00  0.00     0.163 HD
ENDROOT
BRANCH   3   5
ATOM      5  CA  HIS d  10    1036.689 289.188-1013.915  0.00  0.00     0.182 C 
BRANCH   5   6
ATOM      6  C   HIS d  10    1036.322 289.753-1015.266  0.00  0.00     0.241 C 
ATOM      7  O   HIS d  10    1037.175 290.218-1016.037  0.00  0.00    -0.271 OA
ATOM      8  N   VAL d  11    1035.084 289.752-1015.629  0.00  0.00    -0.346 N 
ATOM      9  H   VAL d  11    1034.371 289.379-1015.019  0.00  0.00     0.163 HD
BRANCH   8  10
ATOM     10  CA  VAL d  11    1034.730 290.298-1016.936  0.00  0.00     0.180 C 
BRANCH  10  11
ATOM     11  C   VAL d  11    1035.194 291.729-1017.068  0.00  0.00     0.241 C 
ATOM     12  O   VAL d  11    1035.795 292.135-1018.070  0.00  0.00    -0.271 OA
ATOM     13  N   GLN d  12    1034.956 292.555-1016.105  0.00  0.00    -0.346 N 
ATOM     14  H   GLN d  12    1034.467 292.248-1015.276  0.00  0.00     0.163 HD
BRANCH  13  15
ATOM     15  CA  GLN d  12    1035.405 293.938-1016.231  0.00  0.00     0.177 C 
BRANCH  15  16
ATOM     16  C   GLN d  12    1036.895 294.005-1016.469  0.00  0.00     0.241 C 
ATOM     17  O   GLN d  12    1037.382 294.714-1017.347  0.00  0.00    -0.271 OA
ATOM     18  N   ARG d  13    1037.679 293.298-1015.728  0.00  0.00    -0.346 N 
ATOM     19  H   ARG d  13    1037.303 292.708-1015.000  0.00  0.00     0.163 HD
BRANCH  18  20
ATOM     20  CA  ARG d  13    1039.120 293.364-1015.958  0.00  0.00     0.176 C 
BRANCH  20  21
ATOM     21  C   ARG d  13    1039.456 292.993-1017.383  0.00  0.00     0.241 C 
ATOM     22  O   ARG d  13    1040.225 293.666-1018.066  0.00  0.00    -0.271 OA
ATOM     23  N   VAL d  14    1038.921 291.939-1017.898  0.00  0.00    -0.346 N 
ATOM     24  H   VAL d  14    1038.286 291.370-1017.357  0.00  0.00     0.163 HD
BRANCH  23  25
ATOM     25  CA  VAL d  14    1039.246 291.581-1019.276  0.00  0.00     0.180 C 
BRANCH  25  26
ATOM     26  C   VAL d  14    1038.917 292.711-1020.221  0.00  0.00     0.241 C 
ATOM     27  O   VAL d  14    1039.710 293.093-1021.090  0.00  0.00    -0.271 OA
ATOM     28  N   MET d  15    1037.772 293.297-1020.119  0.00  0.00    -0.346 N 
ATOM     29  H   MET d  15    1037.106 293.003-1019.418  0.00  0.00     0.163 HD
BRANCH  28  30
ATOM     30  CA  MET d  15    1037.452 294.390-1021.033  0.00  0.00     0.177 C 
BRANCH  30  31
ATOM     31  C   MET d  15    1038.482 295.490-1020.944  0.00  0.00     0.241 C 
ATOM     32  O   MET d  15    1038.985 296.001-1021.956  0.00  0.00    -0.271 OA
ATOM     33  N   ARG d  16    1038.850 295.910-1019.781  0.00  0.00    -0.347 N 
ATOM     34  H   ARG d  16    1038.455 295.510-1018.942  0.00  0.00     0.163 HD
BRANCH  33  35
ATOM     35  CA  ARG d  16    1039.846 296.974-1019.696  0.00  0.00     0.162 C 
BRANCH  35  36
ATOM     36  C   ARG d  16    1041.117 296.582-1020.412  0.00  0.00     0.219 C 
ATOM     37  O   ARG d  16    1041.231 295.506-1020.994  0.00  0.00    -0.287 OA
ENDBRANCH  35  36
BRANCH  35  38
ATOM     38  CB  ARG d  16    1040.114 297.291-1018.198  0.00  0.00     0.035 C 
BRANCH  38  39
ATOM     39  CG  ARG d  16    1040.939 298.580-1017.923  0.00  0.00     0.023 C 
BRANCH  39  40
ATOM     40  CD  ARG d  16    1041.188 298.798-1016.422  0.00  0.00     0.138 C 
BRANCH  40  41
ATOM     41  NE  ARG d  16    1041.964 300.057-1016.220  0.00  0.00    -0.227 N 
ATOM     42  CZ  ARG d  16    1042.355 300.538-1015.043  0.00  0.00     0.665 C 
ATOM     43  NH1 ARG d  16    1042.107 299.953-1013.906  0.00  0.00    -0.235 N 
ATOM     44  NH2 ARG d  16    1043.019 301.651-1015.024  0.00  0.00    -0.235 N 
ATOM     45 11HH ARG d  16    1041.581 299.080-1013.991  0.00  0.00     0.174 HD
ATOM     46 12HH ARG d  16    1042.441 300.388-1013.044  0.00  0.00     0.174 HD
ATOM     47 21HH ARG d  16    1043.205 302.095-1015.925  0.00  0.00     0.174 HD
ATOM     48 22HH ARG d  16    1043.308 302.006-1014.111  0.00  0.00     0.174 HD
ATOM     49  HE  ARG d  16    1042.243 300.638-1017.016  0.00  0.00     0.177 HD
ENDBRANCH  40  41
ENDBRANCH  39  40
ENDBRANCH  38  39
ENDBRANCH  35  38
ENDBRANCH  33  35
ENDBRANCH  30  31
BRANCH  30  50
ATOM     50  CB  MET d  15    1036.030 294.935-1020.724  0.00  0.00     0.045 C 
BRANCH  50  51
ATOM     51  CG  MET d  15    1034.868 293.937-1020.917  0.00  0.00     0.076 C 
BRANCH  51  52
ATOM     52  SD  MET d  15    1033.294 294.803-1020.803  0.00  0.00    -0.173 SA
ATOM     53  CE  MET d  15    1032.213 293.373-1020.668  0.00  0.00     0.089 C 
ENDBRANCH  51  52
ENDBRANCH  50  51
ENDBRANCH  30  50
ENDBRANCH  28  30
ENDBRANCH  25  26
BRANCH  25  54
ATOM     54  CB  VAL d  14    1038.474 290.264-1019.684  0.00  0.00     0.009 C 
ATOM     55  CG1 VAL d  14    1038.564 289.846-1021.177  0.00  0.00     0.012 C 
ATOM     56  CG2 VAL d  14    1038.906 289.011-1018.884  0.00  0.00     0.012 C 
ENDBRANCH  25  54
ENDBRANCH  23  25
ENDBRANCH  20  21
BRANCH  20  57
ATOM     57  CB  ARG d  13    1039.833 292.425-1014.944  0.00  0.00     0.036 C 
BRANCH  57  58
ATOM     58  CG  ARG d  13    1041.377 292.578-1014.862  0.00  0.00     0.023 C 
BRANCH  58  59
ATOM     59  CD  ARG d  13    1042.004 291.590-1013.865  0.00  0.00     0.138 C 
BRANCH  59  60
ATOM     60  NE  ARG d  13    1043.481 291.797-1013.814  0.00  0.00    -0.227 N 
ATOM     61  CZ  ARG d  13    1044.329 291.105-1013.058  0.00  0.00     0.665 C 
ATOM     62  NH1 ARG d  13    1043.963 290.140-1012.262  0.00  0.00    -0.235 N 
ATOM     63  NH2 ARG d  13    1045.588 291.404-1013.115  0.00  0.00    -0.235 N 
ATOM     64 11HH ARG d  13    1042.958 289.954-1012.266  0.00  0.00     0.174 HD
ATOM     65 12HH ARG d  13    1044.676 289.657-1011.713  0.00  0.00     0.174 HD
ATOM     66 21HH ARG d  13    1045.856 292.162-1013.745  0.00  0.00     0.174 HD
ATOM     67 22HH ARG d  13    1046.223 290.862-1012.526  0.00  0.00     0.174 HD
ATOM     68  HE  ARG d  13    1043.932 292.519-1014.384  0.00  0.00     0.177 HD
ENDBRANCH  59  60
ENDBRANCH  58  59
ENDBRANCH  57  58
ENDBRANCH  20  57
ENDBRANCH  18  20
ENDBRANCH  15  16
BRANCH  15  69
ATOM     69  CB  GLN d  12    1035.013 294.704-1014.948  0.00  0.00     0.044 C 
BRANCH  69  70
ATOM     70  CG  GLN d  12    1035.373 296.226-1014.916  0.00  0.00     0.105 C 
BRANCH  70  71
ATOM     71  CD  GLN d  12    1035.070 297.039-1013.651  0.00  0.00     0.215 C 
ATOM     72  NE2 GLN d  12    1034.503 296.462-1012.623  0.00  0.00    -0.370 N 
ATOM     73 21HE GLN d  12    1034.396 297.056-1011.799  0.00  0.00     0.159 HD
ATOM     74 22HE GLN d  12    1034.340 295.458-1012.727  0.00  0.00     0.159 HD
ATOM     75  OE1 GLN d  12    1035.372 298.220-1013.573  0.00  0.00    -0.274 OA
ENDBRANCH  70  71
ENDBRANCH  69  70
ENDBRANCH  15  69
ENDBRANCH  13  15
ENDBRANCH  10  11
BRANCH  10  76
ATOM     76  CB  VAL d  11    1033.168 290.192-1017.156  0.00  0.00     0.009 C 
ATOM     77  CG1 VAL d  11    1032.600 290.896-1018.419  0.00  0.00     0.012 C 
ATOM     78  CG2 VAL d  11    1032.644 288.738-1017.230  0.00  0.00     0.012 C 
ENDBRANCH  10  76
ENDBRANCH   8  10
ENDBRANCH   5   6
BRANCH   5  79
ATOM     79  CB  HIS d  10    1036.525 287.659-1013.911  0.00  0.00     0.095 C 
BRANCH  79  80
ATOM     80  CG  HIS d  10    1037.811 286.949-1013.602  0.00  0.00     0.053 A 
ATOM     81  CD2 HIS d  10    1038.191 286.613-1012.310  0.00  0.00     0.116 A 
ATOM     82  NE2 HIS d  10    1039.406 285.982-1012.377  0.00  0.00    -0.359 N 
ATOM     83  CE1 HIS d  10    1039.669 285.985-1013.712  0.00  0.00     0.207 A 
ATOM     84  2HE HIS d  10    1039.973 285.604-1011.603  0.00  0.00     0.166 HD
ATOM     85  ND1 HIS d  10    1038.763 286.544-1014.535  0.00  0.00    -0.247 NA
ENDBRANCH  79  80
ENDBRANCH   5  79
ENDBRANCH   3   5
BRANCH   1  86
ATOM     86  CA  GLU d   9    1034.785 291.501-1011.629  0.00  0.00     0.177 C 
BRANCH  86  87
ATOM     87  N   GLU d   9    1033.483 290.844-1011.685  0.00  0.00    -0.346 N 
ATOM     88  C   ASP d   8    1032.803 290.894-1012.780  0.00  0.00     0.241 C 
ATOM     89  O   ASP d   8    1033.276 291.499-1013.755  0.00  0.00    -0.271 OA
ATOM     90  H   GLU d   9    1033.119 290.357-1010.878  0.00  0.00     0.163 HD
BRANCH  88  91
ATOM     91  CA  ASP d   8    1031.457 290.214-1012.838  0.00  0.00     0.186 C 
BRANCH  91  92
ATOM     92  N   ASP d   8    1031.527 288.864-1012.285  0.00  0.00    -0.346 N 
ATOM     93  C   ALA d   7    1032.365 288.024-1012.792  0.00  0.00     0.240 C 
ATOM     94  O   ALA d   7    1033.083 288.386-1013.731  0.00  0.00    -0.271 OA
ATOM     95  H   ASP d   8    1030.929 288.593-1011.518  0.00  0.00     0.163 HD
BRANCH  93  96
ATOM     96  CA  ALA d   7    1032.437 286.628-1012.219  0.00  0.00     0.172 C 
ATOM     97  CB  ALA d   7    1031.234 285.757-1012.620  0.00  0.00     0.042 C 
BRANCH  96  98
ATOM     98  N   ALA d   7    1032.491 286.664-1010.761  0.00  0.00    -0.346 N 
ATOM     99  C   ILE d   6    1033.437 287.327-1010.187  0.00  0.00     0.241 C 
ATOM    100  O   ILE d   6    1034.272 287.915-1010.891  0.00  0.00    -0.271 OA
ATOM    101  H   ALA d   7    1031.799 286.176-1010.210  0.00  0.00     0.163 HD
BRANCH  99 102
ATOM    102  CA  ILE d   6    1033.494 287.365-1008.680  0.00  0.00     0.180 C 
BRANCH 102 103
ATOM    103  N   ILE d   6    1032.181 287.659-1008.113  0.00  0.00    -0.346 N 
ATOM    104  C   SER d   5    1031.576 288.743-1008.467  0.00  0.00     0.243 C 
ATOM    105  O   SER d   5    1032.124 289.496-1009.272  0.00  0.00    -0.271 OA
ATOM    106  H   ILE d   6    1031.753 287.025-1007.454  0.00  0.00     0.163 HD
BRANCH 104 107
ATOM    107  CA  SER d   5    1030.217 289.048-1007.882  0.00  0.00     0.200 C 
BRANCH 107 108
ATOM    108  N   SER d   5    1029.348 287.877-1007.940  0.00  0.00    -0.344 N 
ATOM    109  C   GLU d   4    1029.121 287.324-1009.083  0.00  0.00     0.241 C 
ATOM    110  O   GLU d   4    1029.647 287.804-1010.098  0.00  0.00    -0.271 OA
ATOM    111  H   SER d   5    1028.931 287.505-1007.099  0.00  0.00     0.163 HD
BRANCH 109 112
ATOM    112  CA  GLU d   4    1028.222 286.113-1009.144  0.00  0.00     0.177 C 
BRANCH 112 113
ATOM    113  N   GLU d   4    1028.581 285.142-1008.115  0.00  0.00    -0.346 N 
ATOM    114  C   PRO d   3    1029.786 284.682-1008.082  0.00  0.00     0.241 C 
ATOM    115  O   PRO d   3    1030.610 285.065-1008.914  0.00  0.00    -0.271 OA
ATOM    116  H   GLU d   4    1027.897 284.835-1007.438  0.00  0.00     0.163 HD
BRANCH 114 117
ATOM    117  CA  PRO d   3    1030.184 283.659-1007.005  0.00  0.00     0.179 C 
ATOM    118  N   PRO d   3    1029.733 284.068-1005.684  0.00  0.00    -0.337 N 
ATOM    119  C   ASN d   2    1030.254 285.063-1005.050  0.00  0.00     0.243 C 
ATOM    120  CD  PRO d   3    1028.655 283.275-1005.135  0.00  0.00     0.127 C 
ATOM    121  O   ASN d   2    1031.169 285.693-1005.579  0.00  0.00    -0.271 OA
ATOM    122  CG  PRO d   3    1028.197 282.456-1006.344  0.00  0.00     0.022 C 
ATOM    123  CB  PRO d   3    1029.480 282.304-1007.175  0.00  0.00     0.037 C 
BRANCH 119 124
ATOM    124  CA  ASN d   2    1029.723 285.418-1003.681  0.00  0.00     0.185 C 
BRANCH 124 125
ATOM    125  N   ASN d   2    1028.264 285.457-1003.681  0.00  0.00    -0.346 N 
ATOM    126  C   GLU d   1    1027.659 286.243-1004.506  0.00  0.00     0.242 C 
ATOM    127  O   GLU d   1    1028.335 286.942-1005.275  0.00  0.00    -0.271 OA
ATOM    128  H   ASN d   2    1027.736 284.877-1003.045  0.00  0.00     0.163 HD
BRANCH 126 129
ATOM    129  CA  GLU d   1    1026.150 286.283-1004.506  0.00  0.00     0.191 C 
BRANCH 129 130
ATOM    130  N   GLU d   1    1025.591 284.934-1004.506  0.00  0.00    -0.326 NA
ATOM    131  H   GLU d   1    1026.218 284.055-1004.506  0.00  0.00     0.180 HD
ENDBRANCH 129 130
BRANCH 129 132
ATOM    132  CB  GLU d   1    1025.627 287.068-1003.269  0.00  0.00     0.047 C 
BRANCH 132 133
ATOM    133  CG  GLU d   1    1026.102 288.553-1003.158  0.00  0.00     0.116 C 
BRANCH 133 134
ATOM    134  CD  GLU d   1    1025.678 289.357-1001.943  0.00  0.00     0.172 C 
ATOM    135  OE1 GLU d   1    1024.950 288.855-1001.065  0.00  0.00    -0.648 OA
ATOM    136  OE2 GLU d   1    1026.108 290.527-1001.871  0.00  0.00    -0.648 OA
ENDBRANCH 133 134
ENDBRANCH 132 133
ENDBRANCH 129 132
ENDBRANCH 126 129
ENDBRANCH 124 125
BRANCH 124 137
ATOM    137  CB  ASN d   2    1030.215 284.396-1002.617  0.00  0.00     0.137 C 
BRANCH 137 138
ATOM    138  CG  ASN d   2    1029.752 284.619-1001.174  0.00  0.00     0.217 C 
ATOM    139  ND2 ASN d   2    1030.346 285.534-1000.455  0.00  0.00    -0.370 N 
ATOM    140 21HD ASN d   2    1029.866 285.707-999.569  0.00  0.00     0.159 HD
ATOM    141 22HD ASN d   2    1031.048 286.106-1000.925  0.00  0.00     0.159 HD
ATOM    142  OD1 ASN d   2    1028.831 283.986-1000.679  0.00  0.00    -0.274 OA
ENDBRANCH 137 138
ENDBRANCH 124 137
ENDBRANCH 119 124
ENDBRANCH 114 117
ENDBRANCH 112 113
BRANCH 112 143
ATOM    143  CB  GLU d   4    1026.733 286.531-1008.974  0.00  0.00     0.045 C 
BRANCH 143 144
ATOM    144  CG  GLU d   4    1026.185 287.535-1010.040  0.00  0.00     0.116 C 
BRANCH 144 145
ATOM    145  CD  GLU d   4    1024.758 288.032-1009.896  0.00  0.00     0.172 C 
ATOM    146  OE1 GLU d   4    1024.032 287.633-1008.965  0.00  0.00    -0.648 OA
ATOM    147  OE2 GLU d   4    1024.369 288.861-1010.745  0.00  0.00    -0.648 OA
ENDBRANCH 144 145
ENDBRANCH 143 144
ENDBRANCH 112 143
ENDBRANCH 109 112
ENDBRANCH 107 108
BRANCH 107 148
ATOM    148  CB  SER d   5    1030.329 289.580-1006.431  0.00  0.00     0.199 C 
BRANCH 148 149
ATOM    149  OG  SER d   5    1031.061 288.701-1005.570  0.00  0.00    -0.398 OA
ATOM    150  HG  SER d   5    1030.572 287.876-1005.519  0.00  0.00     0.209 HD
ENDBRANCH 148 149
ENDBRANCH 107 148
ENDBRANCH 104 107
ENDBRANCH 102 103
BRANCH 102 151
ATOM    151  CB  ILE d   6    1034.094 286.028-1008.079  0.00  0.00     0.013 C 
ATOM    152  CG2 ILE d   6    1035.535 285.726-1008.595  0.00  0.00     0.012 C 
BRANCH 151 153
ATOM    153  CG1 ILE d   6    1034.113 285.966-1006.518  0.00  0.00     0.002 C 
ATOM    154  CD1 ILE d   6    1034.383 284.577-1005.904  0.00  0.00     0.005 C 
ENDBRANCH 151 153
ENDBRANCH 102 151
ENDBRANCH  99 102
ENDBRANCH  96  98
ENDBRANCH  93  96
ENDBRANCH  91  92
BRANCH  91 155
ATOM    155  CB  ASP d   8    1030.378 291.052-1012.096  0.00  0.00     0.147 C 
BRANCH 155 156
ATOM    156  CG  ASP d   8    1030.159 292.473-1012.636  0.00  0.00     0.175 C 
ATOM    157  OD1 ASP d   8    1030.224 292.673-1013.867  0.00  0.00    -0.648 OA
ATOM    158  OD2 ASP d   8    1029.967 293.399-1011.820  0.00  0.00    -0.648 OA
ENDBRANCH 155 156
ENDBRANCH  91 155
ENDBRANCH  88  91
ENDBRANCH  86  87
BRANCH  86 159
ATOM    159  CB  GLU d   9    1035.418 291.293-1010.224  0.00  0.00     0.045 C 
BRANCH 159 160
ATOM    160  CG  GLU d   9    1036.801 291.986-1009.993  0.00  0.00     0.116 C 
BRANCH 160 161
ATOM    161  CD  GLU d   9    1037.502 291.772-1008.665  0.00  0.00     0.172 C 
ATOM    162  OE1 GLU d   9    1036.981 291.081-1007.769  0.00  0.00    -0.648 OA
ATOM    163  OE2 GLU d   9    1038.621 292.310-1008.533  0.00  0.00    -0.648 OA
ENDBRANCH 160 161
ENDBRANCH 159 160
ENDBRANCH  86 159
ENDBRANCH   1  86
TORSDOF 66
