REMARK WARNING: 32 MAX_TORS EXCEEDED!!!
REMARK  68 active torsions:
REMARK  status: ('A' for Active; 'I' for Inactive)
REMARK    1  A    between atoms: N_1  and  CA_2 
REMARK    2  A    between atoms: CA_2  and  C_3 
REMARK    3  A    between atoms: CA_2  and  CB_5 
REMARK       I    between atoms: C_3  and  N_11 
REMARK    4  A    between atoms: CB_5  and  CG_6 
REMARK    5  A    between atoms: CG_6  and  CD_7 
REMARK    6  A    between atoms: N_11  and  CA_12 
REMARK    7  A    between atoms: CA_12  and  C_13 
REMARK    8  A    between atoms: CA_12  and  CB_15 
REMARK       I    between atoms: C_13  and  N_22 
REMARK    9  A    between atoms: CB_15  and  CG_16 
REMARK       I    between atoms: CG_16  and  ND2_17 
REMARK   10  A    between atoms: CA_23  and  C_24 
REMARK       I    between atoms: C_24  and  N_29 
REMARK   11  A    between atoms: N_29  and  CA_30 
REMARK   12  A    between atoms: CA_30  and  C_31 
REMARK   13  A    between atoms: CA_30  and  CB_33 
REMARK       I    between atoms: C_31  and  N_39 
REMARK   14  A    between atoms: CB_33  and  CG_34 
REMARK   15  A    between atoms: CG_34  and  CD_35 
REMARK   16  A    between atoms: N_39  and  CA_40 
REMARK   17  A    between atoms: CA_40  and  C_41 
REMARK   18  A    between atoms: CA_40  and  CB_43 
REMARK       I    between atoms: C_41  and  N_47 
REMARK   19  A    between atoms: CB_43  and  OG_44 
REMARK   20  A    between atoms: N_47  and  CA_48 
REMARK   21  A    between atoms: CA_48  and  C_49 
REMARK   22  A    between atoms: CA_48  and  CB_51 
REMARK       I    between atoms: C_49  and  N_56 
REMARK   23  A    between atoms: CB_51  and  CG1_52 
REMARK   24  A    between atoms: N_56  and  CA_57 
REMARK   25  A    between atoms: CA_57  and  C_58 
REMARK   26  A    between atoms: CA_57  and  CB_60 
REMARK       I    between atoms: C_58  and  N_65 
REMARK   27  A    between atoms: CB_60  and  CG_61 
REMARK   28  A    between atoms: N_65  and  CA_66 
REMARK   29  A    between atoms: CA_66  and  C_67 
REMARK   30  A    between atoms: CA_66  and  CB_69 
REMARK       I    between atoms: C_67  and  N_74 
REMARK   31  A    between atoms: CB_69  and  CG_70 
REMARK   32  A    between atoms: N_74  and  CA_75 
REMARK   33  A    between atoms: CA_75  and  C_76 
REMARK   34  A    between atoms: CA_75  and  CB_78 
REMARK       I    between atoms: C_76  and  N_84 
REMARK   35  A    between atoms: CB_78  and  CG_79 
REMARK   36  A    between atoms: CG_79  and  CD_80 
REMARK   37  A    between atoms: N_84  and  CA_85 
REMARK   38  A    between atoms: CA_85  and  C_86 
REMARK   39  A    between atoms: CA_85  and  CB_88 
REMARK       I    between atoms: C_86  and  N_96 
REMARK   40  A    between atoms: CB_88  and  CG_89 
REMARK   41  A    between atoms: N_96  and  CA_97 
REMARK   42  A    between atoms: CA_97  and  C_98 
REMARK   43  A    between atoms: CA_97  and  CB_100 
REMARK       I    between atoms: C_98  and  N_104 
REMARK   44  A    between atoms: N_104  and  CA_105 
REMARK   45  A    between atoms: CA_105  and  C_106 
REMARK   46  A    between atoms: CA_105  and  CB_108 
REMARK       I    between atoms: C_106  and  N_116 
REMARK   47  A    between atoms: CB_108  and  CG_109 
REMARK   48  A    between atoms: CG_109  and  CD_110 
REMARK       I    between atoms: CD_110  and  NE2_111 
REMARK   49  A    between atoms: N_116  and  CA_117 
REMARK   50  A    between atoms: CA_117  and  C_118 
REMARK   51  A    between atoms: CA_117  and  CB_120 
REMARK       I    between atoms: C_118  and  N_133 
REMARK   52  A    between atoms: CB_120  and  CG_121 
REMARK   53  A    between atoms: CG_121  and  CD_122 
REMARK   54  A    between atoms: CD_122  and  NE_123 
REMARK       I    between atoms: NE_123  and  CZ_124 
REMARK       I    between atoms: CZ_124  and  NH1_125 
REMARK       I    between atoms: CZ_124  and  NH2_126 
REMARK   55  A    between atoms: N_133  and  CA_134 
REMARK   56  A    between atoms: CA_134  and  C_135 
REMARK   57  A    between atoms: CA_134  and  CB_137 
REMARK       I    between atoms: C_135  and  N_141 
REMARK   58  A    between atoms: N_141  and  CA_142 
REMARK   59  A    between atoms: CA_142  and  C_143 
REMARK   60  A    between atoms: CA_142  and  CB_145 
REMARK       I    between atoms: C_143  and  N_150 
REMARK   61  A    between atoms: CB_145  and  CG_146 
REMARK   62  A    between atoms: CG_146  and  SD_147 
REMARK   63  A    between atoms: N_150  and  CA_151 
REMARK   64  A    between atoms: CA_151  and  C_152 
REMARK   65  A    between atoms: CA_151  and  CB_154 
REMARK   66  A    between atoms: CB_154  and  CG_155 
REMARK   67  A    between atoms: CG_155  and  CD_156 
REMARK   68  A    between atoms: CD_156  and  NE_157 
REMARK       I    between atoms: NE_157  and  CZ_158 
REMARK       I    between atoms: CZ_158  and  NH1_159 
ROOT
ATOM      1  C   GLU d   9    2170.014 664.199-2248.182  0.00  0.00     0.241 C 
ATOM      2  O   GLU d   9    2170.678 664.952-2248.908  0.00  0.00    -0.271 OA
ATOM      3  N   HIS d  10    2170.110 662.923-2248.351  0.00  0.00    -0.346 N 
ATOM      4  H   HIS d  10    2169.579 662.288-2247.772  0.00  0.00     0.163 HD
ENDROOT
BRANCH   1   5
ATOM      5  CA  GLU d   9    2169.096 664.727-2247.106  0.00  0.00     0.177 C 
BRANCH   5   6
ATOM      6  N   GLU d   9    2167.793 664.070-2247.161  0.00  0.00    -0.346 N 
ATOM      7  C   ASP d   8    2167.113 664.120-2248.256  0.00  0.00     0.241 C 
ATOM      8  O   ASP d   8    2167.586 664.724-2249.231  0.00  0.00    -0.271 OA
ATOM      9  H   GLU d   9    2167.430 663.585-2246.354  0.00  0.00     0.163 HD
BRANCH   7  10
ATOM     10  CA  ASP d   8    2165.766 663.441-2248.313  0.00  0.00     0.186 C 
BRANCH  10  11
ATOM     11  N   ASP d   8    2165.836 662.092-2247.759  0.00  0.00    -0.346 N 
ATOM     12  C   LEU d   7    2166.673 661.250-2248.265  0.00  0.00     0.241 C 
ATOM     13  O   LEU d   7    2167.394 661.612-2249.207  0.00  0.00    -0.271 OA
ATOM     14  H   ASP d   8    2165.238 661.821-2246.991  0.00  0.00     0.163 HD
BRANCH  12  15
ATOM     15  CA  LEU d   7    2166.745 659.855-2247.692  0.00  0.00     0.177 C 
BRANCH  15  16
ATOM     16  N   LEU d   7    2166.800 659.891-2246.233  0.00  0.00    -0.346 N 
ATOM     17  C   ILE d   6    2167.746 660.554-2245.660  0.00  0.00     0.241 C 
ATOM     18  O   ILE d   6    2168.581 661.142-2246.364  0.00  0.00    -0.271 OA
ATOM     19  H   LEU d   7    2166.108 659.404-2245.682  0.00  0.00     0.163 HD
BRANCH  17  20
ATOM     20  CA  ILE d   6    2167.803 660.592-2244.152  0.00  0.00     0.180 C 
BRANCH  20  21
ATOM     21  N   ILE d   6    2166.490 660.887-2243.586  0.00  0.00    -0.346 N 
ATOM     22  C   SER d   5    2165.885 661.971-2243.940  0.00  0.00     0.243 C 
ATOM     23  O   SER d   5    2166.433 662.724-2244.745  0.00  0.00    -0.271 OA
ATOM     24  H   ILE d   6    2166.061 660.253-2242.927  0.00  0.00     0.163 HD
BRANCH  22  25
ATOM     25  CA  SER d   5    2164.527 662.277-2243.355  0.00  0.00     0.200 C 
BRANCH  25  26
ATOM     26  N   SER d   5    2163.657 661.106-2243.414  0.00  0.00    -0.344 N 
ATOM     27  C   GLU d   4    2163.430 660.553-2244.557  0.00  0.00     0.241 C 
ATOM     28  O   GLU d   4    2163.957 661.033-2245.572  0.00  0.00    -0.271 OA
ATOM     29  H   SER d   5    2163.239 660.734-2242.573  0.00  0.00     0.163 HD
BRANCH  27  30
ATOM     30  CA  GLU d   4    2162.531 659.342-2244.619  0.00  0.00     0.177 C 
BRANCH  30  31
ATOM     31  N   GLU d   4    2162.890 658.371-2243.589  0.00  0.00    -0.346 N 
ATOM     32  C   PRO d   3    2164.094 657.911-2243.556  0.00  0.00     0.241 C 
ATOM     33  O   PRO d   3    2164.918 658.294-2244.388  0.00  0.00    -0.271 OA
ATOM     34  H   GLU d   4    2162.205 658.065-2242.913  0.00  0.00     0.163 HD
BRANCH  32  35
ATOM     35  CA  PRO d   3    2164.492 656.888-2242.479  0.00  0.00     0.179 C 
ATOM     36  N   PRO d   3    2164.040 657.297-2241.158  0.00  0.00    -0.337 N 
ATOM     37  C   ASN d   2    2164.562 658.292-2240.524  0.00  0.00     0.243 C 
ATOM     38  CD  PRO d   3    2162.962 656.504-2240.609  0.00  0.00     0.127 C 
ATOM     39  O   ASN d   2    2165.477 658.922-2241.052  0.00  0.00    -0.271 OA
ATOM     40  CG  PRO d   3    2162.504 655.685-2241.819  0.00  0.00     0.022 C 
ATOM     41  CB  PRO d   3    2163.788 655.533-2242.649  0.00  0.00     0.037 C 
BRANCH  37  42
ATOM     42  CA  ASN d   2    2164.030 658.647-2239.155  0.00  0.00     0.185 C 
BRANCH  42  43
ATOM     43  N   ASN d   2    2162.571 658.686-2239.155  0.00  0.00    -0.346 N 
ATOM     44  C   GLU d   1    2161.966 659.472-2239.980  0.00  0.00     0.242 C 
ATOM     45  O   GLU d   1    2162.642 660.171-2240.749  0.00  0.00    -0.271 OA
ATOM     46  H   ASN d   2    2162.042 658.107-2238.519  0.00  0.00     0.163 HD
BRANCH  44  47
ATOM     47  CA  GLU d   1    2160.457 659.512-2239.980  0.00  0.00     0.191 C 
BRANCH  47  48
ATOM     48  N   GLU d   1    2159.898 658.163-2239.980  0.00  0.00    -0.326 NA
ATOM     49  H   GLU d   1    2160.525 657.284-2239.980  0.00  0.00     0.180 HD
ENDBRANCH  47  48
BRANCH  47  50
ATOM     50  CB  GLU d   1    2159.934 660.297-2238.744  0.00  0.00     0.047 C 
BRANCH  50  51
ATOM     51  CG  GLU d   1    2160.409 661.782-2238.633  0.00  0.00     0.116 C 
BRANCH  51  52
ATOM     52  CD  GLU d   1    2159.985 662.586-2237.417  0.00  0.00     0.172 C 
ATOM     53  OE1 GLU d   1    2159.257 662.084-2236.540  0.00  0.00    -0.648 OA
ATOM     54  OE2 GLU d   1    2160.415 663.756-2237.345  0.00  0.00    -0.648 OA
ENDBRANCH  51  52
ENDBRANCH  50  51
ENDBRANCH  47  50
ENDBRANCH  44  47
ENDBRANCH  42  43
BRANCH  42  55
ATOM     55  CB  ASN d   2    2164.522 657.624-2238.091  0.00  0.00     0.137 C 
BRANCH  55  56
ATOM     56  CG  ASN d   2    2164.058 657.848-2236.647  0.00  0.00     0.217 C 
ATOM     57  ND2 ASN d   2    2164.652 658.763-2235.929  0.00  0.00    -0.370 N 
ATOM     58 21HD ASN d   2    2164.171 658.936-2235.043  0.00  0.00     0.159 HD
ATOM     59 22HD ASN d   2    2165.354 659.335-2236.398  0.00  0.00     0.159 HD
ATOM     60  OD1 ASN d   2    2163.137 657.215-2236.153  0.00  0.00    -0.274 OA
ENDBRANCH  55  56
ENDBRANCH  42  55
ENDBRANCH  37  42
ENDBRANCH  32  35
ENDBRANCH  30  31
BRANCH  30  61
ATOM     61  CB  GLU d   4    2161.042 659.762-2244.449  0.00  0.00     0.045 C 
BRANCH  61  62
ATOM     62  CG  GLU d   4    2160.495 660.765-2245.515  0.00  0.00     0.116 C 
BRANCH  62  63
ATOM     63  CD  GLU d   4    2159.068 661.262-2245.372  0.00  0.00     0.172 C 
ATOM     64  OE1 GLU d   4    2158.341 660.864-2244.441  0.00  0.00    -0.648 OA
ATOM     65  OE2 GLU d   4    2158.679 662.092-2246.220  0.00  0.00    -0.648 OA
ENDBRANCH  62  63
ENDBRANCH  61  62
ENDBRANCH  30  61
ENDBRANCH  27  30
ENDBRANCH  25  26
BRANCH  25  66
ATOM     66  CB  SER d   5    2164.638 662.809-2241.905  0.00  0.00     0.199 C 
BRANCH  66  67
ATOM     67  OG  SER d   5    2165.369 661.929-2241.044  0.00  0.00    -0.398 OA
ATOM     68  HG  SER d   5    2164.880 661.105-2240.993  0.00  0.00     0.209 HD
ENDBRANCH  66  67
ENDBRANCH  25  66
ENDBRANCH  22  25
ENDBRANCH  20  21
BRANCH  20  69
ATOM     69  CB  ILE d   6    2168.402 659.256-2243.552  0.00  0.00     0.013 C 
ATOM     70  CG2 ILE d   6    2169.843 658.953-2244.067  0.00  0.00     0.012 C 
BRANCH  69  71
ATOM     71  CG1 ILE d   6    2168.421 659.193-2241.991  0.00  0.00     0.002 C 
ATOM     72  CD1 ILE d   6    2168.690 657.804-2241.376  0.00  0.00     0.005 C 
ENDBRANCH  69  71
ENDBRANCH  20  69
ENDBRANCH  17  20
ENDBRANCH  15  16
BRANCH  15  73
ATOM     73  CB  LEU d   7    2165.542 658.995-2248.172  0.00  0.00     0.038 C 
BRANCH  73  74
ATOM     74  CG  LEU d   7    2165.468 657.516-2247.706  0.00  0.00    -0.020 C 
ATOM     75  CD1 LEU d   7    2164.278 656.810-2248.371  0.00  0.00     0.009 C 
ATOM     76  CD2 LEU d   7    2166.762 656.736-2247.997  0.00  0.00     0.009 C 
ENDBRANCH  73  74
ENDBRANCH  15  73
ENDBRANCH  12  15
ENDBRANCH  10  11
BRANCH  10  77
ATOM     77  CB  ASP d   8    2164.688 664.281-2247.572  0.00  0.00     0.147 C 
BRANCH  77  78
ATOM     78  CG  ASP d   8    2164.470 665.701-2248.113  0.00  0.00     0.175 C 
ATOM     79  OD1 ASP d   8    2164.535 665.900-2249.344  0.00  0.00    -0.648 OA
ATOM     80  OD2 ASP d   8    2164.279 666.628-2247.299  0.00  0.00    -0.648 OA
ENDBRANCH  77  78
ENDBRANCH  10  77
ENDBRANCH   7  10
ENDBRANCH   5   6
BRANCH   5  81
ATOM     81  CB  GLU d   9    2169.730 664.520-2245.701  0.00  0.00     0.045 C 
BRANCH  81  82
ATOM     82  CG  GLU d   9    2171.113 665.212-2245.472  0.00  0.00     0.116 C 
BRANCH  82  83
ATOM     83  CD  GLU d   9    2171.815 664.999-2244.144  0.00  0.00     0.172 C 
ATOM     84  OE1 GLU d   9    2171.293 664.309-2243.247  0.00  0.00    -0.648 OA
ATOM     85  OE2 GLU d   9    2172.934 665.536-2244.013  0.00  0.00    -0.648 OA
ENDBRANCH  82  83
ENDBRANCH  81  82
ENDBRANCH   5  81
ENDBRANCH   1   5
BRANCH   3  86
ATOM     86  CA  HIS d  10    2170.997 662.411-2249.392  0.00  0.00     0.182 C 
BRANCH  86  87
ATOM     87  C   HIS d  10    2170.630 662.975-2250.743  0.00  0.00     0.241 C 
ATOM     88  O   HIS d  10    2171.483 663.439-2251.515  0.00  0.00    -0.271 OA
ATOM     89  N   VAL d  11    2169.392 662.975-2251.106  0.00  0.00    -0.346 N 
ATOM     90  H   VAL d  11    2168.679 662.603-2250.495  0.00  0.00     0.163 HD
BRANCH  89  91
ATOM     91  CA  VAL d  11    2169.037 663.520-2252.413  0.00  0.00     0.180 C 
BRANCH  91  92
ATOM     92  C   VAL d  11    2169.502 664.951-2252.546  0.00  0.00     0.241 C 
ATOM     93  O   VAL d  11    2170.104 665.355-2253.549  0.00  0.00    -0.271 OA
ATOM     94  N   GLN d  12    2169.266 665.777-2251.584  0.00  0.00    -0.346 N 
ATOM     95  H   GLN d  12    2168.777 665.471-2250.755  0.00  0.00     0.163 HD
BRANCH  94  96
ATOM     96  CA  GLN d  12    2169.715 667.159-2251.712  0.00  0.00     0.177 C 
BRANCH  96  97
ATOM     97  C   GLN d  12    2171.205 667.226-2251.950  0.00  0.00     0.241 C 
ATOM     98  O   GLN d  12    2171.692 667.933-2252.829  0.00  0.00    -0.271 OA
ATOM     99  N   ARG d  13    2171.990 666.519-2251.209  0.00  0.00    -0.346 N 
ATOM    100  H   ARG d  13    2171.613 665.930-2250.480  0.00  0.00     0.163 HD
BRANCH  99 101
ATOM    101  CA  ARG d  13    2173.430 666.584-2251.440  0.00  0.00     0.176 C 
BRANCH 101 102
ATOM    102  C   ARG d  13    2173.766 666.212-2252.865  0.00  0.00     0.241 C 
ATOM    103  O   ARG d  13    2174.534 666.883-2253.550  0.00  0.00    -0.271 OA
ATOM    104  N   VAL d  14    2173.229 665.157-2253.379  0.00  0.00    -0.346 N 
ATOM    105  H   VAL d  14    2172.594 664.589-2252.836  0.00  0.00     0.163 HD
BRANCH 104 106
ATOM    106  CA  VAL d  14    2173.553 664.797-2254.756  0.00  0.00     0.180 C 
BRANCH 106 107
ATOM    107  C   VAL d  14    2173.224 665.927-2255.702  0.00  0.00     0.241 C 
ATOM    108  O   VAL d  14    2174.017 666.308-2256.572  0.00  0.00    -0.271 OA
ATOM    109  N   MET d  15    2172.079 666.513-2255.600  0.00  0.00    -0.346 N 
ATOM    110  H   MET d  15    2171.414 666.220-2254.899  0.00  0.00     0.163 HD
BRANCH 109 111
ATOM    111  CA  MET d  15    2171.759 667.605-2256.514  0.00  0.00     0.177 C 
BRANCH 111 112
ATOM    112  C   MET d  15    2172.789 668.705-2256.427  0.00  0.00     0.241 C 
ATOM    113  O   MET d  15    2173.292 669.215-2257.440  0.00  0.00    -0.271 OA
ATOM    114  N   ARG d  16    2173.158 669.127-2255.265  0.00  0.00    -0.347 N 
ATOM    115  H   ARG d  16    2172.763 668.727-2254.426  0.00  0.00     0.163 HD
BRANCH 114 116
ATOM    116  CA  ARG d  16    2174.155 670.190-2255.182  0.00  0.00     0.162 C 
BRANCH 116 117
ATOM    117  C   ARG d  16    2175.425 669.797-2255.898  0.00  0.00     0.219 C 
ATOM    118  O   ARG d  16    2175.539 668.721-2256.479  0.00  0.00    -0.287 OA
ENDBRANCH 116 117
BRANCH 116 119
ATOM    119  CB  ARG d  16    2174.424 670.509-2253.684  0.00  0.00     0.035 C 
BRANCH 119 120
ATOM    120  CG  ARG d  16    2175.249 671.798-2253.411  0.00  0.00     0.023 C 
BRANCH 120 121
ATOM    121  CD  ARG d  16    2175.499 672.018-2251.910  0.00  0.00     0.138 C 
BRANCH 121 122
ATOM    122  NE  ARG d  16    2176.275 673.277-2251.710  0.00  0.00    -0.227 N 
ATOM    123  CZ  ARG d  16    2176.667 673.759-2250.534  0.00  0.00     0.665 C 
ATOM    124  NH1 ARG d  16    2176.419 673.176-2249.396  0.00  0.00    -0.235 N 
ATOM    125  NH2 ARG d  16    2177.331 674.872-2250.517  0.00  0.00    -0.235 N 
ATOM    126 11HH ARG d  16    2175.894 672.302-2249.480  0.00  0.00     0.174 HD
ATOM    127 12HH ARG d  16    2176.754 673.611-2248.535  0.00  0.00     0.174 HD
ATOM    128 21HH ARG d  16    2177.516 675.315-2251.418  0.00  0.00     0.174 HD
ATOM    129 22HH ARG d  16    2177.621 675.228-2249.604  0.00  0.00     0.174 HD
ATOM    130  HE  ARG d  16    2176.554 673.857-2252.507  0.00  0.00     0.177 HD
ENDBRANCH 121 122
ENDBRANCH 120 121
ENDBRANCH 119 120
ENDBRANCH 116 119
ENDBRANCH 114 116
ENDBRANCH 111 112
BRANCH 111 131
ATOM    131  CB  MET d  15    2170.337 668.151-2256.205  0.00  0.00     0.045 C 
BRANCH 131 132
ATOM    132  CG  MET d  15    2169.175 667.153-2256.396  0.00  0.00     0.076 C 
BRANCH 132 133
ATOM    133  SD  MET d  15    2167.601 668.019-2256.282  0.00  0.00    -0.173 SA
ATOM    134  CE  MET d  15    2166.520 666.590-2256.145  0.00  0.00     0.089 C 
ENDBRANCH 132 133
ENDBRANCH 131 132
ENDBRANCH 111 131
ENDBRANCH 109 111
ENDBRANCH 106 107
BRANCH 106 135
ATOM    135  CB  VAL d  14    2172.781 663.480-2255.162  0.00  0.00     0.009 C 
ATOM    136  CG1 VAL d  14    2172.869 663.061-2256.656  0.00  0.00     0.012 C 
ATOM    137  CG2 VAL d  14    2173.212 662.228-2254.361  0.00  0.00     0.012 C 
ENDBRANCH 106 135
ENDBRANCH 104 106
ENDBRANCH 101 102
BRANCH 101 138
ATOM    138  CB  ARG d  13    2174.143 665.646-2250.426  0.00  0.00     0.036 C 
BRANCH 138 139
ATOM    139  CG  ARG d  13    2175.688 665.799-2250.345  0.00  0.00     0.023 C 
BRANCH 139 140
ATOM    140  CD  ARG d  13    2176.315 664.812-2249.347  0.00  0.00     0.138 C 
BRANCH 140 141
ATOM    141  NE  ARG d  13    2177.792 665.018-2249.297  0.00  0.00    -0.227 N 
ATOM    142  CZ  ARG d  13    2178.641 664.327-2248.542  0.00  0.00     0.665 C 
ATOM    143  NH1 ARG d  13    2178.276 663.364-2247.743  0.00  0.00    -0.235 N 
ATOM    144  NH2 ARG d  13    2179.900 664.626-2248.599  0.00  0.00    -0.235 N 
ATOM    145 11HH ARG d  13    2177.270 663.178-2247.746  0.00  0.00     0.174 HD
ATOM    146 12HH ARG d  13    2178.989 662.881-2247.195  0.00  0.00     0.174 HD
ATOM    147 21HH ARG d  13    2180.168 665.383-2249.231  0.00  0.00     0.174 HD
ATOM    148 22HH ARG d  13    2180.536 664.084-2248.010  0.00  0.00     0.174 HD
ATOM    149  HE  ARG d  13    2178.244 665.740-2249.869  0.00  0.00     0.177 HD
ENDBRANCH 140 141
ENDBRANCH 139 140
ENDBRANCH 138 139
ENDBRANCH 101 138
ENDBRANCH  99 101
ENDBRANCH  96  97
BRANCH  96 150
ATOM    150  CB  GLN d  12    2169.325 667.928-2250.430  0.00  0.00     0.044 C 
BRANCH 150 151
ATOM    151  CG  GLN d  12    2169.686 669.449-2250.399  0.00  0.00     0.105 C 
BRANCH 151 152
ATOM    152  CD  GLN d  12    2169.385 670.264-2249.135  0.00  0.00     0.215 C 
ATOM    153  NE2 GLN d  12    2168.818 669.688-2248.106  0.00  0.00    -0.370 N 
ATOM    154 21HE GLN d  12    2168.711 670.283-2247.282  0.00  0.00     0.159 HD
ATOM    155 22HE GLN d  12    2168.653 668.685-2248.208  0.00  0.00     0.159 HD
ATOM    156  OE1 GLN d  12    2169.687 671.445-2249.058  0.00  0.00    -0.274 OA
ENDBRANCH 151 152
ENDBRANCH 150 151
ENDBRANCH  96 150
ENDBRANCH  94  96
ENDBRANCH  91  92
BRANCH  91 157
ATOM    157  CB  VAL d  11    2167.476 663.414-2252.632  0.00  0.00     0.009 C 
ATOM    158  CG1 VAL d  11    2166.907 664.118-2253.895  0.00  0.00     0.012 C 
ATOM    159  CG2 VAL d  11    2166.951 661.960-2252.704  0.00  0.00     0.012 C 
ENDBRANCH  91 157
ENDBRANCH  89  91
ENDBRANCH  86  87
BRANCH  86 160
ATOM    160  CB  HIS d  10    2170.833 660.882-2249.386  0.00  0.00     0.095 C 
BRANCH 160 161
ATOM    161  CG  HIS d  10    2172.118 660.171-2249.078  0.00  0.00     0.053 A 
ATOM    162  CD2 HIS d  10    2172.499 659.837-2247.785  0.00  0.00     0.116 A 
ATOM    163  NE2 HIS d  10    2173.714 659.205-2247.852  0.00  0.00    -0.359 N 
ATOM    164  CE1 HIS d  10    2173.976 659.207-2249.187  0.00  0.00     0.207 A 
ATOM    165  2HE HIS d  10    2174.281 658.828-2247.079  0.00  0.00     0.166 HD
ATOM    166  ND1 HIS d  10    2173.069 659.765-2250.010  0.00  0.00    -0.247 NA
ENDBRANCH 160 161
ENDBRANCH  86 160
ENDBRANCH   3  86
TORSDOF 68
