@<TRIPOS>MOLECULE
15-15
262 263 16              
SMALL
USER_CHARGES
@<TRIPOS>ATOM
1	   N	2448.890	750.969	-2551.039	N.3	1	GLU1	-0.516	
2	  CA	2449.449	752.318	-2551.039	C.3	1	GLU1	0.040	
3	   C	2450.958	752.278	-2551.039	C.2	1	GLU1	0.537	
4	   O	2451.634	752.977	-2551.808	O.2	1	GLU1	-0.582	
5	  CB	2448.926	753.103	-2549.802	C.3	1	GLU1	0.056	
6	  CG	2449.401	754.588	-2549.691	C.3	1	GLU1	0.014	
7	  CD	2448.977	755.392	-2548.476	C.2	1	GLU1	0.805	
8	 OE1	2448.249	754.890	-2547.598	O.co2	1	GLU1	-0.819	
9	 OE2	2449.407	756.562	-2548.404	O.co2	1	GLU1	-0.819	
10	   H	2449.517	750.090	-2551.039	 H	1	GLU1	0.294	
11	  HA	2449.123	752.836	-2551.959	 H	1	GLU1	0.111	
12	 2HB	2449.215	752.572	-2548.872	 H	1	GLU1	-0.017	
13	 3HB	2447.819	753.093	-2549.789	 H	1	GLU1	-0.017	
14	 2HG	2449.091	755.173	-2550.572	 H	1	GLU1	-0.043	
15	 3HG	2450.501	754.655	-2549.662	 H	1	GLU1	-0.043	
16	   N	2451.563	751.492	-2550.214	N.am	2	ASN2	-0.416	
17	  CA	2453.022	751.453	-2550.214	C.3	2	ASN2	0.014	
18	   C	2453.554	751.098	-2551.582	C.2	2	ASN2	0.597	
19	   O	2454.469	751.728	-2552.110	O.2	2	ASN2	-0.568	
20	  CB	2453.514	750.430	-2549.149	C.3	2	ASN2	-0.204	
21	  CG	2453.051	750.654	-2547.706	C.2	2	ASN2	0.713	
22	 ND2	2453.645	751.569	-2546.988	N.pl3	2	ASN2	-0.919	
23	 OD1	2452.129	750.021	-2547.212	O.2	2	ASN2	-0.593	
24	   H	2451.035	750.913	-2549.577	 H	2	ASN2	0.272	
25	  HA	2453.400	752.463	-2549.968	 H	2	ASN2	0.105	
26	 2HB	2454.618	750.371	-2549.152	 H	2	ASN2	0.080	
27	 3HB	2453.185	749.412	-2549.435	 H	2	ASN2	0.080	
28	1HD2	2453.164	751.742	-2546.101	 H	2	ASN2	0.420	
29	2HD2	2454.346	752.141	-2547.457	 H	2	ASN2	0.420	
30	   N	2453.032	750.103	-2552.217	N.am	3	PRO3	-0.255	
31	  CA	2453.484	749.694	-2553.538	C.3	3	PRO3	-0.027	
32	   C	2453.087	750.717	-2554.615	C.2	3	PRO3	0.590	
33	   O	2453.910	751.100	-2555.446	O.2	3	PRO3	-0.575	
34	  CB	2452.780	748.339	-2553.708	C.3	3	PRO3	-0.007	
35	  CG	2451.496	748.491	-2552.878	C.3	3	PRO3	0.019	
36	  CD	2451.954	749.310	-2551.668	C.3	3	PRO3	0.019	
37	  HA	2454.570	749.573	-2553.551	 H	3	PRO3	0.064	
38	 2HB	2453.403	747.558	-2553.267	 H	3	PRO3	0.025	
39	 3HB	2452.582	748.091	-2554.753	 H	3	PRO3	0.025	
40	 2HG	2451.069	747.529	-2552.587	 H	3	PRO3	0.021	
41	 3HG	2450.759	749.063	-2553.445	 H	3	PRO3	0.021	
42	 2HD	2452.343	748.660	-2550.880	 H	3	PRO3	0.039	
43	 3HD	2451.157	749.946	-2551.275	 H	3	PRO3	0.039	
44	   N	2451.882	751.177	-2554.648	N.am	4	GLU4	-0.516	
45	  CA	2451.523	752.148	-2555.677	C.3	4	GLU4	0.040	
46	   C	2452.422	753.359	-2555.616	C.2	4	GLU4	0.537	
47	   O	2452.949	753.839	-2556.630	O.2	4	GLU4	-0.582	
48	  CB	2450.034	752.568	-2555.508	C.3	4	GLU4	0.056	
49	  CG	2449.487	753.571	-2556.573	C.3	4	GLU4	0.014	
50	  CD	2448.060	754.068	-2556.430	C.2	4	GLU4	0.805	
51	 OE1	2447.333	753.670	-2555.500	O.co2	4	GLU4	-0.819	
52	 OE2	2447.671	754.898	-2557.279	O.co2	4	GLU4	-0.819	
53	   H	2451.197	750.871	-2553.971	 H	4	GLU4	0.294	
54	  HA	2451.654	751.678	-2556.669	 H	4	GLU4	0.111	
55	 2HB	2449.881	753.007	-2554.501	 H	4	GLU4	-0.017	
56	 3HB	2449.386	751.670	-2555.514	 H	4	GLU4	-0.017	
57	 2HG	2449.569	753.156	-2557.592	 H	4	GLU4	-0.043	
58	 3HG	2450.075	754.503	-2556.584	 H	4	GLU4	-0.043	
59	   N	2452.649	753.912	-2554.473	N.am	5	SER5	-0.416	
60	  CA	2453.519	755.083	-2554.414	C.3	5	SER5	-0.025	
61	   C	2454.878	754.777	-2554.999	C.2	5	SER5	0.597	
62	   O	2455.426	755.530	-2555.804	O.2	5	SER5	-0.568	
63	  CB	2453.630	755.615	-2552.963	C.3	5	SER5	0.212	
64	  OG	2454.361	754.735	-2552.102	O.3	5	SER5	-0.655	
65	   H	2452.231	753.540	-2553.631	 H	5	SER5	0.272	
66	  HA	2453.070	755.873	-2555.043	 H	5	SER5	0.084	
67	 2HB	2452.630	755.809	-2552.530	 H	5	SER5	0.035	
68	 3HB	2454.135	756.601	-2552.965	 H	5	SER5	0.035	
69	  HG	2453.872	753.911	-2552.052	 H	5	SER5	0.428	
70	   N	2455.482	753.694	-2554.645	N.am	6	ILE6	-0.416	
71	  CA	2456.795	753.398	-2555.211	C.3	6	ILE6	-0.060	
72	   C	2456.738	753.361	-2556.719	C.2	6	ILE6	0.597	
73	   O	2457.573	753.948	-2557.422	O.2	6	ILE6	-0.568	
74	  CB	2457.394	752.062	-2554.610	C.3	6	ILE6	0.130	
75	 CG1	2457.413	751.999	-2553.050	C.3	6	ILE6	-0.043	
76	 CG2	2458.835	751.759	-2555.125	C.3	6	ILE6	-0.320	
77	 CD1	2457.683	750.610	-2552.434	C.3	6	ILE6	-0.066	
78	   H	2455.053	753.059	-2553.986	 H	6	ILE6	0.272	
79	  HA	2457.469	754.232	-2554.943	 H	6	ILE6	0.087	
80	  HB	2456.736	751.236	-2554.955	 H	6	ILE6	0.019	
81	2HG1	2456.431	752.320	-2552.654	 H	6	ILE6	0.024	
82	3HG1	2458.129	752.741	-2552.645	 H	6	ILE6	0.024	
83	1HG2	2458.895	751.666	-2556.224	 H	6	ILE6	0.088	
84	2HG2	2459.558	752.542	-2554.823	 H	6	ILE6	0.088	
85	3HG2	2459.225	750.797	-2554.747	 H	6	ILE6	0.088	
86	1HD1	2456.954	749.856	-2552.789	 H	6	ILE6	0.019	
87	2HD1	2458.693	750.231	-2552.670	 H	6	ILE6	0.019	
88	3HD1	2457.606	750.640	-2551.332	 H	6	ILE6	0.019	
89	   N	2455.792	752.697	-2557.292	N.am	7	LEU7	-0.416	
90	  CA	2455.737	752.661	-2558.750	C.3	7	LEU7	-0.052	
91	   C	2455.665	754.056	-2559.323	C.2	7	LEU7	0.597	
92	   O	2456.386	754.418	-2560.266	O.2	7	LEU7	-0.568	
93	  CB	2454.534	751.801	-2559.231	C.3	7	LEU7	-0.110	
94	  CG	2454.460	750.322	-2558.764	C.3	7	LEU7	0.353	
95	 CD1	2453.271	749.616	-2559.430	C.3	7	LEU7	-0.412	
96	 CD2	2455.754	749.542	-2559.056	C.3	7	LEU7	-0.412	
97	   H	2455.100	752.210	-2556.741	 H	7	LEU7	0.272	
98	  HA	2456.679	752.221	-2559.125	 H	7	LEU7	0.092	
99	 2HB	2454.510	751.817	-2560.339	 H	7	LEU7	0.046	
100	 3HB	2453.594	752.304	-2558.927	 H	7	LEU7	0.046	
101	  HG	2454.291	750.314	-2557.667	 H	7	LEU7	-0.036	
102	1HD1	2452.313	750.126	-2559.207	 H	7	LEU7	0.100	
103	2HD1	2453.370	749.576	-2560.531	 H	7	LEU7	0.100	
104	3HD1	2453.163	748.575	-2559.074	 H	7	LEU7	0.100	
105	1HD2	2456.029	749.573	-2560.126	 H	7	LEU7	0.100	
106	2HD2	2456.607	749.954	-2558.484	 H	7	LEU7	0.100	
107	3HD2	2455.672	748.480	-2558.760	 H	7	LEU7	0.100	
108	   N	2454.828	754.898	-2558.818	N.am	8	ASP8	-0.516	
109	  CA	2454.758	756.247	-2559.372	C.3	8	ASP8	0.038	
110	   C	2456.105	756.926	-2559.315	C.2	8	ASP8	0.537	
111	   O	2456.578	757.530	-2560.290	O.2	8	ASP8	-0.582	
112	  CB	2453.681	757.087	-2558.631	C.3	8	ASP8	-0.030	
113	  CG	2453.463	758.507	-2559.172	C.2	8	ASP8	0.799	
114	 OD1	2453.527	758.706	-2560.403	O.co2	8	ASP8	-0.801	
115	 OD2	2453.271	759.434	-2558.357	O.co2	8	ASP8	-0.801	
116	   H	2454.230	754.627	-2558.050	 H	8	ASP8	0.294	
117	  HA	2454.475	756.169	-2560.439	 H	8	ASP8	0.088	
118	 2HB	2453.938	757.171	-2557.559	 H	8	ASP8	-0.012	
119	 3HB	2452.701	756.582	-2558.663	 H	8	ASP8	-0.012	
120	   N	2456.785	756.876	-2558.220	N.am	9	GLU9	-0.516	
121	  CA	2458.089	757.533	-2558.165	C.3	9	GLU9	0.040	
122	   C	2459.006	757.005	-2559.241	C.2	9	GLU9	0.537	
123	   O	2459.670	757.758	-2559.967	O.2	9	GLU9	-0.582	
124	  CB	2458.722	757.326	-2556.760	C.3	9	GLU9	0.056	
125	  CG	2460.105	758.018	-2556.531	C.3	9	GLU9	0.014	
126	  CD	2460.807	757.805	-2555.203	C.2	9	GLU9	0.805	
127	 OE1	2460.285	757.115	-2554.306	O.co2	9	GLU9	-0.819	
128	 OE2	2461.927	758.342	-2555.072	O.co2	9	GLU9	-0.819	
129	   H	2456.422	756.391	-2557.412	 H	9	GLU9	0.294	
130	  HA	2457.947	758.615	-2558.341	 H	9	GLU9	0.111	
131	 2HB	2458.834	756.242	-2556.556	 H	9	GLU9	-0.017	
132	 3HB	2458.025	757.680	-2555.975	 H	9	GLU9	-0.017	
133	 2HG	2460.033	759.109	-2556.671	 H	9	GLU9	-0.043	
134	 3HG	2460.852	757.672	-2557.265	 H	9	GLU9	-0.043	
135	   N	2459.102	755.729	-2559.410	N.am	10	HIS10	-0.416	
136	  CA	2459.989	755.217	-2560.450	C.3	10	HIS10	-0.058	
137	   C	2459.622	755.781	-2561.802	C.2	10	HIS10	0.597	
138	   O	2460.475	756.245	-2562.574	O.2	10	HIS10	-0.568	
139	  CB	2459.825	753.688	-2560.445	C.3	10	HIS10	-0.007	
140	  CG	2461.110	752.977	-2560.136	C.2	10	HIS10	0.187	
141	 CD2	2461.491	752.643	-2558.844	C.2	10	HIS10	-0.221	
142	 ND1	2462.062	752.571	-2561.069	N.2	10	HIS10	-0.543	
143	 CE1	2462.968	752.013	-2560.246	C.2	10	HIS10	0.163	
144	 NE2	2462.706	752.011	-2558.911	N.pl3	10	HIS10	-0.280	
145	   H	2458.571	755.095	-2558.831	 H	10	HIS10	0.272	
146	  HA	2461.009	755.574	-2560.226	 H	10	HIS10	0.136	
147	 2HB	2459.459	753.321	-2561.424	 H	10	HIS10	0.037	
148	 3HB	2459.069	753.352	-2559.704	 H	10	HIS10	0.037	
149	 2HD	2460.906	752.859	-2557.955	 H	10	HIS10	0.186	
150	 1HE	2463.859	751.591	-2560.693	 H	10	HIS10	0.144	
151	 2HE	2463.273	751.634	-2558.137	 H	10	HIS10	0.334	
152	   N	2458.385	755.781	-2562.164	N.am	11	VAL11	-0.416	
153	  CA	2458.029	756.326	-2563.471	C.3	11	VAL11	-0.087	
154	   C	2458.495	757.757	-2563.605	C.2	11	VAL11	0.597	
155	   O	2459.096	758.161	-2564.608	O.2	11	VAL11	-0.568	
156	  CB	2456.468	756.220	-2563.690	C.3	11	VAL11	0.299	
157	 CG1	2455.900	756.924	-2564.953	C.3	11	VAL11	-0.319	
158	 CG2	2455.943	754.766	-2563.762	C.3	11	VAL11	-0.319	
159	   H	2457.671	755.409	-2561.553	 H	11	VAL11	0.272	
160	  HA	2458.549	755.743	-2564.254	 H	11	VAL11	0.097	
161	  HB	2455.981	756.701	-2562.815	 H	11	VAL11	-0.030	
162	1HG1	2456.338	756.531	-2565.890	 H	11	VAL11	0.079	
163	2HG1	2454.801	756.817	-2565.035	 H	11	VAL11	0.079	
164	3HG1	2456.078	758.016	-2564.945	 H	11	VAL11	0.079	
165	1HG2	2456.232	754.180	-2562.872	 H	11	VAL11	0.079	
166	2HG2	2454.837	754.730	-2563.805	 H	11	VAL11	0.079	
167	3HG2	2456.324	754.225	-2564.649	 H	11	VAL11	0.079	
168	   N	2458.258	758.583	-2562.643	N.am	12	GLN12	-0.416	
169	  CA	2458.708	759.966	-2562.771	C.3	12	GLN12	-0.003	
170	   C	2460.197	760.032	-2563.009	C.2	12	GLN12	0.597	
171	   O	2460.685	760.740	-2563.888	O.2	12	GLN12	-0.568	
172	  CB	2458.317	760.734	-2561.488	C.3	12	GLN12	-0.004	
173	  CG	2458.678	762.255	-2561.458	C.3	12	GLN12	-0.064	
174	  CD	2458.377	763.070	-2560.194	C.2	12	GLN12	0.695	
175	 NE2	2457.810	762.494	-2559.164	N.pl3	12	GLN12	-0.941	
176	 OE1	2458.679	764.251	-2560.117	O.2	12	GLN12	-0.609	
177	   H	2457.770	758.277	-2561.813	 H	12	GLN12	0.272	
178	  HA	2458.208	760.422	-2563.646	 H	12	GLN12	0.085	
179	 2HB	2458.793	760.234	-2560.619	 H	12	GLN12	0.017	
180	 3HB	2457.227	760.627	-2561.325	 H	12	GLN12	0.017	
181	 2HG	2458.201	762.776	-2562.309	 H	12	GLN12	0.035	
182	 3HG	2459.762	762.397	-2561.624	 H	12	GLN12	0.035	
183	1HE2	2457.703	763.089	-2558.341	 H	12	GLN12	0.425	
184	2HE2	2457.646	761.491	-2559.267	 H	12	GLN12	0.425	
185	   N	2460.982	759.325	-2562.268	N.am	13	ARG13	-0.348	
186	  CA	2462.422	759.390	-2562.499	C.3	13	ARG13	-0.264	
187	   C	2462.758	759.018	-2563.924	C.2	13	ARG13	0.734	
188	   O	2463.527	759.689	-2564.608	O.2	13	ARG13	-0.589	
189	  CB	2463.135	758.452	-2561.484	C.3	13	ARG13	-0.001	
190	  CG	2464.680	758.605	-2561.404	C.3	13	ARG13	0.039	
191	  CD	2465.307	757.618	-2560.406	C.3	13	ARG13	0.049	
192	  NE	2466.784	757.824	-2560.356	N.pl3	13	ARG13	-0.530	
193	  CZ	2467.633	757.133	-2559.600	C.cat	13	ARG13	0.808	
194	 NH1	2467.268	756.170	-2558.802	N.pl3	13	ARG13	-0.863	
195	 NH2	2468.892	757.432	-2559.658	N.pl3	13	ARG13	-0.863	
196	   H	2460.605	758.736	-2561.539	 H	13	ARG13	0.275	
197	  HA	2462.747	760.436	-2562.341	 H	13	ARG13	0.156	
198	 2HB	2462.869	757.401	-2561.723	 H	13	ARG13	0.033	
199	 3HB	2462.710	758.619	-2560.474	 H	13	ARG13	0.033	
200	 2HG	2464.929	759.650	-2561.125	 H	13	ARG13	0.029	
201	 3HG	2465.131	758.448	-2562.406	 H	13	ARG13	0.029	
202	 2HD	2465.062	756.577	-2560.714	 H	13	ARG13	0.069	
203	 3HD	2464.852	757.764	-2559.403	 H	13	ARG13	0.069	
204	  HE	2467.236	758.546	-2560.927	 H	13	ARG13	0.346	
205	1HH1	2466.262	755.984	-2558.805	 H	13	ARG13	0.448	
206	2HH1	2467.981	755.687	-2558.253	 H	13	ARG13	0.448	
207	1HH2	2469.160	758.189	-2560.290	 H	13	ARG13	0.448	
208	2HH2	2469.528	756.891	-2559.069	 H	13	ARG13	0.448	
209	   N	2462.221	757.963	-2564.437	N.am	14	VAL14	-0.416	
210	  CA	2462.546	757.603	-2565.815	C.3	14	VAL14	-0.087	
211	   C	2462.216	758.733	-2566.761	C.2	14	VAL14	0.597	
212	   O	2463.009	759.114	-2567.631	O.2	14	VAL14	-0.568	
213	  CB	2461.773	756.286	-2566.221	C.3	14	VAL14	0.299	
214	 CG1	2461.861	755.867	-2567.714	C.3	14	VAL14	-0.319	
215	 CG2	2462.204	755.034	-2565.420	C.3	14	VAL14	-0.319	
216	   H	2461.586	757.395	-2563.895	 H	14	VAL14	0.272	
217	  HA	2463.634	757.426	-2565.890	 H	14	VAL14	0.097	
218	  HB	2460.697	756.458	-2566.004	 H	14	VAL14	-0.030	
219	1HG1	2462.903	755.689	-2568.043	 H	14	VAL14	0.079	
220	2HG1	2461.288	754.944	-2567.926	 H	14	VAL14	0.079	
221	3HG1	2461.432	756.629	-2568.392	 H	14	VAL14	0.079	
222	1HG2	2462.117	755.193	-2564.329	 H	14	VAL14	0.079	
223	2HG2	2461.568	754.158	-2565.651	 H	14	VAL14	0.079	
224	3HG2	2463.252	754.744	-2565.625	 H	14	VAL14	0.079	
225	   N	2461.071	759.319	-2566.659	N.am	15	ASN15	-0.416	
226	  CA	2460.752	760.411	-2567.573	C.3	15	ASN15	0.014	
227	   C	2461.785	761.510	-2567.484	C.2	15	ASN15	0.597	
228	   O	2462.286	762.017	-2568.487	O.2	15	ASN15	-0.568	
229	  CB	2459.333	760.962	-2567.248	C.3	15	ASN15	-0.204	
230	  CG	2458.174	759.961	-2567.291	C.2	15	ASN15	0.713	
231	 ND2	2457.687	759.610	-2568.451	N.pl3	15	ASN15	-0.919	
232	 OD1	2457.705	759.465	-2566.278	O.2	15	ASN15	-0.593	
233	   H	2460.406	759.027	-2565.957	 H	15	ASN15	0.272	
234	  HA	2460.777	760.021	-2568.608	 H	15	ASN15	0.105	
235	 2HB	2459.085	761.807	-2567.917	 H	15	ASN15	0.080	
236	 3HB	2459.333	761.407	-2566.234	 H	15	ASN15	0.080	
237	1HD2	2457.028	758.830	-2568.377	 H	15	ASN15	0.420	
238	2HD2	2458.159	759.972	-2569.279	 H	15	ASN15	0.420	
239	   N	2462.153	761.930	-2566.321	N.am	16	ARG16	-0.348	
240	  CA	2463.152	762.991	-2566.236	C.3	16	ARG16	-0.264	
241	   C	2464.422	762.596	-2566.950	C.2	16	ARG16	0.734	
242	   O	2464.534	761.520	-2567.533	O.2	16	ARG16	-0.589	
243	  CB	2463.420	763.307	-2564.737	C.3	16	ARG16	-0.001	
244	  CG	2464.247	764.594	-2564.462	C.3	16	ARG16	0.039	
245	  CD	2464.496	764.812	-2562.960	C.3	16	ARG16	0.049	
246	  NE	2465.274	766.069	-2562.757	N.pl3	16	ARG16	-0.530	
247	  CZ	2465.666	766.549	-2561.581	C.cat	16	ARG16	0.808	
248	 NH1	2465.415	765.965	-2560.443	N.pl3	16	ARG16	-0.863	
249	 NH2	2466.332	767.660	-2561.561	N.pl3	16	ARG16	-0.863	
250	   H	2461.756	761.530	-2565.483	 H	16	ARG16	0.275	
251	  HA	2462.745	763.885	-2566.745	 H	16	ARG16	0.156	
252	 2HB	2463.914	762.430	-2564.271	 H	16	ARG16	0.033	
253	 3HB	2462.450	763.390	-2564.204	 H	16	ARG16	0.033	
254	 2HG	2463.719	765.467	-2564.899	 H	16	ARG16	0.029	
255	 3HG	2465.221	764.540	-2564.990	 H	16	ARG16	0.029	
256	 2HD	2465.042	763.936	-2562.547	 H	16	ARG16	0.069	
257	 3HD	2463.522	764.856	-2562.426	 H	16	ARG16	0.069	
258	  HE	2465.555	766.650	-2563.553	 H	16	ARG16	0.346	
259	1HH1	2464.888	765.093	-2560.529	 H	16	ARG16	0.448	
260	2HH1	2465.750	766.399	-2559.581	 H	16	ARG16	0.448	
261	1HH2	2466.519	768.104	-2562.462	 H	16	ARG16	0.448	
262	2HH2	2466.622	768.014	-2560.647	 H	16	ARG16	0.448	
@<TRIPOS>BOND
1 1 2 1
2 1 10 1
3 2 3 1
4 2 5 1
5 2 11 1
6 3 4 2
7 3 16 1
8 5 6 1
9 6 7 1
10 7 8 2
11 7 9 1
12 5 12 1
13 5 13 1
14 6 14 1
15 6 15 1
16 16 17 1
17 16 24 1
18 17 18 1
19 17 20 1
20 17 25 1
21 18 19 2
22 18 30 1
23 20 21 1
24 21 22 1
25 21 23 2
26 20 26 1
27 20 27 1
28 22 28 1
29 22 29 1
30 30 31 1
31 30 36 1
32 31 32 1
33 31 34 1
34 31 37 1
35 32 33 2
36 32 44 1
37 34 35 1
38 35 36 1
39 34 38 1
40 34 39 1
41 35 40 1
42 35 41 1
43 36 42 1
44 36 43 1
45 44 45 1
46 44 53 1
47 45 46 1
48 45 48 1
49 45 54 1
50 46 47 2
51 46 59 1
52 48 49 1
53 49 50 1
54 50 51 2
55 50 52 1
56 48 55 1
57 48 56 1
58 49 57 1
59 49 58 1
60 59 60 1
61 59 65 1
62 60 61 1
63 60 63 1
64 60 66 1
65 61 62 2
66 61 70 1
67 63 64 1
68 63 67 1
69 63 68 1
70 64 69 1
71 70 71 1
72 70 78 1
73 71 72 1
74 71 74 1
75 71 79 1
76 72 73 2
77 72 89 1
78 74 75 1
79 74 76 1
80 75 77 1
81 74 80 1
82 75 81 1
83 75 82 1
84 76 83 1
85 76 84 1
86 76 85 1
87 77 86 1
88 77 87 1
89 77 88 1
90 89 90 1
91 89 97 1
92 90 91 1
93 90 93 1
94 90 98 1
95 91 92 2
96 91 108 1
97 93 94 1
98 94 95 1
99 94 96 1
100 93 99 1
101 93 100 1
102 94 101 1
103 95 102 1
104 95 103 1
105 95 104 1
106 96 105 1
107 96 106 1
108 96 107 1
109 108 109 1
110 108 116 1
111 109 110 1
112 109 112 1
113 109 117 1
114 110 111 2
115 110 120 1
116 112 113 1
117 113 114 2
118 113 115 1
119 112 118 1
120 112 119 1
121 120 121 1
122 120 129 1
123 121 122 1
124 121 124 1
125 121 130 1
126 122 123 2
127 122 135 1
128 124 125 1
129 125 126 1
130 126 127 2
131 126 128 1
132 124 131 1
133 124 132 1
134 125 133 1
135 125 134 1
136 135 136 1
137 135 145 1
138 136 137 1
139 136 139 1
140 136 146 1
141 137 138 2
142 137 152 1
143 139 140 1
144 140 141 2
145 141 144 1
146 140 142 1
147 142 143 2
148 143 144 1
149 139 147 1
150 139 148 1
151 141 149 1
152 143 150 1
153 144 151 1
154 152 153 1
155 152 159 1
156 153 154 1
157 153 156 1
158 153 160 1
159 154 155 2
160 154 168 1
161 156 157 1
162 156 158 1
163 156 161 1
164 157 162 1
165 157 163 1
166 157 164 1
167 158 165 1
168 158 166 1
169 158 167 1
170 168 169 1
171 168 177 1
172 169 170 1
173 169 172 1
174 169 178 1
175 170 171 2
176 170 185 1
177 172 173 1
178 173 174 1
179 174 175 1
180 174 176 2
181 172 179 1
182 172 180 1
183 173 181 1
184 173 182 1
185 175 183 1
186 175 184 1
187 185 186 1
188 185 196 1
189 186 187 1
190 186 189 1
191 186 197 1
192 187 188 2
193 187 209 1
194 189 190 1
195 190 191 1
196 191 192 1
197 192 193 1
198 193 194 2
199 193 195 1
200 189 198 1
201 189 199 1
202 190 200 1
203 190 201 1
204 191 202 1
205 191 203 1
206 192 204 1
207 194 205 1
208 194 206 1
209 195 207 1
210 195 208 1
211 209 210 1
212 209 216 1
213 210 211 1
214 210 213 1
215 210 217 1
216 211 212 2
217 211 225 1
218 213 214 1
219 213 215 1
220 213 218 1
221 214 219 1
222 214 220 1
223 214 221 1
224 215 222 1
225 215 223 1
226 215 224 1
227 225 226 1
228 225 233 1
229 226 227 1
230 226 229 1
231 226 234 1
232 227 228 2
233 227 239 1
234 229 230 1
235 230 231 1
236 230 232 2
237 229 235 1
238 229 236 1
239 231 237 1
240 231 238 1
241 239 240 1
242 239 250 1
243 240 241 1
244 240 243 1
245 240 251 1
246 241 242 2
247 243 244 1
248 244 245 1
249 245 246 1
250 246 247 1
251 247 248 2
252 247 249 1
253 243 252 1
254 243 253 1
255 244 254 1
256 244 255 1
257 245 256 1
258 245 257 1
259 246 258 1
260 248 259 1
261 248 260 1
262 249 261 1
263 249 262 1
@<TRIPOS>SUBSTRUCTURE
1	GLU1	1	RESIDUE	1 ****	GLU
2	ASN2	16	RESIDUE	1 ****	ASN
3	PRO3	30	RESIDUE	1 ****	PRO
4	GLU4	44	RESIDUE	1 ****	GLU
5	SER5	59	RESIDUE	1 ****	SER
6	ILE6	70	RESIDUE	1 ****	ILE
7	LEU7	89	RESIDUE	1 ****	LEU
8	ASP8	108	RESIDUE	1 ****	ASP
9	GLU9	120	RESIDUE	1 ****	GLU
10	HIS10	135	RESIDUE	1 ****	HIS
11	VAL11	152	RESIDUE	1 ****	VAL
12	GLN12	168	RESIDUE	1 ****	GLN
13	ARG13	185	RESIDUE	1 ****	ARG
14	VAL14	209	RESIDUE	1 ****	VAL
15	ASN15	225	RESIDUE	1 ****	ASN
16	ARG16	239	RESIDUE	1 ****	ARG
