@<TRIPOS>MOLECULE
9-20
274 275 16              
SMALL
USER_CHARGES
@<TRIPOS>ATOM
1	   N	1509.293	445.444	-1528.592	N.3	1	GLU1	-0.516	
2	  CA	1509.852	446.793	-1528.592	C.3	1	GLU1	0.040	
3	   C	1511.361	446.753	-1528.592	C.2	1	GLU1	0.537	
4	   O	1512.037	447.452	-1529.361	O.2	1	GLU1	-0.582	
5	  CB	1509.329	447.578	-1527.355	C.3	1	GLU1	0.056	
6	  CG	1509.804	449.063	-1527.244	C.3	1	GLU1	0.014	
7	  CD	1509.380	449.867	-1526.029	C.2	1	GLU1	0.805	
8	 OE1	1508.652	449.365	-1525.151	O.co2	1	GLU1	-0.819	
9	 OE2	1509.810	451.037	-1525.957	O.co2	1	GLU1	-0.819	
10	   H	1509.920	444.565	-1528.592	 H	1	GLU1	0.294	
11	  HA	1509.526	447.311	-1529.512	 H	1	GLU1	0.111	
12	 2HB	1509.618	447.047	-1526.425	 H	1	GLU1	-0.017	
13	 3HB	1508.222	447.568	-1527.342	 H	1	GLU1	-0.017	
14	 2HG	1509.494	449.648	-1528.125	 H	1	GLU1	-0.043	
15	 3HG	1510.904	449.130	-1527.215	 H	1	GLU1	-0.043	
16	   N	1511.966	445.967	-1527.767	N.am	2	ASN2	-0.416	
17	  CA	1513.425	445.929	-1527.767	C.3	2	ASN2	0.014	
18	   C	1513.956	445.573	-1529.136	C.2	2	ASN2	0.597	
19	   O	1514.871	446.204	-1529.664	O.2	2	ASN2	-0.568	
20	  CB	1513.917	444.906	-1526.703	C.3	2	ASN2	-0.204	
21	  CG	1513.454	445.130	-1525.259	C.2	2	ASN2	0.713	
22	 ND2	1514.048	446.045	-1524.541	N.pl3	2	ASN2	-0.919	
23	 OD1	1512.533	444.496	-1524.765	O.2	2	ASN2	-0.593	
24	   H	1511.438	445.388	-1527.130	 H	2	ASN2	0.272	
25	  HA	1513.802	446.939	-1527.521	 H	2	ASN2	0.105	
26	 2HB	1515.022	444.847	-1526.706	 H	2	ASN2	0.080	
27	 3HB	1513.588	443.888	-1526.988	 H	2	ASN2	0.080	
28	1HD2	1513.568	446.218	-1523.655	 H	2	ASN2	0.420	
29	2HD2	1514.750	446.616	-1525.010	 H	2	ASN2	0.420	
30	   N	1513.435	444.578	-1529.770	N.am	3	PRO3	-0.255	
31	  CA	1513.886	444.169	-1531.091	C.3	3	PRO3	-0.027	
32	   C	1513.488	445.192	-1532.168	C.2	3	PRO3	0.590	
33	   O	1514.312	445.576	-1533.000	O.2	3	PRO3	-0.575	
34	  CB	1513.182	442.814	-1531.260	C.3	3	PRO3	-0.007	
35	  CG	1511.899	442.966	-1530.430	C.3	3	PRO3	0.019	
36	  CD	1512.357	443.785	-1529.221	C.3	3	PRO3	0.019	
37	  HA	1514.972	444.049	-1531.105	 H	3	PRO3	0.064	
38	 2HB	1513.805	442.033	-1530.820	 H	3	PRO3	0.025	
39	 3HB	1512.984	442.566	-1532.306	 H	3	PRO3	0.025	
40	 2HG	1511.472	442.004	-1530.139	 H	3	PRO3	0.021	
41	 3HG	1511.161	443.537	-1530.998	 H	3	PRO3	0.021	
42	 2HD	1512.746	443.136	-1528.433	 H	3	PRO3	0.039	
43	 3HD	1511.560	444.421	-1528.827	 H	3	PRO3	0.039	
44	   N	1512.284	445.652	-1532.200	N.am	4	GLU4	-0.516	
45	  CA	1511.924	446.623	-1533.230	C.3	4	GLU4	0.040	
46	   C	1512.823	447.835	-1533.169	C.2	4	GLU4	0.537	
47	   O	1513.349	448.314	-1534.183	O.2	4	GLU4	-0.582	
48	  CB	1510.435	447.042	-1533.059	C.3	4	GLU4	0.056	
49	  CG	1509.887	448.046	-1534.125	C.3	4	GLU4	0.014	
50	  CD	1508.460	448.542	-1533.981	C.2	4	GLU4	0.805	
51	 OE1	1507.734	448.144	-1533.050	O.co2	4	GLU4	-0.819	
52	 OE2	1508.071	449.372	-1534.829	O.co2	4	GLU4	-0.819	
53	   H	1511.599	445.346	-1531.524	 H	4	GLU4	0.294	
54	  HA	1512.055	446.153	-1534.221	 H	4	GLU4	0.111	
55	 2HB	1510.283	447.482	-1532.052	 H	4	GLU4	-0.017	
56	 3HB	1509.787	446.144	-1533.065	 H	4	GLU4	-0.017	
57	 2HG	1509.968	447.631	-1535.143	 H	4	GLU4	-0.043	
58	 3HG	1510.475	448.978	-1534.136	 H	4	GLU4	-0.043	
59	   N	1513.050	448.387	-1532.026	N.am	5	SER5	-0.416	
60	  CA	1513.920	449.559	-1531.967	C.3	5	SER5	-0.025	
61	   C	1515.278	449.253	-1532.553	C.2	5	SER5	0.597	
62	   O	1515.825	450.007	-1533.358	O.2	5	SER5	-0.568	
63	  CB	1514.031	450.091	-1530.516	C.3	5	SER5	0.212	
64	  OG	1514.763	449.211	-1529.656	O.3	5	SER5	-0.655	
65	   H	1512.633	448.016	-1531.184	 H	5	SER5	0.272	
66	  HA	1513.470	450.349	-1532.596	 H	5	SER5	0.084	
67	 2HB	1513.031	450.284	-1530.083	 H	5	SER5	0.035	
68	 3HB	1514.536	451.077	-1530.519	 H	5	SER5	0.035	
69	  HG	1514.274	448.386	-1529.605	 H	5	SER5	0.428	
70	   N	1515.883	448.170	-1532.199	N.am	6	ILE6	-0.416	
71	  CA	1517.196	447.876	-1532.765	C.3	6	ILE6	-0.060	
72	   C	1517.139	447.838	-1534.273	C.2	6	ILE6	0.597	
73	   O	1517.974	448.426	-1534.977	O.2	6	ILE6	-0.568	
74	  CB	1517.796	446.539	-1532.166	C.3	6	ILE6	0.130	
75	 CG1	1517.816	446.477	-1530.605	C.3	6	ILE6	-0.043	
76	 CG2	1519.237	446.238	-1532.681	C.3	6	ILE6	-0.320	
77	 CD1	1518.086	445.088	-1529.990	C.3	6	ILE6	-0.066	
78	   H	1515.455	447.536	-1531.540	 H	6	ILE6	0.272	
79	  HA	1517.870	448.710	-1532.498	 H	6	ILE6	0.087	
80	  HB	1517.138	445.713	-1532.510	 H	6	ILE6	0.019	
81	2HG1	1516.833	446.797	-1530.209	 H	6	ILE6	0.024	
82	3HG1	1518.531	447.219	-1530.200	 H	6	ILE6	0.024	
83	1HG2	1519.296	446.144	-1533.779	 H	6	ILE6	0.088	
84	2HG2	1519.959	447.020	-1532.379	 H	6	ILE6	0.088	
85	3HG2	1519.628	445.276	-1532.302	 H	6	ILE6	0.088	
86	1HD1	1517.358	444.334	-1530.345	 H	6	ILE6	0.019	
87	2HD1	1519.096	444.709	-1530.226	 H	6	ILE6	0.019	
88	3HD1	1518.010	445.118	-1528.887	 H	6	ILE6	0.019	
89	   N	1516.193	447.175	-1534.847	N.am	7	LEU7	-0.416	
90	  CA	1516.138	447.139	-1536.305	C.3	7	LEU7	-0.052	
91	   C	1516.065	448.534	-1536.878	C.2	7	LEU7	0.597	
92	   O	1516.786	448.897	-1537.819	O.2	7	LEU7	-0.568	
93	  CB	1514.935	446.279	-1536.786	C.3	7	LEU7	-0.110	
94	  CG	1514.862	444.799	-1536.319	C.3	7	LEU7	0.353	
95	 CD1	1513.672	444.093	-1536.985	C.3	7	LEU7	-0.412	
96	 CD2	1516.156	444.020	-1536.611	C.3	7	LEU7	-0.412	
97	   H	1515.501	446.688	-1534.295	 H	7	LEU7	0.272	
98	  HA	1517.080	446.699	-1536.680	 H	7	LEU7	0.092	
99	 2HB	1514.911	446.295	-1537.893	 H	7	LEU7	0.046	
100	 3HB	1513.995	446.781	-1536.481	 H	7	LEU7	0.046	
101	  HG	1514.693	444.791	-1535.222	 H	7	LEU7	-0.036	
102	1HD1	1512.715	444.603	-1536.762	 H	7	LEU7	0.100	
103	2HD1	1513.771	444.053	-1538.086	 H	7	LEU7	0.100	
104	3HD1	1513.566	443.052	-1536.629	 H	7	LEU7	0.100	
105	1HD2	1516.431	444.051	-1537.681	 H	7	LEU7	0.100	
106	2HD2	1517.009	444.432	-1536.040	 H	7	LEU7	0.100	
107	3HD2	1516.074	442.958	-1536.315	 H	7	LEU7	0.100	
108	   N	1515.228	449.375	-1536.371	N.am	8	ASP8	-0.516	
109	  CA	1515.158	450.725	-1536.924	C.3	8	ASP8	0.038	
110	   C	1516.504	451.404	-1536.867	C.2	8	ASP8	0.537	
111	   O	1516.977	452.010	-1537.841	O.2	8	ASP8	-0.582	
112	  CB	1514.080	451.563	-1536.182	C.3	8	ASP8	-0.030	
113	  CG	1513.861	452.984	-1536.722	C.2	8	ASP8	0.799	
114	 OD1	1513.925	453.184	-1537.953	O.co2	8	ASP8	-0.801	
115	 OD2	1513.668	453.910	-1535.906	O.co2	8	ASP8	-0.801	
116	   H	1514.630	449.104	-1535.603	 H	8	ASP8	0.294	
117	  HA	1514.875	450.647	-1537.991	 H	8	ASP8	0.088	
118	 2HB	1514.337	451.646	-1535.110	 H	8	ASP8	-0.012	
119	 3HB	1513.100	451.058	-1536.215	 H	8	ASP8	-0.012	
120	   N	1517.184	451.354	-1535.771	N.am	9	ARG9	-0.348	
121	  CA	1518.486	452.012	-1535.716	C.3	9	ARG9	-0.264	
122	   C	1519.404	451.484	-1536.793	C.2	9	ARG9	0.734	
123	   O	1520.062	452.232	-1537.513	O.2	9	ARG9	-0.589	
124	  CB	1519.095	451.802	-1534.300	C.3	9	ARG9	-0.001	
125	  CG	1520.348	452.663	-1533.976	C.3	9	ARG9	0.039	
126	  CD	1520.905	452.367	-1532.574	C.3	9	ARG9	0.049	
127	  NE	1522.091	453.235	-1532.312	N.pl3	9	ARG9	-0.530	
128	  CZ	1522.815	453.230	-1531.197	C.cat	9	ARG9	0.808	
129	 NH1	1522.573	452.448	-1530.182	N.pl3	9	ARG9	-0.863	
130	 NH2	1523.816	454.048	-1531.110	N.pl3	9	ARG9	-0.863	
131	   H	1516.821	450.868	-1534.964	 H	9	ARG9	0.275	
132	  HA	1518.333	453.091	-1535.907	 H	9	ARG9	0.156	
133	 2HB	1519.328	450.725	-1534.169	 H	9	ARG9	0.033	
134	 3HB	1518.317	452.009	-1533.537	 H	9	ARG9	0.033	
135	 2HG	1520.087	453.736	-1534.073	 H	9	ARG9	0.029	
136	 3HG	1521.141	452.479	-1534.731	 H	9	ARG9	0.029	
137	 2HD	1521.177	451.291	-1532.505	 H	9	ARG9	0.069	
138	 3HD	1520.111	452.540	-1531.816	 H	9	ARG9	0.069	
139	  HE	1522.416	453.909	-1533.012	 H	9	ARG9	0.346	
140	1HH1	1521.772	451.827	-1530.315	 H	9	ARG9	0.448	
141	2HH1	1523.177	452.506	-1529.360	 H	9	ARG9	0.448	
142	1HH2	1523.991	454.653	-1531.915	 H	9	ARG9	0.448	
143	2HH2	1524.359	454.031	-1530.245	 H	9	ARG9	0.448	
144	   N	1519.500	450.209	-1536.963	N.am	10	HIS10	-0.416	
145	  CA	1520.387	449.697	-1538.004	C.3	10	HIS10	-0.058	
146	   C	1520.020	450.262	-1539.355	C.2	10	HIS10	0.597	
147	   O	1520.871	450.726	-1540.127	O.2	10	HIS10	-0.568	
148	  CB	1520.223	448.168	-1537.999	C.3	10	HIS10	-0.007	
149	  CG	1521.509	447.458	-1537.692	C.2	10	HIS10	0.187	
150	 CD2	1521.891	447.122	-1536.400	C.2	10	HIS10	-0.221	
151	 ND1	1522.460	447.052	-1538.625	N.2	10	HIS10	-0.543	
152	 CE1	1523.367	446.493	-1537.803	C.2	10	HIS10	0.163	
153	 NE2	1523.105	446.491	-1536.467	N.pl3	10	HIS10	-0.280	
154	   H	1518.970	449.573	-1536.384	 H	10	HIS10	0.272	
155	  HA	1521.407	450.054	-1537.780	 H	10	HIS10	0.136	
156	 2HB	1519.857	447.801	-1538.979	 H	10	HIS10	0.037	
157	 3HB	1519.468	447.831	-1537.258	 H	10	HIS10	0.037	
158	 2HD	1521.306	447.338	-1535.510	 H	10	HIS10	0.186	
159	 1HE	1524.258	446.072	-1538.250	 H	10	HIS10	0.144	
160	 2HE	1523.673	446.113	-1535.695	 H	10	HIS10	0.334	
161	   N	1518.781	450.261	-1539.717	N.am	11	VAL11	-0.416	
162	  CA	1518.425	450.807	-1541.024	C.3	11	VAL11	-0.087	
163	   C	1518.890	452.237	-1541.157	C.2	11	VAL11	0.597	
164	   O	1519.490	452.642	-1542.160	O.2	11	VAL11	-0.568	
165	  CB	1516.864	450.700	-1541.242	C.3	11	VAL11	0.299	
166	 CG1	1516.294	451.404	-1542.505	C.3	11	VAL11	-0.319	
167	 CG2	1516.339	449.246	-1541.315	C.3	11	VAL11	-0.319	
168	   H	1518.069	449.888	-1539.106	 H	11	VAL11	0.272	
169	  HA	1518.944	450.224	-1541.806	 H	11	VAL11	0.097	
170	  HB	1516.377	451.180	-1540.366	 H	11	VAL11	-0.030	
171	1HG1	1516.732	451.012	-1543.442	 H	11	VAL11	0.079	
172	2HG1	1515.196	451.297	-1542.586	 H	11	VAL11	0.079	
173	3HG1	1516.473	452.496	-1542.495	 H	11	VAL11	0.079	
174	1HG2	1516.630	448.659	-1540.424	 H	11	VAL11	0.079	
175	2HG2	1515.233	449.209	-1541.357	 H	11	VAL11	0.079	
176	3HG2	1516.720	448.705	-1542.201	 H	11	VAL11	0.079	
177	   N	1518.653	453.063	-1540.194	N.am	12	GLN12	-0.416	
178	  CA	1519.102	454.446	-1540.322	C.3	12	GLN12	-0.003	
179	   C	1520.591	454.513	-1540.561	C.2	12	GLN12	0.597	
180	   O	1521.078	455.222	-1541.439	O.2	12	GLN12	-0.568	
181	  CB	1518.712	455.213	-1539.039	C.3	12	GLN12	-0.004	
182	  CG	1519.072	456.735	-1539.008	C.3	12	GLN12	-0.064	
183	  CD	1518.770	457.548	-1537.743	C.2	12	GLN12	0.695	
184	 NE2	1518.204	456.972	-1536.713	N.pl3	12	GLN12	-0.941	
185	 OE1	1519.072	458.729	-1537.665	O.2	12	GLN12	-0.609	
186	   H	1518.165	452.757	-1539.365	 H	12	GLN12	0.272	
187	  HA	1518.601	454.902	-1541.196	 H	12	GLN12	0.085	
188	 2HB	1519.188	454.713	-1538.170	 H	12	GLN12	0.017	
189	 3HB	1517.621	455.106	-1538.874	 H	12	GLN12	0.017	
190	 2HG	1518.594	457.256	-1539.858	 H	12	GLN12	0.035	
191	 3HG	1520.155	456.877	-1539.174	 H	12	GLN12	0.035	
192	1HE2	1518.097	457.566	-1535.890	 H	12	GLN12	0.425	
193	2HE2	1518.041	455.968	-1536.817	 H	12	GLN12	0.425	
194	   N	1521.377	453.806	-1539.820	N.am	13	ARG13	-0.348	
195	  CA	1522.817	453.872	-1540.052	C.3	13	ARG13	-0.264	
196	   C	1523.152	453.501	-1541.477	C.2	13	ARG13	0.734	
197	   O	1523.920	454.173	-1542.162	O.2	13	ARG13	-0.589	
198	  CB	1523.531	452.934	-1539.038	C.3	13	ARG13	-0.001	
199	  CG	1525.076	453.087	-1538.958	C.3	13	ARG13	0.039	
200	  CD	1525.704	452.100	-1537.961	C.3	13	ARG13	0.049	
201	  NE	1527.181	452.307	-1537.912	N.pl3	13	ARG13	-0.530	
202	  CZ	1528.030	451.616	-1537.157	C.cat	13	ARG13	0.808	
203	 NH1	1527.665	450.651	-1536.359	N.pl3	13	ARG13	-0.863	
204	 NH2	1529.289	451.915	-1537.215	N.pl3	13	ARG13	-0.863	
205	   H	1521.001	453.217	-1539.092	 H	13	ARG13	0.275	
206	  HA	1523.141	454.919	-1539.894	 H	13	ARG13	0.156	
207	 2HB	1523.265	451.883	-1539.277	 H	13	ARG13	0.033	
208	 3HB	1523.106	453.100	-1538.027	 H	13	ARG13	0.033	
209	 2HG	1525.324	454.132	-1538.679	 H	13	ARG13	0.029	
210	 3HG	1525.526	452.931	-1539.960	 H	13	ARG13	0.029	
211	 2HD	1525.459	451.059	-1538.270	 H	13	ARG13	0.069	
212	 3HD	1525.248	452.245	-1536.958	 H	13	ARG13	0.069	
213	  HE	1527.632	453.029	-1538.483	 H	13	ARG13	0.346	
214	1HH1	1526.660	450.465	-1536.362	 H	13	ARG13	0.448	
215	2HH1	1528.379	450.168	-1535.811	 H	13	ARG13	0.448	
216	1HH2	1529.556	452.673	-1537.846	 H	13	ARG13	0.448	
217	2HH2	1529.925	451.374	-1536.627	 H	13	ARG13	0.448	
218	   N	1522.616	452.447	-1541.991	N.am	14	VAL14	-0.416	
219	  CA	1522.939	452.087	-1543.369	C.3	14	VAL14	-0.087	
220	   C	1522.608	453.217	-1544.314	C.2	14	VAL14	0.597	
221	   O	1523.401	453.599	-1545.184	O.2	14	VAL14	-0.568	
222	  CB	1522.167	450.770	-1543.775	C.3	14	VAL14	0.299	
223	 CG1	1522.255	450.352	-1545.269	C.3	14	VAL14	-0.319	
224	 CG2	1522.599	449.518	-1542.975	C.3	14	VAL14	-0.319	
225	   H	1521.981	451.878	-1541.449	 H	14	VAL14	0.272	
226	  HA	1524.028	451.911	-1543.444	 H	14	VAL14	0.097	
227	  HB	1521.091	450.941	-1543.558	 H	14	VAL14	-0.030	
228	1HG1	1523.296	450.175	-1545.598	 H	14	VAL14	0.079	
229	2HG1	1521.682	449.428	-1545.481	 H	14	VAL14	0.079	
230	3HG1	1521.825	451.114	-1545.947	 H	14	VAL14	0.079	
231	1HG2	1522.513	449.676	-1541.884	 H	14	VAL14	0.079	
232	2HG2	1521.964	448.641	-1543.207	 H	14	VAL14	0.079	
233	3HG2	1523.647	449.228	-1543.182	 H	14	VAL14	0.079	
234	   N	1521.464	453.803	-1544.211	N.am	15	MET15	-0.416	
235	  CA	1521.142	454.896	-1545.125	C.3	15	MET15	-0.024	
236	   C	1522.172	455.995	-1545.038	C.2	15	MET15	0.597	
237	   O	1522.674	456.506	-1546.051	O.2	15	MET15	-0.568	
238	  CB	1519.721	455.441	-1544.814	C.3	15	MET15	0.034	
239	  CG	1518.559	454.443	-1545.005	C.3	15	MET15	0.002	
240	  SD	1516.985	455.309	-1544.889	S.3	15	MET15	-0.274	
241	  CE	1515.904	453.879	-1544.751	C.3	15	MET15	-0.054	
242	   H	1520.799	453.510	-1543.509	 H	15	MET15	0.272	
243	  HA	1521.167	454.508	-1546.160	 H	15	MET15	0.088	
244	 2HB	1519.518	456.320	-1545.456	 H	15	MET15	0.024	
245	 3HB	1519.687	455.834	-1543.778	 H	15	MET15	0.024	
246	 2HG	1518.603	453.657	-1544.227	 H	15	MET15	0.044	
247	 3HG	1518.621	453.928	-1545.981	 H	15	MET15	0.044	
248	 1HE	1516.047	453.191	-1545.604	 H	15	MET15	0.068	
249	 2HE	1516.114	453.326	-1543.819	 H	15	MET15	0.068	
250	 3HE	1514.846	454.194	-1544.734	 H	15	MET15	0.068	
251	   N	1522.542	456.417	-1543.876	N.am	16	ARG16	-0.348	
252	  CA	1523.539	457.481	-1543.793	C.3	16	ARG16	-0.264	
253	   C	1524.809	457.088	-1544.510	C.2	16	ARG16	0.734	
254	   O	1524.922	456.012	-1545.092	O.2	16	ARG16	-0.589	
255	  CB	1523.809	457.798	-1542.295	C.3	16	ARG16	-0.001	
256	  CG	1524.635	459.087	-1542.023	C.3	16	ARG16	0.039	
257	  CD	1524.886	459.307	-1540.522	C.3	16	ARG16	0.049	
258	  NE	1525.662	460.565	-1540.321	N.pl3	16	ARG16	-0.530	
259	  CZ	1526.055	461.048	-1539.146	C.cat	16	ARG16	0.808	
260	 NH1	1525.808	460.463	-1538.008	N.pl3	16	ARG16	-0.863	
261	 NH2	1526.719	462.160	-1539.128	N.pl3	16	ARG16	-0.863	
262	   H	1522.148	456.017	-1543.036	 H	16	ARG16	0.275	
263	  HA	1523.129	458.373	-1544.302	 H	16	ARG16	0.156	
264	 2HB	1524.307	456.922	-1541.829	 H	16	ARG16	0.033	
265	 3HB	1522.841	457.879	-1541.760	 H	16	ARG16	0.033	
266	 2HG	1524.104	459.958	-1542.459	 H	16	ARG16	0.029	
267	 3HG	1525.608	459.034	-1542.553	 H	16	ARG16	0.029	
268	 2HD	1525.435	458.432	-1540.109	 H	16	ARG16	0.069	
269	 3HD	1523.914	459.349	-1539.985	 H	16	ARG16	0.069	
270	  HE	1525.940	461.147	-1541.119	 H	16	ARG16	0.346	
271	1HH1	1525.283	459.590	-1538.091	 H	16	ARG16	0.448	
272	2HH1	1526.144	460.899	-1537.147	 H	16	ARG16	0.448	
273	1HH2	1526.903	462.604	-1540.030	 H	16	ARG16	0.448	
274	2HH2	1527.010	462.515	-1538.216	 H	16	ARG16	0.448	
@<TRIPOS>BOND
1 1 2 1
2 1 10 1
3 2 3 1
4 2 5 1
5 2 11 1
6 3 4 2
7 3 16 1
8 5 6 1
9 6 7 1
10 7 8 2
11 7 9 1
12 5 12 1
13 5 13 1
14 6 14 1
15 6 15 1
16 16 17 1
17 16 24 1
18 17 18 1
19 17 20 1
20 17 25 1
21 18 19 2
22 18 30 1
23 20 21 1
24 21 22 1
25 21 23 2
26 20 26 1
27 20 27 1
28 22 28 1
29 22 29 1
30 30 31 1
31 30 36 1
32 31 32 1
33 31 34 1
34 31 37 1
35 32 33 2
36 32 44 1
37 34 35 1
38 35 36 1
39 34 38 1
40 34 39 1
41 35 40 1
42 35 41 1
43 36 42 1
44 36 43 1
45 44 45 1
46 44 53 1
47 45 46 1
48 45 48 1
49 45 54 1
50 46 47 2
51 46 59 1
52 48 49 1
53 49 50 1
54 50 51 2
55 50 52 1
56 48 55 1
57 48 56 1
58 49 57 1
59 49 58 1
60 59 60 1
61 59 65 1
62 60 61 1
63 60 63 1
64 60 66 1
65 61 62 2
66 61 70 1
67 63 64 1
68 63 67 1
69 63 68 1
70 64 69 1
71 70 71 1
72 70 78 1
73 71 72 1
74 71 74 1
75 71 79 1
76 72 73 2
77 72 89 1
78 74 75 1
79 74 76 1
80 75 77 1
81 74 80 1
82 75 81 1
83 75 82 1
84 76 83 1
85 76 84 1
86 76 85 1
87 77 86 1
88 77 87 1
89 77 88 1
90 89 90 1
91 89 97 1
92 90 91 1
93 90 93 1
94 90 98 1
95 91 92 2
96 91 108 1
97 93 94 1
98 94 95 1
99 94 96 1
100 93 99 1
101 93 100 1
102 94 101 1
103 95 102 1
104 95 103 1
105 95 104 1
106 96 105 1
107 96 106 1
108 96 107 1
109 108 109 1
110 108 116 1
111 109 110 1
112 109 112 1
113 109 117 1
114 110 111 2
115 110 120 1
116 112 113 1
117 113 114 2
118 113 115 1
119 112 118 1
120 112 119 1
121 120 121 1
122 120 131 1
123 121 122 1
124 121 124 1
125 121 132 1
126 122 123 2
127 122 144 1
128 124 125 1
129 125 126 1
130 126 127 1
131 127 128 1
132 128 129 2
133 128 130 1
134 124 133 1
135 124 134 1
136 125 135 1
137 125 136 1
138 126 137 1
139 126 138 1
140 127 139 1
141 129 140 1
142 129 141 1
143 130 142 1
144 130 143 1
145 144 145 1
146 144 154 1
147 145 146 1
148 145 148 1
149 145 155 1
150 146 147 2
151 146 161 1
152 148 149 1
153 149 150 2
154 150 153 1
155 149 151 1
156 151 152 2
157 152 153 1
158 148 156 1
159 148 157 1
160 150 158 1
161 152 159 1
162 153 160 1
163 161 162 1
164 161 168 1
165 162 163 1
166 162 165 1
167 162 169 1
168 163 164 2
169 163 177 1
170 165 166 1
171 165 167 1
172 165 170 1
173 166 171 1
174 166 172 1
175 166 173 1
176 167 174 1
177 167 175 1
178 167 176 1
179 177 178 1
180 177 186 1
181 178 179 1
182 178 181 1
183 178 187 1
184 179 180 2
185 179 194 1
186 181 182 1
187 182 183 1
188 183 184 1
189 183 185 2
190 181 188 1
191 181 189 1
192 182 190 1
193 182 191 1
194 184 192 1
195 184 193 1
196 194 195 1
197 194 205 1
198 195 196 1
199 195 198 1
200 195 206 1
201 196 197 2
202 196 218 1
203 198 199 1
204 199 200 1
205 200 201 1
206 201 202 1
207 202 203 2
208 202 204 1
209 198 207 1
210 198 208 1
211 199 209 1
212 199 210 1
213 200 211 1
214 200 212 1
215 201 213 1
216 203 214 1
217 203 215 1
218 204 216 1
219 204 217 1
220 218 219 1
221 218 225 1
222 219 220 1
223 219 222 1
224 219 226 1
225 220 221 2
226 220 234 1
227 222 223 1
228 222 224 1
229 222 227 1
230 223 228 1
231 223 229 1
232 223 230 1
233 224 231 1
234 224 232 1
235 224 233 1
236 234 235 1
237 234 242 1
238 235 236 1
239 235 238 1
240 235 243 1
241 236 237 2
242 236 251 1
243 238 239 1
244 239 240 1
245 240 241 1
246 238 244 1
247 238 245 1
248 239 246 1
249 239 247 1
250 241 248 1
251 241 249 1
252 241 250 1
253 251 252 1
254 251 262 1
255 252 253 1
256 252 255 1
257 252 263 1
258 253 254 2
259 255 256 1
260 256 257 1
261 257 258 1
262 258 259 1
263 259 260 2
264 259 261 1
265 255 264 1
266 255 265 1
267 256 266 1
268 256 267 1
269 257 268 1
270 257 269 1
271 258 270 1
272 260 271 1
273 260 272 1
274 261 273 1
275 261 274 1
@<TRIPOS>SUBSTRUCTURE
1	GLU1	1	RESIDUE	1 ****	GLU
2	ASN2	16	RESIDUE	1 ****	ASN
3	PRO3	30	RESIDUE	1 ****	PRO
4	GLU4	44	RESIDUE	1 ****	GLU
5	SER5	59	RESIDUE	1 ****	SER
6	ILE6	70	RESIDUE	1 ****	ILE
7	LEU7	89	RESIDUE	1 ****	LEU
8	ASP8	108	RESIDUE	1 ****	ASP
9	ARG9	120	RESIDUE	1 ****	ARG
10	HIS10	144	RESIDUE	1 ****	HIS
11	VAL11	161	RESIDUE	1 ****	VAL
12	GLN12	177	RESIDUE	1 ****	GLN
13	ARG13	194	RESIDUE	1 ****	ARG
14	VAL14	218	RESIDUE	1 ****	VAL
15	MET15	234	RESIDUE	1 ****	MET
16	ARG16	251	RESIDUE	1 ****	ARG
