REMARK WARNING: 32 MAX_TORS EXCEEDED!!!
REMARK  67 active torsions:
REMARK  status: ('A' for Active; 'I' for Inactive)
REMARK    1  A    between atoms: N_1  and  CA_2 
REMARK    2  A    between atoms: CA_2  and  C_3 
REMARK    3  A    between atoms: CA_2  and  CB_5 
REMARK       I    between atoms: C_3  and  N_11 
REMARK    4  A    between atoms: CB_5  and  CG_6 
REMARK    5  A    between atoms: CG_6  and  CD_7 
REMARK    6  A    between atoms: N_11  and  CA_12 
REMARK    7  A    between atoms: CA_12  and  C_13 
REMARK    8  A    between atoms: CA_12  and  CB_15 
REMARK       I    between atoms: C_13  and  N_22 
REMARK    9  A    between atoms: CB_15  and  CG_16 
REMARK       I    between atoms: CG_16  and  ND2_17 
REMARK   10  A    between atoms: CA_23  and  C_24 
REMARK       I    between atoms: C_24  and  N_29 
REMARK   11  A    between atoms: N_29  and  CA_30 
REMARK   12  A    between atoms: CA_30  and  C_31 
REMARK   13  A    between atoms: CA_30  and  CB_33 
REMARK       I    between atoms: C_31  and  N_39 
REMARK   14  A    between atoms: CB_33  and  CG_34 
REMARK   15  A    between atoms: CG_34  and  CD_35 
REMARK   16  A    between atoms: N_39  and  CA_40 
REMARK   17  A    between atoms: CA_40  and  C_41 
REMARK   18  A    between atoms: CA_40  and  CB_43 
REMARK       I    between atoms: C_41  and  N_47 
REMARK   19  A    between atoms: CB_43  and  OG_44 
REMARK   20  A    between atoms: N_47  and  CA_48 
REMARK   21  A    between atoms: CA_48  and  C_49 
REMARK   22  A    between atoms: CA_48  and  CB_51 
REMARK       I    between atoms: C_49  and  N_56 
REMARK   23  A    between atoms: CB_51  and  CG1_52 
REMARK   24  A    between atoms: N_56  and  CA_57 
REMARK   25  A    between atoms: CA_57  and  C_58 
REMARK   26  A    between atoms: CA_57  and  CB_60 
REMARK       I    between atoms: C_58  and  N_65 
REMARK   27  A    between atoms: CB_60  and  CG_61 
REMARK   28  A    between atoms: N_65  and  CA_66 
REMARK   29  A    between atoms: CA_66  and  C_67 
REMARK   30  A    between atoms: CA_66  and  CB_69 
REMARK       I    between atoms: C_67  and  N_74 
REMARK   31  A    between atoms: CB_69  and  CG_70 
REMARK   32  A    between atoms: N_74  and  CA_75 
REMARK   33  A    between atoms: CA_75  and  C_76 
REMARK   34  A    between atoms: CA_75  and  CB_78 
REMARK       I    between atoms: C_76  and  N_82 
REMARK   35  A    between atoms: CB_78  and  SG_79 
REMARK   36  A    between atoms: N_82  and  CA_83 
REMARK   37  A    between atoms: CA_83  and  C_84 
REMARK   38  A    between atoms: CA_83  and  CB_86 
REMARK       I    between atoms: C_84  and  N_94 
REMARK   39  A    between atoms: CB_86  and  CG_87 
REMARK   40  A    between atoms: N_94  and  CA_95 
REMARK   41  A    between atoms: CA_95  and  C_96 
REMARK   42  A    between atoms: CA_95  and  CB_98 
REMARK       I    between atoms: C_96  and  N_102 
REMARK   43  A    between atoms: N_102  and  CA_103 
REMARK   44  A    between atoms: CA_103  and  C_104 
REMARK   45  A    between atoms: CA_103  and  CB_106 
REMARK       I    between atoms: C_104  and  N_114 
REMARK   46  A    between atoms: CB_106  and  CG_107 
REMARK   47  A    between atoms: CG_107  and  CD_108 
REMARK       I    between atoms: CD_108  and  NE2_109 
REMARK   48  A    between atoms: N_114  and  CA_115 
REMARK   49  A    between atoms: CA_115  and  C_116 
REMARK   50  A    between atoms: CA_115  and  CB_118 
REMARK       I    between atoms: C_116  and  N_131 
REMARK   51  A    between atoms: CB_118  and  CG_119 
REMARK   52  A    between atoms: CG_119  and  CD_120 
REMARK   53  A    between atoms: CD_120  and  NE_121 
REMARK       I    between atoms: NE_121  and  CZ_122 
REMARK       I    between atoms: CZ_122  and  NH1_123 
REMARK       I    between atoms: CZ_122  and  NH2_124 
REMARK   54  A    between atoms: N_131  and  CA_132 
REMARK   55  A    between atoms: CA_132  and  C_133 
REMARK   56  A    between atoms: CA_132  and  CB_135 
REMARK       I    between atoms: C_133  and  N_139 
REMARK   57  A    between atoms: N_139  and  CA_140 
REMARK   58  A    between atoms: CA_140  and  C_141 
REMARK   59  A    between atoms: CA_140  and  CB_143 
REMARK       I    between atoms: C_141  and  N_148 
REMARK   60  A    between atoms: CB_143  and  CG_144 
REMARK   61  A    between atoms: CG_144  and  SD_145 
REMARK   62  A    between atoms: N_148  and  CA_149 
REMARK   63  A    between atoms: CA_149  and  C_150 
REMARK   64  A    between atoms: CA_149  and  CB_152 
REMARK   65  A    between atoms: CB_152  and  CG_153 
REMARK   66  A    between atoms: CG_153  and  CD_154 
REMARK   67  A    between atoms: CD_154  and  NE_155 
REMARK       I    between atoms: NE_155  and  CZ_156 
REMARK       I    between atoms: CZ_156  and  NH1_157 
ROOT
ATOM      1  C   CYS d   9    1453.496 430.091-1465.578  0.00  0.00     0.241 C 
ATOM      2  O   CYS d   9    1454.160 430.846-1466.303  0.00  0.00    -0.271 OA
ATOM      3  N   HIS d  10    1453.592 428.816-1465.748  0.00  0.00    -0.346 N 
ATOM      4  H   HIS d  10    1453.062 428.181-1465.170  0.00  0.00     0.163 HD
ENDROOT
BRANCH   3   5
ATOM      5  CA  HIS d  10    1454.481 428.306-1466.788  0.00  0.00     0.182 C 
BRANCH   5   6
ATOM      6  C   HIS d  10    1454.114 428.871-1468.139  0.00  0.00     0.241 C 
ATOM      7  O   HIS d  10    1454.967 429.336-1468.911  0.00  0.00    -0.271 OA
ATOM      8  N   VAL d  11    1452.876 428.870-1468.502  0.00  0.00    -0.346 N 
ATOM      9  H   VAL d  11    1452.163 428.496-1467.892  0.00  0.00     0.163 HD
BRANCH   8  10
ATOM     10  CA  VAL d  11    1452.521 429.416-1469.809  0.00  0.00     0.180 C 
BRANCH  10  11
ATOM     11  C   VAL d  11    1452.985 430.847-1469.941  0.00  0.00     0.241 C 
ATOM     12  O   VAL d  11    1453.586 431.253-1470.943  0.00  0.00    -0.271 OA
ATOM     13  N   GLN d  12    1452.748 431.672-1468.978  0.00  0.00    -0.346 N 
ATOM     14  H   GLN d  12    1452.259 431.366-1468.149  0.00  0.00     0.163 HD
BRANCH  13  15
ATOM     15  CA  GLN d  12    1453.196 433.056-1469.104  0.00  0.00     0.177 C 
BRANCH  15  16
ATOM     16  C   GLN d  12    1454.686 433.124-1469.342  0.00  0.00     0.241 C 
ATOM     17  O   GLN d  12    1455.173 433.832-1470.220  0.00  0.00    -0.271 OA
ATOM     18  N   ARG d  13    1455.471 432.417-1468.602  0.00  0.00    -0.346 N 
ATOM     19  H   ARG d  13    1455.095 431.826-1467.874  0.00  0.00     0.163 HD
BRANCH  18  20
ATOM     20  CA  ARG d  13    1456.911 432.483-1468.833  0.00  0.00     0.176 C 
BRANCH  20  21
ATOM     21  C   ARG d  13    1457.247 432.113-1470.258  0.00  0.00     0.241 C 
ATOM     22  O   ARG d  13    1458.015 432.785-1470.942  0.00  0.00    -0.271 OA
ATOM     23  N   VAL d  14    1456.711 431.058-1470.772  0.00  0.00    -0.346 N 
ATOM     24  H   VAL d  14    1456.077 430.489-1470.231  0.00  0.00     0.163 HD
BRANCH  23  25
ATOM     25  CA  VAL d  14    1457.036 430.700-1472.150  0.00  0.00     0.180 C 
BRANCH  25  26
ATOM     26  C   VAL d  14    1456.705 431.830-1473.095  0.00  0.00     0.241 C 
ATOM     27  O   VAL d  14    1457.498 432.212-1473.965  0.00  0.00    -0.271 OA
ATOM     28  N   MET d  15    1455.560 432.415-1472.993  0.00  0.00    -0.346 N 
ATOM     29  H   MET d  15    1454.896 432.121-1472.291  0.00  0.00     0.163 HD
BRANCH  28  30
ATOM     30  CA  MET d  15    1455.239 433.508-1473.906  0.00  0.00     0.177 C 
BRANCH  30  31
ATOM     31  C   MET d  15    1456.269 434.608-1473.818  0.00  0.00     0.241 C 
ATOM     32  O   MET d  15    1456.771 435.120-1474.830  0.00  0.00    -0.271 OA
ATOM     33  N   ARG d  16    1456.638 435.029-1472.655  0.00  0.00    -0.347 N 
ATOM     34  H   ARG d  16    1456.243 434.629-1471.816  0.00  0.00     0.163 HD
BRANCH  33  35
ATOM     35  CA  ARG d  16    1457.634 436.094-1472.571  0.00  0.00     0.162 C 
BRANCH  35  36
ATOM     36  C   ARG d  16    1458.904 435.702-1473.288  0.00  0.00     0.219 C 
ATOM     37  O   ARG d  16    1459.018 434.626-1473.870  0.00  0.00    -0.287 OA
ENDBRANCH  35  36
BRANCH  35  38
ATOM     38  CB  ARG d  16    1457.903 436.411-1471.073  0.00  0.00     0.035 C 
BRANCH  38  39
ATOM     39  CG  ARG d  16    1458.727 437.700-1470.800  0.00  0.00     0.023 C 
BRANCH  39  40
ATOM     40  CD  ARG d  16    1458.977 437.919-1469.298  0.00  0.00     0.138 C 
BRANCH  40  41
ATOM     41  NE  ARG d  16    1459.753 439.178-1469.097  0.00  0.00    -0.227 N 
ATOM     42  CZ  ARG d  16    1460.144 439.660-1467.921  0.00  0.00     0.665 C 
ATOM     43  NH1 ARG d  16    1459.897 439.075-1466.783  0.00  0.00    -0.235 N 
ATOM     44  NH2 ARG d  16    1460.808 440.773-1467.902  0.00  0.00    -0.235 N 
ATOM     45 11HH ARG d  16    1459.372 438.201-1466.868  0.00  0.00     0.174 HD
ATOM     46 12HH ARG d  16    1460.232 439.510-1465.922  0.00  0.00     0.174 HD
ATOM     47 21HH ARG d  16    1460.993 441.216-1468.804  0.00  0.00     0.174 HD
ATOM     48 22HH ARG d  16    1461.098 441.127-1466.989  0.00  0.00     0.174 HD
ATOM     49  HE  ARG d  16    1460.031 439.759-1469.894  0.00  0.00     0.177 HD
ENDBRANCH  40  41
ENDBRANCH  39  40
ENDBRANCH  38  39
ENDBRANCH  35  38
ENDBRANCH  33  35
ENDBRANCH  30  31
BRANCH  30  50
ATOM     50  CB  MET d  15    1453.817 434.053-1473.596  0.00  0.00     0.045 C 
BRANCH  50  51
ATOM     51  CG  MET d  15    1452.656 433.054-1473.788  0.00  0.00     0.076 C 
BRANCH  51  52
ATOM     52  SD  MET d  15    1451.082 433.919-1473.672  0.00  0.00    -0.173 SA
ATOM     53  CE  MET d  15    1450.001 432.489-1473.536  0.00  0.00     0.089 C 
ENDBRANCH  51  52
ENDBRANCH  50  51
ENDBRANCH  30  50
ENDBRANCH  28  30
ENDBRANCH  25  26
BRANCH  25  54
ATOM     54  CB  VAL d  14    1456.264 429.382-1472.557  0.00  0.00     0.009 C 
ATOM     55  CG1 VAL d  14    1456.353 428.965-1474.051  0.00  0.00     0.012 C 
ATOM     56  CG2 VAL d  14    1456.697 428.130-1471.758  0.00  0.00     0.012 C 
ENDBRANCH  25  54
ENDBRANCH  23  25
ENDBRANCH  20  21
BRANCH  20  57
ATOM     57  CB  ARG d  13    1457.625 431.544-1467.819  0.00  0.00     0.036 C 
BRANCH  57  58
ATOM     58  CG  ARG d  13    1459.170 431.698-1467.738  0.00  0.00     0.023 C 
BRANCH  58  59
ATOM     59  CD  ARG d  13    1459.797 430.710-1466.741  0.00  0.00     0.138 C 
BRANCH  59  60
ATOM     60  NE  ARG d  13    1461.274 430.918-1466.691  0.00  0.00    -0.227 N 
ATOM     61  CZ  ARG d  13    1462.123 430.227-1465.936  0.00  0.00     0.665 C 
ATOM     62  NH1 ARG d  13    1461.758 429.262-1465.139  0.00  0.00    -0.235 N 
ATOM     63  NH2 ARG d  13    1463.382 430.526-1465.993  0.00  0.00    -0.235 N 
ATOM     64 11HH ARG d  13    1460.753 429.075-1465.142  0.00  0.00     0.174 HD
ATOM     65 12HH ARG d  13    1462.472 428.779-1464.590  0.00  0.00     0.174 HD
ATOM     66 21HH ARG d  13    1463.649 431.285-1466.623  0.00  0.00     0.174 HD
ATOM     67 22HH ARG d  13    1464.018 429.985-1465.404  0.00  0.00     0.174 HD
ATOM     68  HE  ARG d  13    1461.725 431.641-1467.261  0.00  0.00     0.177 HD
ENDBRANCH  59  60
ENDBRANCH  58  59
ENDBRANCH  57  58
ENDBRANCH  20  57
ENDBRANCH  18  20
ENDBRANCH  15  16
BRANCH  15  69
ATOM     69  CB  GLN d  12    1452.805 433.822-1467.822  0.00  0.00     0.044 C 
BRANCH  69  70
ATOM     70  CG  GLN d  12    1453.164 435.344-1467.790  0.00  0.00     0.105 C 
BRANCH  70  71
ATOM     71  CD  GLN d  12    1452.862 436.157-1466.524  0.00  0.00     0.215 C 
ATOM     72  NE2 GLN d  12    1452.295 435.580-1465.496  0.00  0.00    -0.370 N 
ATOM     73 21HE GLN d  12    1452.187 436.174-1464.672  0.00  0.00     0.159 HD
ATOM     74 22HE GLN d  12    1452.131 434.576-1465.600  0.00  0.00     0.159 HD
ATOM     75  OE1 GLN d  12    1453.163 437.338-1466.446  0.00  0.00    -0.274 OA
ENDBRANCH  70  71
ENDBRANCH  69  70
ENDBRANCH  15  69
ENDBRANCH  13  15
ENDBRANCH  10  11
BRANCH  10  76
ATOM     76  CB  VAL d  11    1450.960 429.309-1470.029  0.00  0.00     0.009 C 
ATOM     77  CG1 VAL d  11    1450.392 430.013-1471.291  0.00  0.00     0.012 C 
ATOM     78  CG2 VAL d  11    1450.436 427.855-1470.103  0.00  0.00     0.012 C 
ENDBRANCH  10  76
ENDBRANCH   8  10
ENDBRANCH   5   6
BRANCH   5  79
ATOM     79  CB  HIS d  10    1454.317 426.777-1466.784  0.00  0.00     0.095 C 
BRANCH  79  80
ATOM     80  CG  HIS d  10    1455.603 426.067-1466.476  0.00  0.00     0.053 A 
ATOM     81  CD2 HIS d  10    1455.983 425.731-1465.183  0.00  0.00     0.116 A 
ATOM     82  NE2 HIS d  10    1457.198 425.099-1465.250  0.00  0.00    -0.359 N 
ATOM     83  CE1 HIS d  10    1457.461 425.103-1466.585  0.00  0.00     0.207 A 
ATOM     84  2HE HIS d  10    1457.765 424.722-1464.477  0.00  0.00     0.166 HD
ATOM     85  ND1 HIS d  10    1456.555 425.661-1467.409  0.00  0.00    -0.247 NA
ENDBRANCH  79  80
ENDBRANCH   5  79
ENDBRANCH   3   5
BRANCH   1  86
ATOM     86  CA  CYS d   9    1452.577 430.619-1464.502  0.00  0.00     0.185 C 
BRANCH  86  87
ATOM     87  N   CYS d   9    1451.274 429.961-1464.557  0.00  0.00    -0.345 N 
ATOM     88  C   ASP d   8    1450.594 430.011-1465.653  0.00  0.00     0.241 C 
ATOM     89  O   ASP d   8    1451.067 430.617-1466.627  0.00  0.00    -0.271 OA
ATOM     90  H   CYS d   9    1450.911 429.475-1463.750  0.00  0.00     0.163 HD
BRANCH  88  91
ATOM     91  CA  ASP d   8    1449.248 429.332-1465.710  0.00  0.00     0.186 C 
BRANCH  91  92
ATOM     92  N   ASP d   8    1449.318 427.982-1465.157  0.00  0.00    -0.346 N 
ATOM     93  C   LEU d   7    1450.155 427.141-1465.664  0.00  0.00     0.241 C 
ATOM     94  O   LEU d   7    1450.876 427.504-1466.606  0.00  0.00    -0.271 OA
ATOM     95  H   ASP d   8    1448.720 427.711-1464.390  0.00  0.00     0.163 HD
BRANCH  93  96
ATOM     96  CA  LEU d   7    1450.228 425.746-1465.092  0.00  0.00     0.177 C 
BRANCH  96  97
ATOM     97  N   LEU d   7    1450.283 425.782-1463.633  0.00  0.00    -0.346 N 
ATOM     98  C   ILE d   6    1451.229 426.445-1463.059  0.00  0.00     0.241 C 
ATOM     99  O   ILE d   6    1452.063 427.033-1463.763  0.00  0.00    -0.271 OA
ATOM    100  H   LEU d   7    1449.591 425.295-1463.082  0.00  0.00     0.163 HD
BRANCH  98 101
ATOM    101  CA  ILE d   6    1451.286 426.483-1461.552  0.00  0.00     0.180 C 
BRANCH 101 102
ATOM    102  N   ILE d   6    1449.973 426.777-1460.985  0.00  0.00    -0.346 N 
ATOM    103  C   SER d   5    1449.368 427.860-1461.339  0.00  0.00     0.243 C 
ATOM    104  O   SER d   5    1449.915 428.614-1462.144  0.00  0.00    -0.271 OA
ATOM    105  H   ILE d   6    1449.545 426.143-1460.326  0.00  0.00     0.163 HD
BRANCH 103 106
ATOM    106  CA  SER d   5    1448.009 428.166-1460.753  0.00  0.00     0.200 C 
BRANCH 106 107
ATOM    107  N   SER d   5    1447.140 426.994-1460.812  0.00  0.00    -0.344 N 
ATOM    108  C   GLU d   4    1446.912 426.442-1461.955  0.00  0.00     0.241 C 
ATOM    109  O   GLU d   4    1447.439 426.921-1462.969  0.00  0.00    -0.271 OA
ATOM    110  H   SER d   5    1446.723 426.623-1459.970  0.00  0.00     0.163 HD
BRANCH 108 111
ATOM    111  CA  GLU d   4    1446.014 425.230-1462.016  0.00  0.00     0.177 C 
BRANCH 111 112
ATOM    112  N   GLU d   4    1446.373 424.259-1460.986  0.00  0.00    -0.346 N 
ATOM    113  C   PRO d   3    1447.578 423.799-1460.954  0.00  0.00     0.241 C 
ATOM    114  O   PRO d   3    1448.401 424.183-1461.786  0.00  0.00    -0.271 OA
ATOM    115  H   GLU d   4    1445.689 423.953-1460.310  0.00  0.00     0.163 HD
BRANCH 113 116
ATOM    116  CA  PRO d   3    1447.976 422.776-1459.877  0.00  0.00     0.179 C 
ATOM    117  N   PRO d   3    1447.525 423.185-1458.556  0.00  0.00    -0.337 N 
ATOM    118  C   ASN d   2    1448.046 424.180-1457.922  0.00  0.00     0.243 C 
ATOM    119  CD  PRO d   3    1446.447 422.392-1458.007  0.00  0.00     0.127 C 
ATOM    120  O   ASN d   2    1448.961 424.811-1458.450  0.00  0.00    -0.271 OA
ATOM    121  CG  PRO d   3    1445.989 421.573-1459.216  0.00  0.00     0.022 C 
ATOM    122  CB  PRO d   3    1447.272 421.421-1460.047  0.00  0.00     0.037 C 
BRANCH 118 123
ATOM    123  CA  ASN d   2    1447.515 424.536-1456.553  0.00  0.00     0.185 C 
BRANCH 123 124
ATOM    124  N   ASN d   2    1446.056 424.574-1456.553  0.00  0.00    -0.346 N 
ATOM    125  C   GLU d   1    1445.451 425.360-1457.378  0.00  0.00     0.242 C 
ATOM    126  O   GLU d   1    1446.127 426.059-1458.147  0.00  0.00    -0.271 OA
ATOM    127  H   ASN d   2    1445.527 423.995-1455.917  0.00  0.00     0.163 HD
BRANCH 125 128
ATOM    128  CA  GLU d   1    1443.942 425.400-1457.378  0.00  0.00     0.191 C 
BRANCH 128 129
ATOM    129  N   GLU d   1    1443.383 424.051-1457.378  0.00  0.00    -0.326 NA
ATOM    130  H   GLU d   1    1444.010 423.172-1457.378  0.00  0.00     0.180 HD
ENDBRANCH 128 129
BRANCH 128 131
ATOM    131  CB  GLU d   1    1443.419 426.185-1456.141  0.00  0.00     0.047 C 
BRANCH 131 132
ATOM    132  CG  GLU d   1    1443.894 427.670-1456.030  0.00  0.00     0.116 C 
BRANCH 132 133
ATOM    133  CD  GLU d   1    1443.470 428.474-1454.815  0.00  0.00     0.172 C 
ATOM    134  OE1 GLU d   1    1442.742 427.972-1453.937  0.00  0.00    -0.648 OA
ATOM    135  OE2 GLU d   1    1443.900 429.644-1454.743  0.00  0.00    -0.648 OA
ENDBRANCH 132 133
ENDBRANCH 131 132
ENDBRANCH 128 131
ENDBRANCH 125 128
ENDBRANCH 123 124
BRANCH 123 136
ATOM    136  CB  ASN d   2    1448.007 423.513-1455.489  0.00  0.00     0.137 C 
BRANCH 136 137
ATOM    137  CG  ASN d   2    1447.544 423.737-1454.045  0.00  0.00     0.217 C 
ATOM    138  ND2 ASN d   2    1448.138 424.652-1453.327  0.00  0.00    -0.370 N 
ATOM    139 21HD ASN d   2    1447.658 424.825-1452.441  0.00  0.00     0.159 HD
ATOM    140 22HD ASN d   2    1448.840 425.223-1453.797  0.00  0.00     0.159 HD
ATOM    141  OD1 ASN d   2    1446.623 423.103-1453.551  0.00  0.00    -0.274 OA
ENDBRANCH 136 137
ENDBRANCH 123 136
ENDBRANCH 118 123
ENDBRANCH 113 116
ENDBRANCH 111 112
BRANCH 111 142
ATOM    142  CB  GLU d   4    1444.525 425.649-1461.845  0.00  0.00     0.045 C 
BRANCH 142 143
ATOM    143  CG  GLU d   4    1443.977 426.653-1462.911  0.00  0.00     0.116 C 
BRANCH 143 144
ATOM    144  CD  GLU d   4    1442.550 427.149-1462.767  0.00  0.00     0.172 C 
ATOM    145  OE1 GLU d   4    1441.824 426.751-1461.836  0.00  0.00    -0.648 OA
ATOM    146  OE2 GLU d   4    1442.160 427.979-1463.615  0.00  0.00    -0.648 OA
ENDBRANCH 143 144
ENDBRANCH 142 143
ENDBRANCH 111 142
ENDBRANCH 108 111
ENDBRANCH 106 107
BRANCH 106 147
ATOM    147  CB  SER d   5    1448.121 428.698-1459.303  0.00  0.00     0.199 C 
BRANCH 147 148
ATOM    148  OG  SER d   5    1448.853 427.818-1458.442  0.00  0.00    -0.398 OA
ATOM    149  HG  SER d   5    1448.364 426.993-1458.391  0.00  0.00     0.209 HD
ENDBRANCH 147 148
ENDBRANCH 106 147
ENDBRANCH 103 106
ENDBRANCH 101 102
BRANCH 101 150
ATOM    150  CB  ILE d   6    1451.886 425.146-1460.952  0.00  0.00     0.013 C 
ATOM    151  CG2 ILE d   6    1453.327 424.845-1461.467  0.00  0.00     0.012 C 
BRANCH 150 152
ATOM    152  CG1 ILE d   6    1451.906 425.084-1459.391  0.00  0.00     0.002 C 
ATOM    153  CD1 ILE d   6    1452.176 423.695-1458.776  0.00  0.00     0.005 C 
ENDBRANCH 150 152
ENDBRANCH 101 150
ENDBRANCH  98 101
ENDBRANCH  96  97
BRANCH  96 154
ATOM    154  CB  LEU d   7    1449.025 424.886-1465.572  0.00  0.00     0.038 C 
BRANCH 154 155
ATOM    155  CG  LEU d   7    1448.952 423.406-1465.106  0.00  0.00    -0.020 C 
ATOM    156  CD1 LEU d   7    1447.762 422.700-1465.771  0.00  0.00     0.009 C 
ATOM    157  CD2 LEU d   7    1450.246 422.627-1465.397  0.00  0.00     0.009 C 
ENDBRANCH 154 155
ENDBRANCH  96 154
ENDBRANCH  93  96
ENDBRANCH  91  92
BRANCH  91 158
ATOM    158  CB  ASP d   8    1448.169 430.170-1464.968  0.00  0.00     0.147 C 
BRANCH 158 159
ATOM    159  CG  ASP d   8    1447.950 431.591-1465.508  0.00  0.00     0.175 C 
ATOM    160  OD1 ASP d   8    1448.014 431.791-1466.739  0.00  0.00    -0.648 OA
ATOM    161  OD2 ASP d   8    1447.758 432.517-1464.693  0.00  0.00    -0.648 OA
ENDBRANCH 158 159
ENDBRANCH  91 158
ENDBRANCH  88  91
ENDBRANCH  86  87
BRANCH  86 162
ATOM    162  CB  CYS d   9    1453.159 430.433-1463.087  0.00  0.00     0.105 C 
BRANCH 162 163
ATOM    163  SG  CYS d   9    1454.688 431.377-1462.896  0.00  0.00    -0.180 SA
ATOM    164  HG  CYS d   9    1455.523 430.342-1462.958  0.00  0.00     0.101 HD
ENDBRANCH 162 163
ENDBRANCH  86 162
ENDBRANCH   1  86
TORSDOF 67
