REMARK WARNING: 32 MAX_TORS EXCEEDED!!!
REMARK  68 active torsions:
REMARK  status: ('A' for Active; 'I' for Inactive)
REMARK    1  A    between atoms: N_1  and  CA_2 
REMARK    2  A    between atoms: CA_2  and  C_3 
REMARK    3  A    between atoms: CA_2  and  CB_5 
REMARK       I    between atoms: C_3  and  N_11 
REMARK    4  A    between atoms: CB_5  and  CG_6 
REMARK    5  A    between atoms: CG_6  and  CD_7 
REMARK    6  A    between atoms: N_11  and  CA_12 
REMARK    7  A    between atoms: CA_12  and  C_13 
REMARK    8  A    between atoms: CA_12  and  CB_15 
REMARK       I    between atoms: C_13  and  N_22 
REMARK    9  A    between atoms: CB_15  and  CG_16 
REMARK       I    between atoms: CG_16  and  ND2_17 
REMARK   10  A    between atoms: CA_23  and  C_24 
REMARK       I    between atoms: C_24  and  N_29 
REMARK   11  A    between atoms: N_29  and  CA_30 
REMARK   12  A    between atoms: CA_30  and  C_31 
REMARK   13  A    between atoms: CA_30  and  CB_33 
REMARK       I    between atoms: C_31  and  N_39 
REMARK   14  A    between atoms: CB_33  and  CG_34 
REMARK   15  A    between atoms: CG_34  and  CD_35 
REMARK   16  A    between atoms: N_39  and  CA_40 
REMARK   17  A    between atoms: CA_40  and  C_41 
REMARK   18  A    between atoms: CA_40  and  CB_43 
REMARK       I    between atoms: C_41  and  N_47 
REMARK   19  A    between atoms: CB_43  and  OG_44 
REMARK   20  A    between atoms: N_47  and  CA_48 
REMARK   21  A    between atoms: CA_48  and  C_49 
REMARK   22  A    between atoms: CA_48  and  CB_51 
REMARK       I    between atoms: C_49  and  N_56 
REMARK   23  A    between atoms: CB_51  and  CG1_52 
REMARK   24  A    between atoms: N_56  and  CA_57 
REMARK   25  A    between atoms: CA_57  and  C_58 
REMARK   26  A    between atoms: CA_57  and  CB_60 
REMARK       I    between atoms: C_58  and  N_65 
REMARK   27  A    between atoms: CB_60  and  CG_61 
REMARK   28  A    between atoms: N_65  and  CA_66 
REMARK   29  A    between atoms: CA_66  and  C_67 
REMARK   30  A    between atoms: CA_66  and  CB_69 
REMARK       I    between atoms: C_67  and  N_74 
REMARK   31  A    between atoms: CB_69  and  CG_70 
REMARK   32  A    between atoms: N_74  and  CA_75 
REMARK   33  A    between atoms: CA_75  and  C_76 
REMARK   34  A    between atoms: CA_75  and  CB_78 
REMARK       I    between atoms: C_76  and  N_84 
REMARK   35  A    between atoms: CB_78  and  CG_79 
REMARK   36  A    between atoms: CG_79  and  CD_80 
REMARK   37  A    between atoms: N_84  and  CA_85 
REMARK   38  A    between atoms: CA_85  and  C_86 
REMARK   39  A    between atoms: CA_85  and  CB_88 
REMARK       I    between atoms: C_86  and  N_93 
REMARK   40  A    between atoms: CB_88  and  CG_89 
REMARK   41  A    between atoms: N_93  and  CA_94 
REMARK   42  A    between atoms: CA_94  and  C_95 
REMARK   43  A    between atoms: CA_94  and  CB_97 
REMARK       I    between atoms: C_95  and  N_101 
REMARK   44  A    between atoms: N_101  and  CA_102 
REMARK   45  A    between atoms: CA_102  and  C_103 
REMARK   46  A    between atoms: CA_102  and  CB_105 
REMARK       I    between atoms: C_103  and  N_113 
REMARK   47  A    between atoms: CB_105  and  CG_106 
REMARK   48  A    between atoms: CG_106  and  CD_107 
REMARK       I    between atoms: CD_107  and  NE2_108 
REMARK   49  A    between atoms: N_113  and  CA_114 
REMARK   50  A    between atoms: CA_114  and  C_115 
REMARK   51  A    between atoms: CA_114  and  CB_117 
REMARK       I    between atoms: C_115  and  N_130 
REMARK   52  A    between atoms: CB_117  and  CG_118 
REMARK   53  A    between atoms: CG_118  and  CD_119 
REMARK   54  A    between atoms: CD_119  and  NE_120 
REMARK       I    between atoms: NE_120  and  CZ_121 
REMARK       I    between atoms: CZ_121  and  NH1_122 
REMARK       I    between atoms: CZ_121  and  NH2_123 
REMARK   55  A    between atoms: N_130  and  CA_131 
REMARK   56  A    between atoms: CA_131  and  C_132 
REMARK   57  A    between atoms: CA_131  and  CB_134 
REMARK       I    between atoms: C_132  and  N_138 
REMARK   58  A    between atoms: N_138  and  CA_139 
REMARK   59  A    between atoms: CA_139  and  C_140 
REMARK   60  A    between atoms: CA_139  and  CB_142 
REMARK       I    between atoms: C_140  and  N_147 
REMARK   61  A    between atoms: CB_142  and  CG_143 
REMARK   62  A    between atoms: CG_143  and  SD_144 
REMARK   63  A    between atoms: N_147  and  CA_148 
REMARK   64  A    between atoms: CA_148  and  C_149 
REMARK   65  A    between atoms: CA_148  and  CB_151 
REMARK   66  A    between atoms: CB_151  and  CG_152 
REMARK   67  A    between atoms: CG_152  and  CD_153 
REMARK   68  A    between atoms: CD_153  and  NE_154 
REMARK       I    between atoms: NE_154  and  CZ_155 
REMARK       I    between atoms: CZ_155  and  NH1_156 
ROOT
ATOM      1  C   GLU d   9    1658.539 497.143-1688.065  0.00  0.00     0.241 C 
ATOM      2  O   GLU d   9    1659.202 497.897-1688.790  0.00  0.00    -0.271 OA
ATOM      3  N   ASP d  10    1658.635 495.868-1688.235  0.00  0.00    -0.346 N 
ATOM      4  H   ASP d  10    1658.105 495.232-1687.657  0.00  0.00     0.163 HD
ENDROOT
BRANCH   1   5
ATOM      5  CA  GLU d   9    1657.620 497.670-1686.989  0.00  0.00     0.177 C 
BRANCH   5   6
ATOM      6  N   GLU d   9    1656.318 497.012-1687.044  0.00  0.00    -0.346 N 
ATOM      7  C   ASP d   8    1655.638 497.062-1688.139  0.00  0.00     0.241 C 
ATOM      8  O   ASP d   8    1656.111 497.668-1689.114  0.00  0.00    -0.271 OA
ATOM      9  H   GLU d   9    1655.955 496.525-1686.237  0.00  0.00     0.163 HD
BRANCH   7  10
ATOM     10  CA  ASP d   8    1654.292 496.382-1688.197  0.00  0.00     0.186 C 
BRANCH  10  11
ATOM     11  N   ASP d   8    1654.362 495.033-1687.644  0.00  0.00    -0.346 N 
ATOM     12  C   LEU d   7    1655.199 494.192-1688.150  0.00  0.00     0.241 C 
ATOM     13  O   LEU d   7    1655.920 494.555-1689.092  0.00  0.00    -0.271 OA
ATOM     14  H   ASP d   8    1653.764 494.761-1686.876  0.00  0.00     0.163 HD
BRANCH  12  15
ATOM     15  CA  LEU d   7    1655.272 492.797-1687.578  0.00  0.00     0.177 C 
BRANCH  15  16
ATOM     16  N   LEU d   7    1655.327 492.833-1686.120  0.00  0.00    -0.346 N 
ATOM     17  C   ILE d   6    1656.273 493.496-1685.546  0.00  0.00     0.241 C 
ATOM     18  O   ILE d   6    1657.107 494.084-1686.250  0.00  0.00    -0.271 OA
ATOM     19  H   LEU d   7    1654.635 492.345-1685.568  0.00  0.00     0.163 HD
BRANCH  17  20
ATOM     20  CA  ILE d   6    1656.330 493.533-1684.038  0.00  0.00     0.180 C 
BRANCH  20  21
ATOM     21  N   ILE d   6    1655.017 493.828-1683.472  0.00  0.00    -0.346 N 
ATOM     22  C   SER d   5    1654.412 494.911-1683.826  0.00  0.00     0.243 C 
ATOM     23  O   SER d   5    1654.959 495.665-1684.631  0.00  0.00    -0.271 OA
ATOM     24  H   ILE d   6    1654.589 493.194-1682.813  0.00  0.00     0.163 HD
BRANCH  22  25
ATOM     25  CA  SER d   5    1653.053 495.217-1683.240  0.00  0.00     0.200 C 
BRANCH  25  26
ATOM     26  N   SER d   5    1652.184 494.045-1683.298  0.00  0.00    -0.344 N 
ATOM     27  C   GLU d   4    1651.956 493.492-1684.442  0.00  0.00     0.241 C 
ATOM     28  O   GLU d   4    1652.483 493.972-1685.456  0.00  0.00    -0.271 OA
ATOM     29  H   SER d   5    1651.767 493.673-1682.457  0.00  0.00     0.163 HD
BRANCH  27  30
ATOM     30  CA  GLU d   4    1651.057 492.281-1684.503  0.00  0.00     0.177 C 
BRANCH  30  31
ATOM     31  N   GLU d   4    1651.417 491.310-1683.473  0.00  0.00    -0.346 N 
ATOM     32  C   PRO d   3    1652.622 490.850-1683.441  0.00  0.00     0.241 C 
ATOM     33  O   PRO d   3    1653.445 491.233-1684.272  0.00  0.00    -0.271 OA
ATOM     34  H   GLU d   4    1650.733 491.003-1682.796  0.00  0.00     0.163 HD
BRANCH  32  35
ATOM     35  CA  PRO d   3    1653.020 489.827-1682.364  0.00  0.00     0.179 C 
ATOM     36  N   PRO d   3    1652.569 490.236-1681.042  0.00  0.00    -0.337 N 
ATOM     37  C   ASN d   2    1653.090 491.231-1680.408  0.00  0.00     0.243 C 
ATOM     38  CD  PRO d   3    1651.491 489.443-1680.493  0.00  0.00     0.127 C 
ATOM     39  O   ASN d   2    1654.005 491.862-1680.937  0.00  0.00    -0.271 OA
ATOM     40  CG  PRO d   3    1651.033 488.624-1681.703  0.00  0.00     0.022 C 
ATOM     41  CB  PRO d   3    1652.316 488.472-1682.533  0.00  0.00     0.037 C 
BRANCH  37  42
ATOM     42  CA  ASN d   2    1652.559 491.587-1679.040  0.00  0.00     0.185 C 
BRANCH  42  43
ATOM     43  N   ASN d   2    1651.100 491.625-1679.040  0.00  0.00    -0.346 N 
ATOM     44  C   GLU d   1    1650.495 492.411-1679.865  0.00  0.00     0.242 C 
ATOM     45  O   GLU d   1    1651.171 493.110-1680.633  0.00  0.00    -0.271 OA
ATOM     46  H   ASN d   2    1650.571 491.046-1678.403  0.00  0.00     0.163 HD
BRANCH  44  47
ATOM     47  CA  GLU d   1    1648.986 492.451-1679.865  0.00  0.00     0.191 C 
BRANCH  47  48
ATOM     48  N   GLU d   1    1648.427 491.102-1679.865  0.00  0.00    -0.326 NA
ATOM     49  H   GLU d   1    1649.054 490.223-1679.865  0.00  0.00     0.180 HD
ENDBRANCH  47  48
BRANCH  47  50
ATOM     50  CB  GLU d   1    1648.463 493.236-1678.628  0.00  0.00     0.047 C 
BRANCH  50  51
ATOM     51  CG  GLU d   1    1648.938 494.721-1678.517  0.00  0.00     0.116 C 
BRANCH  51  52
ATOM     52  CD  GLU d   1    1648.514 495.525-1677.302  0.00  0.00     0.172 C 
ATOM     53  OE1 GLU d   1    1647.786 495.023-1676.424  0.00  0.00    -0.648 OA
ATOM     54  OE2 GLU d   1    1648.944 496.695-1677.230  0.00  0.00    -0.648 OA
ENDBRANCH  51  52
ENDBRANCH  50  51
ENDBRANCH  47  50
ENDBRANCH  44  47
ENDBRANCH  42  43
BRANCH  42  55
ATOM     55  CB  ASN d   2    1653.051 490.564-1677.975  0.00  0.00     0.137 C 
BRANCH  55  56
ATOM     56  CG  ASN d   2    1652.588 490.788-1676.532  0.00  0.00     0.217 C 
ATOM     57  ND2 ASN d   2    1653.182 491.702-1675.814  0.00  0.00    -0.370 N 
ATOM     58 21HD ASN d   2    1652.702 491.875-1674.927  0.00  0.00     0.159 HD
ATOM     59 22HD ASN d   2    1653.884 492.274-1676.283  0.00  0.00     0.159 HD
ATOM     60  OD1 ASN d   2    1651.667 490.154-1676.038  0.00  0.00    -0.274 OA
ENDBRANCH  55  56
ENDBRANCH  42  55
ENDBRANCH  37  42
ENDBRANCH  32  35
ENDBRANCH  30  31
BRANCH  30  61
ATOM     61  CB  GLU d   4    1649.569 492.700-1684.332  0.00  0.00     0.045 C 
BRANCH  61  62
ATOM     62  CG  GLU d   4    1649.021 493.703-1685.398  0.00  0.00     0.116 C 
BRANCH  62  63
ATOM     63  CD  GLU d   4    1647.594 494.200-1685.254  0.00  0.00     0.172 C 
ATOM     64  OE1 GLU d   4    1646.868 493.802-1684.323  0.00  0.00    -0.648 OA
ATOM     65  OE2 GLU d   4    1647.204 495.029-1686.102  0.00  0.00    -0.648 OA
ENDBRANCH  62  63
ENDBRANCH  61  62
ENDBRANCH  30  61
ENDBRANCH  27  30
ENDBRANCH  25  26
BRANCH  25  66
ATOM     66  CB  SER d   5    1653.165 495.749-1681.789  0.00  0.00     0.199 C 
BRANCH  66  67
ATOM     67  OG  SER d   5    1653.897 494.869-1680.929  0.00  0.00    -0.398 OA
ATOM     68  HG  SER d   5    1653.408 494.044-1680.878  0.00  0.00     0.209 HD
ENDBRANCH  66  67
ENDBRANCH  25  66
ENDBRANCH  22  25
ENDBRANCH  20  21
BRANCH  20  69
ATOM     69  CB  ILE d   6    1656.930 492.197-1683.438  0.00  0.00     0.013 C 
ATOM     70  CG2 ILE d   6    1658.371 491.896-1683.954  0.00  0.00     0.012 C 
BRANCH  69  71
ATOM     71  CG1 ILE d   6    1656.949 492.135-1681.877  0.00  0.00     0.002 C 
ATOM     72  CD1 ILE d   6    1657.219 490.746-1681.263  0.00  0.00     0.005 C 
ENDBRANCH  69  71
ENDBRANCH  20  69
ENDBRANCH  17  20
ENDBRANCH  15  16
BRANCH  15  73
ATOM     73  CB  LEU d   7    1654.069 491.936-1688.059  0.00  0.00     0.038 C 
BRANCH  73  74
ATOM     74  CG  LEU d   7    1653.996 490.457-1687.592  0.00  0.00    -0.020 C 
ATOM     75  CD1 LEU d   7    1652.806 489.751-1688.258  0.00  0.00     0.009 C 
ATOM     76  CD2 LEU d   7    1655.290 489.678-1687.884  0.00  0.00     0.009 C 
ENDBRANCH  73  74
ENDBRANCH  15  73
ENDBRANCH  12  15
ENDBRANCH  10  11
BRANCH  10  77
ATOM     77  CB  ASP d   8    1653.213 497.221-1687.455  0.00  0.00     0.147 C 
BRANCH  77  78
ATOM     78  CG  ASP d   8    1652.994 498.642-1687.995  0.00  0.00     0.175 C 
ATOM     79  OD1 ASP d   8    1653.058 498.841-1689.225  0.00  0.00    -0.648 OA
ATOM     80  OD2 ASP d   8    1652.802 499.568-1687.179  0.00  0.00    -0.648 OA
ENDBRANCH  77  78
ENDBRANCH  10  77
ENDBRANCH   7  10
ENDBRANCH   5   6
BRANCH   5  81
ATOM     81  CB  GLU d   9    1658.254 497.462-1685.583  0.00  0.00     0.045 C 
BRANCH  81  82
ATOM     82  CG  GLU d   9    1659.637 498.154-1685.354  0.00  0.00     0.116 C 
BRANCH  82  83
ATOM     83  CD  GLU d   9    1660.339 497.940-1684.026  0.00  0.00     0.172 C 
ATOM     84  OE1 GLU d   9    1659.817 497.249-1683.130  0.00  0.00    -0.648 OA
ATOM     85  OE2 GLU d   9    1661.458 498.478-1683.894  0.00  0.00    -0.648 OA
ENDBRANCH  82  83
ENDBRANCH  81  82
ENDBRANCH   5  81
ENDBRANCH   1   5
BRANCH   3  86
ATOM     86  CA  ASP d  10    1659.523 495.358-1689.276  0.00  0.00     0.186 C 
BRANCH  86  87
ATOM     87  C   ASP d  10    1659.156 495.923-1690.627  0.00  0.00     0.241 C 
ATOM     88  O   ASP d  10    1660.008 496.389-1691.399  0.00  0.00    -0.271 OA
ATOM     89  N   VAL d  11    1657.917 495.922-1690.990  0.00  0.00    -0.346 N 
ATOM     90  H   VAL d  11    1657.205 495.548-1690.379  0.00  0.00     0.163 HD
BRANCH  89  91
ATOM     91  CA  VAL d  11    1657.562 496.469-1692.296  0.00  0.00     0.180 C 
BRANCH  91  92
ATOM     92  C   VAL d  11    1658.026 497.900-1692.427  0.00  0.00     0.241 C 
ATOM     93  O   VAL d  11    1658.627 498.306-1693.430  0.00  0.00    -0.271 OA
ATOM     94  N   GLN d  12    1657.789 498.725-1691.464  0.00  0.00    -0.346 N 
ATOM     95  H   GLN d  12    1657.300 498.418-1690.635  0.00  0.00     0.163 HD
BRANCH  94  96
ATOM     96  CA  GLN d  12    1658.237 500.108-1691.590  0.00  0.00     0.177 C 
BRANCH  96  97
ATOM     97  C   GLN d  12    1659.727 500.176-1691.829  0.00  0.00     0.241 C 
ATOM     98  O   GLN d  12    1660.213 500.885-1692.707  0.00  0.00    -0.271 OA
ATOM     99  N   ARG d  13    1660.512 499.469-1691.089  0.00  0.00    -0.346 N 
ATOM    100  H   ARG d  13    1660.136 498.878-1690.360  0.00  0.00     0.163 HD
BRANCH  99 101
ATOM    101  CA  ARG d  13    1661.952 499.536-1691.320  0.00  0.00     0.176 C 
BRANCH 101 102
ATOM    102  C   ARG d  13    1662.288 499.165-1692.745  0.00  0.00     0.241 C 
ATOM    103  O   ARG d  13    1663.056 499.838-1693.429  0.00  0.00    -0.271 OA
ATOM    104  N   VAL d  14    1661.752 498.111-1693.260  0.00  0.00    -0.346 N 
ATOM    105  H   VAL d  14    1661.117 497.542-1692.719  0.00  0.00     0.163 HD
BRANCH 104 106
ATOM    106  CA  VAL d  14    1662.076 497.753-1694.638  0.00  0.00     0.180 C 
BRANCH 106 107
ATOM    107  C   VAL d  14    1661.745 498.884-1695.583  0.00  0.00     0.241 C 
ATOM    108  O   VAL d  14    1662.538 499.266-1696.453  0.00  0.00    -0.271 OA
ATOM    109  N   MET d  15    1660.600 499.469-1695.480  0.00  0.00    -0.346 N 
ATOM    110  H   MET d  15    1659.936 499.176-1694.779  0.00  0.00     0.163 HD
BRANCH 109 111
ATOM    111  CA  MET d  15    1660.279 500.563-1696.393  0.00  0.00     0.177 C 
BRANCH 111 112
ATOM    112  C   MET d  15    1661.309 501.663-1696.305  0.00  0.00     0.241 C 
ATOM    113  O   MET d  15    1661.811 502.175-1697.317  0.00  0.00    -0.271 OA
ATOM    114  N   ARG d  16    1661.678 502.083-1695.142  0.00  0.00    -0.347 N 
ATOM    115  H   ARG d  16    1661.284 501.682-1694.303  0.00  0.00     0.163 HD
BRANCH 114 116
ATOM    116  CA  ARG d  16    1662.674 503.147-1695.058  0.00  0.00     0.162 C 
BRANCH 116 117
ATOM    117  C   ARG d  16    1663.944 502.755-1695.775  0.00  0.00     0.219 C 
ATOM    118  O   ARG d  16    1664.058 501.679-1696.358  0.00  0.00    -0.287 OA
ENDBRANCH 116 117
BRANCH 116 119
ATOM    119  CB  ARG d  16    1662.944 503.464-1693.560  0.00  0.00     0.035 C 
BRANCH 119 120
ATOM    120  CG  ARG d  16    1663.769 504.753-1693.286  0.00  0.00     0.023 C 
BRANCH 120 121
ATOM    121  CD  ARG d  16    1664.019 504.971-1691.785  0.00  0.00     0.138 C 
BRANCH 121 122
ATOM    122  NE  ARG d  16    1664.795 506.230-1691.583  0.00  0.00    -0.227 N 
ATOM    123  CZ  ARG d  16    1665.187 506.712-1690.407  0.00  0.00     0.665 C 
ATOM    124  NH1 ARG d  16    1664.940 506.126-1689.269  0.00  0.00    -0.235 N 
ATOM    125  NH2 ARG d  16    1665.850 507.824-1690.388  0.00  0.00    -0.235 N 
ATOM    126 11HH ARG d  16    1664.414 505.253-1689.354  0.00  0.00     0.174 HD
ATOM    127 12HH ARG d  16    1665.274 506.561-1688.408  0.00  0.00     0.174 HD
ATOM    128 21HH ARG d  16    1666.035 508.268-1691.290  0.00  0.00     0.174 HD
ATOM    129 22HH ARG d  16    1666.141 508.179-1689.476  0.00  0.00     0.174 HD
ATOM    130  HE  ARG d  16    1665.073 506.812-1692.380  0.00  0.00     0.177 HD
ENDBRANCH 121 122
ENDBRANCH 120 121
ENDBRANCH 119 120
ENDBRANCH 116 119
ENDBRANCH 114 116
ENDBRANCH 111 112
BRANCH 111 131
ATOM    131  CB  MET d  15    1658.858 501.107-1696.083  0.00  0.00     0.045 C 
BRANCH 131 132
ATOM    132  CG  MET d  15    1657.696 500.109-1696.275  0.00  0.00     0.076 C 
BRANCH 132 133
ATOM    133  SD  MET d  15    1656.122 500.974-1696.159  0.00  0.00    -0.173 SA
ATOM    134  CE  MET d  15    1655.041 499.544-1696.023  0.00  0.00     0.089 C 
ENDBRANCH 132 133
ENDBRANCH 131 132
ENDBRANCH 111 131
ENDBRANCH 109 111
ENDBRANCH 106 107
BRANCH 106 135
ATOM    135  CB  VAL d  14    1661.304 496.436-1695.046  0.00  0.00     0.009 C 
ATOM    136  CG1 VAL d  14    1661.393 496.019-1696.540  0.00  0.00     0.012 C 
ATOM    137  CG2 VAL d  14    1661.737 495.183-1694.247  0.00  0.00     0.012 C 
ENDBRANCH 106 135
ENDBRANCH 104 106
ENDBRANCH 101 102
BRANCH 101 138
ATOM    138  CB  ARG d  13    1662.666 498.596-1690.307  0.00  0.00     0.036 C 
BRANCH 138 139
ATOM    139  CG  ARG d  13    1664.211 498.750-1690.226  0.00  0.00     0.023 C 
BRANCH 139 140
ATOM    140  CD  ARG d  13    1664.839 497.761-1689.230  0.00  0.00     0.138 C 
BRANCH 140 141
ATOM    141  NE  ARG d  13    1666.316 497.969-1689.180  0.00  0.00    -0.227 N 
ATOM    142  CZ  ARG d  13    1667.165 497.277-1688.425  0.00  0.00     0.665 C 
ATOM    143  NH1 ARG d  13    1666.800 496.312-1687.629  0.00  0.00    -0.235 N 
ATOM    144  NH2 ARG d  13    1668.424 497.577-1688.483  0.00  0.00    -0.235 N 
ATOM    145 11HH ARG d  13    1665.795 496.125-1687.632  0.00  0.00     0.174 HD
ATOM    146 12HH ARG d  13    1667.514 495.829-1687.081  0.00  0.00     0.174 HD
ATOM    147 21HH ARG d  13    1668.691 498.335-1689.113  0.00  0.00     0.174 HD
ATOM    148 22HH ARG d  13    1669.059 497.035-1687.895  0.00  0.00     0.174 HD
ATOM    149  HE  ARG d  13    1666.767 498.692-1689.750  0.00  0.00     0.177 HD
ENDBRANCH 140 141
ENDBRANCH 139 140
ENDBRANCH 138 139
ENDBRANCH 101 138
ENDBRANCH  99 101
ENDBRANCH  96  97
BRANCH  96 150
ATOM    150  CB  GLN d  12    1657.846 500.874-1690.307  0.00  0.00     0.044 C 
BRANCH 150 151
ATOM    151  CG  GLN d  12    1658.206 502.396-1690.275  0.00  0.00     0.105 C 
BRANCH 151 152
ATOM    152  CD  GLN d  12    1657.903 503.209-1689.009  0.00  0.00     0.215 C 
ATOM    153  NE2 GLN d  12    1657.337 502.631-1687.981  0.00  0.00    -0.370 N 
ATOM    154 21HE GLN d  12    1657.229 503.225-1687.157  0.00  0.00     0.159 HD
ATOM    155 22HE GLN d  12    1657.173 501.628-1688.085  0.00  0.00     0.159 HD
ATOM    156  OE1 GLN d  12    1658.205 504.390-1688.931  0.00  0.00    -0.274 OA
ENDBRANCH 151 152
ENDBRANCH 150 151
ENDBRANCH  96 150
ENDBRANCH  94  96
ENDBRANCH  91  92
BRANCH  91 157
ATOM    157  CB  VAL d  11    1656.001 496.362-1692.515  0.00  0.00     0.009 C 
ATOM    158  CG1 VAL d  11    1655.432 497.067-1693.777  0.00  0.00     0.012 C 
ATOM    159  CG2 VAL d  11    1655.477 494.908-1692.590  0.00  0.00     0.012 C 
ENDBRANCH  91 157
ENDBRANCH  89  91
ENDBRANCH  86  87
BRANCH  86 160
ATOM    160  CB  ASP d  10    1659.501 493.803-1689.300  0.00  0.00     0.147 C 
BRANCH 160 161
ATOM    161  CG  ASP d  10    1660.453 493.144-1690.309  0.00  0.00     0.175 C 
ATOM    162  OD1 ASP d  10    1661.573 493.656-1690.512  0.00  0.00    -0.648 OA
ATOM    163  OD2 ASP d  10    1660.057 492.137-1690.932  0.00  0.00    -0.648 OA
ENDBRANCH 160 161
ENDBRANCH  86 160
ENDBRANCH   3  86
TORSDOF 68
