@<TRIPOS>MOLECULE
10-11
265 266 16              
SMALL
USER_CHARGES
@<TRIPOS>ATOM
1	   N	1599.377	474.766	-1626.420	N.3	1	GLU1	-0.516	
2	  CA	1599.936	476.115	-1626.420	C.3	1	GLU1	0.040	
3	   C	1601.445	476.075	-1626.420	C.2	1	GLU1	0.537	
4	   O	1602.120	476.774	-1627.189	O.2	1	GLU1	-0.582	
5	  CB	1599.413	476.900	-1625.183	C.3	1	GLU1	0.056	
6	  CG	1599.888	478.385	-1625.072	C.3	1	GLU1	0.014	
7	  CD	1599.464	479.189	-1623.857	C.2	1	GLU1	0.805	
8	 OE1	1598.736	478.687	-1622.979	O.co2	1	GLU1	-0.819	
9	 OE2	1599.894	480.359	-1623.785	O.co2	1	GLU1	-0.819	
10	   H	1600.004	473.887	-1626.420	 H	1	GLU1	0.294	
11	  HA	1599.610	476.633	-1627.340	 H	1	GLU1	0.111	
12	 2HB	1599.702	476.369	-1624.253	 H	1	GLU1	-0.017	
13	 3HB	1598.306	476.890	-1625.170	 H	1	GLU1	-0.017	
14	 2HG	1599.578	478.970	-1625.953	 H	1	GLU1	-0.043	
15	 3HG	1600.988	478.452	-1625.043	 H	1	GLU1	-0.043	
16	   N	1602.049	475.289	-1625.595	N.am	2	ASN2	-0.416	
17	  CA	1603.509	475.251	-1625.595	C.3	2	ASN2	0.014	
18	   C	1604.040	474.895	-1626.964	C.2	2	ASN2	0.597	
19	   O	1604.954	475.526	-1627.493	O.2	2	ASN2	-0.568	
20	  CB	1604.000	474.228	-1624.531	C.3	2	ASN2	-0.204	
21	  CG	1603.538	474.452	-1623.088	C.2	2	ASN2	0.713	
22	 ND2	1604.132	475.367	-1622.369	N.pl3	2	ASN2	-0.919	
23	 OD1	1602.617	473.818	-1622.593	O.2	2	ASN2	-0.593	
24	   H	1601.521	474.710	-1624.959	 H	2	ASN2	0.272	
25	  HA	1603.886	476.261	-1625.350	 H	2	ASN2	0.105	
26	 2HB	1605.105	474.169	-1624.535	 H	2	ASN2	0.080	
27	 3HB	1603.672	473.210	-1624.817	 H	2	ASN2	0.080	
28	1HD2	1603.651	475.540	-1621.483	 H	2	ASN2	0.420	
29	2HD2	1604.833	475.938	-1622.839	 H	2	ASN2	0.420	
30	   N	1603.518	473.900	-1627.598	N.am	3	PRO3	-0.255	
31	  CA	1603.970	473.491	-1628.920	C.3	3	PRO3	-0.027	
32	   C	1603.572	474.514	-1629.996	C.2	3	PRO3	0.590	
33	   O	1604.395	474.897	-1630.828	O.2	3	PRO3	-0.575	
34	  CB	1603.266	472.136	-1629.089	C.3	3	PRO3	-0.007	
35	  CG	1601.983	472.288	-1628.259	C.3	3	PRO3	0.019	
36	  CD	1602.440	473.107	-1627.049	C.3	3	PRO3	0.019	
37	  HA	1605.056	473.371	-1628.933	 H	3	PRO3	0.064	
38	 2HB	1603.889	471.355	-1628.648	 H	3	PRO3	0.025	
39	 3HB	1603.068	471.888	-1630.134	 H	3	PRO3	0.025	
40	 2HG	1601.555	471.326	-1627.968	 H	3	PRO3	0.021	
41	 3HG	1601.245	472.859	-1628.826	 H	3	PRO3	0.021	
42	 2HD	1602.830	472.458	-1626.261	 H	3	PRO3	0.039	
43	 3HD	1601.644	473.743	-1626.656	 H	3	PRO3	0.039	
44	   N	1602.367	474.974	-1630.029	N.am	4	GLU4	-0.516	
45	  CA	1602.007	475.945	-1631.058	C.3	4	GLU4	0.040	
46	   C	1602.906	477.157	-1630.997	C.2	4	GLU4	0.537	
47	   O	1603.432	477.636	-1632.012	O.2	4	GLU4	-0.582	
48	  CB	1600.519	476.364	-1630.888	C.3	4	GLU4	0.056	
49	  CG	1599.970	477.368	-1631.953	C.3	4	GLU4	0.014	
50	  CD	1598.544	477.864	-1631.809	C.2	4	GLU4	0.805	
51	 OE1	1597.818	477.466	-1630.878	O.co2	4	GLU4	-0.819	
52	 OE2	1598.154	478.693	-1632.658	O.co2	4	GLU4	-0.819	
53	   H	1601.683	474.668	-1629.352	 H	4	GLU4	0.294	
54	  HA	1602.138	475.475	-1632.049	 H	4	GLU4	0.111	
55	 2HB	1600.366	476.804	-1629.881	 H	4	GLU4	-0.017	
56	 3HB	1599.871	475.466	-1630.894	 H	4	GLU4	-0.017	
57	 2HG	1600.052	476.953	-1632.971	 H	4	GLU4	-0.043	
58	 3HG	1600.558	478.300	-1631.964	 H	4	GLU4	-0.043	
59	   N	1603.134	477.709	-1629.854	N.am	5	SER5	-0.416	
60	  CA	1604.003	478.881	-1629.796	C.3	5	SER5	-0.025	
61	   C	1605.362	478.575	-1630.381	C.2	5	SER5	0.597	
62	   O	1605.909	479.329	-1631.186	O.2	5	SER5	-0.568	
63	  CB	1604.115	479.413	-1628.345	C.3	5	SER5	0.212	
64	  OG	1604.847	478.533	-1627.484	O.3	5	SER5	-0.655	
65	   H	1602.717	477.338	-1629.012	 H	5	SER5	0.272	
66	  HA	1603.553	479.671	-1630.424	 H	5	SER5	0.084	
67	 2HB	1603.115	479.606	-1627.911	 H	5	SER5	0.035	
68	 3HB	1604.620	480.398	-1628.347	 H	5	SER5	0.035	
69	  HG	1604.358	477.708	-1627.433	 H	5	SER5	0.428	
70	   N	1605.967	477.492	-1630.027	N.am	6	ILE6	-0.416	
71	  CA	1607.280	477.198	-1630.594	C.3	6	ILE6	-0.060	
72	   C	1607.222	477.160	-1632.102	C.2	6	ILE6	0.597	
73	   O	1608.057	477.748	-1632.806	O.2	6	ILE6	-0.568	
74	  CB	1607.879	475.861	-1629.994	C.3	6	ILE6	0.130	
75	 CG1	1607.899	475.799	-1628.433	C.3	6	ILE6	-0.043	
76	 CG2	1609.321	475.560	-1630.509	C.3	6	ILE6	-0.320	
77	 CD1	1608.169	474.410	-1627.818	C.3	6	ILE6	-0.066	
78	   H	1605.538	476.858	-1629.368	 H	6	ILE6	0.272	
79	  HA	1607.954	478.032	-1630.326	 H	6	ILE6	0.087	
80	  HB	1607.222	475.035	-1630.338	 H	6	ILE6	0.019	
81	2HG1	1606.917	476.119	-1628.037	 H	6	ILE6	0.024	
82	3HG1	1608.615	476.541	-1628.028	 H	6	ILE6	0.024	
83	1HG2	1609.380	475.466	-1631.608	 H	6	ILE6	0.088	
84	2HG2	1610.043	476.342	-1630.207	 H	6	ILE6	0.088	
85	3HG2	1609.711	474.598	-1630.131	 H	6	ILE6	0.088	
86	1HD1	1607.441	473.656	-1628.173	 H	6	ILE6	0.019	
87	2HD1	1609.180	474.031	-1628.054	 H	6	ILE6	0.019	
88	3HD1	1608.093	474.440	-1626.716	 H	6	ILE6	0.019	
89	   N	1606.276	476.497	-1632.675	N.am	7	LEU7	-0.416	
90	  CA	1606.221	476.461	-1634.134	C.3	7	LEU7	-0.052	
91	   C	1606.149	477.856	-1634.706	C.2	7	LEU7	0.597	
92	   O	1606.869	478.219	-1635.648	O.2	7	LEU7	-0.568	
93	  CB	1605.018	475.601	-1634.614	C.3	7	LEU7	-0.110	
94	  CG	1604.946	474.121	-1634.148	C.3	7	LEU7	0.353	
95	 CD1	1603.756	473.415	-1634.813	C.3	7	LEU7	-0.412	
96	 CD2	1606.239	473.342	-1634.440	C.3	7	LEU7	-0.412	
97	   H	1605.584	476.009	-1632.124	 H	7	LEU7	0.272	
98	  HA	1607.163	476.021	-1634.508	 H	7	LEU7	0.092	
99	 2HB	1604.995	475.617	-1635.722	 H	7	LEU7	0.046	
100	 3HB	1604.078	476.103	-1634.310	 H	7	LEU7	0.046	
101	  HG	1604.776	474.113	-1633.051	 H	7	LEU7	-0.036	
102	1HD1	1602.798	473.924	-1634.591	 H	7	LEU7	0.100	
103	2HD1	1603.855	473.375	-1635.915	 H	7	LEU7	0.100	
104	3HD1	1603.649	472.374	-1634.458	 H	7	LEU7	0.100	
105	1HD2	1606.514	473.373	-1635.510	 H	7	LEU7	0.100	
106	2HD2	1607.093	473.754	-1633.868	 H	7	LEU7	0.100	
107	3HD2	1606.158	472.280	-1634.144	 H	7	LEU7	0.100	
108	   N	1605.312	478.697	-1634.199	N.am	8	ASP8	-0.516	
109	  CA	1605.241	480.046	-1634.752	C.3	8	ASP8	0.038	
110	   C	1606.588	480.726	-1634.695	C.2	8	ASP8	0.537	
111	   O	1607.060	481.332	-1635.669	O.2	8	ASP8	-0.582	
112	  CB	1604.163	480.885	-1634.010	C.3	8	ASP8	-0.030	
113	  CG	1603.944	482.306	-1634.550	C.2	8	ASP8	0.799	
114	 OD1	1604.008	482.505	-1635.781	O.co2	8	ASP8	-0.801	
115	 OD2	1603.752	483.232	-1633.735	O.co2	8	ASP8	-0.801	
116	   H	1604.714	478.425	-1633.432	 H	8	ASP8	0.294	
117	  HA	1604.958	479.969	-1635.819	 H	8	ASP8	0.088	
118	 2HB	1604.420	480.968	-1632.938	 H	8	ASP8	-0.012	
119	 3HB	1603.184	480.380	-1634.043	 H	8	ASP8	-0.012	
120	   N	1607.267	480.676	-1633.600	N.am	9	GLU9	-0.516	
121	  CA	1608.570	481.334	-1633.544	C.3	9	GLU9	0.040	
122	   C	1609.488	480.807	-1634.621	C.2	9	GLU9	0.537	
123	   O	1610.152	481.562	-1635.346	O.2	9	GLU9	-0.582	
124	  CB	1609.204	481.126	-1632.139	C.3	9	GLU9	0.056	
125	  CG	1610.586	481.818	-1631.910	C.3	9	GLU9	0.014	
126	  CD	1611.288	481.604	-1630.581	C.2	9	GLU9	0.805	
127	 OE1	1610.767	480.913	-1629.685	O.co2	9	GLU9	-0.819	
128	 OE2	1612.407	482.142	-1630.450	O.co2	9	GLU9	-0.819	
129	   H	1606.904	480.190	-1632.793	 H	9	GLU9	0.294	
130	  HA	1608.428	482.416	-1633.719	 H	9	GLU9	0.111	
131	 2HB	1609.317	480.041	-1631.936	 H	9	GLU9	-0.017	
132	 3HB	1608.507	481.479	-1631.355	 H	9	GLU9	-0.017	
133	 2HG	1610.514	482.909	-1632.049	 H	9	GLU9	-0.043	
134	 3HG	1611.333	481.473	-1632.644	 H	9	GLU9	-0.043	
135	   N	1609.585	479.532	-1634.791	N.am	10	HIS10	-0.416	
136	  CA	1610.472	479.021	-1635.832	C.3	10	HIS10	-0.058	
137	   C	1610.105	479.586	-1637.182	C.2	10	HIS10	0.597	
138	   O	1610.958	480.051	-1637.954	O.2	10	HIS10	-0.568	
139	  CB	1610.308	477.492	-1635.828	C.3	10	HIS10	-0.007	
140	  CG	1611.594	476.781	-1635.520	C.2	10	HIS10	0.187	
141	 CD2	1611.975	476.445	-1634.228	C.2	10	HIS10	-0.221	
142	 ND1	1612.546	476.376	-1636.453	N.2	10	HIS10	-0.543	
143	 CE1	1613.452	475.817	-1635.630	C.2	10	HIS10	0.163	
144	 NE2	1613.190	475.814	-1634.295	N.pl3	10	HIS10	-0.280	
145	   H	1609.054	478.896	-1634.213	 H	10	HIS10	0.272	
146	  HA	1611.492	479.378	-1635.606	 H	10	HIS10	0.136	
147	 2HB	1609.943	477.126	-1636.808	 H	10	HIS10	0.037	
148	 3HB	1609.553	477.155	-1635.088	 H	10	HIS10	0.037	
149	 2HD	1611.389	476.660	-1633.339	 H	10	HIS10	0.186	
150	 1HE	1614.343	475.397	-1636.078	 H	10	HIS10	0.144	
151	 2HE	1613.756	475.436	-1633.522	 H	10	HIS10	0.334	
152	   N	1608.867	479.586	-1637.545	N.am	11	VAL11	-0.416	
153	  CA	1608.512	480.132	-1638.852	C.3	11	VAL11	-0.087	
154	   C	1608.977	481.563	-1638.983	C.2	11	VAL11	0.597	
155	   O	1609.577	481.969	-1639.986	O.2	11	VAL11	-0.568	
156	  CB	1606.951	480.026	-1639.071	C.3	11	VAL11	0.299	
157	 CG1	1606.382	480.731	-1640.333	C.3	11	VAL11	-0.319	
158	 CG2	1606.426	478.572	-1639.145	C.3	11	VAL11	-0.319	
159	   H	1608.155	479.212	-1636.935	 H	11	VAL11	0.272	
160	  HA	1609.032	479.550	-1639.635	 H	11	VAL11	0.097	
161	  HB	1606.464	480.506	-1638.196	 H	11	VAL11	-0.030	
162	1HG1	1606.821	480.339	-1641.271	 H	11	VAL11	0.079	
163	2HG1	1605.283	480.624	-1640.416	 H	11	VAL11	0.079	
164	3HG1	1606.561	481.823	-1640.323	 H	11	VAL11	0.079	
165	1HG2	1606.716	477.984	-1638.255	 H	11	VAL11	0.079	
166	2HG2	1605.321	478.535	-1639.188	 H	11	VAL11	0.079	
167	3HG2	1606.808	478.032	-1640.032	 H	11	VAL11	0.079	
168	   N	1608.740	482.388	-1638.021	N.am	12	GLN12	-0.416	
169	  CA	1609.188	483.771	-1638.147	C.3	12	GLN12	-0.003	
170	   C	1610.678	483.839	-1638.385	C.2	12	GLN12	0.597	
171	   O	1611.165	484.548	-1639.263	O.2	12	GLN12	-0.568	
172	  CB	1608.797	484.538	-1636.863	C.3	12	GLN12	-0.004	
173	  CG	1609.157	486.060	-1636.831	C.3	12	GLN12	-0.064	
174	  CD	1608.855	486.872	-1635.566	C.2	12	GLN12	0.695	
175	 NE2	1608.288	486.295	-1634.537	N.pl3	12	GLN12	-0.941	
176	 OE1	1609.157	488.053	-1635.488	O.2	12	GLN12	-0.609	
177	   H	1608.251	482.081	-1637.191	 H	12	GLN12	0.272	
178	  HA	1608.688	484.228	-1639.021	 H	12	GLN12	0.085	
179	 2HB	1609.273	484.037	-1635.995	 H	12	GLN12	0.017	
180	 3HB	1607.707	484.430	-1636.700	 H	12	GLN12	0.017	
181	 2HG	1608.680	486.581	-1637.681	 H	12	GLN12	0.035	
182	 3HG	1610.241	486.202	-1636.997	 H	12	GLN12	0.035	
183	1HE2	1608.181	486.889	-1633.713	 H	12	GLN12	0.425	
184	2HE2	1608.125	485.291	-1634.641	 H	12	GLN12	0.425	
185	   N	1611.463	483.131	-1637.644	N.am	13	ARG13	-0.348	
186	  CA	1612.903	483.197	-1637.875	C.3	13	ARG13	-0.264	
187	   C	1613.239	482.827	-1639.300	C.2	13	ARG13	0.734	
188	   O	1614.008	483.499	-1639.984	O.2	13	ARG13	-0.589	
189	  CB	1613.616	482.258	-1636.862	C.3	13	ARG13	-0.001	
190	  CG	1615.161	482.411	-1636.781	C.3	13	ARG13	0.039	
191	  CD	1615.788	481.423	-1635.784	C.3	13	ARG13	0.049	
192	  NE	1617.266	481.630	-1635.733	N.pl3	13	ARG13	-0.530	
193	  CZ	1618.114	480.938	-1634.979	C.cat	13	ARG13	0.808	
194	 NH1	1617.749	479.973	-1634.182	N.pl3	13	ARG13	-0.863	
195	 NH2	1619.373	481.237	-1635.036	N.pl3	13	ARG13	-0.863	
196	   H	1611.087	482.541	-1636.916	 H	13	ARG13	0.275	
197	  HA	1613.227	484.243	-1637.716	 H	13	ARG13	0.156	
198	 2HB	1613.350	481.208	-1637.102	 H	13	ARG13	0.033	
199	 3HB	1613.191	482.424	-1635.851	 H	13	ARG13	0.033	
200	 2HG	1615.409	483.455	-1636.501	 H	13	ARG13	0.029	
201	 3HG	1615.612	482.256	-1637.782	 H	13	ARG13	0.029	
202	 2HD	1615.544	480.383	-1636.094	 H	13	ARG13	0.069	
203	 3HD	1615.332	481.568	-1634.781	 H	13	ARG13	0.069	
204	  HE	1617.717	482.352	-1636.304	 H	13	ARG13	0.346	
205	1HH1	1616.743	479.786	-1634.185	 H	13	ARG13	0.448	
206	2HH1	1618.462	479.489	-1633.634	 H	13	ARG13	0.448	
207	1HH2	1619.641	481.995	-1635.666	 H	13	ARG13	0.448	
208	2HH2	1620.008	480.695	-1634.447	 H	13	ARG13	0.448	
209	   N	1612.703	481.773	-1639.816	N.am	14	VAL14	-0.416	
210	  CA	1613.028	481.415	-1641.193	C.3	14	VAL14	-0.087	
211	   C	1612.698	482.545	-1642.138	C.2	14	VAL14	0.597	
212	   O	1613.491	482.928	-1643.008	O.2	14	VAL14	-0.568	
213	  CB	1612.255	480.098	-1641.601	C.3	14	VAL14	0.299	
214	 CG1	1612.344	479.681	-1643.095	C.3	14	VAL14	-0.319	
215	 CG2	1612.687	478.845	-1640.802	C.3	14	VAL14	-0.319	
216	   H	1612.068	481.204	-1639.274	 H	14	VAL14	0.272	
217	  HA	1614.116	481.238	-1641.268	 H	14	VAL14	0.097	
218	  HB	1611.179	480.269	-1641.385	 H	14	VAL14	-0.030	
219	1HG1	1613.385	479.504	-1643.424	 H	14	VAL14	0.079	
220	2HG1	1611.771	478.758	-1643.308	 H	14	VAL14	0.079	
221	3HG1	1611.915	480.443	-1643.773	 H	14	VAL14	0.079	
222	1HG2	1612.600	479.003	-1639.711	 H	14	VAL14	0.079	
223	2HG2	1612.051	477.969	-1641.035	 H	14	VAL14	0.079	
224	3HG2	1613.735	478.555	-1641.008	 H	14	VAL14	0.079	
225	   N	1611.553	483.131	-1642.036	N.am	15	MET15	-0.416	
226	  CA	1611.233	484.224	-1642.949	C.3	15	MET15	-0.024	
227	   C	1612.263	485.324	-1642.860	C.2	15	MET15	0.597	
228	   O	1612.765	485.836	-1643.873	O.2	15	MET15	-0.568	
229	  CB	1609.811	484.770	-1642.640	C.3	15	MET15	0.034	
230	  CG	1608.649	483.772	-1642.833	C.3	15	MET15	0.002	
231	  SD	1607.075	484.638	-1642.718	S.3	15	MET15	-0.274	
232	  CE	1605.994	483.208	-1642.583	C.3	15	MET15	-0.054	
233	   H	1610.888	482.838	-1641.335	 H	15	MET15	0.272	
234	  HA	1611.258	483.838	-1643.985	 H	15	MET15	0.088	
235	 2HB	1609.609	485.649	-1643.281	 H	15	MET15	0.024	
236	 3HB	1609.775	485.161	-1641.603	 H	15	MET15	0.024	
237	 2HG	1608.692	482.985	-1642.055	 H	15	MET15	0.044	
238	 3HG	1608.712	483.257	-1643.809	 H	15	MET15	0.044	
239	 1HE	1606.138	482.520	-1643.435	 H	15	MET15	0.068	
240	 2HE	1606.203	482.654	-1641.650	 H	15	MET15	0.068	
241	 3HE	1604.936	483.523	-1642.566	 H	15	MET15	0.068	
242	   N	1612.631	485.745	-1641.698	N.am	16	ARG16	-0.348	
243	  CA	1613.628	486.808	-1641.614	C.3	16	ARG16	-0.264	
244	   C	1614.898	486.416	-1642.330	C.2	16	ARG16	0.734	
245	   O	1615.012	485.340	-1642.912	O.2	16	ARG16	-0.589	
246	  CB	1613.897	487.125	-1640.115	C.3	16	ARG16	-0.001	
247	  CG	1614.722	488.414	-1639.841	C.3	16	ARG16	0.039	
248	  CD	1614.972	488.633	-1638.340	C.3	16	ARG16	0.049	
249	  NE	1615.748	489.891	-1638.138	N.pl3	16	ARG16	-0.530	
250	  CZ	1616.139	490.373	-1636.962	C.cat	16	ARG16	0.808	
251	 NH1	1615.891	489.788	-1635.824	N.pl3	16	ARG16	-0.863	
252	 NH2	1616.803	491.486	-1636.943	N.pl3	16	ARG16	-0.863	
253	   H	1612.236	485.344	-1640.859	 H	16	ARG16	0.275	
254	  HA	1613.219	487.702	-1642.123	 H	16	ARG16	0.156	
255	 2HB	1614.394	486.249	-1639.649	 H	16	ARG16	0.033	
256	 3HB	1612.928	487.206	-1639.581	 H	16	ARG16	0.033	
257	 2HG	1614.192	489.285	-1640.278	 H	16	ARG16	0.029	
258	 3HG	1615.696	488.362	-1640.370	 H	16	ARG16	0.029	
259	 2HD	1615.520	487.758	-1637.927	 H	16	ARG16	0.069	
260	 3HD	1613.999	488.675	-1637.805	 H	16	ARG16	0.069	
261	  HE	1616.026	490.473	-1638.935	 H	16	ARG16	0.346	
262	1HH1	1615.366	488.915	-1635.909	 H	16	ARG16	0.448	
263	2HH1	1616.226	490.223	-1634.963	 H	16	ARG16	0.448	
264	1HH2	1616.988	491.929	-1637.844	 H	16	ARG16	0.448	
265	2HH2	1617.093	491.840	-1636.030	 H	16	ARG16	0.448	
@<TRIPOS>BOND
1 1 2 1
2 1 10 1
3 2 3 1
4 2 5 1
5 2 11 1
6 3 4 2
7 3 16 1
8 5 6 1
9 6 7 1
10 7 8 2
11 7 9 1
12 5 12 1
13 5 13 1
14 6 14 1
15 6 15 1
16 16 17 1
17 16 24 1
18 17 18 1
19 17 20 1
20 17 25 1
21 18 19 2
22 18 30 1
23 20 21 1
24 21 22 1
25 21 23 2
26 20 26 1
27 20 27 1
28 22 28 1
29 22 29 1
30 30 31 1
31 30 36 1
32 31 32 1
33 31 34 1
34 31 37 1
35 32 33 2
36 32 44 1
37 34 35 1
38 35 36 1
39 34 38 1
40 34 39 1
41 35 40 1
42 35 41 1
43 36 42 1
44 36 43 1
45 44 45 1
46 44 53 1
47 45 46 1
48 45 48 1
49 45 54 1
50 46 47 2
51 46 59 1
52 48 49 1
53 49 50 1
54 50 51 2
55 50 52 1
56 48 55 1
57 48 56 1
58 49 57 1
59 49 58 1
60 59 60 1
61 59 65 1
62 60 61 1
63 60 63 1
64 60 66 1
65 61 62 2
66 61 70 1
67 63 64 1
68 63 67 1
69 63 68 1
70 64 69 1
71 70 71 1
72 70 78 1
73 71 72 1
74 71 74 1
75 71 79 1
76 72 73 2
77 72 89 1
78 74 75 1
79 74 76 1
80 75 77 1
81 74 80 1
82 75 81 1
83 75 82 1
84 76 83 1
85 76 84 1
86 76 85 1
87 77 86 1
88 77 87 1
89 77 88 1
90 89 90 1
91 89 97 1
92 90 91 1
93 90 93 1
94 90 98 1
95 91 92 2
96 91 108 1
97 93 94 1
98 94 95 1
99 94 96 1
100 93 99 1
101 93 100 1
102 94 101 1
103 95 102 1
104 95 103 1
105 95 104 1
106 96 105 1
107 96 106 1
108 96 107 1
109 108 109 1
110 108 116 1
111 109 110 1
112 109 112 1
113 109 117 1
114 110 111 2
115 110 120 1
116 112 113 1
117 113 114 2
118 113 115 1
119 112 118 1
120 112 119 1
121 120 121 1
122 120 129 1
123 121 122 1
124 121 124 1
125 121 130 1
126 122 123 2
127 122 135 1
128 124 125 1
129 125 126 1
130 126 127 2
131 126 128 1
132 124 131 1
133 124 132 1
134 125 133 1
135 125 134 1
136 135 136 1
137 135 145 1
138 136 137 1
139 136 139 1
140 136 146 1
141 137 138 2
142 137 152 1
143 139 140 1
144 140 141 2
145 141 144 1
146 140 142 1
147 142 143 2
148 143 144 1
149 139 147 1
150 139 148 1
151 141 149 1
152 143 150 1
153 144 151 1
154 152 153 1
155 152 159 1
156 153 154 1
157 153 156 1
158 153 160 1
159 154 155 2
160 154 168 1
161 156 157 1
162 156 158 1
163 156 161 1
164 157 162 1
165 157 163 1
166 157 164 1
167 158 165 1
168 158 166 1
169 158 167 1
170 168 169 1
171 168 177 1
172 169 170 1
173 169 172 1
174 169 178 1
175 170 171 2
176 170 185 1
177 172 173 1
178 173 174 1
179 174 175 1
180 174 176 2
181 172 179 1
182 172 180 1
183 173 181 1
184 173 182 1
185 175 183 1
186 175 184 1
187 185 186 1
188 185 196 1
189 186 187 1
190 186 189 1
191 186 197 1
192 187 188 2
193 187 209 1
194 189 190 1
195 190 191 1
196 191 192 1
197 192 193 1
198 193 194 2
199 193 195 1
200 189 198 1
201 189 199 1
202 190 200 1
203 190 201 1
204 191 202 1
205 191 203 1
206 192 204 1
207 194 205 1
208 194 206 1
209 195 207 1
210 195 208 1
211 209 210 1
212 209 216 1
213 210 211 1
214 210 213 1
215 210 217 1
216 211 212 2
217 211 225 1
218 213 214 1
219 213 215 1
220 213 218 1
221 214 219 1
222 214 220 1
223 214 221 1
224 215 222 1
225 215 223 1
226 215 224 1
227 225 226 1
228 225 233 1
229 226 227 1
230 226 229 1
231 226 234 1
232 227 228 2
233 227 242 1
234 229 230 1
235 230 231 1
236 231 232 1
237 229 235 1
238 229 236 1
239 230 237 1
240 230 238 1
241 232 239 1
242 232 240 1
243 232 241 1
244 242 243 1
245 242 253 1
246 243 244 1
247 243 246 1
248 243 254 1
249 244 245 2
250 246 247 1
251 247 248 1
252 248 249 1
253 249 250 1
254 250 251 2
255 250 252 1
256 246 255 1
257 246 256 1
258 247 257 1
259 247 258 1
260 248 259 1
261 248 260 1
262 249 261 1
263 251 262 1
264 251 263 1
265 252 264 1
266 252 265 1
@<TRIPOS>SUBSTRUCTURE
1	GLU1	1	RESIDUE	1 ****	GLU
2	ASN2	16	RESIDUE	1 ****	ASN
3	PRO3	30	RESIDUE	1 ****	PRO
4	GLU4	44	RESIDUE	1 ****	GLU
5	SER5	59	RESIDUE	1 ****	SER
6	ILE6	70	RESIDUE	1 ****	ILE
7	LEU7	89	RESIDUE	1 ****	LEU
8	ASP8	108	RESIDUE	1 ****	ASP
9	GLU9	120	RESIDUE	1 ****	GLU
10	HIS10	135	RESIDUE	1 ****	HIS
11	VAL11	152	RESIDUE	1 ****	VAL
12	GLN12	168	RESIDUE	1 ****	GLN
13	ARG13	185	RESIDUE	1 ****	ARG
14	VAL14	209	RESIDUE	1 ****	VAL
15	MET15	225	RESIDUE	1 ****	MET
16	ARG16	242	RESIDUE	1 ****	ARG
