REMARK WARNING: 32 MAX_TORS EXCEEDED!!!
REMARK  66 active torsions:
REMARK  status: ('A' for Active; 'I' for Inactive)
REMARK    1  A    between atoms: N_1  and  CA_2 
REMARK    2  A    between atoms: CA_2  and  C_3 
REMARK    3  A    between atoms: CA_2  and  CB_5 
REMARK       I    between atoms: C_3  and  N_11 
REMARK    4  A    between atoms: CB_5  and  CG_6 
REMARK    5  A    between atoms: CG_6  and  CD_7 
REMARK    6  A    between atoms: N_11  and  CA_12 
REMARK    7  A    between atoms: CA_12  and  C_13 
REMARK    8  A    between atoms: CA_12  and  CB_15 
REMARK       I    between atoms: C_13  and  N_22 
REMARK    9  A    between atoms: CB_15  and  CG_16 
REMARK       I    between atoms: CG_16  and  ND2_17 
REMARK   10  A    between atoms: CA_23  and  C_24 
REMARK       I    between atoms: C_24  and  N_29 
REMARK   11  A    between atoms: N_29  and  CA_30 
REMARK   12  A    between atoms: CA_30  and  C_31 
REMARK   13  A    between atoms: CA_30  and  CB_33 
REMARK       I    between atoms: C_31  and  N_39 
REMARK   14  A    between atoms: CB_33  and  CG_34 
REMARK   15  A    between atoms: CG_34  and  CD_35 
REMARK   16  A    between atoms: N_39  and  CA_40 
REMARK   17  A    between atoms: CA_40  and  C_41 
REMARK   18  A    between atoms: CA_40  and  CB_43 
REMARK       I    between atoms: C_41  and  N_47 
REMARK   19  A    between atoms: CB_43  and  OG_44 
REMARK   20  A    between atoms: N_47  and  CA_48 
REMARK   21  A    between atoms: CA_48  and  C_49 
REMARK   22  A    between atoms: CA_48  and  CB_51 
REMARK       I    between atoms: C_49  and  N_56 
REMARK   23  A    between atoms: CB_51  and  CG1_52 
REMARK   24  A    between atoms: N_56  and  CA_57 
REMARK   25  A    between atoms: CA_57  and  C_58 
REMARK   26  A    between atoms: CA_57  and  CB_60 
REMARK       I    between atoms: C_58  and  N_65 
REMARK   27  A    between atoms: CB_60  and  CG_61 
REMARK   28  A    between atoms: N_65  and  CA_66 
REMARK   29  A    between atoms: CA_66  and  C_67 
REMARK   30  A    between atoms: CA_66  and  CB_69 
REMARK       I    between atoms: C_67  and  N_74 
REMARK   31  A    between atoms: CB_69  and  CG_70 
REMARK   32  A    between atoms: N_74  and  CA_75 
REMARK   33  A    between atoms: CA_75  and  C_76 
REMARK   34  A    between atoms: CA_75  and  CB_78 
REMARK       I    between atoms: C_76  and  N_84 
REMARK   35  A    between atoms: CB_78  and  CG_79 
REMARK   36  A    between atoms: CG_79  and  CD_80 
REMARK   37  A    between atoms: N_84  and  CA_85 
REMARK   38  A    between atoms: CA_85  and  C_86 
REMARK   39  A    between atoms: CA_85  and  CB_88 
REMARK       I    between atoms: C_86  and  N_96 
REMARK   40  A    between atoms: CB_88  and  CG_89 
REMARK   41  A    between atoms: N_96  and  CA_97 
REMARK   42  A    between atoms: CA_97  and  C_98 
REMARK   43  A    between atoms: CA_97  and  CB_100 
REMARK       I    between atoms: C_98  and  N_104 
REMARK   44  A    between atoms: N_104  and  CA_105 
REMARK   45  A    between atoms: CA_105  and  C_106 
REMARK   46  A    between atoms: CA_105  and  CB_108 
REMARK       I    between atoms: C_106  and  N_116 
REMARK   47  A    between atoms: CB_108  and  CG_109 
REMARK   48  A    between atoms: CG_109  and  CD_110 
REMARK       I    between atoms: CD_110  and  NE2_111 
REMARK   49  A    between atoms: N_116  and  CA_117 
REMARK   50  A    between atoms: CA_117  and  C_118 
REMARK   51  A    between atoms: CA_117  and  CB_120 
REMARK       I    between atoms: C_118  and  N_133 
REMARK   52  A    between atoms: CB_120  and  CG_121 
REMARK   53  A    between atoms: CG_121  and  CD_122 
REMARK   54  A    between atoms: CD_122  and  NE_123 
REMARK       I    between atoms: NE_123  and  CZ_124 
REMARK       I    between atoms: CZ_124  and  NH1_125 
REMARK   55  A    between atoms: N_133  and  CA_134 
REMARK   56  A    between atoms: CA_134  and  C_135 
REMARK   57  A    between atoms: CA_134  and  CB_137 
REMARK       I    between atoms: C_135  and  N_141 
REMARK   58  A    between atoms: N_141  and  CA_142 
REMARK   59  A    between atoms: CA_142  and  C_143 
REMARK   60  A    between atoms: CA_142  and  CB_145 
REMARK       I    between atoms: C_143  and  N_150 
REMARK   61  A    between atoms: CB_145  and  CG_146 
REMARK   62  A    between atoms: CG_146  and  SD_147 
REMARK   63  A    between atoms: N_150  and  CA_151 
REMARK   64  A    between atoms: CA_151  and  C_152 
REMARK   65  A    between atoms: CA_151  and  CB_154 
REMARK   66  A    between atoms: CB_154  and  SG_155 
ROOT
ATOM      1  CA  GLU d   9    2595.072 799.969-2708.942  0.00  0.00     0.177 C 
ENDROOT
BRANCH   1   2
ATOM      2  N   GLU d   9    2593.769 799.312-2708.996  0.00  0.00    -0.346 N 
ATOM      3  C   ASP d   8    2593.089 799.362-2710.092  0.00  0.00     0.241 C 
ATOM      4  O   ASP d   8    2593.562 799.966-2711.067  0.00  0.00    -0.271 OA
ATOM      5  H   GLU d   9    2593.406 798.826-2708.189  0.00  0.00     0.163 HD
BRANCH   3   6
ATOM      6  CA  ASP d   8    2591.742 798.683-2710.148  0.00  0.00     0.186 C 
BRANCH   6   7
ATOM      7  N   ASP d   8    2591.812 797.333-2709.594  0.00  0.00    -0.346 N 
ATOM      8  C   LEU d   7    2592.649 796.492-2710.100  0.00  0.00     0.241 C 
ATOM      9  O   LEU d   7    2593.370 796.854-2711.042  0.00  0.00    -0.271 OA
ATOM     10  H   ASP d   8    2591.214 797.063-2708.826  0.00  0.00     0.163 HD
BRANCH   8  11
ATOM     11  CA  LEU d   7    2592.721 795.097-2709.527  0.00  0.00     0.177 C 
BRANCH  11  12
ATOM     12  N   LEU d   7    2592.776 795.133-2708.069  0.00  0.00    -0.346 N 
ATOM     13  C   ILE d   6    2593.722 795.796-2707.495  0.00  0.00     0.241 C 
ATOM     14  O   ILE d   6    2594.556 796.383-2708.199  0.00  0.00    -0.271 OA
ATOM     15  H   LEU d   7    2592.083 794.646-2707.517  0.00  0.00     0.163 HD
BRANCH  13  16
ATOM     16  CA  ILE d   6    2593.779 795.834-2705.987  0.00  0.00     0.180 C 
BRANCH  16  17
ATOM     17  N   ILE d   6    2592.466 796.129-2705.421  0.00  0.00    -0.346 N 
ATOM     18  C   SER d   5    2591.861 797.213-2705.776  0.00  0.00     0.243 C 
ATOM     19  O   SER d   5    2592.409 797.966-2706.580  0.00  0.00    -0.271 OA
ATOM     20  H   ILE d   6    2592.037 795.495-2704.763  0.00  0.00     0.163 HD
BRANCH  18  21
ATOM     21  CA  SER d   5    2590.502 797.519-2705.190  0.00  0.00     0.200 C 
BRANCH  21  22
ATOM     22  N   SER d   5    2589.633 796.348-2705.249  0.00  0.00    -0.344 N 
ATOM     23  C   GLU d   4    2589.406 795.795-2706.393  0.00  0.00     0.241 C 
ATOM     24  O   GLU d   4    2589.932 796.274-2707.407  0.00  0.00    -0.271 OA
ATOM     25  H   SER d   5    2589.215 795.976-2704.408  0.00  0.00     0.163 HD
BRANCH  23  26
ATOM     26  CA  GLU d   4    2588.506 794.584-2706.454  0.00  0.00     0.177 C 
BRANCH  26  27
ATOM     27  N   GLU d   4    2588.865 793.613-2705.424  0.00  0.00    -0.346 N 
ATOM     28  C   PRO d   3    2590.070 793.153-2705.392  0.00  0.00     0.241 C 
ATOM     29  O   PRO d   3    2590.894 793.536-2706.223  0.00  0.00    -0.271 OA
ATOM     30  H   GLU d   4    2588.181 793.307-2704.748  0.00  0.00     0.163 HD
BRANCH  28  31
ATOM     31  CA  PRO d   3    2590.468 792.129-2704.314  0.00  0.00     0.179 C 
ATOM     32  N   PRO d   3    2590.016 792.539-2702.993  0.00  0.00    -0.337 N 
ATOM     33  C   ASN d   2    2590.537 793.534-2702.359  0.00  0.00     0.243 C 
ATOM     34  CD  PRO d   3    2588.938 791.746-2702.444  0.00  0.00     0.127 C 
ATOM     35  O   ASN d   2    2591.452 794.164-2702.887  0.00  0.00    -0.271 OA
ATOM     36  CG  PRO d   3    2588.480 790.927-2703.654  0.00  0.00     0.022 C 
ATOM     37  CB  PRO d   3    2589.764 790.775-2704.484  0.00  0.00     0.037 C 
BRANCH  33  38
ATOM     38  CA  ASN d   2    2590.006 793.889-2700.990  0.00  0.00     0.185 C 
BRANCH  38  39
ATOM     39  N   ASN d   2    2588.547 793.928-2700.990  0.00  0.00    -0.346 N 
ATOM     40  C   GLU d   1    2587.942 794.714-2701.816  0.00  0.00     0.242 C 
ATOM     41  O   GLU d   1    2588.618 795.413-2702.584  0.00  0.00    -0.271 OA
ATOM     42  H   ASN d   2    2588.018 793.349-2700.354  0.00  0.00     0.163 HD
BRANCH  40  43
ATOM     43  CA  GLU d   1    2586.433 794.754-2701.816  0.00  0.00     0.191 C 
BRANCH  43  44
ATOM     44  N   GLU d   1    2585.874 793.405-2701.816  0.00  0.00    -0.326 NA
ATOM     45  H   GLU d   1    2586.501 792.526-2701.816  0.00  0.00     0.180 HD
ENDBRANCH  43  44
BRANCH  43  46
ATOM     46  CB  GLU d   1    2585.910 795.539-2700.579  0.00  0.00     0.047 C 
BRANCH  46  47
ATOM     47  CG  GLU d   1    2586.385 797.024-2700.468  0.00  0.00     0.116 C 
BRANCH  47  48
ATOM     48  CD  GLU d   1    2585.961 797.828-2699.253  0.00  0.00     0.172 C 
ATOM     49  OE1 GLU d   1    2585.233 797.326-2698.375  0.00  0.00    -0.648 OA
ATOM     50  OE2 GLU d   1    2586.391 798.998-2699.181  0.00  0.00    -0.648 OA
ENDBRANCH  47  48
ENDBRANCH  46  47
ENDBRANCH  43  46
ENDBRANCH  40  43
ENDBRANCH  38  39
BRANCH  38  51
ATOM     51  CB  ASN d   2    2590.498 792.866-2699.926  0.00  0.00     0.137 C 
BRANCH  51  52
ATOM     52  CG  ASN d   2    2590.034 793.090-2698.483  0.00  0.00     0.217 C 
ATOM     53  ND2 ASN d   2    2590.628 794.005-2697.764  0.00  0.00    -0.370 N 
ATOM     54 21HD ASN d   2    2590.147 794.178-2696.878  0.00  0.00     0.159 HD
ATOM     55 22HD ASN d   2    2591.330 794.576-2698.233  0.00  0.00     0.159 HD
ATOM     56  OD1 ASN d   2    2589.113 792.457-2697.989  0.00  0.00    -0.274 OA
ENDBRANCH  51  52
ENDBRANCH  38  51
ENDBRANCH  33  38
ENDBRANCH  28  31
ENDBRANCH  26  27
BRANCH  26  57
ATOM     57  CB  GLU d   4    2587.018 795.003-2706.284  0.00  0.00     0.045 C 
BRANCH  57  58
ATOM     58  CG  GLU d   4    2586.470 796.007-2707.350  0.00  0.00     0.116 C 
BRANCH  58  59
ATOM     59  CD  GLU d   4    2585.044 796.504-2707.207  0.00  0.00     0.172 C 
ATOM     60  OE1 GLU d   4    2584.317 796.106-2706.277  0.00  0.00    -0.648 OA
ATOM     61  OE2 GLU d   4    2584.655 797.333-2708.056  0.00  0.00    -0.648 OA
ENDBRANCH  58  59
ENDBRANCH  57  58
ENDBRANCH  26  57
ENDBRANCH  23  26
ENDBRANCH  21  22
BRANCH  21  62
ATOM     62  CB  SER d   5    2590.614 798.051-2703.740  0.00  0.00     0.199 C 
BRANCH  62  63
ATOM     63  OG  SER d   5    2591.345 797.171-2702.879  0.00  0.00    -0.398 OA
ATOM     64  HG  SER d   5    2590.856 796.346-2702.828  0.00  0.00     0.209 HD
ENDBRANCH  62  63
ENDBRANCH  21  62
ENDBRANCH  18  21
ENDBRANCH  16  17
BRANCH  16  65
ATOM     65  CB  ILE d   6    2594.378 794.497-2705.387  0.00  0.00     0.013 C 
ATOM     66  CG2 ILE d   6    2595.819 794.195-2705.902  0.00  0.00     0.012 C 
BRANCH  65  67
ATOM     67  CG1 ILE d   6    2594.397 794.435-2703.826  0.00  0.00     0.002 C 
ATOM     68  CD1 ILE d   6    2594.666 793.046-2703.211  0.00  0.00     0.005 C 
ENDBRANCH  65  67
ENDBRANCH  16  65
ENDBRANCH  13  16
ENDBRANCH  11  12
BRANCH  11  69
ATOM     69  CB  LEU d   7    2591.517 794.237-2710.008  0.00  0.00     0.038 C 
BRANCH  69  70
ATOM     70  CG  LEU d   7    2591.444 792.758-2709.541  0.00  0.00    -0.020 C 
ATOM     71  CD1 LEU d   7    2590.254 792.052-2710.206  0.00  0.00     0.009 C 
ATOM     72  CD2 LEU d   7    2592.738 791.978-2709.833  0.00  0.00     0.009 C 
ENDBRANCH  69  70
ENDBRANCH  11  69
ENDBRANCH   8  11
ENDBRANCH   6   7
BRANCH   6  73
ATOM     73  CB  ASP d   8    2590.664 799.523-2709.407  0.00  0.00     0.147 C 
BRANCH  73  74
ATOM     74  CG  ASP d   8    2590.446 800.943-2709.948  0.00  0.00     0.175 C 
ATOM     75  OD1 ASP d   8    2590.511 801.141-2711.179  0.00  0.00    -0.648 OA
ATOM     76  OD2 ASP d   8    2590.255 801.870-2709.134  0.00  0.00    -0.648 OA
ENDBRANCH  73  74
ENDBRANCH   6  73
ENDBRANCH   3   6
ENDBRANCH   1   2
BRANCH   1  77
ATOM     77  C   GLU d   9    2595.990 799.441-2710.018  0.00  0.00     0.241 C 
ATOM     78  O   GLU d   9    2596.654 800.194-2710.744  0.00  0.00    -0.271 OA
ATOM     79  N   HIS d  10    2596.086 798.165-2710.186  0.00  0.00    -0.346 N 
ATOM     80  H   HIS d  10    2595.555 797.530-2709.607  0.00  0.00     0.163 HD
BRANCH  79  81
ATOM     81  CA  HIS d  10    2596.973 797.653-2711.227  0.00  0.00     0.182 C 
BRANCH  81  82
ATOM     82  C   HIS d  10    2596.606 798.217-2712.578  0.00  0.00     0.241 C 
ATOM     83  O   HIS d  10    2597.459 798.681-2713.350  0.00  0.00    -0.271 OA
ATOM     84  N   VAL d  11    2595.368 798.217-2712.941  0.00  0.00    -0.346 N 
ATOM     85  H   VAL d  11    2594.655 797.844-2712.330  0.00  0.00     0.163 HD
BRANCH  84  86
ATOM     86  CA  VAL d  11    2595.013 798.762-2714.248  0.00  0.00     0.180 C 
BRANCH  86  87
ATOM     87  C   VAL d  11    2595.478 800.192-2714.381  0.00  0.00     0.241 C 
ATOM     88  O   VAL d  11    2596.079 800.597-2715.385  0.00  0.00    -0.271 OA
ATOM     89  N   GLN d  12    2595.242 801.019-2713.419  0.00  0.00    -0.346 N 
ATOM     90  H   GLN d  12    2594.753 800.713-2712.590  0.00  0.00     0.163 HD
BRANCH  89  91
ATOM     91  CA  GLN d  12    2595.691 802.401-2713.547  0.00  0.00     0.177 C 
BRANCH  91  92
ATOM     92  C   GLN d  12    2597.181 802.468-2713.785  0.00  0.00     0.241 C 
ATOM     93  O   GLN d  12    2597.668 803.175-2714.665  0.00  0.00    -0.271 OA
ATOM     94  N   ARG d  13    2597.966 801.761-2713.044  0.00  0.00    -0.346 N 
ATOM     95  H   ARG d  13    2597.589 801.172-2712.315  0.00  0.00     0.163 HD
BRANCH  94  96
ATOM     96  CA  ARG d  13    2599.406 801.826-2713.275  0.00  0.00     0.176 C 
BRANCH  96  97
ATOM     97  C   ARG d  13    2599.741 801.454-2714.700  0.00  0.00     0.241 C 
ATOM     98  O   ARG d  13    2600.510 802.125-2715.385  0.00  0.00    -0.271 OA
ATOM     99  N   VAL d  14    2599.205 800.399-2715.214  0.00  0.00    -0.346 N 
ATOM    100  H   VAL d  14    2598.570 799.831-2714.671  0.00  0.00     0.163 HD
BRANCH  99 101
ATOM    101  CA  VAL d  14    2599.529 800.039-2716.591  0.00  0.00     0.180 C 
BRANCH 101 102
ATOM    102  C   VAL d  14    2599.199 801.169-2717.537  0.00  0.00     0.241 C 
ATOM    103  O   VAL d  14    2599.992 801.550-2718.407  0.00  0.00    -0.271 OA
ATOM    104  N   MET d  15    2598.055 801.755-2717.436  0.00  0.00    -0.346 N 
ATOM    105  H   MET d  15    2597.390 801.462-2716.734  0.00  0.00     0.163 HD
BRANCH 104 106
ATOM    106  CA  MET d  15    2597.734 802.847-2718.350  0.00  0.00     0.177 C 
BRANCH 106 107
ATOM    107  C   MET d  15    2598.765 803.947-2718.262  0.00  0.00     0.241 C 
ATOM    108  O   MET d  15    2599.267 804.457-2719.275  0.00  0.00    -0.271 OA
ATOM    109  N   CYS d  16    2599.134 804.368-2717.100  0.00  0.00    -0.347 N 
ATOM    110  H   CYS d  16    2598.739 803.968-2716.261  0.00  0.00     0.163 HD
BRANCH 109 111
ATOM    111  CA  CYS d  16    2600.130 805.432-2717.016  0.00  0.00     0.171 C 
BRANCH 111 112
ATOM    112  C   CYS d  16    2601.402 805.041-2717.732  0.00  0.00     0.220 C 
ATOM    113  O   CYS d  16    2601.526 803.945-2718.299  0.00  0.00    -0.287 OA
ENDBRANCH 111 112
BRANCH 111 114
ATOM    114  CB  CYS d  16    2600.369 805.763-2715.530  0.00  0.00     0.104 C 
BRANCH 114 115
ATOM    115  SG  CYS d  16    2601.458 807.196-2715.361  0.00  0.00    -0.180 SA
ATOM    116  HG  CYS d  16    2602.546 806.526-2714.990  0.00  0.00     0.101 HD
ENDBRANCH 114 115
ENDBRANCH 111 114
ENDBRANCH 109 111
ENDBRANCH 106 107
BRANCH 106 117
ATOM    117  CB  MET d  15    2596.313 803.393-2718.041  0.00  0.00     0.045 C 
BRANCH 117 118
ATOM    118  CG  MET d  15    2595.151 802.395-2718.231  0.00  0.00     0.076 C 
BRANCH 118 119
ATOM    119  SD  MET d  15    2593.577 803.261-2718.117  0.00  0.00    -0.173 SA
ATOM    120  CE  MET d  15    2592.496 801.832-2717.980  0.00  0.00     0.089 C 
ENDBRANCH 118 119
ENDBRANCH 117 118
ENDBRANCH 106 117
ENDBRANCH 104 106
ENDBRANCH 101 102
BRANCH 101 121
ATOM    121  CB  VAL d  14    2598.756 798.722-2716.997  0.00  0.00     0.009 C 
ATOM    122  CG1 VAL d  14    2598.845 798.302-2718.491  0.00  0.00     0.012 C 
ATOM    123  CG2 VAL d  14    2599.188 797.470-2716.197  0.00  0.00     0.012 C 
ENDBRANCH 101 121
ENDBRANCH  99 101
ENDBRANCH  96  97
BRANCH  96 124
ATOM    124  CB  ARG d  13    2600.119 800.888-2712.261  0.00  0.00     0.036 C 
BRANCH 124 125
ATOM    125  CG  ARG d  13    2601.664 801.041-2712.181  0.00  0.00     0.023 C 
BRANCH 125 126
ATOM    126  CD  ARG d  13    2602.291 800.053-2711.182  0.00  0.00     0.138 C 
BRANCH 126 127
ATOM    127  NE  ARG d  13    2603.768 800.260-2711.132  0.00  0.00    -0.227 N 
ATOM    128  CZ  ARG d  13    2604.616 799.569-2710.377  0.00  0.00     0.665 C 
ATOM    129  NH1 ARG d  13    2604.251 798.605-2709.579  0.00  0.00    -0.235 N 
ATOM    130  NH2 ARG d  13    2605.876 799.867-2710.434  0.00  0.00    -0.235 N 
ATOM    131 11HH ARG d  13    2603.246 798.419-2709.581  0.00  0.00     0.174 HD
ATOM    132 12HH ARG d  13    2604.965 798.122-2709.030  0.00  0.00     0.174 HD
ATOM    133 21HH ARG d  13    2606.144 800.625-2711.066  0.00  0.00     0.174 HD
ATOM    134 22HH ARG d  13    2606.511 799.326-2709.846  0.00  0.00     0.174 HD
ATOM    135  HE  ARG d  13    2604.219 800.982-2711.704  0.00  0.00     0.177 HD
ENDBRANCH 126 127
ENDBRANCH 125 126
ENDBRANCH 124 125
ENDBRANCH  96 124
ENDBRANCH  94  96
ENDBRANCH  91  92
BRANCH  91 136
ATOM    136  CB  GLN d  12    2595.301 803.170-2712.265  0.00  0.00     0.044 C 
BRANCH 136 137
ATOM    137  CG  GLN d  12    2595.662 804.691-2712.235  0.00  0.00     0.105 C 
BRANCH 137 138
ATOM    138  CD  GLN d  12    2595.361 805.506-2710.970  0.00  0.00     0.215 C 
ATOM    139  NE2 GLN d  12    2594.793 804.930-2709.941  0.00  0.00    -0.370 N 
ATOM    140 21HE GLN d  12    2594.687 805.525-2709.118  0.00  0.00     0.159 HD
ATOM    141 22HE GLN d  12    2594.629 803.927-2710.044  0.00  0.00     0.159 HD
ATOM    142  OE1 GLN d  12    2595.663 806.686-2710.893  0.00  0.00    -0.274 OA
ENDBRANCH 137 138
ENDBRANCH 136 137
ENDBRANCH  91 136
ENDBRANCH  89  91
ENDBRANCH  86  87
BRANCH  86 143
ATOM    143  CB  VAL d  11    2593.452 798.656-2714.467  0.00  0.00     0.009 C 
ATOM    144  CG1 VAL d  11    2592.883 799.360-2715.730  0.00  0.00     0.012 C 
ATOM    145  CG2 VAL d  11    2592.927 797.202-2714.539  0.00  0.00     0.012 C 
ENDBRANCH  86 143
ENDBRANCH  84  86
ENDBRANCH  81  82
BRANCH  81 146
ATOM    146  CB  HIS d  10    2596.808 796.124-2711.221  0.00  0.00     0.095 C 
BRANCH 146 147
ATOM    147  CG  HIS d  10    2598.094 795.413-2710.913  0.00  0.00     0.053 A 
ATOM    148  CD2 HIS d  10    2598.475 795.079-2709.621  0.00  0.00     0.116 A 
ATOM    149  NE2 HIS d  10    2599.689 794.446-2709.687  0.00  0.00    -0.359 N 
ATOM    150  CE1 HIS d  10    2599.952 794.449-2711.022  0.00  0.00     0.207 A 
ATOM    151  2HE HIS d  10    2600.256 794.069-2708.914  0.00  0.00     0.166 HD
ATOM    152  ND1 HIS d  10    2599.045 795.007-2711.846  0.00  0.00    -0.247 NA
ENDBRANCH 146 147
ENDBRANCH  81 146
ENDBRANCH  79  81
ENDBRANCH   1  77
BRANCH   1 153
ATOM    153  CB  GLU d   9    2595.706 799.762-2707.536  0.00  0.00     0.045 C 
BRANCH 153 154
ATOM    154  CG  GLU d   9    2597.089 800.454-2707.308  0.00  0.00     0.116 C 
BRANCH 154 155
ATOM    155  CD  GLU d   9    2597.791 800.241-2705.979  0.00  0.00     0.172 C 
ATOM    156  OE1 GLU d   9    2597.269 799.550-2705.083  0.00  0.00    -0.648 OA
ATOM    157  OE2 GLU d   9    2598.910 800.778-2705.848  0.00  0.00    -0.648 OA
ENDBRANCH 154 155
ENDBRANCH 153 154
ENDBRANCH   1 153
TORSDOF 66
