REMARK WARNING: 32 MAX_TORS EXCEEDED!!!
REMARK  67 active torsions:
REMARK  status: ('A' for Active; 'I' for Inactive)
REMARK    1  A    between atoms: N_1  and  CA_2 
REMARK    2  A    between atoms: CA_2  and  C_3 
REMARK    3  A    between atoms: CA_2  and  CB_5 
REMARK       I    between atoms: C_3  and  N_11 
REMARK    4  A    between atoms: CB_5  and  CG_6 
REMARK    5  A    between atoms: CG_6  and  CD_7 
REMARK    6  A    between atoms: N_11  and  CA_12 
REMARK    7  A    between atoms: CA_12  and  C_13 
REMARK    8  A    between atoms: CA_12  and  CB_15 
REMARK       I    between atoms: C_13  and  N_22 
REMARK    9  A    between atoms: CB_15  and  CG_16 
REMARK       I    between atoms: CG_16  and  ND2_17 
REMARK   10  A    between atoms: CA_23  and  C_24 
REMARK       I    between atoms: C_24  and  N_29 
REMARK   11  A    between atoms: N_29  and  CA_30 
REMARK   12  A    between atoms: CA_30  and  C_31 
REMARK   13  A    between atoms: CA_30  and  CB_33 
REMARK       I    between atoms: C_31  and  N_39 
REMARK   14  A    between atoms: CB_33  and  CG_34 
REMARK   15  A    between atoms: CG_34  and  CD_35 
REMARK   16  A    between atoms: N_39  and  CA_40 
REMARK   17  A    between atoms: CA_40  and  C_41 
REMARK   18  A    between atoms: CA_40  and  CB_43 
REMARK       I    between atoms: C_41  and  N_47 
REMARK   19  A    between atoms: CB_43  and  OG_44 
REMARK   20  A    between atoms: N_47  and  CA_48 
REMARK   21  A    between atoms: CA_48  and  C_49 
REMARK   22  A    between atoms: CA_48  and  CB_51 
REMARK       I    between atoms: C_49  and  N_56 
REMARK   23  A    between atoms: CB_51  and  CG1_52 
REMARK   24  A    between atoms: N_56  and  CA_57 
REMARK   25  A    between atoms: CA_57  and  C_58 
REMARK   26  A    between atoms: CA_57  and  CB_60 
REMARK       I    between atoms: C_58  and  N_65 
REMARK   27  A    between atoms: CB_60  and  CG_61 
REMARK   28  A    between atoms: N_65  and  CA_66 
REMARK   29  A    between atoms: CA_66  and  C_67 
REMARK   30  A    between atoms: CA_66  and  CB_69 
REMARK       I    between atoms: C_67  and  N_74 
REMARK   31  A    between atoms: CB_69  and  CG_70 
REMARK   32  A    between atoms: N_74  and  CA_75 
REMARK   33  A    between atoms: CA_75  and  C_76 
REMARK   34  A    between atoms: CA_75  and  CB_78 
REMARK       I    between atoms: C_76  and  N_84 
REMARK   35  A    between atoms: CB_78  and  CG_79 
REMARK   36  A    between atoms: CG_79  and  CD_80 
REMARK   37  A    between atoms: N_84  and  CA_85 
REMARK   38  A    between atoms: CA_85  and  C_86 
REMARK   39  A    between atoms: CA_85  and  CB_88 
REMARK       I    between atoms: C_86  and  N_96 
REMARK   40  A    between atoms: CB_88  and  CG_89 
REMARK   41  A    between atoms: N_96  and  CA_97 
REMARK   42  A    between atoms: CA_97  and  C_98 
REMARK   43  A    between atoms: CA_97  and  CB_100 
REMARK       I    between atoms: C_98  and  N_104 
REMARK   44  A    between atoms: N_104  and  CA_105 
REMARK   45  A    between atoms: CA_105  and  C_106 
REMARK   46  A    between atoms: CA_105  and  CB_108 
REMARK       I    between atoms: C_106  and  N_116 
REMARK   47  A    between atoms: CB_108  and  CG_109 
REMARK   48  A    between atoms: CG_109  and  CD_110 
REMARK       I    between atoms: CD_110  and  NE2_111 
REMARK   49  A    between atoms: N_116  and  CA_117 
REMARK   50  A    between atoms: CA_117  and  C_118 
REMARK   51  A    between atoms: CA_117  and  CB_120 
REMARK       I    between atoms: C_118  and  N_125 
REMARK   52  A    between atoms: CB_120  and  CG_121 
REMARK   53  A    between atoms: CG_121  and  SD_122 
REMARK   54  A    between atoms: N_125  and  CA_126 
REMARK   55  A    between atoms: CA_126  and  C_127 
REMARK   56  A    between atoms: CA_126  and  CB_129 
REMARK       I    between atoms: C_127  and  N_133 
REMARK   57  A    between atoms: N_133  and  CA_134 
REMARK   58  A    between atoms: CA_134  and  C_135 
REMARK   59  A    between atoms: CA_134  and  CB_137 
REMARK       I    between atoms: C_135  and  N_142 
REMARK   60  A    between atoms: CB_137  and  CG_138 
REMARK   61  A    between atoms: CG_138  and  SD_139 
REMARK   62  A    between atoms: N_142  and  CA_143 
REMARK   63  A    between atoms: CA_143  and  C_144 
REMARK   64  A    between atoms: CA_143  and  CB_146 
REMARK   65  A    between atoms: CB_146  and  CG_147 
REMARK   66  A    between atoms: CG_147  and  CD_148 
REMARK   67  A    between atoms: CD_148  and  NE_149 
REMARK       I    between atoms: NE_149  and  CZ_150 
REMARK       I    between atoms: CZ_150  and  NH1_151 
ROOT
ATOM      1  CA  GLU d   9    2050.221 624.744-2114.262  0.00  0.00     0.177 C 
ENDROOT
BRANCH   1   2
ATOM      2  N   GLU d   9    2048.919 624.087-2114.318  0.00  0.00    -0.346 N 
ATOM      3  C   ASP d   8    2048.239 624.137-2115.413  0.00  0.00     0.241 C 
ATOM      4  O   ASP d   8    2048.712 624.742-2116.388  0.00  0.00    -0.271 OA
ATOM      5  H   GLU d   9    2048.555 623.600-2113.511  0.00  0.00     0.163 HD
BRANCH   3   6
ATOM      6  CA  ASP d   8    2046.893 623.457-2115.471  0.00  0.00     0.186 C 
BRANCH   6   7
ATOM      7  N   ASP d   8    2046.963 622.107-2114.917  0.00  0.00    -0.346 N 
ATOM      8  C   LEU d   7    2047.800 621.266-2115.424  0.00  0.00     0.241 C 
ATOM      9  O   LEU d   7    2048.521 621.629-2116.366  0.00  0.00    -0.271 OA
ATOM     10  H   ASP d   8    2046.365 621.836-2114.150  0.00  0.00     0.163 HD
BRANCH   8  11
ATOM     11  CA  LEU d   7    2047.872 619.871-2114.852  0.00  0.00     0.177 C 
BRANCH  11  12
ATOM     12  N   LEU d   7    2047.927 619.907-2113.393  0.00  0.00    -0.346 N 
ATOM     13  C   ILE d   6    2048.873 620.570-2112.819  0.00  0.00     0.241 C 
ATOM     14  O   ILE d   6    2049.707 621.157-2113.523  0.00  0.00    -0.271 OA
ATOM     15  H   LEU d   7    2047.235 619.420-2112.842  0.00  0.00     0.163 HD
BRANCH  13  16
ATOM     16  CA  ILE d   6    2048.930 620.607-2111.311  0.00  0.00     0.180 C 
BRANCH  16  17
ATOM     17  N   ILE d   6    2047.617 620.902-2110.745  0.00  0.00    -0.346 N 
ATOM     18  C   SER d   5    2047.012 621.986-2111.099  0.00  0.00     0.243 C 
ATOM     19  O   SER d   5    2047.560 622.739-2111.904  0.00  0.00    -0.271 OA
ATOM     20  H   ILE d   6    2047.188 620.268-2110.086  0.00  0.00     0.163 HD
BRANCH  18  21
ATOM     21  CA  SER d   5    2045.653 622.291-2110.513  0.00  0.00     0.200 C 
BRANCH  21  22
ATOM     22  N   SER d   5    2044.784 621.120-2110.572  0.00  0.00    -0.344 N 
ATOM     23  C   GLU d   4    2044.556 620.568-2111.715  0.00  0.00     0.241 C 
ATOM     24  O   GLU d   4    2045.083 621.047-2112.729  0.00  0.00    -0.271 OA
ATOM     25  H   SER d   5    2044.367 620.749-2109.730  0.00  0.00     0.163 HD
BRANCH  23  26
ATOM     26  CA  GLU d   4    2043.657 619.357-2111.776  0.00  0.00     0.177 C 
BRANCH  26  27
ATOM     27  N   GLU d   4    2044.017 618.386-2110.746  0.00  0.00    -0.346 N 
ATOM     28  C   PRO d   3    2045.222 617.926-2110.714  0.00  0.00     0.241 C 
ATOM     29  O   PRO d   3    2046.046 618.309-2111.545  0.00  0.00    -0.271 OA
ATOM     30  H   GLU d   4    2043.333 618.079-2110.070  0.00  0.00     0.163 HD
BRANCH  28  31
ATOM     31  CA  PRO d   3    2045.620 616.902-2109.636  0.00  0.00     0.179 C 
ATOM     32  N   PRO d   3    2045.168 617.312-2108.315  0.00  0.00    -0.337 N 
ATOM     33  C   ASN d   2    2045.690 618.307-2107.681  0.00  0.00     0.243 C 
ATOM     34  CD  PRO d   3    2044.090 616.519-2107.766  0.00  0.00     0.127 C 
ATOM     35  O   ASN d   2    2046.605 618.937-2108.210  0.00  0.00    -0.271 OA
ATOM     36  CG  PRO d   3    2043.633 615.700-2108.976  0.00  0.00     0.022 C 
ATOM     37  CB  PRO d   3    2044.916 615.548-2109.806  0.00  0.00     0.037 C 
BRANCH  33  38
ATOM     38  CA  ASN d   2    2045.159 618.662-2106.312  0.00  0.00     0.185 C 
BRANCH  38  39
ATOM     39  N   ASN d   2    2043.699 618.701-2106.312  0.00  0.00    -0.346 N 
ATOM     40  C   GLU d   1    2043.095 619.487-2107.138  0.00  0.00     0.242 C 
ATOM     41  O   GLU d   1    2043.771 620.186-2107.906  0.00  0.00    -0.271 OA
ATOM     42  H   ASN d   2    2043.171 618.121-2105.676  0.00  0.00     0.163 HD
BRANCH  40  43
ATOM     43  CA  GLU d   1    2041.586 619.527-2107.138  0.00  0.00     0.191 C 
BRANCH  43  44
ATOM     44  N   GLU d   1    2041.027 618.178-2107.138  0.00  0.00    -0.326 NA
ATOM     45  H   GLU d   1    2041.654 617.299-2107.138  0.00  0.00     0.180 HD
ENDBRANCH  43  44
BRANCH  43  46
ATOM     46  CB  GLU d   1    2041.063 620.312-2105.901  0.00  0.00     0.047 C 
BRANCH  46  47
ATOM     47  CG  GLU d   1    2041.538 621.797-2105.790  0.00  0.00     0.116 C 
BRANCH  47  48
ATOM     48  CD  GLU d   1    2041.114 622.601-2104.575  0.00  0.00     0.172 C 
ATOM     49  OE1 GLU d   1    2040.386 622.099-2103.697  0.00  0.00    -0.648 OA
ATOM     50  OE2 GLU d   1    2041.544 623.771-2104.503  0.00  0.00    -0.648 OA
ENDBRANCH  47  48
ENDBRANCH  46  47
ENDBRANCH  43  46
ENDBRANCH  40  43
ENDBRANCH  38  39
BRANCH  38  51
ATOM     51  CB  ASN d   2    2045.651 617.639-2105.248  0.00  0.00     0.137 C 
BRANCH  51  52
ATOM     52  CG  ASN d   2    2045.187 617.863-2103.805  0.00  0.00     0.217 C 
ATOM     53  ND2 ASN d   2    2045.782 618.778-2103.087  0.00  0.00    -0.370 N 
ATOM     54 21HD ASN d   2    2045.301 618.951-2102.200  0.00  0.00     0.159 HD
ATOM     55 22HD ASN d   2    2046.484 619.350-2103.556  0.00  0.00     0.159 HD
ATOM     56  OD1 ASN d   2    2044.267 617.230-2103.311  0.00  0.00    -0.274 OA
ENDBRANCH  51  52
ENDBRANCH  38  51
ENDBRANCH  33  38
ENDBRANCH  28  31
ENDBRANCH  26  27
BRANCH  26  57
ATOM     57  CB  GLU d   4    2042.169 619.775-2111.606  0.00  0.00     0.045 C 
BRANCH  57  58
ATOM     58  CG  GLU d   4    2041.621 620.778-2112.672  0.00  0.00     0.116 C 
BRANCH  58  59
ATOM     59  CD  GLU d   4    2040.194 621.275-2112.529  0.00  0.00     0.172 C 
ATOM     60  OE1 GLU d   4    2039.468 620.877-2111.598  0.00  0.00    -0.648 OA
ATOM     61  OE2 GLU d   4    2039.805 622.104-2113.377  0.00  0.00    -0.648 OA
ENDBRANCH  58  59
ENDBRANCH  57  58
ENDBRANCH  26  57
ENDBRANCH  23  26
ENDBRANCH  21  22
BRANCH  21  62
ATOM     62  CB  SER d   5    2045.765 622.823-2109.063  0.00  0.00     0.199 C 
BRANCH  62  63
ATOM     63  OG  SER d   5    2046.497 621.944-2108.202  0.00  0.00    -0.398 OA
ATOM     64  HG  SER d   5    2046.008 621.119-2108.151  0.00  0.00     0.209 HD
ENDBRANCH  62  63
ENDBRANCH  21  62
ENDBRANCH  18  21
ENDBRANCH  16  17
BRANCH  16  65
ATOM     65  CB  ILE d   6    2049.529 619.270-2110.711  0.00  0.00     0.013 C 
ATOM     66  CG2 ILE d   6    2050.970 618.969-2111.227  0.00  0.00     0.012 C 
BRANCH  65  67
ATOM     67  CG1 ILE d   6    2049.548 619.208-2109.150  0.00  0.00     0.002 C 
ATOM     68  CD1 ILE d   6    2049.818 617.819-2108.536  0.00  0.00     0.005 C 
ENDBRANCH  65  67
ENDBRANCH  16  65
ENDBRANCH  13  16
ENDBRANCH  11  12
BRANCH  11  69
ATOM     69  CB  LEU d   7    2046.668 619.011-2115.332  0.00  0.00     0.038 C 
BRANCH  69  70
ATOM     70  CG  LEU d   7    2046.595 617.531-2114.866  0.00  0.00    -0.020 C 
ATOM     71  CD1 LEU d   7    2045.405 616.826-2115.531  0.00  0.00     0.009 C 
ATOM     72  CD2 LEU d   7    2047.889 616.752-2115.157  0.00  0.00     0.009 C 
ENDBRANCH  69  70
ENDBRANCH  11  69
ENDBRANCH   8  11
ENDBRANCH   6   7
BRANCH   6  73
ATOM     73  CB  ASP d   8    2045.814 624.296-2114.729  0.00  0.00     0.147 C 
BRANCH  73  74
ATOM     74  CG  ASP d   8    2045.596 625.717-2115.269  0.00  0.00     0.175 C 
ATOM     75  OD1 ASP d   8    2045.660 625.916-2116.500  0.00  0.00    -0.648 OA
ATOM     76  OD2 ASP d   8    2045.404 626.643-2114.453  0.00  0.00    -0.648 OA
ENDBRANCH  73  74
ENDBRANCH   6  73
ENDBRANCH   3   6
ENDBRANCH   1   2
BRANCH   1  77
ATOM     77  C   GLU d   9    2051.140 624.216-2115.338  0.00  0.00     0.241 C 
ATOM     78  O   GLU d   9    2051.804 624.971-2116.063  0.00  0.00    -0.271 OA
ATOM     79  N   HIS d  10    2051.236 622.941-2115.508  0.00  0.00    -0.346 N 
ATOM     80  H   HIS d  10    2050.705 622.306-2114.929  0.00  0.00     0.163 HD
BRANCH  79  81
ATOM     81  CA  HIS d  10    2052.125 622.430-2116.548  0.00  0.00     0.182 C 
BRANCH  81  82
ATOM     82  C   HIS d  10    2051.758 622.995-2117.899  0.00  0.00     0.241 C 
ATOM     83  O   HIS d  10    2052.611 623.459-2118.670  0.00  0.00    -0.271 OA
ATOM     84  N   VAL d  11    2050.521 622.994-2118.262  0.00  0.00    -0.346 N 
ATOM     85  H   VAL d  11    2049.807 622.621-2117.652  0.00  0.00     0.163 HD
BRANCH  84  86
ATOM     86  CA  VAL d  11    2050.166 623.540-2119.569  0.00  0.00     0.180 C 
BRANCH  86  87
ATOM     87  C   VAL d  11    2050.630 624.971-2119.701  0.00  0.00     0.241 C 
ATOM     88  O   VAL d  11    2051.231 625.376-2120.704  0.00  0.00    -0.271 OA
ATOM     89  N   GLN d  12    2050.393 625.796-2118.739  0.00  0.00    -0.346 N 
ATOM     90  H   GLN d  12    2049.904 625.490-2117.910  0.00  0.00     0.163 HD
BRANCH  89  91
ATOM     91  CA  GLN d  12    2050.841 627.179-2118.866  0.00  0.00     0.177 C 
BRANCH  91  92
ATOM     92  C   GLN d  12    2052.332 627.246-2119.104  0.00  0.00     0.241 C 
ATOM     93  O   GLN d  12    2052.819 627.954-2119.983  0.00  0.00    -0.271 OA
ATOM     94  N   MET d  13    2053.116 626.540-2118.363  0.00  0.00    -0.346 N 
ATOM     95  H   MET d  13    2052.739 625.950-2117.634  0.00  0.00     0.163 HD
BRANCH  94  96
ATOM     96  CA  MET d  13    2054.556 626.605-2118.592  0.00  0.00     0.177 C 
BRANCH  96  97
ATOM     97  C   MET d  13    2054.896 626.233-2120.015  0.00  0.00     0.241 C 
ATOM     98  O   MET d  13    2055.674 626.911-2120.703  0.00  0.00    -0.271 OA
ATOM     99  N   VAL d  14    2054.361 625.179-2120.531  0.00  0.00    -0.346 N 
ATOM    100  H   VAL d  14    2053.725 624.610-2119.991  0.00  0.00     0.163 HD
BRANCH  99 101
ATOM    101  CA  VAL d  14    2054.690 624.819-2121.908  0.00  0.00     0.180 C 
BRANCH 101 102
ATOM    102  C   VAL d  14    2054.362 625.950-2122.854  0.00  0.00     0.241 C 
ATOM    103  O   VAL d  14    2055.158 626.331-2123.722  0.00  0.00    -0.271 OA
ATOM    104  N   MET d  15    2053.217 626.536-2122.756  0.00  0.00    -0.346 N 
ATOM    105  H   MET d  15    2052.550 626.243-2122.056  0.00  0.00     0.163 HD
BRANCH 104 106
ATOM    106  CA  MET d  15    2052.900 627.628-2123.670  0.00  0.00     0.177 C 
BRANCH 106 107
ATOM    107  C   MET d  15    2053.930 628.728-2123.579  0.00  0.00     0.241 C 
ATOM    108  O   MET d  15    2054.435 629.239-2124.591  0.00  0.00    -0.271 OA
ATOM    109  N   ARG d  16    2054.295 629.149-2122.416  0.00  0.00    -0.347 N 
ATOM    110  H   ARG d  16    2053.898 628.749-2121.578  0.00  0.00     0.163 HD
BRANCH 109 111
ATOM    111  CA  ARG d  16    2055.291 630.213-2122.329  0.00  0.00     0.162 C 
BRANCH 111 112
ATOM    112  C   ARG d  16    2056.564 629.820-2123.042  0.00  0.00     0.219 C 
ATOM    113  O   ARG d  16    2056.679 628.744-2123.623  0.00  0.00    -0.287 OA
ENDBRANCH 111 112
BRANCH 111 114
ATOM    114  CB  ARG d  16    2055.555 630.530-2120.830  0.00  0.00     0.035 C 
BRANCH 114 115
ATOM    115  CG  ARG d  16    2056.380 631.819-2120.554  0.00  0.00     0.023 C 
BRANCH 115 116
ATOM    116  CD  ARG d  16    2056.625 632.038-2119.052  0.00  0.00     0.138 C 
BRANCH 116 117
ATOM    117  NE  ARG d  16    2057.401 633.297-2118.848  0.00  0.00    -0.227 N 
ATOM    118  CZ  ARG d  16    2057.788 633.779-2117.671  0.00  0.00     0.665 C 
ATOM    119  NH1 ARG d  16    2057.537 633.194-2116.533  0.00  0.00    -0.235 N 
ATOM    120  NH2 ARG d  16    2058.452 634.891-2117.650  0.00  0.00    -0.235 N 
ATOM    121 11HH ARG d  16    2057.012 632.321-2116.620  0.00  0.00     0.174 HD
ATOM    122 12HH ARG d  16    2057.869 633.629-2115.671  0.00  0.00     0.174 HD
ATOM    123 21HH ARG d  16    2058.640 635.335-2118.551  0.00  0.00     0.174 HD
ATOM    124 22HH ARG d  16    2058.740 635.246-2116.737  0.00  0.00     0.174 HD
ATOM    125  HE  ARG d  16    2057.682 633.878-2119.644  0.00  0.00     0.177 HD
ENDBRANCH 116 117
ENDBRANCH 115 116
ENDBRANCH 114 115
ENDBRANCH 111 114
ENDBRANCH 109 111
ENDBRANCH 106 107
BRANCH 106 126
ATOM    126  CB  MET d  15    2051.478 628.174-2123.365  0.00  0.00     0.045 C 
BRANCH 126 127
ATOM    127  CG  MET d  15    2050.316 627.177-2123.561  0.00  0.00     0.076 C 
BRANCH 127 128
ATOM    128  SD  MET d  15    2048.742 628.043-2123.451  0.00  0.00    -0.173 SA
ATOM    129  CE  MET d  15    2047.660 626.613-2123.318  0.00  0.00     0.089 C 
ENDBRANCH 127 128
ENDBRANCH 126 127
ENDBRANCH 106 126
ENDBRANCH 104 106
ENDBRANCH 101 102
BRANCH 101 130
ATOM    130  CB  VAL d  14    2053.918 623.502-2122.317  0.00  0.00     0.009 C 
ATOM    131  CG1 VAL d  14    2054.011 623.084-2123.811  0.00  0.00     0.012 C 
ATOM    132  CG2 VAL d  14    2054.348 622.250-2121.516  0.00  0.00     0.012 C 
ENDBRANCH 101 130
ENDBRANCH  99 101
ENDBRANCH  96  97
BRANCH  96 133
ATOM    133  CB  MET d  13    2055.293 625.677-2117.586  0.00  0.00     0.045 C 
BRANCH 133 134
ATOM    134  CG  MET d  13    2055.137 626.042-2116.094  0.00  0.00     0.076 C 
BRANCH 134 135
ATOM    135  SD  MET d  13    2056.273 625.059-2115.104  0.00  0.00    -0.173 SA
ATOM    136  CE  MET d  13    2055.585 625.412-2113.481  0.00  0.00     0.089 C 
ENDBRANCH 134 135
ENDBRANCH 133 134
ENDBRANCH  96 133
ENDBRANCH  94  96
ENDBRANCH  91  92
BRANCH  91 137
ATOM    137  CB  GLN d  12    2050.450 627.947-2117.584  0.00  0.00     0.044 C 
BRANCH 137 138
ATOM    138  CG  GLN d  12    2050.811 629.469-2117.553  0.00  0.00     0.105 C 
BRANCH 138 139
ATOM    139  CD  GLN d  12    2050.508 630.282-2116.288  0.00  0.00     0.215 C 
ATOM    140  NE2 GLN d  12    2049.940 629.706-2115.259  0.00  0.00    -0.370 N 
ATOM    141 21HE GLN d  12    2049.833 630.301-2114.436  0.00  0.00     0.159 HD
ATOM    142 22HE GLN d  12    2049.777 628.703-2115.363  0.00  0.00     0.159 HD
ATOM    143  OE1 GLN d  12    2050.810 631.463-2116.211  0.00  0.00    -0.274 OA
ENDBRANCH 138 139
ENDBRANCH 137 138
ENDBRANCH  91 137
ENDBRANCH  89  91
ENDBRANCH  86  87
BRANCH  86 144
ATOM    144  CB  VAL d  11    2048.605 623.433-2119.789  0.00  0.00     0.009 C 
ATOM    145  CG1 VAL d  11    2048.036 624.137-2121.052  0.00  0.00     0.012 C 
ATOM    146  CG2 VAL d  11    2048.080 621.979-2119.863  0.00  0.00     0.012 C 
ENDBRANCH  86 144
ENDBRANCH  84  86
ENDBRANCH  81  82
BRANCH  81 147
ATOM    147  CB  HIS d  10    2051.961 620.901-2116.543  0.00  0.00     0.095 C 
BRANCH 147 148
ATOM    148  CG  HIS d  10    2053.247 620.191-2116.235  0.00  0.00     0.053 A 
ATOM    149  CD2 HIS d  10    2053.627 619.856-2114.942  0.00  0.00     0.116 A 
ATOM    150  NE2 HIS d  10    2054.842 619.224-2115.009  0.00  0.00    -0.359 N 
ATOM    151  CE1 HIS d  10    2055.105 619.227-2116.344  0.00  0.00     0.207 A 
ATOM    152  2HE HIS d  10    2055.409 618.847-2114.235  0.00  0.00     0.166 HD
ATOM    153  ND1 HIS d  10    2054.199 619.785-2117.167  0.00  0.00    -0.247 NA
ENDBRANCH 147 148
ENDBRANCH  81 147
ENDBRANCH  79  81
ENDBRANCH   1  77
BRANCH   1 154
ATOM    154  CB  GLU d   9    2050.855 624.536-2112.857  0.00  0.00     0.045 C 
BRANCH 154 155
ATOM    155  CG  GLU d   9    2052.237 625.229-2112.627  0.00  0.00     0.116 C 
BRANCH 155 156
ATOM    156  CD  GLU d   9    2052.939 625.015-2111.299  0.00  0.00     0.172 C 
ATOM    157  OE1 GLU d   9    2052.417 624.324-2110.403  0.00  0.00    -0.648 OA
ATOM    158  OE2 GLU d   9    2054.058 625.553-2111.167  0.00  0.00    -0.648 OA
ENDBRANCH 155 156
ENDBRANCH 154 155
ENDBRANCH   1 154
TORSDOF 67
