@<TRIPOS>MOLECULE
12-6
267 268 16              
SMALL
USER_CHARGES
@<TRIPOS>ATOM
1	   N	1886.745	567.847	-1937.912	N.3	1	GLU1	-0.516	
2	  CA	1887.304	569.196	-1937.912	C.3	1	GLU1	0.040	
3	   C	1888.813	569.156	-1937.912	C.2	1	GLU1	0.537	
4	   O	1889.489	569.855	-1938.681	O.2	1	GLU1	-0.582	
5	  CB	1886.781	569.981	-1936.675	C.3	1	GLU1	0.056	
6	  CG	1887.256	571.466	-1936.564	C.3	1	GLU1	0.014	
7	  CD	1886.832	572.270	-1935.349	C.2	1	GLU1	0.805	
8	 OE1	1886.104	571.768	-1934.471	O.co2	1	GLU1	-0.819	
9	 OE2	1887.262	573.440	-1935.277	O.co2	1	GLU1	-0.819	
10	   H	1887.372	566.968	-1937.912	 H	1	GLU1	0.294	
11	  HA	1886.978	569.714	-1938.832	 H	1	GLU1	0.111	
12	 2HB	1887.070	569.450	-1935.745	 H	1	GLU1	-0.017	
13	 3HB	1885.674	569.971	-1936.662	 H	1	GLU1	-0.017	
14	 2HG	1886.946	572.051	-1937.445	 H	1	GLU1	-0.043	
15	 3HG	1888.356	571.533	-1936.535	 H	1	GLU1	-0.043	
16	   N	1889.417	568.370	-1937.087	N.am	2	ASN2	-0.416	
17	  CA	1890.877	568.331	-1937.087	C.3	2	ASN2	0.014	
18	   C	1891.408	567.976	-1938.455	C.2	2	ASN2	0.597	
19	   O	1892.323	568.606	-1938.984	O.2	2	ASN2	-0.568	
20	  CB	1891.369	567.308	-1936.022	C.3	2	ASN2	-0.204	
21	  CG	1890.906	567.532	-1934.579	C.2	2	ASN2	0.713	
22	 ND2	1891.500	568.447	-1933.861	N.pl3	2	ASN2	-0.919	
23	 OD1	1889.985	566.899	-1934.085	O.2	2	ASN2	-0.593	
24	   H	1888.889	567.791	-1936.450	 H	2	ASN2	0.272	
25	  HA	1891.254	569.341	-1936.842	 H	2	ASN2	0.105	
26	 2HB	1892.473	567.249	-1936.026	 H	2	ASN2	0.080	
27	 3HB	1891.040	566.290	-1936.308	 H	2	ASN2	0.080	
28	1HD2	1891.019	568.620	-1932.974	 H	2	ASN2	0.420	
29	2HD2	1892.202	569.019	-1934.330	 H	2	ASN2	0.420	
30	   N	1890.886	566.981	-1939.089	N.am	3	PRO3	-0.255	
31	  CA	1891.338	566.572	-1940.411	C.3	3	PRO3	-0.027	
32	   C	1890.940	567.595	-1941.488	C.2	3	PRO3	0.590	
33	   O	1891.763	567.978	-1942.319	O.2	3	PRO3	-0.575	
34	  CB	1890.634	565.217	-1940.580	C.3	3	PRO3	-0.007	
35	  CG	1889.351	565.369	-1939.750	C.3	3	PRO3	0.019	
36	  CD	1889.808	566.188	-1938.540	C.3	3	PRO3	0.019	
37	  HA	1892.424	566.452	-1940.425	 H	3	PRO3	0.064	
38	 2HB	1891.257	564.436	-1940.140	 H	3	PRO3	0.025	
39	 3HB	1890.436	564.968	-1941.626	 H	3	PRO3	0.025	
40	 2HG	1888.923	564.407	-1939.459	 H	3	PRO3	0.021	
41	 3HG	1888.613	565.940	-1940.317	 H	3	PRO3	0.021	
42	 2HD	1890.198	565.538	-1937.753	 H	3	PRO3	0.039	
43	 3HD	1889.012	566.824	-1938.147	 H	3	PRO3	0.039	
44	   N	1889.735	568.055	-1941.520	N.am	4	GLU4	-0.516	
45	  CA	1889.376	569.026	-1942.550	C.3	4	GLU4	0.040	
46	   C	1890.275	570.237	-1942.489	C.2	4	GLU4	0.537	
47	   O	1890.801	570.717	-1943.503	O.2	4	GLU4	-0.582	
48	  CB	1887.887	569.445	-1942.380	C.3	4	GLU4	0.056	
49	  CG	1887.339	570.448	-1943.445	C.3	4	GLU4	0.014	
50	  CD	1885.913	570.945	-1943.302	C.2	4	GLU4	0.805	
51	 OE1	1885.186	570.547	-1942.371	O.co2	4	GLU4	-0.819	
52	 OE2	1885.523	571.775	-1944.150	O.co2	4	GLU4	-0.819	
53	   H	1889.051	567.748	-1940.844	 H	4	GLU4	0.294	
54	  HA	1889.507	568.556	-1943.541	 H	4	GLU4	0.111	
55	 2HB	1887.735	569.885	-1941.373	 H	4	GLU4	-0.017	
56	 3HB	1887.239	568.547	-1942.386	 H	4	GLU4	-0.017	
57	 2HG	1887.421	570.034	-1944.463	 H	4	GLU4	-0.043	
58	 3HG	1887.927	571.381	-1943.456	 H	4	GLU4	-0.043	
59	   N	1890.502	570.790	-1941.345	N.am	5	SER5	-0.416	
60	  CA	1891.372	571.961	-1941.287	C.3	5	SER5	-0.025	
61	   C	1892.730	571.656	-1941.873	C.2	5	SER5	0.597	
62	   O	1893.278	572.409	-1942.678	O.2	5	SER5	-0.568	
63	  CB	1891.483	572.493	-1939.837	C.3	5	SER5	0.212	
64	  OG	1892.215	571.614	-1938.975	O.3	5	SER5	-0.655	
65	   H	1890.085	570.418	-1940.504	 H	5	SER5	0.272	
66	  HA	1890.922	572.751	-1941.916	 H	5	SER5	0.084	
67	 2HB	1890.483	572.687	-1939.403	 H	5	SER5	0.035	
68	 3HB	1891.988	573.479	-1939.839	 H	5	SER5	0.035	
69	  HG	1891.726	570.789	-1938.925	 H	5	SER5	0.428	
70	   N	1893.335	570.573	-1941.518	N.am	6	ILE6	-0.416	
71	  CA	1894.648	570.278	-1942.085	C.3	6	ILE6	-0.060	
72	   C	1894.591	570.240	-1943.592	C.2	6	ILE6	0.597	
73	   O	1895.426	570.828	-1944.296	O.2	6	ILE6	-0.568	
74	  CB	1895.248	568.942	-1941.485	C.3	6	ILE6	0.130	
75	 CG1	1895.268	568.880	-1939.924	C.3	6	ILE6	-0.043	
76	 CG2	1896.690	568.640	-1942.000	C.3	6	ILE6	-0.320	
77	 CD1	1895.538	567.490	-1939.309	C.3	6	ILE6	-0.066	
78	   H	1892.907	569.938	-1940.859	 H	6	ILE6	0.272	
79	  HA	1895.322	571.112	-1941.817	 H	6	ILE6	0.087	
80	  HB	1894.591	568.116	-1941.829	 H	6	ILE6	0.019	
81	2HG1	1894.286	569.199	-1939.528	 H	6	ILE6	0.024	
82	3HG1	1895.984	569.622	-1939.519	 H	6	ILE6	0.024	
83	1HG2	1896.748	568.547	-1943.099	 H	6	ILE6	0.088	
84	2HG2	1897.412	569.423	-1941.698	 H	6	ILE6	0.088	
85	3HG2	1897.080	567.678	-1941.621	 H	6	ILE6	0.088	
86	1HD1	1894.810	566.736	-1939.663	 H	6	ILE6	0.019	
87	2HD1	1896.549	567.112	-1939.545	 H	6	ILE6	0.019	
88	3HD1	1895.462	567.520	-1938.206	 H	6	ILE6	0.019	
89	   N	1893.646	569.577	-1944.166	N.am	7	LEU7	-0.416	
90	  CA	1893.591	569.541	-1945.625	C.3	7	LEU7	-0.052	
91	   C	1893.518	570.936	-1946.197	C.2	7	LEU7	0.597	
92	   O	1894.239	571.299	-1947.139	O.2	7	LEU7	-0.568	
93	  CB	1892.388	568.680	-1946.105	C.3	7	LEU7	-0.110	
94	  CG	1892.315	567.201	-1945.639	C.3	7	LEU7	0.353	
95	 CD1	1891.125	566.495	-1946.304	C.3	7	LEU7	-0.412	
96	 CD2	1893.609	566.422	-1945.930	C.3	7	LEU7	-0.412	
97	   H	1892.954	569.089	-1943.615	 H	7	LEU7	0.272	
98	  HA	1894.532	569.101	-1945.999	 H	7	LEU7	0.092	
99	 2HB	1892.364	568.696	-1947.213	 H	7	LEU7	0.046	
100	 3HB	1891.448	569.183	-1945.801	 H	7	LEU7	0.046	
101	  HG	1892.145	567.193	-1944.542	 H	7	LEU7	-0.036	
102	1HD1	1890.168	567.004	-1946.082	 H	7	LEU7	0.100	
103	2HD1	1891.225	566.454	-1947.405	 H	7	LEU7	0.100	
104	3HD1	1891.019	565.454	-1945.948	 H	7	LEU7	0.100	
105	1HD2	1893.884	566.452	-1947.000	 H	7	LEU7	0.100	
106	2HD2	1894.462	566.834	-1945.359	 H	7	LEU7	0.100	
107	3HD2	1893.528	565.360	-1945.634	 H	7	LEU7	0.100	
108	   N	1892.680	571.776	-1945.691	N.am	8	ASP8	-0.516	
109	  CA	1892.610	573.126	-1946.244	C.3	8	ASP8	0.038	
110	   C	1893.956	573.806	-1946.187	C.2	8	ASP8	0.537	
111	   O	1894.429	574.411	-1947.161	O.2	8	ASP8	-0.582	
112	  CB	1891.531	573.964	-1945.502	C.3	8	ASP8	-0.030	
113	  CG	1891.312	575.385	-1946.042	C.2	8	ASP8	0.799	
114	 OD1	1891.377	575.585	-1947.273	O.co2	8	ASP8	-0.801	
115	 OD2	1891.120	576.311	-1945.227	O.co2	8	ASP8	-0.801	
116	   H	1892.083	571.505	-1944.923	 H	8	ASP8	0.294	
117	  HA	1892.327	573.048	-1947.311	 H	8	ASP8	0.088	
118	 2HB	1891.789	574.048	-1944.430	 H	8	ASP8	-0.012	
119	 3HB	1890.553	573.459	-1945.535	 H	8	ASP8	-0.012	
120	   N	1894.636	573.756	-1945.091	N.am	9	GLU9	-0.516	
121	  CA	1895.939	574.414	-1945.036	C.3	9	GLU9	0.040	
122	   C	1896.857	573.887	-1946.112	C.2	9	GLU9	0.537	
123	   O	1897.520	574.642	-1946.838	O.2	9	GLU9	-0.582	
124	  CB	1896.572	574.207	-1943.631	C.3	9	GLU9	0.056	
125	  CG	1897.955	574.899	-1943.401	C.3	9	GLU9	0.014	
126	  CD	1898.657	574.686	-1942.073	C.2	9	GLU9	0.805	
127	 OE1	1898.136	573.995	-1941.177	O.co2	9	GLU9	-0.819	
128	 OE2	1899.776	575.225	-1941.942	O.co2	9	GLU9	-0.819	
129	   H	1894.273	573.269	-1944.284	 H	9	GLU9	0.294	
130	  HA	1895.796	575.496	-1945.211	 H	9	GLU9	0.111	
131	 2HB	1896.686	573.122	-1943.428	 H	9	GLU9	-0.017	
132	 3HB	1895.875	574.560	-1942.846	 H	9	GLU9	-0.017	
133	 2HG	1897.882	575.990	-1943.541	 H	9	GLU9	-0.043	
134	 3HG	1898.702	574.555	-1944.136	 H	9	GLU9	-0.043	
135	   N	1896.954	572.612	-1946.282	N.am	10	HIS10	-0.416	
136	  CA	1897.842	572.101	-1947.323	C.3	10	HIS10	-0.058	
137	   C	1897.475	572.666	-1948.674	C.2	10	HIS10	0.597	
138	   O	1898.327	573.131	-1949.445	O.2	10	HIS10	-0.568	
139	  CB	1897.679	570.572	-1947.318	C.3	10	HIS10	-0.007	
140	  CG	1898.965	569.863	-1947.010	C.2	10	HIS10	0.187	
141	 CD2	1899.346	569.527	-1945.718	C.2	10	HIS10	-0.221	
142	 ND1	1899.917	569.458	-1947.943	N.2	10	HIS10	-0.543	
143	 CE1	1900.824	568.900	-1947.120	C.2	10	HIS10	0.163	
144	 NE2	1900.561	568.896	-1945.785	N.pl3	10	HIS10	-0.280	
145	   H	1896.424	571.976	-1945.704	 H	10	HIS10	0.272	
146	  HA	1898.861	572.459	-1947.098	 H	10	HIS10	0.136	
147	 2HB	1897.314	570.206	-1948.298	 H	10	HIS10	0.037	
148	 3HB	1896.923	570.235	-1946.578	 H	10	HIS10	0.037	
149	 2HD	1898.761	569.742	-1944.829	 H	10	HIS10	0.186	
150	 1HE	1901.715	568.479	-1947.567	 H	10	HIS10	0.144	
151	 2HE	1901.128	568.519	-1945.012	 H	10	HIS10	0.334	
152	   N	1896.237	572.664	-1949.036	N.am	11	VAL11	-0.416	
153	  CA	1895.881	573.211	-1950.343	C.3	11	VAL11	-0.087	
154	   C	1896.344	574.642	-1950.475	C.2	11	VAL11	0.597	
155	   O	1896.945	575.047	-1951.478	O.2	11	VAL11	-0.568	
156	  CB	1894.320	573.103	-1950.562	C.3	11	VAL11	0.299	
157	 CG1	1893.750	573.807	-1951.825	C.3	11	VAL11	-0.319	
158	 CG2	1893.796	571.649	-1950.635	C.3	11	VAL11	-0.319	
159	   H	1895.524	572.291	-1948.426	 H	11	VAL11	0.272	
160	  HA	1896.401	572.629	-1951.126	 H	11	VAL11	0.097	
161	  HB	1893.832	573.583	-1949.687	 H	11	VAL11	-0.030	
162	1HG1	1894.189	573.416	-1952.762	 H	11	VAL11	0.079	
163	2HG1	1892.652	573.699	-1951.906	 H	11	VAL11	0.079	
164	3HG1	1893.928	574.899	-1951.815	 H	11	VAL11	0.079	
165	1HG2	1894.086	571.062	-1949.745	 H	11	VAL11	0.079	
166	2HG2	1892.690	571.611	-1950.678	 H	11	VAL11	0.079	
167	3HG2	1894.178	571.108	-1951.522	 H	11	VAL11	0.079	
168	   N	1896.107	575.467	-1949.513	N.am	12	ILE12	-0.416	
169	  CA	1896.555	576.851	-1949.640	C.3	12	ILE12	-0.060	
170	   C	1898.044	576.917	-1949.879	C.2	12	ILE12	0.597	
171	   O	1898.536	577.631	-1950.765	O.2	12	ILE12	-0.568	
172	  CB	1896.120	577.715	-1948.388	C.3	12	ILE12	0.130	
173	 CG1	1894.600	577.633	-1948.036	C.3	12	ILE12	-0.043	
174	 CG2	1896.504	579.221	-1948.529	C.3	12	ILE12	-0.320	
175	 CD1	1894.198	578.191	-1946.654	C.3	12	ILE12	-0.066	
176	   H	1895.619	575.160	-1948.683	 H	12	ILE12	0.272	
177	  HA	1896.074	577.276	-1950.540	 H	12	ILE12	0.087	
178	  HB	1896.672	577.310	-1947.514	 H	12	ILE12	0.019	
179	2HG1	1894.276	576.575	-1948.040	 H	12	ILE12	0.024	
180	3HG1	1893.995	578.111	-1948.831	 H	12	ILE12	0.024	
181	1HG2	1897.588	579.383	-1948.662	 H	12	ILE12	0.088	
182	2HG2	1895.992	579.703	-1949.384	 H	12	ILE12	0.088	
183	3HG2	1896.247	579.807	-1947.628	 H	12	ILE12	0.088	
184	1HD1	1894.757	577.700	-1945.835	 H	12	ILE12	0.019	
185	2HD1	1894.372	579.278	-1946.569	 H	12	ILE12	0.019	
186	3HD1	1893.123	578.027	-1946.455	 H	12	ILE12	0.019	
187	   N	1898.828	576.210	-1949.138	N.am	13	ARG13	-0.348	
188	  CA	1900.269	576.275	-1949.369	C.3	13	ARG13	-0.264	
189	   C	1900.604	575.904	-1950.794	C.2	13	ARG13	0.734	
190	   O	1901.373	576.575	-1951.479	O.2	13	ARG13	-0.589	
191	  CB	1900.982	575.336	-1948.355	C.3	13	ARG13	-0.001	
192	  CG	1902.527	575.489	-1948.274	C.3	13	ARG13	0.039	
193	  CD	1903.154	574.501	-1947.277	C.3	13	ARG13	0.049	
194	  NE	1904.631	574.707	-1947.227	N.pl3	13	ARG13	-0.530	
195	  CZ	1905.479	574.015	-1946.472	C.cat	13	ARG13	0.808	
196	 NH1	1905.113	573.051	-1945.674	N.pl3	13	ARG13	-0.863	
197	 NH2	1906.738	574.313	-1946.529	N.pl3	13	ARG13	-0.863	
198	   H	1898.452	575.621	-1948.409	 H	13	ARG13	0.275	
199	  HA	1900.594	577.321	-1949.210	 H	13	ARG13	0.156	
200	 2HB	1900.715	574.286	-1948.594	 H	13	ARG13	0.033	
201	 3HB	1900.557	575.503	-1947.344	 H	13	ARG13	0.033	
202	 2HG	1902.775	576.533	-1947.995	 H	13	ARG13	0.029	
203	 3HG	1902.977	575.332	-1949.276	 H	13	ARG13	0.029	
204	 2HD	1902.909	573.460	-1947.586	 H	13	ARG13	0.069	
205	 3HD	1902.697	574.647	-1946.274	 H	13	ARG13	0.069	
206	  HE	1905.082	575.429	-1947.797	 H	13	ARG13	0.346	
207	1HH1	1904.108	572.865	-1945.677	 H	13	ARG13	0.448	
208	2HH1	1905.826	572.568	-1945.125	 H	13	ARG13	0.448	
209	1HH2	1907.006	575.071	-1947.160	 H	13	ARG13	0.448	
210	2HH2	1907.373	573.772	-1945.940	 H	13	ARG13	0.448	
211	   N	1900.067	574.849	-1951.308	N.am	14	VAL14	-0.416	
212	  CA	1900.391	574.490	-1952.685	C.3	14	VAL14	-0.087	
213	   C	1900.062	575.619	-1953.631	C.2	14	VAL14	0.597	
214	   O	1900.855	576.000	-1954.501	O.2	14	VAL14	-0.568	
215	  CB	1899.618	573.173	-1953.091	C.3	14	VAL14	0.299	
216	 CG1	1899.706	572.754	-1954.585	C.3	14	VAL14	-0.319	
217	 CG2	1900.050	571.920	-1952.291	C.3	14	VAL14	-0.319	
218	   H	1899.432	574.281	-1950.765	 H	14	VAL14	0.272	
219	  HA	1901.479	574.312	-1952.760	 H	14	VAL14	0.097	
220	  HB	1898.542	573.344	-1952.875	 H	14	VAL14	-0.030	
221	1HG1	1900.748	572.576	-1954.914	 H	14	VAL14	0.079	
222	2HG1	1899.133	571.831	-1954.797	 H	14	VAL14	0.079	
223	3HG1	1899.277	573.516	-1955.263	 H	14	VAL14	0.079	
224	1HG2	1899.963	572.079	-1951.200	 H	14	VAL14	0.079	
225	2HG2	1899.413	571.044	-1952.522	 H	14	VAL14	0.079	
226	3HG2	1901.097	571.630	-1952.497	 H	14	VAL14	0.079	
227	   N	1898.917	576.206	-1953.529	N.am	15	MET15	-0.416	
228	  CA	1898.597	577.299	-1954.443	C.3	15	MET15	-0.024	
229	   C	1899.628	578.398	-1954.356	C.2	15	MET15	0.597	
230	   O	1900.130	578.908	-1955.369	O.2	15	MET15	-0.568	
231	  CB	1897.176	577.845	-1954.134	C.3	15	MET15	0.034	
232	  CG	1896.013	576.847	-1954.325	C.3	15	MET15	0.002	
233	  SD	1894.440	577.714	-1954.210	S.3	15	MET15	-0.274	
234	  CE	1893.358	576.285	-1954.073	C.3	15	MET15	-0.054	
235	   H	1898.252	575.914	-1952.827	 H	15	MET15	0.272	
236	  HA	1898.622	576.911	-1955.479	 H	15	MET15	0.088	
237	 2HB	1896.974	578.724	-1954.776	 H	15	MET15	0.024	
238	 3HB	1897.141	578.238	-1953.098	 H	15	MET15	0.024	
239	 2HG	1896.056	576.062	-1953.547	 H	15	MET15	0.044	
240	 3HG	1896.076	576.332	-1955.301	 H	15	MET15	0.044	
241	 1HE	1893.501	575.596	-1954.925	 H	15	MET15	0.068	
242	 2HE	1893.567	575.732	-1953.140	 H	15	MET15	0.068	
243	 3HE	1892.301	576.601	-1954.056	 H	15	MET15	0.068	
244	   N	1899.997	578.819	-1953.194	N.am	16	ARG16	-0.348	
245	  CA	1900.994	579.883	-1953.111	C.3	16	ARG16	-0.264	
246	   C	1902.264	579.489	-1953.828	C.2	16	ARG16	0.734	
247	   O	1902.378	578.412	-1954.408	O.2	16	ARG16	-0.589	
248	  CB	1901.264	580.201	-1951.613	C.3	16	ARG16	-0.001	
249	  CG	1902.089	581.490	-1951.341	C.3	16	ARG16	0.039	
250	  CD	1902.340	581.710	-1949.840	C.3	16	ARG16	0.049	
251	  NE	1903.116	582.969	-1949.640	N.pl3	16	ARG16	-0.530	
252	  CZ	1903.508	583.452	-1948.465	C.cat	16	ARG16	0.808	
253	 NH1	1903.261	582.868	-1947.326	N.pl3	16	ARG16	-0.863	
254	 NH2	1904.173	584.564	-1948.447	N.pl3	16	ARG16	-0.863	
255	   H	1899.602	578.420	-1952.354	 H	16	ARG16	0.275	
256	  HA	1900.585	580.776	-1953.621	 H	16	ARG16	0.156	
257	 2HB	1901.760	579.326	-1951.146	 H	16	ARG16	0.033	
258	 3HB	1900.295	580.283	-1951.079	 H	16	ARG16	0.033	
259	 2HG	1901.559	582.361	-1951.779	 H	16	ARG16	0.029	
260	 3HG	1903.063	581.437	-1951.870	 H	16	ARG16	0.029	
261	 2HD	1902.888	580.836	-1949.427	 H	16	ARG16	0.069	
262	 3HD	1901.367	581.754	-1949.305	 H	16	ARG16	0.069	
263	  HE	1903.395	583.550	-1950.438	 H	16	ARG16	0.346	
264	1HH1	1902.734	581.996	-1947.410	 H	16	ARG16	0.448	
265	2HH1	1903.595	583.304	-1946.465	 H	16	ARG16	0.448	
266	1HH2	1904.358	585.007	-1949.349	 H	16	ARG16	0.448	
267	2HH2	1904.463	584.920	-1947.535	 H	16	ARG16	0.448	
@<TRIPOS>BOND
1 1 2 1
2 1 10 1
3 2 3 1
4 2 5 1
5 2 11 1
6 3 4 2
7 3 16 1
8 5 6 1
9 6 7 1
10 7 8 2
11 7 9 1
12 5 12 1
13 5 13 1
14 6 14 1
15 6 15 1
16 16 17 1
17 16 24 1
18 17 18 1
19 17 20 1
20 17 25 1
21 18 19 2
22 18 30 1
23 20 21 1
24 21 22 1
25 21 23 2
26 20 26 1
27 20 27 1
28 22 28 1
29 22 29 1
30 30 31 1
31 30 36 1
32 31 32 1
33 31 34 1
34 31 37 1
35 32 33 2
36 32 44 1
37 34 35 1
38 35 36 1
39 34 38 1
40 34 39 1
41 35 40 1
42 35 41 1
43 36 42 1
44 36 43 1
45 44 45 1
46 44 53 1
47 45 46 1
48 45 48 1
49 45 54 1
50 46 47 2
51 46 59 1
52 48 49 1
53 49 50 1
54 50 51 2
55 50 52 1
56 48 55 1
57 48 56 1
58 49 57 1
59 49 58 1
60 59 60 1
61 59 65 1
62 60 61 1
63 60 63 1
64 60 66 1
65 61 62 2
66 61 70 1
67 63 64 1
68 63 67 1
69 63 68 1
70 64 69 1
71 70 71 1
72 70 78 1
73 71 72 1
74 71 74 1
75 71 79 1
76 72 73 2
77 72 89 1
78 74 75 1
79 74 76 1
80 75 77 1
81 74 80 1
82 75 81 1
83 75 82 1
84 76 83 1
85 76 84 1
86 76 85 1
87 77 86 1
88 77 87 1
89 77 88 1
90 89 90 1
91 89 97 1
92 90 91 1
93 90 93 1
94 90 98 1
95 91 92 2
96 91 108 1
97 93 94 1
98 94 95 1
99 94 96 1
100 93 99 1
101 93 100 1
102 94 101 1
103 95 102 1
104 95 103 1
105 95 104 1
106 96 105 1
107 96 106 1
108 96 107 1
109 108 109 1
110 108 116 1
111 109 110 1
112 109 112 1
113 109 117 1
114 110 111 2
115 110 120 1
116 112 113 1
117 113 114 2
118 113 115 1
119 112 118 1
120 112 119 1
121 120 121 1
122 120 129 1
123 121 122 1
124 121 124 1
125 121 130 1
126 122 123 2
127 122 135 1
128 124 125 1
129 125 126 1
130 126 127 2
131 126 128 1
132 124 131 1
133 124 132 1
134 125 133 1
135 125 134 1
136 135 136 1
137 135 145 1
138 136 137 1
139 136 139 1
140 136 146 1
141 137 138 2
142 137 152 1
143 139 140 1
144 140 141 2
145 141 144 1
146 140 142 1
147 142 143 2
148 143 144 1
149 139 147 1
150 139 148 1
151 141 149 1
152 143 150 1
153 144 151 1
154 152 153 1
155 152 159 1
156 153 154 1
157 153 156 1
158 153 160 1
159 154 155 2
160 154 168 1
161 156 157 1
162 156 158 1
163 156 161 1
164 157 162 1
165 157 163 1
166 157 164 1
167 158 165 1
168 158 166 1
169 158 167 1
170 168 169 1
171 168 176 1
172 169 170 1
173 169 172 1
174 169 177 1
175 170 171 2
176 170 187 1
177 172 173 1
178 172 174 1
179 173 175 1
180 172 178 1
181 173 179 1
182 173 180 1
183 174 181 1
184 174 182 1
185 174 183 1
186 175 184 1
187 175 185 1
188 175 186 1
189 187 188 1
190 187 198 1
191 188 189 1
192 188 191 1
193 188 199 1
194 189 190 2
195 189 211 1
196 191 192 1
197 192 193 1
198 193 194 1
199 194 195 1
200 195 196 2
201 195 197 1
202 191 200 1
203 191 201 1
204 192 202 1
205 192 203 1
206 193 204 1
207 193 205 1
208 194 206 1
209 196 207 1
210 196 208 1
211 197 209 1
212 197 210 1
213 211 212 1
214 211 218 1
215 212 213 1
216 212 215 1
217 212 219 1
218 213 214 2
219 213 227 1
220 215 216 1
221 215 217 1
222 215 220 1
223 216 221 1
224 216 222 1
225 216 223 1
226 217 224 1
227 217 225 1
228 217 226 1
229 227 228 1
230 227 235 1
231 228 229 1
232 228 231 1
233 228 236 1
234 229 230 2
235 229 244 1
236 231 232 1
237 232 233 1
238 233 234 1
239 231 237 1
240 231 238 1
241 232 239 1
242 232 240 1
243 234 241 1
244 234 242 1
245 234 243 1
246 244 245 1
247 244 255 1
248 245 246 1
249 245 248 1
250 245 256 1
251 246 247 2
252 248 249 1
253 249 250 1
254 250 251 1
255 251 252 1
256 252 253 2
257 252 254 1
258 248 257 1
259 248 258 1
260 249 259 1
261 249 260 1
262 250 261 1
263 250 262 1
264 251 263 1
265 253 264 1
266 253 265 1
267 254 266 1
268 254 267 1
@<TRIPOS>SUBSTRUCTURE
1	GLU1	1	RESIDUE	1 ****	GLU
2	ASN2	16	RESIDUE	1 ****	ASN
3	PRO3	30	RESIDUE	1 ****	PRO
4	GLU4	44	RESIDUE	1 ****	GLU
5	SER5	59	RESIDUE	1 ****	SER
6	ILE6	70	RESIDUE	1 ****	ILE
7	LEU7	89	RESIDUE	1 ****	LEU
8	ASP8	108	RESIDUE	1 ****	ASP
9	GLU9	120	RESIDUE	1 ****	GLU
10	HIS10	135	RESIDUE	1 ****	HIS
11	VAL11	152	RESIDUE	1 ****	VAL
12	ILE12	168	RESIDUE	1 ****	ILE
13	ARG13	187	RESIDUE	1 ****	ARG
14	VAL14	211	RESIDUE	1 ****	VAL
15	MET15	227	RESIDUE	1 ****	MET
16	ARG16	244	RESIDUE	1 ****	ARG
