@<TRIPOS>MOLECULE
1-3
257 258 16              
SMALL
USER_CHARGES
@<TRIPOS>ATOM
1	   N	16.965	11.679	-5.627	N.3	1	GLY1	-0.416	
2	  CA	18.390	11.796	-5.923	C.3	1	GLY1	-0.025	
3	   C	19.219	11.088	-4.879	C.2	1	GLY1	0.597	
4	   O	20.141	10.327	-5.182	O.2	1	GLY1	-0.568	
5	   H	16.602	11.145	-4.761	 H	1	GLY1	0.272	
6	 3HA	18.642	12.815	-5.934	 H	1	GLY1	0.070	
7	  HA	18.594	11.319	-6.900	 H	1	GLY1	0.070	
8	   N	18.955	11.285	-3.631	N.am	2	ASN2	-0.416	
9	  CA	19.757	10.600	-2.622	C.3	2	ASN2	0.014	
10	   C	19.711	9.103	-2.819	C.2	2	ASN2	0.597	
11	   O	20.728	8.411	-2.798	O.2	2	ASN2	-0.568	
12	  CB	19.245	10.984	-1.204	C.3	2	ASN2	-0.204	
13	  CG	19.225	12.476	-0.854	C.2	2	ASN2	0.713	
14	 ND2	20.345	13.061	-0.523	N.pl3	2	ASN2	-0.919	
15	 OD1	18.200	13.141	-0.896	O.2	2	ASN2	-0.593	
16	   H	18.205	11.904	-3.357	 H	2	ASN2	0.272	
17	  HA	20.811	10.913	-2.739	 H	2	ASN2	0.105	
18	 2HB	19.827	10.455	-0.427	 H	2	ASN2	0.080	
19	 3HB	18.210	10.612	-1.071	 H	2	ASN2	0.080	
20	1HD2	20.250	14.078	-0.459	 H	2	ASN2	0.420	
21	2HD2	21.194	12.501	-0.585	 H	2	ASN2	0.420	
22	   N	18.571	8.533	-3.016	N.am	3	PRO3	-0.255	
23	  CA	18.437	7.098	-3.215	C.3	3	PRO3	-0.027	
24	   C	19.003	6.660	-4.576	C.2	3	PRO3	0.590	
25	   O	19.752	5.686	-4.657	O.2	3	PRO3	-0.575	
26	  CB	16.917	6.903	-3.105	C.3	3	PRO3	-0.007	
27	  CG	16.344	8.238	-3.606	C.3	3	PRO3	0.019	
28	  CD	17.328	9.273	-3.055	C.3	3	PRO3	0.019	
29	  HA	18.959	6.551	-2.425	 H	3	PRO3	0.064	
30	 2HB	16.651	6.769	-2.055	 H	3	PRO3	0.025	
31	 3HB	16.556	6.045	-3.677	 H	3	PRO3	0.025	
32	 2HG	15.324	8.412	-3.258	 H	3	PRO3	0.021	
33	 3HG	16.367	8.259	-4.697	 H	3	PRO3	0.021	
34	 2HD	17.051	9.575	-2.042	 H	3	PRO3	0.039	
35	 3HD	17.411	10.149	-3.702	 H	3	PRO3	0.039	
36	   N	18.690	7.317	-5.641	N.am	4	GLU4	-0.516	
37	  CA	19.237	6.886	-6.925	C.3	4	GLU4	0.040	
38	   C	20.746	6.860	-6.889	C.2	4	GLU4	0.537	
39	   O	21.397	5.896	-7.317	O.2	4	GLU4	-0.582	
40	  CB	18.737	7.834	-8.053	C.3	4	GLU4	0.056	
41	  CG	19.201	7.469	-9.500	C.3	4	GLU4	0.014	
42	  CD	18.800	8.387	-10.640	C.2	4	GLU4	0.805	
43	 OE1	18.098	9.396	-10.432	O.co2	4	GLU4	-0.819	
44	 OE2	19.221	8.083	-11.775	O.co2	4	GLU4	-0.819	
45	   H	18.077	8.117	-5.588	 H	4	GLU4	0.294	
46	  HA	18.884	5.860	-7.133	 H	4	GLU4	0.111	
47	 2HB	19.053	8.874	-7.835	 H	4	GLU4	-0.017	
48	 3HB	17.631	7.878	-8.046	 H	4	GLU4	-0.017	
49	 2HG	18.865	6.459	-9.784	 H	4	GLU4	-0.043	
50	 3HG	20.301	7.447	-9.574	 H	4	GLU4	-0.043	
51	   N	21.378	7.871	-6.396	N.am	5	SER5	-0.416	
52	  CA	22.837	7.845	-6.362	C.3	5	SER5	-0.025	
53	   C	23.338	6.639	-5.602	C.2	5	SER5	0.597	
54	   O	24.234	5.918	-6.040	O.2	5	SER5	-0.568	
55	  CB	23.398	9.163	-5.772	C.3	5	SER5	0.212	
56	  OG	23.132	9.305	-4.373	O.3	5	SER5	-0.655	
57	   H	20.870	8.669	-6.041	 H	5	SER5	0.272	
58	  HA	23.201	7.742	-7.400	 H	5	SER5	0.084	
59	 2HB	23.004	10.043	-6.315	 H	5	SER5	0.035	
60	 3HB	24.495	9.202	-5.924	 H	5	SER5	0.035	
61	  HG	22.179	9.344	-4.264	 H	5	SER5	0.428	
62	   N	22.811	6.356	-4.459	N.am	6	ILE6	-0.416	
63	  CA	23.295	5.191	-3.725	C.3	6	ILE6	-0.060	
64	   C	23.168	3.937	-4.555	C.2	6	ILE6	0.597	
65	   O	24.096	3.122	-4.662	O.2	6	ILE6	-0.568	
66	  CB	22.568	5.047	-2.326	C.3	6	ILE6	0.130	
67	 CG1	22.594	6.335	-1.442	C.3	6	ILE6	-0.043	
68	 CG2	23.122	3.863	-1.474	C.3	6	ILE6	-0.320	
69	 CD1	21.636	6.342	-0.233	C.3	6	ILE6	-0.066	
70	   H	22.074	6.932	-4.077	 H	6	ILE6	0.272	
71	  HA	24.375	5.337	-3.541	 H	6	ILE6	0.087	
72	  HB	21.501	4.831	-2.544	 H	6	ILE6	0.019	
73	2HG1	22.312	7.211	-2.056	 H	6	ILE6	0.024	
74	3HG1	23.629	6.552	-1.111	 H	6	ILE6	0.024	
75	1HG2	23.033	2.885	-1.978	 H	6	ILE6	0.088	
76	2HG2	24.189	4.002	-1.214	 H	6	ILE6	0.088	
77	3HG2	22.573	3.734	-0.524	 H	6	ILE6	0.088	
78	1HD1	20.587	6.170	-0.540	 H	6	ILE6	0.019	
79	2HD1	21.893	5.571	0.515	 H	6	ILE6	0.019	
80	3HD1	21.664	7.314	0.293	 H	6	ILE6	0.019	
81	   N	22.059	3.706	-5.173	N.am	7	LEU7	-0.416	
82	  CA	21.936	2.493	-5.976	C.3	7	LEU7	-0.052	
83	   C	23.014	2.433	-7.032	C.2	7	LEU7	0.597	
84	   O	23.683	1.408	-7.231	O.2	7	LEU7	-0.568	
85	  CB	20.523	2.405	-6.620	C.3	7	LEU7	-0.110	
86	  CG	19.289	2.419	-5.678	C.3	7	LEU7	0.353	
87	 CD1	18.002	2.212	-6.489	C.3	7	LEU7	-0.412	
88	 CD2	19.377	1.359	-4.567	C.3	7	LEU7	-0.412	
89	   H	21.288	4.354	-5.102	 H	7	LEU7	0.272	
90	  HA	22.098	1.620	-5.318	 H	7	LEU7	0.092	
91	 2HB	20.476	1.487	-7.239	 H	7	LEU7	0.046	
92	 3HB	20.411	3.235	-7.346	 H	7	LEU7	0.046	
93	  HG	19.232	3.419	-5.199	 H	7	LEU7	-0.036	
94	1HD1	17.882	2.983	-7.274	 H	7	LEU7	0.100	
95	2HD1	17.979	1.228	-6.994	 H	7	LEU7	0.100	
96	3HD1	17.103	2.271	-5.849	 H	7	LEU7	0.100	
97	1HD2	19.514	0.340	-4.971	 H	7	LEU7	0.100	
98	2HD2	20.226	1.561	-3.887	 H	7	LEU7	0.100	
99	3HD2	18.472	1.351	-3.931	 H	7	LEU7	0.100	
100	   N	23.246	3.480	-7.749	N.am	8	ASP8	-0.516	
101	  CA	24.289	3.422	-8.770	C.3	8	ASP8	0.038	
102	   C	25.618	3.038	-8.166	C.2	8	ASP8	0.537	
103	   O	26.343	2.167	-8.672	O.2	8	ASP8	-0.582	
104	  CB	24.392	4.779	-9.522	C.3	8	ASP8	-0.030	
105	  CG	25.408	4.820	-10.673	C.2	8	ASP8	0.799	
106	 OD1	25.556	3.810	-11.391	O.co2	8	ASP8	-0.801	
107	 OD2	26.092	5.853	-10.828	O.co2	8	ASP8	-0.801	
108	   H	22.715	4.327	-7.606	 H	8	ASP8	0.294	
109	  HA	24.018	2.633	-9.496	 H	8	ASP8	0.088	
110	 2HB	24.652	5.586	-8.813	 H	8	ASP8	-0.012	
111	 3HB	23.417	5.062	-9.951	 H	8	ASP8	-0.012	
112	   N	26.012	3.632	-7.091	N.am	9	GLU9	-0.516	
113	  CA	27.297	3.260	-6.507	C.3	9	GLU9	0.040	
114	   C	27.344	1.783	-6.198	C.2	9	GLU9	0.537	
115	   O	28.311	1.076	-6.515	O.2	9	GLU9	-0.582	
116	  CB	27.549	4.093	-5.217	C.3	9	GLU9	0.056	
117	  CG	28.916	3.841	-4.502	C.3	9	GLU9	0.014	
118	  CD	29.198	4.576	-3.205	C.2	9	GLU9	0.805	
119	 OE1	28.372	5.379	-2.731	O.co2	9	GLU9	-0.819	
120	 OE2	30.284	4.320	-2.645	O.co2	9	GLU9	-0.819	
121	   H	25.439	4.344	-6.660	 H	9	GLU9	0.294	
122	  HA	28.095	3.480	-7.239	 H	9	GLU9	0.111	
123	 2HB	26.733	3.910	-4.488	 H	9	GLU9	-0.017	
124	 3HB	27.473	5.174	-5.445	 H	9	GLU9	-0.017	
125	 2HG	29.763	4.060	-5.173	 H	9	GLU9	-0.043	
126	 3HG	29.028	2.782	-4.218	 H	9	GLU9	-0.043	
127	   N	26.347	1.241	-5.585	N.am	10	HIS10	-0.416	
128	  CA	26.391	-0.188	-5.286	C.3	10	HIS10	-0.058	
129	   C	26.587	-0.999	-6.544	C.2	10	HIS10	0.597	
130	   O	27.422	-1.913	-6.613	O.2	10	HIS10	-0.568	
131	  CB	25.044	-0.534	-4.629	C.3	10	HIS10	-0.007	
132	  CG	25.210	-1.066	-3.236	C.2	10	HIS10	0.187	
133	 CD2	25.208	-0.247	-2.114	C.2	10	HIS10	-0.221	
134	 ND1	25.382	-2.404	-2.888	N.2	10	HIS10	-0.543	
135	 CE1	25.477	-2.285	-1.551	C.2	10	HIS10	0.163	
136	 NE2	25.381	-1.040	-1.010	N.pl3	10	HIS10	-0.280	
137	   H	25.547	1.796	-5.316	 H	10	HIS10	0.272	
138	  HA	27.276	-0.369	-4.653	 H	10	HIS10	0.136	
139	 2HB	24.494	-1.292	-5.220	 H	10	HIS10	0.037	
140	 3HB	24.368	0.345	-4.575	 H	10	HIS10	0.037	
141	 2HD	25.087	0.832	-2.141	 H	10	HIS10	0.186	
142	 1HE	25.623	-3.190	-0.976	 H	10	HIS10	0.144	
143	 2HE	25.429	-0.755	-0.021	 H	10	HIS10	0.334	
144	   N	25.863	-0.733	-7.578	N.am	11	VAL11	-0.416	
145	  CA	26.053	-1.517	-8.795	C.3	11	VAL11	-0.087	
146	   C	27.485	-1.445	-9.268	C.2	11	VAL11	0.597	
147	   O	28.118	-2.454	-9.602	O.2	11	VAL11	-0.568	
148	  CB	25.064	-1.011	-9.919	C.3	11	VAL11	0.299	
149	 CG1	25.262	-1.615	-11.336	C.3	11	VAL11	-0.319	
150	 CG2	23.569	-1.235	-9.586	C.3	11	VAL11	-0.319	
151	   H	25.176	0.007	-7.547	 H	11	VAL11	0.272	
152	  HA	25.839	-2.578	-8.572	 H	11	VAL11	0.097	
153	  HB	25.216	0.085	-10.020	 H	11	VAL11	-0.030	
154	1HG1	25.152	-2.716	-11.346	 H	11	VAL11	0.079	
155	2HG1	24.543	-1.207	-12.072	 H	11	VAL11	0.079	
156	3HG1	26.260	-1.385	-11.757	 H	11	VAL11	0.079	
157	1HG2	23.291	-0.783	-8.616	 H	11	VAL11	0.079	
158	2HG2	22.905	-0.771	-10.341	 H	11	VAL11	0.079	
159	3HG2	23.307	-2.309	-9.533	 H	11	VAL11	0.079	
160	   N	28.067	-0.295	-9.325	N.am	12	GLN12	-0.416	
161	  CA	29.451	-0.224	-9.782	C.3	12	GLN12	-0.003	
162	   C	30.348	-1.093	-8.933	C.2	12	GLN12	0.597	
163	   O	31.169	-1.861	-9.429	O.2	12	GLN12	-0.568	
164	  CB	29.911	1.251	-9.741	C.3	12	GLN12	-0.004	
165	  CG	31.365	1.535	-10.242	C.3	12	GLN12	-0.064	
166	  CD	31.912	2.966	-10.175	C.2	12	GLN12	0.695	
167	 NE2	31.159	3.934	-9.718	N.pl3	12	GLN12	-0.941	
168	 OE1	33.056	3.221	-10.520	O.2	12	GLN12	-0.609	
169	   H	27.572	0.544	-9.057	 H	12	GLN12	0.272	
170	  HA	29.503	-0.603	-10.819	 H	12	GLN12	0.085	
171	 2HB	29.810	1.624	-8.701	 H	12	GLN12	0.017	
172	 3HB	29.207	1.862	-10.339	 H	12	GLN12	0.017	
173	 2HG	31.483	1.184	-11.284	 H	12	GLN12	0.035	
174	 3HG	32.094	0.934	-9.668	 H	12	GLN12	0.035	
175	1HE2	31.620	4.842	-9.645	 H	12	GLN12	0.425	
176	2HE2	30.239	3.642	-9.382	 H	12	GLN12	0.425	
177	   N	30.248	-1.029	-7.648	N.am	13	ARG13	-0.348	
178	  CA	31.115	-1.870	-6.828	C.3	13	ARG13	-0.264	
179	   C	30.943	-3.328	-7.180	C.2	13	ARG13	0.734	
180	   O	31.904	-4.072	-7.363	O.2	13	ARG13	-0.589	
181	  CB	30.796	-1.607	-5.329	C.3	13	ARG13	-0.001	
182	  CG	31.808	-2.209	-4.314	C.3	13	ARG13	0.039	
183	  CD	31.399	-1.934	-2.858	C.3	13	ARG13	0.049	
184	  NE	32.416	-2.516	-1.932	N.pl3	13	ARG13	-0.530	
185	  CZ	32.365	-2.464	-0.604	C.cat	13	ARG13	0.808	
186	 NH1	31.400	-1.893	0.060	N.pl3	13	ARG13	-0.863	
187	 NH2	33.328	-3.011	0.070	N.pl3	13	ARG13	-0.863	
188	   H	29.581	-0.406	-7.216	 H	13	ARG13	0.275	
189	  HA	32.165	-1.595	-7.047	 H	13	ARG13	0.156	
190	 2HB	29.773	-1.978	-5.112	 H	13	ARG13	0.033	
191	 3HB	30.733	-0.513	-5.157	 H	13	ARG13	0.033	
192	 2HG	32.818	-1.798	-4.519	 H	13	ARG13	0.029	
193	 3HG	31.896	-3.304	-4.469	 H	13	ARG13	0.029	
194	 2HD	30.394	-2.371	-2.669	 H	13	ARG13	0.069	
195	 3HD	31.300	-0.838	-2.701	 H	13	ARG13	0.069	
196	  HE	33.241	-3.004	-2.295	 H	13	ARG13	0.346	
197	1HH1	30.673	-1.483	-0.531	 H	13	ARG13	0.448	
198	2HH1	31.435	-1.895	1.080	 H	13	ARG13	0.448	
199	1HH2	34.075	-3.454	-0.468	 H	13	ARG13	0.448	
200	2HH2	33.272	-2.959	1.088	 H	13	ARG13	0.448	
201	   N	29.751	-3.808	-7.292	N.am	14	VAL14	-0.416	
202	  CA	29.584	-5.218	-7.633	C.3	14	VAL14	-0.087	
203	   C	30.281	-5.547	-8.931	C.2	14	VAL14	0.597	
204	   O	31.010	-6.539	-9.051	O.2	14	VAL14	-0.568	
205	  CB	28.046	-5.571	-7.716	C.3	14	VAL14	0.299	
206	 CG1	27.691	-6.986	-8.249	C.3	14	VAL14	-0.319	
207	 CG2	27.300	-5.445	-6.365	C.3	14	VAL14	-0.319	
208	   H	28.945	-3.217	-7.147	 H	14	VAL14	0.272	
209	  HA	30.058	-5.833	-6.846	 H	14	VAL14	0.097	
210	  HB	27.580	-4.844	-8.416	 H	14	VAL14	-0.030	
211	1HG1	28.127	-7.793	-7.631	 H	14	VAL14	0.079	
212	2HG1	26.598	-7.158	-8.290	 H	14	VAL14	0.079	
213	3HG1	28.041	-7.147	-9.286	 H	14	VAL14	0.079	
214	1HG2	27.426	-4.443	-5.918	 H	14	VAL14	0.079	
215	2HG2	26.209	-5.591	-6.483	 H	14	VAL14	0.079	
216	3HG2	27.653	-6.183	-5.620	 H	14	VAL14	0.079	
217	   N	30.111	-4.769	-9.946	N.am	15	MET15	-0.416	
218	  CA	30.785	-5.086	-11.202	C.3	15	MET15	-0.024	
219	   C	32.279	-5.182	-11.007	C.2	15	MET15	0.597	
220	   O	32.942	-6.124	-11.466	O.2	15	MET15	-0.568	
221	  CB	30.433	-4.018	-12.273	C.3	15	MET15	0.034	
222	  CG	28.943	-3.921	-12.665	C.3	15	MET15	0.002	
223	  SD	28.758	-2.856	-14.105	S.3	15	MET15	-0.274	
224	  CE	26.974	-2.640	-14.049	C.3	15	MET15	-0.054	
225	   H	29.521	-3.953	-9.873	 H	15	MET15	0.272	
226	  HA	30.439	-6.078	-11.547	 H	15	MET15	0.088	
227	 2HB	31.010	-4.220	-13.196	 H	15	MET15	0.024	
228	 3HB	30.778	-3.019	-11.937	 H	15	MET15	0.024	
229	 2HG	28.356	-3.505	-11.824	 H	15	MET15	0.044	
230	 3HG	28.515	-4.915	-12.889	 H	15	MET15	0.044	
231	 1HE	26.456	-3.616	-14.065	 H	15	MET15	0.068	
232	 2HE	26.680	-2.105	-13.128	 H	15	MET15	0.068	
233	 3HE	26.629	-2.050	-14.915	 H	15	MET15	0.068	
234	   N	32.884	-4.256	-10.342	N.am	16	ARG16	-0.348	
235	  CA	34.329	-4.349	-10.154	C.3	16	ARG16	-0.264	
236	   C	34.703	-5.649	-9.481	C.2	16	ARG16	0.734	
237	   O	33.861	-6.491	-9.177	O.2	16	ARG16	-0.589	
238	  CB	34.806	-3.123	-9.325	C.3	16	ARG16	-0.001	
239	  CG	36.346	-2.916	-9.264	C.3	16	ARG16	0.039	
240	  CD	36.732	-1.706	-8.398	C.3	16	ARG16	0.049	
241	  NE	38.215	-1.544	-8.394	N.pl3	16	ARG16	-0.530	
242	  CZ	38.884	-0.600	-7.738	C.cat	16	ARG16	0.808	
243	 NH1	38.312	0.310	-7.001	N.pl3	16	ARG16	-0.863	
244	 NH2	40.176	-0.581	-7.834	N.pl3	16	ARG16	-0.863	
245	   H	32.366	-3.479	-9.959	 H	16	ARG16	0.275	
246	  HA	34.805	-4.341	-11.153	 H	16	ARG16	0.156	
247	 2HB	34.392	-3.204	-8.299	 H	16	ARG16	0.033	
248	 3HB	34.342	-2.204	-9.736	 H	16	ARG16	0.033	
249	 2HG	36.738	-2.796	-10.295	 H	16	ARG16	0.029	
250	 3HG	36.836	-3.825	-8.862	 H	16	ARG16	0.029	
251	 2HD	36.346	-1.855	-7.365	 H	16	ARG16	0.069	
252	 3HD	36.233	-0.794	-8.791	 H	16	ARG16	0.069	
253	  HE	38.817	-2.182	-8.924	 H	16	ARG16	0.346	
254	1HH1	37.292	0.238	-6.966	 H	16	ARG16	0.448	
255	2HH1	38.896	1.002	-6.529	 H	16	ARG16	0.448	
256	1HH2	40.607	-1.303	-8.415	 H	16	ARG16	0.448	
257	2HH2	40.672	0.152	-7.325	 H	16	ARG16	0.448	
@<TRIPOS>BOND
1 1 2 1
2 1 5 1
3 2 3 1
4 2 6 1
5 2 7 1
6 3 4 2
7 3 8 1
8 8 9 1
9 8 16 1
10 9 10 1
11 9 12 1
12 9 17 1
13 10 11 2
14 10 22 1
15 12 13 1
16 13 14 1
17 13 15 2
18 12 18 1
19 12 19 1
20 14 20 1
21 14 21 1
22 22 23 1
23 22 28 1
24 23 24 1
25 23 26 1
26 23 29 1
27 24 25 2
28 24 36 1
29 26 27 1
30 27 28 1
31 26 30 1
32 26 31 1
33 27 32 1
34 27 33 1
35 28 34 1
36 28 35 1
37 36 37 1
38 36 45 1
39 37 38 1
40 37 40 1
41 37 46 1
42 38 39 2
43 38 51 1
44 40 41 1
45 41 42 1
46 42 43 2
47 42 44 1
48 40 47 1
49 40 48 1
50 41 49 1
51 41 50 1
52 51 52 1
53 51 57 1
54 52 53 1
55 52 55 1
56 52 58 1
57 53 54 2
58 53 62 1
59 55 56 1
60 55 59 1
61 55 60 1
62 56 61 1
63 62 63 1
64 62 70 1
65 63 64 1
66 63 66 1
67 63 71 1
68 64 65 2
69 64 81 1
70 66 67 1
71 66 68 1
72 67 69 1
73 66 72 1
74 67 73 1
75 67 74 1
76 68 75 1
77 68 76 1
78 68 77 1
79 69 78 1
80 69 79 1
81 69 80 1
82 81 82 1
83 81 89 1
84 82 83 1
85 82 85 1
86 82 90 1
87 83 84 2
88 83 100 1
89 85 86 1
90 86 87 1
91 86 88 1
92 85 91 1
93 85 92 1
94 86 93 1
95 87 94 1
96 87 95 1
97 87 96 1
98 88 97 1
99 88 98 1
100 88 99 1
101 100 101 1
102 100 108 1
103 101 102 1
104 101 104 1
105 101 109 1
106 102 103 2
107 102 112 1
108 104 105 1
109 105 106 2
110 105 107 1
111 104 110 1
112 104 111 1
113 112 113 1
114 112 121 1
115 113 114 1
116 113 116 1
117 113 122 1
118 114 115 2
119 114 127 1
120 116 117 1
121 117 118 1
122 118 119 2
123 118 120 1
124 116 123 1
125 116 124 1
126 117 125 1
127 117 126 1
128 127 128 1
129 127 137 1
130 128 129 1
131 128 131 1
132 128 138 1
133 129 130 2
134 129 144 1
135 131 132 1
136 132 133 2
137 133 136 1
138 132 134 1
139 134 135 2
140 135 136 1
141 131 139 1
142 131 140 1
143 133 141 1
144 135 142 1
145 136 143 1
146 144 145 1
147 144 151 1
148 145 146 1
149 145 148 1
150 145 152 1
151 146 147 2
152 146 160 1
153 148 149 1
154 148 150 1
155 148 153 1
156 149 154 1
157 149 155 1
158 149 156 1
159 150 157 1
160 150 158 1
161 150 159 1
162 160 161 1
163 160 169 1
164 161 162 1
165 161 164 1
166 161 170 1
167 162 163 2
168 162 177 1
169 164 165 1
170 165 166 1
171 166 167 1
172 166 168 2
173 164 171 1
174 164 172 1
175 165 173 1
176 165 174 1
177 167 175 1
178 167 176 1
179 177 178 1
180 177 188 1
181 178 179 1
182 178 181 1
183 178 189 1
184 179 180 2
185 179 201 1
186 181 182 1
187 182 183 1
188 183 184 1
189 184 185 1
190 185 186 2
191 185 187 1
192 181 190 1
193 181 191 1
194 182 192 1
195 182 193 1
196 183 194 1
197 183 195 1
198 184 196 1
199 186 197 1
200 186 198 1
201 187 199 1
202 187 200 1
203 201 202 1
204 201 208 1
205 202 203 1
206 202 205 1
207 202 209 1
208 203 204 2
209 203 217 1
210 205 206 1
211 205 207 1
212 205 210 1
213 206 211 1
214 206 212 1
215 206 213 1
216 207 214 1
217 207 215 1
218 207 216 1
219 217 218 1
220 217 225 1
221 218 219 1
222 218 221 1
223 218 226 1
224 219 220 2
225 219 234 1
226 221 222 1
227 222 223 1
228 223 224 1
229 221 227 1
230 221 228 1
231 222 229 1
232 222 230 1
233 224 231 1
234 224 232 1
235 224 233 1
236 234 235 1
237 234 245 1
238 235 236 1
239 235 238 1
240 235 246 1
241 236 237 2
242 238 239 1
243 239 240 1
244 240 241 1
245 241 242 1
246 242 243 2
247 242 244 1
248 238 247 1
249 238 248 1
250 239 249 1
251 239 250 1
252 240 251 1
253 240 252 1
254 241 253 1
255 243 254 1
256 243 255 1
257 244 256 1
258 244 257 1
@<TRIPOS>SUBSTRUCTURE
1	GLY1	1	RESIDUE	1 ****	GLY
2	ASN2	8	RESIDUE	1 ****	ASN
3	PRO3	22	RESIDUE	1 ****	PRO
4	GLU4	36	RESIDUE	1 ****	GLU
5	SER5	51	RESIDUE	1 ****	SER
6	ILE6	62	RESIDUE	1 ****	ILE
7	LEU7	81	RESIDUE	1 ****	LEU
8	ASP8	100	RESIDUE	1 ****	ASP
9	GLU9	112	RESIDUE	1 ****	GLU
10	HIS10	127	RESIDUE	1 ****	HIS
11	VAL11	144	RESIDUE	1 ****	VAL
12	GLN12	160	RESIDUE	1 ****	GLN
13	ARG13	177	RESIDUE	1 ****	ARG
14	VAL14	201	RESIDUE	1 ****	VAL
15	MET15	217	RESIDUE	1 ****	MET
16	ARG16	234	RESIDUE	1 ****	ARG
