REMARK WARNING: 32 MAX_TORS EXCEEDED!!!
REMARK  69 active torsions:
REMARK  status: ('A' for Active; 'I' for Inactive)
REMARK    1  A    between atoms: N_1  and  CA_2 
REMARK    2  A    between atoms: CA_2  and  C_3 
REMARK    3  A    between atoms: CA_2  and  CB_5 
REMARK       I    between atoms: C_3  and  N_11 
REMARK    4  A    between atoms: CB_5  and  CG_6 
REMARK    5  A    between atoms: CG_6  and  CD_7 
REMARK    6  A    between atoms: N_11  and  CA_12 
REMARK    7  A    between atoms: CA_12  and  C_13 
REMARK    8  A    between atoms: CA_12  and  CB_15 
REMARK       I    between atoms: C_13  and  N_22 
REMARK    9  A    between atoms: CB_15  and  CG_16 
REMARK       I    between atoms: CG_16  and  ND2_17 
REMARK   10  A    between atoms: CA_23  and  C_24 
REMARK       I    between atoms: C_24  and  N_29 
REMARK   11  A    between atoms: N_29  and  CA_30 
REMARK   12  A    between atoms: CA_30  and  C_31 
REMARK   13  A    between atoms: CA_30  and  CB_33 
REMARK       I    between atoms: C_31  and  N_39 
REMARK   14  A    between atoms: CB_33  and  CG_34 
REMARK   15  A    between atoms: CG_34  and  CD_35 
REMARK   16  A    between atoms: N_39  and  CA_40 
REMARK   17  A    between atoms: CA_40  and  C_41 
REMARK   18  A    between atoms: CA_40  and  CB_43 
REMARK       I    between atoms: C_41  and  N_47 
REMARK   19  A    between atoms: CB_43  and  OG_44 
REMARK   20  A    between atoms: N_47  and  CA_48 
REMARK   21  A    between atoms: CA_48  and  C_49 
REMARK   22  A    between atoms: CA_48  and  CB_51 
REMARK       I    between atoms: C_49  and  N_56 
REMARK   23  A    between atoms: CB_51  and  CG1_52 
REMARK   24  A    between atoms: N_56  and  CA_57 
REMARK   25  A    between atoms: CA_57  and  C_58 
REMARK   26  A    between atoms: CA_57  and  CB_60 
REMARK       I    between atoms: C_58  and  N_65 
REMARK   27  A    between atoms: CB_60  and  CG_61 
REMARK   28  A    between atoms: N_65  and  CA_66 
REMARK   29  A    between atoms: CA_66  and  C_67 
REMARK   30  A    between atoms: CA_66  and  CB_69 
REMARK       I    between atoms: C_67  and  N_74 
REMARK   31  A    between atoms: CB_69  and  CG_70 
REMARK   32  A    between atoms: N_74  and  CA_75 
REMARK   33  A    between atoms: CA_75  and  C_76 
REMARK   34  A    between atoms: CA_75  and  CB_78 
REMARK       I    between atoms: C_76  and  N_84 
REMARK   35  A    between atoms: CB_78  and  CG_79 
REMARK   36  A    between atoms: CG_79  and  CD_80 
REMARK   37  A    between atoms: N_84  and  CA_85 
REMARK   38  A    between atoms: CA_85  and  C_86 
REMARK   39  A    between atoms: CA_85  and  CB_88 
REMARK       I    between atoms: C_86  and  N_93 
REMARK   40  A    between atoms: CB_88  and  CG_89 
REMARK   41  A    between atoms: CG_89  and  SD_90 
REMARK   42  A    between atoms: N_93  and  CA_94 
REMARK   43  A    between atoms: CA_94  and  C_95 
REMARK   44  A    between atoms: CA_94  and  CB_97 
REMARK       I    between atoms: C_95  and  N_101 
REMARK   45  A    between atoms: N_101  and  CA_102 
REMARK   46  A    between atoms: CA_102  and  C_103 
REMARK   47  A    between atoms: CA_102  and  CB_105 
REMARK       I    between atoms: C_103  and  N_113 
REMARK   48  A    between atoms: CB_105  and  CG_106 
REMARK   49  A    between atoms: CG_106  and  CD_107 
REMARK       I    between atoms: CD_107  and  NE2_108 
REMARK   50  A    between atoms: N_113  and  CA_114 
REMARK   51  A    between atoms: CA_114  and  C_115 
REMARK   52  A    between atoms: CA_114  and  CB_117 
REMARK       I    between atoms: C_115  and  N_130 
REMARK   53  A    between atoms: CB_117  and  CG_118 
REMARK   54  A    between atoms: CG_118  and  CD_119 
REMARK   55  A    between atoms: CD_119  and  NE_120 
REMARK       I    between atoms: NE_120  and  CZ_121 
REMARK       I    between atoms: CZ_121  and  NH1_122 
REMARK       I    between atoms: CZ_121  and  NH2_123 
REMARK   56  A    between atoms: N_130  and  CA_131 
REMARK   57  A    between atoms: CA_131  and  C_132 
REMARK   58  A    between atoms: CA_131  and  CB_134 
REMARK       I    between atoms: C_132  and  N_138 
REMARK   59  A    between atoms: N_138  and  CA_139 
REMARK   60  A    between atoms: CA_139  and  C_140 
REMARK   61  A    between atoms: CA_139  and  CB_142 
REMARK       I    between atoms: C_140  and  N_147 
REMARK   62  A    between atoms: CB_142  and  CG_143 
REMARK   63  A    between atoms: CG_143  and  SD_144 
REMARK   64  A    between atoms: N_147  and  CA_148 
REMARK   65  A    between atoms: CA_148  and  C_149 
REMARK   66  A    between atoms: CA_148  and  CB_151 
REMARK   67  A    between atoms: CB_151  and  CG_152 
REMARK   68  A    between atoms: CG_152  and  CD_153 
REMARK   69  A    between atoms: CD_153  and  NE_154 
REMARK       I    between atoms: NE_154  and  CZ_155 
REMARK       I    between atoms: CZ_155  and  NH1_156 
ROOT
ATOM      1  C   GLU d   9    1559.970 465.019-1581.442  0.00  0.00     0.241 C 
ATOM      2  O   GLU d   9    1560.634 465.774-1582.167  0.00  0.00    -0.271 OA
ATOM      3  N   MET d  10    1560.067 463.744-1581.612  0.00  0.00    -0.346 N 
ATOM      4  H   MET d  10    1559.536 463.109-1581.034  0.00  0.00     0.163 HD
ENDROOT
BRANCH   1   5
ATOM      5  CA  GLU d   9    1559.052 465.547-1580.366  0.00  0.00     0.177 C 
BRANCH   5   6
ATOM      6  N   GLU d   9    1557.749 464.889-1580.421  0.00  0.00    -0.346 N 
ATOM      7  C   ASP d   8    1557.070 464.939-1581.516  0.00  0.00     0.241 C 
ATOM      8  O   ASP d   8    1557.542 465.544-1582.491  0.00  0.00    -0.271 OA
ATOM      9  H   GLU d   9    1557.386 464.402-1579.614  0.00  0.00     0.163 HD
BRANCH   7  10
ATOM     10  CA  ASP d   8    1555.723 464.259-1581.574  0.00  0.00     0.186 C 
BRANCH  10  11
ATOM     11  N   ASP d   8    1555.793 462.909-1581.021  0.00  0.00    -0.346 N 
ATOM     12  C   LEU d   7    1556.631 462.069-1581.527  0.00  0.00     0.241 C 
ATOM     13  O   LEU d   7    1557.351 462.432-1582.469  0.00  0.00    -0.271 OA
ATOM     14  H   ASP d   8    1555.196 462.638-1580.253  0.00  0.00     0.163 HD
BRANCH  12  15
ATOM     15  CA  LEU d   7    1556.703 460.674-1580.955  0.00  0.00     0.177 C 
BRANCH  15  16
ATOM     16  N   LEU d   7    1556.758 460.709-1579.497  0.00  0.00    -0.346 N 
ATOM     17  C   ILE d   6    1557.704 461.373-1578.923  0.00  0.00     0.241 C 
ATOM     18  O   ILE d   6    1558.539 461.961-1579.627  0.00  0.00    -0.271 OA
ATOM     19  H   LEU d   7    1556.066 460.222-1578.945  0.00  0.00     0.163 HD
BRANCH  17  20
ATOM     20  CA  ILE d   6    1557.762 461.410-1577.415  0.00  0.00     0.180 C 
BRANCH  20  21
ATOM     21  N   ILE d   6    1556.448 461.705-1576.849  0.00  0.00    -0.346 N 
ATOM     22  C   SER d   5    1555.844 462.788-1577.203  0.00  0.00     0.243 C 
ATOM     23  O   SER d   5    1556.391 463.542-1578.008  0.00  0.00    -0.271 OA
ATOM     24  H   ILE d   6    1556.020 461.070-1576.190  0.00  0.00     0.163 HD
BRANCH  22  25
ATOM     25  CA  SER d   5    1554.485 463.093-1576.617  0.00  0.00     0.200 C 
BRANCH  25  26
ATOM     26  N   SER d   5    1553.615 461.922-1576.676  0.00  0.00    -0.344 N 
ATOM     27  C   GLU d   4    1553.388 461.369-1577.819  0.00  0.00     0.241 C 
ATOM     28  O   GLU d   4    1553.914 461.849-1578.833  0.00  0.00    -0.271 OA
ATOM     29  H   SER d   5    1553.199 461.550-1575.834  0.00  0.00     0.163 HD
BRANCH  27  30
ATOM     30  CA  GLU d   4    1552.489 460.158-1577.880  0.00  0.00     0.177 C 
BRANCH  30  31
ATOM     31  N   GLU d   4    1552.849 459.187-1576.850  0.00  0.00    -0.346 N 
ATOM     32  C   PRO d   3    1554.054 458.727-1576.818  0.00  0.00     0.241 C 
ATOM     33  O   PRO d   3    1554.877 459.110-1577.650  0.00  0.00    -0.271 OA
ATOM     34  H   GLU d   4    1552.165 458.880-1576.173  0.00  0.00     0.163 HD
BRANCH  32  35
ATOM     35  CA  PRO d   3    1554.452 457.704-1575.741  0.00  0.00     0.179 C 
ATOM     36  N   PRO d   3    1554.000 458.113-1574.420  0.00  0.00    -0.337 N 
ATOM     37  C   ASN d   2    1554.522 459.108-1573.786  0.00  0.00     0.243 C 
ATOM     38  CD  PRO d   3    1552.922 457.320-1573.870  0.00  0.00     0.127 C 
ATOM     39  O   ASN d   2    1555.436 459.738-1574.314  0.00  0.00    -0.271 OA
ATOM     40  CG  PRO d   3    1552.464 456.501-1575.080  0.00  0.00     0.022 C 
ATOM     41  CB  PRO d   3    1553.748 456.349-1575.910  0.00  0.00     0.037 C 
BRANCH  37  42
ATOM     42  CA  ASN d   2    1553.990 459.463-1572.417  0.00  0.00     0.185 C 
BRANCH  42  43
ATOM     43  N   ASN d   2    1552.531 459.502-1572.417  0.00  0.00    -0.346 N 
ATOM     44  C   GLU d   1    1551.927 460.288-1573.242  0.00  0.00     0.242 C 
ATOM     45  O   GLU d   1    1552.602 460.987-1574.010  0.00  0.00    -0.271 OA
ATOM     46  H   ASN d   2    1552.003 458.922-1571.780  0.00  0.00     0.163 HD
BRANCH  44  47
ATOM     47  CA  GLU d   1    1550.417 460.328-1573.242  0.00  0.00     0.191 C 
BRANCH  47  48
ATOM     48  N   GLU d   1    1549.859 458.979-1573.242  0.00  0.00    -0.326 NA
ATOM     49  H   GLU d   1    1550.485 458.100-1573.242  0.00  0.00     0.180 HD
ENDBRANCH  47  48
BRANCH  47  50
ATOM     50  CB  GLU d   1    1549.895 461.113-1572.005  0.00  0.00     0.047 C 
BRANCH  50  51
ATOM     51  CG  GLU d   1    1550.370 462.598-1571.894  0.00  0.00     0.116 C 
BRANCH  51  52
ATOM     52  CD  GLU d   1    1549.946 463.402-1570.679  0.00  0.00     0.172 C 
ATOM     53  OE1 GLU d   1    1549.218 462.900-1569.801  0.00  0.00    -0.648 OA
ATOM     54  OE2 GLU d   1    1550.375 464.572-1570.607  0.00  0.00    -0.648 OA
ENDBRANCH  51  52
ENDBRANCH  50  51
ENDBRANCH  47  50
ENDBRANCH  44  47
ENDBRANCH  42  43
BRANCH  42  55
ATOM     55  CB  ASN d   2    1554.482 458.440-1571.352  0.00  0.00     0.137 C 
BRANCH  55  56
ATOM     56  CG  ASN d   2    1554.020 458.664-1569.909  0.00  0.00     0.217 C 
ATOM     57  ND2 ASN d   2    1554.614 459.579-1569.191  0.00  0.00    -0.370 N 
ATOM     58 21HD ASN d   2    1554.133 459.752-1568.304  0.00  0.00     0.159 HD
ATOM     59 22HD ASN d   2    1555.315 460.151-1569.660  0.00  0.00     0.159 HD
ATOM     60  OD1 ASN d   2    1553.099 458.030-1569.415  0.00  0.00    -0.274 OA
ENDBRANCH  55  56
ENDBRANCH  42  55
ENDBRANCH  37  42
ENDBRANCH  32  35
ENDBRANCH  30  31
BRANCH  30  61
ATOM     61  CB  GLU d   4    1551.000 460.577-1577.709  0.00  0.00     0.045 C 
BRANCH  61  62
ATOM     62  CG  GLU d   4    1550.452 461.580-1578.775  0.00  0.00     0.116 C 
BRANCH  62  63
ATOM     63  CD  GLU d   4    1549.026 462.077-1578.631  0.00  0.00     0.172 C 
ATOM     64  OE1 GLU d   4    1548.300 461.678-1577.700  0.00  0.00    -0.648 OA
ATOM     65  OE2 GLU d   4    1548.636 462.906-1579.479  0.00  0.00    -0.648 OA
ENDBRANCH  62  63
ENDBRANCH  61  62
ENDBRANCH  30  61
ENDBRANCH  27  30
ENDBRANCH  25  26
BRANCH  25  66
ATOM     66  CB  SER d   5    1554.597 463.625-1575.166  0.00  0.00     0.199 C 
BRANCH  66  67
ATOM     67  OG  SER d   5    1555.328 462.746-1574.306  0.00  0.00    -0.398 OA
ATOM     68  HG  SER d   5    1554.840 461.921-1574.255  0.00  0.00     0.209 HD
ENDBRANCH  66  67
ENDBRANCH  25  66
ENDBRANCH  22  25
ENDBRANCH  20  21
BRANCH  20  69
ATOM     69  CB  ILE d   6    1558.361 460.074-1576.816  0.00  0.00     0.013 C 
ATOM     70  CG2 ILE d   6    1559.803 459.773-1577.331  0.00  0.00     0.012 C 
BRANCH  69  71
ATOM     71  CG1 ILE d   6    1558.381 460.012-1575.255  0.00  0.00     0.002 C 
ATOM     72  CD1 ILE d   6    1558.651 458.622-1574.640  0.00  0.00     0.005 C 
ENDBRANCH  69  71
ENDBRANCH  20  69
ENDBRANCH  17  20
ENDBRANCH  15  16
BRANCH  15  73
ATOM     73  CB  LEU d   7    1555.500 459.813-1581.436  0.00  0.00     0.038 C 
BRANCH  73  74
ATOM     74  CG  LEU d   7    1555.427 458.334-1580.969  0.00  0.00    -0.020 C 
ATOM     75  CD1 LEU d   7    1554.238 457.628-1581.635  0.00  0.00     0.009 C 
ATOM     76  CD2 LEU d   7    1556.721 457.555-1581.261  0.00  0.00     0.009 C 
ENDBRANCH  73  74
ENDBRANCH  15  73
ENDBRANCH  12  15
ENDBRANCH  10  11
BRANCH  10  77
ATOM     77  CB  ASP d   8    1554.645 465.098-1580.832  0.00  0.00     0.147 C 
BRANCH  77  78
ATOM     78  CG  ASP d   8    1554.426 466.519-1581.372  0.00  0.00     0.175 C 
ATOM     79  OD1 ASP d   8    1554.490 466.718-1582.603  0.00  0.00    -0.648 OA
ATOM     80  OD2 ASP d   8    1554.234 467.444-1580.556  0.00  0.00    -0.648 OA
ENDBRANCH  77  78
ENDBRANCH  10  77
ENDBRANCH   7  10
ENDBRANCH   5   6
BRANCH   5  81
ATOM     81  CB  GLU d   9    1559.686 465.338-1578.961  0.00  0.00     0.045 C 
BRANCH  81  82
ATOM     82  CG  GLU d   9    1561.068 466.031-1578.731  0.00  0.00     0.116 C 
BRANCH  82  83
ATOM     83  CD  GLU d   9    1561.770 465.817-1577.403  0.00  0.00     0.172 C 
ATOM     84  OE1 GLU d   9    1561.249 465.126-1576.507  0.00  0.00    -0.648 OA
ATOM     85  OE2 GLU d   9    1562.889 466.355-1577.271  0.00  0.00    -0.648 OA
ENDBRANCH  82  83
ENDBRANCH  81  82
ENDBRANCH   5  81
ENDBRANCH   1   5
BRANCH   3  86
ATOM     86  CA  MET d  10    1560.954 463.234-1582.653  0.00  0.00     0.177 C 
BRANCH  86  87
ATOM     87  C   MET d  10    1560.587 463.799-1584.004  0.00  0.00     0.241 C 
ATOM     88  O   MET d  10    1561.441 464.264-1584.775  0.00  0.00    -0.271 OA
ATOM     89  N   VAL d  11    1559.350 463.798-1584.367  0.00  0.00    -0.346 N 
ATOM     90  H   VAL d  11    1558.636 463.425-1583.757  0.00  0.00     0.163 HD
BRANCH  89  91
ATOM     91  CA  VAL d  11    1558.995 464.345-1585.674  0.00  0.00     0.180 C 
BRANCH  91  92
ATOM     92  C   VAL d  11    1559.460 465.775-1585.806  0.00  0.00     0.241 C 
ATOM     93  O   VAL d  11    1560.062 466.181-1586.808  0.00  0.00    -0.271 OA
ATOM     94  N   GLN d  12    1559.222 466.601-1584.843  0.00  0.00    -0.346 N 
ATOM     95  H   GLN d  12    1558.733 466.294-1584.014  0.00  0.00     0.163 HD
BRANCH  94  96
ATOM     96  CA  GLN d  12    1559.671 467.984-1584.969  0.00  0.00     0.177 C 
BRANCH  96  97
ATOM     97  C   GLN d  12    1561.161 468.051-1585.206  0.00  0.00     0.241 C 
ATOM     98  O   GLN d  12    1561.649 468.760-1586.084  0.00  0.00    -0.271 OA
ATOM     99  N   ARG d  13    1561.945 467.344-1584.465  0.00  0.00    -0.346 N 
ATOM    100  H   ARG d  13    1561.568 466.754-1583.737  0.00  0.00     0.163 HD
BRANCH  99 101
ATOM    101  CA  ARG d  13    1563.386 467.409-1584.695  0.00  0.00     0.176 C 
BRANCH 101 102
ATOM    102  C   ARG d  13    1563.723 467.039-1586.120  0.00  0.00     0.241 C 
ATOM    103  O   ARG d  13    1564.492 467.710-1586.804  0.00  0.00    -0.271 OA
ATOM    104  N   VAL d  14    1563.187 465.984-1586.635  0.00  0.00    -0.346 N 
ATOM    105  H   VAL d  14    1562.551 465.416-1586.094  0.00  0.00     0.163 HD
BRANCH 104 106
ATOM    106  CA  VAL d  14    1563.512 465.626-1588.013  0.00  0.00     0.180 C 
BRANCH 106 107
ATOM    107  C   VAL d  14    1563.183 466.756-1588.958  0.00  0.00     0.241 C 
ATOM    108  O   VAL d  14    1563.977 467.138-1589.827  0.00  0.00    -0.271 OA
ATOM    109  N   MET d  15    1562.038 467.342-1588.856  0.00  0.00    -0.346 N 
ATOM    110  H   MET d  15    1561.373 467.049-1588.155  0.00  0.00     0.163 HD
BRANCH 109 111
ATOM    111  CA  MET d  15    1561.718 468.436-1589.770  0.00  0.00     0.177 C 
BRANCH 111 112
ATOM    112  C   MET d  15    1562.749 469.535-1589.681  0.00  0.00     0.241 C 
ATOM    113  O   MET d  15    1563.252 470.046-1590.693  0.00  0.00    -0.271 OA
ATOM    114  N   ARG d  16    1563.117 469.956-1588.518  0.00  0.00    -0.347 N 
ATOM    115  H   ARG d  16    1562.722 469.555-1587.679  0.00  0.00     0.163 HD
BRANCH 114 116
ATOM    116  CA  ARG d  16    1564.114 471.019-1588.433  0.00  0.00     0.162 C 
BRANCH 116 117
ATOM    117  C   ARG d  16    1565.385 470.627-1589.149  0.00  0.00     0.219 C 
ATOM    118  O   ARG d  16    1565.499 469.550-1589.731  0.00  0.00    -0.287 OA
ENDBRANCH 116 117
BRANCH 116 119
ATOM    119  CB  ARG d  16    1564.382 471.336-1586.935  0.00  0.00     0.035 C 
BRANCH 119 120
ATOM    120  CG  ARG d  16    1565.208 472.625-1586.661  0.00  0.00     0.023 C 
BRANCH 120 121
ATOM    121  CD  ARG d  16    1565.457 472.843-1585.159  0.00  0.00     0.138 C 
BRANCH 121 122
ATOM    122  NE  ARG d  16    1566.233 474.102-1584.957  0.00  0.00    -0.227 N 
ATOM    123  CZ  ARG d  16    1566.624 474.583-1583.781  0.00  0.00     0.665 C 
ATOM    124  NH1 ARG d  16    1566.375 473.998-1582.643  0.00  0.00    -0.235 N 
ATOM    125  NH2 ARG d  16    1567.288 475.696-1583.762  0.00  0.00    -0.235 N 
ATOM    126 11HH ARG d  16    1565.850 473.126-1582.728  0.00  0.00     0.174 HD
ATOM    127 12HH ARG d  16    1566.709 474.433-1581.781  0.00  0.00     0.174 HD
ATOM    128 21HH ARG d  16    1567.474 476.139-1584.663  0.00  0.00     0.174 HD
ATOM    129 22HH ARG d  16    1567.578 476.050-1582.849  0.00  0.00     0.174 HD
ATOM    130  HE  ARG d  16    1566.512 474.683-1585.754  0.00  0.00     0.177 HD
ENDBRANCH 121 122
ENDBRANCH 120 121
ENDBRANCH 119 120
ENDBRANCH 116 119
ENDBRANCH 114 116
ENDBRANCH 111 112
BRANCH 111 131
ATOM    131  CB  MET d  15    1560.297 468.981-1589.461  0.00  0.00     0.045 C 
BRANCH 131 132
ATOM    132  CG  MET d  15    1559.135 467.984-1589.654  0.00  0.00     0.076 C 
BRANCH 132 133
ATOM    133  SD  MET d  15    1557.561 468.850-1589.540  0.00  0.00    -0.173 SA
ATOM    134  CE  MET d  15    1556.479 467.420-1589.405  0.00  0.00     0.089 C 
ENDBRANCH 132 133
ENDBRANCH 131 132
ENDBRANCH 111 131
ENDBRANCH 109 111
ENDBRANCH 106 107
BRANCH 106 135
ATOM    135  CB  VAL d  14    1562.740 464.309-1588.421  0.00  0.00     0.009 C 
ATOM    136  CG1 VAL d  14    1562.830 463.892-1589.914  0.00  0.00     0.012 C 
ATOM    137  CG2 VAL d  14    1563.171 463.056-1587.621  0.00  0.00     0.012 C 
ENDBRANCH 106 135
ENDBRANCH 104 106
ENDBRANCH 101 102
BRANCH 101 138
ATOM    138  CB  ARG d  13    1564.098 466.469-1583.681  0.00  0.00     0.036 C 
BRANCH 138 139
ATOM    139  CG  ARG d  13    1565.643 466.622-1583.599  0.00  0.00     0.023 C 
BRANCH 139 140
ATOM    140  CD  ARG d  13    1566.269 465.634-1582.602  0.00  0.00     0.138 C 
BRANCH 140 141
ATOM    141  NE  ARG d  13    1567.746 465.841-1582.550  0.00  0.00    -0.227 N 
ATOM    142  CZ  ARG d  13    1568.594 465.148-1581.795  0.00  0.00     0.665 C 
ATOM    143  NH1 ARG d  13    1568.228 464.184-1580.998  0.00  0.00    -0.235 N 
ATOM    144  NH2 ARG d  13    1569.853 465.447-1581.851  0.00  0.00    -0.235 N 
ATOM    145 11HH ARG d  13    1567.222 463.998-1581.002  0.00  0.00     0.174 HD
ATOM    146 12HH ARG d  13    1568.941 463.700-1580.449  0.00  0.00     0.174 HD
ATOM    147 21HH ARG d  13    1570.121 466.205-1582.481  0.00  0.00     0.174 HD
ATOM    148 22HH ARG d  13    1570.488 464.905-1581.262  0.00  0.00     0.174 HD
ATOM    149  HE  ARG d  13    1568.198 466.563-1583.120  0.00  0.00     0.177 HD
ENDBRANCH 140 141
ENDBRANCH 139 140
ENDBRANCH 138 139
ENDBRANCH 101 138
ENDBRANCH  99 101
ENDBRANCH  96  97
BRANCH  96 150
ATOM    150  CB  GLN d  12    1559.280 468.751-1583.687  0.00  0.00     0.044 C 
BRANCH 150 151
ATOM    151  CG  GLN d  12    1559.640 470.272-1583.655  0.00  0.00     0.105 C 
BRANCH 151 152
ATOM    152  CD  GLN d  12    1559.337 471.085-1582.390  0.00  0.00     0.215 C 
ATOM    153  NE2 GLN d  12    1558.769 470.509-1581.361  0.00  0.00    -0.370 N 
ATOM    154 21HE GLN d  12    1558.662 471.103-1580.538  0.00  0.00     0.159 HD
ATOM    155 22HE GLN d  12    1558.606 469.505-1581.465  0.00  0.00     0.159 HD
ATOM    156  OE1 GLN d  12    1559.639 472.266-1582.312  0.00  0.00    -0.274 OA
ENDBRANCH 151 152
ENDBRANCH 150 151
ENDBRANCH  96 150
ENDBRANCH  94  96
ENDBRANCH  91  92
BRANCH  91 157
ATOM    157  CB  VAL d  11    1557.434 464.238-1585.895  0.00  0.00     0.009 C 
ATOM    158  CG1 VAL d  11    1556.866 464.943-1587.157  0.00  0.00     0.012 C 
ATOM    159  CG2 VAL d  11    1556.910 462.784-1585.969  0.00  0.00     0.012 C 
ENDBRANCH  91 157
ENDBRANCH  89  91
ENDBRANCH  86  87
BRANCH  86 160
ATOM    160  CB  MET d  10    1560.908 461.681-1582.670  0.00  0.00     0.045 C 
BRANCH 160 161
ATOM    161  CG  MET d  10    1561.396 460.977-1581.386  0.00  0.00     0.076 C 
BRANCH 161 162
ATOM    162  SD  MET d  10    1561.551 459.208-1581.680  0.00  0.00    -0.173 SA
ATOM    163  CE  MET d  10    1561.730 458.669-1579.974  0.00  0.00     0.089 C 
ENDBRANCH 161 162
ENDBRANCH 160 161
ENDBRANCH  86 160
ENDBRANCH   3  86
TORSDOF 69
