@<TRIPOS>MOLECULE
11-2
263 265 16              
SMALL
USER_CHARGES
@<TRIPOS>ATOM
1	   N	1689.688	504.277	-1724.566	N.3	1	GLU1	-0.516	
2	  CA	1690.247	505.626	-1724.566	C.3	1	GLU1	0.040	
3	   C	1691.756	505.586	-1724.566	C.2	1	GLU1	0.537	
4	   O	1692.432	506.285	-1725.334	O.2	1	GLU1	-0.582	
5	  CB	1689.724	506.411	-1723.328	C.3	1	GLU1	0.056	
6	  CG	1690.199	507.896	-1723.218	C.3	1	GLU1	0.014	
7	  CD	1689.775	508.700	-1722.002	C.2	1	GLU1	0.805	
8	 OE1	1689.047	508.198	-1721.125	O.co2	1	GLU1	-0.819	
9	 OE2	1690.205	509.870	-1721.931	O.co2	1	GLU1	-0.819	
10	   H	1690.315	503.398	-1724.566	 H	1	GLU1	0.294	
11	  HA	1689.921	506.144	-1725.485	 H	1	GLU1	0.111	
12	 2HB	1690.013	505.880	-1722.399	 H	1	GLU1	-0.017	
13	 3HB	1688.617	506.401	-1723.316	 H	1	GLU1	-0.017	
14	 2HG	1689.889	508.481	-1724.099	 H	1	GLU1	-0.043	
15	 3HG	1691.299	507.963	-1723.188	 H	1	GLU1	-0.043	
16	   N	1692.360	504.800	-1723.740	N.am	2	ASN2	-0.416	
17	  CA	1693.820	504.761	-1723.740	C.3	2	ASN2	0.014	
18	   C	1694.351	504.406	-1725.109	C.2	2	ASN2	0.597	
19	   O	1695.266	505.036	-1725.638	O.2	2	ASN2	-0.568	
20	  CB	1694.312	503.738	-1722.676	C.3	2	ASN2	-0.204	
21	  CG	1693.849	503.962	-1721.233	C.2	2	ASN2	0.713	
22	 ND2	1694.443	504.877	-1720.515	N.pl3	2	ASN2	-0.919	
23	 OD1	1692.928	503.328	-1720.739	O.2	2	ASN2	-0.593	
24	   H	1691.832	504.220	-1723.104	 H	2	ASN2	0.272	
25	  HA	1694.197	505.771	-1723.495	 H	2	ASN2	0.105	
26	 2HB	1695.416	503.679	-1722.680	 H	2	ASN2	0.080	
27	 3HB	1693.983	502.720	-1722.962	 H	2	ASN2	0.080	
28	1HD2	1693.962	505.050	-1719.628	 H	2	ASN2	0.420	
29	2HD2	1695.145	505.449	-1720.984	 H	2	ASN2	0.420	
30	   N	1693.829	503.411	-1725.743	N.am	3	PRO3	-0.255	
31	  CA	1694.281	503.001	-1727.065	C.3	3	PRO3	-0.027	
32	   C	1693.883	504.025	-1728.142	C.2	3	PRO3	0.590	
33	   O	1694.706	504.408	-1728.973	O.2	3	PRO3	-0.575	
34	  CB	1693.577	501.647	-1727.234	C.3	3	PRO3	-0.007	
35	  CG	1692.294	501.799	-1726.404	C.3	3	PRO3	0.019	
36	  CD	1692.751	502.617	-1725.194	C.3	3	PRO3	0.019	
37	  HA	1695.367	502.882	-1727.078	 H	3	PRO3	0.064	
38	 2HB	1694.200	500.865	-1726.793	 H	3	PRO3	0.025	
39	 3HB	1693.379	501.398	-1728.279	 H	3	PRO3	0.025	
40	 2HG	1691.866	500.837	-1726.113	 H	3	PRO3	0.021	
41	 3HG	1691.556	502.370	-1726.971	 H	3	PRO3	0.021	
42	 2HD	1693.141	501.968	-1724.406	 H	3	PRO3	0.039	
43	 3HD	1691.955	503.253	-1724.801	 H	3	PRO3	0.039	
44	   N	1692.678	504.485	-1728.174	N.am	4	GLU4	-0.516	
45	  CA	1692.318	505.456	-1729.203	C.3	4	GLU4	0.040	
46	   C	1693.217	506.667	-1729.142	C.2	4	GLU4	0.537	
47	   O	1693.743	507.147	-1730.157	O.2	4	GLU4	-0.582	
48	  CB	1690.830	505.875	-1729.033	C.3	4	GLU4	0.056	
49	  CG	1690.281	506.878	-1730.098	C.3	4	GLU4	0.014	
50	  CD	1688.855	507.375	-1729.954	C.2	4	GLU4	0.805	
51	 OE1	1688.129	506.976	-1729.024	O.co2	4	GLU4	-0.819	
52	 OE2	1688.465	508.204	-1730.803	O.co2	4	GLU4	-0.819	
53	   H	1691.994	504.178	-1727.497	 H	4	GLU4	0.294	
54	  HA	1692.449	504.985	-1730.195	 H	4	GLU4	0.111	
55	 2HB	1690.677	506.314	-1728.026	 H	4	GLU4	-0.017	
56	 3HB	1690.182	504.977	-1729.039	 H	4	GLU4	-0.017	
57	 2HG	1690.363	506.463	-1731.116	 H	4	GLU4	-0.043	
58	 3HG	1690.870	507.811	-1730.109	 H	4	GLU4	-0.043	
59	   N	1693.445	507.220	-1727.999	N.am	5	SER5	-0.416	
60	  CA	1694.314	508.391	-1727.941	C.3	5	SER5	-0.025	
61	   C	1695.673	508.086	-1728.526	C.2	5	SER5	0.597	
62	   O	1696.220	508.839	-1729.331	O.2	5	SER5	-0.568	
63	  CB	1694.426	508.923	-1726.490	C.3	5	SER5	0.212	
64	  OG	1695.158	508.044	-1725.629	O.3	5	SER5	-0.655	
65	   H	1693.028	506.848	-1727.158	 H	5	SER5	0.272	
66	  HA	1693.865	509.181	-1728.570	 H	5	SER5	0.084	
67	 2HB	1693.426	509.117	-1726.057	 H	5	SER5	0.035	
68	 3HB	1694.931	509.909	-1726.492	 H	5	SER5	0.035	
69	  HG	1694.669	507.219	-1725.579	 H	5	SER5	0.428	
70	   N	1696.278	507.003	-1728.172	N.am	6	ILE6	-0.416	
71	  CA	1697.591	506.708	-1728.739	C.3	6	ILE6	-0.060	
72	   C	1697.534	506.671	-1730.247	C.2	6	ILE6	0.597	
73	   O	1698.368	507.259	-1730.951	O.2	6	ILE6	-0.568	
74	  CB	1698.191	505.372	-1728.139	C.3	6	ILE6	0.130	
75	 CG1	1698.210	505.310	-1726.578	C.3	6	ILE6	-0.043	
76	 CG2	1699.632	505.070	-1728.655	C.3	6	ILE6	-0.320	
77	 CD1	1698.480	503.920	-1725.963	C.3	6	ILE6	-0.066	
78	   H	1695.849	506.368	-1727.514	 H	6	ILE6	0.272	
79	  HA	1698.265	507.542	-1728.471	 H	6	ILE6	0.087	
80	  HB	1697.533	504.546	-1728.483	 H	6	ILE6	0.019	
81	2HG1	1697.228	505.629	-1726.182	 H	6	ILE6	0.024	
82	3HG1	1698.926	506.051	-1726.173	 H	6	ILE6	0.024	
83	1HG2	1699.691	504.977	-1729.753	 H	6	ILE6	0.088	
84	2HG2	1700.354	505.853	-1728.352	 H	6	ILE6	0.088	
85	3HG2	1700.022	504.108	-1728.276	 H	6	ILE6	0.088	
86	1HD1	1697.752	503.166	-1726.318	 H	6	ILE6	0.019	
87	2HD1	1699.491	503.542	-1726.199	 H	6	ILE6	0.019	
88	3HD1	1698.404	503.950	-1724.861	 H	6	ILE6	0.019	
89	   N	1696.588	506.007	-1730.820	N.am	7	LEU7	-0.416	
90	  CA	1696.533	505.971	-1732.279	C.3	7	LEU7	-0.052	
91	   C	1696.460	507.367	-1732.851	C.2	7	LEU7	0.597	
92	   O	1697.181	507.730	-1733.793	O.2	7	LEU7	-0.568	
93	  CB	1695.330	505.111	-1732.759	C.3	7	LEU7	-0.110	
94	  CG	1695.257	503.632	-1732.293	C.3	7	LEU7	0.353	
95	 CD1	1694.067	502.926	-1732.959	C.3	7	LEU7	-0.412	
96	 CD2	1696.550	502.853	-1732.585	C.3	7	LEU7	-0.412	
97	   H	1695.896	505.520	-1730.269	 H	7	LEU7	0.272	
98	  HA	1697.474	505.532	-1732.653	 H	7	LEU7	0.092	
99	 2HB	1695.306	505.127	-1733.867	 H	7	LEU7	0.046	
100	 3HB	1694.390	505.614	-1732.455	 H	7	LEU7	0.046	
101	  HG	1695.087	503.624	-1731.196	 H	7	LEU7	-0.036	
102	1HD1	1693.110	503.435	-1732.736	 H	7	LEU7	0.100	
103	2HD1	1694.166	502.886	-1734.060	 H	7	LEU7	0.100	
104	3HD1	1693.960	501.885	-1732.603	 H	7	LEU7	0.100	
105	1HD2	1696.826	502.883	-1733.655	 H	7	LEU7	0.100	
106	2HD2	1697.404	503.264	-1732.014	 H	7	LEU7	0.100	
107	3HD2	1696.469	501.790	-1732.289	 H	7	LEU7	0.100	
108	   N	1695.623	508.207	-1732.344	N.am	8	ASP8	-0.516	
109	  CA	1695.552	509.557	-1732.897	C.3	8	ASP8	0.038	
110	   C	1696.899	510.237	-1732.840	C.2	8	ASP8	0.537	
111	   O	1697.372	510.842	-1733.814	O.2	8	ASP8	-0.582	
112	  CB	1694.474	510.396	-1732.155	C.3	8	ASP8	-0.030	
113	  CG	1694.255	511.817	-1732.696	C.2	8	ASP8	0.799	
114	 OD1	1694.319	512.016	-1733.926	O.co2	8	ASP8	-0.801	
115	 OD2	1694.063	512.742	-1731.880	O.co2	8	ASP8	-0.801	
116	   H	1695.025	507.936	-1731.577	 H	8	ASP8	0.294	
117	  HA	1695.269	509.479	-1733.964	 H	8	ASP8	0.088	
118	 2HB	1694.732	510.479	-1731.084	 H	8	ASP8	-0.012	
119	 3HB	1693.495	509.891	-1732.188	 H	8	ASP8	-0.012	
120	   N	1697.579	510.187	-1731.745	N.am	9	GLU9	-0.516	
121	  CA	1698.881	510.844	-1731.689	C.3	9	GLU9	0.040	
122	   C	1699.799	510.317	-1732.766	C.2	9	GLU9	0.537	
123	   O	1700.463	511.072	-1733.491	O.2	9	GLU9	-0.582	
124	  CB	1699.515	510.636	-1730.284	C.3	9	GLU9	0.056	
125	  CG	1700.898	511.329	-1730.055	C.3	9	GLU9	0.014	
126	  CD	1701.600	511.115	-1728.727	C.2	9	GLU9	0.805	
127	 OE1	1701.078	510.423	-1727.831	O.co2	9	GLU9	-0.819	
128	 OE2	1702.719	511.653	-1728.595	O.co2	9	GLU9	-0.819	
129	   H	1697.216	509.700	-1730.938	 H	9	GLU9	0.294	
130	  HA	1698.739	511.926	-1731.864	 H	9	GLU9	0.111	
131	 2HB	1699.628	509.552	-1730.081	 H	9	GLU9	-0.017	
132	 3HB	1698.818	510.989	-1729.500	 H	9	GLU9	-0.017	
133	 2HG	1700.826	512.419	-1730.194	 H	9	GLU9	-0.043	
134	 3HG	1701.644	510.984	-1730.789	 H	9	GLU9	-0.043	
135	   N	1699.896	509.042	-1732.936	N.am	10	HIS10	-0.416	
136	  CA	1700.784	508.531	-1733.977	C.3	10	HIS10	-0.058	
137	   C	1700.417	509.097	-1735.328	C.2	10	HIS10	0.597	
138	   O	1701.269	509.562	-1736.099	O.2	10	HIS10	-0.568	
139	  CB	1700.620	507.003	-1733.973	C.3	10	HIS10	-0.007	
140	  CG	1701.905	506.292	-1733.665	C.2	10	HIS10	0.187	
141	 CD2	1702.286	505.956	-1732.373	C.2	10	HIS10	-0.221	
142	 ND1	1702.857	505.887	-1734.598	N.2	10	HIS10	-0.543	
143	 CE1	1703.763	505.328	-1733.775	C.2	10	HIS10	0.163	
144	 NE2	1703.501	505.324	-1732.440	N.pl3	10	HIS10	-0.280	
145	   H	1699.365	508.407	-1732.358	 H	10	HIS10	0.272	
146	  HA	1701.803	508.889	-1733.752	 H	10	HIS10	0.136	
147	 2HB	1700.254	506.636	-1734.953	 H	10	HIS10	0.037	
148	 3HB	1699.864	506.665	-1733.233	 H	10	HIS10	0.037	
149	 2HD	1701.701	506.171	-1731.484	 H	10	HIS10	0.186	
150	 1HE	1704.654	504.907	-1734.223	 H	10	HIS10	0.144	
151	 2HE	1704.068	504.946	-1731.667	 H	10	HIS10	0.334	
152	   N	1699.179	509.096	-1735.691	N.am	11	PRO11	-0.255	
153	  CA	1698.739	509.621	-1736.975	C.3	11	PRO11	-0.027	
154	   C	1698.858	511.154	-1737.030	C.2	11	PRO11	0.590	
155	   O	1699.372	511.705	-1738.004	O.2	11	PRO11	-0.575	
156	  CB	1697.286	509.129	-1737.037	C.3	11	PRO11	-0.007	
157	  CG	1696.860	509.067	-1735.562	C.3	11	PRO11	0.019	
158	  CD	1698.123	508.573	-1734.852	C.3	11	PRO11	0.019	
159	  HA	1699.332	509.193	-1737.787	 H	11	PRO11	0.064	
160	 2HB	1697.270	508.122	-1737.458	 H	11	PRO11	0.025	
161	 3HB	1696.643	509.777	-1737.637	 H	11	PRO11	0.025	
162	 2HG	1696.008	508.403	-1735.399	 H	11	PRO11	0.021	
163	 3HG	1696.614	510.071	-1735.210	 H	11	PRO11	0.021	
164	 2HD	1698.167	507.481	-1734.847	 H	11	PRO11	0.039	
165	 3HD	1698.201	508.960	-1733.833	 H	11	PRO11	0.039	
166	   N	1698.416	511.867	-1736.050	N.am	12	GLN12	-0.416	
167	  CA	1698.537	513.319	-1736.120	C.3	12	GLN12	-0.003	
168	   C	1699.977	513.735	-1736.311	C.2	12	GLN12	0.597	
169	   O	1700.308	514.568	-1737.151	O.2	12	GLN12	-0.568	
170	  CB	1697.952	513.928	-1734.827	C.3	12	GLN12	-0.004	
171	  CG	1697.952	515.490	-1734.737	C.3	12	GLN12	-0.064	
172	  CD	1697.442	516.164	-1733.457	C.2	12	GLN12	0.695	
173	 NE2	1697.000	515.435	-1732.464	N.pl3	12	GLN12	-0.941	
174	 OE1	1697.463	517.379	-1733.333	O.2	12	GLN12	-0.609	
175	   H	1697.992	511.426	-1735.246	 H	12	GLN12	0.272	
176	  HA	1697.966	513.682	-1736.995	 H	12	GLN12	0.085	
177	 2HB	1698.511	513.518	-1733.959	 H	12	GLN12	0.017	
178	 3HB	1696.912	513.568	-1734.700	 H	12	GLN12	0.017	
179	 2HG	1697.386	515.919	-1735.585	 H	12	GLN12	0.035	
180	 3HG	1698.977	515.882	-1734.865	 H	12	GLN12	0.035	
181	1HE2	1696.741	515.958	-1731.626	 H	12	GLN12	0.425	
182	2HE2	1697.074	514.426	-1732.604	 H	12	GLN12	0.425	
183	   N	1700.886	513.200	-1735.569	N.am	13	ARG13	-0.348	
184	  CA	1702.277	513.602	-1735.754	C.3	13	ARG13	-0.264	
185	   C	1702.722	513.371	-1737.179	C.2	13	ARG13	0.734	
186	   O	1703.330	514.226	-1737.818	O.2	13	ARG13	-0.589	
187	  CB	1703.165	512.815	-1734.748	C.3	13	ARG13	-0.001	
188	  CG	1704.631	513.314	-1734.616	C.3	13	ARG13	0.039	
189	  CD	1705.446	512.460	-1733.631	C.3	13	ARG13	0.049	
190	  NE	1706.834	512.998	-1733.529	N.pl3	13	ARG13	-0.530	
191	  CZ	1707.802	512.491	-1732.771	C.cat	13	ARG13	0.808	
192	 NH1	1707.650	511.440	-1732.015	N.pl3	13	ARG13	-0.863	
193	 NH2	1708.959	513.073	-1732.780	N.pl3	13	ARG13	-0.863	
194	   H	1700.639	512.513	-1734.871	 H	13	ARG13	0.275	
195	  HA	1702.349	514.688	-1735.553	 H	13	ARG13	0.156	
196	 2HB	1703.152	511.741	-1735.028	 H	13	ARG13	0.033	
197	 3HB	1702.690	512.841	-1733.746	 H	13	ARG13	0.033	
198	 2HG	1704.626	514.377	-1734.297	 H	13	ARG13	0.029	
199	 3HG	1705.127	513.303	-1735.608	 H	13	ARG13	0.029	
200	 2HD	1705.454	511.404	-1733.979	 H	13	ARG13	0.069	
201	 3HD	1704.946	512.460	-1732.638	 H	13	ARG13	0.069	
202	  HE	1707.120	513.825	-1734.063	 H	13	ARG13	0.346	
203	1HH1	1706.715	511.029	-1732.055	 H	13	ARG13	0.448	
204	2HH1	1708.443	511.113	-1731.460	 H	13	ARG13	0.448	
205	1HH2	1709.060	513.895	-1733.378	 H	13	ARG13	0.448	
206	2HH2	1709.689	512.670	-1732.189	 H	13	ARG13	0.448	
207	   N	1702.454	512.242	-1737.742	N.am	14	VAL14	-0.416	
208	  CA	1702.883	512.018	-1739.119	C.3	14	VAL14	-0.087	
209	   C	1702.323	513.077	-1740.039	C.2	14	VAL14	0.597	
210	   O	1703.027	513.662	-1740.872	O.2	14	VAL14	-0.568	
211	  CB	1702.444	510.575	-1739.590	C.3	14	VAL14	0.299	
212	 CG1	1702.660	510.244	-1741.092	C.3	14	VAL14	-0.319	
213	 CG2	1703.134	509.426	-1738.816	C.3	14	VAL14	-0.319	
214	   H	1701.955	511.523	-1737.237	 H	14	VAL14	0.272	
215	  HA	1703.984	512.098	-1739.167	 H	14	VAL14	0.097	
216	  HB	1701.352	510.487	-1739.401	 H	14	VAL14	-0.030	
217	1HG1	1703.721	510.323	-1741.395	 H	14	VAL14	0.079	
218	2HG1	1702.320	509.223	-1741.351	 H	14	VAL14	0.079	
219	3HG1	1702.082	510.913	-1741.759	 H	14	VAL14	0.079	
220	1HG2	1702.989	509.520	-1737.725	 H	14	VAL14	0.079	
221	2HG2	1702.722	508.437	-1739.095	 H	14	VAL14	0.079	
222	3HG2	1704.225	509.392	-1738.999	 H	14	VAL14	0.079	
223	   N	1701.073	513.381	-1739.953	N.am	15	MET15	-0.416	
224	  CA	1700.530	514.404	-1740.842	C.3	15	MET15	-0.024	
225	   C	1701.277	515.707	-1740.688	C.2	15	MET15	0.597	
226	   O	1701.671	516.357	-1741.669	O.2	15	MET15	-0.568	
227	  CB	1699.015	514.598	-1740.559	C.3	15	MET15	0.034	
228	  CG	1698.118	513.368	-1740.816	C.3	15	MET15	0.002	
229	  SD	1696.385	513.845	-1740.723	S.3	15	MET15	-0.274	
230	  CE	1695.659	512.202	-1740.664	C.3	15	MET15	-0.054	
231	   H	1700.478	512.917	-1739.281	 H	15	MET15	0.272	
232	  HA	1700.667	514.072	-1741.887	 H	15	MET15	0.088	
233	 2HB	1698.630	515.430	-1741.179	 H	15	MET15	0.024	
234	 3HB	1698.867	514.933	-1739.512	 H	15	MET15	0.024	
235	 2HG	1698.323	512.584	-1740.063	 H	15	MET15	0.044	
236	 3HG	1698.319	512.917	-1741.806	 H	15	MET15	0.044	
237	 1HE	1695.976	511.597	-1741.532	 H	15	MET15	0.068	
238	 2HE	1695.969	511.677	-1739.742	 H	15	MET15	0.068	
239	 3HE	1694.557	512.265	-1740.669	 H	15	MET15	0.068	
240	   N	1701.513	516.157	-1739.503	N.am	16	ARG16	-0.348	
241	  CA	1702.236	517.417	-1739.356	C.3	16	ARG16	-0.264	
242	   C	1703.579	517.353	-1740.045	C.2	16	ARG16	0.734	
243	   O	1703.950	516.354	-1740.656	O.2	16	ARG16	-0.589	
244	  CB	1702.391	517.732	-1737.841	C.3	16	ARG16	-0.001	
245	  CG	1702.892	519.164	-1737.503	C.3	16	ARG16	0.039	
246	  CD	1703.051	519.379	-1735.988	C.3	16	ARG16	0.049	
247	  NE	1703.512	520.773	-1735.725	N.pl3	16	ARG16	-0.530	
248	  CZ	1703.755	521.288	-1734.523	C.cat	16	ARG16	0.808	
249	 NH1	1703.624	520.620	-1733.411	N.pl3	16	ARG16	-0.863	
250	 NH2	1704.145	522.522	-1734.450	N.pl3	16	ARG16	-0.863	
251	   H	1701.202	515.646	-1738.689	 H	16	ARG16	0.275	
252	  HA	1701.644	518.211	-1739.849	 H	16	ARG16	0.156	
253	 2HB	1703.066	516.976	-1737.387	 H	16	ARG16	0.033	
254	 3HB	1701.418	517.569	-1737.334	 H	16	ARG16	0.033	
255	 2HG	1702.185	519.906	-1737.928	 H	16	ARG16	0.029	
256	 3HG	1703.863	519.356	-1738.003	 H	16	ARG16	0.029	
257	 2HD	1703.777	518.638	-1735.586	 H	16	ARG16	0.069	
258	 3HD	1702.083	519.177	-1735.482	 H	16	ARG16	0.069	
259	  HE	1703.667	521.432	-1736.494	 H	16	ARG16	0.346	
260	1HH1	1703.315	519.654	-1733.539	 H	16	ARG16	0.448	
261	2HH1	1703.829	521.088	-1732.528	 H	16	ARG16	0.448	
262	1HH2	1704.244	523.029	-1735.331	 H	16	ARG16	0.448	
263	2HH2	1704.325	522.900	-1733.518	 H	16	ARG16	0.448	
@<TRIPOS>BOND
1 1 2 1
2 1 10 1
3 2 3 1
4 2 5 1
5 2 11 1
6 3 4 2
7 3 16 1
8 5 6 1
9 6 7 1
10 7 8 2
11 7 9 1
12 5 12 1
13 5 13 1
14 6 14 1
15 6 15 1
16 16 17 1
17 16 24 1
18 17 18 1
19 17 20 1
20 17 25 1
21 18 19 2
22 18 30 1
23 20 21 1
24 21 22 1
25 21 23 2
26 20 26 1
27 20 27 1
28 22 28 1
29 22 29 1
30 30 31 1
31 30 36 1
32 31 32 1
33 31 34 1
34 31 37 1
35 32 33 2
36 32 44 1
37 34 35 1
38 35 36 1
39 34 38 1
40 34 39 1
41 35 40 1
42 35 41 1
43 36 42 1
44 36 43 1
45 44 45 1
46 44 53 1
47 45 46 1
48 45 48 1
49 45 54 1
50 46 47 2
51 46 59 1
52 48 49 1
53 49 50 1
54 50 51 2
55 50 52 1
56 48 55 1
57 48 56 1
58 49 57 1
59 49 58 1
60 59 60 1
61 59 65 1
62 60 61 1
63 60 63 1
64 60 66 1
65 61 62 2
66 61 70 1
67 63 64 1
68 63 67 1
69 63 68 1
70 64 69 1
71 70 71 1
72 70 78 1
73 71 72 1
74 71 74 1
75 71 79 1
76 72 73 2
77 72 89 1
78 74 75 1
79 74 76 1
80 75 77 1
81 74 80 1
82 75 81 1
83 75 82 1
84 76 83 1
85 76 84 1
86 76 85 1
87 77 86 1
88 77 87 1
89 77 88 1
90 89 90 1
91 89 97 1
92 90 91 1
93 90 93 1
94 90 98 1
95 91 92 2
96 91 108 1
97 93 94 1
98 94 95 1
99 94 96 1
100 93 99 1
101 93 100 1
102 94 101 1
103 95 102 1
104 95 103 1
105 95 104 1
106 96 105 1
107 96 106 1
108 96 107 1
109 108 109 1
110 108 116 1
111 109 110 1
112 109 112 1
113 109 117 1
114 110 111 2
115 110 120 1
116 112 113 1
117 113 114 2
118 113 115 1
119 112 118 1
120 112 119 1
121 120 121 1
122 120 129 1
123 121 122 1
124 121 124 1
125 121 130 1
126 122 123 2
127 122 135 1
128 124 125 1
129 125 126 1
130 126 127 2
131 126 128 1
132 124 131 1
133 124 132 1
134 125 133 1
135 125 134 1
136 135 136 1
137 135 145 1
138 136 137 1
139 136 139 1
140 136 146 1
141 137 138 2
142 137 152 1
143 139 140 1
144 140 141 2
145 141 144 1
146 140 142 1
147 142 143 2
148 143 144 1
149 139 147 1
150 139 148 1
151 141 149 1
152 143 150 1
153 144 151 1
154 152 153 1
155 152 158 1
156 153 154 1
157 153 156 1
158 153 159 1
159 154 155 2
160 154 166 1
161 156 157 1
162 157 158 1
163 156 160 1
164 156 161 1
165 157 162 1
166 157 163 1
167 158 164 1
168 158 165 1
169 166 167 1
170 166 175 1
171 167 168 1
172 167 170 1
173 167 176 1
174 168 169 2
175 168 183 1
176 170 171 1
177 171 172 1
178 172 173 1
179 172 174 2
180 170 177 1
181 170 178 1
182 171 179 1
183 171 180 1
184 173 181 1
185 173 182 1
186 183 184 1
187 183 194 1
188 184 185 1
189 184 187 1
190 184 195 1
191 185 186 2
192 185 207 1
193 187 188 1
194 188 189 1
195 189 190 1
196 190 191 1
197 191 192 2
198 191 193 1
199 187 196 1
200 187 197 1
201 188 198 1
202 188 199 1
203 189 200 1
204 189 201 1
205 190 202 1
206 192 203 1
207 192 204 1
208 193 205 1
209 193 206 1
210 207 208 1
211 207 214 1
212 208 209 1
213 208 211 1
214 208 215 1
215 209 210 2
216 209 223 1
217 211 212 1
218 211 213 1
219 211 216 1
220 212 217 1
221 212 218 1
222 212 219 1
223 213 220 1
224 213 221 1
225 213 222 1
226 223 224 1
227 223 231 1
228 224 225 1
229 224 227 1
230 224 232 1
231 225 226 2
232 225 240 1
233 227 228 1
234 228 229 1
235 229 230 1
236 227 233 1
237 227 234 1
238 228 235 1
239 228 236 1
240 230 237 1
241 230 238 1
242 230 239 1
243 240 241 1
244 240 251 1
245 241 242 1
246 241 244 1
247 241 252 1
248 242 243 2
249 244 245 1
250 245 246 1
251 246 247 1
252 247 248 1
253 248 249 2
254 248 250 1
255 244 253 1
256 244 254 1
257 245 255 1
258 245 256 1
259 246 257 1
260 246 258 1
261 247 259 1
262 249 260 1
263 249 261 1
264 250 262 1
265 250 263 1
@<TRIPOS>SUBSTRUCTURE
1	GLU1	1	RESIDUE	1 ****	GLU
2	ASN2	16	RESIDUE	1 ****	ASN
3	PRO3	30	RESIDUE	1 ****	PRO
4	GLU4	44	RESIDUE	1 ****	GLU
5	SER5	59	RESIDUE	1 ****	SER
6	ILE6	70	RESIDUE	1 ****	ILE
7	LEU7	89	RESIDUE	1 ****	LEU
8	ASP8	108	RESIDUE	1 ****	ASP
9	GLU9	120	RESIDUE	1 ****	GLU
10	HIS10	135	RESIDUE	1 ****	HIS
11	PRO11	152	RESIDUE	1 ****	PRO
12	GLN12	166	RESIDUE	1 ****	GLN
13	ARG13	183	RESIDUE	1 ****	ARG
14	VAL14	207	RESIDUE	1 ****	VAL
15	MET15	223	RESIDUE	1 ****	MET
16	ARG16	240	RESIDUE	1 ****	ARG
