REMARK WARNING: 32 MAX_TORS EXCEEDED!!!
REMARK  65 active torsions:
REMARK  status: ('A' for Active; 'I' for Inactive)
REMARK    1  A    between atoms: N_1  and  CA_2 
REMARK    2  A    between atoms: CA_2  and  C_3 
REMARK    3  A    between atoms: CA_2  and  CB_5 
REMARK       I    between atoms: C_3  and  N_11 
REMARK    4  A    between atoms: CB_5  and  CG_6 
REMARK    5  A    between atoms: CG_6  and  CD_7 
REMARK    6  A    between atoms: N_11  and  CA_12 
REMARK    7  A    between atoms: CA_12  and  C_13 
REMARK    8  A    between atoms: CA_12  and  CB_15 
REMARK       I    between atoms: C_13  and  N_22 
REMARK    9  A    between atoms: CB_15  and  CG_16 
REMARK       I    between atoms: CG_16  and  ND2_17 
REMARK   10  A    between atoms: CA_23  and  C_24 
REMARK       I    between atoms: C_24  and  N_29 
REMARK   11  A    between atoms: N_29  and  CA_30 
REMARK   12  A    between atoms: CA_30  and  C_31 
REMARK   13  A    between atoms: CA_30  and  CB_33 
REMARK       I    between atoms: C_31  and  N_39 
REMARK   14  A    between atoms: CB_33  and  CG_34 
REMARK   15  A    between atoms: CG_34  and  CD_35 
REMARK   16  A    between atoms: N_39  and  CA_40 
REMARK   17  A    between atoms: CA_40  and  C_41 
REMARK   18  A    between atoms: CA_40  and  CB_43 
REMARK       I    between atoms: C_41  and  N_47 
REMARK   19  A    between atoms: CB_43  and  OG_44 
REMARK   20  A    between atoms: N_47  and  CA_48 
REMARK   21  A    between atoms: CA_48  and  C_49 
REMARK   22  A    between atoms: CA_48  and  CB_51 
REMARK       I    between atoms: C_49  and  N_56 
REMARK   23  A    between atoms: CB_51  and  CG1_52 
REMARK   24  A    between atoms: N_56  and  CA_57 
REMARK   25  A    between atoms: CA_57  and  C_58 
REMARK   26  A    between atoms: CA_57  and  CB_60 
REMARK       I    between atoms: C_58  and  N_65 
REMARK   27  A    between atoms: CB_60  and  CG_61 
REMARK   28  A    between atoms: N_65  and  CA_66 
REMARK   29  A    between atoms: CA_66  and  C_67 
REMARK   30  A    between atoms: CA_66  and  CB_69 
REMARK       I    between atoms: C_67  and  N_74 
REMARK   31  A    between atoms: CB_69  and  CG_70 
REMARK   32  A    between atoms: N_74  and  CA_75 
REMARK   33  A    between atoms: CA_75  and  C_76 
REMARK   34  A    between atoms: CA_75  and  CB_78 
REMARK       I    between atoms: C_76  and  N_84 
REMARK   35  A    between atoms: CB_78  and  CG_79 
REMARK   36  A    between atoms: CG_79  and  CD_80 
REMARK   37  A    between atoms: N_84  and  CA_85 
REMARK   38  A    between atoms: CA_85  and  C_86 
REMARK   39  A    between atoms: CA_85  and  CB_88 
REMARK       I    between atoms: C_86  and  N_96 
REMARK   40  A    between atoms: CB_88  and  CG_89 
REMARK   41  A    between atoms: N_96  and  CA_97 
REMARK   42  A    between atoms: CA_97  and  C_98 
REMARK   43  A    between atoms: CA_97  and  CB_100 
REMARK       I    between atoms: C_98  and  N_104 
REMARK   44  A    between atoms: N_104  and  CA_105 
REMARK   45  A    between atoms: CA_105  and  C_106 
REMARK   46  A    between atoms: CA_105  and  CB_108 
REMARK       I    between atoms: C_106  and  N_116 
REMARK   47  A    between atoms: CB_108  and  CG_109 
REMARK   48  A    between atoms: CG_109  and  CD_110 
REMARK       I    between atoms: CD_110  and  NE2_111 
REMARK   49  A    between atoms: N_116  and  CA_117 
REMARK   50  A    between atoms: CA_117  and  C_118 
REMARK   51  A    between atoms: CA_117  and  CB_120 
REMARK       I    between atoms: C_118  and  N_124 
REMARK   52  A    between atoms: N_124  and  CA_125 
REMARK   53  A    between atoms: CA_125  and  C_126 
REMARK   54  A    between atoms: CA_125  and  CB_128 
REMARK       I    between atoms: C_126  and  N_132 
REMARK   55  A    between atoms: N_132  and  CA_133 
REMARK   56  A    between atoms: CA_133  and  C_134 
REMARK   57  A    between atoms: CA_133  and  CB_136 
REMARK       I    between atoms: C_134  and  N_141 
REMARK   58  A    between atoms: CB_136  and  CG_137 
REMARK   59  A    between atoms: CG_137  and  SD_138 
REMARK   60  A    between atoms: N_141  and  CA_142 
REMARK   61  A    between atoms: CA_142  and  C_143 
REMARK   62  A    between atoms: CA_142  and  CB_145 
REMARK   63  A    between atoms: CB_145  and  CG_146 
REMARK   64  A    between atoms: CG_146  and  CD_147 
REMARK   65  A    between atoms: CD_147  and  NE_148 
REMARK       I    between atoms: NE_148  and  CZ_149 
REMARK       I    between atoms: CZ_149  and  NH1_150 
ROOT
ATOM      1  CA  GLU d   9    2042.320 622.086-2105.381  0.00  0.00     0.177 C 
ENDROOT
BRANCH   1   2
ATOM      2  N   GLU d   9    2041.017 621.429-2105.438  0.00  0.00    -0.346 N 
ATOM      3  C   ASP d   8    2040.338 621.479-2106.533  0.00  0.00     0.241 C 
ATOM      4  O   ASP d   8    2040.811 622.085-2107.507  0.00  0.00    -0.271 OA
ATOM      5  H   GLU d   9    2040.653 620.942-2104.631  0.00  0.00     0.163 HD
BRANCH   3   6
ATOM      6  CA  ASP d   8    2038.991 620.800-2106.591  0.00  0.00     0.186 C 
BRANCH   6   7
ATOM      7  N   ASP d   8    2039.061 619.450-2106.039  0.00  0.00    -0.346 N 
ATOM      8  C   LEU d   7    2039.898 618.609-2106.545  0.00  0.00     0.241 C 
ATOM      9  O   LEU d   7    2040.619 618.973-2107.486  0.00  0.00    -0.271 OA
ATOM     10  H   ASP d   8    2038.462 619.179-2105.271  0.00  0.00     0.163 HD
BRANCH   8  11
ATOM     11  CA  LEU d   7    2039.969 617.214-2105.973  0.00  0.00     0.177 C 
BRANCH  11  12
ATOM     12  N   LEU d   7    2040.024 617.250-2104.514  0.00  0.00    -0.346 N 
ATOM     13  C   ILE d   6    2040.970 617.912-2103.940  0.00  0.00     0.241 C 
ATOM     14  O   ILE d   6    2041.805 618.500-2104.644  0.00  0.00    -0.271 OA
ATOM     15  H   LEU d   7    2039.332 616.763-2103.964  0.00  0.00     0.163 HD
BRANCH  13  16
ATOM     16  CA  ILE d   6    2041.027 617.950-2102.432  0.00  0.00     0.180 C 
BRANCH  16  17
ATOM     17  N   ILE d   6    2039.714 618.245-2101.866  0.00  0.00    -0.346 N 
ATOM     18  C   SER d   5    2039.109 619.328-2102.220  0.00  0.00     0.243 C 
ATOM     19  O   SER d   5    2039.657 620.081-2103.025  0.00  0.00    -0.271 OA
ATOM     20  H   ILE d   6    2039.285 617.610-2101.208  0.00  0.00     0.163 HD
BRANCH  18  21
ATOM     21  CA  SER d   5    2037.750 619.634-2101.635  0.00  0.00     0.200 C 
BRANCH  21  22
ATOM     22  N   SER d   5    2036.881 618.463-2101.693  0.00  0.00    -0.344 N 
ATOM     23  C   GLU d   4    2036.653 617.910-2102.836  0.00  0.00     0.241 C 
ATOM     24  O   GLU d   4    2037.180 618.390-2103.851  0.00  0.00    -0.271 OA
ATOM     25  H   SER d   5    2036.464 618.091-2100.852  0.00  0.00     0.163 HD
BRANCH  23  26
ATOM     26  CA  GLU d   4    2035.755 616.699-2102.897  0.00  0.00     0.177 C 
BRANCH  26  27
ATOM     27  N   GLU d   4    2036.114 615.728-2101.867  0.00  0.00    -0.346 N 
ATOM     28  C   PRO d   3    2037.319 615.268-2101.835  0.00  0.00     0.241 C 
ATOM     29  O   PRO d   3    2038.143 615.651-2102.666  0.00  0.00    -0.271 OA
ATOM     30  H   GLU d   4    2035.430 615.422-2101.191  0.00  0.00     0.163 HD
BRANCH  28  31
ATOM     31  CA  PRO d   3    2037.717 614.245-2100.758  0.00  0.00     0.179 C 
ATOM     32  N   PRO d   3    2037.265 614.654-2099.436  0.00  0.00    -0.337 N 
ATOM     33  C   ASN d   2    2037.787 615.649-2098.802  0.00  0.00     0.243 C 
ATOM     34  CD  PRO d   3    2036.187 613.861-2098.887  0.00  0.00     0.127 C 
ATOM     35  O   ASN d   2    2038.702 616.280-2099.331  0.00  0.00    -0.271 OA
ATOM     36  CG  PRO d   3    2035.730 613.043-2100.097  0.00  0.00     0.022 C 
ATOM     37  CB  PRO d   3    2037.013 612.890-2100.927  0.00  0.00     0.037 C 
BRANCH  33  38
ATOM     38  CA  ASN d   2    2037.256 616.005-2097.434  0.00  0.00     0.185 C 
BRANCH  38  39
ATOM     39  N   ASN d   2    2035.796 616.044-2097.434  0.00  0.00    -0.346 N 
ATOM     40  C   GLU d   1    2035.192 616.830-2098.259  0.00  0.00     0.242 C 
ATOM     41  O   GLU d   1    2035.868 617.529-2099.027  0.00  0.00    -0.271 OA
ATOM     42  H   ASN d   2    2035.268 615.464-2096.797  0.00  0.00     0.163 HD
BRANCH  40  43
ATOM     43  CA  GLU d   1    2033.683 616.870-2098.259  0.00  0.00     0.191 C 
BRANCH  43  44
ATOM     44  N   GLU d   1    2033.124 615.521-2098.259  0.00  0.00    -0.326 NA
ATOM     45  H   GLU d   1    2033.751 614.642-2098.259  0.00  0.00     0.180 HD
ENDBRANCH  43  44
BRANCH  43  46
ATOM     46  CB  GLU d   1    2033.160 617.655-2097.022  0.00  0.00     0.047 C 
BRANCH  46  47
ATOM     47  CG  GLU d   1    2033.635 619.140-2096.911  0.00  0.00     0.116 C 
BRANCH  47  48
ATOM     48  CD  GLU d   1    2033.211 619.944-2095.696  0.00  0.00     0.172 C 
ATOM     49  OE1 GLU d   1    2032.483 619.442-2094.818  0.00  0.00    -0.648 OA
ATOM     50  OE2 GLU d   1    2033.641 621.114-2095.624  0.00  0.00    -0.648 OA
ENDBRANCH  47  48
ENDBRANCH  46  47
ENDBRANCH  43  46
ENDBRANCH  40  43
ENDBRANCH  38  39
BRANCH  38  51
ATOM     51  CB  ASN d   2    2037.748 614.982-2096.369  0.00  0.00     0.137 C 
BRANCH  51  52
ATOM     52  CG  ASN d   2    2037.284 615.206-2094.926  0.00  0.00     0.217 C 
ATOM     53  ND2 ASN d   2    2037.879 616.121-2094.208  0.00  0.00    -0.370 N 
ATOM     54 21HD ASN d   2    2037.398 616.294-2093.321  0.00  0.00     0.159 HD
ATOM     55 22HD ASN d   2    2038.581 616.692-2094.677  0.00  0.00     0.159 HD
ATOM     56  OD1 ASN d   2    2036.364 614.572-2094.432  0.00  0.00    -0.274 OA
ENDBRANCH  51  52
ENDBRANCH  38  51
ENDBRANCH  33  38
ENDBRANCH  28  31
ENDBRANCH  26  27
BRANCH  26  57
ATOM     57  CB  GLU d   4    2034.266 617.118-2102.727  0.00  0.00     0.045 C 
BRANCH  57  58
ATOM     58  CG  GLU d   4    2033.718 618.121-2103.793  0.00  0.00     0.116 C 
BRANCH  58  59
ATOM     59  CD  GLU d   4    2032.291 618.618-2103.650  0.00  0.00     0.172 C 
ATOM     60  OE1 GLU d   4    2031.565 618.220-2102.719  0.00  0.00    -0.648 OA
ATOM     61  OE2 GLU d   4    2031.902 619.447-2104.498  0.00  0.00    -0.648 OA
ENDBRANCH  58  59
ENDBRANCH  57  58
ENDBRANCH  26  57
ENDBRANCH  23  26
ENDBRANCH  21  22
BRANCH  21  62
ATOM     62  CB  SER d   5    2037.862 620.166-2100.184  0.00  0.00     0.199 C 
BRANCH  62  63
ATOM     63  OG  SER d   5    2038.594 619.287-2099.323  0.00  0.00    -0.398 OA
ATOM     64  HG  SER d   5    2038.105 618.462-2099.272  0.00  0.00     0.209 HD
ENDBRANCH  62  63
ENDBRANCH  21  62
ENDBRANCH  18  21
ENDBRANCH  16  17
BRANCH  16  65
ATOM     65  CB  ILE d   6    2041.626 616.613-2101.833  0.00  0.00     0.013 C 
ATOM     66  CG2 ILE d   6    2043.067 616.311-2102.348  0.00  0.00     0.012 C 
BRANCH  65  67
ATOM     67  CG1 ILE d   6    2041.645 616.551-2100.271  0.00  0.00     0.002 C 
ATOM     68  CD1 ILE d   6    2041.914 615.161-2099.657  0.00  0.00     0.005 C 
ENDBRANCH  65  67
ENDBRANCH  16  65
ENDBRANCH  13  16
ENDBRANCH  11  12
BRANCH  11  69
ATOM     69  CB  LEU d   7    2038.766 616.354-2106.454  0.00  0.00     0.038 C 
BRANCH  69  70
ATOM     70  CG  LEU d   7    2038.693 614.875-2105.988  0.00  0.00    -0.020 C 
ATOM     71  CD1 LEU d   7    2037.503 614.170-2106.654  0.00  0.00     0.009 C 
ATOM     72  CD2 LEU d   7    2039.986 614.095-2106.280  0.00  0.00     0.009 C 
ENDBRANCH  69  70
ENDBRANCH  11  69
ENDBRANCH   8  11
ENDBRANCH   6   7
BRANCH   6  73
ATOM     73  CB  ASP d   8    2037.912 621.639-2105.849  0.00  0.00     0.147 C 
BRANCH  73  74
ATOM     74  CG  ASP d   8    2037.694 623.060-2106.389  0.00  0.00     0.175 C 
ATOM     75  OD1 ASP d   8    2037.759 623.260-2107.620  0.00  0.00    -0.648 OA
ATOM     76  OD2 ASP d   8    2037.502 623.985-2105.573  0.00  0.00    -0.648 OA
ENDBRANCH  73  74
ENDBRANCH   6  73
ENDBRANCH   3   6
ENDBRANCH   1   2
BRANCH   1  77
ATOM     77  C   GLU d   9    2043.238 621.559-2106.457  0.00  0.00     0.241 C 
ATOM     78  O   GLU d   9    2043.902 622.313-2107.182  0.00  0.00    -0.271 OA
ATOM     79  N   HIS d  10    2043.334 620.284-2106.627  0.00  0.00    -0.346 N 
ATOM     80  H   HIS d  10    2042.803 619.648-2106.050  0.00  0.00     0.163 HD
BRANCH  79  81
ATOM     81  CA  HIS d  10    2044.223 619.773-2107.668  0.00  0.00     0.182 C 
BRANCH  81  82
ATOM     82  C   HIS d  10    2043.856 620.339-2109.019  0.00  0.00     0.241 C 
ATOM     83  O   HIS d  10    2044.709 620.804-2109.790  0.00  0.00    -0.271 OA
ATOM     84  N   VAL d  11    2042.618 620.338-2109.382  0.00  0.00    -0.346 N 
ATOM     85  H   VAL d  11    2041.905 619.965-2108.772  0.00  0.00     0.163 HD
BRANCH  84  86
ATOM     86  CA  VAL d  11    2042.264 620.885-2110.689  0.00  0.00     0.180 C 
BRANCH  86  87
ATOM     87  C   VAL d  11    2042.729 622.316-2110.820  0.00  0.00     0.241 C 
ATOM     88  O   VAL d  11    2043.330 622.721-2111.823  0.00  0.00    -0.271 OA
ATOM     89  N   GLN d  12    2042.491 623.141-2109.857  0.00  0.00    -0.346 N 
ATOM     90  H   GLN d  12    2042.002 622.835-2109.028  0.00  0.00     0.163 HD
BRANCH  89  91
ATOM     91  CA  GLN d  12    2042.940 624.524-2109.984  0.00  0.00     0.177 C 
BRANCH  91  92
ATOM     92  C   GLN d  12    2044.430 624.591-2110.221  0.00  0.00     0.241 C 
ATOM     93  O   GLN d  12    2044.918 625.300-2111.099  0.00  0.00    -0.271 OA
ATOM     94  N   VAL d  13    2045.215 623.884-2109.480  0.00  0.00    -0.346 N 
ATOM     95  H   VAL d  13    2044.838 623.294-2108.752  0.00  0.00     0.163 HD
BRANCH  94  96
ATOM     96  CA  VAL d  13    2046.655 623.949-2109.710  0.00  0.00     0.180 C 
BRANCH  96  97
ATOM     97  C   VAL d  13    2046.993 623.579-2111.134  0.00  0.00     0.241 C 
ATOM     98  O   VAL d  13    2047.768 624.255-2111.823  0.00  0.00    -0.271 OA
ATOM     99  N   VAL d  14    2046.457 622.525-2111.650  0.00  0.00    -0.346 N 
ATOM    100  H   VAL d  14    2045.822 621.956-2111.109  0.00  0.00     0.163 HD
BRANCH  99 101
ATOM    101  CA  VAL d  14    2046.783 622.166-2113.027  0.00  0.00     0.180 C 
BRANCH 101 102
ATOM    102  C   VAL d  14    2046.454 623.295-2113.973  0.00  0.00     0.241 C 
ATOM    103  O   VAL d  14    2047.249 623.677-2114.842  0.00  0.00    -0.271 OA
ATOM    104  N   MET d  15    2045.310 623.882-2113.872  0.00  0.00    -0.346 N 
ATOM    105  H   MET d  15    2044.644 623.589-2113.171  0.00  0.00     0.163 HD
BRANCH 104 106
ATOM    106  CA  MET d  15    2044.990 624.974-2114.786  0.00  0.00     0.177 C 
BRANCH 106 107
ATOM    107  C   MET d  15    2046.021 626.074-2114.698  0.00  0.00     0.241 C 
ATOM    108  O   MET d  15    2046.525 626.584-2115.710  0.00  0.00    -0.271 OA
ATOM    109  N   ARG d  16    2046.389 626.495-2113.535  0.00  0.00    -0.347 N 
ATOM    110  H   ARG d  16    2045.993 626.095-2112.696  0.00  0.00     0.163 HD
BRANCH 109 111
ATOM    111  CA  ARG d  16    2047.385 627.558-2113.450  0.00  0.00     0.162 C 
BRANCH 111 112
ATOM    112  C   ARG d  16    2048.657 627.165-2114.165  0.00  0.00     0.219 C 
ATOM    113  O   ARG d  16    2048.771 626.089-2114.746  0.00  0.00    -0.287 OA
ENDBRANCH 111 112
BRANCH 111 114
ATOM    114  CB  ARG d  16    2047.653 627.876-2111.951  0.00  0.00     0.035 C 
BRANCH 114 115
ATOM    115  CG  ARG d  16    2048.478 629.165-2111.678  0.00  0.00     0.023 C 
BRANCH 115 116
ATOM    116  CD  ARG d  16    2048.726 629.385-2110.176  0.00  0.00     0.138 C 
BRANCH 116 117
ATOM    117  NE  ARG d  16    2049.502 630.643-2109.974  0.00  0.00    -0.227 N 
ATOM    118  CZ  ARG d  16    2049.892 631.126-2108.798  0.00  0.00     0.665 C 
ATOM    119  NH1 ARG d  16    2049.643 630.541-2107.660  0.00  0.00    -0.235 N 
ATOM    120  NH2 ARG d  16    2050.556 632.238-2108.779  0.00  0.00    -0.235 N 
ATOM    121 11HH ARG d  16    2049.117 629.668-2107.745  0.00  0.00     0.174 HD
ATOM    122 12HH ARG d  16    2049.976 630.977-2106.798  0.00  0.00     0.174 HD
ATOM    123 21HH ARG d  16    2050.743 632.681-2109.680  0.00  0.00     0.174 HD
ATOM    124 22HH ARG d  16    2050.845 632.593-2107.866  0.00  0.00     0.174 HD
ATOM    125  HE  ARG d  16    2049.781 631.224-2110.771  0.00  0.00     0.177 HD
ENDBRANCH 116 117
ENDBRANCH 115 116
ENDBRANCH 114 115
ENDBRANCH 111 114
ENDBRANCH 109 111
ENDBRANCH 106 107
BRANCH 106 126
ATOM    126  CB  MET d  15    2043.569 625.521-2114.479  0.00  0.00     0.045 C 
BRANCH 126 127
ATOM    127  CG  MET d  15    2042.407 624.523-2114.671  0.00  0.00     0.076 C 
BRANCH 127 128
ATOM    128  SD  MET d  15    2040.833 625.390-2114.559  0.00  0.00    -0.173 SA
ATOM    129  CE  MET d  15    2039.751 623.961-2114.423  0.00  0.00     0.089 C 
ENDBRANCH 127 128
ENDBRANCH 126 127
ENDBRANCH 106 126
ENDBRANCH 104 106
ENDBRANCH 101 102
BRANCH 101 130
ATOM    130  CB  VAL d  14    2046.011 620.849-2113.435  0.00  0.00     0.009 C 
ATOM    131  CG1 VAL d  14    2046.101 620.431-2114.928  0.00  0.00     0.012 C 
ATOM    132  CG2 VAL d  14    2046.442 619.596-2112.634  0.00  0.00     0.012 C 
ENDBRANCH 101 130
ENDBRANCH  99 101
ENDBRANCH  96  97
BRANCH  96 133
ATOM    133  CB  VAL d  13    2047.404 623.003-2108.690  0.00  0.00     0.009 C 
ATOM    134  CG1 VAL d  13    2048.929 622.813-2108.918  0.00  0.00     0.012 C 
ATOM    135  CG2 VAL d  13    2047.265 623.439-2107.212  0.00  0.00     0.012 C 
ENDBRANCH  96 133
ENDBRANCH  94  96
ENDBRANCH  91  92
BRANCH  91 136
ATOM    136  CB  GLN d  12    2042.549 625.291-2108.700  0.00  0.00     0.044 C 
BRANCH 136 137
ATOM    137  CG  GLN d  12    2042.910 626.813-2108.668  0.00  0.00     0.105 C 
BRANCH 137 138
ATOM    138  CD  GLN d  12    2042.607 627.625-2107.403  0.00  0.00     0.215 C 
ATOM    139  NE2 GLN d  12    2042.039 627.048-2106.375  0.00  0.00    -0.370 N 
ATOM    140 21HE GLN d  12    2041.932 627.642-2105.551  0.00  0.00     0.159 HD
ATOM    141 22HE GLN d  12    2041.876 626.045-2106.479  0.00  0.00     0.159 HD
ATOM    142  OE1 GLN d  12    2042.909 628.806-2107.325  0.00  0.00    -0.274 OA
ENDBRANCH 137 138
ENDBRANCH 136 137
ENDBRANCH  91 136
ENDBRANCH  89  91
ENDBRANCH  86  87
BRANCH  86 143
ATOM    143  CB  VAL d  11    2040.703 620.779-2110.908  0.00  0.00     0.009 C 
ATOM    144  CG1 VAL d  11    2040.134 621.484-2112.171  0.00  0.00     0.012 C 
ATOM    145  CG2 VAL d  11    2040.178 619.325-2110.983  0.00  0.00     0.012 C 
ENDBRANCH  86 143
ENDBRANCH  84  86
ENDBRANCH  81  82
BRANCH  81 146
ATOM    146  CB  HIS d  10    2044.058 618.244-2107.664  0.00  0.00     0.095 C 
BRANCH 146 147
ATOM    147  CG  HIS d  10    2045.344 617.533-2107.356  0.00  0.00     0.053 A 
ATOM    148  CD2 HIS d  10    2045.724 617.197-2106.063  0.00  0.00     0.116 A 
ATOM    149  NE2 HIS d  10    2046.939 616.565-2106.130  0.00  0.00    -0.359 N 
ATOM    150  CE1 HIS d  10    2047.202 616.569-2107.465  0.00  0.00     0.207 A 
ATOM    151  2HE HIS d  10    2047.505 616.187-2105.357  0.00  0.00     0.166 HD
ATOM    152  ND1 HIS d  10    2046.296 617.128-2108.288  0.00  0.00    -0.247 NA
ENDBRANCH 146 147
ENDBRANCH  81 146
ENDBRANCH  79  81
ENDBRANCH   1  77
BRANCH   1 153
ATOM    153  CB  GLU d   9    2042.953 621.877-2103.976  0.00  0.00     0.045 C 
BRANCH 153 154
ATOM    154  CG  GLU d   9    2044.335 622.568-2103.745  0.00  0.00     0.116 C 
BRANCH 154 155
ATOM    155  CD  GLU d   9    2045.036 622.354-2102.417  0.00  0.00     0.172 C 
ATOM    156  OE1 GLU d   9    2044.514 621.663-2101.521  0.00  0.00    -0.648 OA
ATOM    157  OE2 GLU d   9    2046.156 622.892-2102.284  0.00  0.00    -0.648 OA
ENDBRANCH 154 155
ENDBRANCH 153 154
ENDBRANCH   1 153
TORSDOF 65
