REMARK WARNING: 32 MAX_TORS EXCEEDED!!!
REMARK  68 active torsions:
REMARK  status: ('A' for Active; 'I' for Inactive)
REMARK    1  A    between atoms: N_1  and  CA_2 
REMARK    2  A    between atoms: CA_2  and  C_3 
REMARK    3  A    between atoms: CA_2  and  CB_5 
REMARK       I    between atoms: C_3  and  N_11 
REMARK    4  A    between atoms: CB_5  and  CG_6 
REMARK    5  A    between atoms: CG_6  and  CD_7 
REMARK    6  A    between atoms: N_11  and  CA_12 
REMARK    7  A    between atoms: CA_12  and  C_13 
REMARK    8  A    between atoms: CA_12  and  CB_15 
REMARK       I    between atoms: C_13  and  N_22 
REMARK    9  A    between atoms: CB_15  and  CG_16 
REMARK       I    between atoms: CG_16  and  ND2_17 
REMARK   10  A    between atoms: CA_23  and  C_24 
REMARK       I    between atoms: C_24  and  N_29 
REMARK   11  A    between atoms: N_29  and  CA_30 
REMARK   12  A    between atoms: CA_30  and  C_31 
REMARK   13  A    between atoms: CA_30  and  CB_33 
REMARK       I    between atoms: C_31  and  N_39 
REMARK   14  A    between atoms: CB_33  and  CG_34 
REMARK   15  A    between atoms: CG_34  and  CD_35 
REMARK   16  A    between atoms: N_39  and  CA_40 
REMARK   17  A    between atoms: CA_40  and  C_41 
REMARK   18  A    between atoms: CA_40  and  CB_43 
REMARK       I    between atoms: C_41  and  N_47 
REMARK   19  A    between atoms: CB_43  and  OG_44 
REMARK   20  A    between atoms: N_47  and  CA_48 
REMARK   21  A    between atoms: CA_48  and  C_49 
REMARK   22  A    between atoms: CA_48  and  CB_51 
REMARK       I    between atoms: C_49  and  N_59 
REMARK   23  A    between atoms: CB_51  and  CG_52 
REMARK   24  A    between atoms: N_59  and  CA_60 
REMARK   25  A    between atoms: CA_60  and  C_61 
REMARK   26  A    between atoms: CA_60  and  CB_63 
REMARK       I    between atoms: C_61  and  N_68 
REMARK   27  A    between atoms: CB_63  and  CG_64 
REMARK   28  A    between atoms: N_68  and  CA_69 
REMARK   29  A    between atoms: CA_69  and  C_70 
REMARK   30  A    between atoms: CA_69  and  CB_72 
REMARK       I    between atoms: C_70  and  N_77 
REMARK   31  A    between atoms: CB_72  and  CG_73 
REMARK   32  A    between atoms: N_77  and  CA_78 
REMARK   33  A    between atoms: CA_78  and  C_79 
REMARK   34  A    between atoms: CA_78  and  CB_81 
REMARK       I    between atoms: C_79  and  N_87 
REMARK   35  A    between atoms: CB_81  and  CG_82 
REMARK   36  A    between atoms: CG_82  and  CD_83 
REMARK   37  A    between atoms: N_87  and  CA_88 
REMARK   38  A    between atoms: CA_88  and  C_89 
REMARK   39  A    between atoms: CA_88  and  CB_91 
REMARK       I    between atoms: C_89  and  N_99 
REMARK   40  A    between atoms: CB_91  and  CG_92 
REMARK   41  A    between atoms: N_99  and  CA_100 
REMARK   42  A    between atoms: CA_100  and  C_101 
REMARK   43  A    between atoms: CA_100  and  CB_103 
REMARK       I    between atoms: C_101  and  N_107 
REMARK   44  A    between atoms: N_107  and  CA_108 
REMARK   45  A    between atoms: CA_108  and  C_109 
REMARK   46  A    between atoms: CA_108  and  CB_111 
REMARK       I    between atoms: C_109  and  N_119 
REMARK   47  A    between atoms: CB_111  and  CG_112 
REMARK   48  A    between atoms: CG_112  and  CD_113 
REMARK       I    between atoms: CD_113  and  NE2_114 
REMARK   49  A    between atoms: N_119  and  CA_120 
REMARK   50  A    between atoms: CA_120  and  C_121 
REMARK   51  A    between atoms: CA_120  and  CB_123 
REMARK       I    between atoms: C_121  and  N_136 
REMARK   52  A    between atoms: CB_123  and  CG_124 
REMARK   53  A    between atoms: CG_124  and  CD_125 
REMARK   54  A    between atoms: CD_125  and  NE_126 
REMARK       I    between atoms: NE_126  and  CZ_127 
REMARK       I    between atoms: CZ_127  and  NH1_128 
REMARK       I    between atoms: CZ_127  and  NH2_129 
REMARK   55  A    between atoms: N_136  and  CA_137 
REMARK   56  A    between atoms: CA_137  and  C_138 
REMARK   57  A    between atoms: CA_137  and  CB_140 
REMARK       I    between atoms: C_138  and  N_144 
REMARK   58  A    between atoms: N_144  and  CA_145 
REMARK   59  A    between atoms: CA_145  and  C_146 
REMARK   60  A    between atoms: CA_145  and  CB_148 
REMARK       I    between atoms: C_146  and  N_153 
REMARK   61  A    between atoms: CB_148  and  CG_149 
REMARK   62  A    between atoms: CG_149  and  SD_150 
REMARK   63  A    between atoms: N_153  and  CA_154 
REMARK   64  A    between atoms: CA_154  and  C_155 
REMARK   65  A    between atoms: CA_154  and  CB_157 
REMARK   66  A    between atoms: CB_157  and  CG_158 
REMARK   67  A    between atoms: CG_158  and  CD_159 
REMARK   68  A    between atoms: CD_159  and  NE_160 
REMARK       I    between atoms: NE_160  and  CZ_161 
REMARK       I    between atoms: CZ_161  and  NH1_162 
ROOT
ATOM      1  C   GLU d   9     952.952 263.752-922.783  0.00  0.00     0.241 C 
ATOM      2  O   GLU d   9     953.616 264.506-923.509  0.00  0.00    -0.271 OA
ATOM      3  N   HIS d  10     953.048 262.477-922.952  0.00  0.00    -0.346 N 
ATOM      4  H   HIS d  10     952.517 261.842-922.374  0.00  0.00     0.163 HD
ENDROOT
BRANCH   1   5
ATOM      5  CA  GLU d   9     952.033 264.280-921.709  0.00  0.00     0.177 C 
BRANCH   5   6
ATOM      6  N   GLU d   9     950.730 263.623-921.765  0.00  0.00    -0.346 N 
ATOM      7  C   ASP d   8     950.051 263.672-922.860  0.00  0.00     0.241 C 
ATOM      8  O   ASP d   8     950.525 264.277-923.835  0.00  0.00    -0.271 OA
ATOM      9  H   GLU d   9     950.366 263.137-920.958  0.00  0.00     0.163 HD
BRANCH   7  10
ATOM     10  CA  ASP d   8     948.704 262.993-922.918  0.00  0.00     0.186 C 
BRANCH  10  11
ATOM     11  N   ASP d   8     948.774 261.644-922.364  0.00  0.00    -0.346 N 
ATOM     12  C   LEU d   7     949.612 260.802-922.869  0.00  0.00     0.241 C 
ATOM     13  O   LEU d   7     950.333 261.164-923.811  0.00  0.00    -0.271 OA
ATOM     14  H   ASP d   8     948.175 261.373-921.597  0.00  0.00     0.163 HD
BRANCH  12  15
ATOM     15  CA  LEU d   7     949.683 259.407-922.296  0.00  0.00     0.177 C 
BRANCH  15  16
ATOM     16  N   LEU d   7     949.737 259.444-920.837  0.00  0.00    -0.346 N 
ATOM     17  C   HIS d   6     950.682 260.108-920.263  0.00  0.00     0.241 C 
ATOM     18  O   HIS d   6     951.518 260.695-920.967  0.00  0.00    -0.271 OA
ATOM     19  H   LEU d   7     949.044 258.958-920.286  0.00  0.00     0.163 HD
BRANCH  17  20
ATOM     20  CA  HIS d   6     950.738 260.147-918.755  0.00  0.00     0.182 C 
BRANCH  20  21
ATOM     21  N   HIS d   6     949.425 260.442-918.189  0.00  0.00    -0.346 N 
ATOM     22  C   SER d   5     948.820 261.525-918.544  0.00  0.00     0.243 C 
ATOM     23  O   SER d   5     949.367 262.278-919.348  0.00  0.00    -0.271 OA
ATOM     24  H   HIS d   6     948.996 259.808-917.530  0.00  0.00     0.163 HD
BRANCH  22  25
ATOM     25  CA  SER d   5     947.461 261.830-917.958  0.00  0.00     0.200 C 
BRANCH  25  26
ATOM     26  N   SER d   5     946.591 260.659-918.016  0.00  0.00    -0.344 N 
ATOM     27  C   GLU d   4     946.364 260.106-919.160  0.00  0.00     0.241 C 
ATOM     28  O   GLU d   4     946.890 260.586-920.174  0.00  0.00    -0.271 OA
ATOM     29  H   SER d   5     946.174 260.287-917.175  0.00  0.00     0.163 HD
BRANCH  27  30
ATOM     30  CA  GLU d   4     945.465 258.895-919.221  0.00  0.00     0.177 C 
BRANCH  30  31
ATOM     31  N   GLU d   4     945.825 257.924-918.191  0.00  0.00    -0.346 N 
ATOM     32  C   PRO d   3     947.030 257.464-918.159  0.00  0.00     0.241 C 
ATOM     33  O   PRO d   3     947.853 257.847-918.990  0.00  0.00    -0.271 OA
ATOM     34  H   GLU d   4     945.141 257.617-917.514  0.00  0.00     0.163 HD
BRANCH  32  35
ATOM     35  CA  PRO d   3     947.428 256.441-917.082  0.00  0.00     0.179 C 
ATOM     36  N   PRO d   3     946.976 256.850-915.760  0.00  0.00    -0.337 N 
ATOM     37  C   ASN d   2     947.498 257.845-915.126  0.00  0.00     0.243 C 
ATOM     38  CD  PRO d   3     945.898 256.057-915.211  0.00  0.00     0.127 C 
ATOM     39  O   ASN d   2     948.413 258.476-915.655  0.00  0.00    -0.271 OA
ATOM     40  CG  PRO d   3     945.441 255.238-916.421  0.00  0.00     0.022 C 
ATOM     41  CB  PRO d   3     946.724 255.086-917.251  0.00  0.00     0.037 C 
BRANCH  37  42
ATOM     42  CA  ASN d   2     946.966 258.200-913.758  0.00  0.00     0.185 C 
BRANCH  42  43
ATOM     43  N   ASN d   2     945.507 258.239-913.758  0.00  0.00    -0.346 N 
ATOM     44  C   GLU d   1     944.902 259.025-914.583  0.00  0.00     0.242 C 
ATOM     45  O   GLU d   1     945.578 259.724-915.351  0.00  0.00    -0.271 OA
ATOM     46  H   ASN d   2     944.979 257.659-913.121  0.00  0.00     0.163 HD
BRANCH  44  47
ATOM     47  CA  GLU d   1     943.393 259.065-914.583  0.00  0.00     0.191 C 
BRANCH  47  48
ATOM     48  N   GLU d   1     942.834 257.716-914.583  0.00  0.00    -0.326 NA
ATOM     49  H   GLU d   1     943.461 256.837-914.583  0.00  0.00     0.180 HD
ENDBRANCH  47  48
BRANCH  47  50
ATOM     50  CB  GLU d   1     942.870 259.850-913.346  0.00  0.00     0.047 C 
BRANCH  50  51
ATOM     51  CG  GLU d   1     943.345 261.335-913.235  0.00  0.00     0.116 C 
BRANCH  51  52
ATOM     52  CD  GLU d   1     942.921 262.139-912.020  0.00  0.00     0.172 C 
ATOM     53  OE1 GLU d   1     942.193 261.637-911.142  0.00  0.00    -0.648 OA
ATOM     54  OE2 GLU d   1     943.352 263.309-911.948  0.00  0.00    -0.648 OA
ENDBRANCH  51  52
ENDBRANCH  50  51
ENDBRANCH  47  50
ENDBRANCH  44  47
ENDBRANCH  42  43
BRANCH  42  55
ATOM     55  CB  ASN d   2     947.458 257.178-912.693  0.00  0.00     0.137 C 
BRANCH  55  56
ATOM     56  CG  ASN d   2     946.995 257.401-911.250  0.00  0.00     0.217 C 
ATOM     57  ND2 ASN d   2     947.590 258.316-910.532  0.00  0.00    -0.370 N 
ATOM     58 21HD ASN d   2     947.109 258.489-909.645  0.00  0.00     0.159 HD
ATOM     59 22HD ASN d   2     948.291 258.888-911.001  0.00  0.00     0.159 HD
ATOM     60  OD1 ASN d   2     946.075 256.768-910.756  0.00  0.00    -0.274 OA
ENDBRANCH  55  56
ENDBRANCH  42  55
ENDBRANCH  37  42
ENDBRANCH  32  35
ENDBRANCH  30  31
BRANCH  30  61
ATOM     61  CB  GLU d   4     943.977 259.313-919.050  0.00  0.00     0.045 C 
BRANCH  61  62
ATOM     62  CG  GLU d   4     943.428 260.317-920.116  0.00  0.00     0.116 C 
BRANCH  62  63
ATOM     63  CD  GLU d   4     942.002 260.813-919.973  0.00  0.00     0.172 C 
ATOM     64  OE1 GLU d   4     941.276 260.415-919.042  0.00  0.00    -0.648 OA
ATOM     65  OE2 GLU d   4     941.612 261.643-920.821  0.00  0.00    -0.648 OA
ENDBRANCH  62  63
ENDBRANCH  61  62
ENDBRANCH  30  61
ENDBRANCH  27  30
ENDBRANCH  25  26
BRANCH  25  66
ATOM     66  CB  SER d   5     947.572 262.363-916.508  0.00  0.00     0.199 C 
BRANCH  66  67
ATOM     67  OG  SER d   5     948.304 261.484-915.646  0.00  0.00    -0.398 OA
ATOM     68  HG  SER d   5     947.815 260.659-915.596  0.00  0.00     0.209 HD
ENDBRANCH  66  67
ENDBRANCH  25  66
ENDBRANCH  22  25
ENDBRANCH  20  21
BRANCH  20  69
ATOM     69  CB  HIS d   6     951.149 258.773-918.198  0.00  0.00     0.095 C 
BRANCH  69  70
ATOM     70  CG  HIS d   6     952.413 258.841-917.392  0.00  0.00     0.053 A 
ATOM     71  CD2 HIS d   6     952.418 259.065-916.022  0.00  0.00     0.116 A 
ATOM     72  NE2 HIS d   6     953.722 259.069-915.598  0.00  0.00    -0.359 N 
ATOM     73  CE1 HIS d   6     954.409 258.847-916.751  0.00  0.00     0.207 A 
ATOM     74  2HE HIS d   6     954.082 259.209-914.643  0.00  0.00     0.166 HD
ATOM     75  ND1 HIS d   6     953.707 258.692-917.888  0.00  0.00    -0.247 NA
ENDBRANCH  69  70
ENDBRANCH  20  69
ENDBRANCH  17  20
ENDBRANCH  15  16
BRANCH  15  76
ATOM     76  CB  LEU d   7     948.480 258.547-922.777  0.00  0.00     0.038 C 
BRANCH  76  77
ATOM     77  CG  LEU d   7     948.406 257.068-922.309  0.00  0.00    -0.020 C 
ATOM     78  CD1 LEU d   7     947.217 256.362-922.975  0.00  0.00     0.009 C 
ATOM     79  CD2 LEU d   7     949.700 256.288-922.599  0.00  0.00     0.009 C 
ENDBRANCH  76  77
ENDBRANCH  15  76
ENDBRANCH  12  15
ENDBRANCH  10  11
BRANCH  10  80
ATOM     80  CB  ASP d   8     947.626 263.832-922.178  0.00  0.00     0.147 C 
BRANCH  80  81
ATOM     81  CG  ASP d   8     947.408 265.253-922.720  0.00  0.00     0.175 C 
ATOM     82  OD1 ASP d   8     947.473 265.451-923.950  0.00  0.00    -0.648 OA
ATOM     83  OD2 ASP d   8     947.215 266.179-921.905  0.00  0.00    -0.648 OA
ENDBRANCH  80  81
ENDBRANCH  10  80
ENDBRANCH   7  10
ENDBRANCH   5   6
BRANCH   5  84
ATOM     84  CB  GLU d   9     952.665 264.074-920.303  0.00  0.00     0.045 C 
BRANCH  84  85
ATOM     85  CG  GLU d   9     954.048 264.766-920.073  0.00  0.00     0.116 C 
BRANCH  85  86
ATOM     86  CD  GLU d   9     954.748 264.553-918.744  0.00  0.00     0.172 C 
ATOM     87  OE1 GLU d   9     954.226 263.863-917.847  0.00  0.00    -0.648 OA
ATOM     88  OE2 GLU d   9     955.867 265.091-918.611  0.00  0.00    -0.648 OA
ENDBRANCH  85  86
ENDBRANCH  84  85
ENDBRANCH   5  84
ENDBRANCH   1   5
BRANCH   3  89
ATOM     89  CA  HIS d  10     953.937 261.965-923.992  0.00  0.00     0.182 C 
BRANCH  89  90
ATOM     90  C   HIS d  10     953.571 262.528-925.343  0.00  0.00     0.241 C 
ATOM     91  O   HIS d  10     954.424 262.993-926.115  0.00  0.00    -0.271 OA
ATOM     92  N   VAL d  11     952.334 262.527-925.707  0.00  0.00    -0.346 N 
ATOM     93  H   VAL d  11     951.620 262.155-925.097  0.00  0.00     0.163 HD
BRANCH  92  94
ATOM     94  CA  VAL d  11     951.980 263.073-927.015  0.00  0.00     0.180 C 
BRANCH  94  95
ATOM     95  C   VAL d  11     952.444 264.503-927.148  0.00  0.00     0.241 C 
ATOM     96  O   VAL d  11     953.046 264.907-928.151  0.00  0.00    -0.271 OA
ATOM     97  N   GLN d  12     952.206 265.329-926.186  0.00  0.00    -0.346 N 
ATOM     98  H   GLN d  12     951.717 265.024-925.357  0.00  0.00     0.163 HD
BRANCH  97  99
ATOM     99  CA  GLN d  12     952.655 266.712-926.314  0.00  0.00     0.177 C 
BRANCH  99 100
ATOM    100  C   GLN d  12     954.145 266.780-926.551  0.00  0.00     0.241 C 
ATOM    101  O   GLN d  12     954.633 267.487-927.430  0.00  0.00    -0.271 OA
ATOM    102  N   ARG d  13     954.929 266.073-925.809  0.00  0.00    -0.346 N 
ATOM    103  H   ARG d  13     954.552 265.484-925.080  0.00  0.00     0.163 HD
BRANCH 102 104
ATOM    104  CA  ARG d  13     956.369 266.139-926.039  0.00  0.00     0.176 C 
BRANCH 104 105
ATOM    105  C   ARG d  13     956.707 265.767-927.463  0.00  0.00     0.241 C 
ATOM    106  O   ARG d  13     957.476 266.438-928.147  0.00  0.00    -0.271 OA
ATOM    107  N   VAL d  14     956.171 264.712-927.977  0.00  0.00    -0.346 N 
ATOM    108  H   VAL d  14     955.536 264.144-927.435  0.00  0.00     0.163 HD
BRANCH 107 109
ATOM    109  CA  VAL d  14     956.497 264.352-929.354  0.00  0.00     0.180 C 
BRANCH 109 110
ATOM    110  C   VAL d  14     956.167 265.481-930.301  0.00  0.00     0.241 C 
ATOM    111  O   VAL d  14     956.962 265.862-931.170  0.00  0.00    -0.271 OA
ATOM    112  N   MET d  15     955.022 266.067-930.200  0.00  0.00    -0.346 N 
ATOM    113  H   MET d  15     954.357 265.775-929.499  0.00  0.00     0.163 HD
BRANCH 112 114
ATOM    114  CA  MET d  15     954.703 267.159-931.115  0.00  0.00     0.177 C 
BRANCH 114 115
ATOM    115  C   MET d  15     955.733 268.259-931.027  0.00  0.00     0.241 C 
ATOM    116  O   MET d  15     956.236 268.769-932.040  0.00  0.00    -0.271 OA
ATOM    117  N   ARG d  16     956.100 268.681-929.865  0.00  0.00    -0.347 N 
ATOM    118  H   ARG d  16     955.705 268.282-929.026  0.00  0.00     0.163 HD
BRANCH 117 119
ATOM    119  CA  ARG d  16     957.097 269.745-929.781  0.00  0.00     0.162 C 
BRANCH 119 120
ATOM    120  C   ARG d  16     958.368 269.352-930.496  0.00  0.00     0.219 C 
ATOM    121  O   ARG d  16     958.482 268.275-931.076  0.00  0.00    -0.287 OA
ENDBRANCH 119 120
BRANCH 119 122
ATOM    122  CB  ARG d  16     957.365 270.064-928.283  0.00  0.00     0.035 C 
BRANCH 122 123
ATOM    123  CG  ARG d  16     958.189 271.353-928.010  0.00  0.00     0.023 C 
BRANCH 123 124
ATOM    124  CD  ARG d  16     958.438 271.574-926.509  0.00  0.00     0.138 C 
BRANCH 124 125
ATOM    125  NE  ARG d  16     959.214 272.833-926.308  0.00  0.00    -0.227 N 
ATOM    126  CZ  ARG d  16     959.604 273.316-925.132  0.00  0.00     0.665 C 
ATOM    127  NH1 ARG d  16     959.355 272.733-923.994  0.00  0.00    -0.235 N 
ATOM    128  NH2 ARG d  16     960.268 274.429-925.114  0.00  0.00    -0.235 N 
ATOM    129 11HH ARG d  16     958.830 271.859-924.078  0.00  0.00     0.174 HD
ATOM    130 12HH ARG d  16     959.689 273.169-923.133  0.00  0.00     0.174 HD
ATOM    131 21HH ARG d  16     960.454 274.871-926.016  0.00  0.00     0.174 HD
ATOM    132 22HH ARG d  16     960.557 274.785-924.202  0.00  0.00     0.174 HD
ATOM    133  HE  ARG d  16     959.493 273.413-927.105  0.00  0.00     0.177 HD
ENDBRANCH 124 125
ENDBRANCH 123 124
ENDBRANCH 122 123
ENDBRANCH 119 122
ENDBRANCH 117 119
ENDBRANCH 114 115
BRANCH 114 134
ATOM    134  CB  MET d  15     953.281 267.705-930.808  0.00  0.00     0.045 C 
BRANCH 134 135
ATOM    135  CG  MET d  15     952.119 266.707-931.000  0.00  0.00     0.076 C 
BRANCH 135 136
ATOM    136  SD  MET d  15     950.545 267.573-930.888  0.00  0.00    -0.173 SA
ATOM    137  CE  MET d  15     949.464 266.143-930.751  0.00  0.00     0.089 C 
ENDBRANCH 135 136
ENDBRANCH 134 135
ENDBRANCH 114 134
ENDBRANCH 112 114
ENDBRANCH 109 110
BRANCH 109 138
ATOM    138  CB  VAL d  14     955.725 263.034-929.761  0.00  0.00     0.009 C 
ATOM    139  CG1 VAL d  14     955.815 262.615-931.254  0.00  0.00     0.012 C 
ATOM    140  CG2 VAL d  14     956.156 261.783-928.959  0.00  0.00     0.012 C 
ENDBRANCH 109 138
ENDBRANCH 107 109
ENDBRANCH 104 105
BRANCH 104 141
ATOM    141  CB  ARG d  13     957.082 265.201-925.023  0.00  0.00     0.036 C 
BRANCH 141 142
ATOM    142  CG  ARG d  13     958.627 265.354-924.941  0.00  0.00     0.023 C 
BRANCH 142 143
ATOM    143  CD  ARG d  13     959.253 264.367-923.942  0.00  0.00     0.138 C 
BRANCH 143 144
ATOM    144  NE  ARG d  13     960.730 264.575-923.891  0.00  0.00    -0.227 N 
ATOM    145  CZ  ARG d  13     961.578 263.884-923.135  0.00  0.00     0.665 C 
ATOM    146  NH1 ARG d  13     961.212 262.920-922.337  0.00  0.00    -0.235 N 
ATOM    147  NH2 ARG d  13     962.837 264.183-923.191  0.00  0.00    -0.235 N 
ATOM    148 11HH ARG d  13     960.207 262.734-922.341  0.00  0.00     0.174 HD
ATOM    149 12HH ARG d  13     961.925 262.437-921.787  0.00  0.00     0.174 HD
ATOM    150 21HH ARG d  13     963.105 264.940-923.822  0.00  0.00     0.174 HD
ATOM    151 22HH ARG d  13     963.472 263.642-922.601  0.00  0.00     0.174 HD
ATOM    152  HE  ARG d  13     961.182 265.297-924.462  0.00  0.00     0.177 HD
ENDBRANCH 143 144
ENDBRANCH 142 143
ENDBRANCH 141 142
ENDBRANCH 104 141
ENDBRANCH 102 104
ENDBRANCH  99 100
BRANCH  99 153
ATOM    153  CB  GLN d  12     952.263 267.481-925.032  0.00  0.00     0.044 C 
BRANCH 153 154
ATOM    154  CG  GLN d  12     952.623 269.003-925.002  0.00  0.00     0.105 C 
BRANCH 154 155
ATOM    155  CD  GLN d  12     952.319 269.817-923.738  0.00  0.00     0.215 C 
ATOM    156  NE2 GLN d  12     951.752 269.241-922.709  0.00  0.00    -0.370 N 
ATOM    157 21HE GLN d  12     951.644 269.836-921.886  0.00  0.00     0.159 HD
ATOM    158 22HE GLN d  12     951.588 268.238-922.812  0.00  0.00     0.159 HD
ATOM    159  OE1 GLN d  12     952.621 270.998-923.661  0.00  0.00    -0.274 OA
ENDBRANCH 154 155
ENDBRANCH 153 154
ENDBRANCH  99 153
ENDBRANCH  97  99
ENDBRANCH  94  95
BRANCH  94 160
ATOM    160  CB  VAL d  11     950.419 262.966-927.235  0.00  0.00     0.009 C 
ATOM    161  CG1 VAL d  11     949.851 263.669-928.499  0.00  0.00     0.012 C 
ATOM    162  CG2 VAL d  11     949.894 261.511-927.308  0.00  0.00     0.012 C 
ENDBRANCH  94 160
ENDBRANCH  92  94
ENDBRANCH  89  90
BRANCH  89 163
ATOM    163  CB  HIS d  10     953.773 260.436-923.986  0.00  0.00     0.095 C 
BRANCH 163 164
ATOM    164  CG  HIS d  10     955.059 259.726-923.676  0.00  0.00     0.053 A 
ATOM    165  CD2 HIS d  10     955.438 259.392-922.383  0.00  0.00     0.116 A 
ATOM    166  NE2 HIS d  10     956.653 258.760-922.448  0.00  0.00    -0.359 N 
ATOM    167  CE1 HIS d  10     956.917 258.762-923.783  0.00  0.00     0.207 A 
ATOM    168  2HE HIS d  10     957.220 258.383-921.674  0.00  0.00     0.166 HD
ATOM    169  ND1 HIS d  10     956.011 259.319-924.608  0.00  0.00    -0.247 NA
ENDBRANCH 163 164
ENDBRANCH  89 163
ENDBRANCH   3  89
TORSDOF 68
