REMARK WARNING: 32 MAX_TORS EXCEEDED!!!
REMARK  63 active torsions:
REMARK  status: ('A' for Active; 'I' for Inactive)
REMARK    1  A    between atoms: N_1  and  CA_2 
REMARK    2  A    between atoms: CA_2  and  C_3 
REMARK    3  A    between atoms: CA_2  and  CB_5 
REMARK       I    between atoms: C_3  and  N_11 
REMARK    4  A    between atoms: CB_5  and  CG_6 
REMARK    5  A    between atoms: CG_6  and  CD_7 
REMARK    6  A    between atoms: N_11  and  CA_12 
REMARK    7  A    between atoms: CA_12  and  C_13 
REMARK    8  A    between atoms: CA_12  and  CB_15 
REMARK       I    between atoms: C_13  and  N_22 
REMARK    9  A    between atoms: CB_15  and  CG_16 
REMARK       I    between atoms: CG_16  and  ND2_17 
REMARK   10  A    between atoms: CA_23  and  C_24 
REMARK       I    between atoms: C_24  and  N_29 
REMARK   11  A    between atoms: N_29  and  CA_30 
REMARK   12  A    between atoms: CA_30  and  C_31 
REMARK   13  A    between atoms: CA_30  and  CB_33 
REMARK       I    between atoms: C_31  and  N_39 
REMARK   14  A    between atoms: CB_33  and  CG_34 
REMARK   15  A    between atoms: CG_34  and  CD_35 
REMARK   16  A    between atoms: N_39  and  CA_40 
REMARK   17  A    between atoms: CA_40  and  C_41 
REMARK   18  A    between atoms: CA_40  and  CB_43 
REMARK       I    between atoms: C_41  and  N_47 
REMARK   19  A    between atoms: CB_43  and  OG_44 
REMARK   20  A    between atoms: N_47  and  CA_48 
REMARK   21  A    between atoms: CA_48  and  C_49 
REMARK   22  A    between atoms: CA_48  and  CB_51 
REMARK       I    between atoms: C_49  and  N_56 
REMARK   23  A    between atoms: CB_51  and  CG1_52 
REMARK   24  A    between atoms: N_56  and  CA_57 
REMARK   25  A    between atoms: CA_57  and  C_58 
REMARK   26  A    between atoms: CA_57  and  CB_60 
REMARK       I    between atoms: C_58  and  N_65 
REMARK   27  A    between atoms: CB_60  and  CG_61 
REMARK   28  A    between atoms: N_65  and  CA_66 
REMARK   29  A    between atoms: CA_66  and  C_67 
REMARK   30  A    between atoms: CA_66  and  CB_69 
REMARK       I    between atoms: C_67  and  N_74 
REMARK   31  A    between atoms: CB_69  and  CG_70 
REMARK   32  A    between atoms: N_74  and  CA_75 
REMARK   33  A    between atoms: CA_75  and  C_76 
REMARK   34  A    between atoms: CA_75  and  CB_78 
REMARK       I    between atoms: C_76  and  N_84 
REMARK   35  A    between atoms: CB_78  and  CG_79 
REMARK   36  A    between atoms: CG_79  and  CD_80 
REMARK   37  A    between atoms: N_84  and  CA_85 
REMARK   38  A    between atoms: CA_85  and  C_86 
REMARK   39  A    between atoms: CA_85  and  CB_88 
REMARK       I    between atoms: C_86  and  N_96 
REMARK   40  A    between atoms: CB_88  and  CG_89 
REMARK   41  A    between atoms: N_96  and  CA_97 
REMARK   42  A    between atoms: CA_97  and  C_98 
REMARK   43  A    between atoms: CA_97  and  CB_100 
REMARK       I    between atoms: C_98  and  N_104 
REMARK   44  A    between atoms: N_104  and  CA_105 
REMARK   45  A    between atoms: CA_105  and  C_106 
REMARK   46  A    between atoms: CA_105  and  CB_108 
REMARK       I    between atoms: C_106  and  N_116 
REMARK   47  A    between atoms: CB_108  and  CG_109 
REMARK   48  A    between atoms: CG_109  and  CD_110 
REMARK       I    between atoms: CD_110  and  NE2_111 
REMARK   49  A    between atoms: N_116  and  CA_117 
REMARK   50  A    between atoms: CA_117  and  C_118 
REMARK   51  A    between atoms: CA_117  and  CB_120 
REMARK       I    between atoms: C_118  and  N_133 
REMARK   52  A    between atoms: CB_120  and  CG_121 
REMARK   53  A    between atoms: CG_121  and  CD_122 
REMARK   54  A    between atoms: CD_122  and  NE_123 
REMARK       I    between atoms: NE_123  and  CZ_124 
REMARK       I    between atoms: CZ_124  and  NH1_125 
REMARK   55  A    between atoms: N_133  and  CA_134 
REMARK   56  A    between atoms: CA_134  and  C_135 
REMARK   57  A    between atoms: CA_134  and  CB_137 
REMARK       I    between atoms: C_135  and  N_141 
REMARK   58  A    between atoms: N_141  and  CA_142 
REMARK   59  A    between atoms: CA_142  and  C_143 
REMARK   60  A    between atoms: CA_142  and  CB_145 
REMARK       I    between atoms: C_143  and  N_150 
REMARK   61  A    between atoms: CB_145  and  CG_146 
REMARK   62  A    between atoms: CG_146  and  SD_147 
REMARK   63  A    between atoms: CA_151  and  C_152 
ROOT
ATOM      1  CA  GLU d   9    2515.561 776.246-2620.505  0.00  0.00     0.177 C 
ENDROOT
BRANCH   1   2
ATOM      2  N   GLU d   9    2514.258 775.589-2620.560  0.00  0.00    -0.346 N 
ATOM      3  C   ASP d   8    2513.578 775.639-2621.655  0.00  0.00     0.241 C 
ATOM      4  O   ASP d   8    2514.051 776.243-2622.630  0.00  0.00    -0.271 OA
ATOM      5  H   GLU d   9    2513.894 775.103-2619.752  0.00  0.00     0.163 HD
BRANCH   3   6
ATOM      6  CA  ASP d   8    2512.231 774.960-2621.711  0.00  0.00     0.186 C 
BRANCH   6   7
ATOM      7  N   ASP d   8    2512.301 773.610-2621.157  0.00  0.00    -0.346 N 
ATOM      8  C   LEU d   7    2513.137 772.769-2621.663  0.00  0.00     0.241 C 
ATOM      9  O   LEU d   7    2513.858 773.131-2622.606  0.00  0.00    -0.271 OA
ATOM     10  H   ASP d   8    2511.703 773.340-2620.390  0.00  0.00     0.163 HD
BRANCH   8  11
ATOM     11  CA  LEU d   7    2513.209 771.374-2621.090  0.00  0.00     0.177 C 
BRANCH  11  12
ATOM     12  N   LEU d   7    2513.264 771.410-2619.632  0.00  0.00    -0.346 N 
ATOM     13  C   ILE d   6    2514.210 772.073-2619.058  0.00  0.00     0.241 C 
ATOM     14  O   ILE d   6    2515.045 772.660-2619.762  0.00  0.00    -0.271 OA
ATOM     15  H   LEU d   7    2512.572 770.923-2619.081  0.00  0.00     0.163 HD
BRANCH  13  16
ATOM     16  CA  ILE d   6    2514.268 772.111-2617.551  0.00  0.00     0.180 C 
BRANCH  16  17
ATOM     17  N   ILE d   6    2512.954 772.406-2616.985  0.00  0.00    -0.346 N 
ATOM     18  C   SER d   5    2512.350 773.490-2617.339  0.00  0.00     0.243 C 
ATOM     19  O   SER d   5    2512.898 774.243-2618.144  0.00  0.00    -0.271 OA
ATOM     20  H   ILE d   6    2512.525 771.772-2616.326  0.00  0.00     0.163 HD
BRANCH  18  21
ATOM     21  CA  SER d   5    2510.991 773.796-2616.754  0.00  0.00     0.200 C 
BRANCH  21  22
ATOM     22  N   SER d   5    2510.121 772.625-2616.812  0.00  0.00    -0.344 N 
ATOM     23  C   GLU d   4    2509.894 772.072-2617.956  0.00  0.00     0.241 C 
ATOM     24  O   GLU d   4    2510.421 772.551-2618.970  0.00  0.00    -0.271 OA
ATOM     25  H   SER d   5    2509.704 772.253-2615.971  0.00  0.00     0.163 HD
BRANCH  23  26
ATOM     26  CA  GLU d   4    2508.995 770.861-2618.017  0.00  0.00     0.177 C 
BRANCH  26  27
ATOM     27  N   GLU d   4    2509.354 769.890-2616.988  0.00  0.00    -0.346 N 
ATOM     28  C   PRO d   3    2510.559 769.430-2616.955  0.00  0.00     0.241 C 
ATOM     29  O   PRO d   3    2511.383 769.813-2617.786  0.00  0.00    -0.271 OA
ATOM     30  H   GLU d   4    2508.670 769.584-2616.311  0.00  0.00     0.163 HD
BRANCH  28  31
ATOM     31  CA  PRO d   3    2510.957 768.406-2615.878  0.00  0.00     0.179 C 
ATOM     32  N   PRO d   3    2510.505 768.816-2614.556  0.00  0.00    -0.337 N 
ATOM     33  C   ASN d   2    2511.026 769.810-2613.922  0.00  0.00     0.243 C 
ATOM     34  CD  PRO d   3    2509.426 768.023-2614.008  0.00  0.00     0.127 C 
ATOM     35  O   ASN d   2    2511.941 770.441-2614.450  0.00  0.00    -0.271 OA
ATOM     36  CG  PRO d   3    2508.969 767.204-2615.218  0.00  0.00     0.022 C 
ATOM     37  CB  PRO d   3    2510.252 767.052-2616.047  0.00  0.00     0.037 C 
BRANCH  33  38
ATOM     38  CA  ASN d   2    2510.495 770.166-2612.553  0.00  0.00     0.185 C 
BRANCH  38  39
ATOM     39  N   ASN d   2    2509.035 770.205-2612.554  0.00  0.00    -0.346 N 
ATOM     40  C   GLU d   1    2508.431 770.991-2613.379  0.00  0.00     0.242 C 
ATOM     41  O   GLU d   1    2509.107 771.690-2614.147  0.00  0.00    -0.271 OA
ATOM     42  H   ASN d   2    2508.507 769.625-2611.917  0.00  0.00     0.163 HD
BRANCH  40  43
ATOM     43  CA  GLU d   1    2506.922 771.031-2613.379  0.00  0.00     0.191 C 
BRANCH  43  44
ATOM     44  N   GLU d   1    2506.363 769.682-2613.379  0.00  0.00    -0.326 NA
ATOM     45  H   GLU d   1    2506.990 768.803-2613.379  0.00  0.00     0.180 HD
ENDBRANCH  43  44
BRANCH  43  46
ATOM     46  CB  GLU d   1    2506.399 771.816-2612.142  0.00  0.00     0.047 C 
BRANCH  46  47
ATOM     47  CG  GLU d   1    2506.874 773.301-2612.031  0.00  0.00     0.116 C 
BRANCH  47  48
ATOM     48  CD  GLU d   1    2506.450 774.105-2610.816  0.00  0.00     0.172 C 
ATOM     49  OE1 GLU d   1    2505.722 773.603-2609.938  0.00  0.00    -0.648 OA
ATOM     50  OE2 GLU d   1    2506.880 775.275-2610.744  0.00  0.00    -0.648 OA
ENDBRANCH  47  48
ENDBRANCH  46  47
ENDBRANCH  43  46
ENDBRANCH  40  43
ENDBRANCH  38  39
BRANCH  38  51
ATOM     51  CB  ASN d   2    2510.986 769.143-2611.489  0.00  0.00     0.137 C 
BRANCH  51  52
ATOM     52  CG  ASN d   2    2510.523 769.367-2610.046  0.00  0.00     0.217 C 
ATOM     53  ND2 ASN d   2    2511.117 770.282-2609.327  0.00  0.00    -0.370 N 
ATOM     54 21HD ASN d   2    2510.636 770.455-2608.441  0.00  0.00     0.159 HD
ATOM     55 22HD ASN d   2    2511.819 770.853-2609.796  0.00  0.00     0.159 HD
ATOM     56  OD1 ASN d   2    2509.602 768.733-2609.552  0.00  0.00    -0.274 OA
ENDBRANCH  51  52
ENDBRANCH  38  51
ENDBRANCH  33  38
ENDBRANCH  28  31
ENDBRANCH  26  27
BRANCH  26  57
ATOM     57  CB  GLU d   4    2507.507 771.280-2617.848  0.00  0.00     0.045 C 
BRANCH  57  58
ATOM     58  CG  GLU d   4    2506.959 772.284-2618.913  0.00  0.00     0.116 C 
BRANCH  58  59
ATOM     59  CD  GLU d   4    2505.533 772.781-2618.770  0.00  0.00     0.172 C 
ATOM     60  OE1 GLU d   4    2504.806 772.383-2617.840  0.00  0.00    -0.648 OA
ATOM     61  OE2 GLU d   4    2505.144 773.610-2619.619  0.00  0.00    -0.648 OA
ENDBRANCH  58  59
ENDBRANCH  57  58
ENDBRANCH  26  57
ENDBRANCH  23  26
ENDBRANCH  21  22
BRANCH  21  62
ATOM     62  CB  SER d   5    2511.103 774.328-2615.303  0.00  0.00     0.199 C 
BRANCH  62  63
ATOM     63  OG  SER d   5    2511.833 773.448-2614.442  0.00  0.00    -0.398 OA
ATOM     64  HG  SER d   5    2511.344 772.623-2614.391  0.00  0.00     0.209 HD
ENDBRANCH  62  63
ENDBRANCH  21  62
ENDBRANCH  18  21
ENDBRANCH  16  17
BRANCH  16  65
ATOM     65  CB  ILE d   6    2514.867 770.774-2616.950  0.00  0.00     0.013 C 
ATOM     66  CG2 ILE d   6    2516.308 770.472-2617.465  0.00  0.00     0.012 C 
BRANCH  65  67
ATOM     67  CG1 ILE d   6    2514.885 770.712-2615.389  0.00  0.00     0.002 C 
ATOM     68  CD1 ILE d   6    2515.155 769.323-2614.774  0.00  0.00     0.005 C 
ENDBRANCH  65  67
ENDBRANCH  16  65
ENDBRANCH  13  16
ENDBRANCH  11  12
BRANCH  11  69
ATOM     69  CB  LEU d   7    2512.006 770.514-2621.571  0.00  0.00     0.038 C 
BRANCH  69  70
ATOM     70  CG  LEU d   7    2511.933 769.035-2621.104  0.00  0.00    -0.020 C 
ATOM     71  CD1 LEU d   7    2510.743 768.329-2621.770  0.00  0.00     0.009 C 
ATOM     72  CD2 LEU d   7    2513.226 768.255-2621.396  0.00  0.00     0.009 C 
ENDBRANCH  69  70
ENDBRANCH  11  69
ENDBRANCH   8  11
ENDBRANCH   6   7
BRANCH   6  73
ATOM     73  CB  ASP d   8    2511.153 775.800-2620.970  0.00  0.00     0.147 C 
BRANCH  73  74
ATOM     74  CG  ASP d   8    2510.935 777.220-2621.512  0.00  0.00     0.175 C 
ATOM     75  OD1 ASP d   8    2511.000 777.418-2622.743  0.00  0.00    -0.648 OA
ATOM     76  OD2 ASP d   8    2510.744 778.147-2620.697  0.00  0.00    -0.648 OA
ENDBRANCH  73  74
ENDBRANCH   6  73
ENDBRANCH   3   6
ENDBRANCH   1   2
BRANCH   1  77
ATOM     77  C   GLU d   9    2516.479 775.717-2621.581  0.00  0.00     0.241 C 
ATOM     78  O   GLU d   9    2517.142 776.471-2622.307  0.00  0.00    -0.271 OA
ATOM     79  N   HIS d  10    2516.574 774.442-2621.750  0.00  0.00    -0.346 N 
ATOM     80  H   HIS d  10    2516.044 773.807-2621.171  0.00  0.00     0.163 HD
BRANCH  79  81
ATOM     81  CA  HIS d  10    2517.462 773.930-2622.790  0.00  0.00     0.182 C 
BRANCH  81  82
ATOM     82  C   HIS d  10    2517.095 774.494-2624.141  0.00  0.00     0.241 C 
ATOM     83  O   HIS d  10    2517.948 774.958-2624.914  0.00  0.00    -0.271 OA
ATOM     84  N   VAL d  11    2515.857 774.494-2624.504  0.00  0.00    -0.346 N 
ATOM     85  H   VAL d  11    2515.144 774.121-2623.893  0.00  0.00     0.163 HD
BRANCH  84  86
ATOM     86  CA  VAL d  11    2515.502 775.039-2625.811  0.00  0.00     0.180 C 
BRANCH  86  87
ATOM     87  C   VAL d  11    2515.967 776.469-2625.945  0.00  0.00     0.241 C 
ATOM     88  O   VAL d  11    2516.568 776.874-2626.948  0.00  0.00    -0.271 OA
ATOM     89  N   GLN d  12    2515.731 777.296-2624.982  0.00  0.00    -0.346 N 
ATOM     90  H   GLN d  12    2515.242 776.990-2624.153  0.00  0.00     0.163 HD
BRANCH  89  91
ATOM     91  CA  GLN d  12    2516.180 778.678-2625.110  0.00  0.00     0.177 C 
BRANCH  91  92
ATOM     92  C   GLN d  12    2517.670 778.745-2625.349  0.00  0.00     0.241 C 
ATOM     93  O   GLN d  12    2518.157 779.452-2626.228  0.00  0.00    -0.271 OA
ATOM     94  N   ARG d  13    2518.454 778.038-2624.607  0.00  0.00    -0.346 N 
ATOM     95  H   ARG d  13    2518.078 777.449-2623.878  0.00  0.00     0.163 HD
BRANCH  94  96
ATOM     96  CA  ARG d  13    2519.895 778.103-2624.839  0.00  0.00     0.176 C 
BRANCH  96  97
ATOM     97  C   ARG d  13    2520.230 777.731-2626.263  0.00  0.00     0.241 C 
ATOM     98  O   ARG d  13    2520.999 778.402-2626.948  0.00  0.00    -0.271 OA
ATOM     99  N   VAL d  14    2519.694 776.676-2626.777  0.00  0.00    -0.346 N 
ATOM    100  H   VAL d  14    2519.059 776.108-2626.235  0.00  0.00     0.163 HD
BRANCH  99 101
ATOM    101  CA  VAL d  14    2520.018 776.316-2628.155  0.00  0.00     0.180 C 
BRANCH 101 102
ATOM    102  C   VAL d  14    2519.688 777.445-2629.101  0.00  0.00     0.241 C 
ATOM    103  O   VAL d  14    2520.481 777.827-2629.970  0.00  0.00    -0.271 OA
ATOM    104  N   MET d  15    2518.544 778.032-2628.999  0.00  0.00    -0.346 N 
ATOM    105  H   MET d  15    2517.879 777.739-2628.297  0.00  0.00     0.163 HD
BRANCH 104 106
ATOM    106  CA  MET d  15    2518.223 779.124-2629.913  0.00  0.00     0.177 C 
BRANCH 106 107
ATOM    107  C   MET d  15    2519.254 780.224-2629.825  0.00  0.00     0.243 C 
ATOM    108  O   MET d  15    2519.756 780.734-2630.838  0.00  0.00    -0.271 OA
ATOM    109  N   PRO d  16    2519.623 780.645-2628.663  0.00  0.00    -0.338 N 
ATOM    110  CA  PRO d  16    2520.609 781.701-2628.491  0.00  0.00     0.165 C 
ATOM    111  CD  PRO d  16    2519.086 780.104-2627.434  0.00  0.00     0.127 C 
ATOM    112  CB  PRO d  16    2520.472 782.021-2626.995  0.00  0.00     0.035 C 
ATOM    113  CG  PRO d  16    2520.030 780.686-2626.377  0.00  0.00     0.022 C 
BRANCH 110 114
ATOM    114  C   PRO d  16    2522.021 781.226-2628.877  0.00  0.00     0.219 C 
ATOM    115  O   PRO d  16    2522.203 780.077-2629.281  0.00  0.00    -0.287 OA
ENDBRANCH 110 114
ENDBRANCH 106 107
BRANCH 106 116
ATOM    116  CB  MET d  15    2516.802 779.670-2629.604  0.00  0.00     0.045 C 
BRANCH 116 117
ATOM    117  CG  MET d  15    2515.640 778.672-2629.795  0.00  0.00     0.076 C 
BRANCH 117 118
ATOM    118  SD  MET d  15    2514.066 779.538-2629.680  0.00  0.00    -0.173 SA
ATOM    119  CE  MET d  15    2512.985 778.109-2629.543  0.00  0.00     0.089 C 
ENDBRANCH 117 118
ENDBRANCH 116 117
ENDBRANCH 106 116
ENDBRANCH 104 106
ENDBRANCH 101 102
BRANCH 101 120
ATOM    120  CB  VAL d  14    2519.245 774.999-2628.561  0.00  0.00     0.009 C 
ATOM    121  CG1 VAL d  14    2519.334 774.579-2630.054  0.00  0.00     0.012 C 
ATOM    122  CG2 VAL d  14    2519.677 773.747-2627.760  0.00  0.00     0.012 C 
ENDBRANCH 101 120
ENDBRANCH  99 101
ENDBRANCH  96  97
BRANCH  96 123
ATOM    123  CB  ARG d  13    2520.608 777.165-2623.824  0.00  0.00     0.036 C 
BRANCH 123 124
ATOM    124  CG  ARG d  13    2522.153 777.317-2623.744  0.00  0.00     0.023 C 
BRANCH 124 125
ATOM    125  CD  ARG d  13    2522.780 776.330-2622.746  0.00  0.00     0.138 C 
BRANCH 125 126
ATOM    126  NE  ARG d  13    2524.257 776.537-2622.696  0.00  0.00    -0.227 N 
ATOM    127  CZ  ARG d  13    2525.105 775.846-2621.940  0.00  0.00     0.665 C 
ATOM    128  NH1 ARG d  13    2524.740 774.882-2621.142  0.00  0.00    -0.235 N 
ATOM    129  NH2 ARG d  13    2526.365 776.144-2621.998  0.00  0.00    -0.235 N 
ATOM    130 11HH ARG d  13    2523.735 774.696-2621.145  0.00  0.00     0.174 HD
ATOM    131 12HH ARG d  13    2525.453 774.399-2620.593  0.00  0.00     0.174 HD
ATOM    132 21HH ARG d  13    2526.633 776.902-2622.629  0.00  0.00     0.174 HD
ATOM    133 22HH ARG d  13    2527.000 775.603-2621.409  0.00  0.00     0.174 HD
ATOM    134  HE  ARG d  13    2524.708 777.259-2623.267  0.00  0.00     0.177 HD
ENDBRANCH 125 126
ENDBRANCH 124 125
ENDBRANCH 123 124
ENDBRANCH  96 123
ENDBRANCH  94  96
ENDBRANCH  91  92
BRANCH  91 135
ATOM    135  CB  GLN d  12    2515.790 779.447-2623.828  0.00  0.00     0.044 C 
BRANCH 135 136
ATOM    136  CG  GLN d  12    2516.151 780.968-2623.798  0.00  0.00     0.105 C 
BRANCH 136 137
ATOM    137  CD  GLN d  12    2515.849 781.783-2622.533  0.00  0.00     0.215 C 
ATOM    138  NE2 GLN d  12    2515.282 781.207-2621.504  0.00  0.00    -0.370 N 
ATOM    139 21HE GLN d  12    2515.176 781.802-2620.681  0.00  0.00     0.159 HD
ATOM    140 22HE GLN d  12    2515.118 780.204-2621.607  0.00  0.00     0.159 HD
ATOM    141  OE1 GLN d  12    2516.152 782.963-2622.457  0.00  0.00    -0.274 OA
ENDBRANCH 136 137
ENDBRANCH 135 136
ENDBRANCH  91 135
ENDBRANCH  89  91
ENDBRANCH  86  87
BRANCH  86 142
ATOM    142  CB  VAL d  11    2513.940 774.933-2626.030  0.00  0.00     0.009 C 
ATOM    143  CG1 VAL d  11    2513.372 775.637-2627.293  0.00  0.00     0.012 C 
ATOM    144  CG2 VAL d  11    2513.415 773.479-2626.102  0.00  0.00     0.012 C 
ENDBRANCH  86 142
ENDBRANCH  84  86
ENDBRANCH  81  82
BRANCH  81 145
ATOM    145  CB  HIS d  10    2517.297 772.401-2622.784  0.00  0.00     0.095 C 
BRANCH 145 146
ATOM    146  CG  HIS d  10    2518.583 771.690-2622.476  0.00  0.00     0.053 A 
ATOM    147  CD2 HIS d  10    2518.964 771.356-2621.184  0.00  0.00     0.116 A 
ATOM    148  NE2 HIS d  10    2520.178 770.723-2621.250  0.00  0.00    -0.359 N 
ATOM    149  CE1 HIS d  10    2520.440 770.725-2622.586  0.00  0.00     0.207 A 
ATOM    150  2HE HIS d  10    2520.745 770.346-2620.477  0.00  0.00     0.166 HD
ATOM    151  ND1 HIS d  10    2519.534 771.284-2623.409  0.00  0.00    -0.247 NA
ENDBRANCH 145 146
ENDBRANCH  81 145
ENDBRANCH  79  81
ENDBRANCH   1  77
BRANCH   1 152
ATOM    152  CB  GLU d   9    2516.195 776.039-2619.100  0.00  0.00     0.045 C 
BRANCH 152 153
ATOM    153  CG  GLU d   9    2517.578 776.731-2618.871  0.00  0.00     0.116 C 
BRANCH 153 154
ATOM    154  CD  GLU d   9    2518.280 776.517-2617.542  0.00  0.00     0.172 C 
ATOM    155  OE1 GLU d   9    2517.758 775.827-2616.646  0.00  0.00    -0.648 OA
ATOM    156  OE2 GLU d   9    2519.399 777.055-2617.411  0.00  0.00    -0.648 OA
ENDBRANCH 153 154
ENDBRANCH 152 153
ENDBRANCH   1 152
TORSDOF 63
