@<TRIPOS>MOLECULE
4-12
261 262 16              
SMALL
USER_CHARGES
@<TRIPOS>ATOM
1	   N	622.472	153.514	-570.740	N.3	1	GLU1	-0.516	
2	  CA	623.031	154.863	-570.740	C.3	1	GLU1	0.040	
3	   C	624.540	154.823	-570.740	C.2	1	GLU1	0.537	
4	   O	625.216	155.523	-571.509	O.2	1	GLU1	-0.582	
5	  CB	622.508	155.648	-569.503	C.3	1	GLU1	0.056	
6	  CG	622.983	157.133	-569.392	C.3	1	GLU1	0.014	
7	  CD	622.559	157.937	-568.177	C.2	1	GLU1	0.805	
8	 OE1	621.831	157.435	-567.299	O.co2	1	GLU1	-0.819	
9	 OE2	622.989	159.107	-568.105	O.co2	1	GLU1	-0.819	
10	   H	623.099	152.635	-570.740	 H	1	GLU1	0.294	
11	  HA	622.705	155.381	-571.660	 H	1	GLU1	0.111	
12	 2HB	622.797	155.117	-568.573	 H	1	GLU1	-0.017	
13	 3HB	621.401	155.638	-569.490	 H	1	GLU1	-0.017	
14	 2HG	622.673	157.718	-570.273	 H	1	GLU1	-0.043	
15	 3HG	624.083	157.200	-569.363	 H	1	GLU1	-0.043	
16	   N	625.145	154.038	-569.915	N.am	2	ASN2	-0.416	
17	  CA	626.604	153.999	-569.915	C.3	2	ASN2	0.014	
18	   C	627.135	153.644	-571.284	C.2	2	ASN2	0.597	
19	   O	628.050	154.274	-571.812	O.2	2	ASN2	-0.568	
20	  CB	627.096	152.976	-568.851	C.3	2	ASN2	-0.204	
21	  CG	626.633	153.200	-567.407	C.2	2	ASN2	0.713	
22	 ND2	627.228	154.115	-566.689	N.pl3	2	ASN2	-0.919	
23	 OD1	625.713	152.566	-566.913	O.2	2	ASN2	-0.593	
24	   H	624.617	153.458	-569.278	 H	2	ASN2	0.272	
25	  HA	626.982	155.009	-569.670	 H	2	ASN2	0.105	
26	 2HB	628.201	152.917	-568.854	 H	2	ASN2	0.080	
27	 3HB	626.767	151.958	-569.136	 H	2	ASN2	0.080	
28	1HD2	626.747	154.288	-565.802	 H	2	ASN2	0.420	
29	2HD2	627.929	154.687	-567.158	 H	2	ASN2	0.420	
30	   N	626.614	152.649	-571.918	N.am	3	PRO3	-0.255	
31	  CA	627.066	152.239	-573.239	C.3	3	PRO3	-0.027	
32	   C	626.668	153.263	-574.316	C.2	3	PRO3	0.590	
33	   O	627.491	153.646	-575.148	O.2	3	PRO3	-0.575	
34	  CB	626.362	150.885	-573.409	C.3	3	PRO3	-0.007	
35	  CG	625.079	151.036	-572.579	C.3	3	PRO3	0.019	
36	  CD	625.536	151.855	-571.369	C.3	3	PRO3	0.019	
37	  HA	628.152	152.120	-573.253	 H	3	PRO3	0.064	
38	 2HB	626.985	150.103	-572.968	 H	3	PRO3	0.025	
39	 3HB	626.164	150.636	-574.454	 H	3	PRO3	0.025	
40	 2HG	624.651	150.074	-572.287	 H	3	PRO3	0.021	
41	 3HG	624.341	151.607	-573.146	 H	3	PRO3	0.021	
42	 2HD	625.926	151.206	-570.581	 H	3	PRO3	0.039	
43	 3HD	624.740	152.491	-570.976	 H	3	PRO3	0.039	
44	   N	625.463	153.723	-574.349	N.am	4	CYS4	-0.416	
45	  CA	625.103	154.694	-575.378	C.3	4	CYS4	0.021	
46	   C	626.002	155.906	-575.317	C.2	4	CYS4	0.597	
47	   O	626.528	156.385	-576.332	O.2	4	CYS4	-0.568	
48	  CB	623.614	155.055	-575.211	C.3	4	CYS4	-0.123	
49	  SG	623.057	156.116	-576.564	S.3	4	CYS4	-0.312	
50	   H	624.779	153.416	-573.672	 H	4	CYS4	0.272	
51	  HA	625.253	154.223	-576.367	 H	4	CYS4	0.112	
52	 2HB	623.426	155.565	-574.244	 H	4	CYS4	0.111	
53	 3HB	622.981	154.150	-575.206	 H	4	CYS4	0.111	
54	  HG	623.015	157.251	-575.871	 H	4	CYS4	0.193	
55	   N	626.229	156.459	-574.174	N.am	5	SER5	-0.416	
56	  CA	627.098	157.630	-574.116	C.3	5	SER5	-0.025	
57	   C	628.457	157.325	-574.702	C.2	5	SER5	0.597	
58	   O	629.004	158.079	-575.507	O.2	5	SER5	-0.568	
59	  CB	627.210	158.163	-572.665	C.3	5	SER5	0.212	
60	  OG	627.942	157.284	-571.805	O.3	5	SER5	-0.655	
61	   H	625.813	156.087	-573.332	 H	5	SER5	0.272	
62	  HA	626.648	158.420	-574.745	 H	5	SER5	0.084	
63	 2HB	626.210	158.356	-572.232	 H	5	SER5	0.035	
64	 3HB	627.715	159.149	-572.668	 H	5	SER5	0.035	
65	  HG	627.454	156.459	-571.754	 H	5	SER5	0.428	
66	   N	629.063	156.243	-574.348	N.am	6	ILE6	-0.416	
67	  CA	630.376	155.949	-574.915	C.3	6	ILE6	-0.060	
68	   C	630.318	155.911	-576.422	C.2	6	ILE6	0.597	
69	   O	631.152	156.499	-577.127	O.2	6	ILE6	-0.568	
70	  CB	630.976	154.613	-574.314	C.3	6	ILE6	0.130	
71	 CG1	630.997	154.551	-572.753	C.3	6	ILE6	-0.043	
72	 CG2	632.418	154.312	-574.830	C.3	6	ILE6	-0.320	
73	 CD1	631.267	153.162	-572.138	C.3	6	ILE6	-0.066	
74	   H	628.635	155.608	-573.689	 H	6	ILE6	0.272	
75	  HA	631.049	156.783	-574.647	 H	6	ILE6	0.087	
76	  HB	630.319	153.786	-574.658	 H	6	ILE6	0.019	
77	2HG1	630.014	154.870	-572.357	 H	6	ILE6	0.024	
78	3HG1	631.712	155.293	-572.349	 H	6	ILE6	0.024	
79	1HG2	632.476	154.218	-575.929	 H	6	ILE6	0.088	
80	2HG2	633.140	155.094	-574.529	 H	6	ILE6	0.088	
81	3HG2	632.808	153.350	-574.452	 H	6	ILE6	0.088	
82	1HD1	630.540	152.407	-572.493	 H	6	ILE6	0.019	
83	2HD1	632.278	152.784	-572.375	 H	6	ILE6	0.019	
84	3HD1	631.192	153.192	-571.036	 H	6	ILE6	0.019	
85	   N	629.372	155.246	-576.996	N.am	7	LEU7	-0.416	
86	  CA	629.317	155.210	-578.454	C.3	7	LEU7	-0.052	
87	   C	629.243	156.605	-579.027	C.2	7	LEU7	0.597	
88	   O	629.963	156.968	-579.969	O.2	7	LEU7	-0.568	
89	  CB	628.114	154.349	-578.934	C.3	7	LEU7	-0.110	
90	  CG	628.042	152.870	-578.467	C.3	7	LEU7	0.353	
91	 CD1	626.853	152.163	-579.132	C.3	7	LEU7	-0.412	
92	 CD2	629.336	152.091	-578.759	C.3	7	LEU7	-0.412	
93	   H	628.681	154.759	-576.444	 H	7	LEU7	0.272	
94	  HA	630.259	154.771	-578.829	 H	7	LEU7	0.092	
95	 2HB	628.090	154.365	-580.041	 H	7	LEU7	0.046	
96	 3HB	627.174	154.851	-578.629	 H	7	LEU7	0.046	
97	  HG	627.873	152.862	-577.370	 H	7	LEU7	-0.036	
98	1HD1	625.895	152.672	-578.909	 H	7	LEU7	0.100	
99	2HD1	626.951	152.122	-580.233	 H	7	LEU7	0.100	
100	3HD1	626.747	151.122	-578.776	 H	7	LEU7	0.100	
101	1HD2	629.611	152.122	-579.829	 H	7	LEU7	0.100	
102	2HD2	630.190	152.503	-578.188	 H	7	LEU7	0.100	
103	3HD2	629.256	151.029	-578.462	 H	7	LEU7	0.100	
104	   N	628.406	157.445	-578.520	N.am	8	ASP8	-0.516	
105	  CA	628.334	158.795	-579.074	C.3	8	ASP8	0.038	
106	   C	629.680	159.475	-579.017	C.2	8	ASP8	0.537	
107	   O	630.153	160.081	-579.992	O.2	8	ASP8	-0.582	
108	  CB	627.256	159.633	-578.331	C.3	8	ASP8	-0.030	
109	  CG	627.036	161.054	-578.872	C.2	8	ASP8	0.799	
110	 OD1	627.099	161.253	-580.103	O.co2	8	ASP8	-0.801	
111	 OD2	626.844	161.980	-578.057	O.co2	8	ASP8	-0.801	
112	   H	627.808	157.174	-577.752	 H	8	ASP8	0.294	
113	  HA	628.051	158.717	-580.140	 H	8	ASP8	0.088	
114	 2HB	627.514	159.717	-577.260	 H	8	ASP8	-0.012	
115	 3HB	626.277	159.128	-578.364	 H	8	ASP8	-0.012	
116	   N	630.361	159.426	-577.922	N.am	9	GLU9	-0.516	
117	  CA	631.663	160.085	-577.867	C.3	9	GLU9	0.040	
118	   C	632.581	159.557	-578.943	C.2	9	GLU9	0.537	
119	   O	633.244	160.312	-579.669	O.2	9	GLU9	-0.582	
120	  CB	632.297	159.877	-576.462	C.3	9	GLU9	0.056	
121	  CG	633.680	160.571	-576.233	C.3	9	GLU9	0.014	
122	  CD	634.382	160.358	-574.905	C.2	9	GLU9	0.805	
123	 OE1	633.861	159.667	-574.009	O.co2	9	GLU9	-0.819	
124	 OE2	635.501	160.896	-574.774	O.co2	9	GLU9	-0.819	
125	   H	629.998	158.940	-577.115	 H	9	GLU9	0.294	
126	  HA	631.520	161.166	-578.043	 H	9	GLU9	0.111	
127	 2HB	632.411	158.793	-576.259	 H	9	GLU9	-0.017	
128	 3HB	631.600	160.230	-575.678	 H	9	GLU9	-0.017	
129	 2HG	633.607	161.661	-576.373	 H	9	GLU9	-0.043	
130	 3HG	634.426	160.226	-576.968	 H	9	GLU9	-0.043	
131	   N	632.678	158.282	-579.113	N.am	10	HIS10	-0.416	
132	  CA	633.566	157.771	-580.153	C.3	10	HIS10	-0.058	
133	   C	633.198	158.335	-581.504	C.2	10	HIS10	0.597	
134	   O	634.050	158.801	-582.277	O.2	10	HIS10	-0.568	
135	  CB	633.403	156.242	-580.148	C.3	10	HIS10	-0.007	
136	  CG	634.689	155.533	-579.840	C.2	10	HIS10	0.187	
137	 CD2	635.071	155.198	-578.548	C.2	10	HIS10	-0.221	
138	 ND1	635.641	155.127	-580.773	N.2	10	HIS10	-0.543	
139	 CE1	636.548	154.570	-579.950	C.2	10	HIS10	0.163	
140	 NE2	636.286	154.567	-578.615	N.pl3	10	HIS10	-0.280	
141	   H	632.148	157.646	-578.534	 H	10	HIS10	0.272	
142	  HA	634.585	158.129	-579.929	 H	10	HIS10	0.136	
143	 2HB	633.038	155.875	-581.128	 H	10	HIS10	0.037	
144	 3HB	632.648	155.905	-579.408	 H	10	HIS10	0.037	
145	 2HD	634.485	155.413	-577.659	 H	10	HIS10	0.186	
146	 1HE	637.439	154.149	-580.397	 H	10	HIS10	0.144	
147	 2HE	636.853	154.190	-577.842	 H	10	HIS10	0.334	
148	   N	631.960	158.334	-581.867	N.am	11	VAL11	-0.416	
149	  CA	631.604	158.879	-583.173	C.3	11	VAL11	-0.087	
150	   C	632.068	160.310	-583.306	C.2	11	VAL11	0.597	
151	   O	632.668	160.716	-584.310	O.2	11	VAL11	-0.568	
152	  CB	630.043	158.772	-583.392	C.3	11	VAL11	0.299	
153	 CG1	629.473	159.475	-584.655	C.3	11	VAL11	-0.319	
154	 CG2	629.519	157.317	-583.465	C.3	11	VAL11	-0.319	
155	   H	631.248	157.960	-581.256	 H	11	VAL11	0.272	
156	  HA	632.124	158.297	-583.956	 H	11	VAL11	0.097	
157	  HB	629.556	159.252	-582.517	 H	11	VAL11	-0.030	
158	1HG1	629.912	159.084	-585.592	 H	11	VAL11	0.079	
159	2HG1	628.375	159.367	-584.736	 H	11	VAL11	0.079	
160	3HG1	629.651	160.568	-584.646	 H	11	VAL11	0.079	
161	1HG2	629.810	156.730	-582.574	 H	11	VAL11	0.079	
162	2HG2	628.414	157.280	-583.507	 H	11	VAL11	0.079	
163	3HG2	629.901	156.777	-584.352	 H	11	VAL11	0.079	
164	   N	631.831	161.136	-582.344	N.am	12	GLN12	-0.416	
165	  CA	632.278	162.519	-582.471	C.3	12	GLN12	-0.003	
166	   C	633.768	162.587	-582.710	C.2	12	GLN12	0.597	
167	   O	634.254	163.296	-583.589	O.2	12	GLN12	-0.568	
168	  CB	631.888	163.286	-581.189	C.3	12	GLN12	-0.004	
169	  CG	632.247	164.809	-581.158	C.3	12	GLN12	-0.064	
170	  CD	631.945	165.622	-579.893	C.2	12	GLN12	0.695	
171	 NE2	631.378	165.045	-578.864	N.pl3	12	GLN12	-0.941	
172	 OE1	632.246	166.803	-579.816	O.2	12	GLN12	-0.609	
173	   H	631.342	160.830	-581.514	 H	12	GLN12	0.272	
174	  HA	631.778	162.975	-583.346	 H	12	GLN12	0.085	
175	 2HB	632.364	162.787	-580.319	 H	12	GLN12	0.017	
176	 3HB	630.797	163.178	-581.025	 H	12	GLN12	0.017	
177	 2HG	631.769	165.329	-582.008	 H	12	GLN12	0.035	
178	 3HG	633.330	164.951	-581.324	 H	12	GLN12	0.035	
179	1HE2	631.271	165.640	-578.040	 H	12	GLN12	0.425	
180	2HE2	631.215	164.042	-578.967	 H	12	GLN12	0.425	
181	   N	634.553	161.881	-581.969	N.am	13	ARG13	-0.348	
182	  CA	635.994	161.948	-582.201	C.3	13	ARG13	-0.264	
183	   C	636.329	161.576	-583.626	C.2	13	ARG13	0.734	
184	   O	637.097	162.248	-584.311	O.2	13	ARG13	-0.589	
185	  CB	636.708	161.009	-581.187	C.3	13	ARG13	-0.001	
186	  CG	638.253	161.163	-581.107	C.3	13	ARG13	0.039	
187	  CD	638.881	160.176	-580.109	C.3	13	ARG13	0.049	
188	  NE	640.358	160.384	-580.060	N.pl3	13	ARG13	-0.530	
189	  CZ	641.207	159.693	-579.305	C.cat	13	ARG13	0.808	
190	 NH1	640.843	158.728	-578.507	N.pl3	13	ARG13	-0.863	
191	 NH2	642.466	159.993	-579.362	N.pl3	13	ARG13	-0.863	
192	   H	634.178	161.291	-581.241	 H	13	ARG13	0.275	
193	  HA	636.318	162.994	-582.043	 H	13	ARG13	0.156	
194	 2HB	636.442	159.959	-581.426	 H	13	ARG13	0.033	
195	 3HB	636.283	161.176	-580.176	 H	13	ARG13	0.033	
196	 2HG	638.500	162.208	-580.828	 H	13	ARG13	0.029	
197	 3HG	638.703	161.007	-582.109	 H	13	ARG13	0.029	
198	 2HD	638.637	159.136	-580.418	 H	13	ARG13	0.069	
199	 3HD	638.425	160.321	-579.107	 H	13	ARG13	0.069	
200	  HE	640.808	161.107	-580.631	 H	13	ARG13	0.346	
201	1HH1	639.837	158.542	-578.510	 H	13	ARG13	0.448	
202	2HH1	641.556	158.246	-577.959	 H	13	ARG13	0.448	
203	1HH2	642.733	160.751	-579.994	 H	13	ARG13	0.448	
204	2HH2	643.102	159.452	-578.774	 H	13	ARG13	0.448	
205	   N	635.794	160.521	-584.140	N.am	14	VAL14	-0.416	
206	  CA	636.118	160.162	-585.518	C.3	14	VAL14	-0.087	
207	   C	635.787	161.292	-586.463	C.2	14	VAL14	0.597	
208	   O	636.579	161.674	-587.333	O.2	14	VAL14	-0.568	
209	  CB	635.346	158.845	-585.924	C.3	14	VAL14	0.299	
210	 CG1	635.435	158.426	-587.418	C.3	14	VAL14	-0.319	
211	 CG2	635.779	157.593	-585.124	C.3	14	VAL14	-0.319	
212	   H	635.159	159.953	-583.598	 H	14	VAL14	0.272	
213	  HA	637.206	159.986	-585.593	 H	14	VAL14	0.097	
214	  HB	634.270	159.015	-585.708	 H	14	VAL14	-0.030	
215	1HG1	636.476	158.250	-587.747	 H	14	VAL14	0.079	
216	2HG1	634.862	157.503	-587.630	 H	14	VAL14	0.079	
217	3HG1	635.005	159.188	-588.096	 H	14	VAL14	0.079	
218	1HG2	635.692	157.751	-584.033	 H	14	VAL14	0.079	
219	2HG2	635.144	156.716	-585.356	 H	14	VAL14	0.079	
220	3HG2	636.827	157.303	-585.330	 H	14	VAL14	0.079	
221	   N	634.642	161.877	-586.361	N.am	15	MET15	-0.416	
222	  CA	634.320	162.970	-587.274	C.3	15	MET15	-0.024	
223	   C	635.350	164.070	-587.187	C.2	15	MET15	0.597	
224	   O	635.852	164.581	-588.200	O.2	15	MET15	-0.568	
225	  CB	632.899	163.515	-586.965	C.3	15	MET15	0.034	
226	  CG	631.737	162.516	-587.156	C.3	15	MET15	0.002	
227	  SD	630.163	163.381	-587.041	S.3	15	MET15	-0.274	
228	  CE	629.082	161.951	-586.903	C.3	15	MET15	-0.054	
229	   H	633.977	161.584	-585.659	 H	15	MET15	0.272	
230	  HA	634.345	162.582	-588.310	 H	15	MET15	0.088	
231	 2HB	632.695	164.393	-587.607	 H	15	MET15	0.024	
232	 3HB	632.863	163.907	-585.928	 H	15	MET15	0.024	
233	 2HG	631.781	161.730	-586.378	 H	15	MET15	0.044	
234	 3HG	631.800	162.000	-588.132	 H	15	MET15	0.044	
235	 1HE	629.226	161.262	-587.756	 H	15	MET15	0.068	
236	 2HE	629.292	161.398	-585.971	 H	15	MET15	0.068	
237	 3HE	628.025	162.265	-586.886	 H	15	MET15	0.068	
238	   N	635.719	164.491	-586.025	N.am	16	ARG16	-0.348	
239	  CA	636.715	165.556	-585.942	C.3	16	ARG16	-0.264	
240	   C	637.985	165.164	-586.659	C.2	16	ARG16	0.734	
241	   O	638.099	164.087	-587.240	O.2	16	ARG16	-0.589	
242	  CB	636.984	165.874	-584.444	C.3	16	ARG16	-0.001	
243	  CG	637.809	167.163	-584.171	C.3	16	ARG16	0.039	
244	  CD	638.059	167.383	-582.670	C.3	16	ARG16	0.049	
245	  NE	638.835	168.642	-582.470	N.pl3	16	ARG16	-0.530	
246	  CZ	639.227	169.124	-581.294	C.cat	16	ARG16	0.808	
247	 NH1	638.980	168.540	-580.156	N.pl3	16	ARG16	-0.863	
248	 NH2	639.890	170.237	-581.276	N.pl3	16	ARG16	-0.863	
249	   H	635.325	164.091	-585.186	 H	16	ARG16	0.275	
250	  HA	636.305	166.448	-586.452	 H	16	ARG16	0.156	
251	 2HB	637.482	164.998	-583.978	 H	16	ARG16	0.033	
252	 3HB	636.016	165.954	-583.909	 H	16	ARG16	0.033	
253	 2HG	637.278	168.034	-584.608	 H	16	ARG16	0.029	
254	 3HG	638.782	167.111	-584.701	 H	16	ARG16	0.029	
255	 2HD	638.609	166.508	-582.257	 H	16	ARG16	0.069	
256	 3HD	637.087	167.425	-582.134	 H	16	ARG16	0.069	
257	  HE	639.113	169.223	-583.267	 H	16	ARG16	0.346	
258	1HH1	638.455	167.667	-580.240	 H	16	ARG16	0.448	
259	2HH1	639.315	168.976	-579.295	 H	16	ARG16	0.448	
260	1HH2	640.075	170.681	-582.178	 H	16	ARG16	0.448	
261	2HH2	640.181	170.593	-580.364	 H	16	ARG16	0.448	
@<TRIPOS>BOND
1 1 2 1
2 1 10 1
3 2 3 1
4 2 5 1
5 2 11 1
6 3 4 2
7 3 16 1
8 5 6 1
9 6 7 1
10 7 8 2
11 7 9 1
12 5 12 1
13 5 13 1
14 6 14 1
15 6 15 1
16 16 17 1
17 16 24 1
18 17 18 1
19 17 20 1
20 17 25 1
21 18 19 2
22 18 30 1
23 20 21 1
24 21 22 1
25 21 23 2
26 20 26 1
27 20 27 1
28 22 28 1
29 22 29 1
30 30 31 1
31 30 36 1
32 31 32 1
33 31 34 1
34 31 37 1
35 32 33 2
36 32 44 1
37 34 35 1
38 35 36 1
39 34 38 1
40 34 39 1
41 35 40 1
42 35 41 1
43 36 42 1
44 36 43 1
45 44 45 1
46 44 50 1
47 45 46 1
48 45 48 1
49 45 51 1
50 46 47 2
51 46 55 1
52 48 49 1
53 48 52 1
54 48 53 1
55 49 54 1
56 55 56 1
57 55 61 1
58 56 57 1
59 56 59 1
60 56 62 1
61 57 58 2
62 57 66 1
63 59 60 1
64 59 63 1
65 59 64 1
66 60 65 1
67 66 67 1
68 66 74 1
69 67 68 1
70 67 70 1
71 67 75 1
72 68 69 2
73 68 85 1
74 70 71 1
75 70 72 1
76 71 73 1
77 70 76 1
78 71 77 1
79 71 78 1
80 72 79 1
81 72 80 1
82 72 81 1
83 73 82 1
84 73 83 1
85 73 84 1
86 85 86 1
87 85 93 1
88 86 87 1
89 86 89 1
90 86 94 1
91 87 88 2
92 87 104 1
93 89 90 1
94 90 91 1
95 90 92 1
96 89 95 1
97 89 96 1
98 90 97 1
99 91 98 1
100 91 99 1
101 91 100 1
102 92 101 1
103 92 102 1
104 92 103 1
105 104 105 1
106 104 112 1
107 105 106 1
108 105 108 1
109 105 113 1
110 106 107 2
111 106 116 1
112 108 109 1
113 109 110 2
114 109 111 1
115 108 114 1
116 108 115 1
117 116 117 1
118 116 125 1
119 117 118 1
120 117 120 1
121 117 126 1
122 118 119 2
123 118 131 1
124 120 121 1
125 121 122 1
126 122 123 2
127 122 124 1
128 120 127 1
129 120 128 1
130 121 129 1
131 121 130 1
132 131 132 1
133 131 141 1
134 132 133 1
135 132 135 1
136 132 142 1
137 133 134 2
138 133 148 1
139 135 136 1
140 136 137 2
141 137 140 1
142 136 138 1
143 138 139 2
144 139 140 1
145 135 143 1
146 135 144 1
147 137 145 1
148 139 146 1
149 140 147 1
150 148 149 1
151 148 155 1
152 149 150 1
153 149 152 1
154 149 156 1
155 150 151 2
156 150 164 1
157 152 153 1
158 152 154 1
159 152 157 1
160 153 158 1
161 153 159 1
162 153 160 1
163 154 161 1
164 154 162 1
165 154 163 1
166 164 165 1
167 164 173 1
168 165 166 1
169 165 168 1
170 165 174 1
171 166 167 2
172 166 181 1
173 168 169 1
174 169 170 1
175 170 171 1
176 170 172 2
177 168 175 1
178 168 176 1
179 169 177 1
180 169 178 1
181 171 179 1
182 171 180 1
183 181 182 1
184 181 192 1
185 182 183 1
186 182 185 1
187 182 193 1
188 183 184 2
189 183 205 1
190 185 186 1
191 186 187 1
192 187 188 1
193 188 189 1
194 189 190 2
195 189 191 1
196 185 194 1
197 185 195 1
198 186 196 1
199 186 197 1
200 187 198 1
201 187 199 1
202 188 200 1
203 190 201 1
204 190 202 1
205 191 203 1
206 191 204 1
207 205 206 1
208 205 212 1
209 206 207 1
210 206 209 1
211 206 213 1
212 207 208 2
213 207 221 1
214 209 210 1
215 209 211 1
216 209 214 1
217 210 215 1
218 210 216 1
219 210 217 1
220 211 218 1
221 211 219 1
222 211 220 1
223 221 222 1
224 221 229 1
225 222 223 1
226 222 225 1
227 222 230 1
228 223 224 2
229 223 238 1
230 225 226 1
231 226 227 1
232 227 228 1
233 225 231 1
234 225 232 1
235 226 233 1
236 226 234 1
237 228 235 1
238 228 236 1
239 228 237 1
240 238 239 1
241 238 249 1
242 239 240 1
243 239 242 1
244 239 250 1
245 240 241 2
246 242 243 1
247 243 244 1
248 244 245 1
249 245 246 1
250 246 247 2
251 246 248 1
252 242 251 1
253 242 252 1
254 243 253 1
255 243 254 1
256 244 255 1
257 244 256 1
258 245 257 1
259 247 258 1
260 247 259 1
261 248 260 1
262 248 261 1
@<TRIPOS>SUBSTRUCTURE
1	GLU1	1	RESIDUE	1 ****	GLU
2	ASN2	16	RESIDUE	1 ****	ASN
3	PRO3	30	RESIDUE	1 ****	PRO
4	CYS4	44	RESIDUE	1 ****	CYS
5	SER5	55	RESIDUE	1 ****	SER
6	ILE6	66	RESIDUE	1 ****	ILE
7	LEU7	85	RESIDUE	1 ****	LEU
8	ASP8	104	RESIDUE	1 ****	ASP
9	GLU9	116	RESIDUE	1 ****	GLU
10	HIS10	131	RESIDUE	1 ****	HIS
11	VAL11	148	RESIDUE	1 ****	VAL
12	GLN12	164	RESIDUE	1 ****	GLN
13	ARG13	181	RESIDUE	1 ****	ARG
14	VAL14	205	RESIDUE	1 ****	VAL
15	MET15	221	RESIDUE	1 ****	MET
16	ARG16	238	RESIDUE	1 ****	ARG
