REMARK WARNING: 32 MAX_TORS EXCEEDED!!!
REMARK  67 active torsions:
REMARK  status: ('A' for Active; 'I' for Inactive)
REMARK    1  A    between atoms: N_1  and  CA_2 
REMARK    2  A    between atoms: CA_2  and  C_3 
REMARK    3  A    between atoms: CA_2  and  CB_5 
REMARK       I    between atoms: C_3  and  N_11 
REMARK    4  A    between atoms: CB_5  and  CG_6 
REMARK    5  A    between atoms: CG_6  and  CD_7 
REMARK    6  A    between atoms: N_11  and  CA_12 
REMARK    7  A    between atoms: CA_12  and  C_13 
REMARK    8  A    between atoms: CA_12  and  CB_15 
REMARK       I    between atoms: C_13  and  N_22 
REMARK    9  A    between atoms: CB_15  and  CG_16 
REMARK       I    between atoms: CG_16  and  ND2_17 
REMARK   10  A    between atoms: CA_23  and  C_24 
REMARK       I    between atoms: C_24  and  N_29 
REMARK   11  A    between atoms: N_29  and  CA_30 
REMARK   12  A    between atoms: CA_30  and  C_31 
REMARK   13  A    between atoms: CA_30  and  CB_33 
REMARK       I    between atoms: C_31  and  N_39 
REMARK   14  A    between atoms: CB_33  and  CG_34 
REMARK   15  A    between atoms: CG_34  and  CD_35 
REMARK   16  A    between atoms: N_39  and  CA_40 
REMARK   17  A    between atoms: CA_40  and  C_41 
REMARK   18  A    between atoms: CA_40  and  CB_43 
REMARK       I    between atoms: C_41  and  N_47 
REMARK   19  A    between atoms: CB_43  and  OG_44 
REMARK   20  A    between atoms: N_47  and  CA_48 
REMARK   21  A    between atoms: CA_48  and  C_49 
REMARK   22  A    between atoms: CA_48  and  CB_51 
REMARK       I    between atoms: C_49  and  N_56 
REMARK   23  A    between atoms: CB_51  and  CG1_52 
REMARK   24  A    between atoms: N_56  and  CA_57 
REMARK   25  A    between atoms: CA_57  and  C_58 
REMARK   26  A    between atoms: CA_57  and  CB_60 
REMARK       I    between atoms: C_58  and  N_65 
REMARK   27  A    between atoms: CB_60  and  CG_61 
REMARK   28  A    between atoms: N_65  and  CA_66 
REMARK   29  A    between atoms: CA_66  and  C_67 
REMARK   30  A    between atoms: CA_66  and  CB_69 
REMARK       I    between atoms: C_67  and  N_74 
REMARK   31  A    between atoms: CB_69  and  CG_70 
REMARK   32  A    between atoms: N_74  and  CA_75 
REMARK   33  A    between atoms: CA_75  and  C_76 
REMARK   34  A    between atoms: CA_75  and  CB_78 
REMARK       I    between atoms: C_76  and  N_84 
REMARK   35  A    between atoms: CB_78  and  CG_79 
REMARK   36  A    between atoms: CG_79  and  CD_80 
REMARK   37  A    between atoms: N_84  and  CA_85 
REMARK   38  A    between atoms: CA_85  and  C_86 
REMARK   39  A    between atoms: CA_85  and  CB_88 
REMARK       I    between atoms: C_86  and  N_96 
REMARK   40  A    between atoms: CB_88  and  CG_89 
REMARK   41  A    between atoms: N_96  and  CA_97 
REMARK   42  A    between atoms: CA_97  and  C_98 
REMARK       I    between atoms: C_98  and  N_101 
REMARK   43  A    between atoms: N_101  and  CA_102 
REMARK   44  A    between atoms: CA_102  and  C_103 
REMARK   45  A    between atoms: CA_102  and  CB_105 
REMARK       I    between atoms: C_103  and  N_113 
REMARK   46  A    between atoms: CB_105  and  CG_106 
REMARK   47  A    between atoms: CG_106  and  CD_107 
REMARK       I    between atoms: CD_107  and  NE2_108 
REMARK   48  A    between atoms: N_113  and  CA_114 
REMARK   49  A    between atoms: CA_114  and  C_115 
REMARK   50  A    between atoms: CA_114  and  CB_117 
REMARK       I    between atoms: C_115  and  N_130 
REMARK   51  A    between atoms: CB_117  and  CG_118 
REMARK   52  A    between atoms: CG_118  and  CD_119 
REMARK   53  A    between atoms: CD_119  and  NE_120 
REMARK       I    between atoms: NE_120  and  CZ_121 
REMARK       I    between atoms: CZ_121  and  NH1_122 
REMARK       I    between atoms: CZ_121  and  NH2_123 
REMARK   54  A    between atoms: N_130  and  CA_131 
REMARK   55  A    between atoms: CA_131  and  C_132 
REMARK   56  A    between atoms: CA_131  and  CB_134 
REMARK       I    between atoms: C_132  and  N_138 
REMARK   57  A    between atoms: N_138  and  CA_139 
REMARK   58  A    between atoms: CA_139  and  C_140 
REMARK   59  A    between atoms: CA_139  and  CB_142 
REMARK       I    between atoms: C_140  and  N_147 
REMARK   60  A    between atoms: CB_142  and  CG_143 
REMARK   61  A    between atoms: CG_143  and  SD_144 
REMARK   62  A    between atoms: N_147  and  CA_148 
REMARK   63  A    between atoms: CA_148  and  C_149 
REMARK   64  A    between atoms: CA_148  and  CB_151 
REMARK   65  A    between atoms: CB_151  and  CG_152 
REMARK   66  A    between atoms: CG_152  and  CD_153 
REMARK   67  A    between atoms: CD_153  and  NE_154 
REMARK       I    between atoms: NE_154  and  CZ_155 
REMARK       I    between atoms: CZ_155  and  NH1_156 
ROOT
ATOM      1  C   GLU d   9    1707.652 513.305-1741.457  0.00  0.00     0.241 C 
ATOM      2  O   GLU d   9    1708.317 514.059-1742.183  0.00  0.00    -0.271 OA
ATOM      3  N   HIS d  10    1707.749 512.030-1741.627  0.00  0.00    -0.346 N 
ATOM      4  H   HIS d  10    1707.218 511.394-1741.049  0.00  0.00     0.163 HD
ENDROOT
BRANCH   1   5
ATOM      5  CA  GLU d   9    1706.734 513.832-1740.382  0.00  0.00     0.177 C 
BRANCH   5   6
ATOM      6  N   GLU d   9    1705.432 513.175-1740.437  0.00  0.00    -0.346 N 
ATOM      7  C   ASP d   8    1704.752 513.225-1741.532  0.00  0.00     0.241 C 
ATOM      8  O   ASP d   8    1705.225 513.830-1742.507  0.00  0.00    -0.271 OA
ATOM      9  H   GLU d   9    1705.068 512.688-1739.630  0.00  0.00     0.163 HD
BRANCH   7  10
ATOM     10  CA  ASP d   8    1703.405 512.545-1741.590  0.00  0.00     0.186 C 
BRANCH  10  11
ATOM     11  N   ASP d   8    1703.476 511.196-1741.036  0.00  0.00    -0.346 N 
ATOM     12  C   LEU d   7    1704.313 510.355-1741.543  0.00  0.00     0.241 C 
ATOM     13  O   LEU d   7    1705.033 510.718-1742.485  0.00  0.00    -0.271 OA
ATOM     14  H   ASP d   8    1702.878 510.925-1740.269  0.00  0.00     0.163 HD
BRANCH  12  15
ATOM     15  CA  LEU d   7    1704.385 508.960-1740.970  0.00  0.00     0.177 C 
BRANCH  15  16
ATOM     16  N   LEU d   7    1704.440 508.996-1739.512  0.00  0.00    -0.346 N 
ATOM     17  C   ILE d   6    1705.386 509.659-1738.938  0.00  0.00     0.241 C 
ATOM     18  O   ILE d   6    1706.221 510.247-1739.642  0.00  0.00    -0.271 OA
ATOM     19  H   LEU d   7    1703.748 508.508-1738.960  0.00  0.00     0.163 HD
BRANCH  17  20
ATOM     20  CA  ILE d   6    1705.444 509.697-1737.431  0.00  0.00     0.180 C 
BRANCH  20  21
ATOM     21  N   ILE d   6    1704.130 509.991-1736.864  0.00  0.00    -0.346 N 
ATOM     22  C   SER d   5    1703.526 511.074-1737.218  0.00  0.00     0.243 C 
ATOM     23  O   SER d   5    1704.073 511.828-1738.023  0.00  0.00    -0.271 OA
ATOM     24  H   ILE d   6    1703.702 509.357-1736.205  0.00  0.00     0.163 HD
BRANCH  22  25
ATOM     25  CA  SER d   5    1702.167 511.380-1736.632  0.00  0.00     0.200 C 
BRANCH  25  26
ATOM     26  N   SER d   5    1701.297 510.208-1736.691  0.00  0.00    -0.344 N 
ATOM     27  C   GLU d   4    1701.070 509.656-1737.834  0.00  0.00     0.241 C 
ATOM     28  O   GLU d   4    1701.596 510.135-1738.848  0.00  0.00    -0.271 OA
ATOM     29  H   SER d   5    1700.881 509.837-1735.849  0.00  0.00     0.163 HD
BRANCH  27  30
ATOM     30  CA  GLU d   4    1700.171 508.444-1737.895  0.00  0.00     0.177 C 
BRANCH  30  31
ATOM     31  N   GLU d   4    1700.531 507.473-1736.865  0.00  0.00    -0.346 N 
ATOM     32  C   PRO d   3    1701.736 507.013-1736.833  0.00  0.00     0.241 C 
ATOM     33  O   PRO d   3    1702.559 507.397-1737.665  0.00  0.00    -0.271 OA
ATOM     34  H   GLU d   4    1699.847 507.167-1736.189  0.00  0.00     0.163 HD
BRANCH  32  35
ATOM     35  CA  PRO d   3    1702.134 505.990-1735.756  0.00  0.00     0.179 C 
ATOM     36  N   PRO d   3    1701.682 506.399-1734.435  0.00  0.00    -0.337 N 
ATOM     37  C   ASN d   2    1702.204 507.394-1733.801  0.00  0.00     0.243 C 
ATOM     38  CD  PRO d   3    1700.604 505.606-1733.886  0.00  0.00     0.127 C 
ATOM     39  O   ASN d   2    1703.118 508.025-1734.329  0.00  0.00    -0.271 OA
ATOM     40  CG  PRO d   3    1700.146 504.787-1735.095  0.00  0.00     0.022 C 
ATOM     41  CB  PRO d   3    1701.430 504.635-1735.926  0.00  0.00     0.037 C 
BRANCH  37  42
ATOM     42  CA  ASN d   2    1701.672 507.750-1732.432  0.00  0.00     0.185 C 
BRANCH  42  43
ATOM     43  N   ASN d   2    1700.213 507.788-1732.432  0.00  0.00    -0.346 N 
ATOM     44  C   GLU d   1    1699.609 508.574-1733.257  0.00  0.00     0.242 C 
ATOM     45  O   GLU d   1    1700.284 509.273-1734.026  0.00  0.00    -0.271 OA
ATOM     46  H   ASN d   2    1699.685 507.209-1731.795  0.00  0.00     0.163 HD
BRANCH  44  47
ATOM     47  CA  GLU d   1    1698.099 508.614-1733.257  0.00  0.00     0.191 C 
BRANCH  47  48
ATOM     48  N   GLU d   1    1697.541 507.265-1733.257  0.00  0.00    -0.326 NA
ATOM     49  H   GLU d   1    1698.167 506.386-1733.257  0.00  0.00     0.180 HD
ENDBRANCH  47  48
BRANCH  47  50
ATOM     50  CB  GLU d   1    1697.577 509.399-1732.020  0.00  0.00     0.047 C 
BRANCH  50  51
ATOM     51  CG  GLU d   1    1698.052 510.884-1731.909  0.00  0.00     0.116 C 
BRANCH  51  52
ATOM     52  CD  GLU d   1    1697.628 511.688-1730.694  0.00  0.00     0.172 C 
ATOM     53  OE1 GLU d   1    1696.900 511.186-1729.816  0.00  0.00    -0.648 OA
ATOM     54  OE2 GLU d   1    1698.057 512.858-1730.622  0.00  0.00    -0.648 OA
ENDBRANCH  51  52
ENDBRANCH  50  51
ENDBRANCH  47  50
ENDBRANCH  44  47
ENDBRANCH  42  43
BRANCH  42  55
ATOM     55  CB  ASN d   2    1702.164 506.727-1731.368  0.00  0.00     0.137 C 
BRANCH  55  56
ATOM     56  CG  ASN d   2    1701.702 506.951-1729.924  0.00  0.00     0.217 C 
ATOM     57  ND2 ASN d   2    1702.296 507.866-1729.206  0.00  0.00    -0.370 N 
ATOM     58 21HD ASN d   2    1701.815 508.039-1728.320  0.00  0.00     0.159 HD
ATOM     59 22HD ASN d   2    1702.997 508.437-1729.675  0.00  0.00     0.159 HD
ATOM     60  OD1 ASN d   2    1700.781 506.317-1729.430  0.00  0.00    -0.274 OA
ENDBRANCH  55  56
ENDBRANCH  42  55
ENDBRANCH  37  42
ENDBRANCH  32  35
ENDBRANCH  30  31
BRANCH  30  61
ATOM     61  CB  GLU d   4    1698.682 508.863-1737.724  0.00  0.00     0.045 C 
BRANCH  61  62
ATOM     62  CG  GLU d   4    1698.134 509.867-1738.790  0.00  0.00     0.116 C 
BRANCH  62  63
ATOM     63  CD  GLU d   4    1696.708 510.363-1738.646  0.00  0.00     0.172 C 
ATOM     64  OE1 GLU d   4    1695.982 509.965-1737.715  0.00  0.00    -0.648 OA
ATOM     65  OE2 GLU d   4    1696.318 511.192-1739.494  0.00  0.00    -0.648 OA
ENDBRANCH  62  63
ENDBRANCH  61  62
ENDBRANCH  30  61
ENDBRANCH  27  30
ENDBRANCH  25  26
BRANCH  25  66
ATOM     66  CB  SER d   5    1702.279 511.912-1735.182  0.00  0.00     0.199 C 
BRANCH  66  67
ATOM     67  OG  SER d   5    1703.010 511.032-1734.321  0.00  0.00    -0.398 OA
ATOM     68  HG  SER d   5    1702.522 510.207-1734.270  0.00  0.00     0.209 HD
ENDBRANCH  66  67
ENDBRANCH  25  66
ENDBRANCH  22  25
ENDBRANCH  20  21
BRANCH  20  69
ATOM     69  CB  ILE d   6    1706.043 508.360-1736.831  0.00  0.00     0.013 C 
ATOM     70  CG2 ILE d   6    1707.485 508.059-1737.346  0.00  0.00     0.012 C 
BRANCH  69  71
ATOM     71  CG1 ILE d   6    1706.063 508.298-1735.270  0.00  0.00     0.002 C 
ATOM     72  CD1 ILE d   6    1706.333 506.909-1734.655  0.00  0.00     0.005 C 
ENDBRANCH  69  71
ENDBRANCH  20  69
ENDBRANCH  17  20
ENDBRANCH  15  16
BRANCH  15  73
ATOM     73  CB  LEU d   7    1703.182 508.099-1741.451  0.00  0.00     0.038 C 
BRANCH  73  74
ATOM     74  CG  LEU d   7    1703.109 506.620-1740.984  0.00  0.00    -0.020 C 
ATOM     75  CD1 LEU d   7    1701.920 505.914-1741.650  0.00  0.00     0.009 C 
ATOM     76  CD2 LEU d   7    1704.403 505.841-1741.276  0.00  0.00     0.009 C 
ENDBRANCH  73  74
ENDBRANCH  15  73
ENDBRANCH  12  15
ENDBRANCH  10  11
BRANCH  10  77
ATOM     77  CB  ASP d   8    1702.328 513.384-1740.848  0.00  0.00     0.147 C 
BRANCH  77  78
ATOM     78  CG  ASP d   8    1702.109 514.805-1741.388  0.00  0.00     0.175 C 
ATOM     79  OD1 ASP d   8    1702.173 515.004-1742.619  0.00  0.00    -0.648 OA
ATOM     80  OD2 ASP d   8    1701.917 515.731-1740.573  0.00  0.00    -0.648 OA
ENDBRANCH  77  78
ENDBRANCH  10  77
ENDBRANCH   7  10
ENDBRANCH   5   6
BRANCH   5  81
ATOM     81  CB  GLU d   9    1707.368 513.625-1738.976  0.00  0.00     0.045 C 
BRANCH  81  82
ATOM     82  CG  GLU d   9    1708.750 514.317-1738.747  0.00  0.00     0.116 C 
BRANCH  82  83
ATOM     83  CD  GLU d   9    1709.452 514.104-1737.418  0.00  0.00     0.172 C 
ATOM     84  OE1 GLU d   9    1708.931 513.413-1736.522  0.00  0.00    -0.648 OA
ATOM     85  OE2 GLU d   9    1710.571 514.641-1737.287  0.00  0.00    -0.648 OA
ENDBRANCH  82  83
ENDBRANCH  81  82
ENDBRANCH   5  81
ENDBRANCH   1   5
BRANCH   3  86
ATOM     86  CA  HIS d  10    1708.637 511.518-1742.668  0.00  0.00     0.182 C 
BRANCH  86  87
ATOM     87  C   HIS d  10    1708.270 512.083-1744.019  0.00  0.00     0.241 C 
ATOM     88  O   HIS d  10    1709.122 512.548-1744.790  0.00  0.00    -0.271 OA
ATOM     89  N   GLY d  11    1707.032 512.082-1744.382  0.00  0.00    -0.351 N 
ATOM     90  H   GLY d  11    1706.319 511.709-1743.771  0.00  0.00     0.163 HD
BRANCH  89  91
ATOM     91  CA  GLY d  11    1706.677 512.629-1745.688  0.00  0.00     0.225 C 
BRANCH  91  92
ATOM     92  C   GLY d  11    1707.142 514.059-1745.821  0.00  0.00     0.236 C 
ATOM     93  O   GLY d  11    1707.741 514.462-1746.821  0.00  0.00    -0.272 OA
ATOM     94  N   GLN d  12    1706.905 514.885-1744.859  0.00  0.00    -0.346 N 
ATOM     95  H   GLN d  12    1706.416 514.579-1744.029  0.00  0.00     0.163 HD
BRANCH  94  96
ATOM     96  CA  GLN d  12    1707.354 516.268-1744.986  0.00  0.00     0.177 C 
BRANCH  96  97
ATOM     97  C   GLN d  12    1708.844 516.334-1745.224  0.00  0.00     0.241 C 
ATOM     98  O   GLN d  12    1709.331 517.042-1746.103  0.00  0.00    -0.271 OA
ATOM     99  N   ARG d  13    1709.628 515.628-1744.483  0.00  0.00    -0.346 N 
ATOM    100  H   ARG d  13    1709.252 515.038-1743.755  0.00  0.00     0.163 HD
BRANCH  99 101
ATOM    101  CA  ARG d  13    1711.068 515.693-1744.714  0.00  0.00     0.176 C 
BRANCH 101 102
ATOM    102  C   ARG d  13    1711.404 515.321-1746.139  0.00  0.00     0.241 C 
ATOM    103  O   ARG d  13    1712.173 515.992-1746.823  0.00  0.00    -0.271 OA
ATOM    104  N   VAL d  14    1710.868 514.267-1746.653  0.00  0.00    -0.346 N 
ATOM    105  H   VAL d  14    1710.233 513.698-1746.111  0.00  0.00     0.163 HD
BRANCH 104 106
ATOM    106  CA  VAL d  14    1711.193 513.907-1748.030  0.00  0.00     0.180 C 
BRANCH 106 107
ATOM    107  C   VAL d  14    1710.863 515.037-1748.976  0.00  0.00     0.241 C 
ATOM    108  O   VAL d  14    1711.656 515.418-1749.846  0.00  0.00    -0.271 OA
ATOM    109  N   MET d  15    1709.718 515.623-1748.875  0.00  0.00    -0.346 N 
ATOM    110  H   MET d  15    1709.053 515.330-1748.173  0.00  0.00     0.163 HD
BRANCH 109 111
ATOM    111  CA  MET d  15    1709.398 516.715-1749.788  0.00  0.00     0.177 C 
BRANCH 111 112
ATOM    112  C   MET d  15    1710.428 517.815-1749.701  0.00  0.00     0.241 C 
ATOM    113  O   MET d  15    1710.931 518.325-1750.714  0.00  0.00    -0.271 OA
ATOM    114  N   ARG d  16    1710.797 518.236-1748.539  0.00  0.00    -0.347 N 
ATOM    115  H   ARG d  16    1710.403 517.837-1747.700  0.00  0.00     0.163 HD
BRANCH 114 116
ATOM    116  CA  ARG d  16    1711.794 519.300-1748.456  0.00  0.00     0.162 C 
BRANCH 116 117
ATOM    117  C   ARG d  16    1713.065 518.907-1749.173  0.00  0.00     0.219 C 
ATOM    118  O   ARG d  16    1713.178 517.830-1749.754  0.00  0.00    -0.287 OA
ENDBRANCH 116 117
BRANCH 116 119
ATOM    119  CB  ARG d  16    1712.064 519.618-1746.958  0.00  0.00     0.035 C 
BRANCH 119 120
ATOM    120  CG  ARG d  16    1712.889 520.907-1746.686  0.00  0.00     0.023 C 
BRANCH 120 121
ATOM    121  CD  ARG d  16    1713.140 521.127-1745.185  0.00  0.00     0.138 C 
BRANCH 121 122
ATOM    122  NE  ARG d  16    1713.916 522.385-1744.984  0.00  0.00    -0.227 N 
ATOM    123  CZ  ARG d  16    1714.308 522.868-1743.809  0.00  0.00     0.665 C 
ATOM    124  NH1 ARG d  16    1714.060 522.284-1742.670  0.00  0.00    -0.235 N 
ATOM    125  NH2 ARG d  16    1714.972 523.981-1743.791  0.00  0.00    -0.235 N 
ATOM    126 11HH ARG d  16    1713.534 521.411-1742.754  0.00  0.00     0.174 HD
ATOM    127 12HH ARG d  16    1714.395 522.720-1741.809  0.00  0.00     0.174 HD
ATOM    128 21HH ARG d  16    1715.157 524.423-1744.693  0.00  0.00     0.174 HD
ATOM    129 22HH ARG d  16    1715.263 524.336-1742.879  0.00  0.00     0.174 HD
ATOM    130  HE  ARG d  16    1714.195 522.966-1745.781  0.00  0.00     0.177 HD
ENDBRANCH 121 122
ENDBRANCH 120 121
ENDBRANCH 119 120
ENDBRANCH 116 119
ENDBRANCH 114 116
ENDBRANCH 111 112
BRANCH 111 131
ATOM    131  CB  MET d  15    1707.977 517.261-1749.479  0.00  0.00     0.045 C 
BRANCH 131 132
ATOM    132  CG  MET d  15    1706.814 516.263-1749.671  0.00  0.00     0.076 C 
BRANCH 132 133
ATOM    133  SD  MET d  15    1705.241 517.130-1749.556  0.00  0.00    -0.173 SA
ATOM    134  CE  MET d  15    1704.159 515.700-1749.419  0.00  0.00     0.089 C 
ENDBRANCH 132 133
ENDBRANCH 131 132
ENDBRANCH 111 131
ENDBRANCH 109 111
ENDBRANCH 106 107
BRANCH 106 135
ATOM    135  CB  VAL d  14    1710.420 512.590-1748.437  0.00  0.00     0.009 C 
ATOM    136  CG1 VAL d  14    1710.509 512.171-1749.930  0.00  0.00     0.012 C 
ATOM    137  CG2 VAL d  14    1710.851 511.338-1747.636  0.00  0.00     0.012 C 
ENDBRANCH 106 135
ENDBRANCH 104 106
ENDBRANCH 101 102
BRANCH 101 138
ATOM    138  CB  ARG d  13    1711.782 514.754-1743.700  0.00  0.00     0.036 C 
BRANCH 138 139
ATOM    139  CG  ARG d  13    1713.327 514.907-1743.619  0.00  0.00     0.023 C 
BRANCH 139 140
ATOM    140  CD  ARG d  13    1713.953 513.919-1742.621  0.00  0.00     0.138 C 
BRANCH 140 141
ATOM    141  NE  ARG d  13    1715.431 514.126-1742.571  0.00  0.00    -0.227 N 
ATOM    142  CZ  ARG d  13    1716.279 513.434-1741.816  0.00  0.00     0.665 C 
ATOM    143  NH1 ARG d  13    1715.913 512.470-1741.019  0.00  0.00    -0.235 N 
ATOM    144  NH2 ARG d  13    1717.538 513.733-1741.873  0.00  0.00    -0.235 N 
ATOM    145 11HH ARG d  13    1714.908 512.284-1741.021  0.00  0.00     0.174 HD
ATOM    146 12HH ARG d  13    1716.626 511.987-1740.470  0.00  0.00     0.174 HD
ATOM    147 21HH ARG d  13    1717.806 514.490-1742.504  0.00  0.00     0.174 HD
ATOM    148 22HH ARG d  13    1718.173 513.191-1741.284  0.00  0.00     0.174 HD
ATOM    149  HE  ARG d  13    1715.882 514.848-1743.142  0.00  0.00     0.177 HD
ENDBRANCH 140 141
ENDBRANCH 139 140
ENDBRANCH 138 139
ENDBRANCH 101 138
ENDBRANCH  99 101
ENDBRANCH  96  97
BRANCH  96 150
ATOM    150  CB  GLN d  12    1706.963 517.035-1743.703  0.00  0.00     0.044 C 
BRANCH 150 151
ATOM    151  CG  GLN d  12    1707.324 518.557-1743.673  0.00  0.00     0.105 C 
BRANCH 151 152
ATOM    152  CD  GLN d  12    1707.022 519.371-1742.408  0.00  0.00     0.215 C 
ATOM    153  NE2 GLN d  12    1706.455 518.795-1741.379  0.00  0.00    -0.370 N 
ATOM    154 21HE GLN d  12    1706.348 519.389-1740.556  0.00  0.00     0.159 HD
ATOM    155 22HE GLN d  12    1706.291 517.791-1741.482  0.00  0.00     0.159 HD
ATOM    156  OE1 GLN d  12    1707.324 520.552-1742.331  0.00  0.00    -0.274 OA
ENDBRANCH 151 152
ENDBRANCH 150 151
ENDBRANCH  96 150
ENDBRANCH  94  96
ENDBRANCH  91  92
ENDBRANCH  89  91
ENDBRANCH  86  87
BRANCH  86 157
ATOM    157  CB  HIS d  10    1708.473 509.989-1742.663  0.00  0.00     0.095 C 
BRANCH 157 158
ATOM    158  CG  HIS d  10    1709.758 509.279-1742.355  0.00  0.00     0.053 A 
ATOM    159  CD2 HIS d  10    1710.139 508.943-1741.062  0.00  0.00     0.116 A 
ATOM    160  NE2 HIS d  10    1711.354 508.312-1741.129  0.00  0.00    -0.359 N 
ATOM    161  CE1 HIS d  10    1711.617 508.315-1742.464  0.00  0.00     0.207 A 
ATOM    162  2HE HIS d  10    1711.921 507.934-1740.356  0.00  0.00     0.166 HD
ATOM    163  ND1 HIS d  10    1710.710 508.873-1743.287  0.00  0.00    -0.247 NA
ENDBRANCH 157 158
ENDBRANCH  86 157
ENDBRANCH   3  86
TORSDOF 67
