@<TRIPOS>MOLECULE
14-10
273 276 16              
SMALL
USER_CHARGES
@<TRIPOS>ATOM
1	   N	2242.226	684.627	-2328.689	N.3	1	GLU1	-0.516	
2	  CA	2242.785	685.976	-2328.689	C.3	1	GLU1	0.040	
3	   C	2244.294	685.936	-2328.689	C.2	1	GLU1	0.537	
4	   O	2244.970	686.635	-2329.457	O.2	1	GLU1	-0.582	
5	  CB	2242.262	686.761	-2327.452	C.3	1	GLU1	0.056	
6	  CG	2242.737	688.246	-2327.341	C.3	1	GLU1	0.014	
7	  CD	2242.313	689.050	-2326.126	C.2	1	GLU1	0.805	
8	 OE1	2241.585	688.548	-2325.248	O.co2	1	GLU1	-0.819	
9	 OE2	2242.743	690.220	-2326.054	O.co2	1	GLU1	-0.819	
10	   H	2242.853	683.748	-2328.689	 H	1	GLU1	0.294	
11	  HA	2242.459	686.494	-2329.609	 H	1	GLU1	0.111	
12	 2HB	2242.551	686.230	-2326.522	 H	1	GLU1	-0.017	
13	 3HB	2241.155	686.751	-2327.439	 H	1	GLU1	-0.017	
14	 2HG	2242.427	688.831	-2328.222	 H	1	GLU1	-0.043	
15	 3HG	2243.837	688.313	-2327.312	 H	1	GLU1	-0.043	
16	   N	2244.899	685.150	-2327.864	N.am	2	ASN2	-0.416	
17	  CA	2246.358	685.111	-2327.863	C.3	2	ASN2	0.014	
18	   C	2246.889	684.755	-2329.232	C.2	2	ASN2	0.597	
19	   O	2247.804	685.386	-2329.760	O.2	2	ASN2	-0.568	
20	  CB	2246.850	684.088	-2326.799	C.3	2	ASN2	-0.204	
21	  CG	2246.386	684.312	-2325.356	C.2	2	ASN2	0.713	
22	 ND2	2246.980	685.227	-2324.637	N.pl3	2	ASN2	-0.919	
23	 OD1	2245.465	683.678	-2324.862	O.2	2	ASN2	-0.593	
24	   H	2244.370	684.570	-2327.227	 H	2	ASN2	0.272	
25	  HA	2246.736	686.121	-2327.618	 H	2	ASN2	0.105	
26	 2HB	2247.954	684.029	-2326.802	 H	2	ASN2	0.080	
27	 3HB	2246.521	683.070	-2327.085	 H	2	ASN2	0.080	
28	1HD2	2246.499	685.400	-2323.751	 H	2	ASN2	0.420	
29	2HD2	2247.682	685.798	-2325.106	 H	2	ASN2	0.420	
30	   N	2246.368	683.760	-2329.866	N.am	3	PRO3	-0.255	
31	  CA	2246.820	683.351	-2331.188	C.3	3	PRO3	-0.027	
32	   C	2246.422	684.375	-2332.265	C.2	3	PRO3	0.590	
33	   O	2247.246	684.758	-2333.096	O.2	3	PRO3	-0.575	
34	  CB	2246.116	681.997	-2331.357	C.3	3	PRO3	-0.007	
35	  CG	2244.832	682.149	-2330.527	C.3	3	PRO3	0.019	
36	  CD	2245.290	682.968	-2329.317	C.3	3	PRO3	0.019	
37	  HA	2247.906	683.231	-2331.201	 H	3	PRO3	0.064	
38	 2HB	2246.739	681.215	-2330.916	 H	3	PRO3	0.025	
39	 3HB	2245.918	681.748	-2332.403	 H	3	PRO3	0.025	
40	 2HG	2244.404	681.187	-2330.236	 H	3	PRO3	0.021	
41	 3HG	2244.095	682.720	-2331.095	 H	3	PRO3	0.021	
42	 2HD	2245.678	682.318	-2328.530	 H	3	PRO3	0.039	
43	 3HD	2244.493	683.603	-2328.925	 H	3	PRO3	0.039	
44	   N	2245.218	684.835	-2332.297	N.am	4	GLU4	-0.516	
45	  CA	2244.858	685.806	-2333.327	C.3	4	GLU4	0.040	
46	   C	2245.758	687.017	-2333.266	C.2	4	GLU4	0.537	
47	   O	2246.284	687.496	-2334.280	O.2	4	GLU4	-0.582	
48	  CB	2243.370	686.225	-2333.157	C.3	4	GLU4	0.056	
49	  CG	2242.823	687.229	-2334.223	C.3	4	GLU4	0.014	
50	  CD	2241.396	687.726	-2334.080	C.2	4	GLU4	0.805	
51	 OE1	2240.669	687.328	-2333.150	O.co2	4	GLU4	-0.819	
52	 OE2	2241.007	688.555	-2334.929	O.co2	4	GLU4	-0.819	
53	   H	2244.533	684.529	-2331.621	 H	4	GLU4	0.294	
54	  HA	2244.990	685.336	-2334.318	 H	4	GLU4	0.111	
55	 2HB	2243.217	686.665	-2332.151	 H	4	GLU4	-0.017	
56	 3HB	2242.722	685.327	-2333.164	 H	4	GLU4	-0.017	
57	 2HG	2242.904	686.814	-2335.241	 H	4	GLU4	-0.043	
58	 3HG	2243.411	688.161	-2334.234	 H	4	GLU4	-0.043	
59	   N	2245.985	687.569	-2332.122	N.am	5	SER5	-0.416	
60	  CA	2246.854	688.740	-2332.063	C.3	5	SER5	-0.025	
61	   C	2248.213	688.434	-2332.649	C.2	5	SER5	0.597	
62	   O	2248.761	689.188	-2333.453	O.2	5	SER5	-0.568	
63	  CB	2246.966	689.273	-2330.613	C.3	5	SER5	0.212	
64	  OG	2247.697	688.393	-2329.752	O.3	5	SER5	-0.655	
65	   H	2245.567	687.198	-2331.281	 H	5	SER5	0.272	
66	  HA	2246.406	689.531	-2332.693	 H	5	SER5	0.084	
67	 2HB	2245.966	689.467	-2330.180	 H	5	SER5	0.035	
68	 3HB	2247.471	690.258	-2330.615	 H	5	SER5	0.035	
69	  HG	2247.208	687.568	-2329.701	 H	5	SER5	0.428	
70	   N	2248.818	687.351	-2332.294	N.am	6	ILE6	-0.416	
71	  CA	2250.131	687.056	-2332.860	C.3	6	ILE6	-0.060	
72	   C	2250.074	687.018	-2334.368	C.2	6	ILE6	0.597	
73	   O	2250.908	687.605	-2335.072	O.2	6	ILE6	-0.568	
74	  CB	2250.730	685.719	-2332.260	C.3	6	ILE6	0.130	
75	 CG1	2250.749	685.657	-2330.699	C.3	6	ILE6	-0.043	
76	 CG2	2252.171	685.417	-2332.775	C.3	6	ILE6	-0.320	
77	 CD1	2251.018	684.268	-2330.084	C.3	6	ILE6	-0.066	
78	   H	2248.389	686.717	-2331.636	 H	6	ILE6	0.272	
79	  HA	2250.805	687.890	-2332.593	 H	6	ILE6	0.087	
80	  HB	2250.072	684.893	-2332.604	 H	6	ILE6	0.019	
81	2HG1	2249.767	685.977	-2330.303	 H	6	ILE6	0.024	
82	3HG1	2251.465	686.399	-2330.294	 H	6	ILE6	0.024	
83	1HG2	2252.230	685.323	-2333.873	 H	6	ILE6	0.088	
84	2HG2	2252.894	686.199	-2332.472	 H	6	ILE6	0.088	
85	3HG2	2252.561	684.455	-2332.396	 H	6	ILE6	0.088	
86	1HD1	2250.290	683.514	-2330.439	 H	6	ILE6	0.019	
87	2HD1	2252.029	683.889	-2330.320	 H	6	ILE6	0.019	
88	3HD1	2250.942	684.298	-2328.981	 H	6	ILE6	0.019	
89	   N	2249.128	686.355	-2334.942	N.am	7	LEU7	-0.416	
90	  CA	2249.073	686.319	-2336.400	C.3	7	LEU7	-0.052	
91	   C	2249.001	687.714	-2336.973	C.2	7	LEU7	0.597	
92	   O	2249.722	688.076	-2337.916	O.2	7	LEU7	-0.568	
93	  CB	2247.869	685.459	-2336.881	C.3	7	LEU7	-0.110	
94	  CG	2247.796	683.979	-2336.414	C.3	7	LEU7	0.353	
95	 CD1	2246.606	683.274	-2337.079	C.3	7	LEU7	-0.412	
96	 CD2	2249.090	683.200	-2336.706	C.3	7	LEU7	-0.412	
97	   H	2248.436	685.868	-2334.390	 H	7	LEU7	0.272	
98	  HA	2250.014	685.878	-2336.775	 H	7	LEU7	0.092	
99	 2HB	2247.846	685.475	-2337.988	 H	7	LEU7	0.046	
100	 3HB	2246.930	685.962	-2336.577	 H	7	LEU7	0.046	
101	  HG	2247.626	683.971	-2335.317	 H	7	LEU7	-0.036	
102	1HD1	2245.649	683.783	-2336.857	 H	7	LEU7	0.100	
103	2HD1	2246.705	683.233	-2338.181	 H	7	LEU7	0.100	
104	3HD1	2246.499	682.233	-2336.723	 H	7	LEU7	0.100	
105	1HD2	2249.365	683.230	-2337.775	 H	7	LEU7	0.100	
106	2HD2	2249.943	683.611	-2336.134	 H	7	LEU7	0.100	
107	3HD2	2249.008	682.138	-2336.409	 H	7	LEU7	0.100	
108	   N	2248.164	688.555	-2336.467	N.am	8	ASP8	-0.516	
109	  CA	2248.094	689.904	-2337.021	C.3	8	ASP8	0.038	
110	   C	2249.441	690.583	-2336.965	C.2	8	ASP8	0.537	
111	   O	2249.914	691.188	-2337.940	O.2	8	ASP8	-0.582	
112	  CB	2247.016	690.744	-2336.280	C.3	8	ASP8	-0.030	
113	  CG	2246.798	692.165	-2336.822	C.2	8	ASP8	0.799	
114	 OD1	2246.863	692.363	-2338.052	O.co2	8	ASP8	-0.801	
115	 OD2	2246.607	693.091	-2336.007	O.co2	8	ASP8	-0.801	
116	   H	2247.566	688.285	-2335.699	 H	8	ASP8	0.294	
117	  HA	2247.811	689.826	-2338.088	 H	8	ASP8	0.088	
118	 2HB	2247.274	690.828	-2335.208	 H	8	ASP8	-0.012	
119	 3HB	2246.037	690.240	-2336.313	 H	8	ASP8	-0.012	
120	   N	2250.121	690.534	-2335.869	N.am	9	GLU9	-0.516	
121	  CA	2251.424	691.191	-2335.815	C.3	9	GLU9	0.040	
122	   C	2252.342	690.662	-2336.891	C.2	9	GLU9	0.537	
123	   O	2253.006	691.416	-2337.617	O.2	9	GLU9	-0.582	
124	  CB	2252.058	690.984	-2334.409	C.3	9	GLU9	0.056	
125	  CG	2253.441	691.675	-2334.181	C.3	9	GLU9	0.014	
126	  CD	2254.143	691.462	-2332.852	C.2	9	GLU9	0.805	
127	 OE1	2253.621	690.772	-2331.956	O.co2	9	GLU9	-0.819	
128	 OE2	2255.262	692.000	-2332.721	O.co2	9	GLU9	-0.819	
129	   H	2249.758	690.048	-2335.062	 H	9	GLU9	0.294	
130	  HA	2251.282	692.273	-2335.990	 H	9	GLU9	0.111	
131	 2HB	2252.170	689.899	-2334.206	 H	9	GLU9	-0.017	
132	 3HB	2251.361	691.338	-2333.625	 H	9	GLU9	-0.017	
133	 2HG	2253.369	692.766	-2334.321	 H	9	GLU9	-0.043	
134	 3HG	2254.187	691.330	-2334.915	 H	9	GLU9	-0.043	
135	   N	2252.438	689.387	-2337.059	N.am	10	HIS10	-0.416	
136	  CA	2253.325	688.875	-2338.100	C.3	10	HIS10	-0.058	
137	   C	2252.958	689.439	-2339.451	C.2	10	HIS10	0.597	
138	   O	2253.811	689.903	-2340.223	O.2	10	HIS10	-0.568	
139	  CB	2253.160	687.346	-2338.094	C.3	10	HIS10	-0.007	
140	  CG	2254.446	686.635	-2337.786	C.2	10	HIS10	0.187	
141	 CD2	2254.827	686.301	-2336.494	C.2	10	HIS10	-0.221	
142	 ND1	2255.397	686.228	-2338.719	N.2	10	HIS10	-0.543	
143	 CE1	2256.304	685.670	-2337.896	C.2	10	HIS10	0.163	
144	 NE2	2256.042	685.668	-2336.560	N.pl3	10	HIS10	-0.280	
145	   H	2251.907	688.752	-2336.480	 H	10	HIS10	0.272	
146	  HA	2254.344	689.232	-2337.875	 H	10	HIS10	0.136	
147	 2HB	2252.794	686.979	-2339.074	 H	10	HIS10	0.037	
148	 3HB	2252.405	687.010	-2337.354	 H	10	HIS10	0.037	
149	 2HD	2254.242	686.516	-2335.604	 H	10	HIS10	0.186	
150	 1HE	2257.194	685.249	-2338.343	 H	10	HIS10	0.144	
151	 2HE	2256.608	685.291	-2335.787	 H	10	HIS10	0.334	
152	   N	2251.720	689.438	-2339.814	N.am	11	VAL11	-0.416	
153	  CA	2251.365	689.984	-2341.121	C.3	11	VAL11	-0.087	
154	   C	2251.830	691.414	-2341.254	C.2	11	VAL11	0.597	
155	   O	2252.431	691.818	-2342.258	O.2	11	VAL11	-0.568	
156	  CB	2249.804	689.878	-2341.340	C.3	11	VAL11	0.299	
157	 CG1	2249.235	690.581	-2342.603	C.3	11	VAL11	-0.319	
158	 CG2	2249.279	688.424	-2341.412	C.3	11	VAL11	-0.319	
159	   H	2251.007	689.066	-2339.203	 H	11	VAL11	0.272	
160	  HA	2251.884	689.401	-2341.903	 H	11	VAL11	0.097	
161	  HB	2249.317	690.359	-2340.465	 H	11	VAL11	-0.030	
162	1HG1	2249.674	690.189	-2343.540	 H	11	VAL11	0.079	
163	2HG1	2248.136	690.475	-2342.685	 H	11	VAL11	0.079	
164	3HG1	2249.414	691.674	-2342.594	 H	11	VAL11	0.079	
165	1HG2	2249.568	687.837	-2340.521	 H	11	VAL11	0.079	
166	2HG2	2248.173	688.388	-2341.455	 H	11	VAL11	0.079	
167	3HG2	2249.660	687.882	-2342.298	 H	11	VAL11	0.079	
168	   N	2251.594	692.240	-2340.292	N.am	12	GLN12	-0.416	
169	  CA	2252.043	693.623	-2340.420	C.3	12	GLN12	-0.003	
170	   C	2253.533	693.690	-2340.658	C.2	12	GLN12	0.597	
171	   O	2254.020	694.397	-2341.538	O.2	12	GLN12	-0.568	
172	  CB	2251.653	694.391	-2339.138	C.3	12	GLN12	-0.004	
173	  CG	2252.014	695.913	-2339.108	C.3	12	GLN12	-0.064	
174	  CD	2251.713	696.727	-2337.843	C.2	12	GLN12	0.695	
175	 NE2	2251.146	696.152	-2336.814	N.pl3	12	GLN12	-0.941	
176	 OE1	2252.015	697.908	-2337.766	O.2	12	GLN12	-0.609	
177	   H	2251.105	691.935	-2339.463	 H	12	GLN12	0.272	
178	  HA	2251.544	694.079	-2341.295	 H	12	GLN12	0.085	
179	 2HB	2252.129	693.891	-2338.268	 H	12	GLN12	0.017	
180	 3HB	2250.563	694.285	-2338.974	 H	12	GLN12	0.017	
181	 2HG	2251.537	696.434	-2339.958	 H	12	GLN12	0.035	
182	 3HG	2253.098	696.055	-2339.274	 H	12	GLN12	0.035	
183	1HE2	2251.039	696.747	-2335.991	 H	12	GLN12	0.425	
184	2HE2	2250.981	695.148	-2336.917	 H	12	GLN12	0.425	
185	   N	2254.318	692.983	-2339.917	N.am	13	ARG13	-0.348	
186	  CA	2255.758	693.048	-2340.148	C.3	13	ARG13	-0.264	
187	   C	2256.094	692.675	-2341.573	C.2	13	ARG13	0.734	
188	   O	2256.862	693.347	-2342.258	O.2	13	ARG13	-0.589	
189	  CB	2256.471	692.110	-2339.134	C.3	13	ARG13	-0.001	
190	  CG	2258.016	692.262	-2339.054	C.3	13	ARG13	0.039	
191	  CD	2258.643	691.275	-2338.055	C.3	13	ARG13	0.049	
192	  NE	2260.120	691.482	-2338.005	N.pl3	13	ARG13	-0.530	
193	  CZ	2260.969	690.791	-2337.250	C.cat	13	ARG13	0.808	
194	 NH1	2260.604	689.827	-2336.452	N.pl3	13	ARG13	-0.863	
195	 NH2	2262.228	691.089	-2337.307	N.pl3	13	ARG13	-0.863	
196	   H	2253.941	692.394	-2339.188	 H	13	ARG13	0.275	
197	  HA	2256.083	694.094	-2339.991	 H	13	ARG13	0.156	
198	 2HB	2256.205	691.059	-2339.372	 H	13	ARG13	0.033	
199	 3HB	2256.046	692.277	-2338.124	 H	13	ARG13	0.033	
200	 2HG	2258.265	693.307	-2338.775	 H	13	ARG13	0.029	
201	 3HG	2258.467	692.105	-2340.055	 H	13	ARG13	0.029	
202	 2HD	2258.398	690.235	-2338.364	 H	13	ARG13	0.069	
203	 3HD	2258.187	691.422	-2337.053	 H	13	ARG13	0.069	
204	  HE	2260.572	692.204	-2338.577	 H	13	ARG13	0.346	
205	1HH1	2259.598	689.641	-2336.454	 H	13	ARG13	0.448	
206	2HH1	2261.317	689.344	-2335.903	 H	13	ARG13	0.448	
207	1HH2	2262.496	691.847	-2337.939	 H	13	ARG13	0.448	
208	2HH2	2262.864	690.548	-2336.719	 H	13	ARG13	0.448	
209	   N	2255.557	691.621	-2342.087	N.am	14	TRP14	-0.416	
210	  CA	2255.881	691.260	-2343.464	C.3	14	TRP14	-0.027	
211	   C	2255.551	692.390	-2344.412	C.2	14	TRP14	0.597	
212	   O	2256.341	692.766	-2345.276	O.2	14	TRP14	-0.568	
213	  CB	2255.077	689.991	-2343.860	C.3	14	TRP14	-0.005	
214	  CG	2255.465	688.722	-2343.094	C.2	14	TRP14	-0.141	
215	 CD1	2254.805	688.214	-2341.956	C.2	14	TRP14	-0.164	
216	 CD2	2256.554	687.900	-2343.298	C.2	14	TRP14	0.124	
217	 CE2	2256.541	686.904	-2342.290	C.2	14	TRP14	0.138	
218	 CE3	2257.591	687.935	-2344.265	C.2	14	TRP14	-0.239	
219	 NE1	2255.458	687.078	-2341.441	N.pl3	14	TRP14	-0.342	
220	 CZ2	2257.561	685.929	-2342.248	C.2	14	TRP14	-0.260	
221	 CZ3	2258.583	686.956	-2344.207	C.2	14	TRP14	-0.197	
222	 CH2	2258.568	685.965	-2343.215	C.2	14	TRP14	-0.113	
223	   H	2254.922	691.053	-2341.545	 H	14	TRP14	0.272	
224	  HA	2256.968	691.066	-2343.542	 H	14	TRP14	0.112	
225	 2HB	2255.201	689.780	-2344.939	 H	14	TRP14	0.034	
226	 3HB	2253.991	690.174	-2343.740	 H	14	TRP14	0.034	
227	 1HD	2253.932	688.674	-2341.510	 H	14	TRP14	0.206	
228	 1HE	2255.221	686.534	-2340.604	 H	14	TRP14	0.341	
229	 3HE	2257.615	688.699	-2345.028	 H	14	TRP14	0.170	
230	 2HZ	2257.556	685.168	-2341.481	 H	14	TRP14	0.157	
231	 3HZ	2259.377	686.964	-2344.941	 H	14	TRP14	0.145	
232	 2HH	2259.348	685.218	-2343.198	 H	14	TRP14	0.142	
233	   N	2254.407	692.977	-2344.311	N.am	15	MET15	-0.416	
234	  CA	2254.088	694.068	-2345.227	C.3	15	MET15	-0.024	
235	   C	2255.120	695.167	-2345.141	C.2	15	MET15	0.597	
236	   O	2255.623	695.675	-2346.155	O.2	15	MET15	-0.568	
237	  CB	2252.667	694.616	-2344.920	C.3	15	MET15	0.034	
238	  CG	2251.504	693.618	-2345.111	C.3	15	MET15	0.002	
239	  SD	2249.931	694.487	-2344.999	S.3	15	MET15	-0.274	
240	  CE	2248.849	693.058	-2344.860	C.3	15	MET15	-0.054	
241	   H	2253.741	692.686	-2343.609	 H	15	MET15	0.272	
242	  HA	2254.114	693.679	-2346.262	 H	15	MET15	0.088	
243	 2HB	2252.466	695.493	-2345.564	 H	15	MET15	0.024	
244	 3HB	2252.632	695.010	-2343.885	 H	15	MET15	0.024	
245	 2HG	2251.546	692.834	-2344.331	 H	15	MET15	0.044	
246	 3HG	2251.567	693.101	-2346.086	 H	15	MET15	0.044	
247	 1HE	2248.992	692.368	-2345.711	 H	15	MET15	0.068	
248	 2HE	2249.057	692.507	-2343.926	 H	15	MET15	0.068	
249	 3HE	2247.791	693.375	-2344.844	 H	15	MET15	0.068	
250	   N	2255.489	695.590	-2343.980	N.am	16	ARG16	-0.348	
251	  CA	2256.487	696.653	-2343.898	C.3	16	ARG16	-0.264	
252	   C	2257.757	696.257	-2344.614	C.2	16	ARG16	0.734	
253	   O	2257.869	695.179	-2345.193	O.2	16	ARG16	-0.589	
254	  CB	2256.756	696.974	-2342.401	C.3	16	ARG16	-0.001	
255	  CG	2257.583	698.262	-2342.131	C.3	16	ARG16	0.039	
256	  CD	2257.833	698.484	-2340.630	C.3	16	ARG16	0.049	
257	  NE	2258.610	699.743	-2340.431	N.pl3	16	ARG16	-0.530	
258	  CZ	2259.002	700.227	-2339.257	C.cat	16	ARG16	0.808	
259	 NH1	2258.753	699.646	-2338.117	N.pl3	16	ARG16	-0.863	
260	 NH2	2259.667	701.339	-2339.241	N.pl3	16	ARG16	-0.863	
261	   H	2255.094	695.192	-2343.140	 H	16	ARG16	0.275	
262	  HA	2256.079	697.545	-2344.411	 H	16	ARG16	0.156	
263	 2HB	2257.252	696.098	-2341.932	 H	16	ARG16	0.033	
264	 3HB	2255.787	697.057	-2341.867	 H	16	ARG16	0.033	
265	 2HG	2257.053	699.133	-2342.570	 H	16	ARG16	0.029	
266	 3HG	2258.556	698.207	-2342.659	 H	16	ARG16	0.029	
267	 2HD	2258.380	697.610	-2340.215	 H	16	ARG16	0.069	
268	 3HD	2256.860	698.530	-2340.095	 H	16	ARG16	0.069	
269	  HE	2258.890	700.322	-2341.230	 H	16	ARG16	0.346	
270	1HH1	2258.226	698.773	-2338.200	 H	16	ARG16	0.448	
271	2HH1	2259.088	700.083	-2337.257	 H	16	ARG16	0.448	
272	1HH2	2259.854	701.780	-2340.144	 H	16	ARG16	0.448	
273	2HH2	2259.958	701.696	-2338.329	 H	16	ARG16	0.448	
@<TRIPOS>BOND
1 1 2 1
2 1 10 1
3 2 3 1
4 2 5 1
5 2 11 1
6 3 4 2
7 3 16 1
8 5 6 1
9 6 7 1
10 7 8 2
11 7 9 1
12 5 12 1
13 5 13 1
14 6 14 1
15 6 15 1
16 16 17 1
17 16 24 1
18 17 18 1
19 17 20 1
20 17 25 1
21 18 19 2
22 18 30 1
23 20 21 1
24 21 22 1
25 21 23 2
26 20 26 1
27 20 27 1
28 22 28 1
29 22 29 1
30 30 31 1
31 30 36 1
32 31 32 1
33 31 34 1
34 31 37 1
35 32 33 2
36 32 44 1
37 34 35 1
38 35 36 1
39 34 38 1
40 34 39 1
41 35 40 1
42 35 41 1
43 36 42 1
44 36 43 1
45 44 45 1
46 44 53 1
47 45 46 1
48 45 48 1
49 45 54 1
50 46 47 2
51 46 59 1
52 48 49 1
53 49 50 1
54 50 51 2
55 50 52 1
56 48 55 1
57 48 56 1
58 49 57 1
59 49 58 1
60 59 60 1
61 59 65 1
62 60 61 1
63 60 63 1
64 60 66 1
65 61 62 2
66 61 70 1
67 63 64 1
68 63 67 1
69 63 68 1
70 64 69 1
71 70 71 1
72 70 78 1
73 71 72 1
74 71 74 1
75 71 79 1
76 72 73 2
77 72 89 1
78 74 75 1
79 74 76 1
80 75 77 1
81 74 80 1
82 75 81 1
83 75 82 1
84 76 83 1
85 76 84 1
86 76 85 1
87 77 86 1
88 77 87 1
89 77 88 1
90 89 90 1
91 89 97 1
92 90 91 1
93 90 93 1
94 90 98 1
95 91 92 2
96 91 108 1
97 93 94 1
98 94 95 1
99 94 96 1
100 93 99 1
101 93 100 1
102 94 101 1
103 95 102 1
104 95 103 1
105 95 104 1
106 96 105 1
107 96 106 1
108 96 107 1
109 108 109 1
110 108 116 1
111 109 110 1
112 109 112 1
113 109 117 1
114 110 111 2
115 110 120 1
116 112 113 1
117 113 114 2
118 113 115 1
119 112 118 1
120 112 119 1
121 120 121 1
122 120 129 1
123 121 122 1
124 121 124 1
125 121 130 1
126 122 123 2
127 122 135 1
128 124 125 1
129 125 126 1
130 126 127 2
131 126 128 1
132 124 131 1
133 124 132 1
134 125 133 1
135 125 134 1
136 135 136 1
137 135 145 1
138 136 137 1
139 136 139 1
140 136 146 1
141 137 138 2
142 137 152 1
143 139 140 1
144 140 141 2
145 141 144 1
146 140 142 1
147 142 143 2
148 143 144 1
149 139 147 1
150 139 148 1
151 141 149 1
152 143 150 1
153 144 151 1
154 152 153 1
155 152 159 1
156 153 154 1
157 153 156 1
158 153 160 1
159 154 155 2
160 154 168 1
161 156 157 1
162 156 158 1
163 156 161 1
164 157 162 1
165 157 163 1
166 157 164 1
167 158 165 1
168 158 166 1
169 158 167 1
170 168 169 1
171 168 177 1
172 169 170 1
173 169 172 1
174 169 178 1
175 170 171 2
176 170 185 1
177 172 173 1
178 173 174 1
179 174 175 1
180 174 176 2
181 172 179 1
182 172 180 1
183 173 181 1
184 173 182 1
185 175 183 1
186 175 184 1
187 185 186 1
188 185 196 1
189 186 187 1
190 186 189 1
191 186 197 1
192 187 188 2
193 187 209 1
194 189 190 1
195 190 191 1
196 191 192 1
197 192 193 1
198 193 194 2
199 193 195 1
200 189 198 1
201 189 199 1
202 190 200 1
203 190 201 1
204 191 202 1
205 191 203 1
206 192 204 1
207 194 205 1
208 194 206 1
209 195 207 1
210 195 208 1
211 209 210 1
212 209 223 1
213 210 211 1
214 210 213 1
215 210 224 1
216 211 212 2
217 211 233 1
218 213 214 1
219 214 216 1
220 214 215 2
221 216 218 1
222 216 217 2
223 217 219 1
224 218 221 2
225 215 219 1
226 217 220 1
227 221 222 1
228 220 222 2
229 213 225 1
230 213 226 1
231 215 227 1
232 219 228 1
233 218 229 1
234 220 230 1
235 221 231 1
236 222 232 1
237 233 234 1
238 233 241 1
239 234 235 1
240 234 237 1
241 234 242 1
242 235 236 2
243 235 250 1
244 237 238 1
245 238 239 1
246 239 240 1
247 237 243 1
248 237 244 1
249 238 245 1
250 238 246 1
251 240 247 1
252 240 248 1
253 240 249 1
254 250 251 1
255 250 261 1
256 251 252 1
257 251 254 1
258 251 262 1
259 252 253 2
260 254 255 1
261 255 256 1
262 256 257 1
263 257 258 1
264 258 259 2
265 258 260 1
266 254 263 1
267 254 264 1
268 255 265 1
269 255 266 1
270 256 267 1
271 256 268 1
272 257 269 1
273 259 270 1
274 259 271 1
275 260 272 1
276 260 273 1
@<TRIPOS>SUBSTRUCTURE
1	GLU1	1	RESIDUE	1 ****	GLU
2	ASN2	16	RESIDUE	1 ****	ASN
3	PRO3	30	RESIDUE	1 ****	PRO
4	GLU4	44	RESIDUE	1 ****	GLU
5	SER5	59	RESIDUE	1 ****	SER
6	ILE6	70	RESIDUE	1 ****	ILE
7	LEU7	89	RESIDUE	1 ****	LEU
8	ASP8	108	RESIDUE	1 ****	ASP
9	GLU9	120	RESIDUE	1 ****	GLU
10	HIS10	135	RESIDUE	1 ****	HIS
11	VAL11	152	RESIDUE	1 ****	VAL
12	GLN12	168	RESIDUE	1 ****	GLN
13	ARG13	185	RESIDUE	1 ****	ARG
14	TRP14	209	RESIDUE	1 ****	TRP
15	MET15	233	RESIDUE	1 ****	MET
16	ARG16	250	RESIDUE	1 ****	ARG
