@<TRIPOS>MOLECULE
3-4
267 267 16              
SMALL
USER_CHARGES
@<TRIPOS>ATOM
1	   N	367.110	83.982	-343.750	N.3	1	GLU1	-0.516	
2	  CA	367.669	85.331	-343.750	C.3	1	GLU1	0.040	
3	   C	369.178	85.291	-343.750	C.2	1	GLU1	0.537	
4	   O	369.853	85.990	-344.518	O.2	1	GLU1	-0.582	
5	  CB	367.146	86.116	-342.513	C.3	1	GLU1	0.056	
6	  CG	367.621	87.601	-342.402	C.3	1	GLU1	0.014	
7	  CD	367.197	88.405	-341.187	C.2	1	GLU1	0.805	
8	 OE1	366.469	87.903	-340.309	O.co2	1	GLU1	-0.819	
9	 OE2	367.627	89.575	-341.115	O.co2	1	GLU1	-0.819	
10	   H	367.737	83.103	-343.750	 H	1	GLU1	0.294	
11	  HA	367.343	85.849	-344.670	 H	1	GLU1	0.111	
12	 2HB	367.435	85.585	-341.583	 H	1	GLU1	-0.017	
13	 3HB	366.039	86.106	-342.500	 H	1	GLU1	-0.017	
14	 2HG	367.311	88.186	-343.283	 H	1	GLU1	-0.043	
15	 3HG	368.721	87.668	-342.373	 H	1	GLU1	-0.043	
16	   N	369.782	84.505	-342.925	N.am	2	ASN2	-0.416	
17	  CA	371.242	84.466	-342.925	C.3	2	ASN2	0.014	
18	   C	371.773	84.111	-344.294	C.2	2	ASN2	0.597	
19	   O	372.688	84.741	-344.822	O.2	2	ASN2	-0.568	
20	  CB	371.734	83.443	-341.861	C.3	2	ASN2	-0.204	
21	  CG	371.271	83.667	-340.417	C.2	2	ASN2	0.713	
22	 ND2	371.865	84.582	-339.699	N.pl3	2	ASN2	-0.919	
23	 OD1	370.350	83.033	-339.923	O.2	2	ASN2	-0.593	
24	   H	369.254	83.925	-342.288	 H	2	ASN2	0.272	
25	  HA	371.619	85.476	-342.680	 H	2	ASN2	0.105	
26	 2HB	372.838	83.384	-341.864	 H	2	ASN2	0.080	
27	 3HB	371.405	82.425	-342.146	 H	2	ASN2	0.080	
28	1HD2	371.384	84.755	-338.812	 H	2	ASN2	0.420	
29	2HD2	372.567	85.154	-340.168	 H	2	ASN2	0.420	
30	   N	371.251	83.116	-344.927	N.am	3	VAL3	-0.416	
31	  CA	371.764	82.772	-346.251	C.3	3	VAL3	-0.087	
32	   C	371.670	83.950	-347.190	C.2	3	VAL3	0.597	
33	   O	372.617	84.294	-347.909	O.2	3	VAL3	-0.568	
34	  CB	370.975	81.530	-346.826	C.3	3	VAL3	0.299	
35	 CG1	371.270	81.149	-348.303	C.3	3	VAL3	-0.319	
36	 CG2	371.183	80.226	-346.019	C.3	3	VAL3	-0.319	
37	   H	370.499	82.582	-344.515	 H	3	VAL3	0.272	
38	  HA	372.835	82.514	-346.161	 H	3	VAL3	0.097	
39	  HB	369.893	81.777	-346.774	 H	3	VAL3	-0.030	
40	1HG1	372.335	80.902	-348.472	 H	3	VAL3	0.079	
41	2HG1	370.674	80.279	-348.639	 H	3	VAL3	0.079	
42	3HG1	371.009	81.961	-349.008	 H	3	VAL3	0.079	
43	1HG2	370.935	80.360	-344.950	 H	3	VAL3	0.079	
44	2HG2	370.531	79.408	-346.383	 H	3	VAL3	0.079	
45	3HG2	372.227	79.863	-346.070	 H	3	VAL3	0.079	
46	   N	370.569	84.619	-347.245	N.am	4	GLU4	-0.516	
47	  CA	370.477	85.759	-348.153	C.3	4	GLU4	0.040	
48	   C	371.557	86.772	-347.860	C.2	4	GLU4	0.537	
49	   O	372.251	87.272	-348.758	O.2	4	GLU4	-0.582	
50	  CB	369.071	86.414	-348.034	C.3	4	GLU4	0.056	
51	  CG	368.803	87.623	-348.987	C.3	4	GLU4	0.014	
52	  CD	367.473	88.346	-348.879	C.2	4	GLU4	0.805	
53	 OE1	366.605	87.972	-348.067	O.co2	4	GLU4	-0.819	
54	 OE2	367.311	89.330	-349.630	O.co2	4	GLU4	-0.819	
55	   H	369.781	84.359	-346.668	 H	4	GLU4	0.294	
56	  HA	370.621	85.399	-349.188	 H	4	GLU4	0.111	
57	 2HB	368.900	86.745	-346.990	 H	4	GLU4	-0.017	
58	 3HB	368.285	85.654	-348.212	 H	4	GLU4	-0.017	
59	 2HG	368.911	87.330	-350.044	 H	4	GLU4	-0.043	
60	 3HG	369.538	88.429	-348.827	 H	4	GLU4	-0.043	
61	   N	371.764	87.129	-346.638	N.am	5	SER5	-0.416	
62	  CA	372.809	88.109	-346.355	C.3	5	SER5	-0.025	
63	   C	374.146	87.640	-346.878	C.2	5	SER5	0.597	
64	   O	374.887	88.377	-347.529	O.2	5	SER5	-0.568	
65	  CB	372.869	88.429	-344.840	C.3	5	SER5	0.212	
66	  OG	373.358	87.333	-344.059	O.3	5	SER5	-0.655	
67	   H	371.212	86.737	-345.888	 H	5	SER5	0.272	
68	  HA	372.561	89.039	-346.899	 H	5	SER5	0.084	
69	 2HB	371.880	88.744	-344.458	 H	5	SER5	0.035	
70	 3HB	373.531	89.301	-344.670	 H	5	SER5	0.035	
71	  HG	372.734	86.609	-344.159	 H	5	SER5	0.428	
72	   N	374.524	86.431	-346.635	N.am	6	ILE6	-0.416	
73	  CA	375.817	85.978	-347.140	C.3	6	ILE6	-0.060	
74	   C	375.898	86.138	-348.639	C.2	6	ILE6	0.597	
75	   O	376.883	86.650	-349.192	O.2	6	ILE6	-0.568	
76	  CB	376.123	84.492	-346.689	C.3	6	ILE6	0.130	
77	 CG1	375.983	84.234	-345.155	C.3	6	ILE6	-0.043	
78	 CG2	377.536	84.003	-347.136	C.3	6	ILE6	-0.320	
79	 CD1	375.956	82.754	-344.720	C.3	6	ILE6	-0.066	
80	   H	373.934	85.807	-346.103	 H	6	ILE6	0.272	
81	  HA	376.593	86.638	-346.711	 H	6	ILE6	0.087	
82	  HB	375.372	83.846	-347.191	 H	6	ILE6	0.019	
83	2HG1	375.036	84.673	-344.790	 H	6	ILE6	0.024	
84	3HG1	376.772	84.780	-344.601	 H	6	ILE6	0.024	
85	1HG2	377.682	84.037	-348.230	 H	6	ILE6	0.088	
86	2HG2	378.347	84.600	-346.677	 H	6	ILE6	0.088	
87	3HG2	377.721	82.947	-346.867	 H	6	ILE6	0.088	
88	1HD1	375.149	82.192	-345.228	 H	6	ILE6	0.019	
89	2HD1	376.907	82.232	-344.933	 H	6	ILE6	0.019	
90	3HD1	375.781	82.660	-343.633	 H	6	ILE6	0.019	
91	   N	374.913	85.731	-349.366	N.am	7	LEU7	-0.416	
92	  CA	374.992	85.887	-350.815	C.3	7	LEU7	-0.052	
93	   C	375.210	87.332	-351.192	C.2	7	LEU7	0.597	
94	   O	376.068	87.674	-352.020	O.2	7	LEU7	-0.568	
95	  CB	373.713	85.322	-351.496	C.3	7	LEU7	-0.110	
96	  CG	373.348	83.834	-351.245	C.3	7	LEU7	0.353	
97	 CD1	372.126	83.440	-352.086	C.3	7	LEU7	-0.412	
98	 CD2	374.514	82.877	-351.548	C.3	7	LEU7	-0.412	
99	   H	374.100	85.311	-348.938	 H	7	LEU7	0.272	
100	  HA	375.878	85.335	-351.178	 H	7	LEU7	0.092	
101	 2HB	373.798	85.479	-352.589	 H	7	LEU7	0.046	
102	 3HB	372.846	85.944	-351.193	 H	7	LEU7	0.046	
103	  HG	373.076	83.720	-350.175	 H	7	LEU7	-0.036	
104	1HD1	371.251	84.081	-351.865	 H	7	LEU7	0.100	
105	2HD1	372.321	83.520	-353.172	 H	7	LEU7	0.100	
106	3HD1	371.812	82.399	-351.887	 H	7	LEU7	0.100	
107	1HD2	374.891	82.990	-352.581	 H	7	LEU7	0.100	
108	2HD2	375.366	83.055	-350.865	 H	7	LEU7	0.100	
109	3HD2	374.228	81.818	-351.409	 H	7	LEU7	0.100	
110	   N	374.481	88.240	-350.636	N.am	8	ASP8	-0.516	
111	  CA	374.692	89.638	-351.000	C.3	8	ASP8	0.038	
112	   C	376.122	90.053	-350.752	C.2	8	ASP8	0.537	
113	   O	376.780	90.680	-351.597	O.2	8	ASP8	-0.582	
114	  CB	373.704	90.558	-350.229	C.3	8	ASP8	-0.030	
115	  CG	373.780	92.051	-350.582	C.2	8	ASP8	0.799	
116	 OD1	373.993	92.387	-351.765	O.co2	8	ASP8	-0.801	
117	 OD2	373.669	92.888	-349.662	O.co2	8	ASP8	-0.801	
118	   H	373.776	87.987	-349.959	 H	8	ASP8	0.294	
119	  HA	374.503	89.745	-352.085	 H	8	ASP8	0.088	
120	 2HB	373.868	90.461	-349.140	 H	8	ASP8	-0.012	
121	 3HB	372.662	90.245	-350.402	 H	8	ASP8	-0.012	
122	   N	376.676	89.747	-349.628	N.am	9	GLU9	-0.516	
123	  CA	378.059	90.149	-349.388	C.3	9	GLU9	0.040	
124	   C	378.974	89.603	-350.458	C.2	9	GLU9	0.537	
125	   O	379.821	90.310	-351.021	O.2	9	GLU9	-0.582	
126	  CB	378.512	89.658	-347.983	C.3	9	GLU9	0.056	
127	  CG	379.963	90.058	-347.561	C.3	9	GLU9	0.014	
128	  CD	380.489	89.559	-346.228	C.2	9	GLU9	0.805	
129	 OE1	379.776	88.867	-345.476	O.co2	9	GLU9	-0.819	
130	 OE2	381.665	89.867	-345.942	O.co2	9	GLU9	-0.819	
131	   H	376.161	89.237	-348.925	 H	9	GLU9	0.294	
132	  HA	378.118	91.252	-349.422	 H	9	GLU9	0.111	
133	 2HB	378.421	88.554	-347.925	 H	9	GLU9	-0.017	
134	 3HB	377.813	90.031	-347.210	 H	9	GLU9	-0.017	
135	 2HG	380.089	91.152	-347.553	 H	9	GLU9	-0.043	
136	 3HG	380.708	89.678	-348.280	 H	9	GLU9	-0.043	
137	   N	378.871	88.362	-350.795	N.am	10	HIS10	-0.416	
138	  CA	379.755	87.833	-351.830	C.3	10	HIS10	-0.058	
139	   C	379.619	88.617	-353.112	C.2	10	HIS10	0.597	
140	   O	380.607	89.014	-353.748	O.2	10	HIS10	-0.568	
141	  CB	379.337	86.369	-352.049	C.3	10	HIS10	-0.007	
142	  CG	380.450	85.408	-351.750	C.2	10	HIS10	0.187	
143	 CD2	380.644	84.852	-350.492	C.2	10	HIS10	-0.221	
144	 ND1	381.405	84.957	-352.659	N.2	10	HIS10	-0.543	
145	 CE1	382.122	84.148	-351.857	C.2	10	HIS10	0.163	
146	 NE2	381.736	84.026	-350.558	N.pl3	10	HIS10	-0.280	
147	   H	378.188	87.765	-350.350	 H	10	HIS10	0.272	
148	  HA	380.794	87.971	-351.484	 H	10	HIS10	0.136	
149	 2HB	379.011	86.198	-353.094	 H	10	HIS10	0.037	
150	 3HB	378.469	86.084	-351.419	 H	10	HIS10	0.037	
151	 2HD	380.021	85.057	-349.627	 H	10	HIS10	0.186	
152	 1HE	382.968	83.633	-352.293	 H	10	HIS10	0.144	
153	 2HE	382.155	83.461	-349.806	 H	10	HIS10	0.334	
154	   N	378.439	88.883	-353.560	N.am	11	VAL11	-0.416	
155	  CA	378.307	89.642	-354.801	C.3	11	VAL11	-0.087	
156	   C	379.016	90.971	-354.700	C.2	11	VAL11	0.597	
157	   O	379.769	91.383	-355.591	O.2	11	VAL11	-0.568	
158	  CB	376.778	89.845	-355.145	C.3	11	VAL11	0.299	
159	 CG1	376.459	90.790	-356.336	C.3	11	VAL11	-0.319	
160	 CG2	376.026	88.528	-355.457	C.3	11	VAL11	-0.319	
161	   H	377.619	88.571	-353.061	 H	11	VAL11	0.272	
162	  HA	378.794	89.077	-355.617	 H	11	VAL11	0.097	
163	  HB	376.297	90.292	-354.249	 H	11	VAL11	-0.030	
164	1HG1	376.913	90.446	-357.284	 H	11	VAL11	0.079	
165	2HG1	375.371	90.893	-356.511	 H	11	VAL11	0.079	
166	3HG1	376.817	91.823	-356.162	 H	11	VAL11	0.079	
167	1HG2	376.127	87.793	-354.638	 H	11	VAL11	0.079	
168	2HG2	374.939	88.696	-355.585	 H	11	VAL11	0.079	
169	3HG2	376.395	88.042	-356.380	 H	11	VAL11	0.079	
170	   N	378.830	91.700	-353.652	N.am	12	GLN12	-0.416	
171	  CA	379.514	92.985	-353.553	C.3	12	GLN12	-0.003	
172	   C	381.010	92.814	-353.671	C.2	12	GLN12	0.597	
173	   O	381.691	93.527	-354.405	O.2	12	GLN12	-0.568	
174	  CB	379.137	93.645	-352.208	C.3	12	GLN12	-0.004	
175	  CG	379.743	95.062	-351.939	C.3	12	GLN12	-0.064	
176	  CD	379.463	95.753	-350.599	C.2	12	GLN12	0.695	
177	 NE2	378.711	95.165	-349.704	N.pl3	12	GLN12	-0.941	
178	 OE1	379.950	96.842	-350.337	O.2	12	GLN12	-0.609	
179	   H	378.220	91.386	-352.910	 H	12	GLN12	0.272	
180	  HA	379.185	93.629	-354.390	 H	12	GLN12	0.085	
181	 2HB	379.437	92.964	-351.384	 H	12	GLN12	0.017	
182	 3HB	378.034	93.715	-352.140	 H	12	GLN12	0.017	
183	 2HG	379.444	95.761	-352.742	 H	12	GLN12	0.035	
184	 3HG	380.846	95.027	-352.005	 H	12	GLN12	0.035	
185	1HE2	378.627	95.662	-348.816	 H	12	GLN12	0.425	
186	2HE2	378.392	94.227	-349.957	 H	12	GLN12	0.425	
187	   N	381.591	91.891	-352.980	N.am	13	ARG13	-0.348	
188	  CA	383.037	91.726	-353.095	C.3	13	ARG13	-0.264	
189	   C	383.440	91.480	-354.530	C.2	13	ARG13	0.734	
190	   O	384.373	92.083	-355.057	O.2	13	ARG13	-0.589	
191	  CB	383.483	90.556	-352.172	C.3	13	ARG13	-0.001	
192	  CG	385.016	90.419	-351.959	C.3	13	ARG13	0.039	
193	  CD	385.370	89.219	-351.066	C.3	13	ARG13	0.049	
194	  NE	386.850	89.150	-350.880	N.pl3	13	ARG13	-0.530	
195	  CZ	387.494	88.230	-350.169	C.cat	13	ARG13	0.808	
196	 NH1	386.897	87.255	-349.542	N.pl3	13	ARG13	-0.863	
197	 NH2	388.785	88.303	-350.093	N.pl3	13	ARG13	-0.863	
198	   H	381.053	91.293	-352.370	 H	13	ARG13	0.275	
199	  HA	383.516	92.669	-352.770	 H	13	ARG13	0.156	
200	 2HB	383.068	89.608	-352.574	 H	13	ARG13	0.033	
201	 3HB	382.997	90.670	-351.182	 H	13	ARG13	0.033	
202	 2HG	385.408	91.359	-351.520	 H	13	ARG13	0.029	
203	 3HG	385.528	90.310	-352.938	 H	13	ARG13	0.029	
204	 2HD	384.986	88.286	-351.533	 H	13	ARG13	0.069	
205	 3HD	384.851	89.318	-350.088	 H	13	ARG13	0.069	
206	  HE	387.468	89.845	-351.311	 H	13	ARG13	0.346	
207	1HH1	385.880	87.254	-349.644	 H	13	ARG13	0.448	
208	2HH1	387.464	86.588	-349.016	 H	13	ARG13	0.448	
209	1HH2	389.235	89.073	-350.592	 H	13	ARG13	0.448	
210	2HH2	389.261	87.588	-349.541	 H	13	ARG13	0.448	
211	   N	382.786	90.611	-355.223	N.am	14	VAL14	-0.416	
212	  CA	383.176	90.373	-356.610	C.3	14	VAL14	-0.087	
213	   C	383.132	91.652	-357.411	C.2	14	VAL14	0.597	
214	   O	384.058	91.990	-358.159	O.2	14	VAL14	-0.568	
215	  CB	382.236	89.276	-357.250	C.3	14	VAL14	0.299	
216	 CG1	382.396	89.037	-358.777	C.3	14	VAL14	-0.319	
217	 CG2	382.373	87.878	-356.602	C.3	14	VAL14	-0.319	
218	   H	382.016	90.102	-354.812	 H	14	VAL14	0.272	
219	  HA	384.221	90.015	-356.629	 H	14	VAL14	0.097	
220	  HB	381.188	89.609	-357.091	 H	14	VAL14	-0.030	
221	1HG1	383.419	88.719	-359.051	 H	14	VAL14	0.079	
222	2HG1	381.699	88.265	-359.157	 H	14	VAL14	0.079	
223	3HG1	382.167	89.942	-359.372	 H	14	VAL14	0.079	
224	1HG2	382.210	87.913	-355.510	 H	14	VAL14	0.079	
225	2HG2	381.624	87.165	-356.999	 H	14	VAL14	0.079	
226	3HG2	383.372	87.433	-356.770	 H	14	VAL14	0.079	
227	   N	382.098	92.416	-357.312	N.am	15	MET15	-0.416	
228	  CA	382.054	93.654	-358.086	C.3	15	MET15	-0.024	
229	   C	383.241	94.532	-357.772	C.2	15	MET15	0.597	
230	   O	383.917	95.066	-358.665	O.2	15	MET15	-0.568	
231	  CB	380.722	94.402	-357.807	C.3	15	MET15	0.034	
232	  CG	379.432	93.660	-358.219	C.3	15	MET15	0.002	
233	  SD	378.022	94.773	-358.100	S.3	15	MET15	-0.274	
234	  CE	376.708	93.555	-358.242	C.3	15	MET15	-0.054	
235	   H	381.329	92.163	-356.707	 H	15	MET15	0.272	
236	  HA	382.113	93.400	-359.160	 H	15	MET15	0.088	
237	 2HB	380.732	95.376	-358.334	 H	15	MET15	0.024	
238	 3HB	380.654	94.663	-356.732	 H	15	MET15	0.024	
239	 2HG	379.268	92.789	-357.557	 H	15	MET15	0.044	
240	 3HG	379.500	93.267	-359.250	 H	15	MET15	0.044	
241	 1HE	376.815	92.963	-359.169	 H	15	MET15	0.068	
242	 2HE	376.732	92.862	-357.382	 H	15	MET15	0.068	
243	 3HE	375.722	94.050	-358.258	 H	15	MET15	0.068	
244	   N	383.563	94.732	-356.539	N.am	16	ARG16	-0.348	
245	  CA	384.711	95.582	-356.236	C.3	16	ARG16	-0.264	
246	   C	385.960	95.060	-356.906	C.2	16	ARG16	0.734	
247	   O	385.947	94.061	-357.622	O.2	16	ARG16	-0.589	
248	  CB	384.886	95.658	-354.693	C.3	16	ARG16	-0.001	
249	  CG	385.886	96.734	-354.185	C.3	16	ARG16	0.039	
250	  CD	386.024	96.718	-352.654	C.3	16	ARG16	0.049	
251	  NE	386.978	97.782	-352.224	N.pl3	16	ARG16	-0.530	
252	  CZ	387.331	98.037	-350.968	C.cat	16	ARG16	0.808	
253	 NH1	386.881	97.370	-349.942	N.pl3	16	ARG16	-0.863	
254	 NH2	388.168	99.002	-350.747	N.pl3	16	ARG16	-0.863	
255	   H	383.028	94.309	-355.794	 H	16	ARG16	0.275	
256	  HA	384.509	96.590	-356.646	 H	16	ARG16	0.156	
257	 2HB	385.182	94.656	-354.318	 H	16	ARG16	0.033	
258	 3HB	383.898	95.844	-354.224	 H	16	ARG16	0.033	
259	 2HG	385.554	97.734	-354.534	 H	16	ARG16	0.029	
260	 3HG	386.883	96.574	-354.644	 H	16	ARG16	0.029	
261	 2HD	386.377	95.714	-352.327	 H	16	ARG16	0.069	
262	 3HD	385.026	96.867	-352.189	 H	16	ARG16	0.069	
263	  HE	387.425	98.398	-352.911	 H	16	ARG16	0.346	
264	1HH1	386.227	96.622	-350.185	 H	16	ARG16	0.448	
265	2HH1	387.200	97.628	-349.007	 H	16	ARG16	0.448	
266	1HH2	388.510	99.513	-351.563	 H	16	ARG16	0.448	
267	2HH2	388.425	99.183	-349.776	 H	16	ARG16	0.448	
@<TRIPOS>BOND
1 1 2 1
2 1 10 1
3 2 3 1
4 2 5 1
5 2 11 1
6 3 4 2
7 3 16 1
8 5 6 1
9 6 7 1
10 7 8 2
11 7 9 1
12 5 12 1
13 5 13 1
14 6 14 1
15 6 15 1
16 16 17 1
17 16 24 1
18 17 18 1
19 17 20 1
20 17 25 1
21 18 19 2
22 18 30 1
23 20 21 1
24 21 22 1
25 21 23 2
26 20 26 1
27 20 27 1
28 22 28 1
29 22 29 1
30 30 31 1
31 30 37 1
32 31 32 1
33 31 34 1
34 31 38 1
35 32 33 2
36 32 46 1
37 34 35 1
38 34 36 1
39 34 39 1
40 35 40 1
41 35 41 1
42 35 42 1
43 36 43 1
44 36 44 1
45 36 45 1
46 46 47 1
47 46 55 1
48 47 48 1
49 47 50 1
50 47 56 1
51 48 49 2
52 48 61 1
53 50 51 1
54 51 52 1
55 52 53 2
56 52 54 1
57 50 57 1
58 50 58 1
59 51 59 1
60 51 60 1
61 61 62 1
62 61 67 1
63 62 63 1
64 62 65 1
65 62 68 1
66 63 64 2
67 63 72 1
68 65 66 1
69 65 69 1
70 65 70 1
71 66 71 1
72 72 73 1
73 72 80 1
74 73 74 1
75 73 76 1
76 73 81 1
77 74 75 2
78 74 91 1
79 76 77 1
80 76 78 1
81 77 79 1
82 76 82 1
83 77 83 1
84 77 84 1
85 78 85 1
86 78 86 1
87 78 87 1
88 79 88 1
89 79 89 1
90 79 90 1
91 91 92 1
92 91 99 1
93 92 93 1
94 92 95 1
95 92 100 1
96 93 94 2
97 93 110 1
98 95 96 1
99 96 97 1
100 96 98 1
101 95 101 1
102 95 102 1
103 96 103 1
104 97 104 1
105 97 105 1
106 97 106 1
107 98 107 1
108 98 108 1
109 98 109 1
110 110 111 1
111 110 118 1
112 111 112 1
113 111 114 1
114 111 119 1
115 112 113 2
116 112 122 1
117 114 115 1
118 115 116 2
119 115 117 1
120 114 120 1
121 114 121 1
122 122 123 1
123 122 131 1
124 123 124 1
125 123 126 1
126 123 132 1
127 124 125 2
128 124 137 1
129 126 127 1
130 127 128 1
131 128 129 2
132 128 130 1
133 126 133 1
134 126 134 1
135 127 135 1
136 127 136 1
137 137 138 1
138 137 147 1
139 138 139 1
140 138 141 1
141 138 148 1
142 139 140 2
143 139 154 1
144 141 142 1
145 142 143 2
146 143 146 1
147 142 144 1
148 144 145 2
149 145 146 1
150 141 149 1
151 141 150 1
152 143 151 1
153 145 152 1
154 146 153 1
155 154 155 1
156 154 161 1
157 155 156 1
158 155 158 1
159 155 162 1
160 156 157 2
161 156 170 1
162 158 159 1
163 158 160 1
164 158 163 1
165 159 164 1
166 159 165 1
167 159 166 1
168 160 167 1
169 160 168 1
170 160 169 1
171 170 171 1
172 170 179 1
173 171 172 1
174 171 174 1
175 171 180 1
176 172 173 2
177 172 187 1
178 174 175 1
179 175 176 1
180 176 177 1
181 176 178 2
182 174 181 1
183 174 182 1
184 175 183 1
185 175 184 1
186 177 185 1
187 177 186 1
188 187 188 1
189 187 198 1
190 188 189 1
191 188 191 1
192 188 199 1
193 189 190 2
194 189 211 1
195 191 192 1
196 192 193 1
197 193 194 1
198 194 195 1
199 195 196 2
200 195 197 1
201 191 200 1
202 191 201 1
203 192 202 1
204 192 203 1
205 193 204 1
206 193 205 1
207 194 206 1
208 196 207 1
209 196 208 1
210 197 209 1
211 197 210 1
212 211 212 1
213 211 218 1
214 212 213 1
215 212 215 1
216 212 219 1
217 213 214 2
218 213 227 1
219 215 216 1
220 215 217 1
221 215 220 1
222 216 221 1
223 216 222 1
224 216 223 1
225 217 224 1
226 217 225 1
227 217 226 1
228 227 228 1
229 227 235 1
230 228 229 1
231 228 231 1
232 228 236 1
233 229 230 2
234 229 244 1
235 231 232 1
236 232 233 1
237 233 234 1
238 231 237 1
239 231 238 1
240 232 239 1
241 232 240 1
242 234 241 1
243 234 242 1
244 234 243 1
245 244 245 1
246 244 255 1
247 245 246 1
248 245 248 1
249 245 256 1
250 246 247 2
251 248 249 1
252 249 250 1
253 250 251 1
254 251 252 1
255 252 253 2
256 252 254 1
257 248 257 1
258 248 258 1
259 249 259 1
260 249 260 1
261 250 261 1
262 250 262 1
263 251 263 1
264 253 264 1
265 253 265 1
266 254 266 1
267 254 267 1
@<TRIPOS>SUBSTRUCTURE
1	GLU1	1	RESIDUE	1 ****	GLU
2	ASN2	16	RESIDUE	1 ****	ASN
3	VAL3	30	RESIDUE	1 ****	VAL
4	GLU4	46	RESIDUE	1 ****	GLU
5	SER5	61	RESIDUE	1 ****	SER
6	ILE6	72	RESIDUE	1 ****	ILE
7	LEU7	91	RESIDUE	1 ****	LEU
8	ASP8	110	RESIDUE	1 ****	ASP
9	GLU9	122	RESIDUE	1 ****	GLU
10	HIS10	137	RESIDUE	1 ****	HIS
11	VAL11	154	RESIDUE	1 ****	VAL
12	GLN12	170	RESIDUE	1 ****	GLN
13	ARG13	187	RESIDUE	1 ****	ARG
14	VAL14	211	RESIDUE	1 ****	VAL
15	MET15	227	RESIDUE	1 ****	MET
16	ARG16	244	RESIDUE	1 ****	ARG
