REMARK WARNING: 32 MAX_TORS EXCEEDED!!!
REMARK  67 active torsions:
REMARK  status: ('A' for Active; 'I' for Inactive)
REMARK    1  A    between atoms: N_1  and  CA_2 
REMARK    2  A    between atoms: CA_2  and  C_3 
REMARK    3  A    between atoms: CA_2  and  CB_5 
REMARK       I    between atoms: C_3  and  N_11 
REMARK    4  A    between atoms: CB_5  and  CG_6 
REMARK    5  A    between atoms: CG_6  and  CD_7 
REMARK    6  A    between atoms: N_11  and  CA_12 
REMARK    7  A    between atoms: CA_12  and  C_13 
REMARK    8  A    between atoms: CA_12  and  CB_15 
REMARK       I    between atoms: C_13  and  N_22 
REMARK    9  A    between atoms: CB_15  and  CG_16 
REMARK       I    between atoms: CG_16  and  ND2_17 
REMARK   10  A    between atoms: CA_23  and  C_24 
REMARK       I    between atoms: C_24  and  N_29 
REMARK   11  A    between atoms: N_29  and  CA_30 
REMARK   12  A    between atoms: CA_30  and  C_31 
REMARK   13  A    between atoms: CA_30  and  CB_33 
REMARK       I    between atoms: C_31  and  N_39 
REMARK   14  A    between atoms: CB_33  and  CG_34 
REMARK   15  A    between atoms: CG_34  and  CD_35 
REMARK   16  A    between atoms: N_39  and  CA_40 
REMARK   17  A    between atoms: CA_40  and  C_41 
REMARK   18  A    between atoms: CA_40  and  CB_43 
REMARK       I    between atoms: C_41  and  N_47 
REMARK   19  A    between atoms: CB_43  and  OG_44 
REMARK   20  A    between atoms: N_47  and  CA_48 
REMARK   21  A    between atoms: CA_48  and  C_49 
REMARK   22  A    between atoms: CA_48  and  CB_51 
REMARK       I    between atoms: C_49  and  N_56 
REMARK   23  A    between atoms: CB_51  and  CG1_52 
REMARK   24  A    between atoms: N_56  and  CA_57 
REMARK   25  A    between atoms: CA_57  and  C_58 
REMARK   26  A    between atoms: CA_57  and  CB_60 
REMARK       I    between atoms: C_58  and  N_65 
REMARK   27  A    between atoms: CB_60  and  CG_61 
REMARK   28  A    between atoms: N_65  and  CA_66 
REMARK   29  A    between atoms: CA_66  and  C_67 
REMARK   30  A    between atoms: CA_66  and  CB_69 
REMARK       I    between atoms: C_67  and  N_74 
REMARK   31  A    between atoms: CB_69  and  CG_70 
REMARK   32  A    between atoms: N_74  and  CA_75 
REMARK   33  A    between atoms: CA_75  and  C_76 
REMARK   34  A    between atoms: CA_75  and  CB_78 
REMARK       I    between atoms: C_76  and  N_84 
REMARK   35  A    between atoms: CB_78  and  CG_79 
REMARK   36  A    between atoms: CG_79  and  CD_80 
REMARK   37  A    between atoms: N_84  and  CA_85 
REMARK   38  A    between atoms: CA_85  and  C_86 
REMARK   39  A    between atoms: CA_85  and  CB_88 
REMARK       I    between atoms: C_86  and  N_96 
REMARK   40  A    between atoms: CB_88  and  CG_89 
REMARK   41  A    between atoms: N_96  and  CA_97 
REMARK   42  A    between atoms: CA_97  and  C_98 
REMARK   43  A    between atoms: CA_97  and  CB_100 
REMARK       I    between atoms: C_98  and  N_104 
REMARK   44  A    between atoms: N_104  and  CA_105 
REMARK   45  A    between atoms: CA_105  and  C_106 
REMARK   46  A    between atoms: CA_105  and  CB_108 
REMARK       I    between atoms: C_106  and  N_115 
REMARK   47  A    between atoms: CB_108  and  CG_109 
REMARK       I    between atoms: CG_109  and  ND2_110 
REMARK   48  A    between atoms: N_115  and  CA_116 
REMARK   49  A    between atoms: CA_116  and  C_117 
REMARK   50  A    between atoms: CA_116  and  CB_119 
REMARK       I    between atoms: C_117  and  N_132 
REMARK   51  A    between atoms: CB_119  and  CG_120 
REMARK   52  A    between atoms: CG_120  and  CD_121 
REMARK   53  A    between atoms: CD_121  and  NE_122 
REMARK       I    between atoms: NE_122  and  CZ_123 
REMARK       I    between atoms: CZ_123  and  NH1_124 
REMARK       I    between atoms: CZ_123  and  NH2_125 
REMARK   54  A    between atoms: N_132  and  CA_133 
REMARK   55  A    between atoms: CA_133  and  C_134 
REMARK   56  A    between atoms: CA_133  and  CB_136 
REMARK       I    between atoms: C_134  and  N_140 
REMARK   57  A    between atoms: N_140  and  CA_141 
REMARK   58  A    between atoms: CA_141  and  C_142 
REMARK   59  A    between atoms: CA_141  and  CB_144 
REMARK       I    between atoms: C_142  and  N_149 
REMARK   60  A    between atoms: CB_144  and  CG_145 
REMARK   61  A    between atoms: CG_145  and  SD_146 
REMARK   62  A    between atoms: N_149  and  CA_150 
REMARK   63  A    between atoms: CA_150  and  C_151 
REMARK   64  A    between atoms: CA_150  and  CB_153 
REMARK   65  A    between atoms: CB_153  and  CG_154 
REMARK   66  A    between atoms: CG_154  and  CD_155 
REMARK   67  A    between atoms: CD_155  and  NE_156 
REMARK       I    between atoms: NE_156  and  CZ_157 
REMARK       I    between atoms: CZ_157  and  NH1_158 
ROOT
ATOM      1  C   GLU d   9    1970.514 597.734-2026.454  0.00  0.00     0.241 C 
ATOM      2  O   GLU d   9    1971.177 598.489-2027.179  0.00  0.00    -0.271 OA
ATOM      3  N   HIS d  10    1970.611 596.459-2026.624  0.00  0.00    -0.346 N 
ATOM      4  H   HIS d  10    1970.080 595.823-2026.045  0.00  0.00     0.163 HD
ENDROOT
BRANCH   1   5
ATOM      5  CA  GLU d   9    1969.595 598.261-2025.378  0.00  0.00     0.177 C 
BRANCH   5   6
ATOM      6  N   GLU d   9    1968.293 597.603-2025.433  0.00  0.00    -0.346 N 
ATOM      7  C   ASP d   8    1967.613 597.653-2026.529  0.00  0.00     0.241 C 
ATOM      8  O   ASP d   8    1968.085 598.258-2027.503  0.00  0.00    -0.271 OA
ATOM      9  H   GLU d   9    1967.929 597.116-2024.627  0.00  0.00     0.163 HD
BRANCH   7  10
ATOM     10  CA  ASP d   8    1966.266 596.973-2026.586  0.00  0.00     0.186 C 
BRANCH  10  11
ATOM     11  N   ASP d   8    1966.337 595.623-2026.033  0.00  0.00    -0.346 N 
ATOM     12  C   LEU d   7    1967.175 594.783-2026.539  0.00  0.00     0.241 C 
ATOM     13  O   LEU d   7    1967.895 595.146-2027.481  0.00  0.00    -0.271 OA
ATOM     14  H   ASP d   8    1965.739 595.352-2025.266  0.00  0.00     0.163 HD
BRANCH  12  15
ATOM     15  CA  LEU d   7    1967.247 593.388-2025.967  0.00  0.00     0.177 C 
BRANCH  15  16
ATOM     16  N   LEU d   7    1967.302 593.424-2024.508  0.00  0.00    -0.346 N 
ATOM     17  C   ILE d   6    1968.248 594.087-2023.934  0.00  0.00     0.241 C 
ATOM     18  O   ILE d   6    1969.083 594.675-2024.638  0.00  0.00    -0.271 OA
ATOM     19  H   LEU d   7    1966.610 592.937-2023.957  0.00  0.00     0.163 HD
BRANCH  17  20
ATOM     20  CA  ILE d   6    1968.305 594.125-2022.427  0.00  0.00     0.180 C 
BRANCH  20  21
ATOM     21  N   ILE d   6    1966.992 594.420-2021.860  0.00  0.00    -0.346 N 
ATOM     22  C   SER d   5    1966.387 595.503-2022.215  0.00  0.00     0.243 C 
ATOM     23  O   SER d   5    1966.934 596.256-2023.020  0.00  0.00    -0.271 OA
ATOM     24  H   ILE d   6    1966.564 593.785-2021.201  0.00  0.00     0.163 HD
BRANCH  22  25
ATOM     25  CA  SER d   5    1965.028 595.808-2021.629  0.00  0.00     0.200 C 
BRANCH  25  26
ATOM     26  N   SER d   5    1964.159 594.637-2021.688  0.00  0.00    -0.344 N 
ATOM     27  C   GLU d   4    1963.931 594.084-2022.831  0.00  0.00     0.241 C 
ATOM     28  O   GLU d   4    1964.458 594.564-2023.845  0.00  0.00    -0.271 OA
ATOM     29  H   SER d   5    1963.742 594.265-2020.846  0.00  0.00     0.163 HD
BRANCH  27  30
ATOM     30  CA  GLU d   4    1963.032 592.873-2022.892  0.00  0.00     0.177 C 
BRANCH  30  31
ATOM     31  N   GLU d   4    1963.392 591.902-2021.862  0.00  0.00    -0.346 N 
ATOM     32  C   PRO d   3    1964.597 591.442-2021.830  0.00  0.00     0.241 C 
ATOM     33  O   PRO d   3    1965.420 591.825-2022.661  0.00  0.00    -0.271 OA
ATOM     34  H   GLU d   4    1962.708 591.595-2021.186  0.00  0.00     0.163 HD
BRANCH  32  35
ATOM     35  CA  PRO d   3    1964.995 590.419-2020.753  0.00  0.00     0.179 C 
ATOM     36  N   PRO d   3    1964.543 590.828-2019.432  0.00  0.00    -0.337 N 
ATOM     37  C   ASN d   2    1965.065 591.823-2018.797  0.00  0.00     0.243 C 
ATOM     38  CD  PRO d   3    1963.465 590.035-2018.882  0.00  0.00     0.127 C 
ATOM     39  O   ASN d   2    1965.979 592.453-2019.326  0.00  0.00    -0.271 OA
ATOM     40  CG  PRO d   3    1963.007 589.216-2020.092  0.00  0.00     0.022 C 
ATOM     41  CB  PRO d   3    1964.291 589.064-2020.922  0.00  0.00     0.037 C 
BRANCH  37  42
ATOM     42  CA  ASN d   2    1964.533 592.179-2017.429  0.00  0.00     0.185 C 
BRANCH  42  43
ATOM     43  N   ASN d   2    1963.074 592.217-2017.429  0.00  0.00    -0.346 N 
ATOM     44  C   GLU d   1    1962.469 593.003-2018.254  0.00  0.00     0.242 C 
ATOM     45  O   GLU d   1    1963.145 593.702-2019.023  0.00  0.00    -0.271 OA
ATOM     46  H   ASN d   2    1962.546 591.638-2016.792  0.00  0.00     0.163 HD
BRANCH  44  47
ATOM     47  CA  GLU d   1    1960.960 593.043-2018.254  0.00  0.00     0.191 C 
BRANCH  47  48
ATOM     48  N   GLU d   1    1960.401 591.694-2018.254  0.00  0.00    -0.326 NA
ATOM     49  H   GLU d   1    1961.028 590.815-2018.254  0.00  0.00     0.180 HD
ENDBRANCH  47  48
BRANCH  47  50
ATOM     50  CB  GLU d   1    1960.438 593.828-2017.017  0.00  0.00     0.047 C 
BRANCH  50  51
ATOM     51  CG  GLU d   1    1960.912 595.313-2016.906  0.00  0.00     0.116 C 
BRANCH  51  52
ATOM     52  CD  GLU d   1    1960.489 596.117-2015.691  0.00  0.00     0.172 C 
ATOM     53  OE1 GLU d   1    1959.760 595.615-2014.813  0.00  0.00    -0.648 OA
ATOM     54  OE2 GLU d   1    1960.918 597.287-2015.619  0.00  0.00    -0.648 OA
ENDBRANCH  51  52
ENDBRANCH  50  51
ENDBRANCH  47  50
ENDBRANCH  44  47
ENDBRANCH  42  43
BRANCH  42  55
ATOM     55  CB  ASN d   2    1965.025 591.156-2016.365  0.00  0.00     0.137 C 
BRANCH  55  56
ATOM     56  CG  ASN d   2    1964.562 591.380-2014.921  0.00  0.00     0.217 C 
ATOM     57  ND2 ASN d   2    1965.156 592.294-2014.203  0.00  0.00    -0.370 N 
ATOM     58 21HD ASN d   2    1964.676 592.467-2013.316  0.00  0.00     0.159 HD
ATOM     59 22HD ASN d   2    1965.858 592.866-2014.672  0.00  0.00     0.159 HD
ATOM     60  OD1 ASN d   2    1963.641 590.746-2014.427  0.00  0.00    -0.274 OA
ENDBRANCH  55  56
ENDBRANCH  42  55
ENDBRANCH  37  42
ENDBRANCH  32  35
ENDBRANCH  30  31
BRANCH  30  61
ATOM     61  CB  GLU d   4    1961.544 593.292-2022.722  0.00  0.00     0.045 C 
BRANCH  61  62
ATOM     62  CG  GLU d   4    1960.996 594.296-2023.787  0.00  0.00     0.116 C 
BRANCH  62  63
ATOM     63  CD  GLU d   4    1959.569 594.793-2023.644  0.00  0.00     0.172 C 
ATOM     64  OE1 GLU d   4    1958.843 594.394-2022.713  0.00  0.00    -0.648 OA
ATOM     65  OE2 GLU d   4    1959.180 595.622-2024.492  0.00  0.00    -0.648 OA
ENDBRANCH  62  63
ENDBRANCH  61  62
ENDBRANCH  30  61
ENDBRANCH  27  30
ENDBRANCH  25  26
BRANCH  25  66
ATOM     66  CB  SER d   5    1965.140 596.341-2020.179  0.00  0.00     0.199 C 
BRANCH  66  67
ATOM     67  OG  SER d   5    1965.871 595.461-2019.318  0.00  0.00    -0.398 OA
ATOM     68  HG  SER d   5    1965.383 594.636-2019.267  0.00  0.00     0.209 HD
ENDBRANCH  66  67
ENDBRANCH  25  66
ENDBRANCH  22  25
ENDBRANCH  20  21
BRANCH  20  69
ATOM     69  CB  ILE d   6    1968.905 592.789-2021.827  0.00  0.00     0.013 C 
ATOM     70  CG2 ILE d   6    1970.346 592.487-2022.342  0.00  0.00     0.012 C 
BRANCH  69  71
ATOM     71  CG1 ILE d   6    1968.925 592.727-2020.266  0.00  0.00     0.002 C 
ATOM     72  CD1 ILE d   6    1969.194 591.338-2019.651  0.00  0.00     0.005 C 
ENDBRANCH  69  71
ENDBRANCH  20  69
ENDBRANCH  17  20
ENDBRANCH  15  16
BRANCH  15  73
ATOM     73  CB  LEU d   7    1966.044 592.527-2026.447  0.00  0.00     0.038 C 
BRANCH  73  74
ATOM     74  CG  LEU d   7    1965.972 591.048-2025.981  0.00  0.00    -0.020 C 
ATOM     75  CD1 LEU d   7    1964.782 590.342-2026.646  0.00  0.00     0.009 C 
ATOM     76  CD2 LEU d   7    1967.266 590.269-2026.272  0.00  0.00     0.009 C 
ENDBRANCH  73  74
ENDBRANCH  15  73
ENDBRANCH  12  15
ENDBRANCH  10  11
BRANCH  10  77
ATOM     77  CB  ASP d   8    1965.188 597.812-2025.844  0.00  0.00     0.147 C 
BRANCH  77  78
ATOM     78  CG  ASP d   8    1964.969 599.232-2026.385  0.00  0.00     0.175 C 
ATOM     79  OD1 ASP d   8    1965.033 599.432-2027.615  0.00  0.00    -0.648 OA
ATOM     80  OD2 ASP d   8    1964.777 600.158-2025.569  0.00  0.00    -0.648 OA
ENDBRANCH  77  78
ENDBRANCH  10  77
ENDBRANCH   7  10
ENDBRANCH   5   6
BRANCH   5  81
ATOM     81  CB  GLU d   9    1970.229 598.053-2023.972  0.00  0.00     0.045 C 
BRANCH  81  82
ATOM     82  CG  GLU d   9    1971.611 598.746-2023.743  0.00  0.00     0.116 C 
BRANCH  82  83
ATOM     83  CD  GLU d   9    1972.313 598.533-2022.414  0.00  0.00     0.172 C 
ATOM     84  OE1 GLU d   9    1971.791 597.841-2021.518  0.00  0.00    -0.648 OA
ATOM     85  OE2 GLU d   9    1973.432 599.071-2022.282  0.00  0.00    -0.648 OA
ENDBRANCH  82  83
ENDBRANCH  81  82
ENDBRANCH   5  81
ENDBRANCH   1   5
BRANCH   3  86
ATOM     86  CA  HIS d  10    1971.499 595.948-2027.664  0.00  0.00     0.182 C 
BRANCH  86  87
ATOM     87  C   HIS d  10    1971.132 596.513-2029.015  0.00  0.00     0.241 C 
ATOM     88  O   HIS d  10    1971.984 596.979-2029.786  0.00  0.00    -0.271 OA
ATOM     89  N   VAL d  11    1969.894 596.512-2029.378  0.00  0.00    -0.346 N 
ATOM     90  H   VAL d  11    1969.181 596.138-2028.768  0.00  0.00     0.163 HD
BRANCH  89  91
ATOM     91  CA  VAL d  11    1969.539 597.058-2030.685  0.00  0.00     0.180 C 
BRANCH  91  92
ATOM     92  C   VAL d  11    1970.003 598.489-2030.817  0.00  0.00     0.241 C 
ATOM     93  O   VAL d  11    1970.604 598.895-2031.819  0.00  0.00    -0.271 OA
ATOM     94  N   ASN d  12    1969.765 599.314-2029.854  0.00  0.00    -0.346 N 
ATOM     95  H   ASN d  12    1969.276 599.008-2029.025  0.00  0.00     0.163 HD
BRANCH  94  96
ATOM     96  CA  ASN d  12    1970.213 600.698-2029.981  0.00  0.00     0.185 C 
BRANCH  96  97
ATOM     97  C   ASN d  12    1971.704 600.763-2030.219  0.00  0.00     0.241 C 
ATOM     98  O   ASN d  12    1972.193 601.471-2031.098  0.00  0.00    -0.271 OA
ATOM     99  N   ARG d  13    1972.487 600.056-2029.477  0.00  0.00    -0.346 N 
ATOM    100  H   ARG d  13    1972.109 599.466-2028.749  0.00  0.00     0.163 HD
BRANCH  99 101
ATOM    101  CA  ARG d  13    1973.927 600.119-2029.707  0.00  0.00     0.176 C 
BRANCH 101 102
ATOM    102  C   ARG d  13    1974.264 599.747-2031.132  0.00  0.00     0.241 C 
ATOM    103  O   ARG d  13    1975.034 600.417-2031.816  0.00  0.00    -0.271 OA
ATOM    104  N   VAL d  14    1973.726 598.693-2031.646  0.00  0.00    -0.346 N 
ATOM    105  H   VAL d  14    1973.090 598.126-2031.104  0.00  0.00     0.163 HD
BRANCH 104 106
ATOM    106  CA  VAL d  14    1974.051 598.333-2033.023  0.00  0.00     0.180 C 
BRANCH 106 107
ATOM    107  C   VAL d  14    1973.724 599.463-2033.970  0.00  0.00     0.241 C 
ATOM    108  O   VAL d  14    1974.518 599.843-2034.839  0.00  0.00    -0.271 OA
ATOM    109  N   MET d  15    1972.580 600.051-2033.869  0.00  0.00    -0.346 N 
ATOM    110  H   MET d  15    1971.914 599.759-2033.168  0.00  0.00     0.163 HD
BRANCH 109 111
ATOM    111  CA  MET d  15    1972.261 601.144-2034.783  0.00  0.00     0.177 C 
BRANCH 111 112
ATOM    112  C   MET d  15    1973.293 602.242-2034.695  0.00  0.00     0.241 C 
ATOM    113  O   MET d  15    1973.797 602.751-2035.708  0.00  0.00    -0.271 OA
ATOM    114  N   ARG d  16    1973.662 602.663-2033.533  0.00  0.00    -0.347 N 
ATOM    115  H   ARG d  16    1973.266 602.264-2032.694  0.00  0.00     0.163 HD
BRANCH 114 116
ATOM    116  CA  ARG d  16    1974.660 603.725-2033.449  0.00  0.00     0.162 C 
BRANCH 116 117
ATOM    117  C   ARG d  16    1975.930 603.331-2034.164  0.00  0.00     0.219 C 
ATOM    118  O   ARG d  16    1976.043 602.254-2034.745  0.00  0.00    -0.287 OA
ENDBRANCH 116 117
BRANCH 116 119
ATOM    119  CB  ARG d  16    1974.928 604.044-2031.951  0.00  0.00     0.035 C 
BRANCH 119 120
ATOM    120  CG  ARG d  16    1975.755 605.332-2031.678  0.00  0.00     0.023 C 
BRANCH 120 121
ATOM    121  CD  ARG d  16    1976.004 605.551-2030.177  0.00  0.00     0.138 C 
BRANCH 121 122
ATOM    122  NE  ARG d  16    1976.781 606.810-2029.975  0.00  0.00    -0.227 N 
ATOM    123  CZ  ARG d  16    1977.172 607.292-2028.800  0.00  0.00     0.665 C 
ATOM    124  NH1 ARG d  16    1976.923 606.708-2027.661  0.00  0.00    -0.235 N 
ATOM    125  NH2 ARG d  16    1977.838 608.403-2028.781  0.00  0.00    -0.235 N 
ATOM    126 11HH ARG d  16    1976.396 605.836-2027.746  0.00  0.00     0.174 HD
ATOM    127 12HH ARG d  16    1977.257 607.144-2026.800  0.00  0.00     0.174 HD
ATOM    128 21HH ARG d  16    1978.025 608.846-2029.683  0.00  0.00     0.174 HD
ATOM    129 22HH ARG d  16    1978.128 608.758-2027.869  0.00  0.00     0.174 HD
ATOM    130  HE  ARG d  16    1977.061 607.390-2030.773  0.00  0.00     0.177 HD
ENDBRANCH 121 122
ENDBRANCH 120 121
ENDBRANCH 119 120
ENDBRANCH 116 119
ENDBRANCH 114 116
ENDBRANCH 111 112
BRANCH 111 131
ATOM    131  CB  MET d  15    1970.841 601.691-2034.476  0.00  0.00     0.045 C 
BRANCH 131 132
ATOM    132  CG  MET d  15    1969.677 600.695-2034.667  0.00  0.00     0.076 C 
BRANCH 132 133
ATOM    133  SD  MET d  15    1968.104 601.563-2034.555  0.00  0.00    -0.173 SA
ATOM    134  CE  MET d  15    1967.021 600.135-2034.418  0.00  0.00     0.089 C 
ENDBRANCH 132 133
ENDBRANCH 131 132
ENDBRANCH 111 131
ENDBRANCH 109 111
ENDBRANCH 106 107
BRANCH 106 135
ATOM    135  CB  VAL d  14    1973.277 597.017-2033.430  0.00  0.00     0.009 C 
ATOM    136  CG1 VAL d  14    1973.366 596.598-2034.924  0.00  0.00     0.012 C 
ATOM    137  CG2 VAL d  14    1973.707 595.764-2032.629  0.00  0.00     0.012 C 
ENDBRANCH 106 135
ENDBRANCH 104 106
ENDBRANCH 101 102
BRANCH 101 138
ATOM    138  CB  ARG d  13    1974.639 599.180-2028.693  0.00  0.00     0.036 C 
BRANCH 138 139
ATOM    139  CG  ARG d  13    1976.184 599.331-2028.611  0.00  0.00     0.023 C 
BRANCH 139 140
ATOM    140  CD  ARG d  13    1976.809 598.342-2027.612  0.00  0.00     0.138 C 
BRANCH 140 141
ATOM    141  NE  ARG d  13    1978.286 598.547-2027.561  0.00  0.00    -0.227 N 
ATOM    142  CZ  ARG d  13    1979.133 597.855-2026.805  0.00  0.00     0.665 C 
ATOM    143  NH1 ARG d  13    1978.766 596.891-2026.008  0.00  0.00    -0.235 N 
ATOM    144  NH2 ARG d  13    1980.393 598.152-2026.861  0.00  0.00    -0.235 N 
ATOM    145 11HH ARG d  13    1977.760 596.706-2026.012  0.00  0.00     0.174 HD
ATOM    146 12HH ARG d  13    1979.478 596.407-2025.458  0.00  0.00     0.174 HD
ATOM    147 21HH ARG d  13    1980.662 598.909-2027.493  0.00  0.00     0.174 HD
ATOM    148 22HH ARG d  13    1981.027 597.610-2026.272  0.00  0.00     0.174 HD
ATOM    149  HE  ARG d  13    1978.739 599.269-2028.132  0.00  0.00     0.177 HD
ENDBRANCH 140 141
ENDBRANCH 139 140
ENDBRANCH 138 139
ENDBRANCH 101 138
ENDBRANCH  99 101
ENDBRANCH  96  97
BRANCH  96 150
ATOM    150  CB  ASN d  12    1969.825 601.489-2028.699  0.00  0.00     0.137 C 
BRANCH 150 151
ATOM    151  CG  ASN d  12    1968.340 601.510-2028.319  0.00  0.00     0.217 C 
ATOM    152  ND2 ASN d  12    1967.536 602.312-2028.964  0.00  0.00    -0.370 N 
ATOM    153 21HD ASN d  12    1966.552 602.139-2028.742  0.00  0.00     0.159 HD
ATOM    154 22HD ASN d  12    1967.934 602.836-2029.743  0.00  0.00     0.159 HD
ATOM    155  OD1 ASN d  12    1967.880 600.785-2027.449  0.00  0.00    -0.274 OA
ENDBRANCH 150 151
ENDBRANCH  96 150
ENDBRANCH  94  96
ENDBRANCH  91  92
BRANCH  91 156
ATOM    156  CB  VAL d  11    1967.978 596.951-2030.905  0.00  0.00     0.009 C 
ATOM    157  CG1 VAL d  11    1967.409 597.655-2032.167  0.00  0.00     0.012 C 
ATOM    158  CG2 VAL d  11    1967.454 595.497-2030.978  0.00  0.00     0.012 C 
ENDBRANCH  91 156
ENDBRANCH  89  91
ENDBRANCH  86  87
BRANCH  86 159
ATOM    159  CB  HIS d  10    1971.336 594.419-2027.660  0.00  0.00     0.095 C 
BRANCH 159 160
ATOM    160  CG  HIS d  10    1972.622 593.710-2027.352  0.00  0.00     0.053 A 
ATOM    161  CD2 HIS d  10    1973.002 593.374-2026.059  0.00  0.00     0.116 A 
ATOM    162  NE2 HIS d  10    1974.218 592.743-2026.126  0.00  0.00    -0.359 N 
ATOM    163  CE1 HIS d  10    1974.481 592.747-2027.461  0.00  0.00     0.207 A 
ATOM    164  2HE HIS d  10    1974.785 592.366-2025.352  0.00  0.00     0.166 HD
ATOM    165  ND1 HIS d  10    1973.574 593.305-2028.284  0.00  0.00    -0.247 NA
ENDBRANCH 159 160
ENDBRANCH  86 159
ENDBRANCH   3  86
TORSDOF 67
