REMARK WARNING: 32 MAX_TORS EXCEEDED!!!
REMARK  66 active torsions:
REMARK  status: ('A' for Active; 'I' for Inactive)
REMARK    1  A    between atoms: N_1  and  CA_2 
REMARK    2  A    between atoms: CA_2  and  C_3 
REMARK    3  A    between atoms: CA_2  and  CB_5 
REMARK       I    between atoms: C_3  and  N_11 
REMARK    4  A    between atoms: CB_5  and  CG_6 
REMARK    5  A    between atoms: CG_6  and  CD_7 
REMARK    6  A    between atoms: N_11  and  CA_12 
REMARK    7  A    between atoms: CA_12  and  C_13 
REMARK    8  A    between atoms: CA_12  and  CB_15 
REMARK       I    between atoms: C_13  and  N_22 
REMARK    9  A    between atoms: CB_15  and  CG_16 
REMARK       I    between atoms: CG_16  and  ND2_17 
REMARK   10  A    between atoms: CA_23  and  C_24 
REMARK       I    between atoms: C_24  and  N_29 
REMARK   11  A    between atoms: N_29  and  CA_30 
REMARK   12  A    between atoms: CA_30  and  C_31 
REMARK   13  A    between atoms: CA_30  and  CB_33 
REMARK       I    between atoms: C_31  and  N_39 
REMARK   14  A    between atoms: CB_33  and  CG_34 
REMARK   15  A    between atoms: CG_34  and  CD_35 
REMARK   16  A    between atoms: N_39  and  CA_40 
REMARK   17  A    between atoms: CA_40  and  C_41 
REMARK   18  A    between atoms: CA_40  and  CB_43 
REMARK       I    between atoms: C_41  and  N_47 
REMARK   19  A    between atoms: CB_43  and  OG_44 
REMARK   20  A    between atoms: N_47  and  CA_48 
REMARK   21  A    between atoms: CA_48  and  C_49 
REMARK   22  A    between atoms: CA_48  and  CB_51 
REMARK       I    between atoms: C_49  and  N_56 
REMARK   23  A    between atoms: CB_51  and  CG1_52 
REMARK   24  A    between atoms: N_56  and  CA_57 
REMARK   25  A    between atoms: CA_57  and  C_58 
REMARK   26  A    between atoms: CA_57  and  CB_60 
REMARK       I    between atoms: C_58  and  N_65 
REMARK   27  A    between atoms: CB_60  and  CG_61 
REMARK   28  A    between atoms: N_65  and  CA_66 
REMARK   29  A    between atoms: CA_66  and  C_67 
REMARK   30  A    between atoms: CA_66  and  CB_69 
REMARK       I    between atoms: C_67  and  N_74 
REMARK   31  A    between atoms: CB_69  and  CG_70 
REMARK   32  A    between atoms: N_74  and  CA_75 
REMARK   33  A    between atoms: CA_75  and  C_76 
REMARK   34  A    between atoms: CA_75  and  CB_78 
REMARK       I    between atoms: C_76  and  N_84 
REMARK   35  A    between atoms: CB_78  and  CG_79 
REMARK   36  A    between atoms: CG_79  and  CD_80 
REMARK   37  A    between atoms: N_84  and  CA_85 
REMARK   38  A    between atoms: CA_85  and  C_86 
REMARK   39  A    between atoms: CA_85  and  CB_88 
REMARK       I    between atoms: C_86  and  N_96 
REMARK   40  A    between atoms: CB_88  and  CG_89 
REMARK   41  A    between atoms: N_96  and  CA_97 
REMARK   42  A    between atoms: CA_97  and  C_98 
REMARK   43  A    between atoms: CA_97  and  CB_100 
REMARK       I    between atoms: C_98  and  N_104 
REMARK   44  A    between atoms: N_104  and  CA_105 
REMARK   45  A    between atoms: CA_105  and  C_106 
REMARK   46  A    between atoms: CA_105  and  CB_108 
REMARK       I    between atoms: C_106  and  N_116 
REMARK   47  A    between atoms: CB_108  and  CG_109 
REMARK   48  A    between atoms: CG_109  and  CD_110 
REMARK       I    between atoms: CD_110  and  NE2_111 
REMARK   49  A    between atoms: N_116  and  CA_117 
REMARK   50  A    between atoms: CA_117  and  C_118 
REMARK   51  A    between atoms: CA_117  and  CB_120 
REMARK       I    between atoms: C_118  and  N_133 
REMARK   52  A    between atoms: CB_120  and  CG_121 
REMARK   53  A    between atoms: CG_121  and  CD_122 
REMARK   54  A    between atoms: CD_122  and  NE_123 
REMARK       I    between atoms: NE_123  and  CZ_124 
REMARK       I    between atoms: CZ_124  and  NH1_125 
REMARK   55  A    between atoms: N_133  and  CA_134 
REMARK   56  A    between atoms: CA_134  and  C_135 
REMARK   57  A    between atoms: CA_134  and  CB_137 
REMARK       I    between atoms: C_135  and  N_141 
REMARK   58  A    between atoms: N_141  and  CA_142 
REMARK   59  A    between atoms: CA_142  and  C_143 
REMARK   60  A    between atoms: CA_142  and  CB_145 
REMARK       I    between atoms: C_143  and  N_150 
REMARK   61  A    between atoms: CB_145  and  CG_146 
REMARK   62  A    between atoms: CG_146  and  SD_147 
REMARK   63  A    between atoms: N_150  and  CA_151 
REMARK   64  A    between atoms: CA_151  and  C_152 
REMARK   65  A    between atoms: CA_151  and  CB_154 
REMARK   66  A    between atoms: CB_154  and  CG_155 
REMARK       I    between atoms: CG_155  and  ND2_156 
ROOT
ATOM      1  CA  GLU d   9    2618.725 806.508-2735.219  0.00  0.00     0.177 C 
ENDROOT
BRANCH   1   2
ATOM      2  N   GLU d   9    2617.422 805.851-2735.273  0.00  0.00    -0.346 N 
ATOM      3  C   ASP d   8    2616.742 805.901-2736.369  0.00  0.00     0.241 C 
ATOM      4  O   ASP d   8    2617.215 806.505-2737.344  0.00  0.00    -0.271 OA
ATOM      5  H   GLU d   9    2617.058 805.365-2734.466  0.00  0.00     0.163 HD
BRANCH   3   6
ATOM      6  CA  ASP d   8    2615.395 805.221-2736.425  0.00  0.00     0.186 C 
BRANCH   6   7
ATOM      7  N   ASP d   8    2615.464 803.872-2735.871  0.00  0.00    -0.346 N 
ATOM      8  C   LEU d   7    2616.301 803.031-2736.377  0.00  0.00     0.241 C 
ATOM      9  O   LEU d   7    2617.022 803.393-2737.320  0.00  0.00    -0.271 OA
ATOM     10  H   ASP d   8    2614.866 803.602-2735.104  0.00  0.00     0.163 HD
BRANCH   8  11
ATOM     11  CA  LEU d   7    2616.373 801.636-2735.804  0.00  0.00     0.177 C 
BRANCH  11  12
ATOM     12  N   LEU d   7    2616.428 801.672-2734.346  0.00  0.00    -0.346 N 
ATOM     13  C   ILE d   6    2617.374 802.335-2733.772  0.00  0.00     0.241 C 
ATOM     14  O   ILE d   6    2618.209 802.922-2734.476  0.00  0.00    -0.271 OA
ATOM     15  H   LEU d   7    2615.736 801.185-2733.794  0.00  0.00     0.163 HD
BRANCH  13  16
ATOM     16  CA  ILE d   6    2617.431 802.373-2732.264  0.00  0.00     0.180 C 
BRANCH  16  17
ATOM     17  N   ILE d   6    2616.118 802.668-2731.698  0.00  0.00    -0.346 N 
ATOM     18  C   SER d   5    2615.514 803.751-2732.053  0.00  0.00     0.243 C 
ATOM     19  O   SER d   5    2616.062 804.505-2732.857  0.00  0.00    -0.271 OA
ATOM     20  H   ILE d   6    2615.689 802.034-2731.040  0.00  0.00     0.163 HD
BRANCH  18  21
ATOM     21  CA  SER d   5    2614.155 804.057-2731.468  0.00  0.00     0.200 C 
BRANCH  21  22
ATOM     22  N   SER d   5    2613.285 802.886-2731.526  0.00  0.00    -0.344 N 
ATOM     23  C   GLU d   4    2613.058 802.334-2732.670  0.00  0.00     0.241 C 
ATOM     24  O   GLU d   4    2613.585 802.813-2733.684  0.00  0.00    -0.271 OA
ATOM     25  H   SER d   5    2612.868 802.515-2730.685  0.00  0.00     0.163 HD
BRANCH  23  26
ATOM     26  CA  GLU d   4    2612.159 801.123-2732.731  0.00  0.00     0.177 C 
BRANCH  26  27
ATOM     27  N   GLU d   4    2612.518 800.152-2731.701  0.00  0.00    -0.346 N 
ATOM     28  C   PRO d   3    2613.723 799.692-2731.669  0.00  0.00     0.241 C 
ATOM     29  O   PRO d   3    2614.546 800.075-2732.500  0.00  0.00    -0.271 OA
ATOM     30  H   GLU d   4    2611.833 799.846-2731.025  0.00  0.00     0.163 HD
BRANCH  28  31
ATOM     31  CA  PRO d   3    2614.121 798.668-2730.592  0.00  0.00     0.179 C 
ATOM     32  N   PRO d   3    2613.668 799.078-2729.270  0.00  0.00    -0.337 N 
ATOM     33  C   ASN d   2    2614.190 800.072-2728.636  0.00  0.00     0.243 C 
ATOM     34  CD  PRO d   3    2612.590 798.285-2728.721  0.00  0.00     0.127 C 
ATOM     35  O   ASN d   2    2615.105 800.703-2729.164  0.00  0.00    -0.271 OA
ATOM     36  CG  PRO d   3    2612.133 797.466-2729.931  0.00  0.00     0.022 C 
ATOM     37  CB  PRO d   3    2613.416 797.314-2730.761  0.00  0.00     0.037 C 
BRANCH  33  38
ATOM     38  CA  ASN d   2    2613.658 800.428-2727.267  0.00  0.00     0.185 C 
BRANCH  38  39
ATOM     39  N   ASN d   2    2612.199 800.467-2727.268  0.00  0.00    -0.346 N 
ATOM     40  C   GLU d   1    2611.595 801.253-2728.093  0.00  0.00     0.242 C 
ATOM     41  O   GLU d   1    2612.271 801.952-2728.861  0.00  0.00    -0.271 OA
ATOM     42  H   ASN d   2    2611.671 799.887-2726.631  0.00  0.00     0.163 HD
BRANCH  40  43
ATOM     43  CA  GLU d   1    2610.086 801.293-2728.093  0.00  0.00     0.191 C 
BRANCH  43  44
ATOM     44  N   GLU d   1    2609.527 799.944-2728.093  0.00  0.00    -0.326 NA
ATOM     45  H   GLU d   1    2610.154 799.065-2728.093  0.00  0.00     0.180 HD
ENDBRANCH  43  44
BRANCH  43  46
ATOM     46  CB  GLU d   1    2609.562 802.078-2726.856  0.00  0.00     0.047 C 
BRANCH  46  47
ATOM     47  CG  GLU d   1    2610.038 803.563-2726.745  0.00  0.00     0.116 C 
BRANCH  47  48
ATOM     48  CD  GLU d   1    2609.614 804.367-2725.530  0.00  0.00     0.172 C 
ATOM     49  OE1 GLU d   1    2608.885 803.865-2724.652  0.00  0.00    -0.648 OA
ATOM     50  OE2 GLU d   1    2610.044 805.537-2725.458  0.00  0.00    -0.648 OA
ENDBRANCH  47  48
ENDBRANCH  46  47
ENDBRANCH  43  46
ENDBRANCH  40  43
ENDBRANCH  38  39
BRANCH  38  51
ATOM     51  CB  ASN d   2    2614.150 799.405-2726.203  0.00  0.00     0.137 C 
BRANCH  51  52
ATOM     52  CG  ASN d   2    2613.687 799.629-2724.760  0.00  0.00     0.217 C 
ATOM     53  ND2 ASN d   2    2614.281 800.544-2724.041  0.00  0.00    -0.370 N 
ATOM     54 21HD ASN d   2    2613.800 800.717-2723.155  0.00  0.00     0.159 HD
ATOM     55 22HD ASN d   2    2614.983 801.115-2724.510  0.00  0.00     0.159 HD
ATOM     56  OD1 ASN d   2    2612.766 798.995-2724.266  0.00  0.00    -0.274 OA
ENDBRANCH  51  52
ENDBRANCH  38  51
ENDBRANCH  33  38
ENDBRANCH  28  31
ENDBRANCH  26  27
BRANCH  26  57
ATOM     57  CB  GLU d   4    2610.670 801.542-2732.562  0.00  0.00     0.045 C 
BRANCH  57  58
ATOM     58  CG  GLU d   4    2610.123 802.546-2733.627  0.00  0.00     0.116 C 
BRANCH  58  59
ATOM     59  CD  GLU d   4    2608.697 803.043-2733.484  0.00  0.00     0.172 C 
ATOM     60  OE1 GLU d   4    2607.970 802.645-2732.554  0.00  0.00    -0.648 OA
ATOM     61  OE2 GLU d   4    2608.308 803.872-2734.333  0.00  0.00    -0.648 OA
ENDBRANCH  58  59
ENDBRANCH  57  58
ENDBRANCH  26  57
ENDBRANCH  23  26
ENDBRANCH  21  22
BRANCH  21  62
ATOM     62  CB  SER d   5    2614.266 804.590-2730.017  0.00  0.00     0.199 C 
BRANCH  62  63
ATOM     63  OG  SER d   5    2614.997 803.710-2729.156  0.00  0.00    -0.398 OA
ATOM     64  HG  SER d   5    2614.508 802.885-2729.105  0.00  0.00     0.209 HD
ENDBRANCH  62  63
ENDBRANCH  21  62
ENDBRANCH  18  21
ENDBRANCH  16  17
BRANCH  16  65
ATOM     65  CB  ILE d   6    2618.031 801.036-2731.664  0.00  0.00     0.013 C 
ATOM     66  CG2 ILE d   6    2619.472 800.734-2732.179  0.00  0.00     0.012 C 
BRANCH  65  67
ATOM     67  CG1 ILE d   6    2618.049 800.974-2730.103  0.00  0.00     0.002 C 
ATOM     68  CD1 ILE d   6    2618.319 799.585-2729.488  0.00  0.00     0.005 C 
ENDBRANCH  65  67
ENDBRANCH  16  65
ENDBRANCH  13  16
ENDBRANCH  11  12
BRANCH  11  69
ATOM     69  CB  LEU d   7    2615.170 800.776-2736.285  0.00  0.00     0.038 C 
BRANCH  69  70
ATOM     70  CG  LEU d   7    2615.097 799.296-2735.818  0.00  0.00    -0.020 C 
ATOM     71  CD1 LEU d   7    2613.907 798.591-2736.483  0.00  0.00     0.009 C 
ATOM     72  CD2 LEU d   7    2616.390 798.517-2736.110  0.00  0.00     0.009 C 
ENDBRANCH  69  70
ENDBRANCH  11  69
ENDBRANCH   8  11
ENDBRANCH   6   7
BRANCH   6  73
ATOM     73  CB  ASP d   8    2614.317 806.061-2735.684  0.00  0.00     0.147 C 
BRANCH  73  74
ATOM     74  CG  ASP d   8    2614.099 807.482-2736.226  0.00  0.00     0.175 C 
ATOM     75  OD1 ASP d   8    2614.163 807.680-2737.457  0.00  0.00    -0.648 OA
ATOM     76  OD2 ASP d   8    2613.907 808.408-2735.411  0.00  0.00    -0.648 OA
ENDBRANCH  73  74
ENDBRANCH   6  73
ENDBRANCH   3   6
ENDBRANCH   1   2
BRANCH   1  77
ATOM     77  C   GLU d   9    2619.642 805.979-2736.295  0.00  0.00     0.241 C 
ATOM     78  O   GLU d   9    2620.306 806.733-2737.021  0.00  0.00    -0.271 OA
ATOM     79  N   HIS d  10    2619.738 804.704-2736.463  0.00  0.00    -0.346 N 
ATOM     80  H   HIS d  10    2619.208 804.069-2735.885  0.00  0.00     0.163 HD
BRANCH  79  81
ATOM     81  CA  HIS d  10    2620.625 804.192-2737.504  0.00  0.00     0.182 C 
BRANCH  81  82
ATOM     82  C   HIS d  10    2620.259 804.756-2738.855  0.00  0.00     0.241 C 
ATOM     83  O   HIS d  10    2621.111 805.220-2739.627  0.00  0.00    -0.271 OA
ATOM     84  N   VAL d  11    2619.021 804.755-2739.218  0.00  0.00    -0.346 N 
ATOM     85  H   VAL d  11    2618.308 804.383-2738.607  0.00  0.00     0.163 HD
BRANCH  84  86
ATOM     86  CA  VAL d  11    2618.666 805.301-2740.525  0.00  0.00     0.180 C 
BRANCH  86  87
ATOM     87  C   VAL d  11    2619.131 806.731-2740.658  0.00  0.00     0.241 C 
ATOM     88  O   VAL d  11    2619.732 807.135-2741.662  0.00  0.00    -0.271 OA
ATOM     89  N   GLN d  12    2618.895 807.557-2739.696  0.00  0.00    -0.346 N 
ATOM     90  H   GLN d  12    2618.406 807.252-2738.867  0.00  0.00     0.163 HD
BRANCH  89  91
ATOM     91  CA  GLN d  12    2619.344 808.940-2739.824  0.00  0.00     0.177 C 
BRANCH  91  92
ATOM     92  C   GLN d  12    2620.833 809.007-2740.062  0.00  0.00     0.241 C 
ATOM     93  O   GLN d  12    2621.321 809.714-2740.942  0.00  0.00    -0.271 OA
ATOM     94  N   ARG d  13    2621.618 808.300-2739.321  0.00  0.00    -0.346 N 
ATOM     95  H   ARG d  13    2621.242 807.711-2738.592  0.00  0.00     0.163 HD
BRANCH  94  96
ATOM     96  CA  ARG d  13    2623.058 808.365-2739.552  0.00  0.00     0.176 C 
BRANCH  96  97
ATOM     97  C   ARG d  13    2623.394 807.992-2740.977  0.00  0.00     0.241 C 
ATOM     98  O   ARG d  13    2624.163 808.664-2741.662  0.00  0.00    -0.271 OA
ATOM     99  N   VAL d  14    2622.857 806.938-2741.491  0.00  0.00    -0.346 N 
ATOM    100  H   VAL d  14    2622.222 806.370-2740.948  0.00  0.00     0.163 HD
BRANCH  99 101
ATOM    101  CA  VAL d  14    2623.182 806.578-2742.868  0.00  0.00     0.180 C 
BRANCH 101 102
ATOM    102  C   VAL d  14    2622.852 807.707-2743.814  0.00  0.00     0.241 C 
ATOM    103  O   VAL d  14    2623.645 808.088-2744.684  0.00  0.00    -0.271 OA
ATOM    104  N   MET d  15    2621.708 808.293-2743.713  0.00  0.00    -0.346 N 
ATOM    105  H   MET d  15    2621.042 808.001-2743.011  0.00  0.00     0.163 HD
BRANCH 104 106
ATOM    106  CA  MET d  15    2621.387 809.386-2744.627  0.00  0.00     0.177 C 
BRANCH 106 107
ATOM    107  C   MET d  15    2622.417 810.486-2744.539  0.00  0.00     0.241 C 
ATOM    108  O   MET d  15    2622.920 810.996-2745.552  0.00  0.00    -0.271 OA
ATOM    109  N   ASN d  16    2622.786 810.907-2743.377  0.00  0.00    -0.347 N 
ATOM    110  H   ASN d  16    2622.392 810.508-2742.538  0.00  0.00     0.163 HD
BRANCH 109 111
ATOM    111  CA  ASN d  16    2623.783 811.971-2743.294  0.00  0.00     0.171 C 
BRANCH 111 112
ATOM    112  C   ASN d  16    2625.054 811.578-2744.010  0.00  0.00     0.220 C 
ATOM    113  O   ASN d  16    2625.176 810.491-2744.573  0.00  0.00    -0.287 OA
ENDBRANCH 111 112
BRANCH 111 114
ATOM    114  CB  ASN d  16    2624.071 812.296-2741.800  0.00  0.00     0.136 C 
BRANCH 114 115
ATOM    115  CG  ASN d  16    2622.874 812.707-2740.936  0.00  0.00     0.217 C 
ATOM    116  ND2 ASN d  16    2622.416 813.926-2741.032  0.00  0.00    -0.370 N 
ATOM    117 21HD ASN d  16    2621.531 814.050-2740.534  0.00  0.00     0.159 HD
ATOM    118 22HD ASN d  16    2622.841 814.525-2741.740  0.00  0.00     0.159 HD
ATOM    119  OD1 ASN d  16    2622.321 811.926-2740.177  0.00  0.00    -0.274 OA
ENDBRANCH 114 115
ENDBRANCH 111 114
ENDBRANCH 109 111
ENDBRANCH 106 107
BRANCH 106 120
ATOM    120  CB  MET d  15    2619.966 809.932-2744.318  0.00  0.00     0.045 C 
BRANCH 120 121
ATOM    121  CG  MET d  15    2618.803 808.934-2744.509  0.00  0.00     0.076 C 
BRANCH 121 122
ATOM    122  SD  MET d  15    2617.230 809.800-2744.394  0.00  0.00    -0.173 SA
ATOM    123  CE  MET d  15    2616.149 808.371-2744.257  0.00  0.00     0.089 C 
ENDBRANCH 121 122
ENDBRANCH 120 121
ENDBRANCH 106 120
ENDBRANCH 104 106
ENDBRANCH 101 102
BRANCH 101 124
ATOM    124  CB  VAL d  14    2622.409 805.261-2743.274  0.00  0.00     0.009 C 
ATOM    125  CG1 VAL d  14    2622.498 804.841-2744.768  0.00  0.00     0.012 C 
ATOM    126  CG2 VAL d  14    2622.841 804.009-2742.474  0.00  0.00     0.012 C 
ENDBRANCH 101 124
ENDBRANCH  99 101
ENDBRANCH  96  97
BRANCH  96 127
ATOM    127  CB  ARG d  13    2623.771 807.427-2738.538  0.00  0.00     0.036 C 
BRANCH 127 128
ATOM    128  CG  ARG d  13    2625.317 807.579-2738.458  0.00  0.00     0.023 C 
BRANCH 128 129
ATOM    129  CD  ARG d  13    2625.944 806.592-2737.459  0.00  0.00     0.138 C 
BRANCH 129 130
ATOM    130  NE  ARG d  13    2627.421 806.799-2737.409  0.00  0.00    -0.227 N 
ATOM    131  CZ  ARG d  13    2628.269 806.108-2736.654  0.00  0.00     0.665 C 
ATOM    132  NH1 ARG d  13    2627.904 805.144-2735.856  0.00  0.00    -0.235 N 
ATOM    133  NH2 ARG d  13    2629.529 806.406-2736.711  0.00  0.00    -0.235 N 
ATOM    134 11HH ARG d  13    2626.898 804.958-2735.858  0.00  0.00     0.174 HD
ATOM    135 12HH ARG d  13    2628.617 804.661-2735.307  0.00  0.00     0.174 HD
ATOM    136 21HH ARG d  13    2629.796 807.164-2737.343  0.00  0.00     0.174 HD
ATOM    137 22HH ARG d  13    2630.164 805.865-2736.123  0.00  0.00     0.174 HD
ATOM    138  HE  ARG d  13    2627.872 807.521-2737.981  0.00  0.00     0.177 HD
ENDBRANCH 129 130
ENDBRANCH 128 129
ENDBRANCH 127 128
ENDBRANCH  96 127
ENDBRANCH  94  96
ENDBRANCH  91  92
BRANCH  91 139
ATOM    139  CB  GLN d  12    2618.953 809.708-2738.542  0.00  0.00     0.044 C 
BRANCH 139 140
ATOM    140  CG  GLN d  12    2619.315 811.230-2738.512  0.00  0.00     0.105 C 
BRANCH 140 141
ATOM    141  CD  GLN d  12    2619.013 812.044-2737.247  0.00  0.00     0.215 C 
ATOM    142  NE2 GLN d  12    2618.446 811.469-2736.218  0.00  0.00    -0.370 N 
ATOM    143 21HE GLN d  12    2618.340 812.064-2735.395  0.00  0.00     0.159 HD
ATOM    144 22HE GLN d  12    2618.282 810.465-2736.321  0.00  0.00     0.159 HD
ATOM    145  OE1 GLN d  12    2619.316 813.225-2737.170  0.00  0.00    -0.274 OA
ENDBRANCH 140 141
ENDBRANCH 139 140
ENDBRANCH  91 139
ENDBRANCH  89  91
ENDBRANCH  86  87
BRANCH  86 146
ATOM    146  CB  VAL d  11    2617.104 805.195-2740.744  0.00  0.00     0.009 C 
ATOM    147  CG1 VAL d  11    2616.536 805.898-2742.007  0.00  0.00     0.012 C 
ATOM    148  CG2 VAL d  11    2616.579 803.741-2740.816  0.00  0.00     0.012 C 
ENDBRANCH  86 146
ENDBRANCH  84  86
ENDBRANCH  81  82
BRANCH  81 149
ATOM    149  CB  HIS d  10    2620.461 802.663-2737.498  0.00  0.00     0.095 C 
BRANCH 149 150
ATOM    150  CG  HIS d  10    2621.746 801.952-2737.190  0.00  0.00     0.053 A 
ATOM    151  CD2 HIS d  10    2622.128 801.618-2735.898  0.00  0.00     0.116 A 
ATOM    152  NE2 HIS d  10    2623.342 800.985-2735.964  0.00  0.00    -0.359 N 
ATOM    153  CE1 HIS d  10    2623.604 800.987-2737.300  0.00  0.00     0.207 A 
ATOM    154  2HE HIS d  10    2623.909 800.608-2735.191  0.00  0.00     0.166 HD
ATOM    155  ND1 HIS d  10    2622.698 801.545-2738.123  0.00  0.00    -0.247 NA
ENDBRANCH 149 150
ENDBRANCH  81 149
ENDBRANCH  79  81
ENDBRANCH   1  77
BRANCH   1 156
ATOM    156  CB  GLU d   9    2619.358 806.301-2733.813  0.00  0.00     0.045 C 
BRANCH 156 157
ATOM    157  CG  GLU d   9    2620.741 806.992-2733.585  0.00  0.00     0.116 C 
BRANCH 157 158
ATOM    158  CD  GLU d   9    2621.443 806.779-2732.256  0.00  0.00     0.172 C 
ATOM    159  OE1 GLU d   9    2620.922 806.089-2731.360  0.00  0.00    -0.648 OA
ATOM    160  OE2 GLU d   9    2622.563 807.317-2732.125  0.00  0.00    -0.648 OA
ENDBRANCH 157 158
ENDBRANCH 156 157
ENDBRANCH   1 156
TORSDOF 66
