REMARK WARNING: 32 MAX_TORS EXCEEDED!!!
REMARK  69 active torsions:
REMARK  status: ('A' for Active; 'I' for Inactive)
REMARK    1  A    between atoms: N_1  and  CA_2 
REMARK    2  A    between atoms: CA_2  and  C_3 
REMARK    3  A    between atoms: CA_2  and  CB_5 
REMARK       I    between atoms: C_3  and  N_11 
REMARK    4  A    between atoms: CB_5  and  CG_6 
REMARK    5  A    between atoms: CG_6  and  CD_7 
REMARK    6  A    between atoms: N_11  and  CA_12 
REMARK    7  A    between atoms: CA_12  and  C_13 
REMARK    8  A    between atoms: CA_12  and  CB_15 
REMARK       I    between atoms: C_13  and  N_22 
REMARK    9  A    between atoms: CB_15  and  CG_16 
REMARK       I    between atoms: CG_16  and  ND2_17 
REMARK   10  A    between atoms: CA_23  and  C_24 
REMARK       I    between atoms: C_24  and  N_29 
REMARK   11  A    between atoms: N_29  and  CA_30 
REMARK   12  A    between atoms: CA_30  and  C_31 
REMARK   13  A    between atoms: CA_30  and  CB_33 
REMARK       I    between atoms: C_31  and  N_39 
REMARK   14  A    between atoms: CB_33  and  CG_34 
REMARK   15  A    between atoms: CG_34  and  CD_35 
REMARK   16  A    between atoms: N_39  and  CA_40 
REMARK   17  A    between atoms: CA_40  and  C_41 
REMARK   18  A    between atoms: CA_40  and  CB_43 
REMARK       I    between atoms: C_41  and  N_47 
REMARK   19  A    between atoms: CB_43  and  OG_44 
REMARK   20  A    between atoms: N_47  and  CA_48 
REMARK   21  A    between atoms: CA_48  and  C_49 
REMARK   22  A    between atoms: CA_48  and  CB_51 
REMARK       I    between atoms: C_49  and  N_56 
REMARK   23  A    between atoms: CB_51  and  CG1_52 
REMARK   24  A    between atoms: N_56  and  CA_57 
REMARK   25  A    between atoms: CA_57  and  C_58 
REMARK   26  A    between atoms: CA_57  and  CB_60 
REMARK       I    between atoms: C_58  and  N_65 
REMARK   27  A    between atoms: CB_60  and  CG_61 
REMARK   28  A    between atoms: N_65  and  CA_66 
REMARK   29  A    between atoms: CA_66  and  C_67 
REMARK   30  A    between atoms: CA_66  and  CB_69 
REMARK       I    between atoms: C_67  and  N_74 
REMARK   31  A    between atoms: CB_69  and  CG_70 
REMARK   32  A    between atoms: N_74  and  CA_75 
REMARK   33  A    between atoms: CA_75  and  C_76 
REMARK   34  A    between atoms: CA_75  and  CB_78 
REMARK       I    between atoms: C_76  and  N_84 
REMARK   35  A    between atoms: CB_78  and  CG_79 
REMARK   36  A    between atoms: CG_79  and  CD_80 
REMARK   37  A    between atoms: N_84  and  CA_85 
REMARK   38  A    between atoms: CA_85  and  C_86 
REMARK   39  A    between atoms: CA_85  and  CB_88 
REMARK       I    between atoms: C_86  and  N_94 
REMARK   40  A    between atoms: CB_88  and  CG_89 
REMARK   41  A    between atoms: CG_89  and  CD_90 
REMARK   42  A    between atoms: N_94  and  CA_95 
REMARK   43  A    between atoms: CA_95  and  C_96 
REMARK   44  A    between atoms: CA_95  and  CB_98 
REMARK       I    between atoms: C_96  and  N_102 
REMARK   45  A    between atoms: N_102  and  CA_103 
REMARK   46  A    between atoms: CA_103  and  C_104 
REMARK   47  A    between atoms: CA_103  and  CB_106 
REMARK       I    between atoms: C_104  and  N_114 
REMARK   48  A    between atoms: CB_106  and  CG_107 
REMARK   49  A    between atoms: CG_107  and  CD_108 
REMARK       I    between atoms: CD_108  and  NE2_109 
REMARK   50  A    between atoms: N_114  and  CA_115 
REMARK   51  A    between atoms: CA_115  and  C_116 
REMARK   52  A    between atoms: CA_115  and  CB_118 
REMARK       I    between atoms: C_116  and  N_131 
REMARK   53  A    between atoms: CB_118  and  CG_119 
REMARK   54  A    between atoms: CG_119  and  CD_120 
REMARK   55  A    between atoms: CD_120  and  NE_121 
REMARK       I    between atoms: NE_121  and  CZ_122 
REMARK       I    between atoms: CZ_122  and  NH1_123 
REMARK       I    between atoms: CZ_122  and  NH2_124 
REMARK   56  A    between atoms: N_131  and  CA_132 
REMARK   57  A    between atoms: CA_132  and  C_133 
REMARK   58  A    between atoms: CA_132  and  CB_135 
REMARK       I    between atoms: C_133  and  N_139 
REMARK   59  A    between atoms: N_139  and  CA_140 
REMARK   60  A    between atoms: CA_140  and  C_141 
REMARK   61  A    between atoms: CA_140  and  CB_143 
REMARK       I    between atoms: C_141  and  N_148 
REMARK   62  A    between atoms: CB_143  and  CG_144 
REMARK   63  A    between atoms: CG_144  and  SD_145 
REMARK   64  A    between atoms: N_148  and  CA_149 
REMARK   65  A    between atoms: CA_149  and  C_150 
REMARK   66  A    between atoms: CA_149  and  CB_152 
REMARK   67  A    between atoms: CB_152  and  CG_153 
REMARK   68  A    between atoms: CG_153  and  CD_154 
REMARK   69  A    between atoms: CD_154  and  NE_155 
REMARK       I    between atoms: NE_155  and  CZ_156 
REMARK       I    between atoms: CZ_156  and  NH1_157 
ROOT
ATOM      1  C   GLU d   9    1666.689 499.897-1696.976  0.00  0.00     0.241 C 
ATOM      2  O   GLU d   9    1667.353 500.652-1697.701  0.00  0.00    -0.271 OA
ATOM      3  N   GLU d  10    1666.785 498.622-1697.146  0.00  0.00    -0.346 N 
ATOM      4  H   GLU d  10    1666.255 497.986-1696.568  0.00  0.00     0.163 HD
ENDROOT
BRANCH   1   5
ATOM      5  CA  GLU d   9    1665.771 500.424-1695.900  0.00  0.00     0.177 C 
BRANCH   5   6
ATOM      6  N   GLU d   9    1664.468 499.767-1695.955  0.00  0.00    -0.346 N 
ATOM      7  C   ASP d   8    1663.788 499.817-1697.050  0.00  0.00     0.241 C 
ATOM      8  O   ASP d   8    1664.261 500.422-1698.025  0.00  0.00    -0.271 OA
ATOM      9  H   GLU d   9    1664.105 499.280-1695.148  0.00  0.00     0.163 HD
BRANCH   7  10
ATOM     10  CA  ASP d   8    1662.442 499.137-1697.108  0.00  0.00     0.186 C 
BRANCH  10  11
ATOM     11  N   ASP d   8    1662.512 497.787-1696.555  0.00  0.00    -0.346 N 
ATOM     12  C   LEU d   7    1663.349 496.947-1697.061  0.00  0.00     0.241 C 
ATOM     13  O   LEU d   7    1664.070 497.310-1698.003  0.00  0.00    -0.271 OA
ATOM     14  H   ASP d   8    1661.914 497.516-1695.787  0.00  0.00     0.163 HD
BRANCH  12  15
ATOM     15  CA  LEU d   7    1663.422 495.551-1696.489  0.00  0.00     0.177 C 
BRANCH  15  16
ATOM     16  N   LEU d   7    1663.477 495.587-1695.030  0.00  0.00    -0.346 N 
ATOM     17  C   ILE d   6    1664.423 496.251-1694.457  0.00  0.00     0.241 C 
ATOM     18  O   ILE d   6    1665.258 496.838-1695.161  0.00  0.00    -0.271 OA
ATOM     19  H   LEU d   7    1662.785 495.100-1694.479  0.00  0.00     0.163 HD
BRANCH  17  20
ATOM     20  CA  ILE d   6    1664.480 496.288-1692.949  0.00  0.00     0.180 C 
BRANCH  20  21
ATOM     21  N   ILE d   6    1663.167 496.583-1692.383  0.00  0.00    -0.346 N 
ATOM     22  C   SER d   5    1662.562 497.666-1692.737  0.00  0.00     0.243 C 
ATOM     23  O   SER d   5    1663.109 498.419-1693.541  0.00  0.00    -0.271 OA
ATOM     24  H   ILE d   6    1662.739 495.948-1691.724  0.00  0.00     0.163 HD
BRANCH  22  25
ATOM     25  CA  SER d   5    1661.204 497.971-1692.151  0.00  0.00     0.200 C 
BRANCH  25  26
ATOM     26  N   SER d   5    1660.334 496.800-1692.209  0.00  0.00    -0.344 N 
ATOM     27  C   GLU d   4    1660.107 496.247-1693.352  0.00  0.00     0.241 C 
ATOM     28  O   GLU d   4    1660.633 496.727-1694.367  0.00  0.00    -0.271 OA
ATOM     29  H   SER d   5    1659.917 496.428-1691.368  0.00  0.00     0.163 HD
BRANCH  27  30
ATOM     30  CA  GLU d   4    1659.208 495.036-1693.413  0.00  0.00     0.177 C 
BRANCH  30  31
ATOM     31  N   GLU d   4    1659.568 494.065-1692.384  0.00  0.00    -0.346 N 
ATOM     32  C   PRO d   3    1660.772 493.605-1692.352  0.00  0.00     0.241 C 
ATOM     33  O   PRO d   3    1661.596 493.988-1693.183  0.00  0.00    -0.271 OA
ATOM     34  H   GLU d   4    1658.884 493.758-1691.707  0.00  0.00     0.163 HD
BRANCH  32  35
ATOM     35  CA  PRO d   3    1661.171 492.581-1691.275  0.00  0.00     0.179 C 
ATOM     36  N   PRO d   3    1660.719 492.991-1689.953  0.00  0.00    -0.337 N 
ATOM     37  C   ASN d   2    1661.240 493.986-1689.319  0.00  0.00     0.243 C 
ATOM     38  CD  PRO d   3    1659.641 492.197-1689.404  0.00  0.00     0.127 C 
ATOM     39  O   ASN d   2    1662.155 494.616-1689.848  0.00  0.00    -0.271 OA
ATOM     40  CG  PRO d   3    1659.183 491.379-1690.614  0.00  0.00     0.022 C 
ATOM     41  CB  PRO d   3    1660.466 491.227-1691.444  0.00  0.00     0.037 C 
BRANCH  37  42
ATOM     42  CA  ASN d   2    1660.709 494.341-1687.950  0.00  0.00     0.185 C 
BRANCH  42  43
ATOM     43  N   ASN d   2    1659.250 494.380-1687.950  0.00  0.00    -0.346 N 
ATOM     44  C   GLU d   1    1658.645 495.166-1688.776  0.00  0.00     0.242 C 
ATOM     45  O   GLU d   1    1659.321 495.865-1689.544  0.00  0.00    -0.271 OA
ATOM     46  H   ASN d   2    1658.722 493.800-1687.314  0.00  0.00     0.163 HD
BRANCH  44  47
ATOM     47  CA  GLU d   1    1657.136 495.206-1688.776  0.00  0.00     0.191 C 
BRANCH  47  48
ATOM     48  N   GLU d   1    1656.577 493.857-1688.776  0.00  0.00    -0.326 NA
ATOM     49  H   GLU d   1    1657.204 492.978-1688.776  0.00  0.00     0.180 HD
ENDBRANCH  47  48
BRANCH  47  50
ATOM     50  CB  GLU d   1    1656.613 495.991-1687.539  0.00  0.00     0.047 C 
BRANCH  50  51
ATOM     51  CG  GLU d   1    1657.088 497.476-1687.428  0.00  0.00     0.116 C 
BRANCH  51  52
ATOM     52  CD  GLU d   1    1656.664 498.280-1686.213  0.00  0.00     0.172 C 
ATOM     53  OE1 GLU d   1    1655.936 497.778-1685.335  0.00  0.00    -0.648 OA
ATOM     54  OE2 GLU d   1    1657.094 499.450-1686.141  0.00  0.00    -0.648 OA
ENDBRANCH  51  52
ENDBRANCH  50  51
ENDBRANCH  47  50
ENDBRANCH  44  47
ENDBRANCH  42  43
BRANCH  42  55
ATOM     55  CB  ASN d   2    1661.201 493.318-1686.886  0.00  0.00     0.137 C 
BRANCH  55  56
ATOM     56  CG  ASN d   2    1660.738 493.542-1685.443  0.00  0.00     0.217 C 
ATOM     57  ND2 ASN d   2    1661.332 494.457-1684.725  0.00  0.00    -0.370 N 
ATOM     58 21HD ASN d   2    1660.852 494.630-1683.838  0.00  0.00     0.159 HD
ATOM     59 22HD ASN d   2    1662.034 495.029-1685.194  0.00  0.00     0.159 HD
ATOM     60  OD1 ASN d   2    1659.818 492.908-1684.949  0.00  0.00    -0.274 OA
ENDBRANCH  55  56
ENDBRANCH  42  55
ENDBRANCH  37  42
ENDBRANCH  32  35
ENDBRANCH  30  31
BRANCH  30  61
ATOM     61  CB  GLU d   4    1657.719 495.454-1693.243  0.00  0.00     0.045 C 
BRANCH  61  62
ATOM     62  CG  GLU d   4    1657.171 496.458-1694.308  0.00  0.00     0.116 C 
BRANCH  62  63
ATOM     63  CD  GLU d   4    1655.744 496.955-1694.165  0.00  0.00     0.172 C 
ATOM     64  OE1 GLU d   4    1655.018 496.556-1693.234  0.00  0.00    -0.648 OA
ATOM     65  OE2 GLU d   4    1655.355 497.784-1695.013  0.00  0.00    -0.648 OA
ENDBRANCH  62  63
ENDBRANCH  61  62
ENDBRANCH  30  61
ENDBRANCH  27  30
ENDBRANCH  25  26
BRANCH  25  66
ATOM     66  CB  SER d   5    1661.315 498.503-1690.700  0.00  0.00     0.199 C 
BRANCH  66  67
ATOM     67  OG  SER d   5    1662.047 497.624-1689.839  0.00  0.00    -0.398 OA
ATOM     68  HG  SER d   5    1661.558 496.799-1689.789  0.00  0.00     0.209 HD
ENDBRANCH  66  67
ENDBRANCH  25  66
ENDBRANCH  22  25
ENDBRANCH  20  21
BRANCH  20  69
ATOM     69  CB  ILE d   6    1665.080 494.952-1692.349  0.00  0.00     0.013 C 
ATOM     70  CG2 ILE d   6    1666.521 494.650-1692.865  0.00  0.00     0.012 C 
BRANCH  69  71
ATOM     71  CG1 ILE d   6    1665.100 494.889-1690.788  0.00  0.00     0.002 C 
ATOM     72  CD1 ILE d   6    1665.370 493.500-1690.173  0.00  0.00     0.005 C 
ENDBRANCH  69  71
ENDBRANCH  20  69
ENDBRANCH  17  20
ENDBRANCH  15  16
BRANCH  15  73
ATOM     73  CB  LEU d   7    1662.219 494.691-1696.969  0.00  0.00     0.038 C 
BRANCH  73  74
ATOM     74  CG  LEU d   7    1662.146 493.212-1696.503  0.00  0.00    -0.020 C 
ATOM     75  CD1 LEU d   7    1660.956 492.506-1697.169  0.00  0.00     0.009 C 
ATOM     76  CD2 LEU d   7    1663.440 492.433-1696.795  0.00  0.00     0.009 C 
ENDBRANCH  73  74
ENDBRANCH  15  73
ENDBRANCH  12  15
ENDBRANCH  10  11
BRANCH  10  77
ATOM     77  CB  ASP d   8    1661.364 499.976-1696.365  0.00  0.00     0.147 C 
BRANCH  77  78
ATOM     78  CG  ASP d   8    1661.145 501.397-1696.906  0.00  0.00     0.175 C 
ATOM     79  OD1 ASP d   8    1661.209 501.596-1698.136  0.00  0.00    -0.648 OA
ATOM     80  OD2 ASP d   8    1660.952 502.322-1696.090  0.00  0.00    -0.648 OA
ENDBRANCH  77  78
ENDBRANCH  10  77
ENDBRANCH   7  10
ENDBRANCH   5   6
BRANCH   5  81
ATOM     81  CB  GLU d   9    1666.405 500.216-1694.494  0.00  0.00     0.045 C 
BRANCH  81  82
ATOM     82  CG  GLU d   9    1667.787 500.909-1694.265  0.00  0.00     0.116 C 
BRANCH  82  83
ATOM     83  CD  GLU d   9    1668.489 500.695-1692.937  0.00  0.00     0.172 C 
ATOM     84  OE1 GLU d   9    1667.968 500.003-1692.041  0.00  0.00    -0.648 OA
ATOM     85  OE2 GLU d   9    1669.608 501.232-1692.805  0.00  0.00    -0.648 OA
ENDBRANCH  82  83
ENDBRANCH  81  82
ENDBRANCH   5  81
ENDBRANCH   1   5
BRANCH   3  86
ATOM     86  CA  GLU d  10    1667.673 498.112-1698.187  0.00  0.00     0.177 C 
BRANCH  86  87
ATOM     87  C   GLU d  10    1667.305 498.678-1699.537  0.00  0.00     0.241 C 
ATOM     88  O   GLU d  10    1668.157 499.144-1700.308  0.00  0.00    -0.271 OA
ATOM     89  N   VAL d  11    1666.067 498.677-1699.899  0.00  0.00    -0.346 N 
ATOM     90  H   VAL d  11    1665.355 498.303-1699.288  0.00  0.00     0.163 HD
BRANCH  89  91
ATOM     91  CA  VAL d  11    1665.711 499.225-1701.205  0.00  0.00     0.180 C 
BRANCH  91  92
ATOM     92  C   VAL d  11    1666.175 500.656-1701.336  0.00  0.00     0.241 C 
ATOM     93  O   VAL d  11    1666.775 501.063-1702.338  0.00  0.00    -0.271 OA
ATOM     94  N   GLN d  12    1665.938 501.480-1700.372  0.00  0.00    -0.346 N 
ATOM     95  H   GLN d  12    1665.450 501.173-1699.543  0.00  0.00     0.163 HD
BRANCH  94  96
ATOM     96  CA  GLN d  12    1666.386 502.863-1700.497  0.00  0.00     0.177 C 
BRANCH  96  97
ATOM     97  C   GLN d  12    1667.876 502.932-1700.736  0.00  0.00     0.241 C 
ATOM     98  O   GLN d  12    1668.362 503.642-1701.614  0.00  0.00    -0.271 OA
ATOM     99  N   ARG d  13    1668.661 502.224-1699.997  0.00  0.00    -0.346 N 
ATOM    100  H   ARG d  13    1668.286 501.633-1699.269  0.00  0.00     0.163 HD
BRANCH  99 101
ATOM    101  CA  ARG d  13    1670.101 502.291-1700.228  0.00  0.00     0.176 C 
BRANCH 101 102
ATOM    102  C   ARG d  13    1670.437 501.922-1701.654  0.00  0.00     0.241 C 
ATOM    103  O   ARG d  13    1671.205 502.596-1702.338  0.00  0.00    -0.271 OA
ATOM    104  N   VAL d  14    1669.901 500.869-1702.170  0.00  0.00    -0.346 N 
ATOM    105  H   VAL d  14    1669.267 500.299-1701.629  0.00  0.00     0.163 HD
BRANCH 104 106
ATOM    106  CA  VAL d  14    1670.225 500.512-1703.549  0.00  0.00     0.180 C 
BRANCH 106 107
ATOM    107  C   VAL d  14    1669.894 501.644-1704.492  0.00  0.00     0.241 C 
ATOM    108  O   VAL d  14    1670.686 502.028-1705.361  0.00  0.00    -0.271 OA
ATOM    109  N   MET d  15    1668.749 502.228-1704.388  0.00  0.00    -0.346 N 
ATOM    110  H   MET d  15    1668.084 501.934-1703.687  0.00  0.00     0.163 HD
BRANCH 109 111
ATOM    111  CA  MET d  15    1668.427 503.323-1705.300  0.00  0.00     0.177 C 
BRANCH 111 112
ATOM    112  C   MET d  15    1669.456 504.423-1705.210  0.00  0.00     0.241 C 
ATOM    113  O   MET d  15    1669.958 504.936-1706.222  0.00  0.00    -0.271 OA
ATOM    114  N   ARG d  16    1669.825 504.842-1704.047  0.00  0.00    -0.347 N 
ATOM    115  H   ARG d  16    1669.431 504.440-1703.209  0.00  0.00     0.163 HD
BRANCH 114 116
ATOM    116  CA  ARG d  16    1670.821 505.906-1703.962  0.00  0.00     0.162 C 
BRANCH 116 117
ATOM    117  C   ARG d  16    1672.092 505.516-1704.680  0.00  0.00     0.219 C 
ATOM    118  O   ARG d  16    1672.206 504.441-1705.263  0.00  0.00    -0.287 OA
ENDBRANCH 116 117
BRANCH 116 119
ATOM    119  CB  ARG d  16    1671.091 506.221-1702.463  0.00  0.00     0.035 C 
BRANCH 119 120
ATOM    120  CG  ARG d  16    1671.916 507.510-1702.188  0.00  0.00     0.023 C 
BRANCH 120 121
ATOM    121  CD  ARG d  16    1672.166 507.727-1700.687  0.00  0.00     0.138 C 
BRANCH 121 122
ATOM    122  NE  ARG d  16    1672.941 508.986-1700.484  0.00  0.00    -0.227 N 
ATOM    123  CZ  ARG d  16    1673.333 509.466-1699.307  0.00  0.00     0.665 C 
ATOM    124  NH1 ARG d  16    1673.086 508.880-1698.170  0.00  0.00    -0.235 N 
ATOM    125  NH2 ARG d  16    1673.996 510.579-1699.287  0.00  0.00    -0.235 N 
ATOM    126 11HH ARG d  16    1672.561 508.007-1698.256  0.00  0.00     0.174 HD
ATOM    127 12HH ARG d  16    1673.421 509.314-1697.308  0.00  0.00     0.174 HD
ATOM    128 21HH ARG d  16    1674.181 511.024-1700.188  0.00  0.00     0.174 HD
ATOM    129 22HH ARG d  16    1674.287 510.933-1698.374  0.00  0.00     0.174 HD
ATOM    130  HE  ARG d  16    1673.219 509.569-1701.280  0.00  0.00     0.177 HD
ENDBRANCH 121 122
ENDBRANCH 120 121
ENDBRANCH 119 120
ENDBRANCH 116 119
ENDBRANCH 114 116
ENDBRANCH 111 112
BRANCH 111 131
ATOM    131  CB  MET d  15    1667.005 503.867-1704.989  0.00  0.00     0.045 C 
BRANCH 131 132
ATOM    132  CG  MET d  15    1665.844 502.868-1705.182  0.00  0.00     0.076 C 
BRANCH 132 133
ATOM    133  SD  MET d  15    1664.269 503.733-1705.065  0.00  0.00    -0.173 SA
ATOM    134  CE  MET d  15    1663.189 502.302-1704.931  0.00  0.00     0.089 C 
ENDBRANCH 132 133
ENDBRANCH 131 132
ENDBRANCH 111 131
ENDBRANCH 109 111
ENDBRANCH 106 107
BRANCH 106 135
ATOM    135  CB  VAL d  14    1669.453 499.195-1703.958  0.00  0.00     0.009 C 
ATOM    136  CG1 VAL d  14    1669.542 498.780-1705.452  0.00  0.00     0.012 C 
ATOM    137  CG2 VAL d  14    1669.887 497.942-1703.160  0.00  0.00     0.012 C 
ENDBRANCH 106 135
ENDBRANCH 104 106
ENDBRANCH 101 102
BRANCH 101 138
ATOM    138  CB  ARG d  13    1670.816 501.351-1699.217  0.00  0.00     0.036 C 
BRANCH 138 139
ATOM    139  CG  ARG d  13    1672.361 501.505-1699.136  0.00  0.00     0.023 C 
BRANCH 139 140
ATOM    140  CD  ARG d  13    1672.989 500.516-1698.141  0.00  0.00     0.138 C 
BRANCH 140 141
ATOM    141  NE  ARG d  13    1674.466 500.723-1698.091  0.00  0.00    -0.227 N 
ATOM    142  CZ  ARG d  13    1675.315 500.031-1697.338  0.00  0.00     0.665 C 
ATOM    143  NH1 ARG d  13    1674.952 499.065-1696.542  0.00  0.00    -0.235 N 
ATOM    144  NH2 ARG d  13    1676.575 500.331-1697.395  0.00  0.00    -0.235 N 
ATOM    145 11HH ARG d  13    1673.946 498.878-1696.545  0.00  0.00     0.174 HD
ATOM    146 12HH ARG d  13    1675.665 498.581-1695.995  0.00  0.00     0.174 HD
ATOM    147 21HH ARG d  13    1676.841 501.090-1698.025  0.00  0.00     0.174 HD
ATOM    148 22HH ARG d  13    1677.211 499.789-1696.808  0.00  0.00     0.174 HD
ATOM    149  HE  ARG d  13    1674.917 501.447-1698.661  0.00  0.00     0.177 HD
ENDBRANCH 140 141
ENDBRANCH 139 140
ENDBRANCH 138 139
ENDBRANCH 101 138
ENDBRANCH  99 101
ENDBRANCH  96  97
BRANCH  96 150
ATOM    150  CB  GLN d  12    1665.996 503.629-1699.213  0.00  0.00     0.044 C 
BRANCH 150 151
ATOM    151  CG  GLN d  12    1666.355 505.151-1699.179  0.00  0.00     0.105 C 
BRANCH 151 152
ATOM    152  CD  GLN d  12    1666.053 505.962-1697.913  0.00  0.00     0.215 C 
ATOM    153  NE2 GLN d  12    1665.487 505.383-1696.885  0.00  0.00    -0.370 N 
ATOM    154 21HE GLN d  12    1665.380 505.977-1696.060  0.00  0.00     0.159 HD
ATOM    155 22HE GLN d  12    1665.324 504.380-1696.990  0.00  0.00     0.159 HD
ATOM    156  OE1 GLN d  12    1666.355 507.143-1697.834  0.00  0.00    -0.274 OA
ENDBRANCH 151 152
ENDBRANCH 150 151
ENDBRANCH  96 150
ENDBRANCH  94  96
ENDBRANCH  91  92
BRANCH  91 157
ATOM    157  CB  VAL d  11    1664.150 499.118-1701.424  0.00  0.00     0.009 C 
ATOM    158  CG1 VAL d  11    1663.580 499.824-1702.685  0.00  0.00     0.012 C 
ATOM    159  CG2 VAL d  11    1663.625 497.664-1701.498  0.00  0.00     0.012 C 
ENDBRANCH  91 157
ENDBRANCH  89  91
ENDBRANCH  86  87
BRANCH  86 160
ATOM    160  CB  GLU d  10    1667.612 496.558-1698.214  0.00  0.00     0.045 C 
BRANCH 160 161
ATOM    161  CG  GLU d  10    1668.551 495.860-1699.250  0.00  0.00     0.116 C 
BRANCH 161 162
ATOM    162  CD  GLU d  10    1668.495 494.349-1699.371  0.00  0.00     0.172 C 
ATOM    163  OE1 GLU d  10    1667.736 493.676-1698.647  0.00  0.00    -0.648 OA
ATOM    164  OE2 GLU d  10    1669.233 493.831-1700.235  0.00  0.00    -0.648 OA
ENDBRANCH 161 162
ENDBRANCH 160 161
ENDBRANCH  86 160
ENDBRANCH   3  86
TORSDOF 69
