@<TRIPOS>MOLECULE
11-11
266 268 16              
SMALL
USER_CHARGES
@<TRIPOS>ATOM
1	   N	1763.318	528.188	-1804.668	N.3	1	GLU1	-0.516	
2	  CA	1763.877	529.537	-1804.668	C.3	1	GLU1	0.040	
3	   C	1765.386	529.497	-1804.668	C.2	1	GLU1	0.537	
4	   O	1766.062	530.196	-1805.437	O.2	1	GLU1	-0.582	
5	  CB	1763.354	530.322	-1803.431	C.3	1	GLU1	0.056	
6	  CG	1763.829	531.807	-1803.320	C.3	1	GLU1	0.014	
7	  CD	1763.405	532.611	-1802.105	C.2	1	GLU1	0.805	
8	 OE1	1762.677	532.109	-1801.227	O.co2	1	GLU1	-0.819	
9	 OE2	1763.835	533.781	-1802.033	O.co2	1	GLU1	-0.819	
10	   H	1763.945	527.309	-1804.668	 H	1	GLU1	0.294	
11	  HA	1763.551	530.055	-1805.588	 H	1	GLU1	0.111	
12	 2HB	1763.643	529.791	-1802.501	 H	1	GLU1	-0.017	
13	 3HB	1762.247	530.312	-1803.418	 H	1	GLU1	-0.017	
14	 2HG	1763.519	532.392	-1804.201	 H	1	GLU1	-0.043	
15	 3HG	1764.929	531.874	-1803.291	 H	1	GLU1	-0.043	
16	   N	1765.991	528.711	-1803.843	N.am	2	ASN2	-0.416	
17	  CA	1767.450	528.673	-1803.843	C.3	2	ASN2	0.014	
18	   C	1767.981	528.317	-1805.212	C.2	2	ASN2	0.597	
19	   O	1768.896	528.947	-1805.741	O.2	2	ASN2	-0.568	
20	  CB	1767.942	527.649	-1802.779	C.3	2	ASN2	-0.204	
21	  CG	1767.479	527.873	-1801.336	C.2	2	ASN2	0.713	
22	 ND2	1768.073	528.788	-1800.617	N.pl3	2	ASN2	-0.919	
23	 OD1	1766.558	527.240	-1800.841	O.2	2	ASN2	-0.593	
24	   H	1765.463	528.132	-1803.207	 H	2	ASN2	0.272	
25	  HA	1767.827	529.683	-1803.598	 H	2	ASN2	0.105	
26	 2HB	1769.046	527.590	-1802.782	 H	2	ASN2	0.080	
27	 3HB	1767.613	526.631	-1803.065	 H	2	ASN2	0.080	
28	1HD2	1767.592	528.961	-1799.731	 H	2	ASN2	0.420	
29	2HD2	1768.775	529.360	-1801.087	 H	2	ASN2	0.420	
30	   N	1767.460	527.322	-1805.846	N.am	3	PRO3	-0.255	
31	  CA	1767.911	526.913	-1807.167	C.3	3	PRO3	-0.027	
32	   C	1767.513	527.936	-1808.244	C.2	3	PRO3	0.590	
33	   O	1768.337	528.319	-1809.076	O.2	3	PRO3	-0.575	
34	  CB	1767.207	525.558	-1807.337	C.3	3	PRO3	-0.007	
35	  CG	1765.924	525.710	-1806.507	C.3	3	PRO3	0.019	
36	  CD	1766.382	526.529	-1805.297	C.3	3	PRO3	0.019	
37	  HA	1768.997	526.793	-1807.181	 H	3	PRO3	0.064	
38	 2HB	1767.830	524.777	-1806.896	 H	3	PRO3	0.025	
39	 3HB	1767.009	525.309	-1808.382	 H	3	PRO3	0.025	
40	 2HG	1765.496	524.748	-1806.215	 H	3	PRO3	0.021	
41	 3HG	1765.186	526.281	-1807.074	 H	3	PRO3	0.021	
42	 2HD	1766.771	525.879	-1804.509	 H	3	PRO3	0.039	
43	 3HD	1765.585	527.165	-1804.904	 H	3	PRO3	0.039	
44	   N	1766.309	528.396	-1808.277	N.am	4	GLU4	-0.516	
45	  CA	1765.949	529.367	-1809.306	C.3	4	GLU4	0.040	
46	   C	1766.848	530.578	-1809.245	C.2	4	GLU4	0.537	
47	   O	1767.374	531.058	-1810.260	O.2	4	GLU4	-0.582	
48	  CB	1764.460	529.786	-1809.136	C.3	4	GLU4	0.056	
49	  CG	1763.912	530.790	-1810.202	C.3	4	GLU4	0.014	
50	  CD	1762.486	531.286	-1810.058	C.2	4	GLU4	0.805	
51	 OE1	1761.760	530.888	-1809.127	O.co2	4	GLU4	-0.819	
52	 OE2	1762.096	532.116	-1810.906	O.co2	4	GLU4	-0.819	
53	   H	1765.624	528.089	-1807.600	 H	4	GLU4	0.294	
54	  HA	1766.080	528.897	-1810.297	 H	4	GLU4	0.111	
55	 2HB	1764.308	530.226	-1808.129	 H	4	GLU4	-0.017	
56	 3HB	1763.812	528.888	-1809.142	 H	4	GLU4	-0.017	
57	 2HG	1763.994	530.375	-1811.219	 H	4	GLU4	-0.043	
58	 3HG	1764.500	531.722	-1810.213	 H	4	GLU4	-0.043	
59	   N	1767.075	531.131	-1808.102	N.am	5	SER5	-0.416	
60	  CA	1767.945	532.302	-1808.044	C.3	5	SER5	-0.025	
61	   C	1769.304	531.997	-1808.629	C.2	5	SER5	0.597	
62	   O	1769.851	532.750	-1809.434	O.2	5	SER5	-0.568	
63	  CB	1768.056	532.835	-1806.593	C.3	5	SER5	0.212	
64	  OG	1768.788	531.955	-1805.732	O.3	5	SER5	-0.655	
65	   H	1766.658	530.759	-1807.260	 H	5	SER5	0.272	
66	  HA	1767.495	533.092	-1808.673	 H	5	SER5	0.084	
67	 2HB	1767.056	533.028	-1806.160	 H	5	SER5	0.035	
68	 3HB	1768.562	533.820	-1806.595	 H	5	SER5	0.035	
69	  HG	1768.299	531.130	-1805.681	 H	5	SER5	0.428	
70	   N	1769.909	530.914	-1808.275	N.am	6	ILE6	-0.416	
71	  CA	1771.222	530.619	-1808.841	C.3	6	ILE6	-0.060	
72	   C	1771.164	530.581	-1810.349	C.2	6	ILE6	0.597	
73	   O	1771.999	531.169	-1811.053	O.2	6	ILE6	-0.568	
74	  CB	1771.822	529.283	-1808.241	C.3	6	ILE6	0.130	
75	 CG1	1771.841	529.221	-1806.680	C.3	6	ILE6	-0.043	
76	 CG2	1773.263	528.981	-1808.756	C.3	6	ILE6	-0.320	
77	 CD1	1772.111	527.832	-1806.065	C.3	6	ILE6	-0.066	
78	   H	1769.480	530.279	-1807.616	 H	6	ILE6	0.272	
79	  HA	1771.896	531.453	-1808.573	 H	6	ILE6	0.087	
80	  HB	1771.164	528.457	-1808.585	 H	6	ILE6	0.019	
81	2HG1	1770.859	529.540	-1806.284	 H	6	ILE6	0.024	
82	3HG1	1772.557	529.963	-1806.276	 H	6	ILE6	0.024	
83	1HG2	1773.322	528.888	-1809.855	 H	6	ILE6	0.088	
84	2HG2	1773.985	529.764	-1808.454	 H	6	ILE6	0.088	
85	3HG2	1773.653	528.019	-1808.378	 H	6	ILE6	0.088	
86	1HD1	1771.383	527.077	-1806.420	 H	6	ILE6	0.019	
87	2HD1	1773.122	527.453	-1806.301	 H	6	ILE6	0.019	
88	3HD1	1772.035	527.861	-1804.963	 H	6	ILE6	0.019	
89	   N	1770.219	529.918	-1810.923	N.am	7	LEU7	-0.416	
90	  CA	1770.164	529.882	-1812.381	C.3	7	LEU7	-0.052	
91	   C	1770.091	531.277	-1812.954	C.2	7	LEU7	0.597	
92	   O	1770.812	531.640	-1813.896	O.2	7	LEU7	-0.568	
93	  CB	1768.961	529.021	-1812.861	C.3	7	LEU7	-0.110	
94	  CG	1768.888	527.542	-1812.395	C.3	7	LEU7	0.353	
95	 CD1	1767.698	526.836	-1813.061	C.3	7	LEU7	-0.412	
96	 CD2	1770.182	526.763	-1812.687	C.3	7	LEU7	-0.412	
97	   H	1769.527	529.431	-1810.371	 H	7	LEU7	0.272	
98	  HA	1771.106	529.442	-1812.755	 H	7	LEU7	0.092	
99	 2HB	1768.938	529.037	-1813.969	 H	7	LEU7	0.046	
100	 3HB	1768.021	529.524	-1812.557	 H	7	LEU7	0.046	
101	  HG	1768.719	527.534	-1811.298	 H	7	LEU7	-0.036	
102	1HD1	1766.741	527.345	-1812.838	 H	7	LEU7	0.100	
103	2HD1	1767.798	526.796	-1814.162	 H	7	LEU7	0.100	
104	3HD1	1767.592	525.795	-1812.705	 H	7	LEU7	0.100	
105	1HD2	1770.457	526.793	-1813.757	 H	7	LEU7	0.100	
106	2HD2	1771.035	527.175	-1812.115	 H	7	LEU7	0.100	
107	3HD2	1770.101	525.701	-1812.391	 H	7	LEU7	0.100	
108	   N	1769.254	532.117	-1812.447	N.am	8	ASP8	-0.516	
109	  CA	1769.183	533.467	-1813.000	C.3	8	ASP8	0.038	
110	   C	1770.530	534.147	-1812.943	C.2	8	ASP8	0.537	
111	   O	1771.002	534.753	-1813.918	O.2	8	ASP8	-0.582	
112	  CB	1768.105	534.306	-1812.259	C.3	8	ASP8	-0.030	
113	  CG	1767.886	535.726	-1812.799	C.2	8	ASP8	0.799	
114	 OD1	1767.950	535.926	-1814.030	O.co2	8	ASP8	-0.801	
115	 OD2	1767.693	536.652	-1811.983	O.co2	8	ASP8	-0.801	
116	   H	1768.656	531.846	-1811.680	 H	8	ASP8	0.294	
117	  HA	1768.900	533.389	-1814.068	 H	8	ASP8	0.088	
118	 2HB	1768.362	534.389	-1811.187	 H	8	ASP8	-0.012	
119	 3HB	1767.126	533.800	-1812.292	 H	8	ASP8	-0.012	
120	   N	1771.209	534.097	-1811.848	N.am	9	GLU9	-0.516	
121	  CA	1772.512	534.755	-1811.793	C.3	9	GLU9	0.040	
122	   C	1773.430	534.228	-1812.869	C.2	9	GLU9	0.537	
123	   O	1774.094	534.983	-1813.594	O.2	9	GLU9	-0.582	
124	  CB	1773.146	534.548	-1810.387	C.3	9	GLU9	0.056	
125	  CG	1774.528	535.241	-1810.158	C.3	9	GLU9	0.014	
126	  CD	1775.230	535.027	-1808.830	C.2	9	GLU9	0.805	
127	 OE1	1774.709	534.336	-1807.934	O.co2	9	GLU9	-0.819	
128	 OE2	1776.349	535.566	-1808.698	O.co2	9	GLU9	-0.819	
129	   H	1770.846	533.610	-1811.041	 H	9	GLU9	0.294	
130	  HA	1772.369	535.837	-1811.968	 H	9	GLU9	0.111	
131	 2HB	1773.259	533.463	-1810.184	 H	9	GLU9	-0.017	
132	 3HB	1772.449	534.901	-1809.603	 H	9	GLU9	-0.017	
133	 2HG	1774.456	536.331	-1810.298	 H	9	GLU9	-0.043	
134	 3HG	1775.275	534.896	-1810.892	 H	9	GLU9	-0.043	
135	   N	1773.527	532.953	-1813.038	N.am	10	HIS10	-0.416	
136	  CA	1774.415	532.442	-1814.079	C.3	10	HIS10	-0.058	
137	   C	1774.048	533.007	-1815.430	C.2	10	HIS10	0.597	
138	   O	1774.900	533.472	-1816.202	O.2	10	HIS10	-0.568	
139	  CB	1774.252	530.913	-1814.075	C.3	10	HIS10	-0.007	
140	  CG	1775.538	530.204	-1813.767	C.2	10	HIS10	0.187	
141	 CD2	1775.919	529.868	-1812.474	C.2	10	HIS10	-0.221	
142	 ND1	1776.490	529.799	-1814.700	N.2	10	HIS10	-0.543	
143	 CE1	1777.397	529.241	-1813.877	C.2	10	HIS10	0.163	
144	 NE2	1777.135	529.237	-1812.542	N.pl3	10	HIS10	-0.280	
145	   H	1772.997	532.317	-1812.460	 H	10	HIS10	0.272	
146	  HA	1775.434	532.800	-1813.854	 H	10	HIS10	0.136	
147	 2HB	1773.887	530.547	-1815.054	 H	10	HIS10	0.037	
148	 3HB	1773.497	530.576	-1813.335	 H	10	HIS10	0.037	
149	 2HD	1775.334	530.083	-1811.585	 H	10	HIS10	0.186	
150	 1HE	1778.288	528.820	-1814.324	 H	10	HIS10	0.144	
151	 2HE	1777.702	528.860	-1811.768	 H	10	HIS10	0.334	
152	   N	1772.810	533.006	-1815.793	N.am	11	HIS11	-0.416	
153	  CA	1772.454	533.552	-1817.099	C.3	11	HIS11	-0.058	
154	   C	1772.916	534.982	-1817.233	C.2	11	HIS11	0.597	
155	   O	1773.517	535.388	-1818.240	O.2	11	HIS11	-0.568	
156	  CB	1770.921	533.472	-1817.198	C.3	11	HIS11	-0.007	
157	  CG	1770.467	532.611	-1818.340	C.2	11	HIS11	0.187	
158	 CD2	1770.232	531.249	-1818.206	C.2	11	HIS11	-0.221	
159	 ND1	1770.229	533.043	-1819.643	N.2	11	HIS11	-0.543	
160	 CE1	1769.863	531.878	-1820.209	C.2	11	HIS11	0.163	
161	 NE2	1769.835	530.766	-1819.426	N.pl3	11	HIS11	-0.280	
162	   H	1772.097	532.632	-1815.182	 H	11	HIS11	0.272	
163	  HA	1772.998	532.971	-1817.864	 H	11	HIS11	0.136	
164	 2HB	1770.476	534.478	-1817.332	 H	11	HIS11	0.037	
165	 3HB	1770.463	533.069	-1816.271	 H	11	HIS11	0.037	
166	 2HD	1770.350	530.693	-1817.281	 H	11	HIS11	0.186	
167	 1HE	1769.607	531.890	-1821.260	 H	11	HIS11	0.144	
168	 2HE	1769.583	529.799	-1819.678	 H	11	HIS11	0.334	
169	   N	1772.679	535.809	-1816.271	N.am	12	GLN12	-0.416	
170	  CA	1773.126	537.192	-1816.400	C.3	12	GLN12	-0.003	
171	   C	1774.616	537.260	-1816.639	C.2	12	GLN12	0.597	
172	   O	1775.102	537.969	-1817.519	O.2	12	GLN12	-0.568	
173	  CB	1772.736	537.960	-1815.118	C.3	12	GLN12	-0.004	
174	  CG	1773.095	539.482	-1815.088	C.3	12	GLN12	-0.064	
175	  CD	1772.793	540.296	-1813.823	C.2	12	GLN12	0.695	
176	 NE2	1772.227	539.720	-1812.793	N.pl3	12	GLN12	-0.941	
177	 OE1	1773.094	541.478	-1813.747	O.2	12	GLN12	-0.609	
178	   H	1772.192	535.503	-1815.441	 H	12	GLN12	0.272	
179	  HA	1772.626	537.647	-1817.275	 H	12	GLN12	0.085	
180	 2HB	1773.213	537.461	-1814.248	 H	12	GLN12	0.017	
181	 3HB	1771.646	537.852	-1814.953	 H	12	GLN12	0.017	
182	 2HG	1772.616	540.002	-1815.939	 H	12	GLN12	0.035	
183	 3HG	1774.178	539.625	-1815.255	 H	12	GLN12	0.035	
184	1HE2	1772.120	540.315	-1811.970	 H	12	GLN12	0.425	
185	2HE2	1772.065	538.716	-1812.896	 H	12	GLN12	0.425	
186	   N	1775.402	536.555	-1815.899	N.am	13	ARG13	-0.348	
187	  CA	1776.842	536.622	-1816.131	C.3	13	ARG13	-0.264	
188	   C	1777.177	536.249	-1817.556	C.2	13	ARG13	0.734	
189	   O	1777.945	536.921	-1818.241	O.2	13	ARG13	-0.589	
190	  CB	1777.557	535.684	-1815.117	C.3	13	ARG13	-0.001	
191	  CG	1779.102	535.838	-1815.037	C.3	13	ARG13	0.039	
192	  CD	1779.730	534.851	-1814.039	C.3	13	ARG13	0.049	
193	  NE	1781.207	535.059	-1813.990	N.pl3	13	ARG13	-0.530	
194	  CZ	1782.056	534.369	-1813.235	C.cat	13	ARG13	0.808	
195	 NH1	1781.692	533.404	-1812.437	N.pl3	13	ARG13	-0.863	
196	 NH2	1783.315	534.668	-1813.293	N.pl3	13	ARG13	-0.863	
197	   H	1775.027	535.965	-1815.169	 H	13	ARG13	0.275	
198	  HA	1777.166	537.668	-1815.973	 H	13	ARG13	0.156	
199	 2HB	1777.291	534.633	-1815.355	 H	13	ARG13	0.033	
200	 3HB	1777.132	535.850	-1814.106	 H	13	ARG13	0.033	
201	 2HG	1779.349	536.883	-1814.758	 H	13	ARG13	0.029	
202	 3HG	1779.552	535.681	-1816.039	 H	13	ARG13	0.029	
203	 2HD	1779.486	533.811	-1814.347	 H	13	ARG13	0.069	
204	 3HD	1779.274	534.997	-1813.036	 H	13	ARG13	0.069	
205	  HE	1781.657	535.782	-1814.561	 H	13	ARG13	0.346	
206	1HH1	1780.687	533.218	-1812.439	 H	13	ARG13	0.448	
207	2HH1	1782.406	532.922	-1811.888	 H	13	ARG13	0.448	
208	1HH2	1783.582	535.426	-1813.925	 H	13	ARG13	0.448	
209	2HH2	1783.952	534.128	-1812.704	 H	13	ARG13	0.448	
210	   N	1776.641	535.194	-1818.069	N.am	14	VAL14	-0.416	
211	  CA	1776.965	534.834	-1819.446	C.3	14	VAL14	-0.087	
212	   C	1776.633	535.963	-1820.392	C.2	14	VAL14	0.597	
213	   O	1777.426	536.345	-1821.263	O.2	14	VAL14	-0.568	
214	  CB	1776.194	533.516	-1819.851	C.3	14	VAL14	0.299	
215	 CG1	1776.282	533.097	-1821.345	C.3	14	VAL14	-0.319	
216	 CG2	1776.627	532.265	-1819.051	C.3	14	VAL14	-0.319	
217	   H	1776.007	534.626	-1817.526	 H	14	VAL14	0.272	
218	  HA	1778.054	534.658	-1819.522	 H	14	VAL14	0.097	
219	  HB	1775.117	533.687	-1819.635	 H	14	VAL14	-0.030	
220	1HG1	1777.323	532.921	-1821.675	 H	14	VAL14	0.079	
221	2HG1	1775.709	532.173	-1821.556	 H	14	VAL14	0.079	
222	3HG1	1775.851	533.859	-1822.023	 H	14	VAL14	0.079	
223	1HG2	1776.541	532.424	-1817.960	 H	14	VAL14	0.079	
224	2HG2	1775.992	531.388	-1819.282	 H	14	VAL14	0.079	
225	3HG2	1777.675	531.976	-1819.257	 H	14	VAL14	0.079	
226	   N	1775.488	536.548	-1820.290	N.am	15	MET15	-0.416	
227	  CA	1775.166	537.640	-1821.204	C.3	15	MET15	-0.024	
228	   C	1776.196	538.741	-1821.118	C.2	15	MET15	0.597	
229	   O	1776.698	539.251	-1822.131	O.2	15	MET15	-0.568	
230	  CB	1773.745	538.185	-1820.894	C.3	15	MET15	0.034	
231	  CG	1772.583	537.186	-1821.084	C.3	15	MET15	0.002	
232	  SD	1771.009	538.051	-1820.969	S.3	15	MET15	-0.274	
233	  CE	1769.929	536.621	-1820.830	C.3	15	MET15	-0.054	
234	   H	1774.824	536.255	-1819.587	 H	15	MET15	0.272	
235	  HA	1775.192	537.252	-1822.239	 H	15	MET15	0.088	
236	 2HB	1773.541	539.063	-1821.536	 H	15	MET15	0.024	
237	 3HB	1773.710	538.578	-1819.858	 H	15	MET15	0.024	
238	 2HG	1772.628	536.401	-1820.306	 H	15	MET15	0.044	
239	 3HG	1772.646	536.670	-1822.060	 H	15	MET15	0.044	
240	 1HE	1770.072	535.932	-1821.682	 H	15	MET15	0.068	
241	 2HE	1770.139	536.069	-1819.897	 H	15	MET15	0.068	
242	 3HE	1768.871	536.936	-1820.813	 H	15	MET15	0.068	
243	   N	1776.565	539.163	-1819.956	N.am	16	ARG16	-0.348	
244	  CA	1777.561	540.227	-1819.874	C.3	16	ARG16	-0.264	
245	   C	1778.832	539.835	-1820.591	C.2	16	ARG16	0.734	
246	   O	1778.946	538.758	-1821.172	O.2	16	ARG16	-0.589	
247	  CB	1777.831	540.547	-1818.376	C.3	16	ARG16	-0.001	
248	  CG	1778.656	541.836	-1818.104	C.3	16	ARG16	0.039	
249	  CD	1778.906	542.057	-1816.604	C.3	16	ARG16	0.049	
250	  NE	1779.682	543.316	-1816.404	N.pl3	16	ARG16	-0.530	
251	  CZ	1780.073	543.800	-1815.229	C.cat	16	ARG16	0.808	
252	 NH1	1779.827	543.216	-1814.090	N.pl3	16	ARG16	-0.863	
253	 NH2	1780.737	544.913	-1815.211	N.pl3	16	ARG16	-0.863	
254	   H	1776.172	538.763	-1819.116	 H	16	ARG16	0.275	
255	  HA	1777.151	541.120	-1820.384	 H	16	ARG16	0.156	
256	 2HB	1778.329	539.671	-1817.909	 H	16	ARG16	0.033	
257	 3HB	1776.863	540.627	-1817.841	 H	16	ARG16	0.033	
258	 2HG	1778.124	542.707	-1818.542	 H	16	ARG16	0.029	
259	 3HG	1779.629	541.784	-1818.634	 H	16	ARG16	0.029	
260	 2HD	1779.456	541.183	-1816.190	 H	16	ARG16	0.069	
261	 3HD	1777.934	542.099	-1816.068	 H	16	ARG16	0.069	
262	  HE	1779.959	543.897	-1817.201	 H	16	ARG16	0.346	
263	1HH1	1779.302	542.342	-1814.173	 H	16	ARG16	0.448	
264	2HH1	1780.162	543.652	-1813.229	 H	16	ARG16	0.448	
265	1HH2	1780.921	545.355	-1816.113	 H	16	ARG16	0.448	
266	2HH2	1781.027	545.268	-1814.299	 H	16	ARG16	0.448	
@<TRIPOS>BOND
1 1 2 1
2 1 10 1
3 2 3 1
4 2 5 1
5 2 11 1
6 3 4 2
7 3 16 1
8 5 6 1
9 6 7 1
10 7 8 2
11 7 9 1
12 5 12 1
13 5 13 1
14 6 14 1
15 6 15 1
16 16 17 1
17 16 24 1
18 17 18 1
19 17 20 1
20 17 25 1
21 18 19 2
22 18 30 1
23 20 21 1
24 21 22 1
25 21 23 2
26 20 26 1
27 20 27 1
28 22 28 1
29 22 29 1
30 30 31 1
31 30 36 1
32 31 32 1
33 31 34 1
34 31 37 1
35 32 33 2
36 32 44 1
37 34 35 1
38 35 36 1
39 34 38 1
40 34 39 1
41 35 40 1
42 35 41 1
43 36 42 1
44 36 43 1
45 44 45 1
46 44 53 1
47 45 46 1
48 45 48 1
49 45 54 1
50 46 47 2
51 46 59 1
52 48 49 1
53 49 50 1
54 50 51 2
55 50 52 1
56 48 55 1
57 48 56 1
58 49 57 1
59 49 58 1
60 59 60 1
61 59 65 1
62 60 61 1
63 60 63 1
64 60 66 1
65 61 62 2
66 61 70 1
67 63 64 1
68 63 67 1
69 63 68 1
70 64 69 1
71 70 71 1
72 70 78 1
73 71 72 1
74 71 74 1
75 71 79 1
76 72 73 2
77 72 89 1
78 74 75 1
79 74 76 1
80 75 77 1
81 74 80 1
82 75 81 1
83 75 82 1
84 76 83 1
85 76 84 1
86 76 85 1
87 77 86 1
88 77 87 1
89 77 88 1
90 89 90 1
91 89 97 1
92 90 91 1
93 90 93 1
94 90 98 1
95 91 92 2
96 91 108 1
97 93 94 1
98 94 95 1
99 94 96 1
100 93 99 1
101 93 100 1
102 94 101 1
103 95 102 1
104 95 103 1
105 95 104 1
106 96 105 1
107 96 106 1
108 96 107 1
109 108 109 1
110 108 116 1
111 109 110 1
112 109 112 1
113 109 117 1
114 110 111 2
115 110 120 1
116 112 113 1
117 113 114 2
118 113 115 1
119 112 118 1
120 112 119 1
121 120 121 1
122 120 129 1
123 121 122 1
124 121 124 1
125 121 130 1
126 122 123 2
127 122 135 1
128 124 125 1
129 125 126 1
130 126 127 2
131 126 128 1
132 124 131 1
133 124 132 1
134 125 133 1
135 125 134 1
136 135 136 1
137 135 145 1
138 136 137 1
139 136 139 1
140 136 146 1
141 137 138 2
142 137 152 1
143 139 140 1
144 140 141 2
145 141 144 1
146 140 142 1
147 142 143 2
148 143 144 1
149 139 147 1
150 139 148 1
151 141 149 1
152 143 150 1
153 144 151 1
154 152 153 1
155 152 162 1
156 153 154 1
157 153 156 1
158 153 163 1
159 154 155 2
160 154 169 1
161 156 157 1
162 157 158 2
163 158 161 1
164 157 159 1
165 159 160 2
166 160 161 1
167 156 164 1
168 156 165 1
169 158 166 1
170 160 167 1
171 161 168 1
172 169 170 1
173 169 178 1
174 170 171 1
175 170 173 1
176 170 179 1
177 171 172 2
178 171 186 1
179 173 174 1
180 174 175 1
181 175 176 1
182 175 177 2
183 173 180 1
184 173 181 1
185 174 182 1
186 174 183 1
187 176 184 1
188 176 185 1
189 186 187 1
190 186 197 1
191 187 188 1
192 187 190 1
193 187 198 1
194 188 189 2
195 188 210 1
196 190 191 1
197 191 192 1
198 192 193 1
199 193 194 1
200 194 195 2
201 194 196 1
202 190 199 1
203 190 200 1
204 191 201 1
205 191 202 1
206 192 203 1
207 192 204 1
208 193 205 1
209 195 206 1
210 195 207 1
211 196 208 1
212 196 209 1
213 210 211 1
214 210 217 1
215 211 212 1
216 211 214 1
217 211 218 1
218 212 213 2
219 212 226 1
220 214 215 1
221 214 216 1
222 214 219 1
223 215 220 1
224 215 221 1
225 215 222 1
226 216 223 1
227 216 224 1
228 216 225 1
229 226 227 1
230 226 234 1
231 227 228 1
232 227 230 1
233 227 235 1
234 228 229 2
235 228 243 1
236 230 231 1
237 231 232 1
238 232 233 1
239 230 236 1
240 230 237 1
241 231 238 1
242 231 239 1
243 233 240 1
244 233 241 1
245 233 242 1
246 243 244 1
247 243 254 1
248 244 245 1
249 244 247 1
250 244 255 1
251 245 246 2
252 247 248 1
253 248 249 1
254 249 250 1
255 250 251 1
256 251 252 2
257 251 253 1
258 247 256 1
259 247 257 1
260 248 258 1
261 248 259 1
262 249 260 1
263 249 261 1
264 250 262 1
265 252 263 1
266 252 264 1
267 253 265 1
268 253 266 1
@<TRIPOS>SUBSTRUCTURE
1	GLU1	1	RESIDUE	1 ****	GLU
2	ASN2	16	RESIDUE	1 ****	ASN
3	PRO3	30	RESIDUE	1 ****	PRO
4	GLU4	44	RESIDUE	1 ****	GLU
5	SER5	59	RESIDUE	1 ****	SER
6	ILE6	70	RESIDUE	1 ****	ILE
7	LEU7	89	RESIDUE	1 ****	LEU
8	ASP8	108	RESIDUE	1 ****	ASP
9	GLU9	120	RESIDUE	1 ****	GLU
10	HIS10	135	RESIDUE	1 ****	HIS
11	HIS11	152	RESIDUE	1 ****	HIS
12	GLN12	169	RESIDUE	1 ****	GLN
13	ARG13	186	RESIDUE	1 ****	ARG
14	VAL14	210	RESIDUE	1 ****	VAL
15	MET15	226	RESIDUE	1 ****	MET
16	ARG16	243	RESIDUE	1 ****	ARG
