@<TRIPOS>MOLECULE
12-2
262 264 16              
SMALL
USER_CHARGES
@<TRIPOS>ATOM
1	   N	1853.840	557.550	-1902.701	N.3	1	GLU1	-0.516	
2	  CA	1854.399	558.899	-1902.701	C.3	1	GLU1	0.040	
3	   C	1855.908	558.859	-1902.701	C.2	1	GLU1	0.537	
4	   O	1856.584	559.558	-1903.470	O.2	1	GLU1	-0.582	
5	  CB	1853.876	559.684	-1901.464	C.3	1	GLU1	0.056	
6	  CG	1854.351	561.169	-1901.353	C.3	1	GLU1	0.014	
7	  CD	1853.927	561.973	-1900.138	C.2	1	GLU1	0.805	
8	 OE1	1853.199	561.471	-1899.260	O.co2	1	GLU1	-0.819	
9	 OE2	1854.357	563.143	-1900.066	O.co2	1	GLU1	-0.819	
10	   H	1854.467	556.671	-1902.701	 H	1	GLU1	0.294	
11	  HA	1854.073	559.417	-1903.621	 H	1	GLU1	0.111	
12	 2HB	1854.165	559.153	-1900.534	 H	1	GLU1	-0.017	
13	 3HB	1852.769	559.674	-1901.451	 H	1	GLU1	-0.017	
14	 2HG	1854.041	561.754	-1902.234	 H	1	GLU1	-0.043	
15	 3HG	1855.451	561.236	-1901.324	 H	1	GLU1	-0.043	
16	   N	1856.513	558.073	-1901.876	N.am	2	ASN2	-0.416	
17	  CA	1857.972	558.035	-1901.876	C.3	2	ASN2	0.014	
18	   C	1858.503	557.679	-1903.245	C.2	2	ASN2	0.597	
19	   O	1859.418	558.310	-1903.773	O.2	2	ASN2	-0.568	
20	  CB	1858.464	557.012	-1900.812	C.3	2	ASN2	-0.204	
21	  CG	1858.001	557.236	-1899.368	C.2	2	ASN2	0.713	
22	 ND2	1858.595	558.151	-1898.650	N.pl3	2	ASN2	-0.919	
23	 OD1	1857.080	556.602	-1898.874	O.2	2	ASN2	-0.593	
24	   H	1855.985	557.494	-1901.239	 H	2	ASN2	0.272	
25	  HA	1858.349	559.045	-1901.631	 H	2	ASN2	0.105	
26	 2HB	1859.568	556.953	-1900.815	 H	2	ASN2	0.080	
27	 3HB	1858.135	555.994	-1901.097	 H	2	ASN2	0.080	
28	1HD2	1858.115	558.324	-1897.763	 H	2	ASN2	0.420	
29	2HD2	1859.297	558.722	-1899.119	 H	2	ASN2	0.420	
30	   N	1857.982	556.684	-1903.879	N.am	3	PRO3	-0.255	
31	  CA	1858.433	556.275	-1905.200	C.3	3	PRO3	-0.027	
32	   C	1858.035	557.298	-1906.277	C.2	3	PRO3	0.590	
33	   O	1858.859	557.681	-1907.109	O.2	3	PRO3	-0.575	
34	  CB	1857.729	554.920	-1905.369	C.3	3	PRO3	-0.007	
35	  CG	1856.446	555.072	-1904.539	C.3	3	PRO3	0.019	
36	  CD	1856.904	555.891	-1903.329	C.3	3	PRO3	0.019	
37	  HA	1859.519	556.155	-1905.214	 H	3	PRO3	0.064	
38	 2HB	1858.352	554.139	-1904.929	 H	3	PRO3	0.025	
39	 3HB	1857.531	554.672	-1906.415	 H	3	PRO3	0.025	
40	 2HG	1856.019	554.110	-1904.248	 H	3	PRO3	0.021	
41	 3HG	1855.708	555.643	-1905.106	 H	3	PRO3	0.021	
42	 2HD	1857.293	555.242	-1902.542	 H	3	PRO3	0.039	
43	 3HD	1856.107	556.527	-1902.936	 H	3	PRO3	0.039	
44	   N	1856.831	557.758	-1906.309	N.am	4	GLU4	-0.516	
45	  CA	1856.471	558.729	-1907.339	C.3	4	GLU4	0.040	
46	   C	1857.370	559.940	-1907.278	C.2	4	GLU4	0.537	
47	   O	1857.896	560.420	-1908.292	O.2	4	GLU4	-0.582	
48	  CB	1854.983	559.148	-1907.169	C.3	4	GLU4	0.056	
49	  CG	1854.435	560.152	-1908.234	C.3	4	GLU4	0.014	
50	  CD	1853.008	560.649	-1908.091	C.2	4	GLU4	0.805	
51	 OE1	1852.282	560.250	-1907.160	O.co2	4	GLU4	-0.819	
52	 OE2	1852.618	561.478	-1908.939	O.co2	4	GLU4	-0.819	
53	   H	1856.146	557.452	-1905.633	 H	4	GLU4	0.294	
54	  HA	1856.602	558.259	-1908.330	 H	4	GLU4	0.111	
55	 2HB	1854.830	559.588	-1906.162	 H	4	GLU4	-0.017	
56	 3HB	1854.335	558.250	-1907.175	 H	4	GLU4	-0.017	
57	 2HG	1854.516	559.737	-1909.252	 H	4	GLU4	-0.043	
58	 3HG	1855.023	561.084	-1908.245	 H	4	GLU4	-0.043	
59	   N	1857.597	560.493	-1906.135	N.am	5	SER5	-0.416	
60	  CA	1858.467	561.664	-1906.076	C.3	5	SER5	-0.025	
61	   C	1859.826	561.359	-1906.662	C.2	5	SER5	0.597	
62	   O	1860.373	562.112	-1907.467	O.2	5	SER5	-0.568	
63	  CB	1858.578	562.197	-1904.626	C.3	5	SER5	0.212	
64	  OG	1859.310	561.318	-1903.765	O.3	5	SER5	-0.655	
65	   H	1857.180	560.122	-1905.293	 H	5	SER5	0.272	
66	  HA	1858.017	562.455	-1906.705	 H	5	SER5	0.084	
67	 2HB	1857.578	562.390	-1904.192	 H	5	SER5	0.035	
68	 3HB	1859.084	563.182	-1904.628	 H	5	SER5	0.035	
69	  HG	1858.822	560.493	-1903.714	 H	5	SER5	0.428	
70	   N	1860.431	560.276	-1906.307	N.am	6	ILE6	-0.416	
71	  CA	1861.744	559.981	-1906.874	C.3	6	ILE6	-0.060	
72	   C	1861.687	559.944	-1908.381	C.2	6	ILE6	0.597	
73	   O	1862.521	560.532	-1909.085	O.2	6	ILE6	-0.568	
74	  CB	1862.344	558.645	-1906.274	C.3	6	ILE6	0.130	
75	 CG1	1862.363	558.583	-1904.713	C.3	6	ILE6	-0.043	
76	 CG2	1863.785	558.343	-1906.789	C.3	6	ILE6	-0.320	
77	 CD1	1862.633	557.194	-1904.098	C.3	6	ILE6	-0.066	
78	   H	1860.002	559.642	-1905.648	 H	6	ILE6	0.272	
79	  HA	1862.418	560.816	-1906.606	 H	6	ILE6	0.087	
80	  HB	1861.686	557.819	-1906.618	 H	6	ILE6	0.019	
81	2HG1	1861.381	558.903	-1904.317	 H	6	ILE6	0.024	
82	3HG1	1863.079	559.325	-1904.308	 H	6	ILE6	0.024	
83	1HG2	1863.844	558.250	-1907.888	 H	6	ILE6	0.088	
84	2HG2	1864.507	559.126	-1906.487	 H	6	ILE6	0.088	
85	3HG2	1864.175	557.381	-1906.410	 H	6	ILE6	0.088	
86	1HD1	1861.905	556.440	-1904.452	 H	6	ILE6	0.019	
87	2HD1	1863.644	556.815	-1904.334	 H	6	ILE6	0.019	
88	3HD1	1862.557	557.224	-1902.995	 H	6	ILE6	0.019	
89	   N	1860.741	559.280	-1908.955	N.am	7	LEU7	-0.416	
90	  CA	1860.686	559.244	-1910.414	C.3	7	LEU7	-0.052	
91	   C	1860.613	560.639	-1910.986	C.2	7	LEU7	0.597	
92	   O	1861.334	561.002	-1911.928	O.2	7	LEU7	-0.568	
93	  CB	1859.483	558.383	-1910.894	C.3	7	LEU7	-0.110	
94	  CG	1859.410	556.904	-1910.428	C.3	7	LEU7	0.353	
95	 CD1	1858.221	556.198	-1911.093	C.3	7	LEU7	-0.412	
96	 CD2	1860.704	556.125	-1910.719	C.3	7	LEU7	-0.412	
97	   H	1860.049	558.793	-1908.404	 H	7	LEU7	0.272	
98	  HA	1861.628	558.804	-1910.788	 H	7	LEU7	0.092	
99	 2HB	1859.460	558.399	-1912.002	 H	7	LEU7	0.046	
100	 3HB	1858.543	558.886	-1910.590	 H	7	LEU7	0.046	
101	  HG	1859.241	556.896	-1909.331	 H	7	LEU7	-0.036	
102	1HD1	1857.263	556.707	-1910.871	 H	7	LEU7	0.100	
103	2HD1	1858.320	556.158	-1912.194	 H	7	LEU7	0.100	
104	3HD1	1858.114	555.157	-1910.737	 H	7	LEU7	0.100	
105	1HD2	1860.979	556.156	-1911.789	 H	7	LEU7	0.100	
106	2HD2	1861.557	556.537	-1910.148	 H	7	LEU7	0.100	
107	3HD2	1860.623	555.063	-1910.423	 H	7	LEU7	0.100	
108	   N	1859.776	561.480	-1910.480	N.am	8	ASP8	-0.516	
109	  CA	1859.705	562.829	-1911.033	C.3	8	ASP8	0.038	
110	   C	1861.052	563.509	-1910.976	C.2	8	ASP8	0.537	
111	   O	1861.524	564.115	-1911.950	O.2	8	ASP8	-0.582	
112	  CB	1858.627	563.668	-1910.291	C.3	8	ASP8	-0.030	
113	  CG	1858.408	565.089	-1910.832	C.2	8	ASP8	0.799	
114	 OD1	1858.472	565.288	-1912.062	O.co2	8	ASP8	-0.801	
115	 OD2	1858.215	566.014	-1910.016	O.co2	8	ASP8	-0.801	
116	   H	1859.178	561.208	-1909.713	 H	8	ASP8	0.294	
117	  HA	1859.422	562.751	-1912.100	 H	8	ASP8	0.088	
118	 2HB	1858.884	563.751	-1909.219	 H	8	ASP8	-0.012	
119	 3HB	1857.648	563.163	-1910.324	 H	8	ASP8	-0.012	
120	   N	1861.732	563.459	-1909.880	N.am	9	GLU9	-0.516	
121	  CA	1863.034	564.117	-1909.825	C.3	9	GLU9	0.040	
122	   C	1863.952	563.590	-1910.901	C.2	9	GLU9	0.537	
123	   O	1864.616	564.345	-1911.627	O.2	9	GLU9	-0.582	
124	  CB	1863.668	563.910	-1908.420	C.3	9	GLU9	0.056	
125	  CG	1865.050	564.603	-1908.191	C.3	9	GLU9	0.014	
126	  CD	1865.752	564.390	-1906.863	C.2	9	GLU9	0.805	
127	 OE1	1865.231	563.698	-1905.966	O.co2	9	GLU9	-0.819	
128	 OE2	1866.871	564.928	-1906.731	O.co2	9	GLU9	-0.819	
129	   H	1861.368	562.973	-1909.073	 H	9	GLU9	0.294	
130	  HA	1862.891	565.199	-1910.000	 H	9	GLU9	0.111	
131	 2HB	1863.781	562.825	-1908.217	 H	9	GLU9	-0.017	
132	 3HB	1862.971	564.263	-1907.635	 H	9	GLU9	-0.017	
133	 2HG	1864.978	565.694	-1908.330	 H	9	GLU9	-0.043	
134	 3HG	1865.797	564.258	-1908.925	 H	9	GLU9	-0.043	
135	   N	1864.049	562.315	-1911.071	N.am	10	HIS10	-0.416	
136	  CA	1864.937	561.805	-1912.112	C.3	10	HIS10	-0.058	
137	   C	1864.570	562.369	-1913.463	C.2	10	HIS10	0.597	
138	   O	1865.422	562.835	-1914.234	O.2	10	HIS10	-0.568	
139	  CB	1864.774	560.276	-1912.107	C.3	10	HIS10	-0.007	
140	  CG	1866.060	559.566	-1911.799	C.2	10	HIS10	0.187	
141	 CD2	1866.441	559.230	-1910.507	C.2	10	HIS10	-0.221	
142	 ND1	1867.012	559.161	-1912.732	N.2	10	HIS10	-0.543	
143	 CE1	1867.919	558.603	-1911.909	C.2	10	HIS10	0.163	
144	 NE2	1867.657	558.599	-1910.574	N.pl3	10	HIS10	-0.280	
145	   H	1863.519	561.679	-1910.493	 H	10	HIS10	0.272	
146	  HA	1865.956	562.162	-1911.887	 H	10	HIS10	0.136	
147	 2HB	1864.409	559.909	-1913.087	 H	10	HIS10	0.037	
148	 3HB	1864.019	559.938	-1911.367	 H	10	HIS10	0.037	
149	 2HD	1865.856	559.445	-1909.618	 H	10	HIS10	0.186	
150	 1HE	1868.810	558.182	-1912.356	 H	10	HIS10	0.144	
151	 2HE	1868.224	558.222	-1909.801	 H	10	HIS10	0.334	
152	   N	1863.332	562.368	-1913.825	N.am	11	VAL11	-0.416	
153	  CA	1862.976	562.914	-1915.132	C.3	11	VAL11	-0.087	
154	   C	1863.440	564.345	-1915.264	C.2	11	VAL11	0.597	
155	   O	1864.040	564.750	-1916.267	O.2	11	VAL11	-0.568	
156	  CB	1861.415	562.807	-1915.351	C.3	11	VAL11	0.299	
157	 CG1	1860.846	563.510	-1916.614	C.3	11	VAL11	-0.319	
158	 CG2	1860.891	561.352	-1915.425	C.3	11	VAL11	-0.319	
159	   H	1862.619	561.994	-1913.215	 H	11	VAL11	0.272	
160	  HA	1863.496	562.332	-1915.915	 H	11	VAL11	0.097	
161	  HB	1860.927	563.286	-1914.476	 H	11	VAL11	-0.030	
162	1HG1	1861.284	563.119	-1917.551	 H	11	VAL11	0.079	
163	2HG1	1859.747	563.402	-1916.695	 H	11	VAL11	0.079	
164	3HG1	1861.023	564.603	-1916.604	 H	11	VAL11	0.079	
165	1HG2	1861.182	560.765	-1914.534	 H	11	VAL11	0.079	
166	2HG2	1859.786	561.314	-1915.467	 H	11	VAL11	0.079	
167	3HG2	1861.273	560.812	-1916.311	 H	11	VAL11	0.079	
168	   N	1863.202	565.170	-1914.302	N.am	12	PRO12	-0.255	
169	  CA	1863.614	566.565	-1914.348	C.3	12	PRO12	-0.027	
170	   C	1865.141	566.710	-1914.228	C.2	12	PRO12	0.590	
171	   O	1865.760	567.443	-1914.999	O.2	12	PRO12	-0.575	
172	  CB	1862.859	567.157	-1913.148	C.3	12	PRO12	-0.007	
173	  CG	1862.745	565.977	-1912.172	C.3	12	PRO12	0.019	
174	  CD	1862.507	564.779	-1913.095	C.3	12	PRO12	0.019	
175	  HA	1863.289	567.030	-1915.282	 H	12	PRO12	0.064	
176	 2HB	1861.859	567.455	-1913.470	 H	12	PRO12	0.025	
177	 3HB	1863.365	568.021	-1912.711	 H	12	PRO12	0.025	
178	 2HG	1861.937	566.107	-1911.449	 H	12	PRO12	0.021	
179	 3HG	1863.692	565.846	-1911.644	 H	12	PRO12	0.021	
180	 2HD	1861.443	564.656	-1913.311	 H	12	PRO12	0.039	
181	 3HD	1862.919	563.854	-1912.685	 H	12	PRO12	0.039	
182	   N	1865.776	566.058	-1913.314	N.am	13	ARG13	-0.348	
183	  CA	1867.225	566.208	-1913.216	C.3	13	ARG13	-0.264	
184	   C	1867.895	565.845	-1914.520	C.2	13	ARG13	0.734	
185	   O	1868.759	566.555	-1915.028	O.2	13	ARG13	-0.589	
186	  CB	1867.742	565.323	-1912.046	C.3	13	ARG13	-0.001	
187	  CG	1869.218	565.569	-1911.623	C.3	13	ARG13	0.039	
188	  CD	1869.657	564.630	-1910.488	C.3	13	ARG13	0.049	
189	  NE	1871.071	564.926	-1910.110	N.pl3	13	ARG13	-0.530	
190	  CZ	1871.764	564.294	-1909.168	C.cat	13	ARG13	0.808	
191	 NH1	1871.282	563.316	-1908.452	N.pl3	13	ARG13	-0.863	
192	 NH2	1872.984	564.667	-1908.947	N.pl3	13	ARG13	-0.863	
193	   H	1865.279	565.454	-1912.676	 H	13	ARG13	0.275	
194	  HA	1867.446	567.273	-1913.012	 H	13	ARG13	0.156	
195	 2HB	1867.596	564.256	-1912.316	 H	13	ARG13	0.033	
196	 3HB	1867.091	565.473	-1911.162	 H	13	ARG13	0.033	
197	 2HG	1869.337	566.629	-1911.318	 H	13	ARG13	0.029	
198	 3HG	1869.891	565.432	-1912.493	 H	13	ARG13	0.029	
199	 2HD	1869.548	563.575	-1910.820	 H	13	ARG13	0.069	
200	 3HD	1868.979	564.757	-1909.617	 H	13	ARG13	0.069	
201	  HE	1871.598	565.669	-1910.581	 H	13	ARG13	0.346	
202	1HH1	1870.316	563.070	-1908.677	 H	13	ARG13	0.448	
203	2HH1	1871.879	562.882	-1907.746	 H	13	ARG13	0.448	
204	1HH2	1873.344	565.434	-1909.518	 H	13	ARG13	0.448	
205	2HH2	1873.499	564.170	-1908.218	 H	13	ARG13	0.448	
206	   N	1867.550	564.755	-1915.118	N.am	14	VAL14	-0.416	
207	  CA	1868.197	564.404	-1916.378	C.3	14	VAL14	-0.087	
208	   C	1868.026	565.503	-1917.399	C.2	14	VAL14	0.597	
209	   O	1868.973	565.923	-1918.076	O.2	14	VAL14	-0.568	
210	  CB	1867.613	563.039	-1916.919	C.3	14	VAL14	0.299	
211	 CG1	1868.061	562.613	-1918.344	C.3	14	VAL14	-0.319	
212	 CG2	1867.922	561.822	-1916.014	C.3	14	VAL14	-0.319	
213	   H	1866.842	564.154	-1914.720	 H	14	VAL14	0.272	
214	  HA	1869.283	564.292	-1916.202	 H	14	VAL14	0.097	
215	  HB	1866.507	563.147	-1916.955	 H	14	VAL14	-0.030	
216	1HG1	1869.158	562.496	-1918.426	 H	14	VAL14	0.079	
217	2HG1	1867.604	561.655	-1918.660	 H	14	VAL14	0.079	
218	3HG1	1867.754	563.342	-1919.119	 H	14	VAL14	0.079	
219	1HG2	1867.582	561.985	-1914.975	 H	14	VAL14	0.079	
220	2HG2	1867.406	560.907	-1916.364	 H	14	VAL14	0.079	
221	3HG2	1869.004	561.594	-1915.972	 H	14	VAL14	0.079	
222	   N	1866.857	566.020	-1917.571	N.am	15	MET15	-0.416	
223	  CA	1866.690	567.083	-1918.557	C.3	15	MET15	-0.024	
224	   C	1867.610	568.243	-1918.265	C.2	15	MET15	0.597	
225	   O	1868.299	568.774	-1919.150	O.2	15	MET15	-0.568	
226	  CB	1865.207	567.545	-1918.589	C.3	15	MET15	0.034	
227	  CG	1864.177	566.477	-1919.015	C.3	15	MET15	0.002	
228	  SD	1862.572	567.248	-1919.277	S.3	15	MET15	-0.274	
229	  CE	1861.570	565.757	-1919.355	C.3	15	MET15	-0.054	
230	   H	1866.068	565.694	-1917.030	 H	15	MET15	0.272	
231	  HA	1866.971	566.688	-1919.552	 H	15	MET15	0.088	
232	 2HB	1865.106	568.404	-1919.280	 H	15	MET15	0.024	
233	 3HB	1864.917	567.944	-1917.596	 H	15	MET15	0.024	
234	 2HG	1864.087	565.702	-1918.230	 H	15	MET15	0.044	
235	 3HG	1864.488	565.958	-1919.940	 H	15	MET15	0.044	
236	 1HE	1861.941	565.071	-1920.137	 H	15	MET15	0.068	
237	 2HE	1861.594	565.227	-1918.387	 H	15	MET15	0.068	
238	 3HE	1860.520	566.008	-1919.584	 H	15	MET15	0.068	
239	   N	1867.682	568.696	-1917.059	N.am	16	ARG16	-0.348	
240	  CA	1868.572	569.819	-1916.777	C.3	16	ARG16	-0.264	
241	   C	1869.992	569.497	-1917.180	C.2	16	ARG16	0.734	
242	   O	1870.295	568.424	-1917.697	O.2	16	ARG16	-0.589	
243	  CB	1868.477	570.166	-1915.264	C.3	16	ARG16	-0.001	
244	  CG	1869.145	571.505	-1914.842	C.3	16	ARG16	0.039	
245	  CD	1869.036	571.752	-1913.328	C.3	16	ARG16	0.049	
246	  NE	1869.675	573.057	-1912.986	N.pl3	16	ARG16	-0.530	
247	  CZ	1869.762	573.573	-1911.763	C.cat	16	ARG16	0.808	
248	 NH1	1869.297	572.985	-1910.697	N.pl3	16	ARG16	-0.863	
249	 NH2	1870.341	574.723	-1911.621	N.pl3	16	ARG16	-0.863	
250	   H	1867.131	568.281	-1916.322	 H	16	ARG16	0.275	
251	  HA	1868.239	570.681	-1917.386	 H	16	ARG16	0.156	
252	 2HB	1868.905	569.326	-1914.678	 H	16	ARG16	0.033	
253	 3HB	1867.410	570.193	-1914.964	 H	16	ARG16	0.033	
254	 2HG	1868.679	572.338	-1915.406	 H	16	ARG16	0.029	
255	 3HG	1870.215	571.506	-1915.136	 H	16	ARG16	0.029	
256	 2HD	1869.526	570.916	-1912.782	 H	16	ARG16	0.069	
257	 3HD	1867.967	571.741	-1913.026	 H	16	ARG16	0.069	
258	  HE	1870.093	573.647	-1913.712	 H	16	ARG16	0.346	
259	1HH1	1868.854	572.081	-1910.878	 H	16	ARG16	0.448	
260	2HH1	1869.403	573.448	-1909.793	 H	16	ARG16	0.448	
261	1HH2	1870.700	575.169	-1912.467	 H	16	ARG16	0.448	
262	2HH2	1870.397	575.104	-1910.674	 H	16	ARG16	0.448	
@<TRIPOS>BOND
1 1 2 1
2 1 10 1
3 2 3 1
4 2 5 1
5 2 11 1
6 3 4 2
7 3 16 1
8 5 6 1
9 6 7 1
10 7 8 2
11 7 9 1
12 5 12 1
13 5 13 1
14 6 14 1
15 6 15 1
16 16 17 1
17 16 24 1
18 17 18 1
19 17 20 1
20 17 25 1
21 18 19 2
22 18 30 1
23 20 21 1
24 21 22 1
25 21 23 2
26 20 26 1
27 20 27 1
28 22 28 1
29 22 29 1
30 30 31 1
31 30 36 1
32 31 32 1
33 31 34 1
34 31 37 1
35 32 33 2
36 32 44 1
37 34 35 1
38 35 36 1
39 34 38 1
40 34 39 1
41 35 40 1
42 35 41 1
43 36 42 1
44 36 43 1
45 44 45 1
46 44 53 1
47 45 46 1
48 45 48 1
49 45 54 1
50 46 47 2
51 46 59 1
52 48 49 1
53 49 50 1
54 50 51 2
55 50 52 1
56 48 55 1
57 48 56 1
58 49 57 1
59 49 58 1
60 59 60 1
61 59 65 1
62 60 61 1
63 60 63 1
64 60 66 1
65 61 62 2
66 61 70 1
67 63 64 1
68 63 67 1
69 63 68 1
70 64 69 1
71 70 71 1
72 70 78 1
73 71 72 1
74 71 74 1
75 71 79 1
76 72 73 2
77 72 89 1
78 74 75 1
79 74 76 1
80 75 77 1
81 74 80 1
82 75 81 1
83 75 82 1
84 76 83 1
85 76 84 1
86 76 85 1
87 77 86 1
88 77 87 1
89 77 88 1
90 89 90 1
91 89 97 1
92 90 91 1
93 90 93 1
94 90 98 1
95 91 92 2
96 91 108 1
97 93 94 1
98 94 95 1
99 94 96 1
100 93 99 1
101 93 100 1
102 94 101 1
103 95 102 1
104 95 103 1
105 95 104 1
106 96 105 1
107 96 106 1
108 96 107 1
109 108 109 1
110 108 116 1
111 109 110 1
112 109 112 1
113 109 117 1
114 110 111 2
115 110 120 1
116 112 113 1
117 113 114 2
118 113 115 1
119 112 118 1
120 112 119 1
121 120 121 1
122 120 129 1
123 121 122 1
124 121 124 1
125 121 130 1
126 122 123 2
127 122 135 1
128 124 125 1
129 125 126 1
130 126 127 2
131 126 128 1
132 124 131 1
133 124 132 1
134 125 133 1
135 125 134 1
136 135 136 1
137 135 145 1
138 136 137 1
139 136 139 1
140 136 146 1
141 137 138 2
142 137 152 1
143 139 140 1
144 140 141 2
145 141 144 1
146 140 142 1
147 142 143 2
148 143 144 1
149 139 147 1
150 139 148 1
151 141 149 1
152 143 150 1
153 144 151 1
154 152 153 1
155 152 159 1
156 153 154 1
157 153 156 1
158 153 160 1
159 154 155 2
160 154 168 1
161 156 157 1
162 156 158 1
163 156 161 1
164 157 162 1
165 157 163 1
166 157 164 1
167 158 165 1
168 158 166 1
169 158 167 1
170 168 169 1
171 168 174 1
172 169 170 1
173 169 172 1
174 169 175 1
175 170 171 2
176 170 182 1
177 172 173 1
178 173 174 1
179 172 176 1
180 172 177 1
181 173 178 1
182 173 179 1
183 174 180 1
184 174 181 1
185 182 183 1
186 182 193 1
187 183 184 1
188 183 186 1
189 183 194 1
190 184 185 2
191 184 206 1
192 186 187 1
193 187 188 1
194 188 189 1
195 189 190 1
196 190 191 2
197 190 192 1
198 186 195 1
199 186 196 1
200 187 197 1
201 187 198 1
202 188 199 1
203 188 200 1
204 189 201 1
205 191 202 1
206 191 203 1
207 192 204 1
208 192 205 1
209 206 207 1
210 206 213 1
211 207 208 1
212 207 210 1
213 207 214 1
214 208 209 2
215 208 222 1
216 210 211 1
217 210 212 1
218 210 215 1
219 211 216 1
220 211 217 1
221 211 218 1
222 212 219 1
223 212 220 1
224 212 221 1
225 222 223 1
226 222 230 1
227 223 224 1
228 223 226 1
229 223 231 1
230 224 225 2
231 224 239 1
232 226 227 1
233 227 228 1
234 228 229 1
235 226 232 1
236 226 233 1
237 227 234 1
238 227 235 1
239 229 236 1
240 229 237 1
241 229 238 1
242 239 240 1
243 239 250 1
244 240 241 1
245 240 243 1
246 240 251 1
247 241 242 2
248 243 244 1
249 244 245 1
250 245 246 1
251 246 247 1
252 247 248 2
253 247 249 1
254 243 252 1
255 243 253 1
256 244 254 1
257 244 255 1
258 245 256 1
259 245 257 1
260 246 258 1
261 248 259 1
262 248 260 1
263 249 261 1
264 249 262 1
@<TRIPOS>SUBSTRUCTURE
1	GLU1	1	RESIDUE	1 ****	GLU
2	ASN2	16	RESIDUE	1 ****	ASN
3	PRO3	30	RESIDUE	1 ****	PRO
4	GLU4	44	RESIDUE	1 ****	GLU
5	SER5	59	RESIDUE	1 ****	SER
6	ILE6	70	RESIDUE	1 ****	ILE
7	LEU7	89	RESIDUE	1 ****	LEU
8	ASP8	108	RESIDUE	1 ****	ASP
9	GLU9	120	RESIDUE	1 ****	GLU
10	HIS10	135	RESIDUE	1 ****	HIS
11	VAL11	152	RESIDUE	1 ****	VAL
12	PRO12	168	RESIDUE	1 ****	PRO
13	ARG13	182	RESIDUE	1 ****	ARG
14	VAL14	206	RESIDUE	1 ****	VAL
15	MET15	222	RESIDUE	1 ****	MET
16	ARG16	239	RESIDUE	1 ****	ARG
