@<TRIPOS>MOLECULE
14-9
270 272 16              
SMALL
USER_CHARGES
@<TRIPOS>ATOM
1	   N	2233.885	682.045	-2319.736	N.3	1	GLU1	-0.516	
2	  CA	2234.445	683.394	-2319.736	C.3	1	GLU1	0.040	
3	   C	2235.954	683.354	-2319.736	C.2	1	GLU1	0.537	
4	   O	2236.629	684.053	-2320.505	O.2	1	GLU1	-0.582	
5	  CB	2233.921	684.179	-2318.500	C.3	1	GLU1	0.056	
6	  CG	2234.396	685.664	-2318.388	C.3	1	GLU1	0.014	
7	  CD	2233.972	686.468	-2317.173	C.2	1	GLU1	0.805	
8	 OE1	2233.244	685.966	-2316.295	O.co2	1	GLU1	-0.819	
9	 OE2	2234.403	687.638	-2317.101	O.co2	1	GLU1	-0.819	
10	   H	2234.512	681.166	-2319.736	 H	1	GLU1	0.294	
11	  HA	2234.118	683.912	-2320.656	 H	1	GLU1	0.111	
12	 2HB	2234.210	683.648	-2317.569	 H	1	GLU1	-0.017	
13	 3HB	2232.814	684.169	-2318.486	 H	1	GLU1	-0.017	
14	 2HG	2234.086	686.249	-2319.269	 H	1	GLU1	-0.043	
15	 3HG	2235.497	685.731	-2318.359	 H	1	GLU1	-0.043	
16	   N	2236.558	682.568	-2318.911	N.am	2	ASN2	-0.416	
17	  CA	2238.017	682.529	-2318.911	C.3	2	ASN2	0.014	
18	   C	2238.549	682.174	-2320.280	C.2	2	ASN2	0.597	
19	   O	2239.464	682.804	-2320.808	O.2	2	ASN2	-0.568	
20	  CB	2238.509	681.506	-2317.846	C.3	2	ASN2	-0.204	
21	  CG	2238.046	681.730	-2316.403	C.2	2	ASN2	0.713	
22	 ND2	2238.640	682.645	-2315.685	N.pl3	2	ASN2	-0.919	
23	 OD1	2237.125	681.097	-2315.909	O.2	2	ASN2	-0.593	
24	   H	2236.030	681.989	-2318.275	 H	2	ASN2	0.272	
25	  HA	2238.395	683.539	-2318.666	 H	2	ASN2	0.105	
26	 2HB	2239.613	681.447	-2317.850	 H	2	ASN2	0.080	
27	 3HB	2238.180	680.488	-2318.132	 H	2	ASN2	0.080	
28	1HD2	2238.159	682.818	-2314.798	 H	2	ASN2	0.420	
29	2HD2	2239.342	683.216	-2316.154	 H	2	ASN2	0.420	
30	   N	2238.027	681.179	-2320.914	N.am	3	PRO3	-0.255	
31	  CA	2238.479	680.769	-2322.235	C.3	3	PRO3	-0.027	
32	   C	2238.082	681.793	-2323.312	C.2	3	PRO3	0.590	
33	   O	2238.905	682.176	-2324.144	O.2	3	PRO3	-0.575	
34	  CB	2237.775	679.415	-2322.405	C.3	3	PRO3	-0.007	
35	  CG	2236.491	679.567	-2321.575	C.3	3	PRO3	0.019	
36	  CD	2236.949	680.386	-2320.365	C.3	3	PRO3	0.019	
37	  HA	2239.565	680.649	-2322.249	 H	3	PRO3	0.064	
38	 2HB	2238.398	678.634	-2321.964	 H	3	PRO3	0.025	
39	 3HB	2237.577	679.167	-2323.450	 H	3	PRO3	0.025	
40	 2HG	2236.064	678.605	-2321.284	 H	3	PRO3	0.021	
41	 3HG	2235.754	680.138	-2322.143	 H	3	PRO3	0.021	
42	 2HD	2237.338	679.736	-2319.578	 H	3	PRO3	0.039	
43	 3HD	2236.152	681.022	-2319.972	 H	3	PRO3	0.039	
44	   N	2236.877	682.253	-2323.345	N.am	4	GLU4	-0.516	
45	  CA	2236.518	683.224	-2324.375	C.3	4	GLU4	0.040	
46	   C	2237.417	684.435	-2324.313	C.2	4	GLU4	0.537	
47	   O	2237.944	684.914	-2325.327	O.2	4	GLU4	-0.582	
48	  CB	2235.029	683.643	-2324.205	C.3	4	GLU4	0.056	
49	  CG	2234.482	684.647	-2325.271	C.3	4	GLU4	0.014	
50	  CD	2233.055	685.144	-2325.128	C.2	4	GLU4	0.805	
51	 OE1	2232.329	684.746	-2324.197	O.co2	4	GLU4	-0.819	
52	 OE2	2232.667	685.973	-2325.976	O.co2	4	GLU4	-0.819	
53	   H	2236.192	681.947	-2322.668	 H	4	GLU4	0.294	
54	  HA	2236.649	682.754	-2325.366	 H	4	GLU4	0.111	
55	 2HB	2234.876	684.083	-2323.198	 H	4	GLU4	-0.017	
56	 3HB	2234.381	682.746	-2324.211	 H	4	GLU4	-0.017	
57	 2HG	2234.564	684.232	-2326.289	 H	4	GLU4	-0.043	
58	 3HG	2235.070	685.579	-2325.282	 H	4	GLU4	-0.043	
59	   N	2237.644	684.988	-2323.170	N.am	5	SER5	-0.416	
60	  CA	2238.514	686.159	-2323.111	C.3	5	SER5	-0.025	
61	   C	2239.873	685.853	-2323.696	C.2	5	SER5	0.597	
62	   O	2240.421	686.606	-2324.501	O.2	5	SER5	-0.568	
63	  CB	2238.625	686.691	-2321.661	C.3	5	SER5	0.212	
64	  OG	2239.356	685.811	-2320.800	O.3	5	SER5	-0.655	
65	   H	2237.227	684.616	-2322.329	 H	5	SER5	0.272	
66	  HA	2238.065	686.949	-2323.740	 H	5	SER5	0.084	
67	 2HB	2237.625	686.885	-2321.228	 H	5	SER5	0.035	
68	 3HB	2239.131	687.676	-2321.663	 H	5	SER5	0.035	
69	  HG	2238.867	684.987	-2320.749	 H	5	SER5	0.428	
70	   N	2240.477	684.769	-2323.342	N.am	6	ILE6	-0.416	
71	  CA	2241.790	684.474	-2323.908	C.3	6	ILE6	-0.060	
72	   C	2241.733	684.436	-2325.416	C.2	6	ILE6	0.597	
73	   O	2242.568	685.024	-2326.120	O.2	6	ILE6	-0.568	
74	  CB	2242.389	683.138	-2323.308	C.3	6	ILE6	0.130	
75	 CG1	2242.408	683.075	-2321.747	C.3	6	ILE6	-0.043	
76	 CG2	2243.831	682.835	-2323.823	C.3	6	ILE6	-0.320	
77	 CD1	2242.678	681.686	-2321.132	C.3	6	ILE6	-0.066	
78	   H	2240.048	684.135	-2322.683	 H	6	ILE6	0.272	
79	  HA	2242.465	685.308	-2323.640	 H	6	ILE6	0.087	
80	  HB	2241.731	682.312	-2323.652	 H	6	ILE6	0.019	
81	2HG1	2241.426	683.395	-2321.351	 H	6	ILE6	0.024	
82	3HG1	2243.124	683.817	-2321.342	 H	6	ILE6	0.024	
83	1HG2	2243.890	682.742	-2324.921	 H	6	ILE6	0.088	
84	2HG2	2244.553	683.617	-2323.520	 H	6	ILE6	0.088	
85	3HG2	2244.220	681.873	-2323.444	 H	6	ILE6	0.088	
86	1HD1	2241.949	680.932	-2321.487	 H	6	ILE6	0.019	
87	2HD1	2243.688	681.307	-2321.367	 H	6	ILE6	0.019	
88	3HD1	2242.601	681.716	-2320.029	 H	6	ILE6	0.019	
89	   N	2240.787	683.773	-2325.989	N.am	7	LEU7	-0.416	
90	  CA	2240.732	683.737	-2327.448	C.3	7	LEU7	-0.052	
91	   C	2240.660	685.132	-2328.021	C.2	7	LEU7	0.597	
92	   O	2241.381	685.494	-2328.963	O.2	7	LEU7	-0.568	
93	  CB	2239.529	682.877	-2327.928	C.3	7	LEU7	-0.110	
94	  CG	2239.456	681.398	-2327.462	C.3	7	LEU7	0.353	
95	 CD1	2238.266	680.692	-2328.127	C.3	7	LEU7	-0.412	
96	 CD2	2240.749	680.618	-2327.753	C.3	7	LEU7	-0.412	
97	   H	2240.095	683.286	-2325.438	 H	7	LEU7	0.272	
98	  HA	2241.674	683.297	-2327.822	 H	7	LEU7	0.092	
99	 2HB	2239.506	682.893	-2329.036	 H	7	LEU7	0.046	
100	 3HB	2238.589	683.380	-2327.624	 H	7	LEU7	0.046	
101	  HG	2239.286	681.390	-2326.365	 H	7	LEU7	-0.036	
102	1HD1	2237.308	681.201	-2327.905	 H	7	LEU7	0.100	
103	2HD1	2238.365	680.652	-2329.229	 H	7	LEU7	0.100	
104	3HD1	2238.158	679.651	-2327.771	 H	7	LEU7	0.100	
105	1HD2	2241.024	680.648	-2328.823	 H	7	LEU7	0.100	
106	2HD2	2241.602	681.029	-2327.182	 H	7	LEU7	0.100	
107	3HD2	2240.667	679.556	-2327.457	 H	7	LEU7	0.100	
108	   N	2239.823	685.974	-2327.515	N.am	8	ASP8	-0.516	
109	  CA	2239.753	687.323	-2328.069	C.3	8	ASP8	0.038	
110	   C	2241.101	688.002	-2328.012	C.2	8	ASP8	0.537	
111	   O	2241.573	688.606	-2328.987	O.2	8	ASP8	-0.582	
112	  CB	2238.676	688.163	-2327.328	C.3	8	ASP8	-0.030	
113	  CG	2238.458	689.583	-2327.869	C.2	8	ASP8	0.799	
114	 OD1	2238.522	689.781	-2329.100	O.co2	8	ASP8	-0.801	
115	 OD2	2238.266	690.510	-2327.054	O.co2	8	ASP8	-0.801	
116	   H	2239.225	685.703	-2326.747	 H	8	ASP8	0.294	
117	  HA	2239.470	687.244	-2329.136	 H	8	ASP8	0.088	
118	 2HB	2238.933	688.246	-2326.256	 H	8	ASP8	-0.012	
119	 3HB	2237.697	687.658	-2327.361	 H	8	ASP8	-0.012	
120	   N	2241.781	687.952	-2326.917	N.am	9	GLU9	-0.516	
121	  CA	2243.084	688.609	-2326.862	C.3	9	GLU9	0.040	
122	   C	2244.001	688.081	-2327.938	C.2	9	GLU9	0.537	
123	   O	2244.665	688.834	-2328.664	O.2	9	GLU9	-0.582	
124	  CB	2243.717	688.402	-2325.457	C.3	9	GLU9	0.056	
125	  CG	2245.100	689.094	-2325.228	C.3	9	GLU9	0.014	
126	  CD	2245.802	688.881	-2323.900	C.2	9	GLU9	0.805	
127	 OE1	2245.281	688.190	-2323.003	O.co2	9	GLU9	-0.819	
128	 OE2	2246.922	689.418	-2323.769	O.co2	9	GLU9	-0.819	
129	   H	2241.417	687.466	-2326.110	 H	9	GLU9	0.294	
130	  HA	2242.942	689.691	-2327.038	 H	9	GLU9	0.111	
131	 2HB	2243.830	687.317	-2325.253	 H	9	GLU9	-0.017	
132	 3HB	2243.021	688.756	-2324.673	 H	9	GLU9	-0.017	
133	 2HG	2245.029	690.184	-2325.368	 H	9	GLU9	-0.043	
134	 3HG	2245.847	688.748	-2325.962	 H	9	GLU9	-0.043	
135	   N	2244.097	686.805	-2328.107	N.am	10	HIS10	-0.416	
136	  CA	2244.984	686.293	-2329.147	C.3	10	HIS10	-0.058	
137	   C	2244.617	686.857	-2330.499	C.2	10	HIS10	0.597	
138	   O	2245.470	687.321	-2331.271	O.2	10	HIS10	-0.568	
139	  CB	2244.820	684.764	-2329.142	C.3	10	HIS10	-0.007	
140	  CG	2246.105	684.053	-2328.834	C.2	10	HIS10	0.187	
141	 CD2	2246.487	683.719	-2327.541	C.2	10	HIS10	-0.221	
142	 ND1	2247.057	683.647	-2329.766	N.2	10	HIS10	-0.543	
143	 CE1	2247.963	683.089	-2328.943	C.2	10	HIS10	0.163	
144	 NE2	2247.701	683.086	-2327.608	N.pl3	10	HIS10	-0.280	
145	   H	2243.566	686.170	-2327.528	 H	10	HIS10	0.272	
146	  HA	2246.004	686.650	-2328.923	 H	10	HIS10	0.136	
147	 2HB	2244.454	684.397	-2330.121	 H	10	HIS10	0.037	
148	 3HB	2244.064	684.428	-2328.401	 H	10	HIS10	0.037	
149	 2HD	2245.901	683.935	-2326.652	 H	10	HIS10	0.186	
150	 1HE	2248.854	682.667	-2329.390	 H	10	HIS10	0.144	
151	 2HE	2248.268	682.709	-2326.835	 H	10	HIS10	0.334	
152	   N	2243.380	686.857	-2330.862	N.am	11	VAL11	-0.416	
153	  CA	2243.024	687.402	-2332.169	C.3	11	VAL11	-0.087	
154	   C	2243.490	688.832	-2332.302	C.2	11	VAL11	0.597	
155	   O	2244.091	689.237	-2333.305	O.2	11	VAL11	-0.568	
156	  CB	2241.463	687.296	-2332.388	C.3	11	VAL11	0.299	
157	 CG1	2240.895	688.000	-2333.651	C.3	11	VAL11	-0.319	
158	 CG2	2240.938	685.842	-2332.460	C.3	11	VAL11	-0.319	
159	   H	2242.667	686.485	-2330.251	 H	11	VAL11	0.272	
160	  HA	2243.544	686.819	-2332.951	 H	11	VAL11	0.097	
161	  HB	2240.976	687.777	-2331.513	 H	11	VAL11	-0.030	
162	1HG1	2241.333	687.607	-2334.588	 H	11	VAL11	0.079	
163	2HG1	2239.796	687.893	-2333.733	 H	11	VAL11	0.079	
164	3HG1	2241.073	689.092	-2333.642	 H	11	VAL11	0.079	
165	1HG2	2241.228	685.255	-2331.569	 H	11	VAL11	0.079	
166	2HG2	2239.832	685.806	-2332.502	 H	11	VAL11	0.079	
167	3HG2	2241.319	685.301	-2333.346	 H	11	VAL11	0.079	
168	   N	2243.253	689.659	-2331.340	N.am	12	GLN12	-0.416	
169	  CA	2243.703	691.041	-2331.468	C.3	12	GLN12	-0.003	
170	   C	2245.192	691.108	-2331.706	C.2	12	GLN12	0.597	
171	   O	2245.680	691.815	-2332.585	O.2	12	GLN12	-0.568	
172	  CB	2243.312	691.810	-2330.186	C.3	12	GLN12	-0.004	
173	  CG	2243.674	693.331	-2330.155	C.3	12	GLN12	-0.064	
174	  CD	2243.372	694.146	-2328.891	C.2	12	GLN12	0.695	
175	 NE2	2242.805	693.570	-2327.862	N.pl3	12	GLN12	-0.941	
176	 OE1	2243.675	695.327	-2328.814	O.2	12	GLN12	-0.609	
177	   H	2242.765	689.353	-2330.510	 H	12	GLN12	0.272	
178	  HA	2243.203	691.497	-2332.343	 H	12	GLN12	0.085	
179	 2HB	2243.788	691.310	-2329.316	 H	12	GLN12	0.017	
180	 3HB	2242.222	691.703	-2330.022	 H	12	GLN12	0.017	
181	 2HG	2243.196	693.852	-2331.006	 H	12	GLN12	0.035	
182	 3HG	2244.757	693.473	-2330.321	 H	12	GLN12	0.035	
183	1HE2	2242.698	694.165	-2327.038	 H	12	GLN12	0.425	
184	2HE2	2242.641	692.567	-2327.964	 H	12	GLN12	0.425	
185	   N	2245.977	690.401	-2330.965	N.am	13	ARG13	-0.348	
186	  CA	2247.417	690.466	-2331.196	C.3	13	ARG13	-0.264	
187	   C	2247.753	690.094	-2332.621	C.2	13	ARG13	0.734	
188	   O	2248.522	690.765	-2333.306	O.2	13	ARG13	-0.589	
189	  CB	2248.130	689.528	-2330.182	C.3	13	ARG13	-0.001	
190	  CG	2249.676	689.681	-2330.101	C.3	13	ARG13	0.039	
191	  CD	2250.302	688.693	-2329.103	C.3	13	ARG13	0.049	
192	  NE	2251.780	688.900	-2329.053	N.pl3	13	ARG13	-0.530	
193	  CZ	2252.628	688.209	-2328.298	C.cat	13	ARG13	0.808	
194	 NH1	2252.263	687.245	-2327.499	N.pl3	13	ARG13	-0.863	
195	 NH2	2253.887	688.508	-2328.355	N.pl3	13	ARG13	-0.863	
196	   H	2245.601	689.812	-2330.236	 H	13	ARG13	0.275	
197	  HA	2247.742	691.512	-2331.039	 H	13	ARG13	0.156	
198	 2HB	2247.864	688.477	-2330.420	 H	13	ARG13	0.033	
199	 3HB	2247.706	689.695	-2329.171	 H	13	ARG13	0.033	
200	 2HG	2249.924	690.726	-2329.823	 H	13	ARG13	0.029	
201	 3HG	2250.126	689.524	-2331.103	 H	13	ARG13	0.029	
202	 2HD	2250.058	687.653	-2329.411	 H	13	ARG13	0.069	
203	 3HD	2249.847	688.840	-2328.100	 H	13	ARG13	0.069	
204	  HE	2252.231	689.622	-2329.625	 H	13	ARG13	0.346	
205	1HH1	2251.257	687.059	-2327.502	 H	13	ARG13	0.448	
206	2HH1	2252.976	686.762	-2326.950	 H	13	ARG13	0.448	
207	1HH2	2254.155	689.265	-2328.987	 H	13	ARG13	0.448	
208	2HH2	2254.523	687.966	-2327.766	 H	13	ARG13	0.448	
209	   N	2247.216	689.039	-2333.135	N.am	14	TYR14	-0.416	
210	  CA	2247.541	688.679	-2334.512	C.3	14	TYR14	-0.001	
211	   C	2247.211	689.808	-2335.458	C.2	14	TYR14	0.597	
212	   O	2248.004	690.187	-2336.325	O.2	14	TYR14	-0.568	
213	  CB	2246.736	687.425	-2334.963	C.3	14	TYR14	-0.015	
214	  CG	2246.987	686.129	-2334.183	C.2	14	TYR14	-0.001	
215	 CD1	2248.130	685.361	-2334.427	C.2	14	TYR14	-0.191	
216	 CD2	2246.072	685.714	-2333.211	C.2	14	TYR14	-0.191	
217	 CE1	2248.354	684.194	-2333.702	C.2	14	TYR14	-0.234	
218	 CE2	2246.298	684.547	-2332.488	C.2	14	TYR14	-0.234	
219	  CZ	2247.439	683.787	-2332.734	C.2	14	TYR14	0.323	
220	  OH	2247.665	682.643	-2332.023	O.3	14	TYR14	-0.558	
221	   H	2246.581	688.471	-2332.592	 H	14	TYR14	0.272	
222	  HA	2248.626	688.480	-2334.585	 H	14	TYR14	0.088	
223	 2HB	2246.940	687.216	-2336.031	 H	14	TYR14	0.030	
224	 3HB	2245.651	687.660	-2334.949	 H	14	TYR14	0.030	
225	 1HD	2248.849	685.671	-2335.172	 H	14	TYR14	0.170	
226	 2HD	2245.189	686.305	-2333.007	 H	14	TYR14	0.170	
227	 1HE	2249.240	683.602	-2333.884	 H	14	TYR14	0.166	
228	 2HE	2245.586	684.241	-2331.736	 H	14	TYR14	0.166	
229	  HH	2246.941	682.521	-2331.406	 H	14	TYR14	0.399	
230	   N	2246.067	690.396	-2335.357	N.am	15	MET15	-0.416	
231	  CA	2245.748	691.488	-2336.272	C.3	15	MET15	-0.024	
232	   C	2246.780	692.587	-2336.185	C.2	15	MET15	0.597	
233	   O	2247.283	693.096	-2337.198	O.2	15	MET15	-0.568	
234	  CB	2244.327	692.035	-2335.964	C.3	15	MET15	0.034	
235	  CG	2243.164	691.038	-2336.155	C.3	15	MET15	0.002	
236	  SD	2241.591	691.906	-2336.043	S.3	15	MET15	-0.274	
237	  CE	2240.508	690.478	-2335.905	C.3	15	MET15	-0.054	
238	   H	2245.402	690.104	-2334.656	 H	15	MET15	0.272	
239	  HA	2245.774	691.100	-2337.307	 H	15	MET15	0.088	
240	 2HB	2244.126	692.913	-2336.607	 H	15	MET15	0.024	
241	 3HB	2244.292	692.429	-2334.928	 H	15	MET15	0.024	
242	 2HG	2243.206	690.253	-2335.377	 H	15	MET15	0.044	
243	 3HG	2243.227	690.522	-2337.131	 H	15	MET15	0.044	
244	 1HE	2240.652	689.788	-2336.757	 H	15	MET15	0.068	
245	 2HE	2240.717	689.925	-2334.972	 H	15	MET15	0.068	
246	 3HE	2239.451	690.794	-2335.889	 H	15	MET15	0.068	
247	   N	2247.148	693.008	-2335.023	N.am	16	ARG16	-0.348	
248	  CA	2248.146	694.071	-2334.940	C.3	16	ARG16	-0.264	
249	   C	2249.417	693.676	-2335.655	C.2	16	ARG16	0.734	
250	   O	2249.529	692.599	-2336.236	O.2	16	ARG16	-0.589	
251	  CB	2248.415	694.389	-2333.441	C.3	16	ARG16	-0.001	
252	  CG	2249.242	695.677	-2333.168	C.3	16	ARG16	0.039	
253	  CD	2249.491	695.897	-2331.667	C.3	16	ARG16	0.049	
254	  NE	2250.269	697.155	-2331.467	N.pl3	16	ARG16	-0.530	
255	  CZ	2250.660	697.637	-2330.291	C.cat	16	ARG16	0.808	
256	 NH1	2250.412	697.054	-2329.153	N.pl3	16	ARG16	-0.863	
257	 NH2	2251.326	698.749	-2330.273	N.pl3	16	ARG16	-0.863	
258	   H	2246.753	692.609	-2334.183	 H	16	ARG16	0.275	
259	  HA	2247.738	694.964	-2335.450	 H	16	ARG16	0.156	
260	 2HB	2248.911	693.513	-2332.974	 H	16	ARG16	0.033	
261	 3HB	2247.446	694.471	-2332.908	 H	16	ARG16	0.033	
262	 2HG	2248.713	696.548	-2333.606	 H	16	ARG16	0.029	
263	 3HG	2250.215	695.623	-2333.697	 H	16	ARG16	0.029	
264	 2HD	2250.039	695.022	-2331.253	 H	16	ARG16	0.069	
265	 3HD	2248.518	695.941	-2331.132	 H	16	ARG16	0.069	
266	  HE	2250.548	697.735	-2332.264	 H	16	ARG16	0.346	
267	1HH1	2249.885	696.181	-2329.237	 H	16	ARG16	0.448	
268	2HH1	2250.746	697.489	-2328.291	 H	16	ARG16	0.448	
269	1HH2	2251.512	699.191	-2331.175	 H	16	ARG16	0.448	
270	2HH2	2251.616	699.104	-2329.361	 H	16	ARG16	0.448	
@<TRIPOS>BOND
1 1 2 1
2 1 10 1
3 2 3 1
4 2 5 1
5 2 11 1
6 3 4 2
7 3 16 1
8 5 6 1
9 6 7 1
10 7 8 2
11 7 9 1
12 5 12 1
13 5 13 1
14 6 14 1
15 6 15 1
16 16 17 1
17 16 24 1
18 17 18 1
19 17 20 1
20 17 25 1
21 18 19 2
22 18 30 1
23 20 21 1
24 21 22 1
25 21 23 2
26 20 26 1
27 20 27 1
28 22 28 1
29 22 29 1
30 30 31 1
31 30 36 1
32 31 32 1
33 31 34 1
34 31 37 1
35 32 33 2
36 32 44 1
37 34 35 1
38 35 36 1
39 34 38 1
40 34 39 1
41 35 40 1
42 35 41 1
43 36 42 1
44 36 43 1
45 44 45 1
46 44 53 1
47 45 46 1
48 45 48 1
49 45 54 1
50 46 47 2
51 46 59 1
52 48 49 1
53 49 50 1
54 50 51 2
55 50 52 1
56 48 55 1
57 48 56 1
58 49 57 1
59 49 58 1
60 59 60 1
61 59 65 1
62 60 61 1
63 60 63 1
64 60 66 1
65 61 62 2
66 61 70 1
67 63 64 1
68 63 67 1
69 63 68 1
70 64 69 1
71 70 71 1
72 70 78 1
73 71 72 1
74 71 74 1
75 71 79 1
76 72 73 2
77 72 89 1
78 74 75 1
79 74 76 1
80 75 77 1
81 74 80 1
82 75 81 1
83 75 82 1
84 76 83 1
85 76 84 1
86 76 85 1
87 77 86 1
88 77 87 1
89 77 88 1
90 89 90 1
91 89 97 1
92 90 91 1
93 90 93 1
94 90 98 1
95 91 92 2
96 91 108 1
97 93 94 1
98 94 95 1
99 94 96 1
100 93 99 1
101 93 100 1
102 94 101 1
103 95 102 1
104 95 103 1
105 95 104 1
106 96 105 1
107 96 106 1
108 96 107 1
109 108 109 1
110 108 116 1
111 109 110 1
112 109 112 1
113 109 117 1
114 110 111 2
115 110 120 1
116 112 113 1
117 113 114 2
118 113 115 1
119 112 118 1
120 112 119 1
121 120 121 1
122 120 129 1
123 121 122 1
124 121 124 1
125 121 130 1
126 122 123 2
127 122 135 1
128 124 125 1
129 125 126 1
130 126 127 2
131 126 128 1
132 124 131 1
133 124 132 1
134 125 133 1
135 125 134 1
136 135 136 1
137 135 145 1
138 136 137 1
139 136 139 1
140 136 146 1
141 137 138 2
142 137 152 1
143 139 140 1
144 140 141 2
145 141 144 1
146 140 142 1
147 142 143 2
148 143 144 1
149 139 147 1
150 139 148 1
151 141 149 1
152 143 150 1
153 144 151 1
154 152 153 1
155 152 159 1
156 153 154 1
157 153 156 1
158 153 160 1
159 154 155 2
160 154 168 1
161 156 157 1
162 156 158 1
163 156 161 1
164 157 162 1
165 157 163 1
166 157 164 1
167 158 165 1
168 158 166 1
169 158 167 1
170 168 169 1
171 168 177 1
172 169 170 1
173 169 172 1
174 169 178 1
175 170 171 2
176 170 185 1
177 172 173 1
178 173 174 1
179 174 175 1
180 174 176 2
181 172 179 1
182 172 180 1
183 173 181 1
184 173 182 1
185 175 183 1
186 175 184 1
187 185 186 1
188 185 196 1
189 186 187 1
190 186 189 1
191 186 197 1
192 187 188 2
193 187 209 1
194 189 190 1
195 190 191 1
196 191 192 1
197 192 193 1
198 193 194 2
199 193 195 1
200 189 198 1
201 189 199 1
202 190 200 1
203 190 201 1
204 191 202 1
205 191 203 1
206 192 204 1
207 194 205 1
208 194 206 1
209 195 207 1
210 195 208 1
211 209 210 1
212 209 221 1
213 210 211 1
214 210 213 1
215 210 222 1
216 211 212 2
217 211 230 1
218 213 214 1
219 214 215 2
220 214 216 1
221 216 218 2
222 215 217 1
223 218 219 1
224 217 219 2
225 219 220 1
226 213 223 1
227 213 224 1
228 215 225 1
229 216 226 1
230 217 227 1
231 218 228 1
232 220 229 1
233 230 231 1
234 230 238 1
235 231 232 1
236 231 234 1
237 231 239 1
238 232 233 2
239 232 247 1
240 234 235 1
241 235 236 1
242 236 237 1
243 234 240 1
244 234 241 1
245 235 242 1
246 235 243 1
247 237 244 1
248 237 245 1
249 237 246 1
250 247 248 1
251 247 258 1
252 248 249 1
253 248 251 1
254 248 259 1
255 249 250 2
256 251 252 1
257 252 253 1
258 253 254 1
259 254 255 1
260 255 256 2
261 255 257 1
262 251 260 1
263 251 261 1
264 252 262 1
265 252 263 1
266 253 264 1
267 253 265 1
268 254 266 1
269 256 267 1
270 256 268 1
271 257 269 1
272 257 270 1
@<TRIPOS>SUBSTRUCTURE
1	GLU1	1	RESIDUE	1 ****	GLU
2	ASN2	16	RESIDUE	1 ****	ASN
3	PRO3	30	RESIDUE	1 ****	PRO
4	GLU4	44	RESIDUE	1 ****	GLU
5	SER5	59	RESIDUE	1 ****	SER
6	ILE6	70	RESIDUE	1 ****	ILE
7	LEU7	89	RESIDUE	1 ****	LEU
8	ASP8	108	RESIDUE	1 ****	ASP
9	GLU9	120	RESIDUE	1 ****	GLU
10	HIS10	135	RESIDUE	1 ****	HIS
11	VAL11	152	RESIDUE	1 ****	VAL
12	GLN12	168	RESIDUE	1 ****	GLN
13	ARG13	185	RESIDUE	1 ****	ARG
14	TYR14	209	RESIDUE	1 ****	TYR
15	MET15	230	RESIDUE	1 ****	MET
16	ARG16	247	RESIDUE	1 ****	ARG
