REMARK WARNING: 32 MAX_TORS EXCEEDED!!!
REMARK  68 active torsions:
REMARK  status: ('A' for Active; 'I' for Inactive)
REMARK    1  A    between atoms: N_1  and  CA_2 
REMARK    2  A    between atoms: CA_2  and  C_3 
REMARK    3  A    between atoms: CA_2  and  CB_5 
REMARK       I    between atoms: C_3  and  N_11 
REMARK    4  A    between atoms: CB_5  and  CG_6 
REMARK    5  A    between atoms: CG_6  and  CD_7 
REMARK    6  A    between atoms: N_11  and  CA_12 
REMARK    7  A    between atoms: CA_12  and  C_13 
REMARK    8  A    between atoms: CA_12  and  CB_15 
REMARK       I    between atoms: C_13  and  N_22 
REMARK    9  A    between atoms: CB_15  and  CG_16 
REMARK       I    between atoms: CG_16  and  ND2_17 
REMARK   10  A    between atoms: CA_23  and  C_24 
REMARK       I    between atoms: C_24  and  N_29 
REMARK   11  A    between atoms: N_29  and  CA_30 
REMARK   12  A    between atoms: CA_30  and  C_31 
REMARK   13  A    between atoms: CA_30  and  CB_33 
REMARK       I    between atoms: C_31  and  N_39 
REMARK   14  A    between atoms: CB_33  and  CG_34 
REMARK   15  A    between atoms: CG_34  and  CD_35 
REMARK   16  A    between atoms: N_39  and  CA_40 
REMARK   17  A    between atoms: CA_40  and  C_41 
REMARK   18  A    between atoms: CA_40  and  CB_43 
REMARK       I    between atoms: C_41  and  N_47 
REMARK   19  A    between atoms: CB_43  and  OG_44 
REMARK   20  A    between atoms: N_47  and  CA_48 
REMARK   21  A    between atoms: CA_48  and  C_49 
REMARK   22  A    between atoms: CA_48  and  CB_51 
REMARK       I    between atoms: C_49  and  N_56 
REMARK   23  A    between atoms: CB_51  and  CG1_52 
REMARK   24  A    between atoms: N_56  and  CA_57 
REMARK   25  A    between atoms: CA_57  and  C_58 
REMARK   26  A    between atoms: CA_57  and  CB_60 
REMARK       I    between atoms: C_58  and  N_65 
REMARK   27  A    between atoms: CB_60  and  CG_61 
REMARK   28  A    between atoms: N_65  and  CA_66 
REMARK   29  A    between atoms: CA_66  and  C_67 
REMARK   30  A    between atoms: CA_66  and  CB_69 
REMARK       I    between atoms: C_67  and  N_74 
REMARK   31  A    between atoms: CB_69  and  CG_70 
REMARK   32  A    between atoms: N_74  and  CA_75 
REMARK   33  A    between atoms: CA_75  and  C_76 
REMARK   34  A    between atoms: CA_75  and  CB_78 
REMARK       I    between atoms: C_76  and  N_84 
REMARK   35  A    between atoms: CB_78  and  CG_79 
REMARK   36  A    between atoms: CG_79  and  CD_80 
REMARK   37  A    between atoms: N_84  and  CA_85 
REMARK   38  A    between atoms: CA_85  and  C_86 
REMARK   39  A    between atoms: CA_85  and  CB_88 
REMARK       I    between atoms: C_86  and  N_95 
REMARK   40  A    between atoms: CB_88  and  CG_89 
REMARK       I    between atoms: CG_89  and  ND2_90 
REMARK   41  A    between atoms: N_95  and  CA_96 
REMARK   42  A    between atoms: CA_96  and  C_97 
REMARK   43  A    between atoms: CA_96  and  CB_99 
REMARK       I    between atoms: C_97  and  N_103 
REMARK   44  A    between atoms: N_103  and  CA_104 
REMARK   45  A    between atoms: CA_104  and  C_105 
REMARK   46  A    between atoms: CA_104  and  CB_107 
REMARK       I    between atoms: C_105  and  N_115 
REMARK   47  A    between atoms: CB_107  and  CG_108 
REMARK   48  A    between atoms: CG_108  and  CD_109 
REMARK       I    between atoms: CD_109  and  NE2_110 
REMARK   49  A    between atoms: N_115  and  CA_116 
REMARK   50  A    between atoms: CA_116  and  C_117 
REMARK   51  A    between atoms: CA_116  and  CB_119 
REMARK       I    between atoms: C_117  and  N_132 
REMARK   52  A    between atoms: CB_119  and  CG_120 
REMARK   53  A    between atoms: CG_120  and  CD_121 
REMARK   54  A    between atoms: CD_121  and  NE_122 
REMARK       I    between atoms: NE_122  and  CZ_123 
REMARK       I    between atoms: CZ_123  and  NH1_124 
REMARK       I    between atoms: CZ_123  and  NH2_125 
REMARK   55  A    between atoms: N_132  and  CA_133 
REMARK   56  A    between atoms: CA_133  and  C_134 
REMARK   57  A    between atoms: CA_133  and  CB_136 
REMARK       I    between atoms: C_134  and  N_140 
REMARK   58  A    between atoms: N_140  and  CA_141 
REMARK   59  A    between atoms: CA_141  and  C_142 
REMARK   60  A    between atoms: CA_141  and  CB_144 
REMARK       I    between atoms: C_142  and  N_149 
REMARK   61  A    between atoms: CB_144  and  CG_145 
REMARK   62  A    between atoms: CG_145  and  SD_146 
REMARK   63  A    between atoms: N_149  and  CA_150 
REMARK   64  A    between atoms: CA_150  and  C_151 
REMARK   65  A    between atoms: CA_150  and  CB_153 
REMARK   66  A    between atoms: CB_153  and  CG_154 
REMARK   67  A    between atoms: CG_154  and  CD_155 
REMARK   68  A    between atoms: CD_155  and  NE_156 
REMARK       I    between atoms: NE_156  and  CZ_157 
REMARK       I    between atoms: CZ_157  and  NH1_158 
ROOT
ATOM      1  C   GLU d   9    1642.164 491.752-1670.232  0.00  0.00     0.241 C 
ATOM      2  O   GLU d   9    1642.828 492.507-1670.957  0.00  0.00    -0.271 OA
ATOM      3  N   ASN d  10    1642.261 490.477-1670.402  0.00  0.00    -0.346 N 
ATOM      4  H   ASN d  10    1641.730 489.841-1669.824  0.00  0.00     0.163 HD
ENDROOT
BRANCH   1   5
ATOM      5  CA  GLU d   9    1641.246 492.279-1669.156  0.00  0.00     0.177 C 
BRANCH   5   6
ATOM      6  N   GLU d   9    1639.943 491.622-1669.211  0.00  0.00    -0.346 N 
ATOM      7  C   ASP d   8    1639.264 491.672-1670.307  0.00  0.00     0.241 C 
ATOM      8  O   ASP d   8    1639.736 492.277-1671.281  0.00  0.00    -0.271 OA
ATOM      9  H   GLU d   9    1639.580 491.135-1668.404  0.00  0.00     0.163 HD
BRANCH   7  10
ATOM     10  CA  ASP d   8    1637.917 490.992-1670.364  0.00  0.00     0.186 C 
BRANCH  10  11
ATOM     11  N   ASP d   8    1637.987 489.642-1669.811  0.00  0.00    -0.346 N 
ATOM     12  C   LEU d   7    1638.825 488.802-1670.318  0.00  0.00     0.241 C 
ATOM     13  O   LEU d   7    1639.545 489.165-1671.259  0.00  0.00    -0.271 OA
ATOM     14  H   ASP d   8    1637.390 489.371-1669.043  0.00  0.00     0.163 HD
BRANCH  12  15
ATOM     15  CA  LEU d   7    1638.897 487.406-1669.745  0.00  0.00     0.177 C 
BRANCH  15  16
ATOM     16  N   LEU d   7    1638.952 487.442-1668.287  0.00  0.00    -0.346 N 
ATOM     17  C   ILE d   6    1639.898 488.105-1667.713  0.00  0.00     0.241 C 
ATOM     18  O   ILE d   6    1640.733 488.693-1668.417  0.00  0.00    -0.271 OA
ATOM     19  H   LEU d   7    1638.260 486.955-1667.735  0.00  0.00     0.163 HD
BRANCH  17  20
ATOM     20  CA  ILE d   6    1639.956 488.143-1666.205  0.00  0.00     0.180 C 
BRANCH  20  21
ATOM     21  N   ILE d   6    1638.642 488.438-1665.639  0.00  0.00    -0.346 N 
ATOM     22  C   SER d   5    1638.038 489.521-1665.993  0.00  0.00     0.243 C 
ATOM     23  O   SER d   5    1638.585 490.274-1666.798  0.00  0.00    -0.271 OA
ATOM     24  H   ILE d   6    1638.214 487.803-1664.980  0.00  0.00     0.163 HD
BRANCH  22  25
ATOM     25  CA  SER d   5    1636.679 489.826-1665.407  0.00  0.00     0.200 C 
BRANCH  25  26
ATOM     26  N   SER d   5    1635.809 488.655-1665.466  0.00  0.00    -0.344 N 
ATOM     27  C   GLU d   4    1635.582 488.102-1666.609  0.00  0.00     0.241 C 
ATOM     28  O   GLU d   4    1636.108 488.582-1667.623  0.00  0.00    -0.271 OA
ATOM     29  H   SER d   5    1635.393 488.283-1664.624  0.00  0.00     0.163 HD
BRANCH  27  30
ATOM     30  CA  GLU d   4    1634.683 486.891-1666.670  0.00  0.00     0.177 C 
BRANCH  30  31
ATOM     31  N   GLU d   4    1635.043 485.920-1665.640  0.00  0.00    -0.346 N 
ATOM     32  C   PRO d   3    1636.248 485.460-1665.608  0.00  0.00     0.241 C 
ATOM     33  O   PRO d   3    1637.071 485.843-1666.440  0.00  0.00    -0.271 OA
ATOM     34  H   GLU d   4    1634.359 485.613-1664.964  0.00  0.00     0.163 HD
BRANCH  32  35
ATOM     35  CA  PRO d   3    1636.646 484.436-1664.531  0.00  0.00     0.179 C 
ATOM     36  N   PRO d   3    1636.194 484.845-1663.210  0.00  0.00    -0.337 N 
ATOM     37  C   ASN d   2    1636.716 485.841-1662.576  0.00  0.00     0.243 C 
ATOM     38  CD  PRO d   3    1635.116 484.052-1662.661  0.00  0.00     0.127 C 
ATOM     39  O   ASN d   2    1637.630 486.471-1663.104  0.00  0.00    -0.271 OA
ATOM     40  CG  PRO d   3    1634.658 483.234-1663.870  0.00  0.00     0.022 C 
ATOM     41  CB  PRO d   3    1635.942 483.081-1664.700  0.00  0.00     0.037 C 
BRANCH  37  42
ATOM     42  CA  ASN d   2    1636.184 486.196-1661.207  0.00  0.00     0.185 C 
BRANCH  42  43
ATOM     43  N   ASN d   2    1634.725 486.235-1661.207  0.00  0.00    -0.346 N 
ATOM     44  C   GLU d   1    1634.120 487.021-1662.032  0.00  0.00     0.242 C 
ATOM     45  O   GLU d   1    1634.796 487.720-1662.801  0.00  0.00    -0.271 OA
ATOM     46  H   ASN d   2    1634.197 485.655-1660.570  0.00  0.00     0.163 HD
BRANCH  44  47
ATOM     47  CA  GLU d   1    1632.611 487.061-1662.032  0.00  0.00     0.191 C 
BRANCH  47  48
ATOM     48  N   GLU d   1    1632.052 485.712-1662.032  0.00  0.00    -0.326 NA
ATOM     49  H   GLU d   1    1632.679 484.832-1662.032  0.00  0.00     0.180 HD
ENDBRANCH  47  48
BRANCH  47  50
ATOM     50  CB  GLU d   1    1632.089 487.845-1660.795  0.00  0.00     0.047 C 
BRANCH  50  51
ATOM     51  CG  GLU d   1    1632.563 489.331-1660.684  0.00  0.00     0.116 C 
BRANCH  51  52
ATOM     52  CD  GLU d   1    1632.140 490.134-1659.469  0.00  0.00     0.172 C 
ATOM     53  OE1 GLU d   1    1631.411 489.633-1658.591  0.00  0.00    -0.648 OA
ATOM     54  OE2 GLU d   1    1632.569 491.305-1659.397  0.00  0.00    -0.648 OA
ENDBRANCH  51  52
ENDBRANCH  50  51
ENDBRANCH  47  50
ENDBRANCH  44  47
ENDBRANCH  42  43
BRANCH  42  55
ATOM     55  CB  ASN d   2    1636.676 485.173-1660.142  0.00  0.00     0.137 C 
BRANCH  55  56
ATOM     56  CG  ASN d   2    1636.214 485.397-1658.699  0.00  0.00     0.217 C 
ATOM     57  ND2 ASN d   2    1636.808 486.312-1657.981  0.00  0.00    -0.370 N 
ATOM     58 21HD ASN d   2    1636.327 486.485-1657.094  0.00  0.00     0.159 HD
ATOM     59 22HD ASN d   2    1637.509 486.884-1658.450  0.00  0.00     0.159 HD
ATOM     60  OD1 ASN d   2    1635.293 484.763-1658.205  0.00  0.00    -0.274 OA
ENDBRANCH  55  56
ENDBRANCH  42  55
ENDBRANCH  37  42
ENDBRANCH  32  35
ENDBRANCH  30  31
BRANCH  30  61
ATOM     61  CB  GLU d   4    1633.194 487.309-1666.499  0.00  0.00     0.045 C 
BRANCH  61  62
ATOM     62  CG  GLU d   4    1632.646 488.313-1667.565  0.00  0.00     0.116 C 
BRANCH  62  63
ATOM     63  CD  GLU d   4    1631.220 488.810-1667.421  0.00  0.00     0.172 C 
ATOM     64  OE1 GLU d   4    1630.494 488.411-1666.490  0.00  0.00    -0.648 OA
ATOM     65  OE2 GLU d   4    1630.830 489.639-1668.269  0.00  0.00    -0.648 OA
ENDBRANCH  62  63
ENDBRANCH  61  62
ENDBRANCH  30  61
ENDBRANCH  27  30
ENDBRANCH  25  26
BRANCH  25  66
ATOM     66  CB  SER d   5    1636.791 490.358-1663.956  0.00  0.00     0.199 C 
BRANCH  66  67
ATOM     67  OG  SER d   5    1637.522 489.479-1663.096  0.00  0.00    -0.398 OA
ATOM     68  HG  SER d   5    1637.034 488.654-1663.045  0.00  0.00     0.209 HD
ENDBRANCH  66  67
ENDBRANCH  25  66
ENDBRANCH  22  25
ENDBRANCH  20  21
BRANCH  20  69
ATOM     69  CB  ILE d   6    1640.555 486.807-1665.606  0.00  0.00     0.013 C 
ATOM     70  CG2 ILE d   6    1641.997 486.505-1666.121  0.00  0.00     0.012 C 
BRANCH  69  71
ATOM     71  CG1 ILE d   6    1640.575 486.744-1664.045  0.00  0.00     0.002 C 
ATOM     72  CD1 ILE d   6    1640.845 485.355-1663.430  0.00  0.00     0.005 C 
ENDBRANCH  69  71
ENDBRANCH  20  69
ENDBRANCH  17  20
ENDBRANCH  15  16
BRANCH  15  73
ATOM     73  CB  LEU d   7    1637.694 486.546-1670.226  0.00  0.00     0.038 C 
BRANCH  73  74
ATOM     74  CG  LEU d   7    1637.621 485.066-1669.759  0.00  0.00    -0.020 C 
ATOM     75  CD1 LEU d   7    1636.432 484.361-1670.425  0.00  0.00     0.009 C 
ATOM     76  CD2 LEU d   7    1638.915 484.287-1670.051  0.00  0.00     0.009 C 
ENDBRANCH  73  74
ENDBRANCH  15  73
ENDBRANCH  12  15
ENDBRANCH  10  11
BRANCH  10  77
ATOM     77  CB  ASP d   8    1636.839 491.831-1669.622  0.00  0.00     0.147 C 
BRANCH  77  78
ATOM     78  CG  ASP d   8    1636.620 493.251-1670.162  0.00  0.00     0.175 C 
ATOM     79  OD1 ASP d   8    1636.684 493.451-1671.393  0.00  0.00    -0.648 OA
ATOM     80  OD2 ASP d   8    1636.428 494.177-1669.346  0.00  0.00    -0.648 OA
ENDBRANCH  77  78
ENDBRANCH  10  77
ENDBRANCH   7  10
ENDBRANCH   5   6
BRANCH   5  81
ATOM     81  CB  GLU d   9    1641.880 492.071-1667.751  0.00  0.00     0.045 C 
BRANCH  81  82
ATOM     82  CG  GLU d   9    1643.262 492.763-1667.521  0.00  0.00     0.116 C 
BRANCH  82  83
ATOM     83  CD  GLU d   9    1643.964 492.550-1666.193  0.00  0.00     0.172 C 
ATOM     84  OE1 GLU d   9    1643.443 491.858-1665.297  0.00  0.00    -0.648 OA
ATOM     85  OE2 GLU d   9    1645.083 493.087-1666.061  0.00  0.00    -0.648 OA
ENDBRANCH  82  83
ENDBRANCH  81  82
ENDBRANCH   5  81
ENDBRANCH   1   5
BRANCH   3  86
ATOM     86  CA  ASN d  10    1643.149 489.967-1671.443  0.00  0.00     0.185 C 
BRANCH  86  87
ATOM     87  C   ASN d  10    1642.779 490.535-1672.794  0.00  0.00     0.241 C 
ATOM     88  O   ASN d  10    1643.624 490.998-1673.560  0.00  0.00    -0.271 OA
ATOM     89  N   VAL d  11    1641.541 490.533-1673.155  0.00  0.00    -0.346 N 
ATOM     90  H   VAL d  11    1640.829 490.159-1672.544  0.00  0.00     0.163 HD
BRANCH  89  91
ATOM     91  CA  VAL d  11    1641.184 491.082-1674.460  0.00  0.00     0.180 C 
BRANCH  91  92
ATOM     92  C   VAL d  11    1641.647 492.513-1674.590  0.00  0.00     0.241 C 
ATOM     93  O   VAL d  11    1642.246 492.921-1675.593  0.00  0.00    -0.271 OA
ATOM     94  N   GLN d  12    1641.410 493.336-1673.626  0.00  0.00    -0.346 N 
ATOM     95  H   GLN d  12    1640.923 493.028-1672.797  0.00  0.00     0.163 HD
BRANCH  94  96
ATOM     96  CA  GLN d  12    1641.857 494.720-1673.751  0.00  0.00     0.177 C 
BRANCH  96  97
ATOM     97  C   GLN d  12    1643.346 494.790-1673.990  0.00  0.00     0.241 C 
ATOM     98  O   GLN d  12    1643.832 495.500-1674.868  0.00  0.00    -0.271 OA
ATOM     99  N   ARG d  13    1644.133 494.082-1673.252  0.00  0.00    -0.346 N 
ATOM    100  H   ARG d  13    1643.758 493.490-1672.525  0.00  0.00     0.163 HD
BRANCH  99 101
ATOM    101  CA  ARG d  13    1645.573 494.150-1673.485  0.00  0.00     0.176 C 
BRANCH 101 102
ATOM    102  C   ARG d  13    1645.907 493.782-1674.911  0.00  0.00     0.241 C 
ATOM    103  O   ARG d  13    1646.674 494.456-1675.595  0.00  0.00    -0.271 OA
ATOM    104  N   VAL d  14    1645.372 492.728-1675.427  0.00  0.00    -0.346 N 
ATOM    105  H   VAL d  14    1644.738 492.157-1674.886  0.00  0.00     0.163 HD
BRANCH 104 106
ATOM    106  CA  VAL d  14    1645.695 492.372-1676.806  0.00  0.00     0.180 C 
BRANCH 106 107
ATOM    107  C   VAL d  14    1645.363 493.504-1677.749  0.00  0.00     0.241 C 
ATOM    108  O   VAL d  14    1646.154 493.888-1678.619  0.00  0.00    -0.271 OA
ATOM    109  N   MET d  15    1644.217 494.088-1677.644  0.00  0.00    -0.346 N 
ATOM    110  H   MET d  15    1643.554 493.793-1676.942  0.00  0.00     0.163 HD
BRANCH 109 111
ATOM    111  CA  MET d  15    1643.894 495.183-1678.555  0.00  0.00     0.177 C 
BRANCH 111 112
ATOM    112  C   MET d  15    1644.924 496.284-1678.466  0.00  0.00     0.241 C 
ATOM    113  O   MET d  15    1645.424 496.797-1679.478  0.00  0.00    -0.271 OA
ATOM    114  N   ARG d  16    1645.293 496.702-1677.303  0.00  0.00    -0.347 N 
ATOM    115  H   ARG d  16    1644.901 496.300-1676.464  0.00  0.00     0.163 HD
BRANCH 114 116
ATOM    116  CA  ARG d  16    1646.289 497.767-1677.218  0.00  0.00     0.162 C 
BRANCH 116 117
ATOM    117  C   ARG d  16    1647.559 497.378-1677.937  0.00  0.00     0.219 C 
ATOM    118  O   ARG d  16    1647.673 496.303-1678.522  0.00  0.00    -0.287 OA
ENDBRANCH 116 117
BRANCH 116 119
ATOM    119  CB  ARG d  16    1646.560 498.082-1675.720  0.00  0.00     0.035 C 
BRANCH 119 120
ATOM    120  CG  ARG d  16    1647.384 499.371-1675.445  0.00  0.00     0.023 C 
BRANCH 120 121
ATOM    121  CD  ARG d  16    1647.636 499.587-1673.944  0.00  0.00     0.138 C 
BRANCH 121 122
ATOM    122  NE  ARG d  16    1648.411 500.846-1673.741  0.00  0.00    -0.227 N 
ATOM    123  CZ  ARG d  16    1648.803 501.327-1672.565  0.00  0.00     0.665 C 
ATOM    124  NH1 ARG d  16    1648.558 500.739-1671.427  0.00  0.00    -0.235 N 
ATOM    125  NH2 ARG d  16    1649.466 502.440-1672.544  0.00  0.00    -0.235 N 
ATOM    126 11HH ARG d  16    1648.033 499.866-1671.513  0.00  0.00     0.174 HD
ATOM    127 12HH ARG d  16    1648.893 501.173-1670.566  0.00  0.00     0.174 HD
ATOM    128 21HH ARG d  16    1649.650 502.885-1673.446  0.00  0.00     0.174 HD
ATOM    129 22HH ARG d  16    1649.757 502.793-1671.631  0.00  0.00     0.174 HD
ATOM    130  HE  ARG d  16    1648.687 501.430-1674.537  0.00  0.00     0.177 HD
ENDBRANCH 121 122
ENDBRANCH 120 121
ENDBRANCH 119 120
ENDBRANCH 116 119
ENDBRANCH 114 116
ENDBRANCH 111 112
BRANCH 111 131
ATOM    131  CB  MET d  15    1642.473 495.726-1678.242  0.00  0.00     0.045 C 
BRANCH 131 132
ATOM    132  CG  MET d  15    1641.312 494.727-1678.435  0.00  0.00     0.076 C 
BRANCH 132 133
ATOM    133  SD  MET d  15    1639.737 495.591-1678.316  0.00  0.00    -0.173 SA
ATOM    134  CE  MET d  15    1638.658 494.160-1678.181  0.00  0.00     0.089 C 
ENDBRANCH 132 133
ENDBRANCH 131 132
ENDBRANCH 111 131
ENDBRANCH 109 111
ENDBRANCH 106 107
BRANCH 106 135
ATOM    135  CB  VAL d  14    1644.924 491.055-1677.215  0.00  0.00     0.009 C 
ATOM    136  CG1 VAL d  14    1645.011 490.640-1678.709  0.00  0.00     0.012 C 
ATOM    137  CG2 VAL d  14    1645.358 489.801-1676.418  0.00  0.00     0.012 C 
ENDBRANCH 106 135
ENDBRANCH 104 106
ENDBRANCH 101 102
BRANCH 101 138
ATOM    138  CB  ARG d  13    1646.288 493.209-1672.474  0.00  0.00     0.036 C 
BRANCH 138 139
ATOM    139  CG  ARG d  13    1647.833 493.364-1672.395  0.00  0.00     0.023 C 
BRANCH 139 140
ATOM    140  CD  ARG d  13    1648.463 492.375-1671.400  0.00  0.00     0.138 C 
BRANCH 140 141
ATOM    141  NE  ARG d  13    1649.940 492.583-1671.351  0.00  0.00    -0.227 N 
ATOM    142  CZ  ARG d  13    1650.789 491.891-1670.599  0.00  0.00     0.665 C 
ATOM    143  NH1 ARG d  13    1650.426 490.924-1669.803  0.00  0.00    -0.235 N 
ATOM    144  NH2 ARG d  13    1652.049 492.191-1670.657  0.00  0.00    -0.235 N 
ATOM    145 11HH ARG d  13    1649.421 490.737-1669.805  0.00  0.00     0.174 HD
ATOM    146 12HH ARG d  13    1651.141 490.441-1669.256  0.00  0.00     0.174 HD
ATOM    147 21HH ARG d  13    1652.314 492.951-1671.286  0.00  0.00     0.174 HD
ATOM    148 22HH ARG d  13    1652.685 491.649-1670.070  0.00  0.00     0.174 HD
ATOM    149  HE  ARG d  13    1650.389 493.307-1671.921  0.00  0.00     0.177 HD
ENDBRANCH 140 141
ENDBRANCH 139 140
ENDBRANCH 138 139
ENDBRANCH 101 138
ENDBRANCH  99 101
ENDBRANCH  96  97
BRANCH  96 150
ATOM    150  CB  GLN d  12    1641.467 495.484-1672.466  0.00  0.00     0.044 C 
BRANCH 150 151
ATOM    151  CG  GLN d  12    1641.826 497.006-1672.432  0.00  0.00     0.105 C 
BRANCH 151 152
ATOM    152  CD  GLN d  12    1641.524 497.817-1671.165  0.00  0.00     0.215 C 
ATOM    153  NE2 GLN d  12    1640.959 497.238-1670.137  0.00  0.00    -0.370 N 
ATOM    154 21HE GLN d  12    1640.852 497.830-1669.312  0.00  0.00     0.159 HD
ATOM    155 22HE GLN d  12    1640.796 496.234-1670.242  0.00  0.00     0.159 HD
ATOM    156  OE1 GLN d  12    1641.825 498.998-1671.085  0.00  0.00    -0.274 OA
ENDBRANCH 151 152
ENDBRANCH 150 151
ENDBRANCH  96 150
ENDBRANCH  94  96
ENDBRANCH  91  92
BRANCH  91 157
ATOM    157  CB  VAL d  11    1639.623 490.974-1674.678  0.00  0.00     0.009 C 
ATOM    158  CG1 VAL d  11    1639.052 491.680-1675.939  0.00  0.00     0.012 C 
ATOM    159  CG2 VAL d  11    1639.099 489.519-1674.754  0.00  0.00     0.012 C 
ENDBRANCH  91 157
ENDBRANCH  89  91
ENDBRANCH  86  87
BRANCH  86 160
ATOM    160  CB  ASN d  10    1643.086 488.413-1671.463  0.00  0.00     0.137 C 
BRANCH 160 161
ATOM    161  CG  ASN d  10    1643.430 487.688-1670.158  0.00  0.00     0.217 C 
ATOM    162  ND2 ASN d  10    1644.685 487.556-1669.821  0.00  0.00    -0.370 N 
ATOM    163 21HD ASN d  10    1644.798 487.198-1668.870  0.00  0.00     0.159 HD
ATOM    164 22HD ASN d  10    1645.374 488.011-1670.420  0.00  0.00     0.159 HD
ATOM    165  OD1 ASN d  10    1642.568 487.249-1669.411  0.00  0.00    -0.274 OA
ENDBRANCH 160 161
ENDBRANCH  86 160
ENDBRANCH   3  86
TORSDOF 68
