REMARK WARNING: 32 MAX_TORS EXCEEDED!!!
REMARK  68 active torsions:
REMARK  status: ('A' for Active; 'I' for Inactive)
REMARK    1  A    between atoms: N_1  and  CA_2 
REMARK    2  A    between atoms: CA_2  and  C_3 
REMARK    3  A    between atoms: CA_2  and  CB_5 
REMARK       I    between atoms: C_3  and  N_11 
REMARK    4  A    between atoms: CB_5  and  CG_6 
REMARK    5  A    between atoms: CG_6  and  CD_7 
REMARK    6  A    between atoms: N_11  and  CA_12 
REMARK    7  A    between atoms: CA_12  and  C_13 
REMARK    8  A    between atoms: CA_12  and  CB_15 
REMARK       I    between atoms: C_13  and  N_22 
REMARK    9  A    between atoms: CB_15  and  CG_16 
REMARK       I    between atoms: CG_16  and  ND2_17 
REMARK   10  A    between atoms: CA_23  and  C_24 
REMARK       I    between atoms: C_24  and  N_29 
REMARK   11  A    between atoms: N_29  and  CA_30 
REMARK   12  A    between atoms: CA_30  and  C_31 
REMARK   13  A    between atoms: CA_30  and  CB_33 
REMARK       I    between atoms: C_31  and  N_39 
REMARK   14  A    between atoms: CB_33  and  CG_34 
REMARK   15  A    between atoms: CG_34  and  CD_35 
REMARK   16  A    between atoms: N_39  and  CA_40 
REMARK   17  A    between atoms: CA_40  and  C_41 
REMARK   18  A    between atoms: CA_40  and  CB_43 
REMARK       I    between atoms: C_41  and  N_47 
REMARK   19  A    between atoms: CB_43  and  OG_44 
REMARK   20  A    between atoms: N_47  and  CA_48 
REMARK   21  A    between atoms: CA_48  and  C_49 
REMARK   22  A    between atoms: CA_48  and  CB_51 
REMARK       I    between atoms: C_49  and  N_56 
REMARK   23  A    between atoms: CB_51  and  CG1_52 
REMARK   24  A    between atoms: N_56  and  CA_57 
REMARK   25  A    between atoms: CA_57  and  C_58 
REMARK   26  A    between atoms: CA_57  and  CB_60 
REMARK       I    between atoms: C_58  and  N_65 
REMARK   27  A    between atoms: CB_60  and  CG_61 
REMARK   28  A    between atoms: N_65  and  CA_66 
REMARK   29  A    between atoms: CA_66  and  C_67 
REMARK   30  A    between atoms: CA_66  and  CB_69 
REMARK       I    between atoms: C_67  and  N_74 
REMARK   31  A    between atoms: CB_69  and  CG_70 
REMARK   32  A    between atoms: N_74  and  CA_75 
REMARK   33  A    between atoms: CA_75  and  C_76 
REMARK   34  A    between atoms: CA_75  and  CB_78 
REMARK       I    between atoms: C_76  and  N_84 
REMARK   35  A    between atoms: CB_78  and  CG_79 
REMARK   36  A    between atoms: CG_79  and  CD_80 
REMARK   37  A    between atoms: N_84  and  CA_85 
REMARK   38  A    between atoms: CA_85  and  C_86 
REMARK   39  A    between atoms: CA_85  and  CB_88 
REMARK       I    between atoms: C_86  and  N_96 
REMARK   40  A    between atoms: CB_88  and  CG_89 
REMARK   41  A    between atoms: N_96  and  CA_97 
REMARK   42  A    between atoms: CA_97  and  C_98 
REMARK   43  A    between atoms: CA_97  and  CB_100 
REMARK       I    between atoms: C_98  and  N_104 
REMARK   44  A    between atoms: N_104  and  CA_105 
REMARK   45  A    between atoms: CA_105  and  C_106 
REMARK   46  A    between atoms: CA_105  and  CB_108 
REMARK       I    between atoms: C_106  and  N_116 
REMARK   47  A    between atoms: CB_108  and  CG_109 
REMARK   48  A    between atoms: CG_109  and  CD_110 
REMARK       I    between atoms: CD_110  and  NE2_111 
REMARK   49  A    between atoms: N_116  and  CA_117 
REMARK   50  A    between atoms: CA_117  and  C_118 
REMARK   51  A    between atoms: CA_117  and  CB_120 
REMARK       I    between atoms: C_118  and  N_133 
REMARK   52  A    between atoms: CB_120  and  CG_121 
REMARK   53  A    between atoms: CG_121  and  CD_122 
REMARK   54  A    between atoms: CD_122  and  NE_123 
REMARK       I    between atoms: NE_123  and  CZ_124 
REMARK       I    between atoms: CZ_124  and  NH1_125 
REMARK       I    between atoms: CZ_124  and  NH2_126 
REMARK   55  A    between atoms: N_133  and  CA_134 
REMARK   56  A    between atoms: CA_134  and  C_135 
REMARK   57  A    between atoms: CA_134  and  CB_137 
REMARK       I    between atoms: C_135  and  N_141 
REMARK   58  A    between atoms: N_141  and  CA_142 
REMARK   59  A    between atoms: CA_142  and  C_143 
REMARK   60  A    between atoms: CA_142  and  CB_145 
REMARK       I    between atoms: C_143  and  N_150 
REMARK   61  A    between atoms: CB_145  and  CG_146 
REMARK   62  A    between atoms: CG_146  and  SD_147 
REMARK   63  A    between atoms: N_150  and  CA_151 
REMARK   64  A    between atoms: CA_151  and  C_152 
REMARK   65  A    between atoms: CA_151  and  CB_154 
REMARK   66  A    between atoms: CB_154  and  CG_155 
REMARK   67  A    between atoms: CG_155  and  CD_156 
REMARK   68  A    between atoms: CD_156  and  NE_157 
REMARK       I    between atoms: NE_157  and  CZ_158 
REMARK       I    between atoms: CZ_158  and  NH1_159 
ROOT
ATOM      1  C   GLU d   9    1249.307 362.941-1243.919  0.00  0.00     0.241 C 
ATOM      2  O   GLU d   9    1249.972 363.695-1244.643  0.00  0.00    -0.271 OA
ATOM      3  N   HIS d  10    1249.402 361.666-1244.089  0.00  0.00    -0.346 N 
ATOM      4  H   HIS d  10    1248.870 361.031-1243.511  0.00  0.00     0.163 HD
ENDROOT
BRANCH   1   5
ATOM      5  CA  GLU d   9    1248.389 363.470-1242.844  0.00  0.00     0.177 C 
BRANCH   5   6
ATOM      6  N   GLU d   9    1247.085 362.814-1242.900  0.00  0.00    -0.346 N 
ATOM      7  C   LEU d   8    1246.406 362.865-1243.996  0.00  0.00     0.241 C 
ATOM      8  O   LEU d   8    1246.881 363.469-1244.969  0.00  0.00    -0.271 OA
ATOM      9  H   GLU d   9    1246.720 362.327-1242.094  0.00  0.00     0.163 HD
BRANCH   7  10
ATOM     10  CA  LEU d   8    1245.059 362.186-1244.054  0.00  0.00     0.177 C 
BRANCH  10  11
ATOM     11  N   LEU d   8    1245.129 360.837-1243.501  0.00  0.00    -0.346 N 
ATOM     12  C   LEU d   7    1245.966 359.997-1244.007  0.00  0.00     0.241 C 
ATOM     13  O   LEU d   7    1246.687 360.360-1244.949  0.00  0.00    -0.271 OA
ATOM     14  H   LEU d   8    1244.531 360.566-1242.733  0.00  0.00     0.163 HD
BRANCH  12  15
ATOM     15  CA  LEU d   7    1246.039 358.601-1243.435  0.00  0.00     0.177 C 
BRANCH  15  16
ATOM     16  N   LEU d   7    1246.094 358.637-1241.976  0.00  0.00    -0.346 N 
ATOM     17  C   ILE d   6    1247.040 359.301-1241.403  0.00  0.00     0.241 C 
ATOM     18  O   ILE d   6    1247.874 359.888-1242.107  0.00  0.00    -0.271 OA
ATOM     19  H   LEU d   7    1245.402 358.150-1241.425  0.00  0.00     0.163 HD
BRANCH  17  20
ATOM     20  CA  ILE d   6    1247.097 359.338-1239.895  0.00  0.00     0.180 C 
BRANCH  20  21
ATOM     21  N   ILE d   6    1245.784 359.633-1239.329  0.00  0.00    -0.346 N 
ATOM     22  C   SER d   5    1245.179 360.716-1239.683  0.00  0.00     0.243 C 
ATOM     23  O   SER d   5    1245.726 361.469-1240.487  0.00  0.00    -0.271 OA
ATOM     24  H   ILE d   6    1245.356 358.998-1238.670  0.00  0.00     0.163 HD
BRANCH  22  25
ATOM     25  CA  SER d   5    1243.820 361.021-1239.097  0.00  0.00     0.200 C 
BRANCH  25  26
ATOM     26  N   SER d   5    1242.951 359.850-1239.155  0.00  0.00    -0.344 N 
ATOM     27  C   GLU d   4    1242.723 359.297-1240.298  0.00  0.00     0.241 C 
ATOM     28  O   GLU d   4    1243.250 359.777-1241.313  0.00  0.00    -0.271 OA
ATOM     29  H   SER d   5    1242.534 359.478-1238.314  0.00  0.00     0.163 HD
BRANCH  27  30
ATOM     30  CA  GLU d   4    1241.824 358.086-1240.359  0.00  0.00     0.177 C 
BRANCH  30  31
ATOM     31  N   GLU d   4    1242.184 357.115-1239.330  0.00  0.00    -0.346 N 
ATOM     32  C   PRO d   3    1243.389 356.655-1239.298  0.00  0.00     0.241 C 
ATOM     33  O   PRO d   3    1244.212 357.038-1240.129  0.00  0.00    -0.271 OA
ATOM     34  H   GLU d   4    1241.500 356.808-1238.653  0.00  0.00     0.163 HD
BRANCH  32  35
ATOM     35  CA  PRO d   3    1243.787 355.631-1238.221  0.00  0.00     0.179 C 
ATOM     36  N   PRO d   3    1243.336 356.041-1236.899  0.00  0.00    -0.337 N 
ATOM     37  C   ASN d   2    1243.857 357.036-1236.265  0.00  0.00     0.243 C 
ATOM     38  CD  PRO d   3    1242.258 355.247-1236.350  0.00  0.00     0.127 C 
ATOM     39  O   ASN d   2    1244.772 357.666-1236.794  0.00  0.00    -0.271 OA
ATOM     40  CG  PRO d   3    1241.800 354.429-1237.560  0.00  0.00     0.022 C 
ATOM     41  CB  PRO d   3    1243.083 354.277-1238.390  0.00  0.00     0.037 C 
BRANCH  37  42
ATOM     42  CA  ASN d   2    1243.326 357.391-1234.896  0.00  0.00     0.185 C 
BRANCH  42  43
ATOM     43  N   ASN d   2    1241.867 357.430-1234.896  0.00  0.00    -0.346 N 
ATOM     44  C   GLU d   1    1241.262 358.216-1235.722  0.00  0.00     0.242 C 
ATOM     45  O   GLU d   1    1241.938 358.915-1236.490  0.00  0.00    -0.271 OA
ATOM     46  H   ASN d   2    1241.338 356.850-1234.260  0.00  0.00     0.163 HD
BRANCH  44  47
ATOM     47  CA  GLU d   1    1239.753 358.256-1235.722  0.00  0.00     0.191 C 
BRANCH  47  48
ATOM     48  N   GLU d   1    1239.194 356.907-1235.722  0.00  0.00    -0.326 NA
ATOM     49  H   GLU d   1    1239.821 356.028-1235.722  0.00  0.00     0.180 HD
ENDBRANCH  47  48
BRANCH  47  50
ATOM     50  CB  GLU d   1    1239.230 359.041-1234.485  0.00  0.00     0.047 C 
BRANCH  50  51
ATOM     51  CG  GLU d   1    1239.705 360.526-1234.374  0.00  0.00     0.116 C 
BRANCH  51  52
ATOM     52  CD  GLU d   1    1239.281 361.330-1233.159  0.00  0.00     0.172 C 
ATOM     53  OE1 GLU d   1    1238.553 360.828-1232.281  0.00  0.00    -0.648 OA
ATOM     54  OE2 GLU d   1    1239.711 362.500-1233.087  0.00  0.00    -0.648 OA
ENDBRANCH  51  52
ENDBRANCH  50  51
ENDBRANCH  47  50
ENDBRANCH  44  47
ENDBRANCH  42  43
BRANCH  42  55
ATOM     55  CB  ASN d   2    1243.818 356.368-1233.832  0.00  0.00     0.137 C 
BRANCH  55  56
ATOM     56  CG  ASN d   2    1243.355 356.592-1232.389  0.00  0.00     0.217 C 
ATOM     57  ND2 ASN d   2    1243.949 357.507-1231.671  0.00  0.00    -0.370 N 
ATOM     58 21HD ASN d   2    1243.469 357.680-1230.784  0.00  0.00     0.159 HD
ATOM     59 22HD ASN d   2    1244.651 358.079-1232.140  0.00  0.00     0.159 HD
ATOM     60  OD1 ASN d   2    1242.434 355.958-1231.895  0.00  0.00    -0.274 OA
ENDBRANCH  55  56
ENDBRANCH  42  55
ENDBRANCH  37  42
ENDBRANCH  32  35
ENDBRANCH  30  31
BRANCH  30  61
ATOM     61  CB  GLU d   4    1240.336 358.504-1240.189  0.00  0.00     0.045 C 
BRANCH  61  62
ATOM     62  CG  GLU d   4    1239.788 359.508-1241.255  0.00  0.00     0.116 C 
BRANCH  62  63
ATOM     63  CD  GLU d   4    1238.361 360.005-1241.111  0.00  0.00     0.172 C 
ATOM     64  OE1 GLU d   4    1237.635 359.606-1240.180  0.00  0.00    -0.648 OA
ATOM     65  OE2 GLU d   4    1237.971 360.834-1241.959  0.00  0.00    -0.648 OA
ENDBRANCH  62  63
ENDBRANCH  61  62
ENDBRANCH  30  61
ENDBRANCH  27  30
ENDBRANCH  25  26
BRANCH  25  66
ATOM     66  CB  SER d   5    1243.932 361.553-1237.646  0.00  0.00     0.199 C 
BRANCH  66  67
ATOM     67  OG  SER d   5    1244.664 360.674-1236.785  0.00  0.00    -0.398 OA
ATOM     68  HG  SER d   5    1244.175 359.849-1236.735  0.00  0.00     0.209 HD
ENDBRANCH  66  67
ENDBRANCH  25  66
ENDBRANCH  22  25
ENDBRANCH  20  21
BRANCH  20  69
ATOM     69  CB  ILE d   6    1247.697 358.002-1239.295  0.00  0.00     0.013 C 
ATOM     70  CG2 ILE d   6    1249.138 357.700-1239.811  0.00  0.00     0.012 C 
BRANCH  69  71
ATOM     71  CG1 ILE d   6    1247.716 357.939-1237.734  0.00  0.00     0.002 C 
ATOM     72  CD1 ILE d   6    1247.986 356.550-1237.120  0.00  0.00     0.005 C 
ENDBRANCH  69  71
ENDBRANCH  20  69
ENDBRANCH  17  20
ENDBRANCH  15  16
BRANCH  15  73
ATOM     73  CB  LEU d   7    1244.836 357.741-1243.915  0.00  0.00     0.038 C 
BRANCH  73  74
ATOM     74  CG  LEU d   7    1244.763 356.262-1243.449  0.00  0.00    -0.020 C 
ATOM     75  CD1 LEU d   7    1243.573 355.556-1244.115  0.00  0.00     0.009 C 
ATOM     76  CD2 LEU d   7    1246.057 355.483-1243.741  0.00  0.00     0.009 C 
ENDBRANCH  73  74
ENDBRANCH  15  73
ENDBRANCH  12  15
ENDBRANCH  10  11
BRANCH  10  77
ATOM     77  CB  LEU d   8    1243.982 363.026-1243.310  0.00  0.00     0.038 C 
BRANCH  77  78
ATOM     78  CG  LEU d   8    1242.523 362.495-1243.295  0.00  0.00    -0.020 C 
ATOM     79  CD1 LEU d   8    1241.597 363.513-1242.614  0.00  0.00     0.009 C 
ATOM     80  CD2 LEU d   8    1241.993 362.174-1244.702  0.00  0.00     0.009 C 
ENDBRANCH  77  78
ENDBRANCH  10  77
ENDBRANCH   7  10
ENDBRANCH   5   6
BRANCH   5  81
ATOM     81  CB  GLU d   9    1249.021 363.261-1241.438  0.00  0.00     0.045 C 
BRANCH  81  82
ATOM     82  CG  GLU d   9    1250.404 363.951-1241.207  0.00  0.00     0.116 C 
BRANCH  82  83
ATOM     83  CD  GLU d   9    1251.104 363.736-1239.878  0.00  0.00     0.172 C 
ATOM     84  OE1 GLU d   9    1250.581 363.046-1238.983  0.00  0.00    -0.648 OA
ATOM     85  OE2 GLU d   9    1252.224 364.273-1239.745  0.00  0.00    -0.648 OA
ENDBRANCH  82  83
ENDBRANCH  81  82
ENDBRANCH   5  81
ENDBRANCH   1   5
BRANCH   3  86
ATOM     86  CA  HIS d  10    1250.290 361.154-1245.129  0.00  0.00     0.182 C 
BRANCH  86  87
ATOM     87  C   HIS d  10    1249.925 361.720-1246.480  0.00  0.00     0.241 C 
ATOM     88  O   HIS d  10    1250.779 362.184-1247.251  0.00  0.00    -0.271 OA
ATOM     89  N   VAL d  11    1248.688 361.720-1246.844  0.00  0.00    -0.346 N 
ATOM     90  H   VAL d  11    1247.974 361.348-1246.234  0.00  0.00     0.163 HD
BRANCH  89  91
ATOM     91  CA  VAL d  11    1248.334 362.268-1248.151  0.00  0.00     0.180 C 
BRANCH  91  92
ATOM     92  C   VAL d  11    1248.800 363.698-1248.282  0.00  0.00     0.241 C 
ATOM     93  O   VAL d  11    1249.402 364.103-1249.284  0.00  0.00    -0.271 OA
ATOM     94  N   GLN d  12    1248.563 364.523-1247.319  0.00  0.00    -0.346 N 
ATOM     95  H   GLN d  12    1248.073 364.217-1246.490  0.00  0.00     0.163 HD
BRANCH  94  96
ATOM     96  CA  GLN d  12    1249.013 365.906-1247.445  0.00  0.00     0.177 C 
BRANCH  96  97
ATOM     97  C   GLN d  12    1250.503 365.972-1247.681  0.00  0.00     0.241 C 
ATOM     98  O   GLN d  12    1250.992 366.680-1248.559  0.00  0.00    -0.271 OA
ATOM     99  N   ARG d  13    1251.287 365.264-1246.940  0.00  0.00    -0.346 N 
ATOM    100  H   ARG d  13    1250.909 364.674-1246.213  0.00  0.00     0.163 HD
BRANCH  99 101
ATOM    101  CA  ARG d  13    1252.727 365.328-1247.170  0.00  0.00     0.176 C 
BRANCH 101 102
ATOM    102  C   ARG d  13    1253.064 364.957-1248.595  0.00  0.00     0.241 C 
ATOM    103  O   ARG d  13    1253.834 365.629-1249.278  0.00  0.00    -0.271 OA
ATOM    104  N   VAL d  14    1252.527 363.904-1249.110  0.00  0.00    -0.346 N 
ATOM    105  H   VAL d  14    1251.891 363.335-1248.569  0.00  0.00     0.163 HD
BRANCH 104 106
ATOM    106  CA  VAL d  14    1252.853 363.545-1250.488  0.00  0.00     0.180 C 
BRANCH 106 107
ATOM    107  C   VAL d  14    1252.524 364.676-1251.433  0.00  0.00     0.241 C 
ATOM    108  O   VAL d  14    1253.319 365.057-1252.302  0.00  0.00    -0.271 OA
ATOM    109  N   MET d  15    1251.380 365.263-1251.332  0.00  0.00    -0.346 N 
ATOM    110  H   MET d  15    1250.714 364.970-1250.631  0.00  0.00     0.163 HD
BRANCH 109 111
ATOM    111  CA  MET d  15    1251.062 366.356-1252.245  0.00  0.00     0.177 C 
BRANCH 111 112
ATOM    112  C   MET d  15    1252.093 367.455-1252.156  0.00  0.00     0.241 C 
ATOM    113  O   MET d  15    1252.597 367.966-1253.168  0.00  0.00    -0.271 OA
ATOM    114  N   ARG d  16    1252.462 367.875-1250.993  0.00  0.00    -0.347 N 
ATOM    115  H   ARG d  16    1252.066 367.475-1250.154  0.00  0.00     0.163 HD
BRANCH 114 116
ATOM    116  CA  ARG d  16    1253.459 368.938-1250.908  0.00  0.00     0.162 C 
BRANCH 116 117
ATOM    117  C   ARG d  16    1254.730 368.544-1251.624  0.00  0.00     0.219 C 
ATOM    118  O   ARG d  16    1254.843 367.468-1252.206  0.00  0.00    -0.287 OA
ENDBRANCH 116 117
BRANCH 116 119
ATOM    119  CB  ARG d  16    1253.728 369.254-1249.409  0.00  0.00     0.035 C 
BRANCH 119 120
ATOM    120  CG  ARG d  16    1254.554 370.542-1249.135  0.00  0.00     0.023 C 
BRANCH 120 121
ATOM    121  CD  ARG d  16    1254.803 370.760-1247.633  0.00  0.00     0.138 C 
BRANCH 121 122
ATOM    122  NE  ARG d  16    1255.580 372.018-1247.431  0.00  0.00    -0.227 N 
ATOM    123  CZ  ARG d  16    1255.972 372.499-1246.255  0.00  0.00     0.665 C 
ATOM    124  NH1 ARG d  16    1255.723 371.914-1245.117  0.00  0.00    -0.235 N 
ATOM    125  NH2 ARG d  16    1256.637 373.611-1246.235  0.00  0.00    -0.235 N 
ATOM    126 11HH ARG d  16    1255.196 371.042-1245.202  0.00  0.00     0.174 HD
ATOM    127 12HH ARG d  16    1256.057 372.349-1244.255  0.00  0.00     0.174 HD
ATOM    128 21HH ARG d  16    1256.823 374.054-1247.136  0.00  0.00     0.174 HD
ATOM    129 22HH ARG d  16    1256.927 373.965-1245.322  0.00  0.00     0.174 HD
ATOM    130  HE  ARG d  16    1255.860 372.599-1248.227  0.00  0.00     0.177 HD
ENDBRANCH 121 122
ENDBRANCH 120 121
ENDBRANCH 119 120
ENDBRANCH 116 119
ENDBRANCH 114 116
ENDBRANCH 111 112
BRANCH 111 131
ATOM    131  CB  MET d  15    1249.641 366.904-1251.937  0.00  0.00     0.045 C 
BRANCH 131 132
ATOM    132  CG  MET d  15    1248.478 365.907-1252.130  0.00  0.00     0.076 C 
BRANCH 132 133
ATOM    133  SD  MET d  15    1246.905 366.775-1252.016  0.00  0.00    -0.173 SA
ATOM    134  CE  MET d  15    1245.822 365.346-1251.881  0.00  0.00     0.089 C 
ENDBRANCH 132 133
ENDBRANCH 131 132
ENDBRANCH 111 131
ENDBRANCH 109 111
ENDBRANCH 106 107
BRANCH 106 135
ATOM    135  CB  VAL d  14    1252.079 362.229-1250.896  0.00  0.00     0.009 C 
ATOM    136  CG1 VAL d  14    1252.169 361.811-1252.390  0.00  0.00     0.012 C 
ATOM    137  CG2 VAL d  14    1252.509 360.976-1250.096  0.00  0.00     0.012 C 
ENDBRANCH 106 135
ENDBRANCH 104 106
ENDBRANCH 101 102
BRANCH 101 138
ATOM    138  CB  ARG d  13    1253.439 364.387-1246.156  0.00  0.00     0.036 C 
BRANCH 138 139
ATOM    139  CG  ARG d  13    1254.984 364.539-1246.074  0.00  0.00     0.023 C 
BRANCH 139 140
ATOM    140  CD  ARG d  13    1255.609 363.550-1245.077  0.00  0.00     0.138 C 
BRANCH 140 141
ATOM    141  NE  ARG d  13    1257.087 363.755-1245.025  0.00  0.00    -0.227 N 
ATOM    142  CZ  ARG d  13    1257.933 363.062-1244.270  0.00  0.00     0.665 C 
ATOM    143  NH1 ARG d  13    1257.566 362.097-1243.473  0.00  0.00    -0.235 N 
ATOM    144  NH2 ARG d  13    1259.193 363.359-1244.326  0.00  0.00    -0.235 N 
ATOM    145 11HH ARG d  13    1256.561 361.912-1243.477  0.00  0.00     0.174 HD
ATOM    146 12HH ARG d  13    1258.279 361.613-1242.925  0.00  0.00     0.174 HD
ATOM    147 21HH ARG d  13    1259.462 364.118-1244.956  0.00  0.00     0.174 HD
ATOM    148 22HH ARG d  13    1259.827 362.817-1243.737  0.00  0.00     0.174 HD
ATOM    149  HE  ARG d  13    1257.539 364.477-1245.595  0.00  0.00     0.177 HD
ENDBRANCH 140 141
ENDBRANCH 139 140
ENDBRANCH 138 139
ENDBRANCH 101 138
ENDBRANCH  99 101
ENDBRANCH  96  97
BRANCH  96 150
ATOM    150  CB  GLN d  12    1248.622 366.673-1246.162  0.00  0.00     0.044 C 
BRANCH 150 151
ATOM    151  CG  GLN d  12    1248.984 368.194-1246.129  0.00  0.00     0.105 C 
BRANCH 151 152
ATOM    152  CD  GLN d  12    1248.681 369.007-1244.864  0.00  0.00     0.215 C 
ATOM    153  NE2 GLN d  12    1248.113 368.430-1243.836  0.00  0.00    -0.370 N 
ATOM    154 21HE GLN d  12    1248.006 369.024-1243.012  0.00  0.00     0.159 HD
ATOM    155 22HE GLN d  12    1247.948 367.427-1243.940  0.00  0.00     0.159 HD
ATOM    156  OE1 GLN d  12    1248.984 370.188-1244.786  0.00  0.00    -0.274 OA
ENDBRANCH 151 152
ENDBRANCH 150 151
ENDBRANCH  96 150
ENDBRANCH  94  96
ENDBRANCH  91  92
BRANCH  91 157
ATOM    157  CB  VAL d  11    1246.773 362.163-1248.371  0.00  0.00     0.009 C 
ATOM    158  CG1 VAL d  11    1246.206 362.869-1249.634  0.00  0.00     0.012 C 
ATOM    159  CG2 VAL d  11    1246.247 360.710-1248.446  0.00  0.00     0.012 C 
ENDBRANCH  91 157
ENDBRANCH  89  91
ENDBRANCH  86  87
BRANCH  86 160
ATOM    160  CB  HIS d  10    1250.124 359.625-1245.125  0.00  0.00     0.095 C 
BRANCH 160 161
ATOM    161  CG  HIS d  10    1251.409 358.913-1244.816  0.00  0.00     0.053 A 
ATOM    162  CD2 HIS d  10    1251.788 358.577-1243.523  0.00  0.00     0.116 A 
ATOM    163  NE2 HIS d  10    1253.002 357.944-1243.589  0.00  0.00    -0.359 N 
ATOM    164  CE1 HIS d  10    1253.266 357.947-1244.924  0.00  0.00     0.207 A 
ATOM    165  2HE HIS d  10    1253.568 357.565-1242.816  0.00  0.00     0.166 HD
ATOM    166  ND1 HIS d  10    1252.361 358.507-1245.748  0.00  0.00    -0.247 NA
ENDBRANCH 160 161
ENDBRANCH  86 160
ENDBRANCH   3  86
TORSDOF 68
