REMARK WARNING: 32 MAX_TORS EXCEEDED!!!
REMARK  68 active torsions:
REMARK  status: ('A' for Active; 'I' for Inactive)
REMARK    1  A    between atoms: N_1  and  CA_2 
REMARK    2  A    between atoms: CA_2  and  C_3 
REMARK    3  A    between atoms: CA_2  and  CB_5 
REMARK       I    between atoms: C_3  and  N_11 
REMARK    4  A    between atoms: CB_5  and  CG_6 
REMARK    5  A    between atoms: CG_6  and  CD_7 
REMARK    6  A    between atoms: N_11  and  CA_12 
REMARK    7  A    between atoms: CA_12  and  C_13 
REMARK    8  A    between atoms: CA_12  and  CB_15 
REMARK       I    between atoms: C_13  and  N_22 
REMARK    9  A    between atoms: CB_15  and  CG_16 
REMARK       I    between atoms: CG_16  and  ND2_17 
REMARK   10  A    between atoms: CA_23  and  C_24 
REMARK       I    between atoms: C_24  and  N_29 
REMARK   11  A    between atoms: N_29  and  CA_30 
REMARK   12  A    between atoms: CA_30  and  C_31 
REMARK   13  A    between atoms: CA_30  and  CB_33 
REMARK       I    between atoms: C_31  and  N_39 
REMARK   14  A    between atoms: CB_33  and  CG_34 
REMARK   15  A    between atoms: CG_34  and  CD_35 
REMARK   16  A    between atoms: N_39  and  CA_40 
REMARK   17  A    between atoms: CA_40  and  C_41 
REMARK   18  A    between atoms: CA_40  and  CB_43 
REMARK       I    between atoms: C_41  and  N_47 
REMARK   19  A    between atoms: CB_43  and  OG_44 
REMARK   20  A    between atoms: N_47  and  CA_48 
REMARK   21  A    between atoms: CA_48  and  C_49 
REMARK   22  A    between atoms: CA_48  and  CB_51 
REMARK       I    between atoms: C_49  and  N_56 
REMARK   23  A    between atoms: CB_51  and  CG1_52 
REMARK   24  A    between atoms: N_56  and  CA_57 
REMARK   25  A    between atoms: CA_57  and  C_58 
REMARK   26  A    between atoms: CA_57  and  CB_60 
REMARK       I    between atoms: C_58  and  N_65 
REMARK   27  A    between atoms: CB_60  and  CG_61 
REMARK   28  A    between atoms: N_65  and  CA_66 
REMARK   29  A    between atoms: CA_66  and  C_67 
REMARK   30  A    between atoms: CA_66  and  CB_69 
REMARK       I    between atoms: C_67  and  N_74 
REMARK   31  A    between atoms: CB_69  and  CG_70 
REMARK   32  A    between atoms: N_74  and  CA_75 
REMARK   33  A    between atoms: CA_75  and  C_76 
REMARK   34  A    between atoms: CA_75  and  CB_78 
REMARK       I    between atoms: C_76  and  N_84 
REMARK   35  A    between atoms: CB_78  and  CG_79 
REMARK   36  A    between atoms: CG_79  and  CD_80 
REMARK   37  A    between atoms: N_84  and  CA_85 
REMARK   38  A    between atoms: CA_85  and  C_86 
REMARK   39  A    between atoms: CA_85  and  CB_88 
REMARK       I    between atoms: C_86  and  N_100 
REMARK   40  A    between atoms: CB_88  and  CG_89 
REMARK   41  A    between atoms: N_100  and  CA_101 
REMARK   42  A    between atoms: CA_101  and  C_102 
REMARK   43  A    between atoms: CA_101  and  CB_104 
REMARK       I    between atoms: C_102  and  N_108 
REMARK   44  A    between atoms: N_108  and  CA_109 
REMARK   45  A    between atoms: CA_109  and  C_110 
REMARK   46  A    between atoms: CA_109  and  CB_112 
REMARK       I    between atoms: C_110  and  N_120 
REMARK   47  A    between atoms: CB_112  and  CG_113 
REMARK   48  A    between atoms: CG_113  and  CD_114 
REMARK       I    between atoms: CD_114  and  NE2_115 
REMARK   49  A    between atoms: N_120  and  CA_121 
REMARK   50  A    between atoms: CA_121  and  C_122 
REMARK   51  A    between atoms: CA_121  and  CB_124 
REMARK       I    between atoms: C_122  and  N_137 
REMARK   52  A    between atoms: CB_124  and  CG_125 
REMARK   53  A    between atoms: CG_125  and  CD_126 
REMARK   54  A    between atoms: CD_126  and  NE_127 
REMARK       I    between atoms: NE_127  and  CZ_128 
REMARK       I    between atoms: CZ_128  and  NH1_129 
REMARK       I    between atoms: CZ_128  and  NH2_130 
REMARK   55  A    between atoms: N_137  and  CA_138 
REMARK   56  A    between atoms: CA_138  and  C_139 
REMARK   57  A    between atoms: CA_138  and  CB_141 
REMARK       I    between atoms: C_139  and  N_145 
REMARK   58  A    between atoms: N_145  and  CA_146 
REMARK   59  A    between atoms: CA_146  and  C_147 
REMARK   60  A    between atoms: CA_146  and  CB_149 
REMARK       I    between atoms: C_147  and  N_154 
REMARK   61  A    between atoms: CB_149  and  CG_150 
REMARK   62  A    between atoms: CG_150  and  SD_151 
REMARK   63  A    between atoms: N_154  and  CA_155 
REMARK   64  A    between atoms: CA_155  and  C_156 
REMARK   65  A    between atoms: CA_155  and  CB_158 
REMARK   66  A    between atoms: CB_158  and  CG_159 
REMARK   67  A    between atoms: CG_159  and  CD_160 
REMARK   68  A    between atoms: CD_160  and  NE_161 
REMARK       I    between atoms: NE_161  and  CZ_162 
REMARK       I    between atoms: CZ_162  and  NH1_163 
ROOT
ATOM      1  C   GLU d   9    1601.121 478.221-1625.780  0.00  0.00     0.241 C 
ATOM      2  O   GLU d   9    1601.785 478.976-1626.505  0.00  0.00    -0.271 OA
ATOM      3  N   TRP d  10    1601.218 476.946-1625.950  0.00  0.00    -0.346 N 
ATOM      4  H   TRP d  10    1600.687 476.310-1625.372  0.00  0.00     0.163 HD
ENDROOT
BRANCH   3   5
ATOM      5  CA  TRP d  10    1602.105 476.436-1626.990  0.00  0.00     0.181 C 
BRANCH   5   6
ATOM      6  C   TRP d  10    1601.738 477.002-1628.342  0.00  0.00     0.241 C 
ATOM      7  O   TRP d  10    1602.583 477.464-1629.106  0.00  0.00    -0.271 OA
ATOM      8  N   VAL d  11    1600.500 477.002-1628.704  0.00  0.00    -0.346 N 
ATOM      9  H   VAL d  11    1599.787 476.628-1628.094  0.00  0.00     0.163 HD
BRANCH   8  10
ATOM     10  CA  VAL d  11    1600.145 477.549-1630.011  0.00  0.00     0.180 C 
BRANCH  10  11
ATOM     11  C   VAL d  11    1600.609 478.980-1630.141  0.00  0.00     0.241 C 
ATOM     12  O   VAL d  11    1601.210 479.386-1631.144  0.00  0.00    -0.271 OA
ATOM     13  N   GLN d  12    1600.372 479.804-1629.178  0.00  0.00    -0.346 N 
ATOM     14  H   GLN d  12    1599.883 479.497-1628.349  0.00  0.00     0.163 HD
BRANCH  13  15
ATOM     15  CA  GLN d  12    1600.821 481.188-1629.304  0.00  0.00     0.177 C 
BRANCH  15  16
ATOM     16  C   GLN d  12    1602.311 481.255-1629.542  0.00  0.00     0.241 C 
ATOM     17  O   GLN d  12    1602.798 481.965-1630.419  0.00  0.00    -0.271 OA
ATOM     18  N   ARG d  13    1603.095 480.548-1628.801  0.00  0.00    -0.346 N 
ATOM     19  H   ARG d  13    1602.719 479.957-1628.074  0.00  0.00     0.163 HD
BRANCH  18  20
ATOM     20  CA  ARG d  13    1604.535 480.614-1629.032  0.00  0.00     0.176 C 
BRANCH  20  21
ATOM     21  C   ARG d  13    1604.872 480.244-1630.457  0.00  0.00     0.241 C 
ATOM     22  O   ARG d  13    1605.641 480.916-1631.140  0.00  0.00    -0.271 OA
ATOM     23  N   VAL d  14    1604.336 479.190-1630.973  0.00  0.00    -0.346 N 
ATOM     24  H   VAL d  14    1603.701 478.621-1630.432  0.00  0.00     0.163 HD
BRANCH  23  25
ATOM     25  CA  VAL d  14    1604.661 478.832-1632.351  0.00  0.00     0.180 C 
BRANCH  25  26
ATOM     26  C   VAL d  14    1604.331 479.963-1633.295  0.00  0.00     0.241 C 
ATOM     27  O   VAL d  14    1605.125 480.346-1634.164  0.00  0.00    -0.271 OA
ATOM     28  N   MET d  15    1603.187 480.549-1633.193  0.00  0.00    -0.346 N 
ATOM     29  H   MET d  15    1602.522 480.255-1632.492  0.00  0.00     0.163 HD
BRANCH  28  30
ATOM     30  CA  MET d  15    1602.866 481.643-1634.105  0.00  0.00     0.177 C 
BRANCH  30  31
ATOM     31  C   MET d  15    1603.896 482.743-1634.016  0.00  0.00     0.241 C 
ATOM     32  O   MET d  15    1604.399 483.254-1635.028  0.00  0.00    -0.271 OA
ATOM     33  N   ARG d  16    1604.265 483.163-1632.854  0.00  0.00    -0.347 N 
ATOM     34  H   ARG d  16    1603.870 482.762-1632.015  0.00  0.00     0.163 HD
BRANCH  33  35
ATOM     35  CA  ARG d  16    1605.261 484.226-1632.768  0.00  0.00     0.162 C 
BRANCH  35  36
ATOM     36  C   ARG d  16    1606.532 483.835-1633.485  0.00  0.00     0.219 C 
ATOM     37  O   ARG d  16    1606.646 482.759-1634.067  0.00  0.00    -0.287 OA
ENDBRANCH  35  36
BRANCH  35  38
ATOM     38  CB  ARG d  16    1605.530 484.543-1631.270  0.00  0.00     0.035 C 
BRANCH  38  39
ATOM     39  CG  ARG d  16    1606.355 485.832-1630.996  0.00  0.00     0.023 C 
BRANCH  39  40
ATOM     40  CD  ARG d  16    1606.604 486.050-1629.494  0.00  0.00     0.138 C 
BRANCH  40  41
ATOM     41  NE  ARG d  16    1607.380 487.308-1629.291  0.00  0.00    -0.227 N 
ATOM     42  CZ  ARG d  16    1607.771 487.790-1628.115  0.00  0.00     0.665 C 
ATOM     43  NH1 ARG d  16    1607.523 487.204-1626.977  0.00  0.00    -0.235 N 
ATOM     44  NH2 ARG d  16    1608.435 488.902-1628.096  0.00  0.00    -0.235 N 
ATOM     45 11HH ARG d  16    1606.998 486.331-1627.063  0.00  0.00     0.174 HD
ATOM     46 12HH ARG d  16    1607.857 487.639-1626.116  0.00  0.00     0.174 HD
ATOM     47 21HH ARG d  16    1608.620 489.346-1628.997  0.00  0.00     0.174 HD
ATOM     48 22HH ARG d  16    1608.725 489.257-1627.183  0.00  0.00     0.174 HD
ATOM     49  HE  ARG d  16    1607.659 487.890-1630.088  0.00  0.00     0.177 HD
ENDBRANCH  40  41
ENDBRANCH  39  40
ENDBRANCH  38  39
ENDBRANCH  35  38
ENDBRANCH  33  35
ENDBRANCH  30  31
BRANCH  30  50
ATOM     50  CB  MET d  15    1601.445 482.188-1633.796  0.00  0.00     0.045 C 
BRANCH  50  51
ATOM     51  CG  MET d  15    1600.283 481.190-1633.989  0.00  0.00     0.076 C 
BRANCH  51  52
ATOM     52  SD  MET d  15    1598.709 482.056-1633.874  0.00  0.00    -0.173 SA
ATOM     53  CE  MET d  15    1597.628 480.626-1633.740  0.00  0.00     0.089 C 
ENDBRANCH  51  52
ENDBRANCH  50  51
ENDBRANCH  30  50
ENDBRANCH  28  30
ENDBRANCH  25  26
BRANCH  25  54
ATOM     54  CB  VAL d  14    1603.889 477.516-1632.759  0.00  0.00     0.009 C 
ATOM     55  CG1 VAL d  14    1603.979 477.099-1634.253  0.00  0.00     0.012 C 
ATOM     56  CG2 VAL d  14    1604.321 476.262-1631.960  0.00  0.00     0.012 C 
ENDBRANCH  25  54
ENDBRANCH  23  25
ENDBRANCH  20  21
BRANCH  20  57
ATOM     57  CB  ARG d  13    1605.249 479.674-1628.019  0.00  0.00     0.036 C 
BRANCH  57  58
ATOM     58  CG  ARG d  13    1606.794 479.827-1627.937  0.00  0.00     0.023 C 
BRANCH  58  59
ATOM     59  CD  ARG d  13    1607.421 478.838-1626.941  0.00  0.00     0.138 C 
BRANCH  59  60
ATOM     60  NE  ARG d  13    1608.898 479.045-1626.890  0.00  0.00    -0.227 N 
ATOM     61  CZ  ARG d  13    1609.746 478.353-1626.135  0.00  0.00     0.665 C 
ATOM     62  NH1 ARG d  13    1609.380 477.388-1625.339  0.00  0.00    -0.235 N 
ATOM     63  NH2 ARG d  13    1611.005 478.652-1626.192  0.00  0.00    -0.235 N 
ATOM     64 11HH ARG d  13    1608.375 477.202-1625.342  0.00  0.00     0.174 HD
ATOM     65 12HH ARG d  13    1610.094 476.904-1624.791  0.00  0.00     0.174 HD
ATOM     66 21HH ARG d  13    1611.273 479.411-1626.822  0.00  0.00     0.174 HD
ATOM     67 22HH ARG d  13    1611.640 478.110-1625.603  0.00  0.00     0.174 HD
ATOM     68  HE  ARG d  13    1609.349 479.768-1627.460  0.00  0.00     0.177 HD
ENDBRANCH  59  60
ENDBRANCH  58  59
ENDBRANCH  57  58
ENDBRANCH  20  57
ENDBRANCH  18  20
ENDBRANCH  15  16
BRANCH  15  69
ATOM     69  CB  GLN d  12    1600.430 481.953-1628.020  0.00  0.00     0.044 C 
BRANCH  69  70
ATOM     70  CG  GLN d  12    1600.790 483.475-1627.987  0.00  0.00     0.105 C 
BRANCH  70  71
ATOM     71  CD  GLN d  12    1600.487 484.287-1626.721  0.00  0.00     0.215 C 
ATOM     72  NE2 GLN d  12    1599.920 483.709-1625.693  0.00  0.00    -0.370 N 
ATOM     73 21HE GLN d  12    1599.813 484.303-1624.869  0.00  0.00     0.159 HD
ATOM     74 22HE GLN d  12    1599.757 482.706-1625.798  0.00  0.00     0.159 HD
ATOM     75  OE1 GLN d  12    1600.789 485.468-1626.642  0.00  0.00    -0.274 OA
ENDBRANCH  70  71
ENDBRANCH  69  70
ENDBRANCH  15  69
ENDBRANCH  13  15
ENDBRANCH  10  11
BRANCH  10  76
ATOM     76  CB  VAL d  11    1598.584 477.443-1630.230  0.00  0.00     0.009 C 
ATOM     77  CG1 VAL d  11    1598.015 478.148-1631.492  0.00  0.00     0.012 C 
ATOM     78  CG2 VAL d  11    1598.059 475.989-1630.305  0.00  0.00     0.012 C 
ENDBRANCH  10  76
ENDBRANCH   8  10
ENDBRANCH   5   6
BRANCH   5  79
ATOM     79  CB  TRP d  10    1602.008 474.885-1627.026  0.00  0.00     0.075 C 
BRANCH  79  80
ATOM     80  CG  TRP d  10    1602.540 474.181-1625.774  0.00  0.00    -0.028 A 
ATOM     81  CD2 TRP d  10    1603.851 473.930-1625.427  0.00  0.00    -0.002 A 
ATOM     82  CE3 TRP d  10    1605.070 474.189-1626.104  0.00  0.00     0.014 A 
ATOM     83  CE2 TRP d  10    1603.853 473.335-1624.140  0.00  0.00     0.042 A 
ATOM     84  CZ3 TRP d  10    1606.264 473.827-1625.480  0.00  0.00     0.001 A 
ATOM     85  CH2 TRP d  10    1606.268 473.231-1624.211  0.00  0.00     0.002 A 
ATOM     86  CZ2 TRP d  10    1605.075 472.985-1623.526  0.00  0.00     0.030 A 
ATOM     87  NE1 TRP d  10    1602.559 473.203-1623.658  0.00  0.00    -0.365 N 
ATOM     88  CD1 TRP d  10    1601.760 473.737-1624.687  0.00  0.00     0.096 A 
ATOM     89  1HE TRP d  10    1602.263 472.846-1622.743  0.00  0.00     0.165 HD
ENDBRANCH  79  80
ENDBRANCH   5  79
ENDBRANCH   3   5
BRANCH   1  90
ATOM     90  CA  GLU d   9    1600.203 478.748-1624.703  0.00  0.00     0.177 C 
BRANCH  90  91
ATOM     91  N   GLU d   9    1598.901 478.091-1624.759  0.00  0.00    -0.346 N 
ATOM     92  C   ASP d   8    1598.221 478.141-1625.854  0.00  0.00     0.241 C 
ATOM     93  O   ASP d   8    1598.694 478.746-1626.828  0.00  0.00    -0.271 OA
ATOM     94  H   GLU d   9    1598.538 477.604-1623.952  0.00  0.00     0.163 HD
BRANCH  92  95
ATOM     95  CA  ASP d   8    1596.874 477.461-1625.911  0.00  0.00     0.186 C 
BRANCH  95  96
ATOM     96  N   ASP d   8    1596.945 476.111-1625.358  0.00  0.00    -0.346 N 
ATOM     97  C   LEU d   7    1597.782 475.271-1625.865  0.00  0.00     0.241 C 
ATOM     98  O   LEU d   7    1598.503 475.634-1626.807  0.00  0.00    -0.271 OA
ATOM     99  H   ASP d   8    1596.347 475.840-1624.591  0.00  0.00     0.163 HD
BRANCH  97 100
ATOM    100  CA  LEU d   7    1597.855 473.875-1625.293  0.00  0.00     0.177 C 
BRANCH 100 101
ATOM    101  N   LEU d   7    1597.910 473.911-1623.834  0.00  0.00    -0.346 N 
ATOM    102  C   ILE d   6    1598.856 474.575-1623.260  0.00  0.00     0.241 C 
ATOM    103  O   ILE d   6    1599.690 475.163-1623.964  0.00  0.00    -0.271 OA
ATOM    104  H   LEU d   7    1597.218 473.424-1623.283  0.00  0.00     0.163 HD
BRANCH 102 105
ATOM    105  CA  ILE d   6    1598.913 474.612-1621.753  0.00  0.00     0.180 C 
BRANCH 105 106
ATOM    106  N   ILE d   6    1597.600 474.907-1621.186  0.00  0.00    -0.346 N 
ATOM    107  C   SER d   5    1596.995 475.990-1621.540  0.00  0.00     0.243 C 
ATOM    108  O   SER d   5    1597.542 476.743-1622.345  0.00  0.00    -0.271 OA
ATOM    109  H   ILE d   6    1597.172 474.272-1620.527  0.00  0.00     0.163 HD
BRANCH 107 110
ATOM    110  CA  SER d   5    1595.636 476.295-1620.954  0.00  0.00     0.200 C 
BRANCH 110 111
ATOM    111  N   SER d   5    1594.767 475.124-1621.013  0.00  0.00    -0.344 N 
ATOM    112  C   GLU d   4    1594.539 474.571-1622.156  0.00  0.00     0.241 C 
ATOM    113  O   GLU d   4    1595.065 475.051-1623.171  0.00  0.00    -0.271 OA
ATOM    114  H   SER d   5    1594.350 474.752-1620.171  0.00  0.00     0.163 HD
BRANCH 112 115
ATOM    115  CA  GLU d   4    1593.640 473.360-1622.217  0.00  0.00     0.177 C 
BRANCH 115 116
ATOM    116  N   GLU d   4    1594.000 472.389-1621.188  0.00  0.00    -0.346 N 
ATOM    117  C   PRO d   3    1595.205 471.929-1621.155  0.00  0.00     0.241 C 
ATOM    118  O   PRO d   3    1596.028 472.312-1621.987  0.00  0.00    -0.271 OA
ATOM    119  H   GLU d   4    1593.316 472.082-1620.511  0.00  0.00     0.163 HD
BRANCH 117 120
ATOM    120  CA  PRO d   3    1595.603 470.905-1620.078  0.00  0.00     0.179 C 
ATOM    121  N   PRO d   3    1595.151 471.315-1618.757  0.00  0.00    -0.337 N 
ATOM    122  C   ASN d   2    1595.673 472.310-1618.123  0.00  0.00     0.243 C 
ATOM    123  CD  PRO d   3    1594.073 470.521-1618.208  0.00  0.00     0.127 C 
ATOM    124  O   ASN d   2    1596.588 472.940-1618.652  0.00  0.00    -0.271 OA
ATOM    125  CG  PRO d   3    1593.616 469.703-1619.418  0.00  0.00     0.022 C 
ATOM    126  CB  PRO d   3    1594.899 469.551-1620.248  0.00  0.00     0.037 C 
BRANCH 122 127
ATOM    127  CA  ASN d   2    1595.142 472.665-1616.754  0.00  0.00     0.185 C 
BRANCH 127 128
ATOM    128  N   ASN d   2    1593.682 472.704-1616.754  0.00  0.00    -0.346 N 
ATOM    129  C   GLU d   1    1593.078 473.490-1617.579  0.00  0.00     0.242 C 
ATOM    130  O   GLU d   1    1593.754 474.189-1618.348  0.00  0.00    -0.271 OA
ATOM    131  H   ASN d   2    1593.154 472.124-1616.118  0.00  0.00     0.163 HD
BRANCH 129 132
ATOM    132  CA  GLU d   1    1591.569 473.530-1617.579  0.00  0.00     0.191 C 
BRANCH 132 133
ATOM    133  N   GLU d   1    1591.010 472.181-1617.579  0.00  0.00    -0.326 NA
ATOM    134  H   GLU d   1    1591.637 471.302-1617.579  0.00  0.00     0.180 HD
ENDBRANCH 132 133
BRANCH 132 135
ATOM    135  CB  GLU d   1    1591.046 474.315-1616.342  0.00  0.00     0.047 C 
BRANCH 135 136
ATOM    136  CG  GLU d   1    1591.521 475.800-1616.231  0.00  0.00     0.116 C 
BRANCH 136 137
ATOM    137  CD  GLU d   1    1591.097 476.604-1615.016  0.00  0.00     0.172 C 
ATOM    138  OE1 GLU d   1    1590.369 476.102-1614.138  0.00  0.00    -0.648 OA
ATOM    139  OE2 GLU d   1    1591.527 477.774-1614.944  0.00  0.00    -0.648 OA
ENDBRANCH 136 137
ENDBRANCH 135 136
ENDBRANCH 132 135
ENDBRANCH 129 132
ENDBRANCH 127 128
BRANCH 127 140
ATOM    140  CB  ASN d   2    1595.634 471.642-1615.690  0.00  0.00     0.137 C 
BRANCH 140 141
ATOM    141  CG  ASN d   2    1595.171 471.866-1614.246  0.00  0.00     0.217 C 
ATOM    142  ND2 ASN d   2    1595.765 472.781-1613.528  0.00  0.00    -0.370 N 
ATOM    143 21HD ASN d   2    1595.284 472.954-1612.642  0.00  0.00     0.159 HD
ATOM    144 22HD ASN d   2    1596.467 473.353-1613.998  0.00  0.00     0.159 HD
ATOM    145  OD1 ASN d   2    1594.250 471.232-1613.752  0.00  0.00    -0.274 OA
ENDBRANCH 140 141
ENDBRANCH 127 140
ENDBRANCH 122 127
ENDBRANCH 117 120
ENDBRANCH 115 116
BRANCH 115 146
ATOM    146  CB  GLU d   4    1592.152 473.778-1622.047  0.00  0.00     0.045 C 
BRANCH 146 147
ATOM    147  CG  GLU d   4    1591.604 474.782-1623.112  0.00  0.00     0.116 C 
BRANCH 147 148
ATOM    148  CD  GLU d   4    1590.177 475.279-1622.968  0.00  0.00     0.172 C 
ATOM    149  OE1 GLU d   4    1589.451 474.880-1622.037  0.00  0.00    -0.648 OA
ATOM    150  OE2 GLU d   4    1589.787 476.108-1623.817  0.00  0.00    -0.648 OA
ENDBRANCH 147 148
ENDBRANCH 146 147
ENDBRANCH 115 146
ENDBRANCH 112 115
ENDBRANCH 110 111
BRANCH 110 151
ATOM    151  CB  SER d   5    1595.748 476.827-1619.504  0.00  0.00     0.199 C 
BRANCH 151 152
ATOM    152  OG  SER d   5    1596.480 475.948-1618.643  0.00  0.00    -0.398 OA
ATOM    153  HG  SER d   5    1595.991 475.123-1618.592  0.00  0.00     0.209 HD
ENDBRANCH 151 152
ENDBRANCH 110 151
ENDBRANCH 107 110
ENDBRANCH 105 106
BRANCH 105 154
ATOM    154  CB  ILE d   6    1599.513 473.276-1621.153  0.00  0.00     0.013 C 
ATOM    155  CG2 ILE d   6    1600.954 472.974-1621.668  0.00  0.00     0.012 C 
BRANCH 154 156
ATOM    156  CG1 ILE d   6    1599.532 473.213-1619.592  0.00  0.00     0.002 C 
ATOM    157  CD1 ILE d   6    1599.802 471.824-1618.977  0.00  0.00     0.005 C 
ENDBRANCH 154 156
ENDBRANCH 105 154
ENDBRANCH 102 105
ENDBRANCH 100 101
BRANCH 100 158
ATOM    158  CB  LEU d   7    1596.652 473.015-1625.773  0.00  0.00     0.038 C 
BRANCH 158 159
ATOM    159  CG  LEU d   7    1596.579 471.536-1625.307  0.00  0.00    -0.020 C 
ATOM    160  CD1 LEU d   7    1595.389 470.830-1625.972  0.00  0.00     0.009 C 
ATOM    161  CD2 LEU d   7    1597.872 470.757-1625.599  0.00  0.00     0.009 C 
ENDBRANCH 158 159
ENDBRANCH 100 158
ENDBRANCH  97 100
ENDBRANCH  95  96
BRANCH  95 162
ATOM    162  CB  ASP d   8    1595.796 478.300-1625.169  0.00  0.00     0.147 C 
BRANCH 162 163
ATOM    163  CG  ASP d   8    1595.577 479.721-1625.709  0.00  0.00     0.175 C 
ATOM    164  OD1 ASP d   8    1595.641 479.920-1626.940  0.00  0.00    -0.648 OA
ATOM    165  OD2 ASP d   8    1595.385 480.646-1624.894  0.00  0.00    -0.648 OA
ENDBRANCH 162 163
ENDBRANCH  95 162
ENDBRANCH  92  95
ENDBRANCH  90  91
BRANCH  90 166
ATOM    166  CB  GLU d   9    1600.837 478.540-1623.298  0.00  0.00     0.045 C 
BRANCH 166 167
ATOM    167  CG  GLU d   9    1602.220 479.233-1623.068  0.00  0.00     0.116 C 
BRANCH 167 168
ATOM    168  CD  GLU d   9    1602.922 479.019-1621.740  0.00  0.00     0.172 C 
ATOM    169  OE1 GLU d   9    1602.400 478.327-1620.844  0.00  0.00    -0.648 OA
ATOM    170  OE2 GLU d   9    1604.041 479.557-1621.609  0.00  0.00    -0.648 OA
ENDBRANCH 167 168
ENDBRANCH 166 167
ENDBRANCH  90 166
ENDBRANCH   1  90
TORSDOF 68
