REMARK WARNING: 32 MAX_TORS EXCEEDED!!!
REMARK  69 active torsions:
REMARK  status: ('A' for Active; 'I' for Inactive)
REMARK    1  A    between atoms: N_1  and  CA_2 
REMARK    2  A    between atoms: CA_2  and  C_3 
REMARK    3  A    between atoms: CA_2  and  CB_5 
REMARK       I    between atoms: C_3  and  N_11 
REMARK    4  A    between atoms: CB_5  and  CG_6 
REMARK    5  A    between atoms: CG_6  and  CD_7 
REMARK    6  A    between atoms: N_11  and  CA_12 
REMARK    7  A    between atoms: CA_12  and  C_13 
REMARK    8  A    between atoms: CA_12  and  CB_15 
REMARK       I    between atoms: C_13  and  N_22 
REMARK    9  A    between atoms: CB_15  and  CG_16 
REMARK       I    between atoms: CG_16  and  ND2_17 
REMARK   10  A    between atoms: CA_23  and  C_24 
REMARK       I    between atoms: C_24  and  N_29 
REMARK   11  A    between atoms: N_29  and  CA_30 
REMARK   12  A    between atoms: CA_30  and  C_31 
REMARK   13  A    between atoms: CA_30  and  CB_33 
REMARK       I    between atoms: C_31  and  N_39 
REMARK   14  A    between atoms: CB_33  and  CG_34 
REMARK   15  A    between atoms: CG_34  and  CD_35 
REMARK   16  A    between atoms: N_39  and  CA_40 
REMARK   17  A    between atoms: CA_40  and  C_41 
REMARK   18  A    between atoms: CA_40  and  CB_43 
REMARK       I    between atoms: C_41  and  N_47 
REMARK   19  A    between atoms: CB_43  and  OG_44 
REMARK   20  A    between atoms: N_47  and  CA_48 
REMARK   21  A    between atoms: CA_48  and  C_49 
REMARK   22  A    between atoms: CA_48  and  CB_51 
REMARK       I    between atoms: C_49  and  N_56 
REMARK   23  A    between atoms: CB_51  and  CG1_52 
REMARK   24  A    between atoms: N_56  and  CA_57 
REMARK   25  A    between atoms: CA_57  and  C_58 
REMARK   26  A    between atoms: CA_57  and  CB_60 
REMARK       I    between atoms: C_58  and  N_65 
REMARK   27  A    between atoms: CB_60  and  CG_61 
REMARK   28  A    between atoms: N_65  and  CA_66 
REMARK   29  A    between atoms: CA_66  and  C_67 
REMARK   30  A    between atoms: CA_66  and  CB_69 
REMARK       I    between atoms: C_67  and  N_74 
REMARK   31  A    between atoms: CB_69  and  CG_70 
REMARK   32  A    between atoms: N_74  and  CA_75 
REMARK   33  A    between atoms: CA_75  and  C_76 
REMARK   34  A    between atoms: CA_75  and  CB_78 
REMARK       I    between atoms: C_76  and  N_84 
REMARK   35  A    between atoms: CB_78  and  CG_79 
REMARK   36  A    between atoms: CG_79  and  CD_80 
REMARK   37  A    between atoms: N_84  and  CA_85 
REMARK   38  A    between atoms: CA_85  and  C_86 
REMARK   39  A    between atoms: CA_85  and  CB_88 
REMARK       I    between atoms: C_86  and  N_96 
REMARK   40  A    between atoms: CB_88  and  CG_89 
REMARK   41  A    between atoms: N_96  and  CA_97 
REMARK   42  A    between atoms: CA_97  and  C_98 
REMARK   43  A    between atoms: CA_97  and  CB_100 
REMARK       I    between atoms: C_98  and  N_108 
REMARK   44  A    between atoms: CB_100  and  CG_101 
REMARK   45  A    between atoms: N_108  and  CA_109 
REMARK   46  A    between atoms: CA_109  and  C_110 
REMARK   47  A    between atoms: CA_109  and  CB_112 
REMARK       I    between atoms: C_110  and  N_120 
REMARK   48  A    between atoms: CB_112  and  CG_113 
REMARK   49  A    between atoms: CG_113  and  CD_114 
REMARK       I    between atoms: CD_114  and  NE2_115 
REMARK   50  A    between atoms: N_120  and  CA_121 
REMARK   51  A    between atoms: CA_121  and  C_122 
REMARK   52  A    between atoms: CA_121  and  CB_124 
REMARK       I    between atoms: C_122  and  N_137 
REMARK   53  A    between atoms: CB_124  and  CG_125 
REMARK   54  A    between atoms: CG_125  and  CD_126 
REMARK   55  A    between atoms: CD_126  and  NE_127 
REMARK       I    between atoms: NE_127  and  CZ_128 
REMARK       I    between atoms: CZ_128  and  NH1_129 
REMARK       I    between atoms: CZ_128  and  NH2_130 
REMARK   56  A    between atoms: N_137  and  CA_138 
REMARK   57  A    between atoms: CA_138  and  C_139 
REMARK   58  A    between atoms: CA_138  and  CB_141 
REMARK       I    between atoms: C_139  and  N_145 
REMARK   59  A    between atoms: N_145  and  CA_146 
REMARK   60  A    between atoms: CA_146  and  C_147 
REMARK   61  A    between atoms: CA_146  and  CB_149 
REMARK       I    between atoms: C_147  and  N_154 
REMARK   62  A    between atoms: CB_149  and  CG_150 
REMARK   63  A    between atoms: CG_150  and  SD_151 
REMARK   64  A    between atoms: N_154  and  CA_155 
REMARK   65  A    between atoms: CA_155  and  C_156 
REMARK   66  A    between atoms: CA_155  and  CB_158 
REMARK   67  A    between atoms: CB_158  and  CG_159 
REMARK   68  A    between atoms: CG_159  and  CD_160 
REMARK   69  A    between atoms: CD_160  and  NE_161 
REMARK       I    between atoms: NE_161  and  CZ_162 
REMARK       I    between atoms: CZ_162  and  NH1_163 
ROOT
ATOM      1  C   GLU d   9    1773.430 534.228-1812.869  0.00  0.00     0.241 C 
ATOM      2  O   GLU d   9    1774.094 534.983-1813.594  0.00  0.00    -0.271 OA
ATOM      3  N   HIS d  10    1773.527 532.953-1813.038  0.00  0.00    -0.346 N 
ATOM      4  H   HIS d  10    1772.997 532.317-1812.460  0.00  0.00     0.163 HD
ENDROOT
BRANCH   3   5
ATOM      5  CA  HIS d  10    1774.415 532.442-1814.079  0.00  0.00     0.182 C 
BRANCH   5   6
ATOM      6  C   HIS d  10    1774.048 533.007-1815.430  0.00  0.00     0.241 C 
ATOM      7  O   HIS d  10    1774.900 533.472-1816.202  0.00  0.00    -0.271 OA
ATOM      8  N   HIS d  11    1772.810 533.006-1815.793  0.00  0.00    -0.346 N 
ATOM      9  H   HIS d  11    1772.097 532.632-1815.182  0.00  0.00     0.163 HD
BRANCH   8  10
ATOM     10  CA  HIS d  11    1772.454 533.552-1817.099  0.00  0.00     0.182 C 
BRANCH  10  11
ATOM     11  C   HIS d  11    1772.916 534.982-1817.233  0.00  0.00     0.241 C 
ATOM     12  O   HIS d  11    1773.517 535.388-1818.240  0.00  0.00    -0.271 OA
ATOM     13  N   GLN d  12    1772.679 535.809-1816.271  0.00  0.00    -0.346 N 
ATOM     14  H   GLN d  12    1772.192 535.503-1815.441  0.00  0.00     0.163 HD
BRANCH  13  15
ATOM     15  CA  GLN d  12    1773.126 537.192-1816.400  0.00  0.00     0.177 C 
BRANCH  15  16
ATOM     16  C   GLN d  12    1774.616 537.260-1816.639  0.00  0.00     0.241 C 
ATOM     17  O   GLN d  12    1775.102 537.969-1817.519  0.00  0.00    -0.271 OA
ATOM     18  N   ARG d  13    1775.402 536.555-1815.899  0.00  0.00    -0.346 N 
ATOM     19  H   ARG d  13    1775.027 535.965-1815.169  0.00  0.00     0.163 HD
BRANCH  18  20
ATOM     20  CA  ARG d  13    1776.842 536.622-1816.131  0.00  0.00     0.176 C 
BRANCH  20  21
ATOM     21  C   ARG d  13    1777.177 536.249-1817.556  0.00  0.00     0.241 C 
ATOM     22  O   ARG d  13    1777.945 536.921-1818.241  0.00  0.00    -0.271 OA
ATOM     23  N   VAL d  14    1776.641 535.194-1818.069  0.00  0.00    -0.346 N 
ATOM     24  H   VAL d  14    1776.007 534.626-1817.526  0.00  0.00     0.163 HD
BRANCH  23  25
ATOM     25  CA  VAL d  14    1776.965 534.834-1819.446  0.00  0.00     0.180 C 
BRANCH  25  26
ATOM     26  C   VAL d  14    1776.633 535.963-1820.392  0.00  0.00     0.241 C 
ATOM     27  O   VAL d  14    1777.426 536.345-1821.263  0.00  0.00    -0.271 OA
ATOM     28  N   MET d  15    1775.488 536.548-1820.290  0.00  0.00    -0.346 N 
ATOM     29  H   MET d  15    1774.824 536.255-1819.587  0.00  0.00     0.163 HD
BRANCH  28  30
ATOM     30  CA  MET d  15    1775.166 537.640-1821.204  0.00  0.00     0.177 C 
BRANCH  30  31
ATOM     31  C   MET d  15    1776.196 538.741-1821.118  0.00  0.00     0.241 C 
ATOM     32  O   MET d  15    1776.698 539.251-1822.131  0.00  0.00    -0.271 OA
ATOM     33  N   ARG d  16    1776.565 539.163-1819.956  0.00  0.00    -0.347 N 
ATOM     34  H   ARG d  16    1776.172 538.763-1819.116  0.00  0.00     0.163 HD
BRANCH  33  35
ATOM     35  CA  ARG d  16    1777.561 540.227-1819.874  0.00  0.00     0.162 C 
BRANCH  35  36
ATOM     36  C   ARG d  16    1778.832 539.835-1820.591  0.00  0.00     0.219 C 
ATOM     37  O   ARG d  16    1778.946 538.758-1821.172  0.00  0.00    -0.287 OA
ENDBRANCH  35  36
BRANCH  35  38
ATOM     38  CB  ARG d  16    1777.831 540.547-1818.376  0.00  0.00     0.035 C 
BRANCH  38  39
ATOM     39  CG  ARG d  16    1778.656 541.836-1818.104  0.00  0.00     0.023 C 
BRANCH  39  40
ATOM     40  CD  ARG d  16    1778.906 542.057-1816.604  0.00  0.00     0.138 C 
BRANCH  40  41
ATOM     41  NE  ARG d  16    1779.682 543.316-1816.404  0.00  0.00    -0.227 N 
ATOM     42  CZ  ARG d  16    1780.073 543.800-1815.229  0.00  0.00     0.665 C 
ATOM     43  NH1 ARG d  16    1779.827 543.216-1814.090  0.00  0.00    -0.235 N 
ATOM     44  NH2 ARG d  16    1780.737 544.913-1815.211  0.00  0.00    -0.235 N 
ATOM     45 11HH ARG d  16    1779.302 542.342-1814.173  0.00  0.00     0.174 HD
ATOM     46 12HH ARG d  16    1780.162 543.652-1813.229  0.00  0.00     0.174 HD
ATOM     47 21HH ARG d  16    1780.921 545.355-1816.113  0.00  0.00     0.174 HD
ATOM     48 22HH ARG d  16    1781.027 545.268-1814.299  0.00  0.00     0.174 HD
ATOM     49  HE  ARG d  16    1779.959 543.897-1817.201  0.00  0.00     0.177 HD
ENDBRANCH  40  41
ENDBRANCH  39  40
ENDBRANCH  38  39
ENDBRANCH  35  38
ENDBRANCH  33  35
ENDBRANCH  30  31
BRANCH  30  50
ATOM     50  CB  MET d  15    1773.745 538.185-1820.894  0.00  0.00     0.045 C 
BRANCH  50  51
ATOM     51  CG  MET d  15    1772.583 537.186-1821.084  0.00  0.00     0.076 C 
BRANCH  51  52
ATOM     52  SD  MET d  15    1771.009 538.051-1820.969  0.00  0.00    -0.173 SA
ATOM     53  CE  MET d  15    1769.929 536.621-1820.830  0.00  0.00     0.089 C 
ENDBRANCH  51  52
ENDBRANCH  50  51
ENDBRANCH  30  50
ENDBRANCH  28  30
ENDBRANCH  25  26
BRANCH  25  54
ATOM     54  CB  VAL d  14    1776.194 533.516-1819.851  0.00  0.00     0.009 C 
ATOM     55  CG1 VAL d  14    1776.282 533.097-1821.345  0.00  0.00     0.012 C 
ATOM     56  CG2 VAL d  14    1776.627 532.265-1819.051  0.00  0.00     0.012 C 
ENDBRANCH  25  54
ENDBRANCH  23  25
ENDBRANCH  20  21
BRANCH  20  57
ATOM     57  CB  ARG d  13    1777.557 535.684-1815.117  0.00  0.00     0.036 C 
BRANCH  57  58
ATOM     58  CG  ARG d  13    1779.102 535.838-1815.037  0.00  0.00     0.023 C 
BRANCH  58  59
ATOM     59  CD  ARG d  13    1779.730 534.851-1814.039  0.00  0.00     0.138 C 
BRANCH  59  60
ATOM     60  NE  ARG d  13    1781.207 535.059-1813.990  0.00  0.00    -0.227 N 
ATOM     61  CZ  ARG d  13    1782.056 534.369-1813.235  0.00  0.00     0.665 C 
ATOM     62  NH1 ARG d  13    1781.692 533.404-1812.437  0.00  0.00    -0.235 N 
ATOM     63  NH2 ARG d  13    1783.315 534.668-1813.293  0.00  0.00    -0.235 N 
ATOM     64 11HH ARG d  13    1780.687 533.218-1812.439  0.00  0.00     0.174 HD
ATOM     65 12HH ARG d  13    1782.406 532.922-1811.888  0.00  0.00     0.174 HD
ATOM     66 21HH ARG d  13    1783.582 535.426-1813.925  0.00  0.00     0.174 HD
ATOM     67 22HH ARG d  13    1783.952 534.128-1812.704  0.00  0.00     0.174 HD
ATOM     68  HE  ARG d  13    1781.657 535.782-1814.561  0.00  0.00     0.177 HD
ENDBRANCH  59  60
ENDBRANCH  58  59
ENDBRANCH  57  58
ENDBRANCH  20  57
ENDBRANCH  18  20
ENDBRANCH  15  16
BRANCH  15  69
ATOM     69  CB  GLN d  12    1772.736 537.960-1815.118  0.00  0.00     0.044 C 
BRANCH  69  70
ATOM     70  CG  GLN d  12    1773.095 539.482-1815.088  0.00  0.00     0.105 C 
BRANCH  70  71
ATOM     71  CD  GLN d  12    1772.793 540.296-1813.823  0.00  0.00     0.215 C 
ATOM     72  NE2 GLN d  12    1772.227 539.720-1812.793  0.00  0.00    -0.370 N 
ATOM     73 21HE GLN d  12    1772.120 540.315-1811.970  0.00  0.00     0.159 HD
ATOM     74 22HE GLN d  12    1772.065 538.716-1812.896  0.00  0.00     0.159 HD
ATOM     75  OE1 GLN d  12    1773.094 541.478-1813.747  0.00  0.00    -0.274 OA
ENDBRANCH  70  71
ENDBRANCH  69  70
ENDBRANCH  15  69
ENDBRANCH  13  15
ENDBRANCH  10  11
BRANCH  10  76
ATOM     76  CB  HIS d  11    1770.921 533.472-1817.198  0.00  0.00     0.095 C 
BRANCH  76  77
ATOM     77  CG  HIS d  11    1770.467 532.611-1818.340  0.00  0.00     0.053 A 
ATOM     78  CD2 HIS d  11    1770.232 531.249-1818.206  0.00  0.00     0.116 A 
ATOM     79  NE2 HIS d  11    1769.835 530.766-1819.426  0.00  0.00    -0.359 N 
ATOM     80  CE1 HIS d  11    1769.863 531.878-1820.209  0.00  0.00     0.207 A 
ATOM     81  2HE HIS d  11    1769.583 529.799-1819.678  0.00  0.00     0.166 HD
ATOM     82  ND1 HIS d  11    1770.229 533.043-1819.643  0.00  0.00    -0.247 NA
ENDBRANCH  76  77
ENDBRANCH  10  76
ENDBRANCH   8  10
ENDBRANCH   5   6
BRANCH   5  83
ATOM     83  CB  HIS d  10    1774.252 530.913-1814.075  0.00  0.00     0.095 C 
BRANCH  83  84
ATOM     84  CG  HIS d  10    1775.538 530.204-1813.767  0.00  0.00     0.053 A 
ATOM     85  CD2 HIS d  10    1775.919 529.868-1812.474  0.00  0.00     0.116 A 
ATOM     86  NE2 HIS d  10    1777.135 529.237-1812.542  0.00  0.00    -0.359 N 
ATOM     87  CE1 HIS d  10    1777.397 529.241-1813.877  0.00  0.00     0.207 A 
ATOM     88  2HE HIS d  10    1777.702 528.860-1811.768  0.00  0.00     0.166 HD
ATOM     89  ND1 HIS d  10    1776.490 529.799-1814.700  0.00  0.00    -0.247 NA
ENDBRANCH  83  84
ENDBRANCH   5  83
ENDBRANCH   3   5
BRANCH   1  90
ATOM     90  CA  GLU d   9    1772.512 534.755-1811.793  0.00  0.00     0.177 C 
BRANCH  90  91
ATOM     91  N   GLU d   9    1771.209 534.097-1811.848  0.00  0.00    -0.346 N 
ATOM     92  C   ASP d   8    1770.530 534.147-1812.943  0.00  0.00     0.241 C 
ATOM     93  O   ASP d   8    1771.002 534.753-1813.918  0.00  0.00    -0.271 OA
ATOM     94  H   GLU d   9    1770.846 533.610-1811.041  0.00  0.00     0.163 HD
BRANCH  92  95
ATOM     95  CA  ASP d   8    1769.183 533.467-1813.000  0.00  0.00     0.186 C 
BRANCH  95  96
ATOM     96  N   ASP d   8    1769.254 532.117-1812.447  0.00  0.00    -0.346 N 
ATOM     97  C   LEU d   7    1770.091 531.277-1812.954  0.00  0.00     0.241 C 
ATOM     98  O   LEU d   7    1770.812 531.640-1813.896  0.00  0.00    -0.271 OA
ATOM     99  H   ASP d   8    1768.656 531.846-1811.680  0.00  0.00     0.163 HD
BRANCH  97 100
ATOM    100  CA  LEU d   7    1770.164 529.882-1812.381  0.00  0.00     0.177 C 
BRANCH 100 101
ATOM    101  N   LEU d   7    1770.219 529.918-1810.923  0.00  0.00    -0.346 N 
ATOM    102  C   ILE d   6    1771.164 530.581-1810.349  0.00  0.00     0.241 C 
ATOM    103  O   ILE d   6    1771.999 531.169-1811.053  0.00  0.00    -0.271 OA
ATOM    104  H   LEU d   7    1769.527 529.431-1810.371  0.00  0.00     0.163 HD
BRANCH 102 105
ATOM    105  CA  ILE d   6    1771.222 530.619-1808.841  0.00  0.00     0.180 C 
BRANCH 105 106
ATOM    106  N   ILE d   6    1769.909 530.914-1808.275  0.00  0.00    -0.346 N 
ATOM    107  C   SER d   5    1769.304 531.997-1808.629  0.00  0.00     0.243 C 
ATOM    108  O   SER d   5    1769.851 532.750-1809.434  0.00  0.00    -0.271 OA
ATOM    109  H   ILE d   6    1769.480 530.279-1807.616  0.00  0.00     0.163 HD
BRANCH 107 110
ATOM    110  CA  SER d   5    1767.945 532.302-1808.044  0.00  0.00     0.200 C 
BRANCH 110 111
ATOM    111  N   SER d   5    1767.075 531.131-1808.102  0.00  0.00    -0.344 N 
ATOM    112  C   GLU d   4    1766.848 530.578-1809.245  0.00  0.00     0.241 C 
ATOM    113  O   GLU d   4    1767.374 531.058-1810.260  0.00  0.00    -0.271 OA
ATOM    114  H   SER d   5    1766.658 530.759-1807.260  0.00  0.00     0.163 HD
BRANCH 112 115
ATOM    115  CA  GLU d   4    1765.949 529.367-1809.306  0.00  0.00     0.177 C 
BRANCH 115 116
ATOM    116  N   GLU d   4    1766.309 528.396-1808.277  0.00  0.00    -0.346 N 
ATOM    117  C   PRO d   3    1767.513 527.936-1808.244  0.00  0.00     0.241 C 
ATOM    118  O   PRO d   3    1768.337 528.319-1809.076  0.00  0.00    -0.271 OA
ATOM    119  H   GLU d   4    1765.624 528.089-1807.600  0.00  0.00     0.163 HD
BRANCH 117 120
ATOM    120  CA  PRO d   3    1767.911 526.913-1807.167  0.00  0.00     0.179 C 
ATOM    121  N   PRO d   3    1767.460 527.322-1805.846  0.00  0.00    -0.337 N 
ATOM    122  C   ASN d   2    1767.981 528.317-1805.212  0.00  0.00     0.243 C 
ATOM    123  CD  PRO d   3    1766.382 526.529-1805.297  0.00  0.00     0.127 C 
ATOM    124  O   ASN d   2    1768.896 528.947-1805.741  0.00  0.00    -0.271 OA
ATOM    125  CG  PRO d   3    1765.924 525.710-1806.507  0.00  0.00     0.022 C 
ATOM    126  CB  PRO d   3    1767.207 525.558-1807.337  0.00  0.00     0.037 C 
BRANCH 122 127
ATOM    127  CA  ASN d   2    1767.450 528.673-1803.843  0.00  0.00     0.185 C 
BRANCH 127 128
ATOM    128  N   ASN d   2    1765.991 528.711-1803.843  0.00  0.00    -0.346 N 
ATOM    129  C   GLU d   1    1765.386 529.497-1804.668  0.00  0.00     0.242 C 
ATOM    130  O   GLU d   1    1766.062 530.196-1805.437  0.00  0.00    -0.271 OA
ATOM    131  H   ASN d   2    1765.463 528.132-1803.207  0.00  0.00     0.163 HD
BRANCH 129 132
ATOM    132  CA  GLU d   1    1763.877 529.537-1804.668  0.00  0.00     0.191 C 
BRANCH 132 133
ATOM    133  N   GLU d   1    1763.318 528.188-1804.668  0.00  0.00    -0.326 NA
ATOM    134  H   GLU d   1    1763.945 527.309-1804.668  0.00  0.00     0.180 HD
ENDBRANCH 132 133
BRANCH 132 135
ATOM    135  CB  GLU d   1    1763.354 530.322-1803.431  0.00  0.00     0.047 C 
BRANCH 135 136
ATOM    136  CG  GLU d   1    1763.829 531.807-1803.320  0.00  0.00     0.116 C 
BRANCH 136 137
ATOM    137  CD  GLU d   1    1763.405 532.611-1802.105  0.00  0.00     0.172 C 
ATOM    138  OE1 GLU d   1    1762.677 532.109-1801.227  0.00  0.00    -0.648 OA
ATOM    139  OE2 GLU d   1    1763.835 533.781-1802.033  0.00  0.00    -0.648 OA
ENDBRANCH 136 137
ENDBRANCH 135 136
ENDBRANCH 132 135
ENDBRANCH 129 132
ENDBRANCH 127 128
BRANCH 127 140
ATOM    140  CB  ASN d   2    1767.942 527.649-1802.779  0.00  0.00     0.137 C 
BRANCH 140 141
ATOM    141  CG  ASN d   2    1767.479 527.873-1801.336  0.00  0.00     0.217 C 
ATOM    142  ND2 ASN d   2    1768.073 528.788-1800.617  0.00  0.00    -0.370 N 
ATOM    143 21HD ASN d   2    1767.592 528.961-1799.731  0.00  0.00     0.159 HD
ATOM    144 22HD ASN d   2    1768.775 529.360-1801.087  0.00  0.00     0.159 HD
ATOM    145  OD1 ASN d   2    1766.558 527.240-1800.841  0.00  0.00    -0.274 OA
ENDBRANCH 140 141
ENDBRANCH 127 140
ENDBRANCH 122 127
ENDBRANCH 117 120
ENDBRANCH 115 116
BRANCH 115 146
ATOM    146  CB  GLU d   4    1764.460 529.786-1809.136  0.00  0.00     0.045 C 
BRANCH 146 147
ATOM    147  CG  GLU d   4    1763.912 530.790-1810.202  0.00  0.00     0.116 C 
BRANCH 147 148
ATOM    148  CD  GLU d   4    1762.486 531.286-1810.058  0.00  0.00     0.172 C 
ATOM    149  OE1 GLU d   4    1761.760 530.888-1809.127  0.00  0.00    -0.648 OA
ATOM    150  OE2 GLU d   4    1762.096 532.116-1810.906  0.00  0.00    -0.648 OA
ENDBRANCH 147 148
ENDBRANCH 146 147
ENDBRANCH 115 146
ENDBRANCH 112 115
ENDBRANCH 110 111
BRANCH 110 151
ATOM    151  CB  SER d   5    1768.056 532.835-1806.593  0.00  0.00     0.199 C 
BRANCH 151 152
ATOM    152  OG  SER d   5    1768.788 531.955-1805.732  0.00  0.00    -0.398 OA
ATOM    153  HG  SER d   5    1768.299 531.130-1805.681  0.00  0.00     0.209 HD
ENDBRANCH 151 152
ENDBRANCH 110 151
ENDBRANCH 107 110
ENDBRANCH 105 106
BRANCH 105 154
ATOM    154  CB  ILE d   6    1771.822 529.283-1808.241  0.00  0.00     0.013 C 
ATOM    155  CG2 ILE d   6    1773.263 528.981-1808.756  0.00  0.00     0.012 C 
BRANCH 154 156
ATOM    156  CG1 ILE d   6    1771.841 529.221-1806.680  0.00  0.00     0.002 C 
ATOM    157  CD1 ILE d   6    1772.111 527.832-1806.065  0.00  0.00     0.005 C 
ENDBRANCH 154 156
ENDBRANCH 105 154
ENDBRANCH 102 105
ENDBRANCH 100 101
BRANCH 100 158
ATOM    158  CB  LEU d   7    1768.961 529.021-1812.861  0.00  0.00     0.038 C 
BRANCH 158 159
ATOM    159  CG  LEU d   7    1768.888 527.542-1812.395  0.00  0.00    -0.020 C 
ATOM    160  CD1 LEU d   7    1767.698 526.836-1813.061  0.00  0.00     0.009 C 
ATOM    161  CD2 LEU d   7    1770.182 526.763-1812.687  0.00  0.00     0.009 C 
ENDBRANCH 158 159
ENDBRANCH 100 158
ENDBRANCH  97 100
ENDBRANCH  95  96
BRANCH  95 162
ATOM    162  CB  ASP d   8    1768.105 534.306-1812.259  0.00  0.00     0.147 C 
BRANCH 162 163
ATOM    163  CG  ASP d   8    1767.886 535.726-1812.799  0.00  0.00     0.175 C 
ATOM    164  OD1 ASP d   8    1767.950 535.926-1814.030  0.00  0.00    -0.648 OA
ATOM    165  OD2 ASP d   8    1767.693 536.652-1811.983  0.00  0.00    -0.648 OA
ENDBRANCH 162 163
ENDBRANCH  95 162
ENDBRANCH  92  95
ENDBRANCH  90  91
BRANCH  90 166
ATOM    166  CB  GLU d   9    1773.146 534.548-1810.387  0.00  0.00     0.045 C 
BRANCH 166 167
ATOM    167  CG  GLU d   9    1774.528 535.241-1810.158  0.00  0.00     0.116 C 
BRANCH 167 168
ATOM    168  CD  GLU d   9    1775.230 535.027-1808.830  0.00  0.00     0.172 C 
ATOM    169  OE1 GLU d   9    1774.709 534.336-1807.934  0.00  0.00    -0.648 OA
ATOM    170  OE2 GLU d   9    1776.349 535.566-1808.698  0.00  0.00    -0.648 OA
ENDBRANCH 167 168
ENDBRANCH 166 167
ENDBRANCH  90 166
ENDBRANCH   1  90
TORSDOF 69
