REMARK WARNING: 32 MAX_TORS EXCEEDED!!!
REMARK  67 active torsions:
REMARK  status: ('A' for Active; 'I' for Inactive)
REMARK    1  A    between atoms: N_1  and  CA_2 
REMARK    2  A    between atoms: CA_2  and  C_3 
REMARK    3  A    between atoms: CA_2  and  CB_5 
REMARK       I    between atoms: C_3  and  N_13 
REMARK    4  A    between atoms: CB_5  and  CG_6 
REMARK    5  A    between atoms: N_13  and  CA_14 
REMARK    6  A    between atoms: CA_14  and  C_15 
REMARK    7  A    between atoms: CA_14  and  CB_17 
REMARK       I    between atoms: C_15  and  N_24 
REMARK    8  A    between atoms: CB_17  and  CG_18 
REMARK       I    between atoms: CG_18  and  ND2_19 
REMARK    9  A    between atoms: CA_25  and  C_26 
REMARK       I    between atoms: C_26  and  N_31 
REMARK   10  A    between atoms: N_31  and  CA_32 
REMARK   11  A    between atoms: CA_32  and  C_33 
REMARK   12  A    between atoms: CA_32  and  CB_35 
REMARK       I    between atoms: C_33  and  N_41 
REMARK   13  A    between atoms: CB_35  and  CG_36 
REMARK   14  A    between atoms: CG_36  and  CD_37 
REMARK   15  A    between atoms: N_41  and  CA_42 
REMARK   16  A    between atoms: CA_42  and  C_43 
REMARK   17  A    between atoms: CA_42  and  CB_45 
REMARK       I    between atoms: C_43  and  N_49 
REMARK   18  A    between atoms: CB_45  and  OG_46 
REMARK   19  A    between atoms: N_49  and  CA_50 
REMARK   20  A    between atoms: CA_50  and  C_51 
REMARK   21  A    between atoms: CA_50  and  CB_53 
REMARK       I    between atoms: C_51  and  N_58 
REMARK   22  A    between atoms: CB_53  and  CG1_54 
REMARK   23  A    between atoms: N_58  and  CA_59 
REMARK   24  A    between atoms: CA_59  and  C_60 
REMARK   25  A    between atoms: CA_59  and  CB_62 
REMARK       I    between atoms: C_60  and  N_67 
REMARK   26  A    between atoms: CB_62  and  CG_63 
REMARK   27  A    between atoms: N_67  and  CA_68 
REMARK   28  A    between atoms: CA_68  and  C_69 
REMARK   29  A    between atoms: CA_68  and  CB_71 
REMARK       I    between atoms: C_69  and  N_76 
REMARK   30  A    between atoms: CB_71  and  CG_72 
REMARK   31  A    between atoms: N_76  and  CA_77 
REMARK   32  A    between atoms: CA_77  and  C_78 
REMARK   33  A    between atoms: CA_77  and  CB_80 
REMARK       I    between atoms: C_78  and  N_86 
REMARK   34  A    between atoms: CB_80  and  CG_81 
REMARK   35  A    between atoms: CG_81  and  CD_82 
REMARK   36  A    between atoms: N_86  and  CA_87 
REMARK   37  A    between atoms: CA_87  and  C_88 
REMARK   38  A    between atoms: CA_87  and  CB_90 
REMARK       I    between atoms: C_88  and  N_98 
REMARK   39  A    between atoms: CB_90  and  CG_91 
REMARK   40  A    between atoms: N_98  and  CA_99 
REMARK   41  A    between atoms: CA_99  and  C_100 
REMARK   42  A    between atoms: CA_99  and  CB_102 
REMARK       I    between atoms: C_100  and  N_106 
REMARK   43  A    between atoms: N_106  and  CA_107 
REMARK   44  A    between atoms: CA_107  and  C_108 
REMARK   45  A    between atoms: CA_107  and  CB_110 
REMARK       I    between atoms: C_108  and  N_118 
REMARK   46  A    between atoms: CB_110  and  CG_111 
REMARK   47  A    between atoms: CG_111  and  CD_112 
REMARK       I    between atoms: CD_112  and  NE2_113 
REMARK   48  A    between atoms: N_118  and  CA_119 
REMARK   49  A    between atoms: CA_119  and  C_120 
REMARK   50  A    between atoms: CA_119  and  CB_122 
REMARK       I    between atoms: C_120  and  N_135 
REMARK   51  A    between atoms: CB_122  and  CG_123 
REMARK   52  A    between atoms: CG_123  and  CD_124 
REMARK   53  A    between atoms: CD_124  and  NE_125 
REMARK       I    between atoms: NE_125  and  CZ_126 
REMARK       I    between atoms: CZ_126  and  NH1_127 
REMARK       I    between atoms: CZ_126  and  NH2_128 
REMARK   54  A    between atoms: N_135  and  CA_136 
REMARK   55  A    between atoms: CA_136  and  C_137 
REMARK   56  A    between atoms: CA_136  and  CB_139 
REMARK       I    between atoms: C_137  and  N_143 
REMARK   57  A    between atoms: N_143  and  CA_144 
REMARK   58  A    between atoms: CA_144  and  C_145 
REMARK   59  A    between atoms: CA_144  and  CB_147 
REMARK       I    between atoms: C_145  and  N_152 
REMARK   60  A    between atoms: CB_147  and  CG_148 
REMARK   61  A    between atoms: CG_148  and  SD_149 
REMARK   62  A    between atoms: N_152  and  CA_153 
REMARK   63  A    between atoms: CA_153  and  C_154 
REMARK   64  A    between atoms: CA_153  and  CB_156 
REMARK   65  A    between atoms: CB_156  and  CG_157 
REMARK   66  A    between atoms: CG_157  and  CD_158 
REMARK   67  A    between atoms: CD_158  and  NE_159 
REMARK       I    between atoms: NE_159  and  CZ_160 
REMARK       I    between atoms: CZ_160  and  NH1_161 
ROOT
ATOM      1  C   GLU d   9      73.090  19.267 -50.814  0.00  0.00     0.241 C 
ATOM      2  O   GLU d   9      73.728  20.044 -51.540  0.00  0.00    -0.271 OA
ATOM      3  N   HIS d  10      73.230  17.996 -50.984  0.00  0.00    -0.346 N 
ATOM      4  H   HIS d  10      72.721  17.343 -50.406  0.00  0.00     0.163 HD
ENDROOT
BRANCH   1   5
ATOM      5  CA  GLU d   9      72.155  19.763 -49.738  0.00  0.00     0.177 C 
BRANCH   5   6
ATOM      6  N   GLU d   9      70.875  19.062 -49.793  0.00  0.00    -0.346 N 
ATOM      7  C   ASP d   8      70.194  19.088 -50.888  0.00  0.00     0.241 C 
ATOM      8  O   ASP d   8      70.645  19.709 -51.862  0.00  0.00    -0.271 OA
ATOM      9  H   GLU d   9      70.529  18.563 -48.986  0.00  0.00     0.163 HD
BRANCH   7  10
ATOM     10  CA  ASP d   8      68.871  18.363 -50.944  0.00  0.00     0.186 C 
BRANCH  10  11
ATOM     11  N   ASP d   8      68.987  17.017 -50.391  0.00  0.00    -0.346 N 
ATOM     12  C   LEU d   7      69.852  16.205 -50.898  0.00  0.00     0.241 C 
ATOM     13  O   LEU d   7      70.560  16.592 -51.840  0.00  0.00    -0.271 OA
ATOM     14  H   ASP d   8      68.400  16.726 -49.623  0.00  0.00     0.163 HD
BRANCH  12  15
ATOM     15  CA  LEU d   7      69.972  14.813 -50.326  0.00  0.00     0.177 C 
BRANCH  15  16
ATOM     16  N   LEU d   7      70.027  14.851 -48.867  0.00  0.00    -0.346 N 
ATOM     17  C   ILE d   6      70.950  15.546 -48.294  0.00  0.00     0.241 C 
ATOM     18  O   ILE d   6      71.764  16.162 -48.998  0.00  0.00    -0.271 OA
ATOM     19  H   LEU d   7      69.352  14.341 -48.315  0.00  0.00     0.163 HD
BRANCH  17  20
ATOM     20  CA  ILE d   6      71.007  15.586 -46.786  0.00  0.00     0.180 C 
BRANCH  20  21
ATOM     21  N   ILE d   6      69.685  15.836 -46.219  0.00  0.00    -0.346 N 
ATOM     22  C   SER d   5      69.043  16.898 -46.573  0.00  0.00     0.243 C 
ATOM     23  O   SER d   5      69.564  17.669 -47.378  0.00  0.00    -0.271 OA
ATOM     24  H   ILE d   6      69.278  15.187 -45.560  0.00  0.00     0.163 HD
BRANCH  22  25
ATOM     25  CA  SER d   5      67.675  17.157 -45.986  0.00  0.00     0.200 C 
BRANCH  25  26
ATOM     26  N   SER d   5      66.846  15.957 -46.045  0.00  0.00    -0.344 N 
ATOM     27  C   GLU d   4      66.637  15.397 -47.188  0.00  0.00     0.241 C 
ATOM     28  O   GLU d   4      67.146  15.894 -48.202  0.00  0.00    -0.271 OA
ATOM     29  H   SER d   5      66.442  15.572 -45.203  0.00  0.00     0.163 HD
BRANCH  27  30
ATOM     30  CA  GLU d   4      65.779  14.157 -47.248  0.00  0.00     0.177 C 
BRANCH  30  31
ATOM     31  N   GLU d   4      66.172  13.198 -46.219  0.00  0.00    -0.346 N 
ATOM     32  C   PRO d   3      67.392  12.779 -46.187  0.00  0.00     0.241 C 
ATOM     33  O   PRO d   3      68.201  13.190 -47.019  0.00  0.00    -0.271 OA
ATOM     34  H   GLU d   4      65.499  12.869 -45.542  0.00  0.00     0.163 HD
BRANCH  32  35
ATOM     35  CA  PRO d   3      67.825  11.770 -45.111  0.00  0.00     0.179 C 
ATOM     36  N   PRO d   3      67.360  12.163 -43.789  0.00  0.00    -0.337 N 
ATOM     37  C   ASN d   2      67.848  13.176 -43.155  0.00  0.00     0.243 C 
ATOM     38  CD  PRO d   3      66.310  11.334 -43.239  0.00  0.00     0.127 C 
ATOM     39  O   ASN d   2      68.741  13.836 -43.684  0.00  0.00    -0.271 OA
ATOM     40  CG  PRO d   3      65.879  10.501 -44.449  0.00  0.00     0.022 C 
ATOM     41  CB  PRO d   3      67.166  10.392 -45.280  0.00  0.00     0.037 C 
BRANCH  37  42
ATOM     42  CA  ASN d   2      67.306  13.513 -41.786  0.00  0.00     0.185 C 
BRANCH  42  43
ATOM     43  N   ASN d   2      65.846  13.503 -41.785  0.00  0.00    -0.346 N 
ATOM     44  C   PHE d   1      65.215  14.268 -42.610  0.00  0.00     0.242 C 
ATOM     45  O   PHE d   1      65.878  15.003 -43.394  0.00  0.00    -0.271 OA
ATOM     46  H   ASN d   2      65.338  12.905 -41.149  0.00  0.00     0.163 HD
BRANCH  44  47
ATOM     47  CA  PHE d   1      63.705  14.258 -42.610  0.00  0.00     0.195 C 
BRANCH  47  48
ATOM     48  N   PHE d   1      63.190  12.892 -42.610  0.00  0.00    -0.326 NA
ATOM     49  H   PHE d   1      63.845  12.034 -42.610  0.00  0.00     0.180 HD
ENDBRANCH  47  48
BRANCH  47  50
ATOM     50  CB  PHE d   1      63.197  15.021 -41.349  0.00  0.00     0.074 C 
BRANCH  50  51
ATOM     51  CG  PHE d   1      61.673  15.116 -41.174  0.00  0.00    -0.056 A 
ATOM     52  CD1 PHE d   1      60.991  14.101 -40.493  0.00  0.00     0.007 A 
ATOM     53  CE1 PHE d   1      59.604  14.131 -40.396  0.00  0.00     0.001 A 
ATOM     54  CZ  PHE d   1      58.891  15.184 -40.964  0.00  0.00     0.000 A 
ATOM     55  CE2 PHE d   1      59.564  16.205 -41.633  0.00  0.00     0.001 A 
ATOM     56  CD2 PHE d   1      60.952  16.170 -41.740  0.00  0.00     0.007 A 
ENDBRANCH  50  51
ENDBRANCH  47  50
ENDBRANCH  44  47
ENDBRANCH  42  43
BRANCH  42  57
ATOM     57  CB  ASN d   2      67.833  12.507 -40.722  0.00  0.00     0.137 C 
BRANCH  57  58
ATOM     58  CG  ASN d   2      67.363  12.715 -39.278  0.00  0.00     0.217 C 
ATOM     59  ND2 ASN d   2      67.927  13.650 -38.561  0.00  0.00    -0.370 N 
ATOM     60 21HD ASN d   2      67.441  13.806 -37.674  0.00  0.00     0.159 HD
ATOM     61 22HD ASN d   2      68.608  14.245 -39.030  0.00  0.00     0.159 HD
ATOM     62  OD1 ASN d   2      66.464  12.051 -38.784  0.00  0.00    -0.274 OA
ENDBRANCH  57  58
ENDBRANCH  42  57
ENDBRANCH  37  42
ENDBRANCH  32  35
ENDBRANCH  30  31
BRANCH  30  63
ATOM     63  CB  GLU d   4      64.277  14.525 -47.077  0.00  0.00     0.045 C 
BRANCH  63  64
ATOM     64  CG  GLU d   4      63.695  15.509 -48.142  0.00  0.00     0.116 C 
BRANCH  64  65
ATOM     65  CD  GLU d   4      62.253  15.957 -47.998  0.00  0.00     0.172 C 
ATOM     66  OE1 GLU d   4      61.541  15.535 -47.067  0.00  0.00    -0.648 OA
ATOM     67  OE2 GLU d   4      61.835  16.773 -48.846  0.00  0.00    -0.648 OA
ENDBRANCH  64  65
ENDBRANCH  63  64
ENDBRANCH  30  63
ENDBRANCH  27  30
ENDBRANCH  25  26
BRANCH  25  68
ATOM     68  CB  SER d   5      67.770  17.693 -44.536  0.00  0.00     0.199 C 
BRANCH  68  69
ATOM     69  OG  SER d   5      68.531  16.839 -43.675  0.00  0.00    -0.398 OA
ATOM     70  HG  SER d   5      68.071  15.998 -43.625  0.00  0.00     0.209 HD
ENDBRANCH  68  69
ENDBRANCH  25  68
ENDBRANCH  22  25
ENDBRANCH  20  21
BRANCH  20  71
ATOM     71  CB  ILE d   6      71.652  14.270 -46.187  0.00  0.00     0.013 C 
ATOM     72  CG2 ILE d   6      73.102  14.018 -46.703  0.00  0.00     0.012 C 
BRANCH  71  73
ATOM     73  CG1 ILE d   6      71.674  14.209 -44.626  0.00  0.00     0.002 C 
ATOM     74  CD1 ILE d   6      71.991  12.830 -44.011  0.00  0.00     0.005 C 
ENDBRANCH  71  73
ENDBRANCH  20  71
ENDBRANCH  17  20
ENDBRANCH  15  16
BRANCH  15  75
ATOM     75  CB  LEU d   7      68.799  13.913 -50.805  0.00  0.00     0.038 C 
BRANCH  75  76
ATOM     76  CG  LEU d   7      68.776  12.432 -50.339  0.00  0.00    -0.020 C 
ATOM     77  CD1 LEU d   7      67.611  11.686 -51.004  0.00  0.00     0.009 C 
ATOM     78  CD2 LEU d   7      70.095  11.697 -50.631  0.00  0.00     0.009 C 
ENDBRANCH  75  76
ENDBRANCH  15  75
ENDBRANCH  12  15
ENDBRANCH  10  11
BRANCH  10  79
ATOM     79  CB  ASP d   8      67.766  19.165 -50.202  0.00  0.00     0.147 C 
BRANCH  79  80
ATOM     80  CG  ASP d   8      67.498  20.578 -50.742  0.00  0.00     0.175 C 
ATOM     81  OD1 ASP d   8      67.555  20.779 -51.973  0.00  0.00    -0.648 OA
ATOM     82  OD2 ASP d   8      67.275  21.497 -49.926  0.00  0.00    -0.648 OA
ENDBRANCH  79  80
ENDBRANCH  10  79
ENDBRANCH   7  10
ENDBRANCH   5   6
BRANCH   5  83
ATOM     83  CB  GLU d   9      72.796  19.577 -48.333  0.00  0.00     0.045 C 
BRANCH  83  84
ATOM     84  CG  GLU d   9      74.155  20.315 -48.104  0.00  0.00     0.116 C 
BRANCH  84  85
ATOM     85  CD  GLU d   9      74.864  20.126 -46.777  0.00  0.00     0.172 C 
ATOM     86  OE1 GLU d   9      74.367  19.418 -45.880  0.00  0.00    -0.648 OA
ATOM     87  OE2 GLU d   9      75.964  20.701 -46.645  0.00  0.00    -0.648 OA
ENDBRANCH  84  85
ENDBRANCH  83  84
ENDBRANCH   5  83
ENDBRANCH   1   5
BRANCH   3  88
ATOM     88  CA  HIS d  10      74.134  17.515 -52.025  0.00  0.00     0.182 C 
BRANCH  88  89
ATOM     89  C   HIS d  10      73.747  18.067 -53.376  0.00  0.00     0.241 C 
ATOM     90  O   HIS d  10      74.583  18.561 -54.148  0.00  0.00    -0.271 OA
ATOM     91  N   VAL d  11      72.510  18.024 -53.738  0.00  0.00    -0.346 N 
ATOM     92  H   VAL d  11      71.811  17.627 -53.127  0.00  0.00     0.163 HD
BRANCH  91  93
ATOM     93  CA  VAL d  11      72.136  18.558 -55.045  0.00  0.00     0.180 C 
BRANCH  93  94
ATOM     94  C   VAL d  11      72.551  20.003 -55.177  0.00  0.00     0.241 C 
ATOM     95  O   VAL d  11      73.138  20.429 -56.181  0.00  0.00    -0.271 OA
ATOM     96  N   GLN d  12      72.287  20.820 -54.215  0.00  0.00    -0.346 N 
ATOM     97  H   GLN d  12      71.809  20.498 -53.385  0.00  0.00     0.163 HD
BRANCH  96  98
ATOM     98  CA  GLN d  12      72.688  22.218 -54.342  0.00  0.00     0.177 C 
BRANCH  98  99
ATOM     99  C   GLN d  12      74.174  22.336 -54.580  0.00  0.00     0.241 C 
ATOM    100  O   GLN d  12      74.637  23.061 -55.459  0.00  0.00    -0.271 OA
ATOM    101  N   ARG d  13      74.983  21.656 -53.840  0.00  0.00    -0.346 N 
ATOM    102  H   ARG d  13      74.628  21.054 -53.112  0.00  0.00     0.163 HD
BRANCH 101 103
ATOM    103  CA  ARG d  13      76.420  21.771 -54.072  0.00  0.00     0.176 C 
BRANCH 103 104
ATOM    104  C   ARG d  13      76.768  21.412 -55.497  0.00  0.00     0.241 C 
ATOM    105  O   ARG d  13      77.513  22.109 -56.181  0.00  0.00    -0.271 OA
ATOM    106  N   VAL d  14      76.268  20.339 -56.011  0.00  0.00    -0.346 N 
ATOM    107  H   VAL d  14      75.653  19.749 -55.469  0.00  0.00     0.163 HD
BRANCH 106 108
ATOM    108  CA  VAL d  14      76.604  19.992 -57.389  0.00  0.00     0.180 C 
BRANCH 108 109
ATOM    109  C   VAL d  14      76.235  21.110 -58.334  0.00  0.00     0.241 C 
ATOM    110  O   VAL d  14      77.015  21.518 -59.204  0.00  0.00    -0.271 OA
ATOM    111  N   MET d  15      75.071  21.657 -58.232  0.00  0.00    -0.346 N 
ATOM    112  H   MET d  15      74.417  21.341 -57.530  0.00  0.00     0.163 HD
BRANCH 111 113
ATOM    113  CA  MET d  15      74.713  22.738 -59.145  0.00  0.00     0.177 C 
BRANCH 113 114
ATOM    114  C   MET d  15      75.706  23.872 -59.057  0.00  0.00     0.241 C 
ATOM    115  O   MET d  15      76.190  24.400 -60.070  0.00  0.00    -0.271 OA
ATOM    116  N   ARG d  16      76.060  24.305 -57.895  0.00  0.00    -0.347 N 
ATOM    117  H   ARG d  16      75.680  23.892 -57.056  0.00  0.00     0.163 HD
BRANCH 116 118
ATOM    118  CA  ARG d  16      77.020  25.402 -57.812  0.00  0.00     0.162 C 
BRANCH 118 119
ATOM    119  C   ARG d  16      78.303  25.053 -58.529  0.00  0.00     0.219 C 
ATOM    120  O   ARG d  16      78.453  23.981 -59.111  0.00  0.00    -0.287 OA
ENDBRANCH 118 119
BRANCH 118 121
ATOM    121  CB  ARG d  16      77.279  25.729 -56.314  0.00  0.00     0.035 C 
BRANCH 121 122
ATOM    122  CG  ARG d  16      78.060  27.045 -56.041  0.00  0.00     0.023 C 
BRANCH 122 123
ATOM    123  CD  ARG d  16      78.303  27.273 -54.540  0.00  0.00     0.138 C 
BRANCH 123 124
ATOM    124  NE  ARG d  16      79.036  28.557 -54.339  0.00  0.00    -0.227 N 
ATOM    125  CZ  ARG d  16      79.411  29.053 -53.163  0.00  0.00     0.665 C 
ATOM    126  NH1 ARG d  16      79.184  28.460 -52.025  0.00  0.00    -0.235 N 
ATOM    127  NH2 ARG d  16      80.036  30.187 -53.145  0.00  0.00    -0.235 N 
ATOM    128 11HH ARG d  16      78.688  27.570 -52.109  0.00  0.00     0.174 HD
ATOM    129 12HH ARG d  16      79.504  28.906 -51.164  0.00  0.00     0.174 HD
ATOM    130 21HH ARG d  16      80.206  30.636 -54.047  0.00  0.00     0.174 HD
ATOM    131 22HH ARG d  16      80.315  30.552 -52.233  0.00  0.00     0.174 HD
ATOM    132  HE  ARG d  16      79.294  29.148 -55.136  0.00  0.00     0.177 HD
ENDBRANCH 123 124
ENDBRANCH 122 123
ENDBRANCH 121 122
ENDBRANCH 118 121
ENDBRANCH 116 118
ENDBRANCH 113 114
BRANCH 113 133
ATOM    133  CB  MET d  15      73.274  23.235 -58.835  0.00  0.00     0.045 C 
BRANCH 133 134
ATOM    134  CG  MET d  15      72.147  22.198 -59.026  0.00  0.00     0.076 C 
BRANCH 134 135
ATOM    135  SD  MET d  15      70.544  23.010 -58.911  0.00  0.00    -0.173 SA
ATOM    136  CE  MET d  15      69.513  21.544 -58.774  0.00  0.00     0.089 C 
ENDBRANCH 134 135
ENDBRANCH 133 134
ENDBRANCH 113 133
ENDBRANCH 111 113
ENDBRANCH 108 109
BRANCH 108 137
ATOM    137  CB  VAL d  14      75.877  18.649 -57.796  0.00  0.00     0.009 C 
ATOM    138  CG1 VAL d  14      75.979  18.234 -59.289  0.00  0.00     0.012 C 
ATOM    139  CG2 VAL d  14      76.352  17.412 -56.996  0.00  0.00     0.012 C 
ENDBRANCH 108 137
ENDBRANCH 106 108
ENDBRANCH 103 104
BRANCH 103 140
ATOM    140  CB  ARG d  13      77.166  20.857 -53.058  0.00  0.00     0.036 C 
BRANCH 140 141
ATOM    141  CG  ARG d  13      78.704  21.062 -52.978  0.00  0.00     0.023 C 
BRANCH 141 142
ATOM    142  CD  ARG d  13      79.365  20.097 -51.981  0.00  0.00     0.138 C 
BRANCH 142 143
ATOM    143  NE  ARG d  13      80.835  20.354 -51.931  0.00  0.00    -0.227 N 
ATOM    144  CZ  ARG d  13      81.706  19.691 -51.176  0.00  0.00     0.665 C 
ATOM    145  NH1 ARG d  13      81.374  18.715 -50.379  0.00  0.00    -0.235 N 
ATOM    146  NH2 ARG d  13      82.954  20.033 -51.234  0.00  0.00    -0.235 N 
ATOM    147 11HH ARG d  13      80.376  18.495 -50.382  0.00  0.00     0.174 HD
ATOM    148 12HH ARG d  13      82.104  18.256 -49.831  0.00  0.00     0.174 HD
ATOM    149 21HH ARG d  13      83.196  20.800 -51.865  0.00  0.00     0.174 HD
ATOM    150 22HH ARG d  13      83.608  19.514 -50.645  0.00  0.00     0.174 HD
ATOM    151  HE  ARG d  13      81.260  21.091 -52.502  0.00  0.00     0.177 HD
ENDBRANCH 142 143
ENDBRANCH 141 142
ENDBRANCH 140 141
ENDBRANCH 103 140
ENDBRANCH 101 103
ENDBRANCH  98  99
BRANCH  98 152
ATOM    152  CB  GLN d  12      72.272  22.971 -53.059  0.00  0.00     0.044 C 
BRANCH 152 153
ATOM    153  CG  GLN d  12      72.580  24.505 -53.028  0.00  0.00     0.105 C 
BRANCH 153 154
ATOM    154  CD  GLN d  12      72.250  25.307 -51.763  0.00  0.00     0.215 C 
ATOM    155  NE2 GLN d  12      71.704  24.711 -50.733  0.00  0.00    -0.370 N 
ATOM    156 21HE GLN d  12      71.577  25.302 -49.910  0.00  0.00     0.159 HD
ATOM    157 22HE GLN d  12      71.575  23.703 -50.837  0.00  0.00     0.159 HD
ATOM    158  OE1 GLN d  12      72.512  26.498 -51.685  0.00  0.00    -0.274 OA
ENDBRANCH 153 154
ENDBRANCH 152 153
ENDBRANCH  98 152
ENDBRANCH  96  98
ENDBRANCH  93  94
BRANCH  93 159
ATOM    159  CB  VAL d  11      70.579  18.398 -55.264  0.00  0.00     0.009 C 
ATOM    160  CG1 VAL d  11      69.986  19.082 -56.526  0.00  0.00     0.012 C 
ATOM    161  CG2 VAL d  11      70.104  16.927 -55.337  0.00  0.00     0.012 C 
ENDBRANCH  93 159
ENDBRANCH  91  93
ENDBRANCH  88  89
BRANCH  88 162
ATOM    162  CB  HIS d  10      74.022  15.981 -52.020  0.00  0.00     0.095 C 
BRANCH 162 163
ATOM    163  CG  HIS d  10      75.331  15.315 -51.713  0.00  0.00     0.053 A 
ATOM    164  CD2 HIS d  10      75.724  14.993 -50.421  0.00  0.00     0.116 A 
ATOM    165  NE2 HIS d  10      76.960  14.403 -50.488  0.00  0.00    -0.359 N 
ATOM    166  CE1 HIS d  10      77.221  14.415 -51.824  0.00  0.00     0.207 A 
ATOM    167  2HE HIS d  10      77.539  14.045 -49.715  0.00  0.00     0.166 HD
ATOM    168  ND1 HIS d  10      76.296  14.942 -52.646  0.00  0.00    -0.247 NA
ENDBRANCH 162 163
ENDBRANCH  88 162
ENDBRANCH   3  88
TORSDOF 67
