@<TRIPOS>MOLECULE
2-7
270 271 16              
SMALL
USER_CHARGES
@<TRIPOS>ATOM
1	   N	223.541	39.638	-196.718	N.3	1	GLU1	-0.516	
2	  CA	224.100	40.987	-196.718	C.3	1	GLU1	0.040	
3	   C	225.609	40.947	-196.718	C.2	1	GLU1	0.537	
4	   O	226.285	41.646	-197.487	O.2	1	GLU1	-0.582	
5	  CB	223.577	41.772	-195.481	C.3	1	GLU1	0.056	
6	  CG	224.052	43.257	-195.370	C.3	1	GLU1	0.014	
7	  CD	223.628	44.061	-194.155	C.2	1	GLU1	0.805	
8	 OE1	222.900	43.559	-193.277	O.co2	1	GLU1	-0.819	
9	 OE2	224.058	45.231	-194.083	O.co2	1	GLU1	-0.819	
10	   H	224.168	38.759	-196.718	 H	1	GLU1	0.294	
11	  HA	223.774	41.505	-197.638	 H	1	GLU1	0.111	
12	 2HB	223.866	41.241	-194.551	 H	1	GLU1	-0.017	
13	 3HB	222.470	41.762	-195.468	 H	1	GLU1	-0.017	
14	 2HG	223.742	43.842	-196.251	 H	1	GLU1	-0.043	
15	 3HG	225.152	43.324	-195.341	 H	1	GLU1	-0.043	
16	   N	226.214	40.161	-195.893	N.am	2	LEU2	-0.416	
17	  CA	227.673	40.122	-195.893	C.3	2	LEU2	-0.052	
18	   C	228.204	39.767	-197.261	C.2	2	LEU2	0.597	
19	   O	229.126	40.403	-197.795	O.2	2	LEU2	-0.568	
20	  CB	228.194	39.125	-194.819	C.3	2	LEU2	-0.110	
21	  CG	227.773	39.356	-193.343	C.3	2	LEU2	0.353	
22	 CD1	228.474	38.341	-192.429	C.3	2	LEU2	-0.412	
23	 CD2	228.073	40.784	-192.856	C.3	2	LEU2	-0.412	
24	   H	225.686	39.581	-195.256	 H	2	LEU2	0.272	
25	  HA	228.050	41.137	-195.669	 H	2	LEU2	0.092	
26	 2HB	229.300	39.105	-194.866	 H	2	LEU2	0.046	
27	 3HB	227.886	38.100	-195.108	 H	2	LEU2	0.046	
28	  HG	226.679	39.186	-193.265	 H	2	LEU2	-0.036	
29	1HD1	228.247	37.298	-192.723	 H	2	LEU2	0.100	
30	2HD1	229.574	38.452	-192.445	 H	2	LEU2	0.100	
31	3HD1	228.151	38.449	-191.377	 H	2	LEU2	0.100	
32	1HD2	229.138	41.053	-192.977	 H	2	LEU2	0.100	
33	2HD2	227.479	41.531	-193.416	 H	2	LEU2	0.100	
34	3HD2	227.810	40.921	-191.791	 H	2	LEU2	0.100	
35	   N	227.682	38.772	-197.895	N.am	3	PRO3	-0.255	
36	  CA	228.134	38.363	-199.217	C.3	3	PRO3	-0.027	
37	   C	227.735	39.386	-200.294	C.2	3	PRO3	0.590	
38	   O	228.558	39.769	-201.125	O.2	3	PRO3	-0.575	
39	  CB	227.430	37.008	-199.386	C.3	3	PRO3	-0.007	
40	  CG	226.147	37.160	-198.555	C.3	3	PRO3	0.019	
41	  CD	226.605	37.979	-197.346	C.3	3	PRO3	0.019	
42	  HA	229.220	38.243	-199.231	 H	3	PRO3	0.064	
43	 2HB	228.053	36.227	-198.945	 H	3	PRO3	0.025	
44	 3HB	227.231	36.759	-200.431	 H	3	PRO3	0.025	
45	 2HG	225.719	36.198	-198.264	 H	3	PRO3	0.021	
46	 3HG	225.409	37.731	-199.122	 H	3	PRO3	0.021	
47	 2HD	226.994	37.329	-196.558	 H	3	PRO3	0.039	
48	 3HD	225.808	38.615	-196.952	 H	3	PRO3	0.039	
49	   N	226.531	39.846	-200.326	N.am	4	GLU4	-0.516	
50	  CA	226.170	40.817	-201.355	C.3	4	GLU4	0.040	
51	   C	227.069	42.028	-201.294	C.2	4	GLU4	0.537	
52	   O	227.595	42.507	-202.309	O.2	4	GLU4	-0.582	
53	  CB	224.682	41.235	-201.184	C.3	4	GLU4	0.056	
54	  CG	224.133	42.238	-202.250	C.3	4	GLU4	0.014	
55	  CD	222.707	42.735	-202.106	C.2	4	GLU4	0.805	
56	 OE1	221.981	42.337	-201.175	O.co2	4	GLU4	-0.819	
57	 OE2	222.317	43.564	-202.954	O.co2	4	GLU4	-0.819	
58	   H	225.847	39.539	-199.649	 H	4	GLU4	0.294	
59	  HA	226.301	40.346	-202.346	 H	4	GLU4	0.111	
60	 2HB	224.530	41.675	-200.178	 H	4	GLU4	-0.017	
61	 3HB	224.034	40.337	-201.190	 H	4	GLU4	-0.017	
62	 2HG	224.215	41.824	-203.268	 H	4	GLU4	-0.043	
63	 3HG	224.721	43.171	-202.261	 H	4	GLU4	-0.043	
64	   N	227.297	42.581	-200.151	N.am	5	SER5	-0.416	
65	  CA	228.166	43.752	-200.093	C.3	5	SER5	-0.025	
66	   C	229.525	43.447	-200.679	C.2	5	SER5	0.597	
67	   O	230.072	44.201	-201.484	O.2	5	SER5	-0.568	
68	  CB	228.278	44.285	-198.643	C.3	5	SER5	0.212	
69	  OG	229.010	43.406	-197.782	O.3	5	SER5	-0.655	
70	   H	226.880	42.209	-199.310	 H	5	SER5	0.272	
71	  HA	227.716	44.542	-200.722	 H	5	SER5	0.084	
72	 2HB	227.278	44.478	-198.209	 H	5	SER5	0.035	
73	 3HB	228.783	45.271	-198.646	 H	5	SER5	0.035	
74	  HG	228.522	42.581	-197.731	 H	5	SER5	0.428	
75	   N	230.130	42.364	-200.325	N.am	6	ILE6	-0.416	
76	  CA	231.443	42.070	-200.892	C.3	6	ILE6	-0.060	
77	   C	231.385	42.032	-202.400	C.2	6	ILE6	0.597	
78	   O	232.220	42.620	-203.104	O.2	6	ILE6	-0.568	
79	  CB	232.043	40.733	-200.292	C.3	6	ILE6	0.130	
80	 CG1	232.063	40.672	-198.731	C.3	6	ILE6	-0.043	
81	 CG2	233.484	40.432	-200.808	C.3	6	ILE6	-0.320	
82	 CD1	232.334	39.283	-198.116	C.3	6	ILE6	-0.066	
83	   H	229.702	41.730	-199.666	 H	6	ILE6	0.272	
84	  HA	232.117	42.904	-200.625	 H	6	ILE6	0.087	
85	  HB	231.386	39.907	-200.636	 H	6	ILE6	0.019	
86	2HG1	231.081	40.991	-198.335	 H	6	ILE6	0.024	
87	3HG1	232.779	41.414	-198.327	 H	6	ILE6	0.024	
88	1HG2	233.543	40.338	-201.906	 H	6	ILE6	0.088	
89	2HG2	234.207	41.215	-200.506	 H	6	ILE6	0.088	
90	3HG2	233.875	39.470	-200.429	 H	6	ILE6	0.088	
91	1HD1	231.606	38.528	-198.470	 H	6	ILE6	0.019	
92	2HD1	233.344	38.904	-198.352	 H	6	ILE6	0.019	
93	3HD1	232.258	39.313	-197.013	 H	6	ILE6	0.019	
94	   N	230.439	41.368	-202.973	N.am	7	LEU7	-0.416	
95	  CA	230.384	41.332	-204.432	C.3	7	LEU7	-0.052	
96	   C	230.311	42.727	-205.004	C.2	7	LEU7	0.597	
97	   O	231.031	43.090	-205.946	O.2	7	LEU7	-0.568	
98	  CB	229.181	40.471	-204.911	C.3	7	LEU7	-0.110	
99	  CG	229.109	38.992	-204.445	C.3	7	LEU7	0.353	
100	 CD1	227.919	38.285	-205.110	C.3	7	LEU7	-0.412	
101	 CD2	230.403	38.213	-204.737	C.3	7	LEU7	-0.412	
102	   H	229.748	40.881	-202.421	 H	7	LEU7	0.272	
103	  HA	231.326	40.892	-204.806	 H	7	LEU7	0.092	
104	 2HB	229.158	40.487	-206.019	 H	7	LEU7	0.046	
105	 3HB	228.241	40.974	-204.607	 H	7	LEU7	0.046	
106	  HG	228.939	38.984	-203.348	 H	7	LEU7	-0.036	
107	1HD1	226.962	38.794	-204.887	 H	7	LEU7	0.100	
108	2HD1	228.018	38.245	-206.211	 H	7	LEU7	0.100	
109	3HD1	227.812	37.244	-204.754	 H	7	LEU7	0.100	
110	1HD2	230.677	38.243	-205.807	 H	7	LEU7	0.100	
111	2HD2	231.256	38.625	-204.166	 H	7	LEU7	0.100	
112	3HD2	230.322	37.150	-204.440	 H	7	LEU7	0.100	
113	   N	229.474	43.567	-204.498	N.am	8	ASP8	-0.516	
114	  CA	229.403	44.917	-205.051	C.3	8	ASP8	0.038	
115	   C	230.749	45.597	-204.994	C.2	8	ASP8	0.537	
116	   O	231.222	46.202	-205.969	O.2	8	ASP8	-0.582	
117	  CB	228.325	45.755	-204.309	C.3	8	ASP8	-0.030	
118	  CG	228.105	47.176	-204.849	C.2	8	ASP8	0.799	
119	 OD1	228.169	47.375	-206.080	O.co2	8	ASP8	-0.801	
120	 OD2	227.913	48.102	-204.034	O.co2	8	ASP8	-0.801	
121	   H	228.876	43.296	-203.730	 H	8	ASP8	0.294	
122	  HA	229.120	44.839	-206.118	 H	8	ASP8	0.088	
123	 2HB	228.582	45.839	-203.237	 H	8	ASP8	-0.012	
124	 3HB	227.346	45.250	-204.342	 H	8	ASP8	-0.012	
125	   N	231.429	45.547	-203.899	N.am	9	GLU9	-0.516	
126	  CA	232.732	46.205	-203.844	C.3	9	GLU9	0.040	
127	   C	233.650	45.678	-204.920	C.2	9	GLU9	0.537	
128	   O	234.313	46.433	-205.646	O.2	9	GLU9	-0.582	
129	  CB	233.366	45.998	-202.439	C.3	9	GLU9	0.056	
130	  CG	234.748	46.691	-202.210	C.3	9	GLU9	0.014	
131	  CD	235.451	46.478	-200.882	C.2	9	GLU9	0.805	
132	 OE1	234.929	45.786	-199.985	O.co2	9	GLU9	-0.819	
133	 OE2	236.570	47.016	-200.750	O.co2	9	GLU9	-0.819	
134	   H	231.066	45.061	-203.092	 H	9	GLU9	0.294	
135	  HA	232.589	47.287	-204.019	 H	9	GLU9	0.111	
136	 2HB	233.479	44.913	-202.236	 H	9	GLU9	-0.017	
137	 3HB	232.669	46.351	-201.654	 H	9	GLU9	-0.017	
138	 2HG	234.676	47.781	-202.350	 H	9	GLU9	-0.043	
139	 3HG	235.495	46.346	-202.944	 H	9	GLU9	-0.043	
140	   N	233.747	44.403	-205.090	N.am	10	HIS10	-0.416	
141	  CA	234.635	43.892	-206.130	C.3	10	HIS10	-0.058	
142	   C	234.267	44.456	-207.481	C.2	10	HIS10	0.597	
143	   O	235.119	44.921	-208.253	O.2	10	HIS10	-0.568	
144	  CB	234.471	42.363	-206.125	C.3	10	HIS10	-0.007	
145	  CG	235.757	41.653	-205.818	C.2	10	HIS10	0.187	
146	 CD2	236.139	41.318	-204.525	C.2	10	HIS10	-0.221	
147	 ND1	236.709	41.248	-206.750	N.2	10	HIS10	-0.543	
148	 CE1	237.616	40.690	-205.927	C.2	10	HIS10	0.163	
149	 NE2	237.354	40.687	-204.592	N.pl3	10	HIS10	-0.280	
150	   H	233.216	43.767	-204.511	 H	10	HIS10	0.272	
151	  HA	235.654	44.250	-205.906	 H	10	HIS10	0.136	
152	 2HB	234.106	41.996	-207.105	 H	10	HIS10	0.037	
153	 3HB	233.716	42.025	-205.385	 H	10	HIS10	0.037	
154	 2HD	235.553	41.533	-203.636	 H	10	HIS10	0.186	
155	 1HE	238.507	40.269	-206.375	 H	10	HIS10	0.144	
156	 2HE	237.921	40.310	-203.819	 H	10	HIS10	0.334	
157	   N	233.029	44.455	-207.844	N.am	11	VAL11	-0.416	
158	  CA	232.674	45.001	-209.151	C.3	11	VAL11	-0.087	
159	   C	233.137	46.432	-209.283	C.2	11	VAL11	0.597	
160	   O	233.738	46.837	-210.286	O.2	11	VAL11	-0.568	
161	  CB	231.112	44.894	-209.370	C.3	11	VAL11	0.299	
162	 CG1	230.543	45.597	-210.632	C.3	11	VAL11	-0.319	
163	 CG2	230.588	43.439	-209.443	C.3	11	VAL11	-0.319	
164	   H	232.317	44.082	-207.233	 H	11	VAL11	0.272	
165	  HA	233.193	44.419	-209.933	 H	11	VAL11	0.097	
166	  HB	230.625	45.373	-208.494	 H	11	VAL11	-0.030	
167	1HG1	230.982	45.206	-211.570	 H	11	VAL11	0.079	
168	2HG1	229.444	45.490	-210.714	 H	11	VAL11	0.079	
169	3HG1	230.721	46.690	-210.623	 H	11	VAL11	0.079	
170	1HG2	230.879	42.852	-208.552	 H	11	VAL11	0.079	
171	2HG2	229.482	43.402	-209.485	 H	11	VAL11	0.079	
172	3HG2	230.970	42.899	-210.329	 H	11	VAL11	0.079	
173	   N	232.900	47.257	-208.321	N.am	12	GLN12	-0.416	
174	  CA	233.348	48.640	-208.448	C.3	12	GLN12	-0.003	
175	   C	234.838	48.708	-208.686	C.2	12	GLN12	0.597	
176	   O	235.325	49.417	-209.565	O.2	12	GLN12	-0.568	
177	  CB	232.957	49.408	-207.165	C.3	12	GLN12	-0.004	
178	  CG	233.317	50.930	-207.134	C.3	12	GLN12	-0.064	
179	  CD	233.014	51.743	-205.869	C.2	12	GLN12	0.695	
180	 NE2	232.448	51.166	-204.840	N.pl3	12	GLN12	-0.941	
181	 OE1	233.316	52.924	-205.792	O.2	12	GLN12	-0.609	
182	   H	232.412	46.951	-207.492	 H	12	GLN12	0.272	
183	  HA	232.848	49.096	-209.323	 H	12	GLN12	0.085	
184	 2HB	233.434	48.908	-206.296	 H	12	GLN12	0.017	
185	 3HB	231.867	49.300	-207.002	 H	12	GLN12	0.017	
186	 2HG	232.839	51.450	-207.985	 H	12	GLN12	0.035	
187	 3HG	234.400	51.072	-207.300	 H	12	GLN12	0.035	
188	1HE2	232.341	51.761	-204.017	 H	12	GLN12	0.425	
189	2HE2	232.285	50.163	-204.944	 H	12	GLN12	0.425	
190	   N	235.623	48.002	-207.946	N.am	13	ARG13	-0.348	
191	  CA	237.063	48.068	-208.177	C.3	13	ARG13	-0.264	
192	   C	237.399	47.697	-209.602	C.2	13	ARG13	0.734	
193	   O	238.167	48.369	-210.286	O.2	13	ARG13	-0.589	
194	  CB	237.777	47.130	-207.163	C.3	13	ARG13	-0.001	
195	  CG	239.322	47.283	-207.082	C.3	13	ARG13	0.039	
196	  CD	239.950	46.296	-206.085	C.3	13	ARG13	0.049	
197	  NE	241.427	46.504	-206.035	N.pl3	13	ARG13	-0.530	
198	  CZ	242.275	45.812	-205.280	C.cat	13	ARG13	0.808	
199	 NH1	241.911	44.848	-204.482	N.pl3	13	ARG13	-0.863	
200	 NH2	243.535	46.112	-205.337	N.pl3	13	ARG13	-0.863	
201	   H	235.247	47.412	-207.217	 H	13	ARG13	0.275	
202	  HA	237.387	49.114	-208.018	 H	13	ARG13	0.156	
203	 2HB	237.511	46.079	-207.402	 H	13	ARG13	0.033	
204	 3HB	237.352	47.296	-206.152	 H	13	ARG13	0.033	
205	 2HG	239.570	48.328	-206.803	 H	13	ARG13	0.029	
206	 3HG	239.772	47.128	-208.084	 H	13	ARG13	0.029	
207	 2HD	239.706	45.256	-206.394	 H	13	ARG13	0.069	
208	 3HD	239.493	46.441	-205.082	 H	13	ARG13	0.069	
209	  HE	241.878	47.226	-206.605	 H	13	ARG13	0.346	
210	1HH1	240.905	44.661	-204.485	 H	13	ARG13	0.448	
211	2HH1	242.624	44.365	-203.934	 H	13	ARG13	0.448	
212	1HH2	243.802	46.870	-205.968	 H	13	ARG13	0.448	
213	2HH2	244.170	45.571	-204.748	 H	13	ARG13	0.448	
214	   N	236.863	46.642	-210.116	N.am	14	VAL14	-0.416	
215	  CA	237.188	46.283	-211.494	C.3	14	VAL14	-0.087	
216	   C	236.857	47.413	-212.439	C.2	14	VAL14	0.597	
217	   O	237.650	47.795	-213.309	O.2	14	VAL14	-0.568	
218	  CB	236.416	44.966	-211.901	C.3	14	VAL14	0.299	
219	 CG1	236.505	44.548	-213.394	C.3	14	VAL14	-0.319	
220	 CG2	236.849	43.714	-211.100	C.3	14	VAL14	-0.319	
221	   H	236.229	46.073	-209.574	 H	14	VAL14	0.272	
222	  HA	238.276	46.107	-211.569	 H	14	VAL14	0.097	
223	  HB	235.340	45.137	-211.684	 H	14	VAL14	-0.030	
224	1HG1	237.546	44.371	-213.723	 H	14	VAL14	0.079	
225	2HG1	235.933	43.624	-213.607	 H	14	VAL14	0.079	
226	3HG1	236.076	45.310	-214.072	 H	14	VAL14	0.079	
227	1HG2	236.762	43.872	-210.010	 H	14	VAL14	0.079	
228	2HG2	236.213	42.837	-211.332	 H	14	VAL14	0.079	
229	3HG2	237.897	43.424	-211.306	 H	14	VAL14	0.079	
230	   N	235.712	47.999	-212.337	N.am	15	MET15	-0.416	
231	  CA	235.391	49.091	-213.251	C.3	15	MET15	-0.024	
232	   C	236.421	50.191	-213.163	C.2	15	MET15	0.597	
233	   O	236.923	50.703	-214.176	O.2	15	MET15	-0.568	
234	  CB	233.970	49.636	-212.941	C.3	15	MET15	0.034	
235	  CG	232.808	48.638	-213.133	C.3	15	MET15	0.002	
236	  SD	231.234	49.503	-213.018	S.3	15	MET15	-0.274	
237	  CE	230.153	48.073	-212.881	C.3	15	MET15	-0.054	
238	   H	235.048	47.705	-211.635	 H	15	MET15	0.272	
239	  HA	235.417	48.704	-214.286	 H	15	MET15	0.088	
240	 2HB	233.767	50.515	-213.583	 H	15	MET15	0.024	
241	 3HB	233.934	50.029	-211.905	 H	15	MET15	0.024	
242	 2HG	232.852	47.852	-212.355	 H	15	MET15	0.044	
243	 3HG	232.871	48.122	-214.109	 H	15	MET15	0.044	
244	 1HE	230.297	47.385	-213.734	 H	15	MET15	0.068	
245	 2HE	230.363	47.520	-211.949	 H	15	MET15	0.068	
246	 3HE	229.095	48.388	-212.864	 H	15	MET15	0.068	
247	   N	236.790	50.613	-212.001	N.am	16	ARG16	-0.348	
248	  CA	237.786	51.677	-211.917	C.3	16	ARG16	-0.264	
249	   C	239.056	51.285	-212.634	C.2	16	ARG16	0.734	
250	   O	239.171	50.208	-213.215	O.2	16	ARG16	-0.589	
251	  CB	238.055	51.995	-210.419	C.3	16	ARG16	-0.001	
252	  CG	238.880	53.284	-210.146	C.3	16	ARG16	0.039	
253	  CD	239.130	53.504	-208.645	C.3	16	ARG16	0.049	
254	  NE	239.905	54.763	-208.444	N.pl3	16	ARG16	-0.530	
255	  CZ	240.297	55.245	-207.269	C.cat	16	ARG16	0.808	
256	 NH1	240.050	54.661	-206.130	N.pl3	16	ARG16	-0.863	
257	 NH2	240.960	56.358	-207.250	N.pl3	16	ARG16	-0.863	
258	   H	236.395	50.212	-211.162	 H	16	ARG16	0.275	
259	  HA	237.376	52.570	-212.427	 H	16	ARG16	0.156	
260	 2HB	238.553	51.119	-209.953	 H	16	ARG16	0.033	
261	 3HB	237.086	52.075	-209.885	 H	16	ARG16	0.033	
262	 2HG	238.349	54.155	-210.583	 H	16	ARG16	0.029	
263	 3HG	239.853	53.232	-210.676	 H	16	ARG16	0.029	
264	 2HD	239.679	52.629	-208.232	 H	16	ARG16	0.069	
265	 3HD	238.157	53.546	-208.110	 H	16	ARG16	0.069	
266	  HE	240.184	55.344	-209.242	 H	16	ARG16	0.346	
267	1HH1	239.524	53.787	-206.215	 H	16	ARG16	0.448	
268	2HH1	240.384	55.096	-205.269	 H	16	ARG16	0.448	
269	1HH2	241.145	56.801	-208.152	 H	16	ARG16	0.448	
270	2HH2	241.251	56.713	-206.338	 H	16	ARG16	0.448	
@<TRIPOS>BOND
1 1 2 1
2 1 10 1
3 2 3 1
4 2 5 1
5 2 11 1
6 3 4 2
7 3 16 1
8 5 6 1
9 6 7 1
10 7 8 2
11 7 9 1
12 5 12 1
13 5 13 1
14 6 14 1
15 6 15 1
16 16 17 1
17 16 24 1
18 17 18 1
19 17 20 1
20 17 25 1
21 18 19 2
22 18 35 1
23 20 21 1
24 21 22 1
25 21 23 1
26 20 26 1
27 20 27 1
28 21 28 1
29 22 29 1
30 22 30 1
31 22 31 1
32 23 32 1
33 23 33 1
34 23 34 1
35 35 36 1
36 35 41 1
37 36 37 1
38 36 39 1
39 36 42 1
40 37 38 2
41 37 49 1
42 39 40 1
43 40 41 1
44 39 43 1
45 39 44 1
46 40 45 1
47 40 46 1
48 41 47 1
49 41 48 1
50 49 50 1
51 49 58 1
52 50 51 1
53 50 53 1
54 50 59 1
55 51 52 2
56 51 64 1
57 53 54 1
58 54 55 1
59 55 56 2
60 55 57 1
61 53 60 1
62 53 61 1
63 54 62 1
64 54 63 1
65 64 65 1
66 64 70 1
67 65 66 1
68 65 68 1
69 65 71 1
70 66 67 2
71 66 75 1
72 68 69 1
73 68 72 1
74 68 73 1
75 69 74 1
76 75 76 1
77 75 83 1
78 76 77 1
79 76 79 1
80 76 84 1
81 77 78 2
82 77 94 1
83 79 80 1
84 79 81 1
85 80 82 1
86 79 85 1
87 80 86 1
88 80 87 1
89 81 88 1
90 81 89 1
91 81 90 1
92 82 91 1
93 82 92 1
94 82 93 1
95 94 95 1
96 94 102 1
97 95 96 1
98 95 98 1
99 95 103 1
100 96 97 2
101 96 113 1
102 98 99 1
103 99 100 1
104 99 101 1
105 98 104 1
106 98 105 1
107 99 106 1
108 100 107 1
109 100 108 1
110 100 109 1
111 101 110 1
112 101 111 1
113 101 112 1
114 113 114 1
115 113 121 1
116 114 115 1
117 114 117 1
118 114 122 1
119 115 116 2
120 115 125 1
121 117 118 1
122 118 119 2
123 118 120 1
124 117 123 1
125 117 124 1
126 125 126 1
127 125 134 1
128 126 127 1
129 126 129 1
130 126 135 1
131 127 128 2
132 127 140 1
133 129 130 1
134 130 131 1
135 131 132 2
136 131 133 1
137 129 136 1
138 129 137 1
139 130 138 1
140 130 139 1
141 140 141 1
142 140 150 1
143 141 142 1
144 141 144 1
145 141 151 1
146 142 143 2
147 142 157 1
148 144 145 1
149 145 146 2
150 146 149 1
151 145 147 1
152 147 148 2
153 148 149 1
154 144 152 1
155 144 153 1
156 146 154 1
157 148 155 1
158 149 156 1
159 157 158 1
160 157 164 1
161 158 159 1
162 158 161 1
163 158 165 1
164 159 160 2
165 159 173 1
166 161 162 1
167 161 163 1
168 161 166 1
169 162 167 1
170 162 168 1
171 162 169 1
172 163 170 1
173 163 171 1
174 163 172 1
175 173 174 1
176 173 182 1
177 174 175 1
178 174 177 1
179 174 183 1
180 175 176 2
181 175 190 1
182 177 178 1
183 178 179 1
184 179 180 1
185 179 181 2
186 177 184 1
187 177 185 1
188 178 186 1
189 178 187 1
190 180 188 1
191 180 189 1
192 190 191 1
193 190 201 1
194 191 192 1
195 191 194 1
196 191 202 1
197 192 193 2
198 192 214 1
199 194 195 1
200 195 196 1
201 196 197 1
202 197 198 1
203 198 199 2
204 198 200 1
205 194 203 1
206 194 204 1
207 195 205 1
208 195 206 1
209 196 207 1
210 196 208 1
211 197 209 1
212 199 210 1
213 199 211 1
214 200 212 1
215 200 213 1
216 214 215 1
217 214 221 1
218 215 216 1
219 215 218 1
220 215 222 1
221 216 217 2
222 216 230 1
223 218 219 1
224 218 220 1
225 218 223 1
226 219 224 1
227 219 225 1
228 219 226 1
229 220 227 1
230 220 228 1
231 220 229 1
232 230 231 1
233 230 238 1
234 231 232 1
235 231 234 1
236 231 239 1
237 232 233 2
238 232 247 1
239 234 235 1
240 235 236 1
241 236 237 1
242 234 240 1
243 234 241 1
244 235 242 1
245 235 243 1
246 237 244 1
247 237 245 1
248 237 246 1
249 247 248 1
250 247 258 1
251 248 249 1
252 248 251 1
253 248 259 1
254 249 250 2
255 251 252 1
256 252 253 1
257 253 254 1
258 254 255 1
259 255 256 2
260 255 257 1
261 251 260 1
262 251 261 1
263 252 262 1
264 252 263 1
265 253 264 1
266 253 265 1
267 254 266 1
268 256 267 1
269 256 268 1
270 257 269 1
271 257 270 1
@<TRIPOS>SUBSTRUCTURE
1	GLU1	1	RESIDUE	1 ****	GLU
2	LEU2	16	RESIDUE	1 ****	LEU
3	PRO3	35	RESIDUE	1 ****	PRO
4	GLU4	49	RESIDUE	1 ****	GLU
5	SER5	64	RESIDUE	1 ****	SER
6	ILE6	75	RESIDUE	1 ****	ILE
7	LEU7	94	RESIDUE	1 ****	LEU
8	ASP8	113	RESIDUE	1 ****	ASP
9	GLU9	125	RESIDUE	1 ****	GLU
10	HIS10	140	RESIDUE	1 ****	HIS
11	VAL11	157	RESIDUE	1 ****	VAL
12	GLN12	173	RESIDUE	1 ****	GLN
13	ARG13	190	RESIDUE	1 ****	ARG
14	VAL14	214	RESIDUE	1 ****	VAL
15	MET15	230	RESIDUE	1 ****	MET
16	ARG16	247	RESIDUE	1 ****	ARG
