@<TRIPOS>MOLECULE
10-8
268 269 16              
SMALL
USER_CHARGES
@<TRIPOS>ATOM
1	   N	1574.522	466.941	-1599.907	N.3	1	GLU1	-0.516	
2	  CA	1575.081	468.290	-1599.907	C.3	1	GLU1	0.040	
3	   C	1576.590	468.250	-1599.907	C.2	1	GLU1	0.537	
4	   O	1577.266	468.949	-1600.675	O.2	1	GLU1	-0.582	
5	  CB	1574.558	469.075	-1598.670	C.3	1	GLU1	0.056	
6	  CG	1575.033	470.560	-1598.559	C.3	1	GLU1	0.014	
7	  CD	1574.609	471.364	-1597.344	C.2	1	GLU1	0.805	
8	 OE1	1573.881	470.862	-1596.466	O.co2	1	GLU1	-0.819	
9	 OE2	1575.039	472.534	-1597.272	O.co2	1	GLU1	-0.819	
10	   H	1575.149	466.062	-1599.907	 H	1	GLU1	0.294	
11	  HA	1574.755	468.808	-1600.827	 H	1	GLU1	0.111	
12	 2HB	1574.847	468.544	-1597.740	 H	1	GLU1	-0.017	
13	 3HB	1573.451	469.065	-1598.657	 H	1	GLU1	-0.017	
14	 2HG	1574.723	471.145	-1599.440	 H	1	GLU1	-0.043	
15	 3HG	1576.133	470.627	-1598.530	 H	1	GLU1	-0.043	
16	   N	1577.195	467.465	-1599.082	N.am	2	ASN2	-0.416	
17	  CA	1578.654	467.426	-1599.082	C.3	2	ASN2	0.014	
18	   C	1579.185	467.070	-1600.450	C.2	2	ASN2	0.597	
19	   O	1580.100	467.701	-1600.979	O.2	2	ASN2	-0.568	
20	  CB	1579.146	466.403	-1598.017	C.3	2	ASN2	-0.204	
21	  CG	1578.683	466.627	-1596.574	C.2	2	ASN2	0.713	
22	 ND2	1579.277	467.542	-1595.856	N.pl3	2	ASN2	-0.919	
23	 OD1	1577.762	465.993	-1596.080	O.2	2	ASN2	-0.593	
24	   H	1576.666	466.885	-1598.445	 H	2	ASN2	0.272	
25	  HA	1579.031	468.436	-1598.836	 H	2	ASN2	0.105	
26	 2HB	1580.250	466.344	-1598.021	 H	2	ASN2	0.080	
27	 3HB	1578.817	465.385	-1598.303	 H	2	ASN2	0.080	
28	1HD2	1578.797	467.715	-1594.969	 H	2	ASN2	0.420	
29	2HD2	1579.979	468.113	-1596.325	 H	2	ASN2	0.420	
30	   N	1578.664	466.075	-1601.084	N.am	3	PRO3	-0.255	
31	  CA	1579.115	465.666	-1602.406	C.3	3	PRO3	-0.027	
32	   C	1578.717	466.689	-1603.483	C.2	3	PRO3	0.590	
33	   O	1579.540	467.073	-1604.314	O.2	3	PRO3	-0.575	
34	  CB	1578.411	464.311	-1602.575	C.3	3	PRO3	-0.007	
35	  CG	1577.128	464.463	-1601.745	C.3	3	PRO3	0.019	
36	  CD	1577.586	465.282	-1600.535	C.3	3	PRO3	0.019	
37	  HA	1580.201	465.546	-1602.420	 H	3	PRO3	0.064	
38	 2HB	1579.034	463.530	-1602.135	 H	3	PRO3	0.025	
39	 3HB	1578.213	464.063	-1603.621	 H	3	PRO3	0.025	
40	 2HG	1576.700	463.501	-1601.454	 H	3	PRO3	0.021	
41	 3HG	1576.390	465.034	-1602.312	 H	3	PRO3	0.021	
42	 2HD	1577.975	464.633	-1599.748	 H	3	PRO3	0.039	
43	 3HD	1576.789	465.918	-1600.142	 H	3	PRO3	0.039	
44	   N	1577.512	467.149	-1603.515	N.am	4	GLU4	-0.516	
45	  CA	1577.152	468.120	-1604.545	C.3	4	GLU4	0.040	
46	   C	1578.051	469.332	-1604.484	C.2	4	GLU4	0.537	
47	   O	1578.578	469.811	-1605.498	O.2	4	GLU4	-0.582	
48	  CB	1575.664	468.539	-1604.374	C.3	4	GLU4	0.056	
49	  CG	1575.116	469.543	-1605.440	C.3	4	GLU4	0.014	
50	  CD	1573.689	470.039	-1605.296	C.2	4	GLU4	0.805	
51	 OE1	1572.963	469.641	-1604.365	O.co2	4	GLU4	-0.819	
52	 OE2	1573.299	470.869	-1606.144	O.co2	4	GLU4	-0.819	
53	   H	1576.828	466.843	-1602.838	 H	4	GLU4	0.294	
54	  HA	1577.283	467.650	-1605.536	 H	4	GLU4	0.111	
55	 2HB	1575.512	468.979	-1603.367	 H	4	GLU4	-0.017	
56	 3HB	1575.016	467.641	-1604.380	 H	4	GLU4	-0.017	
57	 2HG	1575.197	469.128	-1606.457	 H	4	GLU4	-0.043	
58	 3HG	1575.704	470.475	-1605.451	 H	4	GLU4	-0.043	
59	   N	1578.279	469.884	-1603.340	N.am	5	SER5	-0.416	
60	  CA	1579.148	471.056	-1603.282	C.3	5	SER5	-0.025	
61	   C	1580.507	470.750	-1603.868	C.2	5	SER5	0.597	
62	   O	1581.054	471.504	-1604.673	O.2	5	SER5	-0.568	
63	  CB	1579.260	471.588	-1601.831	C.3	5	SER5	0.212	
64	  OG	1579.992	470.708	-1600.971	O.3	5	SER5	-0.655	
65	   H	1577.862	469.513	-1602.499	 H	5	SER5	0.272	
66	  HA	1578.699	471.846	-1603.911	 H	5	SER5	0.084	
67	 2HB	1578.260	471.781	-1601.398	 H	5	SER5	0.035	
68	 3HB	1579.765	472.574	-1601.834	 H	5	SER5	0.035	
69	  HG	1579.503	469.883	-1600.920	 H	5	SER5	0.428	
70	   N	1581.112	469.667	-1603.514	N.am	6	ILE6	-0.416	
71	  CA	1582.425	469.373	-1604.080	C.3	6	ILE6	-0.060	
72	   C	1582.368	469.335	-1605.588	C.2	6	ILE6	0.597	
73	   O	1583.202	469.923	-1606.292	O.2	6	ILE6	-0.568	
74	  CB	1583.025	468.036	-1603.480	C.3	6	ILE6	0.130	
75	 CG1	1583.044	467.974	-1601.919	C.3	6	ILE6	-0.043	
76	 CG2	1584.466	467.735	-1603.996	C.3	6	ILE6	-0.320	
77	 CD1	1583.314	466.585	-1601.305	C.3	6	ILE6	-0.066	
78	   H	1580.684	469.033	-1602.855	 H	6	ILE6	0.272	
79	  HA	1583.099	470.207	-1603.812	 H	6	ILE6	0.087	
80	  HB	1582.367	467.210	-1603.825	 H	6	ILE6	0.019	
81	2HG1	1582.062	468.294	-1601.524	 H	6	ILE6	0.024	
82	3HG1	1583.760	468.716	-1601.515	 H	6	ILE6	0.024	
83	1HG2	1584.525	467.641	-1605.094	 H	6	ILE6	0.088	
84	2HG2	1585.188	468.517	-1603.694	 H	6	ILE6	0.088	
85	3HG2	1584.856	466.773	-1603.617	 H	6	ILE6	0.088	
86	1HD1	1582.586	465.831	-1601.659	 H	6	ILE6	0.019	
87	2HD1	1584.325	466.206	-1601.541	 H	6	ILE6	0.019	
88	3HD1	1583.238	466.615	-1600.202	 H	6	ILE6	0.019	
89	   N	1581.422	468.672	-1606.162	N.am	7	LEU7	-0.416	
90	  CA	1581.367	468.636	-1607.620	C.3	7	LEU7	-0.052	
91	   C	1581.294	470.031	-1608.192	C.2	7	LEU7	0.597	
92	   O	1582.015	470.394	-1609.134	O.2	7	LEU7	-0.568	
93	  CB	1580.164	467.776	-1608.101	C.3	7	LEU7	-0.110	
94	  CG	1580.091	466.296	-1607.634	C.3	7	LEU7	0.353	
95	 CD1	1578.901	465.590	-1608.300	C.3	7	LEU7	-0.412	
96	 CD2	1581.385	465.517	-1607.926	C.3	7	LEU7	-0.412	
97	   H	1580.730	468.185	-1605.610	 H	7	LEU7	0.272	
98	  HA	1582.308	468.196	-1607.995	 H	7	LEU7	0.092	
99	 2HB	1580.140	467.792	-1609.208	 H	7	LEU7	0.046	
100	 3HB	1579.224	468.278	-1607.796	 H	7	LEU7	0.046	
101	  HG	1579.921	466.288	-1606.537	 H	7	LEU7	-0.036	
102	1HD1	1577.944	466.100	-1608.077	 H	7	LEU7	0.100	
103	2HD1	1579.000	465.550	-1609.401	 H	7	LEU7	0.100	
104	3HD1	1578.794	464.549	-1607.944	 H	7	LEU7	0.100	
105	1HD2	1581.660	465.548	-1608.996	 H	7	LEU7	0.100	
106	2HD2	1582.238	465.929	-1607.355	 H	7	LEU7	0.100	
107	3HD2	1581.303	464.455	-1607.630	 H	7	LEU7	0.100	
108	   N	1580.457	470.872	-1607.686	N.am	8	ASP8	-0.516	
109	  CA	1580.386	472.222	-1608.239	C.3	8	ASP8	0.038	
110	   C	1581.733	472.901	-1608.181	C.2	8	ASP8	0.537	
111	   O	1582.206	473.507	-1609.156	O.2	8	ASP8	-0.582	
112	  CB	1579.308	473.060	-1607.497	C.3	8	ASP8	-0.030	
113	  CG	1579.089	474.481	-1608.037	C.2	8	ASP8	0.799	
114	 OD1	1579.153	474.681	-1609.267	O.co2	8	ASP8	-0.801	
115	 OD2	1578.897	475.407	-1607.221	O.co2	8	ASP8	-0.801	
116	   H	1579.859	470.601	-1606.918	 H	8	ASP8	0.294	
117	  HA	1580.104	472.144	-1609.306	 H	8	ASP8	0.088	
118	 2HB	1579.566	473.143	-1606.425	 H	8	ASP8	-0.012	
119	 3HB	1578.329	472.555	-1607.530	 H	8	ASP8	-0.012	
120	   N	1582.413	472.851	-1607.086	N.am	9	GLU9	-0.516	
121	  CA	1583.715	473.509	-1607.031	C.3	9	GLU9	0.040	
122	   C	1584.634	472.982	-1608.107	C.2	9	GLU9	0.537	
123	   O	1585.297	473.737	-1608.832	O.2	9	GLU9	-0.582	
124	  CB	1584.349	473.301	-1605.625	C.3	9	GLU9	0.056	
125	  CG	1585.732	473.993	-1605.396	C.3	9	GLU9	0.014	
126	  CD	1586.434	473.780	-1604.068	C.2	9	GLU9	0.805	
127	 OE1	1585.912	473.088	-1603.172	O.co2	9	GLU9	-0.819	
128	 OE2	1587.553	474.317	-1603.936	O.co2	9	GLU9	-0.819	
129	   H	1582.050	472.365	-1606.279	 H	9	GLU9	0.294	
130	  HA	1583.573	474.591	-1607.206	 H	9	GLU9	0.111	
131	 2HB	1584.462	472.216	-1605.423	 H	9	GLU9	-0.017	
132	 3HB	1583.652	473.654	-1604.841	 H	9	GLU9	-0.017	
133	 2HG	1585.660	475.084	-1605.535	 H	9	GLU9	-0.043	
134	 3HG	1586.479	473.648	-1606.130	 H	9	GLU9	-0.043	
135	   N	1584.730	471.707	-1608.277	N.am	10	PHE10	-0.416	
136	  CA	1585.618	471.197	-1609.318	C.3	10	PHE10	-0.002	
137	   C	1585.250	471.763	-1610.669	C.2	10	PHE10	0.597	
138	   O	1586.119	472.237	-1611.453	O.2	10	PHE10	-0.568	
139	  CB	1585.528	469.642	-1609.383	C.3	10	PHE10	-0.034	
140	  CG	1585.868	468.882	-1608.091	C.2	10	PHE10	0.012	
141	 CD1	1584.859	468.624	-1607.155	C.2	10	PHE10	-0.126	
142	 CD2	1587.182	468.500	-1607.810	C.2	10	PHE10	-0.126	
143	 CE1	1585.166	468.010	-1605.945	C.2	10	PHE10	-0.170	
144	 CE2	1587.485	467.875	-1606.603	C.2	10	PHE10	-0.170	
145	  CZ	1586.478	467.633	-1605.671	C.2	10	PHE10	-0.107	
146	   H	1584.199	471.071	-1607.699	 H	10	PHE10	0.272	
147	  HA	1586.655	471.505	-1609.088	 H	10	PHE10	0.098	
148	 2HB	1586.187	469.268	-1610.191	 H	10	PHE10	0.030	
149	 3HB	1584.514	469.341	-1609.718	 H	10	PHE10	0.030	
150	 1HD	1583.844	468.943	-1607.348	 H	10	PHE10	0.133	
151	 2HD	1587.972	468.704	-1608.519	 H	10	PHE10	0.133	
152	 1HE	1584.385	467.843	-1605.217	 H	10	PHE10	0.143	
153	 2HE	1588.504	467.589	-1606.387	 H	10	PHE10	0.143	
154	  HZ	1586.714	467.161	-1604.729	 H	10	PHE10	0.130	
155	   N	1584.013	471.762	-1611.032	N.am	11	VAL11	-0.416	
156	  CA	1583.658	472.309	-1612.339	C.3	11	VAL11	-0.087	
157	   C	1584.122	473.740	-1612.469	C.2	11	VAL11	0.597	
158	   O	1584.724	474.146	-1613.472	O.2	11	VAL11	-0.568	
159	  CB	1582.097	472.203	-1612.559	C.3	11	VAL11	0.299	
160	 CG1	1581.529	472.908	-1613.821	C.3	11	VAL11	-0.319	
161	 CG2	1581.572	470.749	-1612.634	C.3	11	VAL11	-0.319	
162	   H	1583.300	471.389	-1610.422	 H	11	VAL11	0.272	
163	  HA	1584.178	471.728	-1613.121	 H	11	VAL11	0.097	
164	  HB	1581.609	472.682	-1611.683	 H	11	VAL11	-0.030	
165	1HG1	1581.968	472.518	-1614.758	 H	11	VAL11	0.079	
166	2HG1	1580.430	472.801	-1613.903	 H	11	VAL11	0.079	
167	3HG1	1581.707	474.001	-1613.810	 H	11	VAL11	0.079	
168	1HG2	1581.862	470.161	-1611.743	 H	11	VAL11	0.079	
169	2HG2	1580.467	470.712	-1612.677	 H	11	VAL11	0.079	
170	3HG2	1581.955	470.209	-1613.521	 H	11	VAL11	0.079	
171	   N	1583.885	474.565	-1611.506	N.am	12	GLN12	-0.416	
172	  CA	1584.333	475.948	-1611.632	C.3	12	GLN12	-0.003	
173	   C	1585.823	476.016	-1611.869	C.2	12	GLN12	0.597	
174	   O	1586.311	476.725	-1612.747	O.2	12	GLN12	-0.568	
175	  CB	1583.942	476.714	-1610.349	C.3	12	GLN12	-0.004	
176	  CG	1584.302	478.236	-1610.316	C.3	12	GLN12	-0.064	
177	  CD	1583.999	479.048	-1609.050	C.2	12	GLN12	0.695	
178	 NE2	1583.432	478.471	-1608.022	N.pl3	12	GLN12	-0.941	
179	 OE1	1584.301	480.229	-1608.972	O.2	12	GLN12	-0.609	
180	   H	1583.396	474.258	-1610.678	 H	12	GLN12	0.272	
181	  HA	1583.834	476.405	-1612.507	 H	12	GLN12	0.085	
182	 2HB	1584.418	476.213	-1609.480	 H	12	GLN12	0.017	
183	 3HB	1582.852	476.607	-1610.186	 H	12	GLN12	0.017	
184	 2HG	1583.825	478.758	-1611.166	 H	12	GLN12	0.035	
185	 3HG	1585.386	478.378	-1610.481	 H	12	GLN12	0.035	
186	1HE2	1583.324	479.065	-1607.198	 H	12	GLN12	0.425	
187	2HE2	1583.268	477.467	-1608.127	 H	12	GLN12	0.425	
188	   N	1586.608	475.308	-1611.129	N.am	13	ARG13	-0.348	
189	  CA	1588.048	475.374	-1611.359	C.3	13	ARG13	-0.264	
190	   C	1588.385	475.004	-1612.784	C.2	13	ARG13	0.734	
191	   O	1589.154	475.676	-1613.467	O.2	13	ARG13	-0.589	
192	  CB	1588.761	474.435	-1610.345	C.3	13	ARG13	-0.001	
193	  CG	1590.306	474.588	-1610.263	C.3	13	ARG13	0.039	
194	  CD	1590.932	473.599	-1609.266	C.3	13	ARG13	0.049	
195	  NE	1592.410	473.806	-1609.215	N.pl3	13	ARG13	-0.530	
196	  CZ	1593.257	473.114	-1608.460	C.cat	13	ARG13	0.808	
197	 NH1	1592.892	472.149	-1607.664	N.pl3	13	ARG13	-0.863	
198	 NH2	1594.517	473.413	-1608.516	N.pl3	13	ARG13	-0.863	
199	   H	1586.231	474.718	-1610.401	 H	13	ARG13	0.275	
200	  HA	1588.372	476.420	-1611.199	 H	13	ARG13	0.156	
201	 2HB	1588.495	473.384	-1610.585	 H	13	ARG13	0.033	
202	 3HB	1588.335	474.600	-1609.335	 H	13	ARG13	0.033	
203	 2HG	1590.554	475.632	-1609.983	 H	13	ARG13	0.029	
204	 3HG	1590.757	474.432	-1611.265	 H	13	ARG13	0.029	
205	 2HD	1590.688	472.559	-1609.576	 H	13	ARG13	0.069	
206	 3HD	1590.476	473.744	-1608.264	 H	13	ARG13	0.069	
207	  HE	1592.861	474.529	-1609.785	 H	13	ARG13	0.346	
208	1HH1	1591.887	471.963	-1607.667	 H	13	ARG13	0.448	
209	2HH1	1593.605	471.665	-1607.115	 H	13	ARG13	0.448	
210	1HH2	1594.785	474.171	-1609.146	 H	13	ARG13	0.448	
211	2HH2	1595.152	472.871	-1607.927	 H	13	ARG13	0.448	
212	   N	1587.849	473.950	-1613.299	N.am	14	VAL14	-0.416	
213	  CA	1588.175	473.592	-1614.677	C.3	14	VAL14	-0.087	
214	   C	1587.845	474.723	-1615.622	C.2	14	VAL14	0.597	
215	   O	1588.639	475.105	-1616.491	O.2	14	VAL14	-0.568	
216	  CB	1587.403	472.275	-1615.086	C.3	14	VAL14	0.299	
217	 CG1	1587.493	471.858	-1616.579	C.3	14	VAL14	-0.319	
218	 CG2	1587.834	471.022	-1614.286	C.3	14	VAL14	-0.319	
219	   H	1587.214	473.381	-1612.758	 H	14	VAL14	0.272	
220	  HA	1589.263	473.415	-1614.751	 H	14	VAL14	0.097	
221	  HB	1586.326	472.446	-1614.870	 H	14	VAL14	-0.030	
222	1HG1	1588.534	471.682	-1616.908	 H	14	VAL14	0.079	
223	2HG1	1586.920	470.935	-1616.793	 H	14	VAL14	0.079	
224	3HG1	1587.064	472.621	-1617.257	 H	14	VAL14	0.079	
225	1HG2	1587.747	471.180	-1613.196	 H	14	VAL14	0.079	
226	2HG2	1587.199	470.146	-1614.520	 H	14	VAL14	0.079	
227	3HG2	1588.882	470.733	-1614.492	 H	14	VAL14	0.079	
228	   N	1586.701	475.309	-1615.520	N.am	15	MET15	-0.416	
229	  CA	1586.381	476.402	-1616.433	C.3	15	MET15	-0.024	
230	   C	1587.411	477.502	-1616.344	C.2	15	MET15	0.597	
231	   O	1587.915	478.013	-1617.356	O.2	15	MET15	-0.568	
232	  CB	1584.959	476.948	-1616.125	C.3	15	MET15	0.034	
233	  CG	1583.797	475.950	-1616.318	C.3	15	MET15	0.002	
234	  SD	1582.224	476.816	-1616.204	S.3	15	MET15	-0.274	
235	  CE	1581.142	475.387	-1616.069	C.3	15	MET15	-0.054	
236	   H	1586.035	475.015	-1614.819	 H	15	MET15	0.272	
237	  HA	1586.407	476.016	-1617.469	 H	15	MET15	0.088	
238	 2HB	1584.758	477.827	-1616.766	 H	15	MET15	0.024	
239	 3HB	1584.923	477.339	-1615.088	 H	15	MET15	0.024	
240	 2HG	1583.840	475.164	-1615.541	 H	15	MET15	0.044	
241	 3HG	1583.861	475.436	-1617.294	 H	15	MET15	0.044	
242	 1HE	1581.286	474.699	-1616.922	 H	15	MET15	0.068	
243	 2HE	1581.351	474.833	-1615.137	 H	15	MET15	0.068	
244	 3HE	1580.084	475.702	-1616.053	 H	15	MET15	0.068	
245	   N	1587.779	477.922	-1615.181	N.am	16	ARG16	-0.348	
246	  CA	1588.776	478.985	-1615.096	C.3	16	ARG16	-0.264	
247	   C	1590.047	478.593	-1615.812	C.2	16	ARG16	0.734	
248	   O	1590.161	477.517	-1616.394	O.2	16	ARG16	-0.589	
249	  CB	1589.044	479.302	-1613.597	C.3	16	ARG16	-0.001	
250	  CG	1589.870	480.590	-1613.323	C.3	16	ARG16	0.039	
251	  CD	1590.119	480.808	-1611.821	C.3	16	ARG16	0.049	
252	  NE	1590.895	482.067	-1611.619	N.pl3	16	ARG16	-0.530	
253	  CZ	1591.286	482.548	-1610.443	C.cat	16	ARG16	0.808	
254	 NH1	1591.037	481.963	-1609.305	N.pl3	16	ARG16	-0.863	
255	 NH2	1591.950	483.661	-1610.423	N.pl3	16	ARG16	-0.863	
256	   H	1587.384	477.521	-1614.343	 H	16	ARG16	0.275	
257	  HA	1588.367	479.878	-1615.605	 H	16	ARG16	0.156	
258	 2HB	1589.541	478.425	-1613.132	 H	16	ARG16	0.033	
259	 3HB	1588.075	479.382	-1613.064	 H	16	ARG16	0.033	
260	 2HG	1589.340	481.462	-1613.760	 H	16	ARG16	0.029	
261	 3HG	1590.844	480.538	-1613.851	 H	16	ARG16	0.029	
262	 2HD	1590.667	479.933	-1611.408	 H	16	ARG16	0.069	
263	 3HD	1589.146	480.851	-1611.286	 H	16	ARG16	0.069	
264	  HE	1591.174	482.649	-1612.415	 H	16	ARG16	0.346	
265	1HH1	1590.512	481.090	-1609.390	 H	16	ARG16	0.448	
266	2HH1	1591.371	482.398	-1608.443	 H	16	ARG16	0.448	
267	1HH2	1592.136	484.105	-1611.324	 H	16	ARG16	0.448	
268	2HH2	1592.239	484.015	-1609.510	 H	16	ARG16	0.448	
@<TRIPOS>BOND
1 1 2 1
2 1 10 1
3 2 3 1
4 2 5 1
5 2 11 1
6 3 4 2
7 3 16 1
8 5 6 1
9 6 7 1
10 7 8 2
11 7 9 1
12 5 12 1
13 5 13 1
14 6 14 1
15 6 15 1
16 16 17 1
17 16 24 1
18 17 18 1
19 17 20 1
20 17 25 1
21 18 19 2
22 18 30 1
23 20 21 1
24 21 22 1
25 21 23 2
26 20 26 1
27 20 27 1
28 22 28 1
29 22 29 1
30 30 31 1
31 30 36 1
32 31 32 1
33 31 34 1
34 31 37 1
35 32 33 2
36 32 44 1
37 34 35 1
38 35 36 1
39 34 38 1
40 34 39 1
41 35 40 1
42 35 41 1
43 36 42 1
44 36 43 1
45 44 45 1
46 44 53 1
47 45 46 1
48 45 48 1
49 45 54 1
50 46 47 2
51 46 59 1
52 48 49 1
53 49 50 1
54 50 51 2
55 50 52 1
56 48 55 1
57 48 56 1
58 49 57 1
59 49 58 1
60 59 60 1
61 59 65 1
62 60 61 1
63 60 63 1
64 60 66 1
65 61 62 2
66 61 70 1
67 63 64 1
68 63 67 1
69 63 68 1
70 64 69 1
71 70 71 1
72 70 78 1
73 71 72 1
74 71 74 1
75 71 79 1
76 72 73 2
77 72 89 1
78 74 75 1
79 74 76 1
80 75 77 1
81 74 80 1
82 75 81 1
83 75 82 1
84 76 83 1
85 76 84 1
86 76 85 1
87 77 86 1
88 77 87 1
89 77 88 1
90 89 90 1
91 89 97 1
92 90 91 1
93 90 93 1
94 90 98 1
95 91 92 2
96 91 108 1
97 93 94 1
98 94 95 1
99 94 96 1
100 93 99 1
101 93 100 1
102 94 101 1
103 95 102 1
104 95 103 1
105 95 104 1
106 96 105 1
107 96 106 1
108 96 107 1
109 108 109 1
110 108 116 1
111 109 110 1
112 109 112 1
113 109 117 1
114 110 111 2
115 110 120 1
116 112 113 1
117 113 114 2
118 113 115 1
119 112 118 1
120 112 119 1
121 120 121 1
122 120 129 1
123 121 122 1
124 121 124 1
125 121 130 1
126 122 123 2
127 122 135 1
128 124 125 1
129 125 126 1
130 126 127 2
131 126 128 1
132 124 131 1
133 124 132 1
134 125 133 1
135 125 134 1
136 135 136 1
137 135 146 1
138 136 137 1
139 136 139 1
140 136 147 1
141 137 138 2
142 137 155 1
143 139 140 1
144 140 141 2
145 140 142 1
146 142 144 2
147 141 143 1
148 144 145 1
149 143 145 2
150 139 148 1
151 139 149 1
152 141 150 1
153 142 151 1
154 143 152 1
155 144 153 1
156 145 154 1
157 155 156 1
158 155 162 1
159 156 157 1
160 156 159 1
161 156 163 1
162 157 158 2
163 157 171 1
164 159 160 1
165 159 161 1
166 159 164 1
167 160 165 1
168 160 166 1
169 160 167 1
170 161 168 1
171 161 169 1
172 161 170 1
173 171 172 1
174 171 180 1
175 172 173 1
176 172 175 1
177 172 181 1
178 173 174 2
179 173 188 1
180 175 176 1
181 176 177 1
182 177 178 1
183 177 179 2
184 175 182 1
185 175 183 1
186 176 184 1
187 176 185 1
188 178 186 1
189 178 187 1
190 188 189 1
191 188 199 1
192 189 190 1
193 189 192 1
194 189 200 1
195 190 191 2
196 190 212 1
197 192 193 1
198 193 194 1
199 194 195 1
200 195 196 1
201 196 197 2
202 196 198 1
203 192 201 1
204 192 202 1
205 193 203 1
206 193 204 1
207 194 205 1
208 194 206 1
209 195 207 1
210 197 208 1
211 197 209 1
212 198 210 1
213 198 211 1
214 212 213 1
215 212 219 1
216 213 214 1
217 213 216 1
218 213 220 1
219 214 215 2
220 214 228 1
221 216 217 1
222 216 218 1
223 216 221 1
224 217 222 1
225 217 223 1
226 217 224 1
227 218 225 1
228 218 226 1
229 218 227 1
230 228 229 1
231 228 236 1
232 229 230 1
233 229 232 1
234 229 237 1
235 230 231 2
236 230 245 1
237 232 233 1
238 233 234 1
239 234 235 1
240 232 238 1
241 232 239 1
242 233 240 1
243 233 241 1
244 235 242 1
245 235 243 1
246 235 244 1
247 245 246 1
248 245 256 1
249 246 247 1
250 246 249 1
251 246 257 1
252 247 248 2
253 249 250 1
254 250 251 1
255 251 252 1
256 252 253 1
257 253 254 2
258 253 255 1
259 249 258 1
260 249 259 1
261 250 260 1
262 250 261 1
263 251 262 1
264 251 263 1
265 252 264 1
266 254 265 1
267 254 266 1
268 255 267 1
269 255 268 1
@<TRIPOS>SUBSTRUCTURE
1	GLU1	1	RESIDUE	1 ****	GLU
2	ASN2	16	RESIDUE	1 ****	ASN
3	PRO3	30	RESIDUE	1 ****	PRO
4	GLU4	44	RESIDUE	1 ****	GLU
5	SER5	59	RESIDUE	1 ****	SER
6	ILE6	70	RESIDUE	1 ****	ILE
7	LEU7	89	RESIDUE	1 ****	LEU
8	ASP8	108	RESIDUE	1 ****	ASP
9	GLU9	120	RESIDUE	1 ****	GLU
10	PHE10	135	RESIDUE	1 ****	PHE
11	VAL11	155	RESIDUE	1 ****	VAL
12	GLN12	171	RESIDUE	1 ****	GLN
13	ARG13	188	RESIDUE	1 ****	ARG
14	VAL14	212	RESIDUE	1 ****	VAL
15	MET15	228	RESIDUE	1 ****	MET
16	ARG16	245	RESIDUE	1 ****	ARG
