@<TRIPOS>MOLECULE
6-7
265 266 16              
SMALL
USER_CHARGES
@<TRIPOS>ATOM
1	   N	909.819	247.032	-879.435	N.3	1	GLU1	-0.516	
2	  CA	910.378	248.381	-879.435	C.3	1	GLU1	0.040	
3	   C	911.887	248.341	-879.435	C.2	1	GLU1	0.537	
4	   O	912.563	249.040	-880.203	O.2	1	GLU1	-0.582	
5	  CB	909.855	249.166	-878.198	C.3	1	GLU1	0.056	
6	  CG	910.330	250.651	-878.087	C.3	1	GLU1	0.014	
7	  CD	909.906	251.455	-876.872	C.2	1	GLU1	0.805	
8	 OE1	909.178	250.953	-875.994	O.co2	1	GLU1	-0.819	
9	 OE2	910.336	252.625	-876.800	O.co2	1	GLU1	-0.819	
10	   H	910.446	246.153	-879.435	 H	1	GLU1	0.294	
11	  HA	910.052	248.899	-880.355	 H	1	GLU1	0.111	
12	 2HB	910.144	248.635	-877.268	 H	1	GLU1	-0.017	
13	 3HB	908.748	249.156	-878.185	 H	1	GLU1	-0.017	
14	 2HG	910.020	251.236	-878.968	 H	1	GLU1	-0.043	
15	 3HG	911.430	250.718	-878.058	 H	1	GLU1	-0.043	
16	   N	912.492	247.555	-878.610	N.am	2	ASN2	-0.416	
17	  CA	913.951	247.517	-878.610	C.3	2	ASN2	0.014	
18	   C	914.482	247.161	-879.978	C.2	2	ASN2	0.597	
19	   O	915.397	247.792	-880.507	O.2	2	ASN2	-0.568	
20	  CB	914.443	246.494	-877.545	C.3	2	ASN2	-0.204	
21	  CG	913.980	246.718	-876.102	C.2	2	ASN2	0.713	
22	 ND2	914.574	247.633	-875.384	N.pl3	2	ASN2	-0.919	
23	 OD1	913.060	246.084	-875.608	O.2	2	ASN2	-0.593	
24	   H	911.964	246.976	-877.973	 H	2	ASN2	0.272	
25	  HA	914.328	248.527	-878.364	 H	2	ASN2	0.105	
26	 2HB	915.548	246.435	-877.549	 H	2	ASN2	0.080	
27	 3HB	914.114	245.476	-877.831	 H	2	ASN2	0.080	
28	1HD2	914.094	247.806	-874.497	 H	2	ASN2	0.420	
29	2HD2	915.276	248.204	-875.853	 H	2	ASN2	0.420	
30	   N	913.961	246.166	-880.612	N.am	3	PRO3	-0.255	
31	  CA	914.413	245.757	-881.934	C.3	3	PRO3	-0.027	
32	   C	914.015	246.780	-883.011	C.2	3	PRO3	0.590	
33	   O	914.838	247.164	-883.842	O.2	3	PRO3	-0.575	
34	  CB	913.709	244.402	-882.103	C.3	3	PRO3	-0.007	
35	  CG	912.426	244.554	-881.273	C.3	3	PRO3	0.019	
36	  CD	912.883	245.373	-880.063	C.3	3	PRO3	0.019	
37	  HA	915.499	245.637	-881.948	 H	3	PRO3	0.064	
38	 2HB	914.332	243.621	-881.663	 H	3	PRO3	0.025	
39	 3HB	913.511	244.154	-883.149	 H	3	PRO3	0.025	
40	 2HG	911.998	243.592	-880.982	 H	3	PRO3	0.021	
41	 3HG	911.688	245.125	-881.841	 H	3	PRO3	0.021	
42	 2HD	913.272	244.723	-879.276	 H	3	PRO3	0.039	
43	 3HD	912.086	246.009	-879.670	 H	3	PRO3	0.039	
44	   N	912.810	247.240	-883.043	N.am	4	GLU4	-0.516	
45	  CA	912.450	248.211	-884.073	C.3	4	GLU4	0.040	
46	   C	913.349	249.423	-884.012	C.2	4	GLU4	0.537	
47	   O	913.875	249.902	-885.026	O.2	4	GLU4	-0.582	
48	  CB	910.962	248.630	-883.903	C.3	4	GLU4	0.056	
49	  CG	910.413	249.633	-884.968	C.3	4	GLU4	0.014	
50	  CD	908.987	250.130	-884.825	C.2	4	GLU4	0.805	
51	 OE1	908.260	249.731	-883.894	O.co2	4	GLU4	-0.819	
52	 OE2	908.597	250.959	-885.673	O.co2	4	GLU4	-0.819	
53	   H	912.126	246.934	-882.367	 H	4	GLU4	0.294	
54	  HA	912.581	247.741	-885.064	 H	4	GLU4	0.111	
55	 2HB	910.809	249.070	-882.896	 H	4	GLU4	-0.017	
56	 3HB	910.314	247.732	-883.909	 H	4	GLU4	-0.017	
57	 2HG	910.495	249.218	-885.986	 H	4	GLU4	-0.043	
58	 3HG	911.001	250.566	-884.979	 H	4	GLU4	-0.043	
59	   N	913.576	249.975	-882.869	N.am	5	SER5	-0.416	
60	  CA	914.445	251.147	-882.810	C.3	5	SER5	-0.025	
61	   C	915.804	250.841	-883.396	C.2	5	SER5	0.597	
62	   O	916.352	251.595	-884.201	O.2	5	SER5	-0.568	
63	  CB	914.557	251.679	-881.360	C.3	5	SER5	0.212	
64	  OG	915.289	250.800	-880.499	O.3	5	SER5	-0.655	
65	   H	913.159	249.604	-882.027	 H	5	SER5	0.272	
66	  HA	913.996	251.937	-883.439	 H	5	SER5	0.084	
67	 2HB	913.557	251.873	-880.926	 H	5	SER5	0.035	
68	 3HB	915.062	252.665	-881.362	 H	5	SER5	0.035	
69	  HG	914.800	249.975	-880.448	 H	5	SER5	0.428	
70	   N	916.409	249.759	-883.041	N.am	6	LEU6	-0.416	
71	  CA	917.722	249.464	-883.608	C.3	6	LEU6	-0.052	
72	   C	917.664	249.426	-885.116	C.2	6	LEU6	0.597	
73	   O	918.498	250.014	-885.821	O.2	6	LEU6	-0.568	
74	  CB	918.274	248.126	-883.040	C.3	6	LEU6	-0.110	
75	  CG	918.434	247.996	-881.501	C.3	6	LEU6	0.353	
76	 CD1	919.093	246.654	-881.149	C.3	6	LEU6	-0.412	
77	 CD2	919.248	249.148	-880.889	C.3	6	LEU6	-0.412	
78	   H	915.981	249.124	-882.382	 H	6	LEU6	0.272	
79	  HA	918.409	250.288	-883.344	 H	6	LEU6	0.092	
80	 2HB	919.257	247.924	-883.509	 H	6	LEU6	0.046	
81	 3HB	917.626	247.298	-883.389	 H	6	LEU6	0.046	
82	  HG	917.421	248.007	-881.046	 H	6	LEU6	-0.036	
83	1HD1	918.512	245.796	-881.538	 H	6	LEU6	0.100	
84	2HD1	920.116	246.569	-881.563	 H	6	LEU6	0.100	
85	3HD1	919.171	246.512	-880.056	 H	6	LEU6	0.100	
86	1HD2	920.247	249.247	-881.350	 H	6	LEU6	0.100	
87	2HD2	918.729	250.117	-881.016	 H	6	LEU6	0.100	
88	3HD2	919.392	249.020	-879.800	 H	6	LEU6	0.100	
89	   N	916.718	248.763	-885.688	N.am	7	LEU7	-0.416	
90	  CA	916.661	248.726	-887.147	C.3	7	LEU7	-0.052	
91	   C	916.588	250.122	-887.720	C.2	7	LEU7	0.597	
92	   O	917.308	250.484	-888.662	O.2	7	LEU7	-0.568	
93	  CB	915.458	247.866	-887.626	C.3	7	LEU7	-0.110	
94	  CG	915.386	246.386	-887.159	C.3	7	LEU7	0.353	
95	 CD1	914.196	245.680	-887.824	C.3	7	LEU7	-0.412	
96	 CD2	916.679	245.607	-887.452	C.3	7	LEU7	-0.412	
97	   H	916.026	248.275	-885.136	 H	7	LEU7	0.272	
98	  HA	917.603	248.286	-887.522	 H	7	LEU7	0.092	
99	 2HB	915.434	247.882	-888.733	 H	7	LEU7	0.046	
100	 3HB	914.518	248.368	-887.321	 H	7	LEU7	0.046	
101	  HG	915.217	246.379	-886.062	 H	7	LEU7	-0.036	
102	1HD1	913.239	246.189	-887.600	 H	7	LEU7	0.100	
103	2HD1	914.294	245.640	-888.925	 H	7	LEU7	0.100	
104	3HD1	914.089	244.639	-887.467	 H	7	LEU7	0.100	
105	1HD2	916.953	245.638	-888.522	 H	7	LEU7	0.100	
106	2HD2	917.533	246.019	-886.882	 H	7	LEU7	0.100	
107	3HD2	916.598	244.545	-887.155	 H	7	LEU7	0.100	
108	   N	915.751	250.962	-887.213	N.am	8	ASP8	-0.516	
109	  CA	915.680	252.312	-887.766	C.3	8	ASP8	0.038	
110	   C	917.027	252.992	-887.710	C.2	8	ASP8	0.537	
111	   O	917.498	253.597	-888.685	O.2	8	ASP8	-0.582	
112	  CB	914.603	253.150	-887.023	C.3	8	ASP8	-0.030	
113	  CG	914.383	254.571	-887.564	C.2	8	ASP8	0.799	
114	 OD1	914.446	254.770	-888.795	O.co2	8	ASP8	-0.801	
115	 OD2	914.191	255.497	-886.748	O.co2	8	ASP8	-0.801	
116	   H	915.154	250.691	-886.444	 H	8	ASP8	0.294	
117	  HA	915.396	252.233	-888.833	 H	8	ASP8	0.088	
118	 2HB	914.861	253.234	-885.952	 H	8	ASP8	-0.012	
119	 3HB	913.624	252.645	-887.055	 H	8	ASP8	-0.012	
120	   N	917.708	252.942	-886.616	N.am	9	GLU9	-0.516	
121	  CA	919.010	253.600	-886.562	C.3	9	GLU9	0.040	
122	   C	919.927	253.072	-887.638	C.2	9	GLU9	0.537	
123	   O	920.591	253.827	-888.364	O.2	9	GLU9	-0.582	
124	  CB	919.645	253.392	-885.157	C.3	9	GLU9	0.056	
125	  CG	921.028	254.085	-884.929	C.3	9	GLU9	0.014	
126	  CD	921.731	253.872	-883.601	C.2	9	GLU9	0.805	
127	 OE1	921.210	253.180	-882.704	O.co2	9	GLU9	-0.819	
128	 OE2	922.850	254.410	-883.470	O.co2	9	GLU9	-0.819	
129	   H	917.345	252.455	-885.808	 H	9	GLU9	0.294	
130	  HA	918.868	254.681	-886.737	 H	9	GLU9	0.111	
131	 2HB	919.758	252.308	-884.954	 H	9	GLU9	-0.017	
132	 3HB	918.949	253.745	-884.372	 H	9	GLU9	-0.017	
133	 2HG	920.955	255.175	-885.068	 H	9	GLU9	-0.043	
134	 3HG	921.774	253.740	-885.663	 H	9	GLU9	-0.043	
135	   N	920.024	251.797	-887.808	N.am	10	HIS10	-0.416	
136	  CA	920.911	251.286	-888.849	C.3	10	HIS10	-0.058	
137	   C	920.543	251.851	-890.200	C.2	10	HIS10	0.597	
138	   O	921.395	252.316	-890.972	O.2	10	HIS10	-0.568	
139	  CB	920.747	249.757	-888.844	C.3	10	HIS10	-0.007	
140	  CG	922.033	249.047	-888.537	C.2	10	HIS10	0.187	
141	 CD2	922.415	248.712	-887.245	C.2	10	HIS10	-0.221	
142	 ND1	922.984	248.641	-889.470	N.2	10	HIS10	-0.543	
143	 CE1	923.892	248.083	-888.648	C.2	10	HIS10	0.163	
144	 NE2	923.630	248.080	-887.313	N.pl3	10	HIS10	-0.280	
145	   H	919.494	251.162	-887.229	 H	10	HIS10	0.272	
146	  HA	921.930	251.643	-888.625	 H	10	HIS10	0.136	
147	 2HB	920.381	249.390	-889.824	 H	10	HIS10	0.037	
148	 3HB	919.992	249.420	-888.104	 H	10	HIS10	0.037	
149	 2HD	921.830	248.927	-886.355	 H	10	HIS10	0.186	
150	 1HE	924.782	247.662	-889.096	 H	10	HIS10	0.144	
151	 2HE	924.198	247.703	-886.540	 H	10	HIS10	0.334	
152	   N	919.305	251.849	-890.562	N.am	11	VAL11	-0.416	
153	  CA	918.949	252.395	-891.868	C.3	11	VAL11	-0.087	
154	   C	919.413	253.826	-892.001	C.2	11	VAL11	0.597	
155	   O	920.013	254.231	-893.005	O.2	11	VAL11	-0.568	
156	  CB	917.387	252.288	-892.087	C.3	11	VAL11	0.299	
157	 CG1	916.818	252.992	-893.349	C.3	11	VAL11	-0.319	
158	 CG2	916.863	250.834	-892.159	C.3	11	VAL11	-0.319	
159	   H	918.593	251.476	-889.951	 H	11	VAL11	0.272	
160	  HA	919.468	251.813	-892.651	 H	11	VAL11	0.097	
161	  HB	916.900	252.769	-891.211	 H	11	VAL11	-0.030	
162	1HG1	917.255	252.601	-894.286	 H	11	VAL11	0.079	
163	2HG1	915.719	252.885	-893.430	 H	11	VAL11	0.079	
164	3HG1	916.995	254.085	-893.340	 H	11	VAL11	0.079	
165	1HG2	917.154	250.247	-891.269	 H	11	VAL11	0.079	
166	2HG2	915.757	250.797	-892.201	 H	11	VAL11	0.079	
167	3HG2	917.244	250.294	-893.046	 H	11	VAL11	0.079	
168	   N	919.176	254.652	-891.039	N.am	12	GLN12	-0.416	
169	  CA	919.624	256.035	-891.166	C.3	12	GLN12	-0.003	
170	   C	921.114	256.103	-891.405	C.2	12	GLN12	0.597	
171	   O	921.600	256.811	-892.284	O.2	12	GLN12	-0.568	
172	  CB	919.234	256.803	-889.883	C.3	12	GLN12	-0.004	
173	  CG	919.594	258.324	-889.853	C.3	12	GLN12	-0.064	
174	  CD	919.292	259.138	-888.588	C.2	12	GLN12	0.695	
175	 NE2	918.726	258.561	-887.558	N.pl3	12	GLN12	-0.941	
176	 OE1	919.594	260.319	-888.510	O.2	12	GLN12	-0.609	
177	   H	918.688	254.346	-890.209	 H	12	GLN12	0.272	
178	  HA	919.124	256.491	-892.041	 H	12	GLN12	0.085	
179	 2HB	919.711	256.302	-889.014	 H	12	GLN12	0.017	
180	 3HB	918.144	256.695	-889.719	 H	12	GLN12	0.017	
181	 2HG	919.116	258.845	-890.703	 H	12	GLN12	0.035	
182	 3HG	920.677	258.467	-890.019	 H	12	GLN12	0.035	
183	1HE2	918.620	259.156	-886.735	 H	12	GLN12	0.425	
184	2HE2	918.563	257.558	-887.661	 H	12	GLN12	0.425	
185	   N	921.899	255.396	-890.665	N.am	13	ARG13	-0.348	
186	  CA	923.339	255.462	-890.897	C.3	13	ARG13	-0.264	
187	   C	923.675	255.091	-892.322	C.2	13	ARG13	0.734	
188	   O	924.443	255.763	-893.007	O.2	13	ARG13	-0.589	
189	  CB	924.054	254.523	-889.883	C.3	13	ARG13	-0.001	
190	  CG	925.599	254.677	-889.803	C.3	13	ARG13	0.039	
191	  CD	926.227	253.690	-888.806	C.3	13	ARG13	0.049	
192	  NE	927.704	253.897	-888.757	N.pl3	13	ARG13	-0.530	
193	  CZ	928.552	253.206	-888.002	C.cat	13	ARG13	0.808	
194	 NH1	928.188	252.241	-887.204	N.pl3	13	ARG13	-0.863	
195	 NH2	929.812	253.505	-888.060	N.pl3	13	ARG13	-0.863	
196	   H	921.524	254.806	-889.936	 H	13	ARG13	0.275	
197	  HA	923.664	256.508	-890.739	 H	13	ARG13	0.156	
198	 2HB	923.787	253.473	-890.122	 H	13	ARG13	0.033	
199	 3HB	923.629	254.690	-888.872	 H	13	ARG13	0.033	
200	 2HG	925.846	255.722	-889.524	 H	13	ARG13	0.029	
201	 3HG	926.048	254.521	-890.805	 H	13	ARG13	0.029	
202	 2HD	925.982	252.649	-889.115	 H	13	ARG13	0.069	
203	 3HD	925.771	253.835	-887.803	 H	13	ARG13	0.069	
204	  HE	928.154	254.619	-889.328	 H	13	ARG13	0.346	
205	1HH1	927.183	252.055	-887.207	 H	13	ARG13	0.448	
206	2HH1	928.902	251.759	-886.656	 H	13	ARG13	0.448	
207	1HH2	930.079	254.263	-888.691	 H	13	ARG13	0.448	
208	2HH2	930.448	252.964	-887.472	 H	13	ARG13	0.448	
209	   N	923.138	254.036	-892.836	N.am	14	VAL14	-0.416	
210	  CA	923.462	253.677	-894.214	C.3	14	VAL14	-0.087	
211	   C	923.131	254.807	-895.159	C.2	14	VAL14	0.597	
212	   O	923.924	255.189	-896.029	O.2	14	VAL14	-0.568	
213	  CB	922.690	252.360	-894.620	C.3	14	VAL14	0.299	
214	 CG1	922.778	251.941	-896.114	C.3	14	VAL14	-0.319	
215	 CG2	923.123	251.107	-893.820	C.3	14	VAL14	-0.319	
216	   H	922.504	253.467	-892.294	 H	14	VAL14	0.272	
217	  HA	924.550	253.500	-894.289	 H	14	VAL14	0.097	
218	  HB	921.614	252.531	-894.403	 H	14	VAL14	-0.030	
219	1HG1	923.819	251.765	-896.443	 H	14	VAL14	0.079	
220	2HG1	922.205	251.018	-896.326	 H	14	VAL14	0.079	
221	3HG1	922.348	252.704	-896.791	 H	14	VAL14	0.079	
222	1HG2	923.036	251.266	-892.729	 H	14	VAL14	0.079	
223	2HG2	922.487	250.231	-894.052	 H	14	VAL14	0.079	
224	3HG2	924.170	250.818	-894.027	 H	14	VAL14	0.079	
225	   N	921.986	255.393	-895.056	N.am	15	MET15	-0.416	
226	  CA	921.665	256.485	-895.970	C.3	15	MET15	-0.024	
227	   C	922.695	257.585	-895.883	C.2	15	MET15	0.597	
228	   O	923.197	258.096	-896.896	O.2	15	MET15	-0.568	
229	  CB	920.244	257.030	-895.660	C.3	15	MET15	0.034	
230	  CG	919.082	256.032	-895.851	C.3	15	MET15	0.002	
231	  SD	917.508	256.898	-895.735	S.3	15	MET15	-0.274	
232	  CE	916.427	255.468	-895.598	C.3	15	MET15	-0.054	
233	   H	921.322	255.099	-894.354	 H	15	MET15	0.272	
234	  HA	921.690	256.098	-897.005	 H	15	MET15	0.088	
235	 2HB	920.041	257.909	-896.302	 H	15	MET15	0.024	
236	 3HB	920.209	257.423	-894.623	 H	15	MET15	0.024	
237	 2HG	919.125	255.246	-895.073	 H	15	MET15	0.044	
238	 3HG	919.144	255.517	-896.827	 H	15	MET15	0.044	
239	 1HE	916.570	254.780	-896.450	 H	15	MET15	0.068	
240	 2HE	916.637	254.915	-894.665	 H	15	MET15	0.068	
241	 3HE	915.369	255.783	-895.580	 H	15	MET15	0.068	
242	   N	923.064	258.006	-894.721	N.am	16	ARG16	-0.348	
243	  CA	924.061	259.070	-894.637	C.3	16	ARG16	-0.264	
244	   C	925.331	258.678	-895.355	C.2	16	ARG16	0.734	
245	   O	925.445	257.602	-895.936	O.2	16	ARG16	-0.589	
246	  CB	924.331	259.388	-893.139	C.3	16	ARG16	-0.001	
247	  CG	925.156	260.678	-892.867	C.3	16	ARG16	0.039	
248	  CD	925.406	260.897	-891.366	C.3	16	ARG16	0.049	
249	  NE	926.182	262.156	-891.165	N.pl3	16	ARG16	-0.530	
250	  CZ	926.574	262.639	-889.990	C.cat	16	ARG16	0.808	
251	 NH1	926.327	262.054	-888.851	N.pl3	16	ARG16	-0.863	
252	 NH2	927.238	263.751	-889.972	N.pl3	16	ARG16	-0.863	
253	   H	922.670	257.606	-893.881	 H	16	ARG16	0.275	
254	  HA	923.651	259.963	-895.147	 H	16	ARG16	0.156	
255	 2HB	924.828	258.513	-892.673	 H	16	ARG16	0.033	
256	 3HB	923.362	259.469	-892.605	 H	16	ARG16	0.033	
257	 2HG	924.625	261.548	-893.304	 H	16	ARG16	0.029	
258	 3HG	926.129	260.625	-893.397	 H	16	ARG16	0.029	
259	 2HD	925.956	260.022	-890.953	 H	16	ARG16	0.069	
260	 3HD	924.434	260.939	-890.830	 H	16	ARG16	0.069	
261	  HE	926.460	262.737	-891.963	 H	16	ARG16	0.346	
262	1HH1	925.802	261.181	-888.936	 H	16	ARG16	0.448	
263	2HH1	926.662	262.490	-887.990	 H	16	ARG16	0.448	
264	1HH2	927.423	264.195	-890.874	 H	16	ARG16	0.448	
265	2HH2	927.529	264.107	-889.060	 H	16	ARG16	0.448	
@<TRIPOS>BOND
1 1 2 1
2 1 10 1
3 2 3 1
4 2 5 1
5 2 11 1
6 3 4 2
7 3 16 1
8 5 6 1
9 6 7 1
10 7 8 2
11 7 9 1
12 5 12 1
13 5 13 1
14 6 14 1
15 6 15 1
16 16 17 1
17 16 24 1
18 17 18 1
19 17 20 1
20 17 25 1
21 18 19 2
22 18 30 1
23 20 21 1
24 21 22 1
25 21 23 2
26 20 26 1
27 20 27 1
28 22 28 1
29 22 29 1
30 30 31 1
31 30 36 1
32 31 32 1
33 31 34 1
34 31 37 1
35 32 33 2
36 32 44 1
37 34 35 1
38 35 36 1
39 34 38 1
40 34 39 1
41 35 40 1
42 35 41 1
43 36 42 1
44 36 43 1
45 44 45 1
46 44 53 1
47 45 46 1
48 45 48 1
49 45 54 1
50 46 47 2
51 46 59 1
52 48 49 1
53 49 50 1
54 50 51 2
55 50 52 1
56 48 55 1
57 48 56 1
58 49 57 1
59 49 58 1
60 59 60 1
61 59 65 1
62 60 61 1
63 60 63 1
64 60 66 1
65 61 62 2
66 61 70 1
67 63 64 1
68 63 67 1
69 63 68 1
70 64 69 1
71 70 71 1
72 70 78 1
73 71 72 1
74 71 74 1
75 71 79 1
76 72 73 2
77 72 89 1
78 74 75 1
79 75 76 1
80 75 77 1
81 74 80 1
82 74 81 1
83 75 82 1
84 76 83 1
85 76 84 1
86 76 85 1
87 77 86 1
88 77 87 1
89 77 88 1
90 89 90 1
91 89 97 1
92 90 91 1
93 90 93 1
94 90 98 1
95 91 92 2
96 91 108 1
97 93 94 1
98 94 95 1
99 94 96 1
100 93 99 1
101 93 100 1
102 94 101 1
103 95 102 1
104 95 103 1
105 95 104 1
106 96 105 1
107 96 106 1
108 96 107 1
109 108 109 1
110 108 116 1
111 109 110 1
112 109 112 1
113 109 117 1
114 110 111 2
115 110 120 1
116 112 113 1
117 113 114 2
118 113 115 1
119 112 118 1
120 112 119 1
121 120 121 1
122 120 129 1
123 121 122 1
124 121 124 1
125 121 130 1
126 122 123 2
127 122 135 1
128 124 125 1
129 125 126 1
130 126 127 2
131 126 128 1
132 124 131 1
133 124 132 1
134 125 133 1
135 125 134 1
136 135 136 1
137 135 145 1
138 136 137 1
139 136 139 1
140 136 146 1
141 137 138 2
142 137 152 1
143 139 140 1
144 140 141 2
145 141 144 1
146 140 142 1
147 142 143 2
148 143 144 1
149 139 147 1
150 139 148 1
151 141 149 1
152 143 150 1
153 144 151 1
154 152 153 1
155 152 159 1
156 153 154 1
157 153 156 1
158 153 160 1
159 154 155 2
160 154 168 1
161 156 157 1
162 156 158 1
163 156 161 1
164 157 162 1
165 157 163 1
166 157 164 1
167 158 165 1
168 158 166 1
169 158 167 1
170 168 169 1
171 168 177 1
172 169 170 1
173 169 172 1
174 169 178 1
175 170 171 2
176 170 185 1
177 172 173 1
178 173 174 1
179 174 175 1
180 174 176 2
181 172 179 1
182 172 180 1
183 173 181 1
184 173 182 1
185 175 183 1
186 175 184 1
187 185 186 1
188 185 196 1
189 186 187 1
190 186 189 1
191 186 197 1
192 187 188 2
193 187 209 1
194 189 190 1
195 190 191 1
196 191 192 1
197 192 193 1
198 193 194 2
199 193 195 1
200 189 198 1
201 189 199 1
202 190 200 1
203 190 201 1
204 191 202 1
205 191 203 1
206 192 204 1
207 194 205 1
208 194 206 1
209 195 207 1
210 195 208 1
211 209 210 1
212 209 216 1
213 210 211 1
214 210 213 1
215 210 217 1
216 211 212 2
217 211 225 1
218 213 214 1
219 213 215 1
220 213 218 1
221 214 219 1
222 214 220 1
223 214 221 1
224 215 222 1
225 215 223 1
226 215 224 1
227 225 226 1
228 225 233 1
229 226 227 1
230 226 229 1
231 226 234 1
232 227 228 2
233 227 242 1
234 229 230 1
235 230 231 1
236 231 232 1
237 229 235 1
238 229 236 1
239 230 237 1
240 230 238 1
241 232 239 1
242 232 240 1
243 232 241 1
244 242 243 1
245 242 253 1
246 243 244 1
247 243 246 1
248 243 254 1
249 244 245 2
250 246 247 1
251 247 248 1
252 248 249 1
253 249 250 1
254 250 251 2
255 250 252 1
256 246 255 1
257 246 256 1
258 247 257 1
259 247 258 1
260 248 259 1
261 248 260 1
262 249 261 1
263 251 262 1
264 251 263 1
265 252 264 1
266 252 265 1
@<TRIPOS>SUBSTRUCTURE
1	GLU1	1	RESIDUE	1 ****	GLU
2	ASN2	16	RESIDUE	1 ****	ASN
3	PRO3	30	RESIDUE	1 ****	PRO
4	GLU4	44	RESIDUE	1 ****	GLU
5	SER5	59	RESIDUE	1 ****	SER
6	LEU6	70	RESIDUE	1 ****	LEU
7	LEU7	89	RESIDUE	1 ****	LEU
8	ASP8	108	RESIDUE	1 ****	ASP
9	GLU9	120	RESIDUE	1 ****	GLU
10	HIS10	135	RESIDUE	1 ****	HIS
11	VAL11	152	RESIDUE	1 ****	VAL
12	GLN12	168	RESIDUE	1 ****	GLN
13	ARG13	185	RESIDUE	1 ****	ARG
14	VAL14	209	RESIDUE	1 ****	VAL
15	MET15	225	RESIDUE	1 ****	MET
16	ARG16	242	RESIDUE	1 ****	ARG
