REMARK WARNING: 32 MAX_TORS EXCEEDED!!!
REMARK  67 active torsions:
REMARK  status: ('A' for Active; 'I' for Inactive)
REMARK    1  A    between atoms: N_1  and  CA_2 
REMARK    2  A    between atoms: CA_2  and  C_3 
REMARK    3  A    between atoms: CA_2  and  CB_5 
REMARK       I    between atoms: C_3  and  N_11 
REMARK    4  A    between atoms: CB_5  and  CG_6 
REMARK    5  A    between atoms: CG_6  and  CD_7 
REMARK    6  A    between atoms: N_11  and  CA_12 
REMARK    7  A    between atoms: CA_12  and  C_13 
REMARK    8  A    between atoms: CA_12  and  CB_15 
REMARK       I    between atoms: C_13  and  N_22 
REMARK    9  A    between atoms: CB_15  and  CG_16 
REMARK       I    between atoms: CG_16  and  ND2_17 
REMARK   10  A    between atoms: CA_23  and  C_24 
REMARK       I    between atoms: C_24  and  N_29 
REMARK   11  A    between atoms: N_29  and  CA_30 
REMARK   12  A    between atoms: CA_30  and  C_31 
REMARK   13  A    between atoms: CA_30  and  CB_33 
REMARK       I    between atoms: C_31  and  N_39 
REMARK   14  A    between atoms: CB_33  and  CG_34 
REMARK   15  A    between atoms: CG_34  and  CD_35 
REMARK   16  A    between atoms: N_39  and  CA_40 
REMARK   17  A    between atoms: CA_40  and  C_41 
REMARK   18  A    between atoms: CA_40  and  CB_43 
REMARK       I    between atoms: C_41  and  N_47 
REMARK   19  A    between atoms: CB_43  and  OG_44 
REMARK   20  A    between atoms: N_47  and  CA_48 
REMARK   21  A    between atoms: CA_48  and  C_49 
REMARK   22  A    between atoms: CA_48  and  CB_51 
REMARK       I    between atoms: C_49  and  N_56 
REMARK   23  A    between atoms: CB_51  and  CG1_52 
REMARK   24  A    between atoms: N_56  and  CA_57 
REMARK   25  A    between atoms: CA_57  and  C_58 
REMARK   26  A    between atoms: CA_57  and  CB_60 
REMARK       I    between atoms: C_58  and  N_65 
REMARK   27  A    between atoms: CB_60  and  CG_61 
REMARK   28  A    between atoms: N_65  and  CA_66 
REMARK   29  A    between atoms: CA_66  and  C_67 
REMARK   30  A    between atoms: CA_66  and  CB_69 
REMARK       I    between atoms: C_67  and  N_74 
REMARK   31  A    between atoms: CB_69  and  CG_70 
REMARK   32  A    between atoms: N_74  and  CA_75 
REMARK   33  A    between atoms: CA_75  and  C_76 
REMARK   34  A    between atoms: CA_75  and  CB_78 
REMARK       I    between atoms: C_76  and  N_84 
REMARK   35  A    between atoms: CB_78  and  CG_79 
REMARK   36  A    between atoms: CG_79  and  CD_80 
REMARK   37  A    between atoms: N_84  and  CA_85 
REMARK   38  A    between atoms: CA_85  and  C_86 
REMARK   39  A    between atoms: CA_85  and  CB_88 
REMARK       I    between atoms: C_86  and  N_96 
REMARK   40  A    between atoms: CB_88  and  CG_89 
REMARK   41  A    between atoms: N_96  and  CA_97 
REMARK   42  A    between atoms: CA_97  and  C_98 
REMARK   43  A    between atoms: CA_97  and  CB_100 
REMARK       I    between atoms: C_98  and  N_104 
REMARK   44  A    between atoms: N_104  and  CA_105 
REMARK   45  A    between atoms: CA_105  and  C_106 
REMARK   46  A    between atoms: CA_105  and  CB_108 
REMARK       I    between atoms: C_106  and  N_113 
REMARK   47  A    between atoms: CB_108  and  OG1_110 
REMARK   48  A    between atoms: N_113  and  CA_114 
REMARK   49  A    between atoms: CA_114  and  C_115 
REMARK   50  A    between atoms: CA_114  and  CB_117 
REMARK       I    between atoms: C_115  and  N_130 
REMARK   51  A    between atoms: CB_117  and  CG_118 
REMARK   52  A    between atoms: CG_118  and  CD_119 
REMARK   53  A    between atoms: CD_119  and  NE_120 
REMARK       I    between atoms: NE_120  and  CZ_121 
REMARK       I    between atoms: CZ_121  and  NH1_122 
REMARK       I    between atoms: CZ_121  and  NH2_123 
REMARK   54  A    between atoms: N_130  and  CA_131 
REMARK   55  A    between atoms: CA_131  and  C_132 
REMARK   56  A    between atoms: CA_131  and  CB_134 
REMARK       I    between atoms: C_132  and  N_138 
REMARK   57  A    between atoms: N_138  and  CA_139 
REMARK   58  A    between atoms: CA_139  and  C_140 
REMARK   59  A    between atoms: CA_139  and  CB_142 
REMARK       I    between atoms: C_140  and  N_147 
REMARK   60  A    between atoms: CB_142  and  CG_143 
REMARK   61  A    between atoms: CG_143  and  SD_144 
REMARK   62  A    between atoms: N_147  and  CA_148 
REMARK   63  A    between atoms: CA_148  and  C_149 
REMARK   64  A    between atoms: CA_148  and  CB_151 
REMARK   65  A    between atoms: CB_151  and  CG_152 
REMARK   66  A    between atoms: CG_152  and  CD_153 
REMARK   67  A    between atoms: CD_153  and  NE_154 
REMARK       I    between atoms: NE_154  and  CZ_155 
REMARK       I    between atoms: CZ_155  and  NH1_156 
ROOT
ATOM      1  C   GLU d   9    1962.271 595.143-2017.551  0.00  0.00     0.241 C 
ATOM      2  O   GLU d   9    1962.935 595.898-2018.276  0.00  0.00    -0.271 OA
ATOM      3  N   HIS d  10    1962.368 593.868-2017.721  0.00  0.00    -0.346 N 
ATOM      4  H   HIS d  10    1961.837 593.232-2017.143  0.00  0.00     0.163 HD
ENDROOT
BRANCH   1   5
ATOM      5  CA  GLU d   9    1961.353 595.670-2016.475  0.00  0.00     0.177 C 
BRANCH   5   6
ATOM      6  N   GLU d   9    1960.050 595.012-2016.531  0.00  0.00    -0.346 N 
ATOM      7  C   ASP d   8    1959.370 595.062-2017.626  0.00  0.00     0.241 C 
ATOM      8  O   ASP d   8    1959.843 595.667-2018.601  0.00  0.00    -0.271 OA
ATOM      9  H   GLU d   9    1959.687 594.525-2015.724  0.00  0.00     0.163 HD
BRANCH   7  10
ATOM     10  CA  ASP d   8    1958.024 594.382-2017.684  0.00  0.00     0.186 C 
BRANCH  10  11
ATOM     11  N   ASP d   8    1958.095 593.032-2017.130  0.00  0.00    -0.346 N 
ATOM     12  C   LEU d   7    1958.932 592.192-2017.637  0.00  0.00     0.241 C 
ATOM     13  O   LEU d   7    1959.653 592.555-2018.579  0.00  0.00    -0.271 OA
ATOM     14  H   ASP d   8    1957.497 592.761-2016.363  0.00  0.00     0.163 HD
BRANCH  12  15
ATOM     15  CA  LEU d   7    1959.005 590.797-2017.064  0.00  0.00     0.177 C 
BRANCH  15  16
ATOM     16  N   LEU d   7    1959.060 590.833-2015.606  0.00  0.00    -0.346 N 
ATOM     17  C   ILE d   6    1960.005 591.496-2015.032  0.00  0.00     0.241 C 
ATOM     18  O   ILE d   6    1960.840 592.084-2015.736  0.00  0.00    -0.271 OA
ATOM     19  H   LEU d   7    1958.368 590.345-2015.054  0.00  0.00     0.163 HD
BRANCH  17  20
ATOM     20  CA  ILE d   6    1960.063 591.534-2013.524  0.00  0.00     0.180 C 
BRANCH  20  21
ATOM     21  N   ILE d   6    1958.750 591.828-2012.958  0.00  0.00    -0.346 N 
ATOM     22  C   SER d   5    1958.145 592.911-2013.312  0.00  0.00     0.243 C 
ATOM     23  O   SER d   5    1958.692 593.665-2014.117  0.00  0.00    -0.271 OA
ATOM     24  H   ILE d   6    1958.321 591.194-2012.299  0.00  0.00     0.163 HD
BRANCH  22  25
ATOM     25  CA  SER d   5    1956.786 593.217-2012.727  0.00  0.00     0.200 C 
BRANCH  25  26
ATOM     26  N   SER d   5    1955.916 592.046-2012.785  0.00  0.00    -0.344 N 
ATOM     27  C   GLU d   4    1955.689 591.493-2013.928  0.00  0.00     0.241 C 
ATOM     28  O   GLU d   4    1956.215 591.972-2014.943  0.00  0.00    -0.271 OA
ATOM     29  H   SER d   5    1955.499 591.674-2011.944  0.00  0.00     0.163 HD
BRANCH  27  30
ATOM     30  CA  GLU d   4    1954.790 590.282-2013.989  0.00  0.00     0.177 C 
BRANCH  30  31
ATOM     31  N   GLU d   4    1955.150 589.311-2012.960  0.00  0.00    -0.346 N 
ATOM     32  C   PRO d   3    1956.354 588.851-2012.927  0.00  0.00     0.241 C 
ATOM     33  O   PRO d   3    1957.178 589.234-2013.759  0.00  0.00    -0.271 OA
ATOM     34  H   GLU d   4    1954.465 589.004-2012.283  0.00  0.00     0.163 HD
BRANCH  32  35
ATOM     35  CA  PRO d   3    1956.752 587.827-2011.851  0.00  0.00     0.179 C 
ATOM     36  N   PRO d   3    1956.301 588.237-2010.529  0.00  0.00    -0.337 N 
ATOM     37  C   ASN d   2    1956.822 589.232-2009.895  0.00  0.00     0.243 C 
ATOM     38  CD  PRO d   3    1955.223 587.444-2009.980  0.00  0.00     0.127 C 
ATOM     39  O   ASN d   2    1957.737 589.862-2010.424  0.00  0.00    -0.271 OA
ATOM     40  CG  PRO d   3    1954.765 586.625-2011.190  0.00  0.00     0.022 C 
ATOM     41  CB  PRO d   3    1956.048 586.473-2012.020  0.00  0.00     0.037 C 
BRANCH  37  42
ATOM     42  CA  ASN d   2    1956.291 589.587-2008.526  0.00  0.00     0.185 C 
BRANCH  42  43
ATOM     43  N   ASN d   2    1954.832 589.626-2008.526  0.00  0.00    -0.346 N 
ATOM     44  C   GLU d   1    1954.227 590.412-2009.352  0.00  0.00     0.242 C 
ATOM     45  O   GLU d   1    1954.903 591.111-2010.120  0.00  0.00    -0.271 OA
ATOM     46  H   ASN d   2    1954.303 589.046-2007.890  0.00  0.00     0.163 HD
BRANCH  44  47
ATOM     47  CA  GLU d   1    1952.718 590.452-2009.352  0.00  0.00     0.191 C 
BRANCH  47  48
ATOM     48  N   GLU d   1    1952.159 589.103-2009.352  0.00  0.00    -0.326 NA
ATOM     49  H   GLU d   1    1952.786 588.224-2009.352  0.00  0.00     0.180 HD
ENDBRANCH  47  48
BRANCH  47  50
ATOM     50  CB  GLU d   1    1952.195 591.237-2008.115  0.00  0.00     0.047 C 
BRANCH  50  51
ATOM     51  CG  GLU d   1    1952.670 592.722-2008.004  0.00  0.00     0.116 C 
BRANCH  51  52
ATOM     52  CD  GLU d   1    1952.246 593.526-2006.788  0.00  0.00     0.172 C 
ATOM     53  OE1 GLU d   1    1951.518 593.024-2005.911  0.00  0.00    -0.648 OA
ATOM     54  OE2 GLU d   1    1952.676 594.696-2006.717  0.00  0.00    -0.648 OA
ENDBRANCH  51  52
ENDBRANCH  50  51
ENDBRANCH  47  50
ENDBRANCH  44  47
ENDBRANCH  42  43
BRANCH  42  55
ATOM     55  CB  ASN d   2    1956.783 588.564-2007.462  0.00  0.00     0.137 C 
BRANCH  55  56
ATOM     56  CG  ASN d   2    1956.320 588.788-2006.019  0.00  0.00     0.217 C 
ATOM     57  ND2 ASN d   2    1956.914 589.703-2005.301  0.00  0.00    -0.370 N 
ATOM     58 21HD ASN d   2    1956.433 589.876-2004.414  0.00  0.00     0.159 HD
ATOM     59 22HD ASN d   2    1957.616 590.275-2005.770  0.00  0.00     0.159 HD
ATOM     60  OD1 ASN d   2    1955.399 588.154-2005.525  0.00  0.00    -0.274 OA
ENDBRANCH  55  56
ENDBRANCH  42  55
ENDBRANCH  37  42
ENDBRANCH  32  35
ENDBRANCH  30  31
BRANCH  30  61
ATOM     61  CB  GLU d   4    1953.301 590.701-2013.819  0.00  0.00     0.045 C 
BRANCH  61  62
ATOM     62  CG  GLU d   4    1952.753 591.704-2014.885  0.00  0.00     0.116 C 
BRANCH  62  63
ATOM     63  CD  GLU d   4    1951.327 592.201-2014.741  0.00  0.00     0.172 C 
ATOM     64  OE1 GLU d   4    1950.600 591.803-2013.810  0.00  0.00    -0.648 OA
ATOM     65  OE2 GLU d   4    1950.937 593.030-2015.589  0.00  0.00    -0.648 OA
ENDBRANCH  62  63
ENDBRANCH  61  62
ENDBRANCH  30  61
ENDBRANCH  27  30
ENDBRANCH  25  26
BRANCH  25  66
ATOM     66  CB  SER d   5    1956.897 593.749-2011.276  0.00  0.00     0.199 C 
BRANCH  66  67
ATOM     67  OG  SER d   5    1957.629 592.870-2010.415  0.00  0.00    -0.398 OA
ATOM     68  HG  SER d   5    1957.140 592.045-2010.365  0.00  0.00     0.209 HD
ENDBRANCH  66  67
ENDBRANCH  25  66
ENDBRANCH  22  25
ENDBRANCH  20  21
BRANCH  20  69
ATOM     69  CB  ILE d   6    1960.662 590.197-2012.924  0.00  0.00     0.013 C 
ATOM     70  CG2 ILE d   6    1962.104 589.896-2013.440  0.00  0.00     0.012 C 
BRANCH  69  71
ATOM     71  CG1 ILE d   6    1960.682 590.135-2011.363  0.00  0.00     0.002 C 
ATOM     72  CD1 ILE d   6    1960.952 588.746-2010.748  0.00  0.00     0.005 C 
ENDBRANCH  69  71
ENDBRANCH  20  69
ENDBRANCH  17  20
ENDBRANCH  15  16
BRANCH  15  73
ATOM     73  CB  LEU d   7    1957.802 589.936-2017.545  0.00  0.00     0.038 C 
BRANCH  73  74
ATOM     74  CG  LEU d   7    1957.729 588.457-2017.078  0.00  0.00    -0.020 C 
ATOM     75  CD1 LEU d   7    1956.540 587.751-2017.744  0.00  0.00     0.009 C 
ATOM     76  CD2 LEU d   7    1959.023 587.678-2017.370  0.00  0.00     0.009 C 
ENDBRANCH  73  74
ENDBRANCH  15  73
ENDBRANCH  12  15
ENDBRANCH  10  11
BRANCH  10  77
ATOM     77  CB  ASP d   8    1956.946 595.220-2016.942  0.00  0.00     0.147 C 
BRANCH  77  78
ATOM     78  CG  ASP d   8    1956.727 596.641-2017.482  0.00  0.00     0.175 C 
ATOM     79  OD1 ASP d   8    1956.791 596.840-2018.713  0.00  0.00    -0.648 OA
ATOM     80  OD2 ASP d   8    1956.534 597.567-2016.666  0.00  0.00    -0.648 OA
ENDBRANCH  77  78
ENDBRANCH  10  77
ENDBRANCH   7  10
ENDBRANCH   5   6
BRANCH   5  81
ATOM     81  CB  GLU d   9    1961.986 595.462-2015.070  0.00  0.00     0.045 C 
BRANCH  81  82
ATOM     82  CG  GLU d   9    1963.368 596.155-2014.840  0.00  0.00     0.116 C 
BRANCH  82  83
ATOM     83  CD  GLU d   9    1964.070 595.941-2013.512  0.00  0.00     0.172 C 
ATOM     84  OE1 GLU d   9    1963.549 595.250-2012.616  0.00  0.00    -0.648 OA
ATOM     85  OE2 GLU d   9    1965.189 596.479-2013.380  0.00  0.00    -0.648 OA
ENDBRANCH  82  83
ENDBRANCH  81  82
ENDBRANCH   5  81
ENDBRANCH   1   5
BRANCH   3  86
ATOM     86  CA  HIS d  10    1963.256 593.357-2018.761  0.00  0.00     0.182 C 
BRANCH  86  87
ATOM     87  C   HIS d  10    1962.890 593.922-2020.113  0.00  0.00     0.241 C 
ATOM     88  O   HIS d  10    1963.742 594.387-2020.884  0.00  0.00    -0.271 OA
ATOM     89  N   VAL d  11    1961.652 593.920-2020.476  0.00  0.00    -0.346 N 
ATOM     90  H   VAL d  11    1960.939 593.547-2019.865  0.00  0.00     0.163 HD
BRANCH  89  91
ATOM     91  CA  VAL d  11    1961.297 594.467-2021.783  0.00  0.00     0.180 C 
BRANCH  91  92
ATOM     92  C   VAL d  11    1961.761 595.898-2021.914  0.00  0.00     0.241 C 
ATOM     93  O   VAL d  11    1962.362 596.303-2022.917  0.00  0.00    -0.271 OA
ATOM     94  N   THR d  12    1961.523 596.723-2020.952  0.00  0.00    -0.344 N 
ATOM     95  H   THR d  12    1961.034 596.417-2020.123  0.00  0.00     0.163 HD
BRANCH  94  96
ATOM     96  CA  THR d  12    1961.971 598.106-2021.079  0.00  0.00     0.205 C 
BRANCH  96  97
ATOM     97  C   THR d  12    1963.461 598.173-2021.317  0.00  0.00     0.243 C 
ATOM     98  O   THR d  12    1963.942 598.872-2022.185  0.00  0.00    -0.271 OA
ATOM     99  N   ARG d  13    1964.245 597.466-2020.576  0.00  0.00    -0.346 N 
ATOM    100  H   ARG d  13    1963.869 596.876-2019.847  0.00  0.00     0.163 HD
BRANCH  99 101
ATOM    101  CA  ARG d  13    1965.686 597.531-2020.806  0.00  0.00     0.176 C 
BRANCH 101 102
ATOM    102  C   ARG d  13    1966.022 597.159-2022.231  0.00  0.00     0.241 C 
ATOM    103  O   ARG d  13    1966.790 597.831-2022.915  0.00  0.00    -0.271 OA
ATOM    104  N   VAL d  14    1965.485 596.105-2022.745  0.00  0.00    -0.346 N 
ATOM    105  H   VAL d  14    1964.850 595.537-2022.203  0.00  0.00     0.163 HD
BRANCH 104 106
ATOM    106  CA  VAL d  14    1965.810 595.745-2024.123  0.00  0.00     0.180 C 
BRANCH 106 107
ATOM    107  C   VAL d  14    1965.480 596.875-2025.069  0.00  0.00     0.241 C 
ATOM    108  O   VAL d  14    1966.274 597.256-2025.938  0.00  0.00    -0.271 OA
ATOM    109  N   MET d  15    1964.336 597.461-2024.967  0.00  0.00    -0.346 N 
ATOM    110  H   MET d  15    1963.671 597.169-2024.266  0.00  0.00     0.163 HD
BRANCH 109 111
ATOM    111  CA  MET d  15    1964.016 598.554-2025.881  0.00  0.00     0.177 C 
BRANCH 111 112
ATOM    112  C   MET d  15    1965.046 599.653-2025.794  0.00  0.00     0.241 C 
ATOM    113  O   MET d  15    1965.548 600.164-2026.807  0.00  0.00    -0.271 OA
ATOM    114  N   ARG d  16    1965.415 600.075-2024.632  0.00  0.00    -0.347 N 
ATOM    115  H   ARG d  16    1965.020 599.675-2023.792  0.00  0.00     0.163 HD
BRANCH 114 116
ATOM    116  CA  ARG d  16    1966.412 601.138-2024.549  0.00  0.00     0.162 C 
BRANCH 116 117
ATOM    117  C   ARG d  16    1967.682 600.745-2025.265  0.00  0.00     0.219 C 
ATOM    118  O   ARG d  16    1967.796 599.668-2025.846  0.00  0.00    -0.287 OA
ENDBRANCH 116 117
BRANCH 116 119
ATOM    119  CB  ARG d  16    1966.681 601.457-2023.050  0.00  0.00     0.035 C 
BRANCH 119 120
ATOM    120  CG  ARG d  16    1967.507 602.745-2022.778  0.00  0.00     0.023 C 
BRANCH 120 121
ATOM    121  CD  ARG d  16    1967.757 602.965-2021.277  0.00  0.00     0.138 C 
BRANCH 121 122
ATOM    122  NE  ARG d  16    1968.533 604.224-2021.077  0.00  0.00    -0.227 N 
ATOM    123  CZ  ARG d  16    1968.925 604.707-2019.901  0.00  0.00     0.665 C 
ATOM    124  NH1 ARG d  16    1968.677 604.122-2018.762  0.00  0.00    -0.235 N 
ATOM    125  NH2 ARG d  16    1969.589 605.819-2019.883  0.00  0.00    -0.235 N 
ATOM    126 11HH ARG d  16    1968.151 603.250-2018.847  0.00  0.00     0.174 HD
ATOM    127 12HH ARG d  16    1969.012 604.558-2017.901  0.00  0.00     0.174 HD
ATOM    128 21HH ARG d  16    1969.774 606.262-2020.785  0.00  0.00     0.174 HD
ATOM    129 22HH ARG d  16    1969.880 606.174-2018.971  0.00  0.00     0.174 HD
ATOM    130  HE  ARG d  16    1968.812 604.805-2021.874  0.00  0.00     0.177 HD
ENDBRANCH 121 122
ENDBRANCH 120 121
ENDBRANCH 119 120
ENDBRANCH 116 119
ENDBRANCH 114 116
ENDBRANCH 111 112
BRANCH 111 131
ATOM    131  CB  MET d  15    1962.594 599.100-2025.572  0.00  0.00     0.045 C 
BRANCH 131 132
ATOM    132  CG  MET d  15    1961.432 598.102-2025.764  0.00  0.00     0.076 C 
BRANCH 132 133
ATOM    133  SD  MET d  15    1959.858 598.968-2025.649  0.00  0.00    -0.173 SA
ATOM    134  CE  MET d  15    1958.777 597.539-2025.512  0.00  0.00     0.089 C 
ENDBRANCH 132 133
ENDBRANCH 131 132
ENDBRANCH 111 131
ENDBRANCH 109 111
ENDBRANCH 106 107
BRANCH 106 135
ATOM    135  CB  VAL d  14    1965.037 594.428-2024.529  0.00  0.00     0.009 C 
ATOM    136  CG1 VAL d  14    1965.126 594.009-2026.022  0.00  0.00     0.012 C 
ATOM    137  CG2 VAL d  14    1965.469 593.176-2023.729  0.00  0.00     0.012 C 
ENDBRANCH 106 135
ENDBRANCH 104 106
ENDBRANCH 101 102
BRANCH 101 138
ATOM    138  CB  ARG d  13    1966.399 596.593-2019.792  0.00  0.00     0.036 C 
BRANCH 138 139
ATOM    139  CG  ARG d  13    1967.944 596.745-2019.711  0.00  0.00     0.023 C 
BRANCH 139 140
ATOM    140  CD  ARG d  13    1968.571 595.758-2018.713  0.00  0.00     0.138 C 
BRANCH 140 141
ATOM    141  NE  ARG d  13    1970.048 595.965-2018.663  0.00  0.00    -0.227 N 
ATOM    142  CZ  ARG d  13    1970.896 595.273-2017.907  0.00  0.00     0.665 C 
ATOM    143  NH1 ARG d  13    1970.531 594.309-2017.110  0.00  0.00    -0.235 N 
ATOM    144  NH2 ARG d  13    1972.155 595.572-2017.964  0.00  0.00    -0.235 N 
ATOM    145 11HH ARG d  13    1969.525 594.123-2017.113  0.00  0.00     0.174 HD
ATOM    146 12HH ARG d  13    1971.244 593.826-2016.561  0.00  0.00     0.174 HD
ATOM    147 21HH ARG d  13    1972.423 596.330-2018.596  0.00  0.00     0.174 HD
ATOM    148 22HH ARG d  13    1972.790 595.031-2017.376  0.00  0.00     0.174 HD
ATOM    149  HE  ARG d  13    1970.499 596.687-2019.234  0.00  0.00     0.177 HD
ENDBRANCH 140 141
ENDBRANCH 139 140
ENDBRANCH 138 139
ENDBRANCH 101 138
ENDBRANCH  99 101
ENDBRANCH  96  97
BRANCH  96 150
ATOM    150  CB  THR d  12    1961.576 598.931-2019.808  0.00  0.00     0.146 C 
ATOM    151  CG2 THR d  12    1961.997 600.417-2019.799  0.00  0.00     0.042 C 
BRANCH 150 152
ATOM    152  OG1 THR d  12    1960.163 598.961-2019.651  0.00  0.00    -0.393 OA
ATOM    153  1HG THR d  12    1959.996 599.417-2018.822  0.00  0.00     0.210 HD
ENDBRANCH 150 152
ENDBRANCH  96 150
ENDBRANCH  94  96
ENDBRANCH  91  92
BRANCH  91 154
ATOM    154  CB  VAL d  11    1959.736 594.360-2022.002  0.00  0.00     0.009 C 
ATOM    155  CG1 VAL d  11    1959.167 595.064-2023.265  0.00  0.00     0.012 C 
ATOM    156  CG2 VAL d  11    1959.212 592.905-2022.076  0.00  0.00     0.012 C 
ENDBRANCH  91 154
ENDBRANCH  89  91
ENDBRANCH  86  87
BRANCH  86 157
ATOM    157  CB  HIS d  10    1963.093 591.828-2018.757  0.00  0.00     0.095 C 
BRANCH 157 158
ATOM    158  CG  HIS d  10    1964.378 591.118-2018.449  0.00  0.00     0.053 A 
ATOM    159  CD2 HIS d  10    1964.759 590.782-2017.156  0.00  0.00     0.116 A 
ATOM    160  NE2 HIS d  10    1965.974 590.151-2017.223  0.00  0.00    -0.359 N 
ATOM    161  CE1 HIS d  10    1966.237 590.154-2018.558  0.00  0.00     0.207 A 
ATOM    162  2HE HIS d  10    1966.541 589.774-2016.450  0.00  0.00     0.166 HD
ATOM    163  ND1 HIS d  10    1965.331 590.713-2019.381  0.00  0.00    -0.247 NA
ENDBRANCH 157 158
ENDBRANCH  86 157
ENDBRANCH   3  86
TORSDOF 67
