@<TRIPOS>MOLECULE
8-17
265 266 16              
SMALL
USER_CHARGES
@<TRIPOS>ATOM
1	   N	1320.398	383.653	-1324.709	N.3	1	GLU1	-0.516	
2	  CA	1320.957	385.002	-1324.709	C.3	1	GLU1	0.040	
3	   C	1322.466	384.962	-1324.709	C.2	1	GLU1	0.537	
4	   O	1323.142	385.661	-1325.478	O.2	1	GLU1	-0.582	
5	  CB	1320.434	385.787	-1323.472	C.3	1	GLU1	0.056	
6	  CG	1320.909	387.272	-1323.361	C.3	1	GLU1	0.014	
7	  CD	1320.485	388.076	-1322.146	C.2	1	GLU1	0.805	
8	 OE1	1319.757	387.574	-1321.268	O.co2	1	GLU1	-0.819	
9	 OE2	1320.915	389.246	-1322.074	O.co2	1	GLU1	-0.819	
10	   H	1321.025	382.774	-1324.709	 H	1	GLU1	0.294	
11	  HA	1320.631	385.520	-1325.629	 H	1	GLU1	0.111	
12	 2HB	1320.723	385.256	-1322.542	 H	1	GLU1	-0.017	
13	 3HB	1319.327	385.777	-1323.459	 H	1	GLU1	-0.017	
14	 2HG	1320.599	387.857	-1324.242	 H	1	GLU1	-0.043	
15	 3HG	1322.009	387.339	-1323.332	 H	1	GLU1	-0.043	
16	   N	1323.071	384.176	-1323.884	N.am	2	ASN2	-0.416	
17	  CA	1324.530	384.137	-1323.884	C.3	2	ASN2	0.014	
18	   C	1325.061	383.782	-1325.253	C.2	2	ASN2	0.597	
19	   O	1325.976	384.412	-1325.781	O.2	2	ASN2	-0.568	
20	  CB	1325.022	383.114	-1322.819	C.3	2	ASN2	-0.204	
21	  CG	1324.559	383.338	-1321.376	C.2	2	ASN2	0.713	
22	 ND2	1325.153	384.253	-1320.658	N.pl3	2	ASN2	-0.919	
23	 OD1	1323.638	382.704	-1320.882	O.2	2	ASN2	-0.593	
24	   H	1322.542	383.596	-1323.247	 H	2	ASN2	0.272	
25	  HA	1324.907	385.147	-1323.638	 H	2	ASN2	0.105	
26	 2HB	1326.126	383.055	-1322.823	 H	2	ASN2	0.080	
27	 3HB	1324.693	382.096	-1323.105	 H	2	ASN2	0.080	
28	1HD2	1324.672	384.426	-1319.771	 H	2	ASN2	0.420	
29	2HD2	1325.855	384.825	-1321.127	 H	2	ASN2	0.420	
30	   N	1324.540	382.787	-1325.887	N.am	3	PRO3	-0.255	
31	  CA	1324.991	382.377	-1327.208	C.3	3	PRO3	-0.027	
32	   C	1324.593	383.401	-1328.285	C.2	3	PRO3	0.590	
33	   O	1325.416	383.784	-1329.117	O.2	3	PRO3	-0.575	
34	  CB	1324.287	381.023	-1327.377	C.3	3	PRO3	-0.007	
35	  CG	1323.004	381.175	-1326.547	C.3	3	PRO3	0.019	
36	  CD	1323.462	381.993	-1325.338	C.3	3	PRO3	0.019	
37	  HA	1326.077	382.258	-1327.222	 H	3	PRO3	0.064	
38	 2HB	1324.910	380.241	-1326.937	 H	3	PRO3	0.025	
39	 3HB	1324.089	380.774	-1328.423	 H	3	PRO3	0.025	
40	 2HG	1322.576	380.212	-1326.256	 H	3	PRO3	0.021	
41	 3HG	1322.266	381.746	-1327.115	 H	3	PRO3	0.021	
42	 2HD	1323.851	381.344	-1324.550	 H	3	PRO3	0.039	
43	 3HD	1322.665	382.629	-1324.944	 H	3	PRO3	0.039	
44	   N	1323.388	383.861	-1328.317	N.am	4	GLU4	-0.516	
45	  CA	1323.028	384.832	-1329.347	C.3	4	GLU4	0.040	
46	   C	1323.927	386.043	-1329.286	C.2	4	GLU4	0.537	
47	   O	1324.453	386.523	-1330.300	O.2	4	GLU4	-0.582	
48	  CB	1321.540	385.250	-1329.176	C.3	4	GLU4	0.056	
49	  CG	1320.992	386.254	-1330.242	C.3	4	GLU4	0.014	
50	  CD	1319.565	386.751	-1330.098	C.2	4	GLU4	0.805	
51	 OE1	1318.839	386.352	-1329.167	O.co2	4	GLU4	-0.819	
52	 OE2	1319.175	387.580	-1330.946	O.co2	4	GLU4	-0.819	
53	   H	1322.704	383.554	-1327.641	 H	4	GLU4	0.294	
54	  HA	1323.159	384.361	-1330.338	 H	4	GLU4	0.111	
55	 2HB	1321.388	385.690	-1328.169	 H	4	GLU4	-0.017	
56	 3HB	1320.892	384.353	-1329.182	 H	4	GLU4	-0.017	
57	 2HG	1321.073	385.839	-1331.260	 H	4	GLU4	-0.043	
58	 3HG	1321.580	387.186	-1330.253	 H	4	GLU4	-0.043	
59	   N	1324.155	386.596	-1328.143	N.am	5	SER5	-0.416	
60	  CA	1325.024	387.767	-1328.084	C.3	5	SER5	-0.025	
61	   C	1326.383	387.462	-1328.670	C.2	5	SER5	0.597	
62	   O	1326.930	388.215	-1329.475	O.2	5	SER5	-0.568	
63	  CB	1325.136	388.299	-1326.633	C.3	5	SER5	0.212	
64	  OG	1325.868	387.420	-1325.773	O.3	5	SER5	-0.655	
65	   H	1323.738	386.224	-1327.301	 H	5	SER5	0.272	
66	  HA	1324.575	388.557	-1328.713	 H	5	SER5	0.084	
67	 2HB	1324.136	388.493	-1326.200	 H	5	SER5	0.035	
68	 3HB	1325.641	389.285	-1326.636	 H	5	SER5	0.035	
69	  HG	1325.379	386.595	-1325.722	 H	5	SER5	0.428	
70	   N	1326.988	386.379	-1328.316	N.am	6	ILE6	-0.416	
71	  CA	1328.301	386.084	-1328.882	C.3	6	ILE6	-0.060	
72	   C	1328.244	386.047	-1330.390	C.2	6	ILE6	0.597	
73	   O	1329.078	386.635	-1331.094	O.2	6	ILE6	-0.568	
74	  CB	1328.901	384.748	-1328.283	C.3	6	ILE6	0.130	
75	 CG1	1328.920	384.685	-1326.722	C.3	6	ILE6	-0.043	
76	 CG2	1330.342	384.446	-1328.798	C.3	6	ILE6	-0.320	
77	 CD1	1329.190	383.296	-1326.107	C.3	6	ILE6	-0.066	
78	   H	1326.560	385.744	-1327.657	 H	6	ILE6	0.272	
79	  HA	1328.975	386.918	-1328.615	 H	6	ILE6	0.087	
80	  HB	1328.243	383.922	-1328.627	 H	6	ILE6	0.019	
81	2HG1	1327.938	385.005	-1326.326	 H	6	ILE6	0.024	
82	3HG1	1329.636	385.427	-1326.317	 H	6	ILE6	0.024	
83	1HG2	1330.401	384.353	-1329.896	 H	6	ILE6	0.088	
84	2HG2	1331.064	385.229	-1328.496	 H	6	ILE6	0.088	
85	3HG2	1330.732	383.484	-1328.419	 H	6	ILE6	0.088	
86	1HD1	1328.462	382.542	-1326.462	 H	6	ILE6	0.019	
87	2HD1	1330.201	382.918	-1326.343	 H	6	ILE6	0.019	
88	3HD1	1329.114	383.326	-1325.004	 H	6	ILE6	0.019	
89	   N	1327.298	385.383	-1330.964	N.am	7	LEU7	-0.416	
90	  CA	1327.243	385.347	-1332.422	C.3	7	LEU7	-0.052	
91	   C	1327.170	386.743	-1332.995	C.2	7	LEU7	0.597	
92	   O	1327.891	387.106	-1333.936	O.2	7	LEU7	-0.568	
93	  CB	1326.040	384.487	-1332.903	C.3	7	LEU7	-0.110	
94	  CG	1325.967	383.008	-1332.436	C.3	7	LEU7	0.353	
95	 CD1	1324.777	382.302	-1333.102	C.3	7	LEU7	-0.412	
96	 CD2	1327.260	382.229	-1332.728	C.3	7	LEU7	-0.412	
97	   H	1326.606	384.896	-1330.412	 H	7	LEU7	0.272	
98	  HA	1328.184	384.907	-1332.797	 H	7	LEU7	0.092	
99	 2HB	1326.016	384.503	-1334.010	 H	7	LEU7	0.046	
100	 3HB	1325.100	384.990	-1332.598	 H	7	LEU7	0.046	
101	  HG	1325.797	382.999	-1331.339	 H	7	LEU7	-0.036	
102	1HD1	1323.820	382.811	-1332.879	 H	7	LEU7	0.100	
103	2HD1	1324.876	382.262	-1334.203	 H	7	LEU7	0.100	
104	3HD1	1324.670	381.261	-1332.746	 H	7	LEU7	0.100	
105	1HD2	1327.536	382.259	-1333.798	 H	7	LEU7	0.100	
106	2HD2	1328.114	382.640	-1332.157	 H	7	LEU7	0.100	
107	3HD2	1327.179	381.166	-1332.432	 H	7	LEU7	0.100	
108	   N	1326.333	387.583	-1332.488	N.am	8	ASP8	-0.516	
109	  CA	1326.262	388.933	-1333.041	C.3	8	ASP8	0.038	
110	   C	1327.609	389.613	-1332.984	C.2	8	ASP8	0.537	
111	   O	1328.082	390.218	-1333.958	O.2	8	ASP8	-0.582	
112	  CB	1325.184	389.772	-1332.299	C.3	8	ASP8	-0.030	
113	  CG	1324.965	391.193	-1332.839	C.2	8	ASP8	0.799	
114	 OD1	1325.029	391.392	-1334.070	O.co2	8	ASP8	-0.801	
115	 OD2	1324.773	392.118	-1332.023	O.co2	8	ASP8	-0.801	
116	   H	1325.735	387.312	-1331.720	 H	8	ASP8	0.294	
117	  HA	1325.979	388.855	-1334.108	 H	8	ASP8	0.088	
118	 2HB	1325.442	389.855	-1331.227	 H	8	ASP8	-0.012	
119	 3HB	1324.205	389.267	-1332.332	 H	8	ASP8	-0.012	
120	   N	1328.289	389.563	-1331.888	N.am	9	GLU9	-0.516	
121	  CA	1329.591	390.220	-1331.833	C.3	9	GLU9	0.040	
122	   C	1330.510	389.693	-1332.909	C.2	9	GLU9	0.537	
123	   O	1331.173	390.448	-1333.634	O.2	9	GLU9	-0.582	
124	  CB	1330.225	390.012	-1330.428	C.3	9	GLU9	0.056	
125	  CG	1331.608	390.705	-1330.198	C.3	9	GLU9	0.014	
126	  CD	1332.310	390.491	-1328.870	C.2	9	GLU9	0.805	
127	 OE1	1331.788	389.799	-1327.974	O.co2	9	GLU9	-0.819	
128	 OE2	1333.429	391.029	-1328.738	O.co2	9	GLU9	-0.819	
129	   H	1327.926	389.076	-1331.081	 H	9	GLU9	0.294	
130	  HA	1329.449	391.302	-1332.008	 H	9	GLU9	0.111	
131	 2HB	1330.338	388.928	-1330.225	 H	9	GLU9	-0.017	
132	 3HB	1329.528	390.365	-1329.643	 H	9	GLU9	-0.017	
133	 2HG	1331.536	391.795	-1330.337	 H	9	GLU9	-0.043	
134	 3HG	1332.354	390.360	-1330.932	 H	9	GLU9	-0.043	
135	   N	1330.606	388.418	-1333.079	N.am	10	HIS10	-0.416	
136	  CA	1331.494	387.907	-1334.120	C.3	10	HIS10	-0.058	
137	   C	1331.127	388.473	-1335.471	C.2	10	HIS10	0.597	
138	   O	1331.979	388.938	-1336.243	O.2	10	HIS10	-0.568	
139	  CB	1331.330	386.379	-1334.116	C.3	10	HIS10	-0.007	
140	  CG	1332.615	385.668	-1333.809	C.2	10	HIS10	0.187	
141	 CD2	1332.996	385.332	-1332.516	C.2	10	HIS10	-0.221	
142	 ND1	1333.567	385.263	-1334.742	N.2	10	HIS10	-0.543	
143	 CE1	1334.474	384.704	-1333.919	C.2	10	HIS10	0.163	
144	 NE2	1334.211	384.700	-1332.584	N.pl3	10	HIS10	-0.280	
145	   H	1330.075	387.782	-1332.501	 H	10	HIS10	0.272	
146	  HA	1332.513	388.265	-1333.895	 H	10	HIS10	0.136	
147	 2HB	1330.964	386.012	-1335.096	 H	10	HIS10	0.037	
148	 3HB	1330.574	386.041	-1333.376	 H	10	HIS10	0.037	
149	 2HD	1332.411	385.546	-1331.627	 H	10	HIS10	0.186	
150	 1HE	1335.365	384.283	-1334.366	 H	10	HIS10	0.144	
151	 2HE	1334.778	384.322	-1331.811	 H	10	HIS10	0.334	
152	   N	1329.889	388.472	-1335.834	N.am	11	VAL11	-0.416	
153	  CA	1329.534	389.019	-1337.140	C.3	11	VAL11	-0.087	
154	   C	1329.998	390.450	-1337.272	C.2	11	VAL11	0.597	
155	   O	1330.599	390.855	-1338.275	O.2	11	VAL11	-0.568	
156	  CB	1327.972	388.912	-1337.360	C.3	11	VAL11	0.299	
157	 CG1	1327.404	389.617	-1338.622	C.3	11	VAL11	-0.319	
158	 CG2	1327.448	387.458	-1337.434	C.3	11	VAL11	-0.319	
159	   H	1329.176	388.099	-1335.223	 H	11	VAL11	0.272	
160	  HA	1330.053	388.437	-1337.923	 H	11	VAL11	0.097	
161	  HB	1327.485	389.392	-1336.484	 H	11	VAL11	-0.030	
162	1HG1	1327.842	389.226	-1339.559	 H	11	VAL11	0.079	
163	2HG1	1326.305	389.510	-1338.704	 H	11	VAL11	0.079	
164	3HG1	1327.582	390.709	-1338.612	 H	11	VAL11	0.079	
165	1HG2	1327.738	386.871	-1336.543	 H	11	VAL11	0.079	
166	2HG2	1326.342	387.421	-1337.476	 H	11	VAL11	0.079	
167	3HG2	1327.829	386.918	-1338.321	 H	11	VAL11	0.079	
168	   N	1329.761	391.275	-1336.309	N.am	12	GLN12	-0.416	
169	  CA	1330.209	392.658	-1336.435	C.3	12	GLN12	-0.003	
170	   C	1331.699	392.725	-1336.673	C.2	12	GLN12	0.597	
171	   O	1332.186	393.434	-1337.551	O.2	12	GLN12	-0.568	
172	  CB	1329.819	393.424	-1335.152	C.3	12	GLN12	-0.004	
173	  CG	1330.179	394.946	-1335.120	C.3	12	GLN12	-0.064	
174	  CD	1329.876	395.758	-1333.854	C.2	12	GLN12	0.695	
175	 NE2	1329.309	395.181	-1332.826	N.pl3	12	GLN12	-0.941	
176	 OE1	1330.178	396.939	-1333.776	O.2	12	GLN12	-0.609	
177	   H	1329.272	390.968	-1335.480	 H	12	GLN12	0.272	
178	  HA	1329.710	393.115	-1337.310	 H	12	GLN12	0.085	
179	 2HB	1330.295	392.923	-1334.283	 H	12	GLN12	0.017	
180	 3HB	1328.728	393.316	-1334.989	 H	12	GLN12	0.017	
181	 2HG	1329.701	395.467	-1335.970	 H	12	GLN12	0.035	
182	 3HG	1331.262	395.088	-1335.286	 H	12	GLN12	0.035	
183	1HE2	1329.203	395.775	-1332.002	 H	12	GLN12	0.425	
184	2HE2	1329.146	394.178	-1332.930	 H	12	GLN12	0.425	
185	   N	1332.484	392.018	-1335.933	N.am	13	ARG13	-0.348	
186	  CA	1333.924	392.084	-1336.164	C.3	13	ARG13	-0.264	
187	   C	1334.260	391.714	-1337.589	C.2	13	ARG13	0.734	
188	   O	1335.029	392.386	-1338.273	O.2	13	ARG13	-0.589	
189	  CB	1334.638	391.144	-1335.151	C.3	13	ARG13	-0.001	
190	  CG	1336.183	391.297	-1335.069	C.3	13	ARG13	0.039	
191	  CD	1336.810	390.309	-1334.073	C.3	13	ARG13	0.049	
192	  NE	1338.287	390.516	-1334.022	N.pl3	13	ARG13	-0.530	
193	  CZ	1339.135	389.824	-1333.267	C.cat	13	ARG13	0.808	
194	 NH1	1338.770	388.859	-1332.471	N.pl3	13	ARG13	-0.863	
195	 NH2	1340.394	390.123	-1333.324	N.pl3	13	ARG13	-0.863	
196	   H	1332.108	391.428	-1335.205	 H	13	ARG13	0.275	
197	  HA	1334.249	393.130	-1336.005	 H	13	ARG13	0.156	
198	 2HB	1334.371	390.094	-1335.391	 H	13	ARG13	0.033	
199	 3HB	1334.213	391.310	-1334.140	 H	13	ARG13	0.033	
200	 2HG	1336.430	392.342	-1334.789	 H	13	ARG13	0.029	
201	 3HG	1336.633	391.142	-1336.071	 H	13	ARG13	0.029	
202	 2HD	1336.565	389.269	-1334.382	 H	13	ARG13	0.069	
203	 3HD	1336.353	390.454	-1333.070	 H	13	ARG13	0.069	
204	  HE	1338.738	391.239	-1334.592	 H	13	ARG13	0.346	
205	1HH1	1337.764	388.673	-1332.474	 H	13	ARG13	0.448	
206	2HH1	1339.483	388.376	-1331.922	 H	13	ARG13	0.448	
207	1HH2	1340.662	390.882	-1333.955	 H	13	ARG13	0.448	
208	2HH2	1341.030	389.582	-1332.736	 H	13	ARG13	0.448	
209	   N	1333.724	390.659	-1338.104	N.am	14	VAL14	-0.416	
210	  CA	1334.049	390.301	-1339.482	C.3	14	VAL14	-0.087	
211	   C	1333.719	391.432	-1340.427	C.2	14	VAL14	0.597	
212	   O	1334.513	391.814	-1341.296	O.2	14	VAL14	-0.568	
213	  CB	1333.277	388.984	-1339.890	C.3	14	VAL14	0.299	
214	 CG1	1333.365	388.567	-1341.384	C.3	14	VAL14	-0.319	
215	 CG2	1333.708	387.731	-1339.090	C.3	14	VAL14	-0.319	
216	   H	1333.089	390.090	-1337.563	 H	14	VAL14	0.272	
217	  HA	1335.137	390.124	-1339.557	 H	14	VAL14	0.097	
218	  HB	1332.200	389.155	-1339.674	 H	14	VAL14	-0.030	
219	1HG1	1334.407	388.390	-1341.713	 H	14	VAL14	0.079	
220	2HG1	1332.793	387.644	-1341.597	 H	14	VAL14	0.079	
221	3HG1	1332.937	389.330	-1342.061	 H	14	VAL14	0.079	
222	1HG2	1333.621	387.889	-1338.000	 H	14	VAL14	0.079	
223	2HG2	1333.073	386.855	-1339.323	 H	14	VAL14	0.079	
224	3HG2	1334.756	387.442	-1339.296	 H	14	VAL14	0.079	
225	   N	1332.574	392.017	-1340.325	N.am	15	MET15	-0.416	
226	  CA	1332.254	393.111	-1341.238	C.3	15	MET15	-0.024	
227	   C	1333.284	394.211	-1341.149	C.2	15	MET15	0.597	
228	   O	1333.787	394.722	-1342.161	O.2	15	MET15	-0.568	
229	  CB	1330.832	393.656	-1340.928	C.3	15	MET15	0.034	
230	  CG	1329.671	392.658	-1341.121	C.3	15	MET15	0.002	
231	  SD	1328.097	393.524	-1341.006	S.3	15	MET15	-0.274	
232	  CE	1327.015	392.094	-1340.871	C.3	15	MET15	-0.054	
233	   H	1331.909	391.724	-1339.624	 H	15	MET15	0.272	
234	  HA	1332.280	392.724	-1342.274	 H	15	MET15	0.088	
235	 2HB	1330.630	394.535	-1341.570	 H	15	MET15	0.024	
236	 3HB	1330.797	394.048	-1339.892	 H	15	MET15	0.024	
237	 2HG	1329.713	391.872	-1340.344	 H	15	MET15	0.044	
238	 3HG	1329.734	392.144	-1342.098	 H	15	MET15	0.044	
239	 1HE	1327.159	391.407	-1341.724	 H	15	MET15	0.068	
240	 2HE	1327.225	391.541	-1339.939	 H	15	MET15	0.068	
241	 3HE	1325.958	392.409	-1340.854	 H	15	MET15	0.068	
242	   N	1333.653	394.631	-1339.986	N.am	16	ARG16	-0.348	
243	  CA	1334.649	395.695	-1339.902	C.3	16	ARG16	-0.264	
244	   C	1335.920	395.303	-1340.618	C.2	16	ARG16	0.734	
245	   O	1336.034	394.227	-1341.201	O.2	16	ARG16	-0.589	
246	  CB	1334.918	396.012	-1338.403	C.3	16	ARG16	-0.001	
247	  CG	1335.743	397.301	-1338.130	C.3	16	ARG16	0.039	
248	  CD	1335.993	397.519	-1336.629	C.3	16	ARG16	0.049	
249	  NE	1336.769	398.778	-1336.427	N.pl3	16	ARG16	-0.530	
250	  CZ	1337.160	399.260	-1335.251	C.cat	16	ARG16	0.808	
251	 NH1	1336.913	398.674	-1334.112	N.pl3	16	ARG16	-0.863	
252	 NH2	1337.824	400.372	-1335.232	N.pl3	16	ARG16	-0.863	
253	   H	1333.258	394.230	-1339.147	 H	16	ARG16	0.275	
254	  HA	1334.240	396.588	-1340.411	 H	16	ARG16	0.156	
255	 2HB	1335.415	395.135	-1337.938	 H	16	ARG16	0.033	
256	 3HB	1333.949	396.092	-1337.870	 H	16	ARG16	0.033	
257	 2HG	1335.213	398.172	-1338.567	 H	16	ARG16	0.029	
258	 3HG	1336.717	397.248	-1338.659	 H	16	ARG16	0.029	
259	 2HD	1336.542	396.644	-1336.216	 H	16	ARG16	0.069	
260	 3HD	1335.020	397.561	-1336.093	 H	16	ARG16	0.069	
261	  HE	1337.048	399.359	-1337.223	 H	16	ARG16	0.346	
262	1HH1	1336.387	397.802	-1334.198	 H	16	ARG16	0.448	
263	2HH1	1337.247	399.109	-1333.251	 H	16	ARG16	0.448	
264	1HH2	1338.010	400.816	-1336.133	 H	16	ARG16	0.448	
265	2HH2	1338.114	400.727	-1334.319	 H	16	ARG16	0.448	
@<TRIPOS>BOND
1 1 2 1
2 1 10 1
3 2 3 1
4 2 5 1
5 2 11 1
6 3 4 2
7 3 16 1
8 5 6 1
9 6 7 1
10 7 8 2
11 7 9 1
12 5 12 1
13 5 13 1
14 6 14 1
15 6 15 1
16 16 17 1
17 16 24 1
18 17 18 1
19 17 20 1
20 17 25 1
21 18 19 2
22 18 30 1
23 20 21 1
24 21 22 1
25 21 23 2
26 20 26 1
27 20 27 1
28 22 28 1
29 22 29 1
30 30 31 1
31 30 36 1
32 31 32 1
33 31 34 1
34 31 37 1
35 32 33 2
36 32 44 1
37 34 35 1
38 35 36 1
39 34 38 1
40 34 39 1
41 35 40 1
42 35 41 1
43 36 42 1
44 36 43 1
45 44 45 1
46 44 53 1
47 45 46 1
48 45 48 1
49 45 54 1
50 46 47 2
51 46 59 1
52 48 49 1
53 49 50 1
54 50 51 2
55 50 52 1
56 48 55 1
57 48 56 1
58 49 57 1
59 49 58 1
60 59 60 1
61 59 65 1
62 60 61 1
63 60 63 1
64 60 66 1
65 61 62 2
66 61 70 1
67 63 64 1
68 63 67 1
69 63 68 1
70 64 69 1
71 70 71 1
72 70 78 1
73 71 72 1
74 71 74 1
75 71 79 1
76 72 73 2
77 72 89 1
78 74 75 1
79 74 76 1
80 75 77 1
81 74 80 1
82 75 81 1
83 75 82 1
84 76 83 1
85 76 84 1
86 76 85 1
87 77 86 1
88 77 87 1
89 77 88 1
90 89 90 1
91 89 97 1
92 90 91 1
93 90 93 1
94 90 98 1
95 91 92 2
96 91 108 1
97 93 94 1
98 94 95 1
99 94 96 1
100 93 99 1
101 93 100 1
102 94 101 1
103 95 102 1
104 95 103 1
105 95 104 1
106 96 105 1
107 96 106 1
108 96 107 1
109 108 109 1
110 108 116 1
111 109 110 1
112 109 112 1
113 109 117 1
114 110 111 2
115 110 120 1
116 112 113 1
117 113 114 2
118 113 115 1
119 112 118 1
120 112 119 1
121 120 121 1
122 120 129 1
123 121 122 1
124 121 124 1
125 121 130 1
126 122 123 2
127 122 135 1
128 124 125 1
129 125 126 1
130 126 127 2
131 126 128 1
132 124 131 1
133 124 132 1
134 125 133 1
135 125 134 1
136 135 136 1
137 135 145 1
138 136 137 1
139 136 139 1
140 136 146 1
141 137 138 2
142 137 152 1
143 139 140 1
144 140 141 2
145 141 144 1
146 140 142 1
147 142 143 2
148 143 144 1
149 139 147 1
150 139 148 1
151 141 149 1
152 143 150 1
153 144 151 1
154 152 153 1
155 152 159 1
156 153 154 1
157 153 156 1
158 153 160 1
159 154 155 2
160 154 168 1
161 156 157 1
162 156 158 1
163 156 161 1
164 157 162 1
165 157 163 1
166 157 164 1
167 158 165 1
168 158 166 1
169 158 167 1
170 168 169 1
171 168 177 1
172 169 170 1
173 169 172 1
174 169 178 1
175 170 171 2
176 170 185 1
177 172 173 1
178 173 174 1
179 174 175 1
180 174 176 2
181 172 179 1
182 172 180 1
183 173 181 1
184 173 182 1
185 175 183 1
186 175 184 1
187 185 186 1
188 185 196 1
189 186 187 1
190 186 189 1
191 186 197 1
192 187 188 2
193 187 209 1
194 189 190 1
195 190 191 1
196 191 192 1
197 192 193 1
198 193 194 2
199 193 195 1
200 189 198 1
201 189 199 1
202 190 200 1
203 190 201 1
204 191 202 1
205 191 203 1
206 192 204 1
207 194 205 1
208 194 206 1
209 195 207 1
210 195 208 1
211 209 210 1
212 209 216 1
213 210 211 1
214 210 213 1
215 210 217 1
216 211 212 2
217 211 225 1
218 213 214 1
219 213 215 1
220 213 218 1
221 214 219 1
222 214 220 1
223 214 221 1
224 215 222 1
225 215 223 1
226 215 224 1
227 225 226 1
228 225 233 1
229 226 227 1
230 226 229 1
231 226 234 1
232 227 228 2
233 227 242 1
234 229 230 1
235 230 231 1
236 231 232 1
237 229 235 1
238 229 236 1
239 230 237 1
240 230 238 1
241 232 239 1
242 232 240 1
243 232 241 1
244 242 243 1
245 242 253 1
246 243 244 1
247 243 246 1
248 243 254 1
249 244 245 2
250 246 247 1
251 247 248 1
252 248 249 1
253 249 250 1
254 250 251 2
255 250 252 1
256 246 255 1
257 246 256 1
258 247 257 1
259 247 258 1
260 248 259 1
261 248 260 1
262 249 261 1
263 251 262 1
264 251 263 1
265 252 264 1
266 252 265 1
@<TRIPOS>SUBSTRUCTURE
1	GLU1	1	RESIDUE	1 ****	GLU
2	ASN2	16	RESIDUE	1 ****	ASN
3	PRO3	30	RESIDUE	1 ****	PRO
4	GLU4	44	RESIDUE	1 ****	GLU
5	SER5	59	RESIDUE	1 ****	SER
6	ILE6	70	RESIDUE	1 ****	ILE
7	LEU7	89	RESIDUE	1 ****	LEU
8	ASP8	108	RESIDUE	1 ****	ASP
9	GLU9	120	RESIDUE	1 ****	GLU
10	HIS10	135	RESIDUE	1 ****	HIS
11	VAL11	152	RESIDUE	1 ****	VAL
12	GLN12	168	RESIDUE	1 ****	GLN
13	ARG13	185	RESIDUE	1 ****	ARG
14	VAL14	209	RESIDUE	1 ****	VAL
15	MET15	225	RESIDUE	1 ****	MET
16	ARG16	242	RESIDUE	1 ****	ARG
