REMARK WARNING: 32 MAX_TORS EXCEEDED!!!
REMARK  66 active torsions:
REMARK  status: ('A' for Active; 'I' for Inactive)
REMARK    1  A    between atoms: N_1  and  CA_2 
REMARK    2  A    between atoms: CA_2  and  C_3 
REMARK    3  A    between atoms: CA_2  and  CB_5 
REMARK       I    between atoms: C_3  and  N_11 
REMARK    4  A    between atoms: CB_5  and  CG_6 
REMARK    5  A    between atoms: CG_6  and  CD_7 
REMARK    6  A    between atoms: N_11  and  CA_12 
REMARK    7  A    between atoms: CA_12  and  C_13 
REMARK    8  A    between atoms: CA_12  and  CB_15 
REMARK       I    between atoms: C_13  and  N_22 
REMARK    9  A    between atoms: CB_15  and  CG_16 
REMARK       I    between atoms: CG_16  and  ND2_17 
REMARK   10  A    between atoms: CA_23  and  C_24 
REMARK       I    between atoms: C_24  and  N_29 
REMARK   11  A    between atoms: N_29  and  CA_30 
REMARK   12  A    between atoms: CA_30  and  C_31 
REMARK   13  A    between atoms: CA_30  and  CB_33 
REMARK       I    between atoms: C_31  and  N_39 
REMARK   14  A    between atoms: CB_33  and  CG_34 
REMARK   15  A    between atoms: CG_34  and  CD_35 
REMARK   16  A    between atoms: N_39  and  CA_40 
REMARK   17  A    between atoms: CA_40  and  C_41 
REMARK   18  A    between atoms: CA_40  and  CB_43 
REMARK       I    between atoms: C_41  and  N_47 
REMARK   19  A    between atoms: CB_43  and  OG_44 
REMARK   20  A    between atoms: N_47  and  CA_48 
REMARK   21  A    between atoms: CA_48  and  C_49 
REMARK   22  A    between atoms: CA_48  and  CB_51 
REMARK       I    between atoms: C_49  and  N_56 
REMARK   23  A    between atoms: CB_51  and  CG1_52 
REMARK   24  A    between atoms: N_56  and  CA_57 
REMARK   25  A    between atoms: CA_57  and  C_58 
REMARK   26  A    between atoms: CA_57  and  CB_60 
REMARK       I    between atoms: C_58  and  N_65 
REMARK   27  A    between atoms: CB_60  and  CG_61 
REMARK   28  A    between atoms: N_65  and  CA_66 
REMARK   29  A    between atoms: CA_66  and  C_67 
REMARK   30  A    between atoms: CA_66  and  CB_69 
REMARK       I    between atoms: C_67  and  N_74 
REMARK   31  A    between atoms: CB_69  and  CG_70 
REMARK   32  A    between atoms: N_74  and  CA_75 
REMARK   33  A    between atoms: CA_75  and  C_76 
REMARK   34  A    between atoms: CA_75  and  CB_78 
REMARK       I    between atoms: C_76  and  N_84 
REMARK   35  A    between atoms: CB_78  and  CG_79 
REMARK   36  A    between atoms: CG_79  and  CD_80 
REMARK   37  A    between atoms: N_84  and  CA_85 
REMARK   38  A    between atoms: CA_85  and  C_86 
REMARK   39  A    between atoms: CA_85  and  CB_88 
REMARK       I    between atoms: C_86  and  N_96 
REMARK   40  A    between atoms: CB_88  and  CG_89 
REMARK   41  A    between atoms: N_96  and  CA_97 
REMARK   42  A    between atoms: CA_97  and  C_98 
REMARK   43  A    between atoms: CA_97  and  CB_100 
REMARK       I    between atoms: C_98  and  N_104 
REMARK   44  A    between atoms: N_104  and  CA_105 
REMARK   45  A    between atoms: CA_105  and  C_106 
REMARK   46  A    between atoms: CA_105  and  CB_108 
REMARK       I    between atoms: C_106  and  N_116 
REMARK   47  A    between atoms: CB_108  and  CG_109 
REMARK   48  A    between atoms: CG_109  and  CD_110 
REMARK       I    between atoms: CD_110  and  NE2_111 
REMARK   49  A    between atoms: N_116  and  CA_117 
REMARK   50  A    between atoms: CA_117  and  C_118 
REMARK   51  A    between atoms: CA_117  and  CB_120 
REMARK       I    between atoms: C_118  and  N_127 
REMARK   52  A    between atoms: CB_120  and  CG_121 
REMARK       I    between atoms: CG_121  and  ND2_122 
REMARK   53  A    between atoms: N_127  and  CA_128 
REMARK   54  A    between atoms: CA_128  and  C_129 
REMARK   55  A    between atoms: CA_128  and  CB_131 
REMARK       I    between atoms: C_129  and  N_135 
REMARK   56  A    between atoms: N_135  and  CA_136 
REMARK   57  A    between atoms: CA_136  and  C_137 
REMARK   58  A    between atoms: CA_136  and  CB_139 
REMARK       I    between atoms: C_137  and  N_144 
REMARK   59  A    between atoms: CB_139  and  CG_140 
REMARK   60  A    between atoms: CG_140  and  SD_141 
REMARK   61  A    between atoms: N_144  and  CA_145 
REMARK   62  A    between atoms: CA_145  and  C_146 
REMARK   63  A    between atoms: CA_145  and  CB_148 
REMARK   64  A    between atoms: CB_148  and  CG_149 
REMARK   65  A    between atoms: CG_149  and  CD_150 
REMARK   66  A    between atoms: CD_150  and  NE_151 
REMARK       I    between atoms: NE_151  and  CZ_152 
REMARK       I    between atoms: CZ_152  and  NH1_153 
ROOT
ATOM      1  CA  GLU d   9    2129.422 651.544-2202.695  0.00  0.00     0.177 C 
ENDROOT
BRANCH   1   2
ATOM      2  N   GLU d   9    2128.118 650.887-2202.750  0.00  0.00    -0.346 N 
ATOM      3  C   ASP d   8    2127.438 650.937-2203.845  0.00  0.00     0.241 C 
ATOM      4  O   ASP d   8    2127.911 651.541-2204.820  0.00  0.00    -0.271 OA
ATOM      5  H   GLU d   9    2127.755 650.401-2201.943  0.00  0.00     0.163 HD
BRANCH   3   6
ATOM      6  CA  ASP d   8    2126.091 650.258-2203.902  0.00  0.00     0.186 C 
BRANCH   6   7
ATOM      7  N   ASP d   8    2126.161 648.908-2203.348  0.00  0.00    -0.346 N 
ATOM      8  C   LEU d   7    2126.998 648.067-2203.854  0.00  0.00     0.241 C 
ATOM      9  O   LEU d   7    2127.719 648.429-2204.796  0.00  0.00    -0.271 OA
ATOM     10  H   ASP d   8    2125.563 648.638-2202.580  0.00  0.00     0.163 HD
BRANCH   8  11
ATOM     11  CA  LEU d   7    2127.070 646.672-2203.281  0.00  0.00     0.177 C 
BRANCH  11  12
ATOM     12  N   LEU d   7    2127.125 646.708-2201.822  0.00  0.00    -0.346 N 
ATOM     13  C   ILE d   6    2128.071 647.371-2201.249  0.00  0.00     0.241 C 
ATOM     14  O   ILE d   6    2128.906 647.958-2201.953  0.00  0.00    -0.271 OA
ATOM     15  H   LEU d   7    2126.433 646.221-2201.271  0.00  0.00     0.163 HD
BRANCH  13  16
ATOM     16  CA  ILE d   6    2128.128 647.409-2199.741  0.00  0.00     0.180 C 
BRANCH  16  17
ATOM     17  N   ILE d   6    2126.815 647.704-2199.175  0.00  0.00    -0.346 N 
ATOM     18  C   SER d   5    2126.211 648.787-2199.529  0.00  0.00     0.243 C 
ATOM     19  O   SER d   5    2126.759 649.541-2200.334  0.00  0.00    -0.271 OA
ATOM     20  H   ILE d   6    2126.386 647.070-2198.516  0.00  0.00     0.163 HD
BRANCH  18  21
ATOM     21  CA  SER d   5    2124.852 649.094-2198.944  0.00  0.00     0.200 C 
BRANCH  21  22
ATOM     22  N   SER d   5    2123.982 647.922-2199.003  0.00  0.00    -0.344 N 
ATOM     23  C   GLU d   4    2123.755 647.370-2200.146  0.00  0.00     0.241 C 
ATOM     24  O   GLU d   4    2124.282 647.849-2201.160  0.00  0.00    -0.271 OA
ATOM     25  H   SER d   5    2123.564 647.551-2198.162  0.00  0.00     0.163 HD
BRANCH  23  26
ATOM     26  CA  GLU d   4    2122.856 646.159-2200.208  0.00  0.00     0.177 C 
BRANCH  26  27
ATOM     27  N   GLU d   4    2123.215 645.188-2199.178  0.00  0.00    -0.346 N 
ATOM     28  C   PRO d   3    2124.420 644.728-2199.145  0.00  0.00     0.241 C 
ATOM     29  O   PRO d   3    2125.243 645.111-2199.977  0.00  0.00    -0.271 OA
ATOM     30  H   GLU d   4    2122.530 644.882-2198.501  0.00  0.00     0.163 HD
BRANCH  28  31
ATOM     31  CA  PRO d   3    2124.817 643.704-2198.068  0.00  0.00     0.179 C 
ATOM     32  N   PRO d   3    2124.365 644.114-2196.747  0.00  0.00    -0.337 N 
ATOM     33  C   ASN d   2    2124.887 645.108-2196.113  0.00  0.00     0.243 C 
ATOM     34  CD  PRO d   3    2123.287 643.321-2196.198  0.00  0.00     0.127 C 
ATOM     35  O   ASN d   2    2125.802 645.739-2196.641  0.00  0.00    -0.271 OA
ATOM     36  CG  PRO d   3    2122.829 642.502-2197.408  0.00  0.00     0.022 C 
ATOM     37  CB  PRO d   3    2124.113 642.350-2198.238  0.00  0.00     0.037 C 
BRANCH  33  38
ATOM     38  CA  ASN d   2    2124.355 645.464-2194.744  0.00  0.00     0.185 C 
BRANCH  38  39
ATOM     39  N   ASN d   2    2122.896 645.503-2194.744  0.00  0.00    -0.346 N 
ATOM     40  C   GLU d   1    2122.292 646.289-2195.569  0.00  0.00     0.242 C 
ATOM     41  O   GLU d   1    2122.967 646.988-2196.338  0.00  0.00    -0.271 OA
ATOM     42  H   ASN d   2    2122.368 644.923-2194.108  0.00  0.00     0.163 HD
BRANCH  40  43
ATOM     43  CA  GLU d   1    2120.782 646.329-2195.569  0.00  0.00     0.191 C 
BRANCH  43  44
ATOM     44  N   GLU d   1    2120.223 644.980-2195.569  0.00  0.00    -0.326 NA
ATOM     45  H   GLU d   1    2120.850 644.101-2195.569  0.00  0.00     0.180 HD
ENDBRANCH  43  44
BRANCH  43  46
ATOM     46  CB  GLU d   1    2120.259 647.114-2194.333  0.00  0.00     0.047 C 
BRANCH  46  47
ATOM     47  CG  GLU d   1    2120.734 648.599-2194.221  0.00  0.00     0.116 C 
BRANCH  47  48
ATOM     48  CD  GLU d   1    2120.310 649.403-2193.006  0.00  0.00     0.172 C 
ATOM     49  OE1 GLU d   1    2119.582 648.901-2192.128  0.00  0.00    -0.648 OA
ATOM     50  OE2 GLU d   1    2120.740 650.573-2192.934  0.00  0.00    -0.648 OA
ENDBRANCH  47  48
ENDBRANCH  46  47
ENDBRANCH  43  46
ENDBRANCH  40  43
ENDBRANCH  38  39
BRANCH  38  51
ATOM     51  CB  ASN d   2    2124.847 644.441-2193.679  0.00  0.00     0.137 C 
BRANCH  51  52
ATOM     52  CG  ASN d   2    2124.384 644.665-2192.236  0.00  0.00     0.217 C 
ATOM     53  ND2 ASN d   2    2124.978 645.580-2191.518  0.00  0.00    -0.370 N 
ATOM     54 21HD ASN d   2    2124.497 645.753-2190.631  0.00  0.00     0.159 HD
ATOM     55 22HD ASN d   2    2125.679 646.151-2191.987  0.00  0.00     0.159 HD
ATOM     56  OD1 ASN d   2    2123.462 644.031-2191.742  0.00  0.00    -0.274 OA
ENDBRANCH  51  52
ENDBRANCH  38  51
ENDBRANCH  33  38
ENDBRANCH  28  31
ENDBRANCH  26  27
BRANCH  26  57
ATOM     57  CB  GLU d   4    2121.367 646.578-2200.038  0.00  0.00     0.045 C 
BRANCH  57  58
ATOM     58  CG  GLU d   4    2120.820 647.582-2201.104  0.00  0.00     0.116 C 
BRANCH  58  59
ATOM     59  CD  GLU d   4    2119.393 648.079-2200.961  0.00  0.00     0.172 C 
ATOM     60  OE1 GLU d   4    2118.667 647.681-2200.030  0.00  0.00    -0.648 OA
ATOM     61  OE2 GLU d   4    2119.004 648.908-2201.809  0.00  0.00    -0.648 OA
ENDBRANCH  58  59
ENDBRANCH  57  58
ENDBRANCH  26  57
ENDBRANCH  23  26
ENDBRANCH  21  22
BRANCH  21  62
ATOM     62  CB  SER d   5    2124.963 649.626-2197.494  0.00  0.00     0.199 C 
BRANCH  62  63
ATOM     63  OG  SER d   5    2125.694 648.746-2196.633  0.00  0.00    -0.398 OA
ATOM     64  HG  SER d   5    2125.205 647.921-2196.582  0.00  0.00     0.209 HD
ENDBRANCH  62  63
ENDBRANCH  21  62
ENDBRANCH  18  21
ENDBRANCH  16  17
BRANCH  16  65
ATOM     65  CB  ILE d   6    2128.727 646.072-2199.141  0.00  0.00     0.013 C 
ATOM     66  CG2 ILE d   6    2130.168 645.770-2199.656  0.00  0.00     0.012 C 
BRANCH  65  67
ATOM     67  CG1 ILE d   6    2128.746 646.010-2197.580  0.00  0.00     0.002 C 
ATOM     68  CD1 ILE d   6    2129.016 644.621-2196.965  0.00  0.00     0.005 C 
ENDBRANCH  65  67
ENDBRANCH  16  65
ENDBRANCH  13  16
ENDBRANCH  11  12
BRANCH  11  69
ATOM     69  CB  LEU d   7    2125.867 645.812-2203.761  0.00  0.00     0.038 C 
BRANCH  69  70
ATOM     70  CG  LEU d   7    2125.793 644.333-2203.295  0.00  0.00    -0.020 C 
ATOM     71  CD1 LEU d   7    2124.604 643.627-2203.960  0.00  0.00     0.009 C 
ATOM     72  CD2 LEU d   7    2127.087 643.553-2203.586  0.00  0.00     0.009 C 
ENDBRANCH  69  70
ENDBRANCH  11  69
ENDBRANCH   8  11
ENDBRANCH   6   7
BRANCH   6  73
ATOM     73  CB  ASP d   8    2125.014 651.098-2203.161  0.00  0.00     0.147 C 
BRANCH  73  74
ATOM     74  CG  ASP d   8    2124.796 652.518-2203.702  0.00  0.00     0.175 C 
ATOM     75  OD1 ASP d   8    2124.860 652.716-2204.933  0.00  0.00    -0.648 OA
ATOM     76  OD2 ASP d   8    2124.604 653.445-2202.887  0.00  0.00    -0.648 OA
ENDBRANCH  73  74
ENDBRANCH   6  73
ENDBRANCH   3   6
ENDBRANCH   1   2
BRANCH   1  77
ATOM     77  C   GLU d   9    2130.339 651.015-2203.771  0.00  0.00     0.241 C 
ATOM     78  O   GLU d   9    2131.003 651.769-2204.497  0.00  0.00    -0.271 OA
ATOM     79  N   HIS d  10    2130.435 649.740-2203.940  0.00  0.00    -0.346 N 
ATOM     80  H   HIS d  10    2129.904 649.105-2203.361  0.00  0.00     0.163 HD
BRANCH  79  81
ATOM     81  CA  HIS d  10    2131.322 649.228-2204.980  0.00  0.00     0.182 C 
BRANCH  81  82
ATOM     82  C   HIS d  10    2130.955 649.792-2206.332  0.00  0.00     0.241 C 
ATOM     83  O   HIS d  10    2131.808 650.256-2207.104  0.00  0.00    -0.271 OA
ATOM     84  N   VAL d  11    2129.718 649.792-2206.695  0.00  0.00    -0.346 N 
ATOM     85  H   VAL d  11    2129.004 649.419-2206.084  0.00  0.00     0.163 HD
BRANCH  84  86
ATOM     86  CA  VAL d  11    2129.362 650.337-2208.002  0.00  0.00     0.180 C 
BRANCH  86  87
ATOM     87  C   VAL d  11    2129.828 651.767-2208.135  0.00  0.00     0.241 C 
ATOM     88  O   VAL d  11    2130.429 652.172-2209.138  0.00  0.00    -0.271 OA
ATOM     89  N   GLN d  12    2129.591 652.594-2207.173  0.00  0.00    -0.346 N 
ATOM     90  H   GLN d  12    2129.103 652.288-2206.344  0.00  0.00     0.163 HD
BRANCH  89  91
ATOM     91  CA  GLN d  12    2130.041 653.976-2207.301  0.00  0.00     0.177 C 
BRANCH  91  92
ATOM     92  C   GLN d  12    2131.530 654.043-2207.539  0.00  0.00     0.241 C 
ATOM     93  O   GLN d  12    2132.018 654.750-2208.418  0.00  0.00    -0.271 OA
ATOM     94  N   ASN d  13    2132.315 653.336-2206.798  0.00  0.00    -0.346 N 
ATOM     95  H   ASN d  13    2131.938 652.746-2206.069  0.00  0.00     0.163 HD
BRANCH  94  96
ATOM     96  CA  ASN d  13    2133.755 653.400-2207.029  0.00  0.00     0.185 C 
BRANCH  96  97
ATOM     97  C   ASN d  13    2134.091 653.028-2208.454  0.00  0.00     0.241 C 
ATOM     98  O   ASN d  13    2134.861 653.699-2209.139  0.00  0.00    -0.271 OA
ATOM     99  N   VAL d  14    2133.554 651.973-2208.968  0.00  0.00    -0.346 N 
ATOM    100  H   VAL d  14    2132.919 651.405-2208.426  0.00  0.00     0.163 HD
BRANCH  99 101
ATOM    101  CA  VAL d  14    2133.879 651.613-2210.345  0.00  0.00     0.180 C 
BRANCH 101 102
ATOM    102  C   VAL d  14    2133.550 652.743-2211.292  0.00  0.00     0.241 C 
ATOM    103  O   VAL d  14    2134.344 653.123-2212.161  0.00  0.00    -0.271 OA
ATOM    104  N   MET d  15    2132.406 653.330-2211.191  0.00  0.00    -0.346 N 
ATOM    105  H   MET d  15    2131.740 653.038-2210.489  0.00  0.00     0.163 HD
BRANCH 104 106
ATOM    106  CA  MET d  15    2132.086 654.422-2212.105  0.00  0.00     0.177 C 
BRANCH 106 107
ATOM    107  C   MET d  15    2133.117 655.521-2212.018  0.00  0.00     0.241 C 
ATOM    108  O   MET d  15    2133.620 656.031-2213.031  0.00  0.00    -0.271 OA
ATOM    109  N   ARG d  16    2133.486 655.943-2210.856  0.00  0.00    -0.347 N 
ATOM    110  H   ARG d  16    2133.091 655.544-2210.017  0.00  0.00     0.163 HD
BRANCH 109 111
ATOM    111  CA  ARG d  16    2134.483 657.007-2210.773  0.00  0.00     0.162 C 
BRANCH 111 112
ATOM    112  C   ARG d  16    2135.753 656.612-2211.489  0.00  0.00     0.219 C 
ATOM    113  O   ARG d  16    2135.867 655.535-2212.069  0.00  0.00    -0.287 OA
ENDBRANCH 111 112
BRANCH 111 114
ATOM    114  CB  ARG d  16    2134.751 657.326-2209.275  0.00  0.00     0.035 C 
BRANCH 114 115
ATOM    115  CG  ARG d  16    2135.578 658.615-2209.003  0.00  0.00     0.023 C 
BRANCH 115 116
ATOM    116  CD  ARG d  16    2135.827 658.835-2207.502  0.00  0.00     0.138 C 
BRANCH 116 117
ATOM    117  NE  ARG d  16    2136.604 660.094-2207.302  0.00  0.00    -0.227 N 
ATOM    118  CZ  ARG d  16    2136.995 660.577-2206.127  0.00  0.00     0.665 C 
ATOM    119  NH1 ARG d  16    2136.747 659.994-2204.988  0.00  0.00    -0.235 N 
ATOM    120  NH2 ARG d  16    2137.659 661.689-2206.109  0.00  0.00    -0.235 N 
ATOM    121 11HH ARG d  16    2136.220 659.121-2205.072  0.00  0.00     0.174 HD
ATOM    122 12HH ARG d  16    2137.081 660.430-2204.127  0.00  0.00     0.174 HD
ATOM    123 21HH ARG d  16    2137.845 662.132-2207.011  0.00  0.00     0.174 HD
ATOM    124 22HH ARG d  16    2137.950 662.045-2205.197  0.00  0.00     0.174 HD
ATOM    125  HE  ARG d  16    2136.883 660.674-2208.100  0.00  0.00     0.177 HD
ENDBRANCH 116 117
ENDBRANCH 115 116
ENDBRANCH 114 115
ENDBRANCH 111 114
ENDBRANCH 109 111
ENDBRANCH 106 107
BRANCH 106 126
ATOM    126  CB  MET d  15    2130.665 654.969-2211.797  0.00  0.00     0.045 C 
BRANCH 126 127
ATOM    127  CG  MET d  15    2129.503 653.971-2211.988  0.00  0.00     0.076 C 
BRANCH 127 128
ATOM    128  SD  MET d  15    2127.929 654.838-2211.875  0.00  0.00    -0.173 SA
ATOM    129  CE  MET d  15    2126.847 653.410-2211.738  0.00  0.00     0.089 C 
ENDBRANCH 127 128
ENDBRANCH 126 127
ENDBRANCH 106 126
ENDBRANCH 104 106
ENDBRANCH 101 102
BRANCH 101 130
ATOM    130  CB  VAL d  14    2133.105 650.296-2210.751  0.00  0.00     0.009 C 
ATOM    131  CG1 VAL d  14    2133.195 649.877-2212.245  0.00  0.00     0.012 C 
ATOM    132  CG2 VAL d  14    2133.536 649.044-2209.950  0.00  0.00     0.012 C 
ENDBRANCH 101 130
ENDBRANCH  99 101
ENDBRANCH  96  97
BRANCH  96 133
ATOM    133  CB  ASN d  13    2134.483 652.458-2206.027  0.00  0.00     0.137 C 
BRANCH 133 134
ATOM    134  CG  ASN d  13    2134.236 652.708-2204.536  0.00  0.00     0.217 C 
ATOM    135  ND2 ASN d  13    2134.864 653.690-2203.948  0.00  0.00    -0.370 N 
ATOM    136 21HD ASN d  13    2134.516 653.865-2203.002  0.00  0.00     0.159 HD
ATOM    137 22HD ASN d  13    2135.438 654.291-2204.539  0.00  0.00     0.159 HD
ATOM    138  OD1 ASN d  13    2133.455 652.031-2203.883  0.00  0.00    -0.274 OA
ENDBRANCH 133 134
ENDBRANCH  96 133
ENDBRANCH  94  96
ENDBRANCH  91  92
BRANCH  91 139
ATOM    139  CB  GLN d  12    2129.650 654.745-2206.019  0.00  0.00     0.044 C 
BRANCH 139 140
ATOM    140  CG  GLN d  12    2130.011 656.266-2205.988  0.00  0.00     0.105 C 
BRANCH 140 141
ATOM    141  CD  GLN d  12    2129.710 657.081-2204.724  0.00  0.00     0.215 C 
ATOM    142  NE2 GLN d  12    2129.143 656.505-2203.695  0.00  0.00    -0.370 N 
ATOM    143 21HE GLN d  12    2129.036 657.100-2202.871  0.00  0.00     0.159 HD
ATOM    144 22HE GLN d  12    2128.979 655.502-2203.797  0.00  0.00     0.159 HD
ATOM    145  OE1 GLN d  12    2130.012 658.261-2204.647  0.00  0.00    -0.274 OA
ENDBRANCH 140 141
ENDBRANCH 139 140
ENDBRANCH  91 139
ENDBRANCH  89  91
ENDBRANCH  86  87
BRANCH  86 146
ATOM    146  CB  VAL d  11    2127.801 650.231-2208.221  0.00  0.00     0.009 C 
ATOM    147  CG1 VAL d  11    2127.233 650.935-2209.484  0.00  0.00     0.012 C 
ATOM    148  CG2 VAL d  11    2127.276 648.777-2208.293  0.00  0.00     0.012 C 
ENDBRANCH  86 146
ENDBRANCH  84  86
ENDBRANCH  81  82
BRANCH  81 149
ATOM    149  CB  HIS d  10    2131.158 647.699-2204.975  0.00  0.00     0.095 C 
BRANCH 149 150
ATOM    150  CG  HIS d  10    2132.443 646.988-2204.667  0.00  0.00     0.053 A 
ATOM    151  CD2 HIS d  10    2132.824 646.654-2203.374  0.00  0.00     0.116 A 
ATOM    152  NE2 HIS d  10    2134.039 646.021-2203.441  0.00  0.00    -0.359 N 
ATOM    153  CE1 HIS d  10    2134.301 646.023-2204.776  0.00  0.00     0.207 A 
ATOM    154  2HE HIS d  10    2134.606 645.644-2202.668  0.00  0.00     0.166 HD
ATOM    155  ND1 HIS d  10    2133.395 646.581-2205.599  0.00  0.00    -0.247 NA
ENDBRANCH 149 150
ENDBRANCH  81 149
ENDBRANCH  79  81
ENDBRANCH   1  77
BRANCH   1 156
ATOM    156  CB  GLU d   9    2130.055 651.337-2201.290  0.00  0.00     0.045 C 
BRANCH 156 157
ATOM    157  CG  GLU d   9    2131.438 652.029-2201.061  0.00  0.00     0.116 C 
BRANCH 157 158
ATOM    158  CD  GLU d   9    2132.140 651.815-2199.733  0.00  0.00     0.172 C 
ATOM    159  OE1 GLU d   9    2131.618 651.125-2198.836  0.00  0.00    -0.648 OA
ATOM    160  OE2 GLU d   9    2133.260 652.353-2199.602  0.00  0.00    -0.648 OA
ENDBRANCH 157 158
ENDBRANCH 156 157
ENDBRANCH   1 156
TORSDOF 66
