@<TRIPOS>MOLECULE
12-16
265 266 16              
SMALL
USER_CHARGES
@<TRIPOS>ATOM
1	   N	1968.608	594.266	-2027.160	N.3	1	GLU1	-0.516	
2	  CA	1969.167	595.615	-2027.160	C.3	1	GLU1	0.040	
3	   C	1970.676	595.575	-2027.160	C.2	1	GLU1	0.537	
4	   O	1971.352	596.274	-2027.928	O.2	1	GLU1	-0.582	
5	  CB	1968.644	596.400	-2025.923	C.3	1	GLU1	0.056	
6	  CG	1969.119	597.885	-2025.812	C.3	1	GLU1	0.014	
7	  CD	1968.695	598.689	-2024.597	C.2	1	GLU1	0.805	
8	 OE1	1967.967	598.187	-2023.719	O.co2	1	GLU1	-0.819	
9	 OE2	1969.125	599.859	-2024.525	O.co2	1	GLU1	-0.819	
10	   H	1969.235	593.387	-2027.160	 H	1	GLU1	0.294	
11	  HA	1968.841	596.133	-2028.080	 H	1	GLU1	0.111	
12	 2HB	1968.933	595.869	-2024.993	 H	1	GLU1	-0.017	
13	 3HB	1967.537	596.390	-2025.910	 H	1	GLU1	-0.017	
14	 2HG	1968.809	598.470	-2026.693	 H	1	GLU1	-0.043	
15	 3HG	1970.219	597.952	-2025.783	 H	1	GLU1	-0.043	
16	   N	1971.281	594.789	-2026.335	N.am	2	ASN2	-0.416	
17	  CA	1972.740	594.751	-2026.335	C.3	2	ASN2	0.014	
18	   C	1973.271	594.395	-2027.703	C.2	2	ASN2	0.597	
19	   O	1974.186	595.026	-2028.232	O.2	2	ASN2	-0.568	
20	  CB	1973.232	593.728	-2025.270	C.3	2	ASN2	-0.204	
21	  CG	1972.769	593.952	-2023.827	C.2	2	ASN2	0.713	
22	 ND2	1973.363	594.867	-2023.109	N.pl3	2	ASN2	-0.919	
23	 OD1	1971.848	593.318	-2023.333	O.2	2	ASN2	-0.593	
24	   H	1970.753	594.210	-2025.698	 H	2	ASN2	0.272	
25	  HA	1973.118	595.761	-2026.089	 H	2	ASN2	0.105	
26	 2HB	1974.337	593.669	-2025.274	 H	2	ASN2	0.080	
27	 3HB	1972.903	592.710	-2025.556	 H	2	ASN2	0.080	
28	1HD2	1972.883	595.039	-2022.222	 H	2	ASN2	0.420	
29	2HD2	1974.065	595.438	-2023.578	 H	2	ASN2	0.420	
30	   N	1972.750	593.400	-2028.337	N.am	3	PRO3	-0.255	
31	  CA	1973.202	592.991	-2029.659	C.3	3	PRO3	-0.027	
32	   C	1972.804	594.014	-2030.736	C.2	3	PRO3	0.590	
33	   O	1973.627	594.397	-2031.567	O.2	3	PRO3	-0.575	
34	  CB	1972.498	591.636	-2029.828	C.3	3	PRO3	-0.007	
35	  CG	1971.214	591.788	-2028.998	C.3	3	PRO3	0.019	
36	  CD	1971.672	592.607	-2027.788	C.3	3	PRO3	0.019	
37	  HA	1974.287	592.871	-2029.673	 H	3	PRO3	0.064	
38	 2HB	1973.120	590.855	-2029.387	 H	3	PRO3	0.025	
39	 3HB	1972.299	591.388	-2030.874	 H	3	PRO3	0.025	
40	 2HG	1970.787	590.826	-2028.707	 H	3	PRO3	0.021	
41	 3HG	1970.477	592.359	-2029.565	 H	3	PRO3	0.021	
42	 2HD	1972.061	591.957	-2027.001	 H	3	PRO3	0.039	
43	 3HD	1970.875	593.243	-2027.395	 H	3	PRO3	0.039	
44	   N	1971.599	594.474	-2030.768	N.am	4	GLU4	-0.516	
45	  CA	1971.239	595.445	-2031.798	C.3	4	GLU4	0.040	
46	   C	1972.138	596.656	-2031.737	C.2	4	GLU4	0.537	
47	   O	1972.665	597.136	-2032.751	O.2	4	GLU4	-0.582	
48	  CB	1969.751	595.864	-2031.627	C.3	4	GLU4	0.056	
49	  CG	1969.203	596.868	-2032.693	C.3	4	GLU4	0.014	
50	  CD	1967.776	597.365	-2032.549	C.2	4	GLU4	0.805	
51	 OE1	1967.050	596.966	-2031.619	O.co2	4	GLU4	-0.819	
52	 OE2	1967.386	598.194	-2033.398	O.co2	4	GLU4	-0.819	
53	   H	1970.915	594.168	-2030.091	 H	4	GLU4	0.294	
54	  HA	1971.370	594.975	-2032.789	 H	4	GLU4	0.111	
55	 2HB	1969.598	596.304	-2030.621	 H	4	GLU4	-0.017	
56	 3HB	1969.103	594.966	-2031.634	 H	4	GLU4	-0.017	
57	 2HG	1969.284	596.453	-2033.711	 H	4	GLU4	-0.043	
58	 3HG	1969.791	597.800	-2032.704	 H	4	GLU4	-0.043	
59	   N	1972.366	597.209	-2030.593	N.am	5	SER5	-0.416	
60	  CA	1973.235	598.380	-2030.535	C.3	5	SER5	-0.025	
61	   C	1974.594	598.075	-2031.121	C.2	5	SER5	0.597	
62	   O	1975.141	598.828	-2031.926	O.2	5	SER5	-0.568	
63	  CB	1973.347	598.913	-2029.084	C.3	5	SER5	0.212	
64	  OG	1974.078	598.034	-2028.223	O.3	5	SER5	-0.655	
65	   H	1971.949	596.838	-2029.752	 H	5	SER5	0.272	
66	  HA	1972.786	599.171	-2031.164	 H	5	SER5	0.084	
67	 2HB	1972.347	599.106	-2028.651	 H	5	SER5	0.035	
68	 3HB	1973.852	599.898	-2029.087	 H	5	SER5	0.035	
69	  HG	1973.590	597.209	-2028.173	 H	5	SER5	0.428	
70	   N	1975.199	596.992	-2030.766	N.am	6	ILE6	-0.416	
71	  CA	1976.512	596.697	-2031.333	C.3	6	ILE6	-0.060	
72	   C	1976.455	596.660	-2032.840	C.2	6	ILE6	0.597	
73	   O	1977.289	597.247	-2033.544	O.2	6	ILE6	-0.568	
74	  CB	1977.112	595.361	-2030.733	C.3	6	ILE6	0.130	
75	 CG1	1977.131	595.299	-2029.172	C.3	6	ILE6	-0.043	
76	 CG2	1978.553	595.059	-2031.248	C.3	6	ILE6	-0.320	
77	 CD1	1977.401	593.910	-2028.557	C.3	6	ILE6	-0.066	
78	   H	1974.771	596.357	-2030.107	 H	6	ILE6	0.272	
79	  HA	1977.186	597.531	-2031.065	 H	6	ILE6	0.087	
80	  HB	1976.454	594.535	-2031.077	 H	6	ILE6	0.019	
81	2HG1	1976.149	595.619	-2028.776	 H	6	ILE6	0.024	
82	3HG1	1977.847	596.041	-2028.767	 H	6	ILE6	0.024	
83	1HG2	1978.612	594.966	-2032.346	 H	6	ILE6	0.088	
84	2HG2	1979.275	595.842	-2030.946	 H	6	ILE6	0.088	
85	3HG2	1978.943	594.097	-2030.869	 H	6	ILE6	0.088	
86	1HD1	1976.673	593.155	-2028.911	 H	6	ILE6	0.019	
87	2HD1	1978.412	593.531	-2028.792	 H	6	ILE6	0.019	
88	3HD1	1977.325	593.939	-2027.454	 H	6	ILE6	0.019	
89	   N	1975.509	595.996	-2033.414	N.am	7	LEU7	-0.416	
90	  CA	1975.454	595.960	-2034.873	C.3	7	LEU7	-0.052	
91	   C	1975.381	597.355	-2035.445	C.2	7	LEU7	0.597	
92	   O	1976.102	597.718	-2036.387	O.2	7	LEU7	-0.568	
93	  CB	1974.251	595.099	-2035.353	C.3	7	LEU7	-0.110	
94	  CG	1974.179	593.620	-2034.886	C.3	7	LEU7	0.353	
95	 CD1	1972.989	592.914	-2035.552	C.3	7	LEU7	-0.412	
96	 CD2	1975.472	592.841	-2035.178	C.3	7	LEU7	-0.412	
97	   H	1974.817	595.509	-2032.863	 H	7	LEU7	0.272	
98	  HA	1976.396	595.520	-2035.247	 H	7	LEU7	0.092	
99	 2HB	1974.228	595.115	-2036.460	 H	7	LEU7	0.046	
100	 3HB	1973.311	595.602	-2035.049	 H	7	LEU7	0.046	
101	  HG	1974.009	593.612	-2033.789	 H	7	LEU7	-0.036	
102	1HD1	1972.032	593.423	-2035.329	 H	7	LEU7	0.100	
103	2HD1	1973.088	592.874	-2036.653	 H	7	LEU7	0.100	
104	3HD1	1972.882	591.873	-2035.196	 H	7	LEU7	0.100	
105	1HD2	1975.748	592.871	-2036.248	 H	7	LEU7	0.100	
106	2HD2	1976.326	593.253	-2034.607	 H	7	LEU7	0.100	
107	3HD2	1975.391	591.779	-2034.882	 H	7	LEU7	0.100	
108	   N	1974.544	598.196	-2034.939	N.am	8	ASP8	-0.516	
109	  CA	1974.473	599.545	-2035.492	C.3	8	ASP8	0.038	
110	   C	1975.820	600.225	-2035.435	C.2	8	ASP8	0.537	
111	   O	1976.292	600.831	-2036.409	O.2	8	ASP8	-0.582	
112	  CB	1973.395	600.384	-2034.750	C.3	8	ASP8	-0.030	
113	  CG	1973.176	601.805	-2035.290	C.2	8	ASP8	0.799	
114	 OD1	1973.240	602.004	-2036.521	O.co2	8	ASP8	-0.801	
115	 OD2	1972.984	602.730	-2034.475	O.co2	8	ASP8	-0.801	
116	   H	1973.946	597.924	-2034.171	 H	8	ASP8	0.294	
117	  HA	1974.191	599.467	-2036.559	 H	8	ASP8	0.088	
118	 2HB	1973.652	600.467	-2033.678	 H	8	ASP8	-0.012	
119	 3HB	1972.416	599.879	-2034.783	 H	8	ASP8	-0.012	
120	   N	1976.500	600.175	-2034.339	N.am	9	GLU9	-0.516	
121	  CA	1977.802	600.833	-2034.284	C.3	9	GLU9	0.040	
122	   C	1978.720	600.306	-2035.360	C.2	9	GLU9	0.537	
123	   O	1979.384	601.061	-2036.086	O.2	9	GLU9	-0.582	
124	  CB	1978.436	600.626	-2032.879	C.3	9	GLU9	0.056	
125	  CG	1979.818	601.319	-2032.649	C.3	9	GLU9	0.014	
126	  CD	1980.520	601.105	-2031.321	C.2	9	GLU9	0.805	
127	 OE1	1979.999	600.414	-2030.425	O.co2	9	GLU9	-0.819	
128	 OE2	1981.639	601.644	-2031.190	O.co2	9	GLU9	-0.819	
129	   H	1976.137	599.689	-2033.532	 H	9	GLU9	0.294	
130	  HA	1977.660	601.915	-2034.459	 H	9	GLU9	0.111	
131	 2HB	1978.549	599.541	-2032.676	 H	9	GLU9	-0.017	
132	 3HB	1977.739	600.979	-2032.094	 H	9	GLU9	-0.017	
133	 2HG	1979.746	602.409	-2032.789	 H	9	GLU9	-0.043	
134	 3HG	1980.565	600.974	-2033.384	 H	9	GLU9	-0.043	
135	   N	1978.818	599.031	-2035.530	N.am	10	HIS10	-0.416	
136	  CA	1979.706	598.521	-2036.571	C.3	10	HIS10	-0.058	
137	   C	1979.338	599.085	-2037.922	C.2	10	HIS10	0.597	
138	   O	1980.190	599.551	-2038.693	O.2	10	HIS10	-0.568	
139	  CB	1979.542	596.992	-2036.566	C.3	10	HIS10	-0.007	
140	  CG	1980.828	596.282	-2036.258	C.2	10	HIS10	0.187	
141	 CD2	1981.210	595.946	-2034.966	C.2	10	HIS10	-0.221	
142	 ND1	1981.780	595.877	-2037.191	N.2	10	HIS10	-0.543	
143	 CE1	1982.687	595.319	-2036.368	C.2	10	HIS10	0.163	
144	 NE2	1982.425	595.315	-2035.033	N.pl3	10	HIS10	-0.280	
145	   H	1978.287	598.395	-2034.952	 H	10	HIS10	0.272	
146	  HA	1980.724	598.878	-2036.345	 H	10	HIS10	0.136	
147	 2HB	1979.177	596.625	-2037.546	 H	10	HIS10	0.037	
148	 3HB	1978.787	596.654	-2035.826	 H	10	HIS10	0.037	
149	 2HD	1980.624	596.161	-2034.077	 H	10	HIS10	0.186	
150	 1HE	1983.578	594.898	-2036.815	 H	10	HIS10	0.144	
151	 2HE	1982.992	594.938	-2034.260	 H	10	HIS10	0.334	
152	   N	1978.100	599.084	-2038.284	N.am	11	VAL11	-0.416	
153	  CA	1977.745	599.630	-2039.591	C.3	11	VAL11	-0.087	
154	   C	1978.208	601.061	-2039.723	C.2	11	VAL11	0.597	
155	   O	1978.808	601.466	-2040.726	O.2	11	VAL11	-0.568	
156	  CB	1976.183	599.522	-2039.810	C.3	11	VAL11	0.299	
157	 CG1	1975.614	600.226	-2041.073	C.3	11	VAL11	-0.319	
158	 CG2	1975.660	598.068	-2039.883	C.3	11	VAL11	-0.319	
159	   H	1977.388	598.710	-2037.674	 H	11	VAL11	0.272	
160	  HA	1978.264	599.048	-2040.374	 H	11	VAL11	0.097	
161	  HB	1975.696	600.002	-2038.934	 H	11	VAL11	-0.030	
162	1HG1	1976.053	599.835	-2042.010	 H	11	VAL11	0.079	
163	2HG1	1974.515	600.118	-2041.154	 H	11	VAL11	0.079	
164	3HG1	1975.791	601.319	-2041.063	 H	11	VAL11	0.079	
165	1HG2	1975.950	597.481	-2038.993	 H	11	VAL11	0.079	
166	2HG2	1974.554	598.030	-2039.926	 H	11	VAL11	0.079	
167	3HG2	1976.042	597.528	-2040.770	 H	11	VAL11	0.079	
168	   N	1977.971	601.886	-2038.760	N.am	12	GLN12	-0.416	
169	  CA	1978.418	603.269	-2038.887	C.3	12	GLN12	-0.003	
170	   C	1979.908	603.338	-2039.126	C.2	12	GLN12	0.597	
171	   O	1980.394	604.047	-2040.005	O.2	12	GLN12	-0.568	
172	  CB	1978.027	604.036	-2037.604	C.3	12	GLN12	-0.004	
173	  CG	1978.386	605.558	-2037.573	C.3	12	GLN12	-0.064	
174	  CD	1978.083	606.371	-2036.308	C.2	12	GLN12	0.695	
175	 NE2	1977.517	605.794	-2035.279	N.pl3	12	GLN12	-0.941	
176	 OE1	1978.384	607.552	-2036.230	O.2	12	GLN12	-0.609	
177	   H	1977.482	601.579	-2037.931	 H	12	GLN12	0.272	
178	  HA	1977.918	603.726	-2039.762	 H	12	GLN12	0.085	
179	 2HB	1978.504	603.536	-2036.735	 H	12	GLN12	0.017	
180	 3HB	1976.937	603.928	-2037.441	 H	12	GLN12	0.017	
181	 2HG	1977.908	606.079	-2038.424	 H	12	GLN12	0.035	
182	 3HG	1979.469	605.701	-2037.739	 H	12	GLN12	0.035	
183	1HE2	1977.410	606.388	-2034.455	 H	12	GLN12	0.425	
184	2HE2	1977.354	604.791	-2035.383	 H	12	GLN12	0.425	
185	   N	1980.693	602.632	-2038.385	N.am	13	ARG13	-0.348	
186	  CA	1982.134	602.699	-2038.617	C.3	13	ARG13	-0.264	
187	   C	1982.469	602.328	-2040.042	C.2	13	ARG13	0.734	
188	   O	1983.237	603.000	-2040.726	O.2	13	ARG13	-0.589	
189	  CB	1982.848	601.760	-2037.603	C.3	13	ARG13	-0.001	
190	  CG	1984.393	601.914	-2037.523	C.3	13	ARG13	0.039	
191	  CD	1985.021	600.927	-2036.525	C.3	13	ARG13	0.049	
192	  NE	1986.498	601.135	-2036.475	N.pl3	13	ARG13	-0.530	
193	  CZ	1987.347	600.444	-2035.721	C.cat	13	ARG13	0.808	
194	 NH1	1986.983	599.479	-2034.923	N.pl3	13	ARG13	-0.863	
195	 NH2	1988.606	600.744	-2035.778	N.pl3	13	ARG13	-0.863	
196	   H	1980.318	602.041	-2037.657	 H	13	ARG13	0.275	
197	  HA	1982.457	603.745	-2038.458	 H	13	ARG13	0.156	
198	 2HB	1982.582	600.709	-2037.842	 H	13	ARG13	0.033	
199	 3HB	1982.423	601.926	-2036.592	 H	13	ARG13	0.033	
200	 2HG	1984.640	602.959	-2037.243	 H	13	ARG13	0.029	
201	 3HG	1984.843	601.759	-2038.524	 H	13	ARG13	0.029	
202	 2HD	1984.777	599.887	-2036.834	 H	13	ARG13	0.069	
203	 3HD	1984.564	601.072	-2035.523	 H	13	ARG13	0.069	
204	  HE	1986.948	601.858	-2037.046	 H	13	ARG13	0.346	
205	1HH1	1985.977	599.292	-2034.926	 H	13	ARG13	0.448	
206	2HH1	1987.696	598.996	-2034.375	 H	13	ARG13	0.448	
207	1HH2	1988.873	601.502	-2036.409	 H	13	ARG13	0.448	
208	2HH2	1989.242	600.203	-2035.189	 H	13	ARG13	0.448	
209	   N	1981.934	601.273	-2040.556	N.am	14	VAL14	-0.416	
210	  CA	1982.259	600.914	-2041.934	C.3	14	VAL14	-0.087	
211	   C	1981.927	602.044	-2042.879	C.2	14	VAL14	0.597	
212	   O	1982.720	602.426	-2043.749	O.2	14	VAL14	-0.568	
213	  CB	1981.487	599.596	-2042.341	C.3	14	VAL14	0.299	
214	 CG1	1981.576	599.178	-2043.834	C.3	14	VAL14	-0.319	
215	 CG2	1981.920	598.344	-2041.541	C.3	14	VAL14	-0.319	
216	   H	1981.300	600.704	-2040.014	 H	14	VAL14	0.272	
217	  HA	1983.347	600.738	-2042.009	 H	14	VAL14	0.097	
218	  HB	1980.411	599.767	-2042.124	 H	14	VAL14	-0.030	
219	1HG1	1982.617	599.002	-2044.163	 H	14	VAL14	0.079	
220	2HG1	1981.004	598.255	-2044.047	 H	14	VAL14	0.079	
221	3HG1	1981.146	599.941	-2044.512	 H	14	VAL14	0.079	
222	1HG2	1981.834	598.503	-2040.450	 H	14	VAL14	0.079	
223	2HG2	1981.285	597.467	-2041.773	 H	14	VAL14	0.079	
224	3HG2	1982.968	598.055	-2041.747	 H	14	VAL14	0.079	
225	   N	1980.782	602.629	-2042.777	N.am	15	MET15	-0.416	
226	  CA	1980.460	603.722	-2043.690	C.3	15	MET15	-0.024	
227	   C	1981.490	604.822	-2043.602	C.2	15	MET15	0.597	
228	   O	1981.991	605.334	-2044.615	O.2	15	MET15	-0.568	
229	  CB	1979.039	604.266	-2043.380	C.3	15	MET15	0.034	
230	  CG	1977.877	603.266	-2043.572	C.3	15	MET15	0.002	
231	  SD	1976.303	604.131	-2043.457	S.3	15	MET15	-0.274	
232	  CE	1975.223	602.700	-2043.321	C.3	15	MET15	-0.054	
233	   H	1980.118	602.335	-2042.075	 H	15	MET15	0.272	
234	  HA	1980.486	603.334	-2044.726	 H	15	MET15	0.088	
235	 2HB	1978.835	605.144	-2044.022	 H	15	MET15	0.024	
236	 3HB	1979.003	604.658	-2042.344	 H	15	MET15	0.024	
237	 2HG	1977.922	602.481	-2042.795	 H	15	MET15	0.044	
238	 3HG	1977.941	602.751	-2044.548	 H	15	MET15	0.044	
239	 1HE	1975.367	602.012	-2044.173	 H	15	MET15	0.068	
240	 2HE	1975.433	602.147	-2042.388	 H	15	MET15	0.068	
241	 3HE	1974.165	603.014	-2043.303	 H	15	MET15	0.068	
242	   N	1981.858	605.243	-2042.440	N.am	16	ARG16	-0.348	
243	  CA	1982.854	606.308	-2042.356	C.3	16	ARG16	-0.264	
244	   C	1984.124	605.917	-2043.073	C.2	16	ARG16	0.734	
245	   O	1984.239	604.841	-2043.655	O.2	16	ARG16	-0.589	
246	  CB	1983.123	606.626	-2040.858	C.3	16	ARG16	-0.001	
247	  CG	1983.947	607.916	-2040.585	C.3	16	ARG16	0.039	
248	  CD	1984.197	608.135	-2039.084	C.3	16	ARG16	0.049	
249	  NE	1984.971	609.395	-2038.883	N.pl3	16	ARG16	-0.530	
250	  CZ	1985.363	609.877	-2037.707	C.cat	16	ARG16	0.808	
251	 NH1	1985.116	609.292	-2036.568	N.pl3	16	ARG16	-0.863	
252	 NH2	1986.026	610.990	-2037.688	N.pl3	16	ARG16	-0.863	
253	   H	1981.464	604.843	-2041.601	 H	16	ARG16	0.275	
254	  HA	1982.443	607.201	-2042.866	 H	16	ARG16	0.156	
255	 2HB	1983.621	605.750	-2040.392	 H	16	ARG16	0.033	
256	 3HB	1982.154	606.706	-2040.324	 H	16	ARG16	0.033	
257	 2HG	1983.415	608.786	-2041.022	 H	16	ARG16	0.029	
258	 3HG	1984.920	607.864	-2041.114	 H	16	ARG16	0.029	
259	 2HD	1984.746	607.261	-2038.671	 H	16	ARG16	0.069	
260	 3HD	1983.224	608.177	-2038.548	 H	16	ARG16	0.069	
261	  HE	1985.249	609.976	-2039.680	 H	16	ARG16	0.346	
262	1HH1	1984.591	608.419	-2036.653	 H	16	ARG16	0.448	
263	2HH1	1985.450	609.728	-2035.707	 H	16	ARG16	0.448	
264	1HH2	1986.210	611.434	-2038.590	 H	16	ARG16	0.448	
265	2HH2	1986.316	611.345	-2036.776	 H	16	ARG16	0.448	
@<TRIPOS>BOND
1 1 2 1
2 1 10 1
3 2 3 1
4 2 5 1
5 2 11 1
6 3 4 2
7 3 16 1
8 5 6 1
9 6 7 1
10 7 8 2
11 7 9 1
12 5 12 1
13 5 13 1
14 6 14 1
15 6 15 1
16 16 17 1
17 16 24 1
18 17 18 1
19 17 20 1
20 17 25 1
21 18 19 2
22 18 30 1
23 20 21 1
24 21 22 1
25 21 23 2
26 20 26 1
27 20 27 1
28 22 28 1
29 22 29 1
30 30 31 1
31 30 36 1
32 31 32 1
33 31 34 1
34 31 37 1
35 32 33 2
36 32 44 1
37 34 35 1
38 35 36 1
39 34 38 1
40 34 39 1
41 35 40 1
42 35 41 1
43 36 42 1
44 36 43 1
45 44 45 1
46 44 53 1
47 45 46 1
48 45 48 1
49 45 54 1
50 46 47 2
51 46 59 1
52 48 49 1
53 49 50 1
54 50 51 2
55 50 52 1
56 48 55 1
57 48 56 1
58 49 57 1
59 49 58 1
60 59 60 1
61 59 65 1
62 60 61 1
63 60 63 1
64 60 66 1
65 61 62 2
66 61 70 1
67 63 64 1
68 63 67 1
69 63 68 1
70 64 69 1
71 70 71 1
72 70 78 1
73 71 72 1
74 71 74 1
75 71 79 1
76 72 73 2
77 72 89 1
78 74 75 1
79 74 76 1
80 75 77 1
81 74 80 1
82 75 81 1
83 75 82 1
84 76 83 1
85 76 84 1
86 76 85 1
87 77 86 1
88 77 87 1
89 77 88 1
90 89 90 1
91 89 97 1
92 90 91 1
93 90 93 1
94 90 98 1
95 91 92 2
96 91 108 1
97 93 94 1
98 94 95 1
99 94 96 1
100 93 99 1
101 93 100 1
102 94 101 1
103 95 102 1
104 95 103 1
105 95 104 1
106 96 105 1
107 96 106 1
108 96 107 1
109 108 109 1
110 108 116 1
111 109 110 1
112 109 112 1
113 109 117 1
114 110 111 2
115 110 120 1
116 112 113 1
117 113 114 2
118 113 115 1
119 112 118 1
120 112 119 1
121 120 121 1
122 120 129 1
123 121 122 1
124 121 124 1
125 121 130 1
126 122 123 2
127 122 135 1
128 124 125 1
129 125 126 1
130 126 127 2
131 126 128 1
132 124 131 1
133 124 132 1
134 125 133 1
135 125 134 1
136 135 136 1
137 135 145 1
138 136 137 1
139 136 139 1
140 136 146 1
141 137 138 2
142 137 152 1
143 139 140 1
144 140 141 2
145 141 144 1
146 140 142 1
147 142 143 2
148 143 144 1
149 139 147 1
150 139 148 1
151 141 149 1
152 143 150 1
153 144 151 1
154 152 153 1
155 152 159 1
156 153 154 1
157 153 156 1
158 153 160 1
159 154 155 2
160 154 168 1
161 156 157 1
162 156 158 1
163 156 161 1
164 157 162 1
165 157 163 1
166 157 164 1
167 158 165 1
168 158 166 1
169 158 167 1
170 168 169 1
171 168 177 1
172 169 170 1
173 169 172 1
174 169 178 1
175 170 171 2
176 170 185 1
177 172 173 1
178 173 174 1
179 174 175 1
180 174 176 2
181 172 179 1
182 172 180 1
183 173 181 1
184 173 182 1
185 175 183 1
186 175 184 1
187 185 186 1
188 185 196 1
189 186 187 1
190 186 189 1
191 186 197 1
192 187 188 2
193 187 209 1
194 189 190 1
195 190 191 1
196 191 192 1
197 192 193 1
198 193 194 2
199 193 195 1
200 189 198 1
201 189 199 1
202 190 200 1
203 190 201 1
204 191 202 1
205 191 203 1
206 192 204 1
207 194 205 1
208 194 206 1
209 195 207 1
210 195 208 1
211 209 210 1
212 209 216 1
213 210 211 1
214 210 213 1
215 210 217 1
216 211 212 2
217 211 225 1
218 213 214 1
219 213 215 1
220 213 218 1
221 214 219 1
222 214 220 1
223 214 221 1
224 215 222 1
225 215 223 1
226 215 224 1
227 225 226 1
228 225 233 1
229 226 227 1
230 226 229 1
231 226 234 1
232 227 228 2
233 227 242 1
234 229 230 1
235 230 231 1
236 231 232 1
237 229 235 1
238 229 236 1
239 230 237 1
240 230 238 1
241 232 239 1
242 232 240 1
243 232 241 1
244 242 243 1
245 242 253 1
246 243 244 1
247 243 246 1
248 243 254 1
249 244 245 2
250 246 247 1
251 247 248 1
252 248 249 1
253 249 250 1
254 250 251 2
255 250 252 1
256 246 255 1
257 246 256 1
258 247 257 1
259 247 258 1
260 248 259 1
261 248 260 1
262 249 261 1
263 251 262 1
264 251 263 1
265 252 264 1
266 252 265 1
@<TRIPOS>SUBSTRUCTURE
1	GLU1	1	RESIDUE	1 ****	GLU
2	ASN2	16	RESIDUE	1 ****	ASN
3	PRO3	30	RESIDUE	1 ****	PRO
4	GLU4	44	RESIDUE	1 ****	GLU
5	SER5	59	RESIDUE	1 ****	SER
6	ILE6	70	RESIDUE	1 ****	ILE
7	LEU7	89	RESIDUE	1 ****	LEU
8	ASP8	108	RESIDUE	1 ****	ASP
9	GLU9	120	RESIDUE	1 ****	GLU
10	HIS10	135	RESIDUE	1 ****	HIS
11	VAL11	152	RESIDUE	1 ****	VAL
12	GLN12	168	RESIDUE	1 ****	GLN
13	ARG13	185	RESIDUE	1 ****	ARG
14	VAL14	209	RESIDUE	1 ****	VAL
15	MET15	225	RESIDUE	1 ****	MET
16	ARG16	242	RESIDUE	1 ****	ARG
