@<TRIPOS>MOLECULE
12-18
263 264 16              
SMALL
USER_CHARGES
@<TRIPOS>ATOM
1	   N	1985.099	599.489	-2044.947	N.3	1	GLU1	-0.516	
2	  CA	1985.658	600.838	-2044.947	C.3	1	GLU1	0.040	
3	   C	1987.167	600.798	-2044.947	C.2	1	GLU1	0.537	
4	   O	1987.843	601.497	-2045.715	O.2	1	GLU1	-0.582	
5	  CB	1985.135	601.623	-2043.710	C.3	1	GLU1	0.056	
6	  CG	1985.610	603.108	-2043.599	C.3	1	GLU1	0.014	
7	  CD	1985.186	603.912	-2042.384	C.2	1	GLU1	0.805	
8	 OE1	1984.458	603.410	-2041.506	O.co2	1	GLU1	-0.819	
9	 OE2	1985.616	605.082	-2042.312	O.co2	1	GLU1	-0.819	
10	   H	1985.726	598.610	-2044.947	 H	1	GLU1	0.294	
11	  HA	1985.332	601.356	-2045.867	 H	1	GLU1	0.111	
12	 2HB	1985.424	601.092	-2042.780	 H	1	GLU1	-0.017	
13	 3HB	1984.028	601.613	-2043.697	 H	1	GLU1	-0.017	
14	 2HG	1985.300	603.693	-2044.480	 H	1	GLU1	-0.043	
15	 3HG	1986.710	603.175	-2043.570	 H	1	GLU1	-0.043	
16	   N	1987.772	600.012	-2044.122	N.am	2	ASN2	-0.416	
17	  CA	1989.231	599.973	-2044.122	C.3	2	ASN2	0.014	
18	   C	1989.762	599.617	-2045.490	C.2	2	ASN2	0.597	
19	   O	1990.677	600.248	-2046.019	O.2	2	ASN2	-0.568	
20	  CB	1989.723	598.950	-2043.057	C.3	2	ASN2	-0.204	
21	  CG	1989.260	599.174	-2041.614	C.2	2	ASN2	0.713	
22	 ND2	1989.854	600.089	-2040.896	N.pl3	2	ASN2	-0.919	
23	 OD1	1988.339	598.540	-2041.120	O.2	2	ASN2	-0.593	
24	   H	1987.244	599.432	-2043.485	 H	2	ASN2	0.272	
25	  HA	1989.608	600.983	-2043.876	 H	2	ASN2	0.105	
26	 2HB	1990.827	598.891	-2043.061	 H	2	ASN2	0.080	
27	 3HB	1989.394	597.932	-2043.343	 H	2	ASN2	0.080	
28	1HD2	1989.374	600.262	-2040.009	 H	2	ASN2	0.420	
29	2HD2	1990.556	600.660	-2041.365	 H	2	ASN2	0.420	
30	   N	1989.241	598.622	-2046.124	N.am	3	PRO3	-0.255	
31	  CA	1989.693	598.213	-2047.446	C.3	3	PRO3	-0.027	
32	   C	1989.294	599.237	-2048.523	C.2	3	PRO3	0.590	
33	   O	1990.118	599.620	-2049.354	O.2	3	PRO3	-0.575	
34	  CB	1988.988	596.858	-2047.615	C.3	3	PRO3	-0.007	
35	  CG	1987.705	597.011	-2046.785	C.3	3	PRO3	0.019	
36	  CD	1988.163	597.829	-2045.575	C.3	3	PRO3	0.019	
37	  HA	1990.778	598.093	-2047.460	 H	3	PRO3	0.064	
38	 2HB	1989.611	596.077	-2047.174	 H	3	PRO3	0.025	
39	 3HB	1988.790	596.610	-2048.660	 H	3	PRO3	0.025	
40	 2HG	1987.278	596.048	-2046.494	 H	3	PRO3	0.021	
41	 3HG	1986.968	597.581	-2047.352	 H	3	PRO3	0.021	
42	 2HD	1988.552	597.180	-2044.788	 H	3	PRO3	0.039	
43	 3HD	1987.366	598.465	-2045.182	 H	3	PRO3	0.039	
44	   N	1988.090	599.697	-2048.555	N.am	4	GLU4	-0.516	
45	  CA	1987.730	600.668	-2049.584	C.3	4	GLU4	0.040	
46	   C	1988.629	601.879	-2049.523	C.2	4	GLU4	0.537	
47	   O	1989.155	602.358	-2050.538	O.2	4	GLU4	-0.582	
48	  CB	1986.241	601.087	-2049.414	C.3	4	GLU4	0.056	
49	  CG	1985.693	602.090	-2050.479	C.3	4	GLU4	0.014	
50	  CD	1984.267	602.587	-2050.336	C.2	4	GLU4	0.805	
51	 OE1	1983.541	602.188	-2049.405	O.co2	4	GLU4	-0.819	
52	 OE2	1983.877	603.416	-2051.184	O.co2	4	GLU4	-0.819	
53	   H	1987.405	599.390	-2047.878	 H	4	GLU4	0.294	
54	  HA	1987.861	600.197	-2050.576	 H	4	GLU4	0.111	
55	 2HB	1986.089	601.526	-2048.407	 H	4	GLU4	-0.017	
56	 3HB	1985.594	600.189	-2049.420	 H	4	GLU4	-0.017	
57	 2HG	1985.775	601.675	-2051.497	 H	4	GLU4	-0.043	
58	 3HG	1986.281	603.022	-2050.490	 H	4	GLU4	-0.043	
59	   N	1988.856	602.431	-2048.380	N.am	5	SER5	-0.416	
60	  CA	1989.726	603.603	-2048.321	C.3	5	SER5	-0.025	
61	   C	1991.085	603.297	-2048.907	C.2	5	SER5	0.597	
62	   O	1991.632	604.051	-2049.712	O.2	5	SER5	-0.568	
63	  CB	1989.838	604.135	-2046.871	C.3	5	SER5	0.212	
64	  OG	1990.570	603.255	-2046.010	O.3	5	SER5	-0.655	
65	   H	1988.439	602.059	-2047.538	 H	5	SER5	0.272	
66	  HA	1989.277	604.393	-2048.950	 H	5	SER5	0.084	
67	 2HB	1988.838	604.328	-2046.437	 H	5	SER5	0.035	
68	 3HB	1990.343	605.120	-2046.873	 H	5	SER5	0.035	
69	  HG	1990.081	602.430	-2045.959	 H	5	SER5	0.428	
70	   N	1991.690	602.214	-2048.553	N.am	6	ILE6	-0.416	
71	  CA	1993.003	601.919	-2049.120	C.3	6	ILE6	-0.060	
72	   C	1992.945	601.882	-2050.628	C.2	6	ILE6	0.597	
73	   O	1993.780	602.470	-2051.332	O.2	6	ILE6	-0.568	
74	  CB	1993.603	600.583	-2048.521	C.3	6	ILE6	0.130	
75	 CG1	1993.622	600.521	-2046.959	C.3	6	ILE6	-0.043	
76	 CG2	1995.044	600.281	-2049.036	C.3	6	ILE6	-0.320	
77	 CD1	1993.892	599.131	-2046.345	C.3	6	ILE6	-0.066	
78	   H	1991.261	601.580	-2047.894	 H	6	ILE6	0.272	
79	  HA	1993.677	602.753	-2048.852	 H	6	ILE6	0.087	
80	  HB	1992.945	599.757	-2048.864	 H	6	ILE6	0.019	
81	2HG1	1992.640	600.840	-2046.563	 H	6	ILE6	0.024	
82	3HG1	1994.339	601.263	-2046.555	 H	6	ILE6	0.024	
83	1HG2	1995.102	600.188	-2050.135	 H	6	ILE6	0.088	
84	2HG2	1995.766	601.063	-2048.734	 H	6	ILE6	0.088	
85	3HG2	1995.434	599.319	-2048.658	 H	6	ILE6	0.088	
86	1HD1	1993.164	598.377	-2046.699	 H	6	ILE6	0.019	
87	2HD1	1994.903	598.752	-2046.581	 H	6	ILE6	0.019	
88	3HD1	1993.816	599.161	-2045.242	 H	6	ILE6	0.019	
89	   N	1991.999	601.218	-2051.201	N.am	7	LEU7	-0.416	
90	  CA	1991.944	601.182	-2052.660	C.3	7	LEU7	-0.052	
91	   C	1991.871	602.578	-2053.232	C.2	7	LEU7	0.597	
92	   O	1992.591	602.940	-2054.175	O.2	7	LEU7	-0.568	
93	  CB	1990.740	600.322	-2053.140	C.3	7	LEU7	-0.110	
94	  CG	1990.668	598.843	-2052.673	C.3	7	LEU7	0.353	
95	 CD1	1989.478	598.137	-2053.339	C.3	7	LEU7	-0.412	
96	 CD2	1991.961	598.063	-2052.965	C.3	7	LEU7	-0.412	
97	   H	1991.307	600.731	-2050.650	 H	7	LEU7	0.272	
98	  HA	1992.885	600.742	-2053.034	 H	7	LEU7	0.092	
99	 2HB	1990.717	600.338	-2054.247	 H	7	LEU7	0.046	
100	 3HB	1989.801	600.825	-2052.835	 H	7	LEU7	0.046	
101	  HG	1990.498	598.834	-2051.576	 H	7	LEU7	-0.036	
102	1HD1	1988.521	598.646	-2053.116	 H	7	LEU7	0.100	
103	2HD1	1989.577	598.096	-2054.440	 H	7	LEU7	0.100	
104	3HD1	1989.371	597.095	-2052.983	 H	7	LEU7	0.100	
105	1HD2	1992.236	598.094	-2054.036	 H	7	LEU7	0.100	
106	2HD2	1992.815	598.475	-2052.395	 H	7	LEU7	0.100	
107	3HD2	1991.880	597.001	-2052.670	 H	7	LEU7	0.100	
108	   N	1991.034	603.418	-2052.726	N.am	8	ASP8	-0.516	
109	  CA	1990.963	604.768	-2053.279	C.3	8	ASP8	0.038	
110	   C	1992.309	605.448	-2053.223	C.2	8	ASP8	0.537	
111	   O	1992.782	606.053	-2054.197	O.2	8	ASP8	-0.582	
112	  CB	1989.885	605.607	-2052.537	C.3	8	ASP8	-0.030	
113	  CG	1989.665	607.027	-2053.078	C.2	8	ASP8	0.799	
114	 OD1	1989.729	607.226	-2054.308	O.co2	8	ASP8	-0.801	
115	 OD2	1989.474	607.953	-2052.262	O.co2	8	ASP8	-0.801	
116	   H	1990.436	603.147	-2051.958	 H	8	ASP8	0.294	
117	  HA	1990.679	604.690	-2054.346	 H	8	ASP8	0.088	
118	 2HB	1990.143	605.690	-2051.466	 H	8	ASP8	-0.012	
119	 3HB	1988.906	605.101	-2052.570	 H	8	ASP8	-0.012	
120	   N	1992.990	605.398	-2052.128	N.am	9	GLU9	-0.516	
121	  CA	1994.292	606.056	-2052.073	C.3	9	GLU9	0.040	
122	   C	1995.210	605.528	-2053.149	C.2	9	GLU9	0.537	
123	   O	1995.874	606.283	-2053.875	O.2	9	GLU9	-0.582	
124	  CB	1994.926	605.849	-2050.668	C.3	9	GLU9	0.056	
125	  CG	1996.309	606.541	-2050.439	C.3	9	GLU9	0.014	
126	  CD	1997.011	606.328	-2049.111	C.2	9	GLU9	0.805	
127	 OE1	1996.490	605.637	-2048.214	O.co2	9	GLU9	-0.819	
128	 OE2	1998.130	606.866	-2048.980	O.co2	9	GLU9	-0.819	
129	   H	1992.627	604.912	-2051.320	 H	9	GLU9	0.294	
130	  HA	1994.150	607.138	-2052.248	 H	9	GLU9	0.111	
131	 2HB	1995.040	604.764	-2050.464	 H	9	GLU9	-0.017	
132	 3HB	1994.229	606.202	-2049.883	 H	9	GLU9	-0.017	
133	 2HG	1996.237	607.632	-2050.579	 H	9	GLU9	-0.043	
134	 3HG	1997.055	606.196	-2051.173	 H	9	GLU9	-0.043	
135	   N	1995.307	604.253	-2053.318	N.am	10	HIS10	-0.416	
136	  CA	1996.195	603.741	-2054.358	C.3	10	HIS10	-0.058	
137	   C	1995.827	604.306	-2055.710	C.2	10	HIS10	0.597	
138	   O	1996.679	604.770	-2056.482	O.2	10	HIS10	-0.568	
139	  CB	1996.031	602.213	-2054.353	C.3	10	HIS10	-0.007	
140	  CG	1997.317	601.503	-2054.045	C.2	10	HIS10	0.187	
141	 CD2	1997.698	601.168	-2052.752	C.2	10	HIS10	-0.221	
142	 ND1	1998.268	601.097	-2054.978	N.2	10	HIS10	-0.543	
143	 CE1	1999.175	600.539	-2054.155	C.2	10	HIS10	0.163	
144	 NE2	1998.913	600.536	-2052.819	N.pl3	10	HIS10	-0.280	
145	   H	1994.776	603.618	-2052.739	 H	10	HIS10	0.272	
146	  HA	1997.214	604.099	-2054.134	 H	10	HIS10	0.136	
147	 2HB	1995.665	601.845	-2055.333	 H	10	HIS10	0.037	
148	 3HB	1995.276	601.876	-2053.613	 H	10	HIS10	0.037	
149	 2HD	1997.113	601.383	-2051.863	 H	10	HIS10	0.186	
150	 1HE	2000.066	600.118	-2054.602	 H	10	HIS10	0.144	
151	 2HE	1999.480	600.160	-2052.046	 H	10	HIS10	0.334	
152	   N	1994.589	604.304	-2056.072	N.am	11	VAL11	-0.416	
153	  CA	1994.233	604.849	-2057.379	C.3	11	VAL11	-0.087	
154	   C	1994.697	606.280	-2057.512	C.2	11	VAL11	0.597	
155	   O	1995.297	606.686	-2058.515	O.2	11	VAL11	-0.568	
156	  CB	1992.672	604.742	-2057.598	C.3	11	VAL11	0.299	
157	 CG1	1992.102	605.445	-2058.860	C.3	11	VAL11	-0.319	
158	 CG2	1992.148	603.287	-2057.670	C.3	11	VAL11	-0.319	
159	   H	1993.876	603.931	-2055.461	 H	11	VAL11	0.272	
160	  HA	1994.752	604.267	-2058.161	 H	11	VAL11	0.097	
161	  HB	1992.184	605.222	-2056.722	 H	11	VAL11	-0.030	
162	1HG1	1992.541	605.053	-2059.797	 H	11	VAL11	0.079	
163	2HG1	1991.003	605.337	-2058.942	 H	11	VAL11	0.079	
164	3HG1	1992.280	606.538	-2058.851	 H	11	VAL11	0.079	
165	1HG2	1992.438	602.701	-2056.779	 H	11	VAL11	0.079	
166	2HG2	1991.042	603.250	-2057.712	 H	11	VAL11	0.079	
167	3HG2	1992.530	602.746	-2058.556	 H	11	VAL11	0.079	
168	   N	1994.459	607.106	-2056.550	N.am	12	GLU12	-0.516	
169	  CA	1994.907	608.490	-2056.677	C.3	12	GLU12	0.040	
170	   C	1996.396	608.557	-2056.916	C.2	12	GLU12	0.537	
171	   O	1996.888	609.270	-2057.802	O.2	12	GLU12	-0.582	
172	  CB	1994.526	609.286	-2055.396	C.3	12	GLU12	0.056	
173	  CG	1994.898	610.804	-2055.405	C.3	12	GLU12	0.014	
174	  CD	1994.609	611.625	-2054.162	C.2	12	GLU12	0.805	
175	 OE1	1994.067	611.108	-2053.165	O.co2	12	GLU12	-0.819	
176	 OE2	1994.954	612.824	-2054.193	O.co2	12	GLU12	-0.819	
177	   H	1993.971	606.800	-2055.720	 H	12	GLU12	0.294	
178	  HA	1994.403	608.946	-2057.548	 H	12	GLU12	0.111	
179	 2HB	1994.996	608.815	-2054.509	 H	12	GLU12	-0.017	
180	 3HB	1993.438	609.198	-2055.207	 H	12	GLU12	-0.017	
181	 2HG	1994.410	611.329	-2056.242	 H	12	GLU12	-0.043	
182	 3HG	1995.980	610.949	-2055.553	 H	12	GLU12	-0.043	
183	   N	1997.181	607.850	-2056.175	N.am	13	ARG13	-0.348	
184	  CA	1998.621	607.915	-2056.406	C.3	13	ARG13	-0.264	
185	   C	1998.956	607.543	-2057.831	C.2	13	ARG13	0.734	
186	   O	1999.725	608.214	-2058.516	O.2	13	ARG13	-0.589	
187	  CB	1999.334	606.976	-2055.392	C.3	13	ARG13	-0.001	
188	  CG	2000.879	607.128	-2055.312	C.3	13	ARG13	0.039	
189	  CD	2001.506	606.141	-2054.313	C.3	13	ARG13	0.049	
190	  NE	2002.983	606.347	-2054.264	N.pl3	13	ARG13	-0.530	
191	  CZ	2003.831	605.655	-2053.509	C.cat	13	ARG13	0.808	
192	 NH1	2003.466	604.691	-2052.711	N.pl3	13	ARG13	-0.863	
193	 NH2	2005.091	605.953	-2053.566	N.pl3	13	ARG13	-0.863	
194	   H	1996.804	607.261	-2055.446	 H	13	ARG13	0.275	
195	  HA	1998.946	608.961	-2056.248	 H	13	ARG13	0.156	
196	 2HB	1999.067	605.926	-2055.631	 H	13	ARG13	0.033	
197	 3HB	1998.909	607.143	-2054.381	 H	13	ARG13	0.033	
198	 2HG	2001.128	608.173	-2055.032	 H	13	ARG13	0.029	
199	 3HG	2001.329	606.972	-2056.313	 H	13	ARG13	0.029	
200	 2HD	2001.261	605.100	-2054.622	 H	13	ARG13	0.069	
201	 3HD	2001.050	606.287	-2053.311	 H	13	ARG13	0.069	
202	  HE	2003.435	607.068	-2054.835	 H	13	ARG13	0.346	
203	1HH1	2002.460	604.506	-2052.714	 H	13	ARG13	0.448	
204	2HH1	2004.179	604.208	-2052.162	 H	13	ARG13	0.448	
205	1HH2	2005.358	606.711	-2054.197	 H	13	ARG13	0.448	
206	2HH2	2005.726	605.412	-2052.977	 H	13	ARG13	0.448	
207	   N	1998.420	606.488	-2058.345	N.am	14	VAL14	-0.416	
208	  CA	1998.744	606.128	-2059.722	C.3	14	VAL14	-0.087	
209	   C	1998.414	607.258	-2060.668	C.2	14	VAL14	0.597	
210	   O	1999.207	607.639	-2061.538	O.2	14	VAL14	-0.568	
211	  CB	1997.970	604.811	-2060.128	C.3	14	VAL14	0.299	
212	 CG1	1998.059	604.392	-2061.621	C.3	14	VAL14	-0.319	
213	 CG2	1998.402	603.559	-2059.327	C.3	14	VAL14	-0.319	
214	   H	1997.784	605.920	-2057.802	 H	14	VAL14	0.272	
215	  HA	1999.832	605.951	-2059.797	 H	14	VAL14	0.097	
216	  HB	1996.894	604.983	-2059.912	 H	14	VAL14	-0.030	
217	1HG1	1999.100	604.215	-2061.951	 H	14	VAL14	0.079	
218	2HG1	1997.485	603.469	-2061.833	 H	14	VAL14	0.079	
219	3HG1	1997.630	605.154	-2062.300	 H	14	VAL14	0.079	
220	1HG2	1998.315	603.718	-2058.237	 H	14	VAL14	0.079	
221	2HG2	1997.766	602.683	-2059.559	 H	14	VAL14	0.079	
222	3HG2	1999.449	603.269	-2059.533	 H	14	VAL14	0.079	
223	   N	1997.269	607.845	-2060.566	N.am	15	MET15	-0.416	
224	  CA	1996.949	608.937	-2061.480	C.3	15	MET15	-0.024	
225	   C	1997.979	610.037	-2061.393	C.2	15	MET15	0.597	
226	   O	1998.482	610.547	-2062.406	O.2	15	MET15	-0.568	
227	  CB	1995.528	609.483	-2061.170	C.3	15	MET15	0.034	
228	  CG	1994.365	608.485	-2061.361	C.3	15	MET15	0.002	
229	  SD	1992.792	609.352	-2061.246	S.3	15	MET15	-0.274	
230	  CE	1991.710	607.922	-2061.108	C.3	15	MET15	-0.054	
231	   H	1996.605	607.552	-2059.864	 H	15	MET15	0.272	
232	  HA	1996.974	608.549	-2062.515	 H	15	MET15	0.088	
233	 2HB	1995.325	610.362	-2061.812	 H	15	MET15	0.024	
234	 3HB	1995.493	609.876	-2060.134	 H	15	MET15	0.024	
235	 2HG	1994.409	607.699	-2060.583	 H	15	MET15	0.044	
236	 3HG	1994.427	607.969	-2062.337	 H	15	MET15	0.044	
237	 1HE	1991.853	607.233	-2061.960	 H	15	MET15	0.068	
238	 2HE	1991.920	607.370	-2060.175	 H	15	MET15	0.068	
239	 3HE	1990.653	608.237	-2061.091	 H	15	MET15	0.068	
240	   N	1998.349	610.458	-2060.231	N.am	16	ARG16	-0.348	
241	  CA	1999.345	611.522	-2060.148	C.3	16	ARG16	-0.264	
242	   C	2000.616	611.129	-2060.865	C.2	16	ARG16	0.734	
243	   O	2000.729	610.052	-2061.446	O.2	16	ARG16	-0.589	
244	  CB	1999.615	611.840	-2058.650	C.3	16	ARG16	-0.001	
245	  CG	2000.441	613.129	-2058.378	C.3	16	ARG16	0.039	
246	  CD	2000.691	613.349	-2056.877	C.3	16	ARG16	0.049	
247	  NE	2001.467	614.607	-2056.677	N.pl3	16	ARG16	-0.530	
248	  CZ	2001.859	615.090	-2055.501	C.cat	16	ARG16	0.808	
249	 NH1	2001.612	614.506	-2054.363	N.pl3	16	ARG16	-0.863	
250	 NH2	2002.524	616.202	-2055.483	N.pl3	16	ARG16	-0.863	
251	   H	1997.954	610.058	-2059.392	 H	16	ARG16	0.275	
252	  HA	1998.936	612.414	-2060.658	 H	16	ARG16	0.156	
253	 2HB	2000.112	610.964	-2058.184	 H	16	ARG16	0.033	
254	 3HB	1998.647	611.921	-2058.116	 H	16	ARG16	0.033	
255	 2HG	1999.910	614.000	-2058.815	 H	16	ARG16	0.029	
256	 3HG	2001.414	613.076	-2058.907	 H	16	ARG16	0.029	
257	 2HD	2001.240	612.474	-2056.464	 H	16	ARG16	0.069	
258	 3HD	1999.719	613.391	-2056.341	 H	16	ARG16	0.069	
259	  HE	2001.746	615.188	-2057.474	 H	16	ARG16	0.346	
260	1HH1	2001.086	613.633	-2054.447	 H	16	ARG16	0.448	
261	2HH1	2001.947	614.942	-2053.502	 H	16	ARG16	0.448	
262	1HH2	2002.709	616.645	-2056.385	 H	16	ARG16	0.448	
263	2HH2	2002.814	616.558	-2054.571	 H	16	ARG16	0.448	
@<TRIPOS>BOND
1 1 2 1
2 1 10 1
3 2 3 1
4 2 5 1
5 2 11 1
6 3 4 2
7 3 16 1
8 5 6 1
9 6 7 1
10 7 8 2
11 7 9 1
12 5 12 1
13 5 13 1
14 6 14 1
15 6 15 1
16 16 17 1
17 16 24 1
18 17 18 1
19 17 20 1
20 17 25 1
21 18 19 2
22 18 30 1
23 20 21 1
24 21 22 1
25 21 23 2
26 20 26 1
27 20 27 1
28 22 28 1
29 22 29 1
30 30 31 1
31 30 36 1
32 31 32 1
33 31 34 1
34 31 37 1
35 32 33 2
36 32 44 1
37 34 35 1
38 35 36 1
39 34 38 1
40 34 39 1
41 35 40 1
42 35 41 1
43 36 42 1
44 36 43 1
45 44 45 1
46 44 53 1
47 45 46 1
48 45 48 1
49 45 54 1
50 46 47 2
51 46 59 1
52 48 49 1
53 49 50 1
54 50 51 2
55 50 52 1
56 48 55 1
57 48 56 1
58 49 57 1
59 49 58 1
60 59 60 1
61 59 65 1
62 60 61 1
63 60 63 1
64 60 66 1
65 61 62 2
66 61 70 1
67 63 64 1
68 63 67 1
69 63 68 1
70 64 69 1
71 70 71 1
72 70 78 1
73 71 72 1
74 71 74 1
75 71 79 1
76 72 73 2
77 72 89 1
78 74 75 1
79 74 76 1
80 75 77 1
81 74 80 1
82 75 81 1
83 75 82 1
84 76 83 1
85 76 84 1
86 76 85 1
87 77 86 1
88 77 87 1
89 77 88 1
90 89 90 1
91 89 97 1
92 90 91 1
93 90 93 1
94 90 98 1
95 91 92 2
96 91 108 1
97 93 94 1
98 94 95 1
99 94 96 1
100 93 99 1
101 93 100 1
102 94 101 1
103 95 102 1
104 95 103 1
105 95 104 1
106 96 105 1
107 96 106 1
108 96 107 1
109 108 109 1
110 108 116 1
111 109 110 1
112 109 112 1
113 109 117 1
114 110 111 2
115 110 120 1
116 112 113 1
117 113 114 2
118 113 115 1
119 112 118 1
120 112 119 1
121 120 121 1
122 120 129 1
123 121 122 1
124 121 124 1
125 121 130 1
126 122 123 2
127 122 135 1
128 124 125 1
129 125 126 1
130 126 127 2
131 126 128 1
132 124 131 1
133 124 132 1
134 125 133 1
135 125 134 1
136 135 136 1
137 135 145 1
138 136 137 1
139 136 139 1
140 136 146 1
141 137 138 2
142 137 152 1
143 139 140 1
144 140 141 2
145 141 144 1
146 140 142 1
147 142 143 2
148 143 144 1
149 139 147 1
150 139 148 1
151 141 149 1
152 143 150 1
153 144 151 1
154 152 153 1
155 152 159 1
156 153 154 1
157 153 156 1
158 153 160 1
159 154 155 2
160 154 168 1
161 156 157 1
162 156 158 1
163 156 161 1
164 157 162 1
165 157 163 1
166 157 164 1
167 158 165 1
168 158 166 1
169 158 167 1
170 168 169 1
171 168 177 1
172 169 170 1
173 169 172 1
174 169 178 1
175 170 171 2
176 170 183 1
177 172 173 1
178 173 174 1
179 174 175 2
180 174 176 1
181 172 179 1
182 172 180 1
183 173 181 1
184 173 182 1
185 183 184 1
186 183 194 1
187 184 185 1
188 184 187 1
189 184 195 1
190 185 186 2
191 185 207 1
192 187 188 1
193 188 189 1
194 189 190 1
195 190 191 1
196 191 192 2
197 191 193 1
198 187 196 1
199 187 197 1
200 188 198 1
201 188 199 1
202 189 200 1
203 189 201 1
204 190 202 1
205 192 203 1
206 192 204 1
207 193 205 1
208 193 206 1
209 207 208 1
210 207 214 1
211 208 209 1
212 208 211 1
213 208 215 1
214 209 210 2
215 209 223 1
216 211 212 1
217 211 213 1
218 211 216 1
219 212 217 1
220 212 218 1
221 212 219 1
222 213 220 1
223 213 221 1
224 213 222 1
225 223 224 1
226 223 231 1
227 224 225 1
228 224 227 1
229 224 232 1
230 225 226 2
231 225 240 1
232 227 228 1
233 228 229 1
234 229 230 1
235 227 233 1
236 227 234 1
237 228 235 1
238 228 236 1
239 230 237 1
240 230 238 1
241 230 239 1
242 240 241 1
243 240 251 1
244 241 242 1
245 241 244 1
246 241 252 1
247 242 243 2
248 244 245 1
249 245 246 1
250 246 247 1
251 247 248 1
252 248 249 2
253 248 250 1
254 244 253 1
255 244 254 1
256 245 255 1
257 245 256 1
258 246 257 1
259 246 258 1
260 247 259 1
261 249 260 1
262 249 261 1
263 250 262 1
264 250 263 1
@<TRIPOS>SUBSTRUCTURE
1	GLU1	1	RESIDUE	1 ****	GLU
2	ASN2	16	RESIDUE	1 ****	ASN
3	PRO3	30	RESIDUE	1 ****	PRO
4	GLU4	44	RESIDUE	1 ****	GLU
5	SER5	59	RESIDUE	1 ****	SER
6	ILE6	70	RESIDUE	1 ****	ILE
7	LEU7	89	RESIDUE	1 ****	LEU
8	ASP8	108	RESIDUE	1 ****	ASP
9	GLU9	120	RESIDUE	1 ****	GLU
10	HIS10	135	RESIDUE	1 ****	HIS
11	VAL11	152	RESIDUE	1 ****	VAL
12	GLU12	168	RESIDUE	1 ****	GLU
13	ARG13	183	RESIDUE	1 ****	ARG
14	VAL14	207	RESIDUE	1 ****	VAL
15	MET15	223	RESIDUE	1 ****	MET
16	ARG16	240	RESIDUE	1 ****	ARG
