@<TRIPOS>MOLECULE
10-15
262 262 16              
SMALL
USER_CHARGES
@<TRIPOS>ATOM
1	   N	1632.052	485.712	-1662.032	N.3	1	GLU1	-0.516	
2	  CA	1632.611	487.061	-1662.032	C.3	1	GLU1	0.040	
3	   C	1634.120	487.021	-1662.032	C.2	1	GLU1	0.537	
4	   O	1634.796	487.720	-1662.801	O.2	1	GLU1	-0.582	
5	  CB	1632.089	487.845	-1660.795	C.3	1	GLU1	0.056	
6	  CG	1632.563	489.331	-1660.684	C.3	1	GLU1	0.014	
7	  CD	1632.140	490.134	-1659.469	C.2	1	GLU1	0.805	
8	 OE1	1631.411	489.633	-1658.591	O.co2	1	GLU1	-0.819	
9	 OE2	1632.569	491.305	-1659.397	O.co2	1	GLU1	-0.819	
10	   H	1632.679	484.832	-1662.032	 H	1	GLU1	0.294	
11	  HA	1632.286	487.578	-1662.952	 H	1	GLU1	0.111	
12	 2HB	1632.377	487.315	-1659.865	 H	1	GLU1	-0.017	
13	 3HB	1630.981	487.836	-1660.782	 H	1	GLU1	-0.017	
14	 2HG	1632.254	489.915	-1661.565	 H	1	GLU1	-0.043	
15	 3HG	1633.663	489.397	-1660.655	 H	1	GLU1	-0.043	
16	   N	1634.725	486.235	-1661.207	N.am	2	ASN2	-0.416	
17	  CA	1636.184	486.196	-1661.207	C.3	2	ASN2	0.014	
18	   C	1636.716	485.841	-1662.576	C.2	2	ASN2	0.597	
19	   O	1637.630	486.471	-1663.104	O.2	2	ASN2	-0.568	
20	  CB	1636.676	485.173	-1660.142	C.3	2	ASN2	-0.204	
21	  CG	1636.214	485.397	-1658.699	C.2	2	ASN2	0.713	
22	 ND2	1636.808	486.312	-1657.981	N.pl3	2	ASN2	-0.919	
23	 OD1	1635.293	484.763	-1658.205	O.2	2	ASN2	-0.593	
24	   H	1634.197	485.655	-1660.570	 H	2	ASN2	0.272	
25	  HA	1636.562	487.206	-1660.961	 H	2	ASN2	0.105	
26	 2HB	1637.781	485.114	-1660.146	 H	2	ASN2	0.080	
27	 3HB	1636.348	484.155	-1660.428	 H	2	ASN2	0.080	
28	1HD2	1636.327	486.485	-1657.094	 H	2	ASN2	0.420	
29	2HD2	1637.509	486.884	-1658.450	 H	2	ASN2	0.420	
30	   N	1636.194	484.845	-1663.210	N.am	3	PRO3	-0.255	
31	  CA	1636.646	484.436	-1664.531	C.3	3	PRO3	-0.027	
32	   C	1636.248	485.460	-1665.608	C.2	3	PRO3	0.590	
33	   O	1637.071	485.843	-1666.440	O.2	3	PRO3	-0.575	
34	  CB	1635.942	483.081	-1664.700	C.3	3	PRO3	-0.007	
35	  CG	1634.658	483.234	-1663.870	C.3	3	PRO3	0.019	
36	  CD	1635.116	484.052	-1662.661	C.3	3	PRO3	0.019	
37	  HA	1637.732	484.316	-1664.545	 H	3	PRO3	0.064	
38	 2HB	1636.565	482.300	-1664.260	 H	3	PRO3	0.025	
39	 3HB	1635.744	482.833	-1665.746	 H	3	PRO3	0.025	
40	 2HG	1634.231	482.271	-1663.579	 H	3	PRO3	0.021	
41	 3HG	1633.921	483.804	-1664.438	 H	3	PRO3	0.021	
42	 2HD	1635.505	483.403	-1661.873	 H	3	PRO3	0.039	
43	 3HD	1634.320	484.688	-1662.267	 H	3	PRO3	0.039	
44	   N	1635.043	485.920	-1665.640	N.am	4	GLU4	-0.516	
45	  CA	1634.683	486.891	-1666.670	C.3	4	GLU4	0.040	
46	   C	1635.582	488.102	-1666.609	C.2	4	GLU4	0.537	
47	   O	1636.108	488.582	-1667.623	O.2	4	GLU4	-0.582	
48	  CB	1633.194	487.309	-1666.499	C.3	4	GLU4	0.056	
49	  CG	1632.646	488.313	-1667.565	C.3	4	GLU4	0.014	
50	  CD	1631.220	488.810	-1667.421	C.2	4	GLU4	0.805	
51	 OE1	1630.494	488.411	-1666.490	O.co2	4	GLU4	-0.819	
52	 OE2	1630.830	489.639	-1668.269	O.co2	4	GLU4	-0.819	
53	   H	1634.359	485.613	-1664.964	 H	4	GLU4	0.294	
54	  HA	1634.814	486.420	-1667.661	 H	4	GLU4	0.111	
55	 2HB	1633.042	487.749	-1665.492	 H	4	GLU4	-0.017	
56	 3HB	1632.547	486.411	-1666.505	 H	4	GLU4	-0.017	
57	 2HG	1632.728	487.898	-1668.583	 H	4	GLU4	-0.043	
58	 3HG	1633.234	489.245	-1667.576	 H	4	GLU4	-0.043	
59	   N	1635.809	488.655	-1665.466	N.am	5	SER5	-0.416	
60	  CA	1636.679	489.826	-1665.407	C.3	5	SER5	-0.025	
61	   C	1638.038	489.521	-1665.993	C.2	5	SER5	0.597	
62	   O	1638.585	490.274	-1666.798	O.2	5	SER5	-0.568	
63	  CB	1636.791	490.358	-1663.956	C.3	5	SER5	0.212	
64	  OG	1637.522	489.479	-1663.096	O.3	5	SER5	-0.655	
65	   H	1635.393	488.283	-1664.624	 H	5	SER5	0.272	
66	  HA	1636.229	490.616	-1666.036	 H	5	SER5	0.084	
67	 2HB	1635.791	490.552	-1663.523	 H	5	SER5	0.035	
68	 3HB	1637.296	491.344	-1663.959	 H	5	SER5	0.035	
69	  HG	1637.034	488.654	-1663.045	 H	5	SER5	0.428	
70	   N	1638.642	488.438	-1665.639	N.am	6	ILE6	-0.416	
71	  CA	1639.956	488.143	-1666.205	C.3	6	ILE6	-0.060	
72	   C	1639.898	488.105	-1667.713	C.2	6	ILE6	0.597	
73	   O	1640.733	488.693	-1668.417	O.2	6	ILE6	-0.568	
74	  CB	1640.555	486.807	-1665.606	C.3	6	ILE6	0.130	
75	 CG1	1640.575	486.744	-1664.045	C.3	6	ILE6	-0.043	
76	 CG2	1641.997	486.505	-1666.121	C.3	6	ILE6	-0.320	
77	 CD1	1640.845	485.355	-1663.430	C.3	6	ILE6	-0.066	
78	   H	1638.214	487.803	-1664.980	 H	6	ILE6	0.272	
79	  HA	1640.630	488.977	-1665.938	 H	6	ILE6	0.087	
80	  HB	1639.898	485.981	-1665.950	 H	6	ILE6	0.019	
81	2HG1	1639.593	487.064	-1663.649	 H	6	ILE6	0.024	
82	3HG1	1641.291	487.486	-1663.640	 H	6	ILE6	0.024	
83	1HG2	1642.055	486.412	-1667.219	 H	6	ILE6	0.088	
84	2HG2	1642.719	487.287	-1665.819	 H	6	ILE6	0.088	
85	3HG2	1642.387	485.543	-1665.742	 H	6	ILE6	0.088	
86	1HD1	1640.117	484.601	-1663.785	 H	6	ILE6	0.019	
87	2HD1	1641.856	484.976	-1663.666	 H	6	ILE6	0.019	
88	3HD1	1640.769	485.385	-1662.327	 H	6	ILE6	0.019	
89	   N	1638.952	487.442	-1668.287	N.am	7	LEU7	-0.416	
90	  CA	1638.897	487.406	-1669.745	C.3	7	LEU7	-0.052	
91	   C	1638.825	488.802	-1670.318	C.2	7	LEU7	0.597	
92	   O	1639.545	489.165	-1671.259	O.2	7	LEU7	-0.568	
93	  CB	1637.694	486.546	-1670.226	C.3	7	LEU7	-0.110	
94	  CG	1637.621	485.066	-1669.759	C.3	7	LEU7	0.353	
95	 CD1	1636.432	484.361	-1670.425	C.3	7	LEU7	-0.412	
96	 CD2	1638.915	484.287	-1670.051	C.3	7	LEU7	-0.412	
97	   H	1638.260	486.955	-1667.735	 H	7	LEU7	0.272	
98	  HA	1639.839	486.966	-1670.120	 H	7	LEU7	0.092	
99	 2HB	1637.671	486.562	-1671.333	 H	7	LEU7	0.046	
100	 3HB	1636.754	487.049	-1669.921	 H	7	LEU7	0.046	
101	  HG	1637.452	485.058	-1668.662	 H	7	LEU7	-0.036	
102	1HD1	1635.474	484.870	-1670.202	 H	7	LEU7	0.100	
103	2HD1	1636.531	484.320	-1671.526	 H	7	LEU7	0.100	
104	3HD1	1636.325	483.319	-1670.069	 H	7	LEU7	0.100	
105	1HD2	1639.190	484.318	-1671.121	 H	7	LEU7	0.100	
106	2HD2	1639.768	484.699	-1669.480	 H	7	LEU7	0.100	
107	3HD2	1638.834	483.225	-1669.755	 H	7	LEU7	0.100	
108	   N	1637.987	489.642	-1669.811	N.am	8	ASP8	-0.516	
109	  CA	1637.917	490.992	-1670.364	C.3	8	ASP8	0.038	
110	   C	1639.264	491.672	-1670.307	C.2	8	ASP8	0.537	
111	   O	1639.736	492.277	-1671.281	O.2	8	ASP8	-0.582	
112	  CB	1636.839	491.831	-1669.622	C.3	8	ASP8	-0.030	
113	  CG	1636.620	493.251	-1670.162	C.2	8	ASP8	0.799	
114	 OD1	1636.684	493.451	-1671.393	O.co2	8	ASP8	-0.801	
115	 OD2	1636.428	494.177	-1669.346	O.co2	8	ASP8	-0.801	
116	   H	1637.390	489.371	-1669.043	 H	8	ASP8	0.294	
117	  HA	1637.634	490.914	-1671.431	 H	8	ASP8	0.088	
118	 2HB	1637.096	491.913	-1668.550	 H	8	ASP8	-0.012	
119	 3HB	1635.860	491.325	-1669.655	 H	8	ASP8	-0.012	
120	   N	1639.943	491.622	-1669.211	N.am	9	GLU9	-0.516	
121	  CA	1641.246	492.279	-1669.156	C.3	9	GLU9	0.040	
122	   C	1642.164	491.752	-1670.232	C.2	9	GLU9	0.537	
123	   O	1642.828	492.507	-1670.957	O.2	9	GLU9	-0.582	
124	  CB	1641.880	492.071	-1667.751	C.3	9	GLU9	0.056	
125	  CG	1643.262	492.763	-1667.521	C.3	9	GLU9	0.014	
126	  CD	1643.964	492.550	-1666.193	C.2	9	GLU9	0.805	
127	 OE1	1643.443	491.858	-1665.297	O.co2	9	GLU9	-0.819	
128	 OE2	1645.083	493.087	-1666.061	O.co2	9	GLU9	-0.819	
129	   H	1639.580	491.135	-1668.404	 H	9	GLU9	0.294	
130	  HA	1641.104	493.361	-1669.331	 H	9	GLU9	0.111	
131	 2HB	1641.993	490.986	-1667.548	 H	9	GLU9	-0.017	
132	 3HB	1641.183	492.424	-1666.966	 H	9	GLU9	-0.017	
133	 2HG	1643.190	493.854	-1667.660	 H	9	GLU9	-0.043	
134	 3HG	1644.009	492.419	-1668.255	 H	9	GLU9	-0.043	
135	   N	1642.261	490.477	-1670.402	N.am	10	ASN10	-0.416	
136	  CA	1643.149	489.967	-1671.443	C.3	10	ASN10	0.014	
137	   C	1642.779	490.535	-1672.794	C.2	10	ASN10	0.597	
138	   O	1643.624	490.998	-1673.560	O.2	10	ASN10	-0.568	
139	  CB	1643.086	488.413	-1671.463	C.3	10	ASN10	-0.204	
140	  CG	1643.430	487.688	-1670.158	C.2	10	ASN10	0.713	
141	 ND2	1644.685	487.556	-1669.821	N.pl3	10	ASN10	-0.919	
142	 OD1	1642.568	487.249	-1669.411	O.2	10	ASN10	-0.593	
143	   H	1641.730	489.841	-1669.824	 H	10	ASN10	0.272	
144	  HA	1644.179	490.301	-1671.219	 H	10	ASN10	0.105	
145	 2HB	1643.736	488.011	-1672.263	 H	10	ASN10	0.080	
146	 3HB	1642.067	488.087	-1671.750	 H	10	ASN10	0.080	
147	1HD2	1644.798	487.198	-1668.870	 H	10	ASN10	0.420	
148	2HD2	1645.374	488.011	-1670.420	 H	10	ASN10	0.420	
149	   N	1641.541	490.533	-1673.155	N.am	11	VAL11	-0.416	
150	  CA	1641.184	491.082	-1674.460	C.3	11	VAL11	-0.087	
151	   C	1641.647	492.513	-1674.590	C.2	11	VAL11	0.597	
152	   O	1642.246	492.921	-1675.593	O.2	11	VAL11	-0.568	
153	  CB	1639.623	490.974	-1674.678	C.3	11	VAL11	0.299	
154	 CG1	1639.052	491.680	-1675.939	C.3	11	VAL11	-0.319	
155	 CG2	1639.099	489.519	-1674.754	C.3	11	VAL11	-0.319	
156	   H	1640.829	490.159	-1672.544	 H	11	VAL11	0.272	
157	  HA	1641.703	490.501	-1675.245	 H	11	VAL11	0.097	
158	  HB	1639.136	491.452	-1673.801	 H	11	VAL11	-0.030	
159	1HG1	1639.489	491.291	-1676.877	 H	11	VAL11	0.079	
160	2HG1	1637.953	491.572	-1676.019	 H	11	VAL11	0.079	
161	3HG1	1639.229	492.773	-1675.927	 H	11	VAL11	0.079	
162	1HG2	1639.391	488.931	-1673.865	 H	11	VAL11	0.079	
163	2HG2	1637.993	489.482	-1674.795	 H	11	VAL11	0.079	
164	3HG2	1639.480	488.981	-1675.642	 H	11	VAL11	0.079	
165	   N	1641.410	493.336	-1673.626	N.am	12	GLN12	-0.416	
166	  CA	1641.857	494.720	-1673.751	C.3	12	GLN12	-0.003	
167	   C	1643.346	494.790	-1673.990	C.2	12	GLN12	0.597	
168	   O	1643.832	495.500	-1674.868	O.2	12	GLN12	-0.568	
169	  CB	1641.467	495.484	-1672.466	C.3	12	GLN12	-0.004	
170	  CG	1641.826	497.006	-1672.432	C.3	12	GLN12	-0.064	
171	  CD	1641.524	497.817	-1671.165	C.2	12	GLN12	0.695	
172	 NE2	1640.959	497.238	-1670.137	N.pl3	12	GLN12	-0.941	
173	 OE1	1641.825	498.998	-1671.085	O.2	12	GLN12	-0.609	
174	   H	1640.923	493.028	-1672.797	 H	12	GLN12	0.272	
175	  HA	1641.356	495.178	-1674.624	 H	12	GLN12	0.085	
176	 2HB	1641.945	494.983	-1671.598	 H	12	GLN12	0.017	
177	 3HB	1640.377	495.375	-1672.301	 H	12	GLN12	0.017	
178	 2HG	1641.346	497.529	-1673.281	 H	12	GLN12	0.035	
179	 3HG	1642.909	497.150	-1672.599	 H	12	GLN12	0.035	
180	1HE2	1640.852	497.830	-1669.312	 H	12	GLN12	0.425	
181	2HE2	1640.796	496.234	-1670.242	 H	12	GLN12	0.425	
182	   N	1644.133	494.082	-1673.252	N.am	13	ARG13	-0.348	
183	  CA	1645.573	494.150	-1673.485	C.3	13	ARG13	-0.264	
184	   C	1645.907	493.782	-1674.911	C.2	13	ARG13	0.734	
185	   O	1646.674	494.456	-1675.595	O.2	13	ARG13	-0.589	
186	  CB	1646.288	493.209	-1672.474	C.3	13	ARG13	-0.001	
187	  CG	1647.833	493.364	-1672.395	C.3	13	ARG13	0.039	
188	  CD	1648.463	492.375	-1671.400	C.3	13	ARG13	0.049	
189	  NE	1649.940	492.583	-1671.351	N.pl3	13	ARG13	-0.530	
190	  CZ	1650.789	491.891	-1670.599	C.cat	13	ARG13	0.808	
191	 NH1	1650.426	490.924	-1669.803	N.pl3	13	ARG13	-0.863	
192	 NH2	1652.049	492.191	-1670.657	N.pl3	13	ARG13	-0.863	
193	   H	1643.758	493.490	-1672.525	 H	13	ARG13	0.275	
194	  HA	1645.896	495.196	-1673.325	 H	13	ARG13	0.156	
195	 2HB	1646.023	492.159	-1672.715	 H	13	ARG13	0.033	
196	 3HB	1645.864	493.373	-1671.462	 H	13	ARG13	0.033	
197	 2HG	1648.081	494.408	-1672.113	 H	13	ARG13	0.029	
198	 3HG	1648.283	493.211	-1673.397	 H	13	ARG13	0.029	
199	 2HD	1648.219	491.335	-1671.711	 H	13	ARG13	0.069	
200	 3HD	1648.007	492.517	-1670.397	 H	13	ARG13	0.069	
201	  HE	1650.389	493.307	-1671.921	 H	13	ARG13	0.346	
202	1HH1	1649.421	490.737	-1669.805	 H	13	ARG13	0.448	
203	2HH1	1651.141	490.441	-1669.256	 H	13	ARG13	0.448	
204	1HH2	1652.314	492.951	-1671.286	 H	13	ARG13	0.448	
205	2HH2	1652.685	491.649	-1670.070	 H	13	ARG13	0.448	
206	   N	1645.372	492.728	-1675.427	N.am	14	VAL14	-0.416	
207	  CA	1645.695	492.372	-1676.806	C.3	14	VAL14	-0.087	
208	   C	1645.363	493.504	-1677.749	C.2	14	VAL14	0.597	
209	   O	1646.154	493.888	-1678.619	O.2	14	VAL14	-0.568	
210	  CB	1644.924	491.055	-1677.215	C.3	14	VAL14	0.299	
211	 CG1	1645.011	490.640	-1678.709	C.3	14	VAL14	-0.319	
212	 CG2	1645.358	489.801	-1676.418	C.3	14	VAL14	-0.319	
213	   H	1644.738	492.157	-1674.886	 H	14	VAL14	0.272	
214	  HA	1646.783	492.197	-1676.883	 H	14	VAL14	0.097	
215	  HB	1643.847	491.225	-1676.997	 H	14	VAL14	-0.030	
216	1HG1	1646.052	490.465	-1679.040	 H	14	VAL14	0.079	
217	2HG1	1644.439	489.717	-1678.924	 H	14	VAL14	0.079	
218	3HG1	1644.580	491.404	-1679.385	 H	14	VAL14	0.079	
219	1HG2	1645.272	489.957	-1675.327	 H	14	VAL14	0.079	
220	2HG2	1644.723	488.925	-1676.651	 H	14	VAL14	0.079	
221	3HG2	1646.406	489.513	-1676.626	 H	14	VAL14	0.079	
222	   N	1644.217	494.088	-1677.644	N.am	15	MET15	-0.416	
223	  CA	1643.894	495.183	-1678.555	C.3	15	MET15	-0.024	
224	   C	1644.924	496.284	-1678.466	C.2	15	MET15	0.597	
225	   O	1645.424	496.797	-1679.478	O.2	15	MET15	-0.568	
226	  CB	1642.473	495.726	-1678.242	C.3	15	MET15	0.034	
227	  CG	1641.312	494.727	-1678.435	C.3	15	MET15	0.002	
228	  SD	1639.737	495.591	-1678.316	S.3	15	MET15	-0.274	
229	  CE	1638.658	494.160	-1678.181	C.3	15	MET15	-0.054	
230	   H	1643.554	493.793	-1676.942	 H	15	MET15	0.272	
231	  HA	1643.919	494.798	-1679.591	 H	15	MET15	0.088	
232	 2HB	1642.269	496.606	-1678.882	 H	15	MET15	0.024	
233	 3HB	1642.439	496.116	-1677.205	 H	15	MET15	0.024	
234	 2HG	1641.357	493.940	-1677.659	 H	15	MET15	0.044	
235	 3HG	1641.374	494.214	-1679.412	 H	15	MET15	0.044	
236	 1HE	1638.801	493.474	-1679.035	 H	15	MET15	0.068	
237	 2HE	1638.869	493.606	-1677.250	 H	15	MET15	0.068	
238	 3HE	1637.600	494.474	-1678.162	 H	15	MET15	0.068	
239	   N	1645.293	496.702	-1677.303	N.am	16	ARG16	-0.348	
240	  CA	1646.289	497.767	-1677.218	C.3	16	ARG16	-0.264	
241	   C	1647.559	497.378	-1677.937	C.2	16	ARG16	0.734	
242	   O	1647.673	496.303	-1678.522	O.2	16	ARG16	-0.589	
243	  CB	1646.560	498.082	-1675.720	C.3	16	ARG16	-0.001	
244	  CG	1647.384	499.371	-1675.445	C.3	16	ARG16	0.039	
245	  CD	1647.636	499.587	-1673.944	C.3	16	ARG16	0.049	
246	  NE	1648.411	500.846	-1673.741	N.pl3	16	ARG16	-0.530	
247	  CZ	1648.803	501.327	-1672.565	C.cat	16	ARG16	0.808	
248	 NH1	1648.558	500.739	-1671.427	N.pl3	16	ARG16	-0.863	
249	 NH2	1649.466	502.440	-1672.544	N.pl3	16	ARG16	-0.863	
250	   H	1644.901	496.300	-1676.464	 H	16	ARG16	0.275	
251	  HA	1645.878	498.661	-1677.725	 H	16	ARG16	0.156	
252	 2HB	1647.059	497.205	-1675.256	 H	16	ARG16	0.033	
253	 3HB	1645.592	498.161	-1675.184	 H	16	ARG16	0.033	
254	 2HG	1646.852	500.242	-1675.879	 H	16	ARG16	0.029	
255	 3HG	1648.357	499.321	-1675.976	 H	16	ARG16	0.029	
256	 2HD	1648.186	498.712	-1673.533	 H	16	ARG16	0.069	
257	 3HD	1646.664	499.627	-1673.407	 H	16	ARG16	0.069	
258	  HE	1648.687	501.430	-1674.537	 H	16	ARG16	0.346	
259	1HH1	1648.033	499.866	-1671.513	 H	16	ARG16	0.448	
260	2HH1	1648.893	501.173	-1670.566	 H	16	ARG16	0.448	
261	1HH2	1649.650	502.885	-1673.446	 H	16	ARG16	0.448	
262	2HH2	1649.757	502.793	-1671.631	 H	16	ARG16	0.448	
@<TRIPOS>BOND
1 1 2 1
2 1 10 1
3 2 3 1
4 2 5 1
5 2 11 1
6 3 4 2
7 3 16 1
8 5 6 1
9 6 7 1
10 7 8 2
11 7 9 1
12 5 12 1
13 5 13 1
14 6 14 1
15 6 15 1
16 16 17 1
17 16 24 1
18 17 18 1
19 17 20 1
20 17 25 1
21 18 19 2
22 18 30 1
23 20 21 1
24 21 22 1
25 21 23 2
26 20 26 1
27 20 27 1
28 22 28 1
29 22 29 1
30 30 31 1
31 30 36 1
32 31 32 1
33 31 34 1
34 31 37 1
35 32 33 2
36 32 44 1
37 34 35 1
38 35 36 1
39 34 38 1
40 34 39 1
41 35 40 1
42 35 41 1
43 36 42 1
44 36 43 1
45 44 45 1
46 44 53 1
47 45 46 1
48 45 48 1
49 45 54 1
50 46 47 2
51 46 59 1
52 48 49 1
53 49 50 1
54 50 51 2
55 50 52 1
56 48 55 1
57 48 56 1
58 49 57 1
59 49 58 1
60 59 60 1
61 59 65 1
62 60 61 1
63 60 63 1
64 60 66 1
65 61 62 2
66 61 70 1
67 63 64 1
68 63 67 1
69 63 68 1
70 64 69 1
71 70 71 1
72 70 78 1
73 71 72 1
74 71 74 1
75 71 79 1
76 72 73 2
77 72 89 1
78 74 75 1
79 74 76 1
80 75 77 1
81 74 80 1
82 75 81 1
83 75 82 1
84 76 83 1
85 76 84 1
86 76 85 1
87 77 86 1
88 77 87 1
89 77 88 1
90 89 90 1
91 89 97 1
92 90 91 1
93 90 93 1
94 90 98 1
95 91 92 2
96 91 108 1
97 93 94 1
98 94 95 1
99 94 96 1
100 93 99 1
101 93 100 1
102 94 101 1
103 95 102 1
104 95 103 1
105 95 104 1
106 96 105 1
107 96 106 1
108 96 107 1
109 108 109 1
110 108 116 1
111 109 110 1
112 109 112 1
113 109 117 1
114 110 111 2
115 110 120 1
116 112 113 1
117 113 114 2
118 113 115 1
119 112 118 1
120 112 119 1
121 120 121 1
122 120 129 1
123 121 122 1
124 121 124 1
125 121 130 1
126 122 123 2
127 122 135 1
128 124 125 1
129 125 126 1
130 126 127 2
131 126 128 1
132 124 131 1
133 124 132 1
134 125 133 1
135 125 134 1
136 135 136 1
137 135 143 1
138 136 137 1
139 136 139 1
140 136 144 1
141 137 138 2
142 137 149 1
143 139 140 1
144 140 141 1
145 140 142 2
146 139 145 1
147 139 146 1
148 141 147 1
149 141 148 1
150 149 150 1
151 149 156 1
152 150 151 1
153 150 153 1
154 150 157 1
155 151 152 2
156 151 165 1
157 153 154 1
158 153 155 1
159 153 158 1
160 154 159 1
161 154 160 1
162 154 161 1
163 155 162 1
164 155 163 1
165 155 164 1
166 165 166 1
167 165 174 1
168 166 167 1
169 166 169 1
170 166 175 1
171 167 168 2
172 167 182 1
173 169 170 1
174 170 171 1
175 171 172 1
176 171 173 2
177 169 176 1
178 169 177 1
179 170 178 1
180 170 179 1
181 172 180 1
182 172 181 1
183 182 183 1
184 182 193 1
185 183 184 1
186 183 186 1
187 183 194 1
188 184 185 2
189 184 206 1
190 186 187 1
191 187 188 1
192 188 189 1
193 189 190 1
194 190 191 2
195 190 192 1
196 186 195 1
197 186 196 1
198 187 197 1
199 187 198 1
200 188 199 1
201 188 200 1
202 189 201 1
203 191 202 1
204 191 203 1
205 192 204 1
206 192 205 1
207 206 207 1
208 206 213 1
209 207 208 1
210 207 210 1
211 207 214 1
212 208 209 2
213 208 222 1
214 210 211 1
215 210 212 1
216 210 215 1
217 211 216 1
218 211 217 1
219 211 218 1
220 212 219 1
221 212 220 1
222 212 221 1
223 222 223 1
224 222 230 1
225 223 224 1
226 223 226 1
227 223 231 1
228 224 225 2
229 224 239 1
230 226 227 1
231 227 228 1
232 228 229 1
233 226 232 1
234 226 233 1
235 227 234 1
236 227 235 1
237 229 236 1
238 229 237 1
239 229 238 1
240 239 240 1
241 239 250 1
242 240 241 1
243 240 243 1
244 240 251 1
245 241 242 2
246 243 244 1
247 244 245 1
248 245 246 1
249 246 247 1
250 247 248 2
251 247 249 1
252 243 252 1
253 243 253 1
254 244 254 1
255 244 255 1
256 245 256 1
257 245 257 1
258 246 258 1
259 248 259 1
260 248 260 1
261 249 261 1
262 249 262 1
@<TRIPOS>SUBSTRUCTURE
1	GLU1	1	RESIDUE	1 ****	GLU
2	ASN2	16	RESIDUE	1 ****	ASN
3	PRO3	30	RESIDUE	1 ****	PRO
4	GLU4	44	RESIDUE	1 ****	GLU
5	SER5	59	RESIDUE	1 ****	SER
6	ILE6	70	RESIDUE	1 ****	ILE
7	LEU7	89	RESIDUE	1 ****	LEU
8	ASP8	108	RESIDUE	1 ****	ASP
9	GLU9	120	RESIDUE	1 ****	GLU
10	ASN10	135	RESIDUE	1 ****	ASN
11	VAL11	149	RESIDUE	1 ****	VAL
12	GLN12	165	RESIDUE	1 ****	GLN
13	ARG13	182	RESIDUE	1 ****	ARG
14	VAL14	206	RESIDUE	1 ****	VAL
15	MET15	222	RESIDUE	1 ****	MET
16	ARG16	239	RESIDUE	1 ****	ARG
