@<TRIPOS>MOLECULE
3-19
273 273 16              
SMALL
USER_CHARGES
@<TRIPOS>ATOM
1	   N	513.909	119.391	-458.620	N.3	1	GLU1	-0.516	
2	  CA	514.468	120.740	-458.620	C.3	1	GLU1	0.040	
3	   C	515.977	120.700	-458.620	C.2	1	GLU1	0.537	
4	   O	516.652	121.399	-459.389	O.2	1	GLU1	-0.582	
5	  CB	513.945	121.525	-457.383	C.3	1	GLU1	0.056	
6	  CG	514.419	123.010	-457.272	C.3	1	GLU1	0.014	
7	  CD	513.995	123.814	-456.057	C.2	1	GLU1	0.805	
8	 OE1	513.268	123.312	-455.179	O.co2	1	GLU1	-0.819	
9	 OE2	514.426	124.984	-455.985	O.co2	1	GLU1	-0.819	
10	   H	514.536	118.512	-458.620	 H	1	GLU1	0.294	
11	  HA	514.141	121.258	-459.540	 H	1	GLU1	0.111	
12	 2HB	514.234	120.994	-456.453	 H	1	GLU1	-0.017	
13	 3HB	512.838	121.515	-457.370	 H	1	GLU1	-0.017	
14	 2HG	514.109	123.595	-458.153	 H	1	GLU1	-0.043	
15	 3HG	515.520	123.077	-457.243	 H	1	GLU1	-0.043	
16	   N	516.581	119.914	-457.795	N.am	2	ASN2	-0.416	
17	  CA	518.041	119.875	-457.795	C.3	2	ASN2	0.014	
18	   C	518.572	119.520	-459.164	C.2	2	ASN2	0.597	
19	   O	519.486	120.150	-459.693	O.2	2	ASN2	-0.568	
20	  CB	518.533	118.852	-456.731	C.3	2	ASN2	-0.204	
21	  CG	518.069	119.076	-455.288	C.2	2	ASN2	0.713	
22	 ND2	518.664	119.991	-454.569	N.pl3	2	ASN2	-0.919	
23	 OD1	517.149	118.442	-454.793	O.2	2	ASN2	-0.593	
24	   H	516.053	119.334	-457.159	 H	2	ASN2	0.272	
25	  HA	518.418	120.885	-457.550	 H	2	ASN2	0.105	
26	 2HB	519.637	118.793	-456.735	 H	2	ASN2	0.080	
27	 3HB	518.204	117.834	-457.017	 H	2	ASN2	0.080	
28	1HD2	518.183	120.164	-453.683	 H	2	ASN2	0.420	
29	2HD2	519.365	120.563	-455.039	 H	2	ASN2	0.420	
30	   N	518.050	118.525	-459.798	N.am	3	LYS3	-0.348	
31	  CA	518.563	118.180	-461.121	C.3	3	LYS3	-0.240	
32	   C	518.469	119.359	-462.061	C.2	3	LYS3	0.734	
33	   O	519.418	119.702	-462.781	O.2	3	LYS3	-0.589	
34	  CB	517.779	116.961	-461.678	C.3	3	LYS3	-0.009	
35	  CG	518.300	116.469	-463.051	C.3	3	LYS3	0.019	
36	  CD	517.508	115.309	-463.662	C.3	3	LYS3	-0.048	
37	  CE	518.086	114.974	-465.044	C.3	3	LYS3	-0.014	
38	  NZ	517.444	113.753	-465.561	N.4	3	LYS3	-0.385	
39	   H	517.298	117.991	-459.385	 H	3	LYS3	0.275	
40	  HA	519.633	117.918	-461.023	 H	3	LYS3	0.143	
41	 2HB	516.701	117.214	-461.753	 H	3	LYS3	0.036	
42	 3HB	517.824	116.125	-460.952	 H	3	LYS3	0.036	
43	 2HG	519.369	116.192	-462.965	 H	3	LYS3	0.010	
44	 3HG	518.267	117.291	-463.790	 H	3	LYS3	0.010	
45	 2HD	516.439	115.590	-463.752	 H	3	LYS3	0.062	
46	 3HD	517.544	114.433	-462.986	 H	3	LYS3	0.062	
47	 2HE	519.184	114.823	-464.993	 H	3	LYS3	0.113	
48	 3HE	517.929	115.821	-465.745	 H	3	LYS3	0.113	
49	 1HZ	516.451	113.728	-465.300	 H	3	LYS3	0.340	
50	 2HZ	517.470	113.723	-466.585	 H	3	LYS3	0.340	
51	 3HZ	517.953	112.975	-465.165	 H	3	LYS3	0.340	
52	   N	517.368	120.028	-462.117	N.am	4	GLU4	-0.516	
53	  CA	517.277	121.168	-463.025	C.3	4	GLU4	0.040	
54	   C	518.357	122.180	-462.733	C.2	4	GLU4	0.537	
55	   O	519.051	122.679	-463.631	O.2	4	GLU4	-0.582	
56	  CB	515.871	121.823	-462.907	C.3	4	GLU4	0.056	
57	  CG	515.604	123.032	-463.860	C.3	4	GLU4	0.014	
58	  CD	514.274	123.756	-463.753	C.2	4	GLU4	0.805	
59	 OE1	513.406	123.382	-462.941	O.co2	4	GLU4	-0.819	
60	 OE2	514.113	124.739	-464.504	O.co2	4	GLU4	-0.819	
61	   H	516.580	119.768	-461.540	 H	4	GLU4	0.294	
62	  HA	517.420	120.807	-464.060	 H	4	GLU4	0.111	
63	 2HB	515.700	122.155	-461.863	 H	4	GLU4	-0.017	
64	 3HB	515.085	121.064	-463.084	 H	4	GLU4	-0.017	
65	 2HG	515.711	122.738	-464.917	 H	4	GLU4	-0.043	
66	 3HG	516.339	123.838	-463.700	 H	4	GLU4	-0.043	
67	   N	518.564	122.538	-461.511	N.am	5	SER5	-0.416	
68	  CA	519.609	123.518	-461.228	C.3	5	SER5	-0.025	
69	   C	520.947	123.048	-461.751	C.2	5	SER5	0.597	
70	   O	521.687	123.784	-462.402	O.2	5	SER5	-0.568	
71	  CB	519.670	123.838	-459.714	C.3	5	SER5	0.212	
72	  OG	520.158	122.742	-458.932	O.3	5	SER5	-0.655	
73	   H	518.012	122.146	-460.761	 H	5	SER5	0.272	
74	  HA	519.362	124.447	-461.773	 H	5	SER5	0.084	
75	 2HB	518.681	124.153	-459.332	 H	5	SER5	0.035	
76	 3HB	520.332	124.710	-459.544	 H	5	SER5	0.035	
77	  HG	519.534	122.019	-459.031	 H	5	SER5	0.428	
78	   N	521.324	121.838	-461.507	N.am	6	ILE6	-0.416	
79	  CA	522.616	121.384	-462.012	C.3	6	ILE6	-0.060	
80	   C	522.698	121.544	-463.511	C.2	6	ILE6	0.597	
81	   O	523.683	122.055	-464.065	O.2	6	ILE6	-0.568	
82	  CB	522.922	119.899	-461.561	C.3	6	ILE6	0.130	
83	 CG1	522.782	119.642	-460.026	C.3	6	ILE6	-0.043	
84	 CG2	524.335	119.409	-462.007	C.3	6	ILE6	-0.320	
85	 CD1	522.754	118.162	-459.591	C.3	6	ILE6	-0.066	
86	   H	520.734	121.215	-460.975	 H	6	ILE6	0.272	
87	  HA	523.393	122.045	-461.584	 H	6	ILE6	0.087	
88	  HB	522.171	119.253	-462.062	 H	6	ILE6	0.019	
89	2HG1	521.835	120.082	-459.662	 H	6	ILE6	0.024	
90	3HG1	523.571	120.188	-459.472	 H	6	ILE6	0.024	
91	1HG2	524.481	119.443	-463.101	 H	6	ILE6	0.088	
92	2HG2	525.146	120.005	-461.549	 H	6	ILE6	0.088	
93	3HG2	524.519	118.353	-461.738	 H	6	ILE6	0.088	
94	1HD1	521.947	117.600	-460.098	 H	6	ILE6	0.019	
95	2HD1	523.704	117.640	-459.803	 H	6	ILE6	0.019	
96	3HD1	522.579	118.068	-458.503	 H	6	ILE6	0.019	
97	   N	521.713	121.137	-464.238	N.am	7	LEU7	-0.416	
98	  CA	521.792	121.292	-465.687	C.3	7	LEU7	-0.052	
99	   C	522.010	122.737	-466.065	C.2	7	LEU7	0.597	
100	   O	522.868	123.079	-466.893	O.2	7	LEU7	-0.568	
101	  CB	520.512	120.728	-466.368	C.3	7	LEU7	-0.110	
102	  CG	520.147	119.239	-466.117	C.3	7	LEU7	0.353	
103	 CD1	518.924	118.846	-466.958	C.3	7	LEU7	-0.412	
104	 CD2	521.313	118.283	-466.419	C.3	7	LEU7	-0.412	
105	   H	520.899	120.718	-463.810	 H	7	LEU7	0.272	
106	  HA	522.677	120.740	-466.050	 H	7	LEU7	0.092	
107	 2HB	520.598	120.884	-467.461	 H	7	LEU7	0.046	
108	 3HB	519.646	121.350	-466.066	 H	7	LEU7	0.046	
109	  HG	519.875	119.127	-465.046	 H	7	LEU7	-0.036	
110	1HD1	518.050	119.488	-466.736	 H	7	LEU7	0.100	
111	2HD1	519.120	118.925	-468.044	 H	7	LEU7	0.100	
112	3HD1	518.610	117.806	-466.757	 H	7	LEU7	0.100	
113	1HD2	521.690	118.395	-467.452	 H	7	LEU7	0.100	
114	2HD2	522.165	118.461	-465.736	 H	7	LEU7	0.100	
115	3HD2	521.026	117.224	-466.279	 H	7	LEU7	0.100	
116	   N	521.282	123.646	-465.509	N.am	8	ASP8	-0.516	
117	  CA	521.493	125.044	-465.874	C.3	8	ASP8	0.038	
118	   C	522.923	125.458	-465.626	C.2	8	ASP8	0.537	
119	   O	523.582	126.085	-466.471	O.2	8	ASP8	-0.582	
120	  CB	520.506	125.964	-465.103	C.3	8	ASP8	-0.030	
121	  CG	520.582	127.457	-465.456	C.2	8	ASP8	0.799	
122	 OD1	520.796	127.792	-466.640	O.co2	8	ASP8	-0.801	
123	 OD2	520.472	128.294	-464.537	O.co2	8	ASP8	-0.801	
124	   H	520.577	123.394	-464.832	 H	8	ASP8	0.294	
125	  HA	521.304	125.150	-466.959	 H	8	ASP8	0.088	
126	 2HB	520.670	125.867	-464.014	 H	8	ASP8	-0.012	
127	 3HB	519.464	125.651	-465.276	 H	8	ASP8	-0.012	
128	   N	523.477	125.152	-464.502	N.am	9	GLU9	-0.516	
129	  CA	524.861	125.553	-464.262	C.3	9	GLU9	0.040	
130	   C	525.775	125.007	-465.332	C.2	9	GLU9	0.537	
131	   O	526.623	125.714	-465.896	O.2	9	GLU9	-0.582	
132	  CB	525.314	125.063	-462.857	C.3	9	GLU9	0.056	
133	  CG	526.765	125.462	-462.435	C.3	9	GLU9	0.014	
134	  CD	527.291	124.964	-461.102	C.2	9	GLU9	0.805	
135	 OE1	526.577	124.272	-460.350	O.co2	9	GLU9	-0.819	
136	 OE2	528.467	125.272	-460.817	O.co2	9	GLU9	-0.819	
137	   H	522.962	124.643	-463.799	 H	9	GLU9	0.294	
138	  HA	524.920	126.656	-464.296	 H	9	GLU9	0.111	
139	 2HB	525.222	123.959	-462.798	 H	9	GLU9	-0.017	
140	 3HB	524.614	125.436	-462.084	 H	9	GLU9	-0.017	
141	 2HG	526.891	126.557	-462.427	 H	9	GLU9	-0.043	
142	 3HG	527.509	125.082	-463.154	 H	9	GLU9	-0.043	
143	   N	525.672	123.766	-465.669	N.am	10	HIS10	-0.416	
144	  CA	526.556	123.236	-466.703	C.3	10	HIS10	-0.058	
145	   C	526.420	124.020	-467.986	C.2	10	HIS10	0.597	
146	   O	527.408	124.416	-468.622	O.2	10	HIS10	-0.568	
147	  CB	526.137	121.773	-466.922	C.3	10	HIS10	-0.007	
148	  CG	527.250	120.811	-466.623	C.2	10	HIS10	0.187	
149	 CD2	527.444	120.256	-465.365	C.2	10	HIS10	-0.221	
150	 ND1	528.205	120.359	-467.531	N.2	10	HIS10	-0.543	
151	 CE1	528.922	119.550	-466.730	C.2	10	HIS10	0.163	
152	 NE2	528.536	119.429	-465.431	N.pl3	10	HIS10	-0.280	
153	   H	524.989	123.169	-465.224	 H	10	HIS10	0.272	
154	  HA	527.594	123.374	-466.358	 H	10	HIS10	0.136	
155	 2HB	525.811	121.601	-467.967	 H	10	HIS10	0.037	
156	 3HB	525.269	121.488	-466.292	 H	10	HIS10	0.037	
157	 2HD	526.821	120.461	-464.500	 H	10	HIS10	0.186	
158	 1HE	529.768	119.035	-467.166	 H	10	HIS10	0.144	
159	 2HE	528.955	118.864	-464.678	 H	10	HIS10	0.334	
160	   N	525.240	124.286	-468.434	N.am	11	VAL11	-0.416	
161	  CA	525.108	125.044	-469.675	C.3	11	VAL11	-0.087	
162	   C	525.817	126.374	-469.574	C.2	11	VAL11	0.597	
163	   O	526.570	126.785	-470.465	O.2	11	VAL11	-0.568	
164	  CB	523.579	125.248	-470.019	C.3	11	VAL11	0.299	
165	 CG1	523.260	126.193	-471.210	C.3	11	VAL11	-0.319	
166	 CG2	522.827	123.932	-470.331	C.3	11	VAL11	-0.319	
167	   H	524.419	123.975	-467.934	 H	11	VAL11	0.272	
168	  HA	525.594	124.480	-470.491	 H	11	VAL11	0.097	
169	  HB	523.098	125.695	-469.123	 H	11	VAL11	-0.030	
170	1HG1	523.714	125.848	-472.158	 H	11	VAL11	0.079	
171	2HG1	522.171	126.296	-471.385	 H	11	VAL11	0.079	
172	3HG1	523.617	127.226	-471.037	 H	11	VAL11	0.079	
173	1HG2	522.927	123.196	-469.511	 H	11	VAL11	0.079	
174	2HG2	521.739	124.099	-470.458	 H	11	VAL11	0.079	
175	3HG2	523.195	123.445	-471.254	 H	11	VAL11	0.079	
176	   N	525.631	127.103	-468.526	N.am	12	GLN12	-0.416	
177	  CA	526.316	128.388	-468.428	C.3	12	GLN12	-0.003	
178	   C	527.812	128.216	-468.546	C.2	12	GLN12	0.597	
179	   O	528.493	128.929	-469.280	O.2	12	GLN12	-0.568	
180	  CB	525.939	129.049	-467.083	C.3	12	GLN12	-0.004	
181	  CG	526.546	130.465	-466.815	C.3	12	GLN12	-0.064	
182	  CD	526.265	131.157	-465.475	C.2	12	GLN12	0.695	
183	 NE2	525.514	130.569	-464.580	N.pl3	12	GLN12	-0.941	
184	 OE1	526.753	132.246	-465.213	O.2	12	GLN12	-0.609	
185	   H	525.021	126.790	-467.785	 H	12	GLN12	0.272	
186	  HA	525.986	129.031	-469.265	 H	12	GLN12	0.085	
187	 2HB	526.239	128.367	-466.259	 H	12	GLN12	0.017	
188	 3HB	524.836	129.119	-467.015	 H	12	GLN12	0.017	
189	 2HG	526.246	131.165	-467.618	 H	12	GLN12	0.035	
190	 3HG	527.649	130.430	-466.881	 H	12	GLN12	0.035	
191	1HE2	525.430	131.066	-463.692	 H	12	GLN12	0.425	
192	2HE2	525.194	129.632	-464.833	 H	12	GLN12	0.425	
193	   N	528.392	127.294	-467.855	N.am	13	ARG13	-0.348	
194	  CA	529.838	127.128	-467.970	C.3	13	ARG13	-0.264	
195	   C	530.242	126.882	-469.405	C.2	13	ARG13	0.734	
196	   O	531.174	127.484	-469.932	O.2	13	ARG13	-0.589	
197	  CB	530.283	125.958	-467.047	C.3	13	ARG13	-0.001	
198	  CG	531.817	125.820	-466.834	C.3	13	ARG13	0.039	
199	  CD	532.171	124.620	-465.940	C.3	13	ARG13	0.049	
200	  NE	533.650	124.551	-465.755	N.pl3	13	ARG13	-0.530	
201	  CZ	534.294	123.631	-465.043	C.cat	13	ARG13	0.808	
202	 NH1	533.697	122.656	-464.416	N.pl3	13	ARG13	-0.863	
203	 NH2	535.585	123.704	-464.967	N.pl3	13	ARG13	-0.863	
204	   H	527.854	126.695	-467.245	 H	13	ARG13	0.275	
205	  HA	530.317	128.071	-467.645	 H	13	ARG13	0.156	
206	 2HB	529.868	125.010	-467.448	 H	13	ARG13	0.033	
207	 3HB	529.798	126.072	-466.057	 H	13	ARG13	0.033	
208	 2HG	532.210	126.761	-466.396	 H	13	ARG13	0.029	
209	 3HG	532.328	125.711	-467.812	 H	13	ARG13	0.029	
210	 2HD	531.786	123.688	-466.407	 H	13	ARG13	0.069	
211	 3HD	531.652	124.720	-464.963	 H	13	ARG13	0.069	
212	  HE	534.269	125.246	-466.186	 H	13	ARG13	0.346	
213	1HH1	532.680	122.655	-464.518	 H	13	ARG13	0.448	
214	2HH1	534.263	121.989	-463.889	 H	13	ARG13	0.448	
215	1HH2	536.035	124.473	-465.466	 H	13	ARG13	0.448	
216	2HH2	536.061	122.988	-464.415	 H	13	ARG13	0.448	
217	   N	529.587	126.012	-470.098	N.am	14	VAL14	-0.416	
218	  CA	529.977	125.774	-471.484	C.3	14	VAL14	-0.087	
219	   C	529.933	127.053	-472.286	C.2	14	VAL14	0.597	
220	   O	530.859	127.390	-473.035	O.2	14	VAL14	-0.568	
221	  CB	529.036	124.677	-472.125	C.3	14	VAL14	0.299	
222	 CG1	529.196	124.438	-473.651	C.3	14	VAL14	-0.319	
223	 CG2	529.173	123.279	-471.476	C.3	14	VAL14	-0.319	
224	   H	528.817	125.504	-469.687	 H	14	VAL14	0.272	
225	  HA	531.022	125.415	-471.504	 H	14	VAL14	0.097	
226	  HB	527.988	125.011	-471.965	 H	14	VAL14	-0.030	
227	1HG1	530.219	124.119	-473.925	 H	14	VAL14	0.079	
228	2HG1	528.499	123.666	-474.031	 H	14	VAL14	0.079	
229	3HG1	528.968	125.343	-474.247	 H	14	VAL14	0.079	
230	1HG2	529.010	123.314	-470.384	 H	14	VAL14	0.079	
231	2HG2	528.424	122.566	-471.873	 H	14	VAL14	0.079	
232	3HG2	530.172	122.833	-471.644	 H	14	VAL14	0.079	
233	   N	528.899	127.818	-472.187	N.am	15	MET15	-0.416	
234	  CA	528.856	129.055	-472.961	C.3	15	MET15	-0.024	
235	   C	530.043	129.932	-472.648	C.2	15	MET15	0.597	
236	   O	530.719	130.466	-473.541	O.2	15	MET15	-0.568	
237	  CB	527.523	129.804	-472.683	C.3	15	MET15	0.034	
238	  CG	526.234	129.062	-473.095	C.3	15	MET15	0.002	
239	  SD	524.824	130.176	-472.976	S.3	15	MET15	-0.274	
240	  CE	523.510	128.957	-473.117	C.3	15	MET15	-0.054	
241	   H	528.130	127.564	-471.583	 H	15	MET15	0.272	
242	  HA	528.915	128.800	-474.036	 H	15	MET15	0.088	
243	 2HB	527.534	130.777	-473.210	 H	15	MET15	0.024	
244	 3HB	527.456	130.065	-471.608	 H	15	MET15	0.024	
245	 2HG	526.070	128.191	-472.432	 H	15	MET15	0.044	
246	 3HG	526.302	128.669	-474.126	 H	15	MET15	0.044	
247	 1HE	523.616	128.365	-474.044	 H	15	MET15	0.068	
248	 2HE	523.533	128.265	-472.257	 H	15	MET15	0.068	
249	 3HE	522.524	129.453	-473.133	 H	15	MET15	0.068	
250	   N	530.365	130.133	-471.415	N.am	16	ARG16	-0.348	
251	  CA	531.514	130.982	-471.113	C.3	16	ARG16	-0.264	
252	   C	532.763	130.460	-471.783	C.2	16	ARG16	0.734	
253	   O	532.748	129.461	-472.498	O.2	16	ARG16	-0.589	
254	  CB	531.688	131.059	-469.569	C.3	16	ARG16	-0.001	
255	  CG	532.689	132.135	-469.062	C.3	16	ARG16	0.039	
256	  CD	532.827	132.119	-467.530	C.3	16	ARG16	0.049	
257	  NE	533.782	133.183	-467.101	N.pl3	16	ARG16	-0.530	
258	  CZ	534.135	133.438	-465.845	C.cat	16	ARG16	0.808	
259	 NH1	533.685	132.772	-464.820	N.pl3	16	ARG16	-0.863	
260	 NH2	534.971	134.403	-465.625	N.pl3	16	ARG16	-0.863	
261	   H	529.830	129.710	-470.670	 H	16	ARG16	0.275	
262	  HA	531.311	131.990	-471.522	 H	16	ARG16	0.156	
263	 2HB	531.984	130.057	-469.194	 H	16	ARG16	0.033	
264	 3HB	530.700	131.246	-469.101	 H	16	ARG16	0.033	
265	 2HG	532.357	133.134	-469.411	 H	16	ARG16	0.029	
266	 3HG	533.685	131.974	-469.521	 H	16	ARG16	0.029	
267	 2HD	533.179	131.115	-467.204	 H	16	ARG16	0.069	
268	 3HD	531.829	132.269	-467.066	 H	16	ARG16	0.069	
269	  HE	534.229	133.799	-467.788	 H	16	ARG16	0.346	
270	1HH1	533.030	132.024	-465.062	 H	16	ARG16	0.448	
271	2HH1	534.004	133.030	-463.885	 H	16	ARG16	0.448	
272	1HH2	535.314	134.913	-466.441	 H	16	ARG16	0.448	
273	2HH2	535.229	134.584	-464.653	 H	16	ARG16	0.448	
@<TRIPOS>BOND
1 1 2 1
2 1 10 1
3 2 3 1
4 2 5 1
5 2 11 1
6 3 4 2
7 3 16 1
8 5 6 1
9 6 7 1
10 7 8 2
11 7 9 1
12 5 12 1
13 5 13 1
14 6 14 1
15 6 15 1
16 16 17 1
17 16 24 1
18 17 18 1
19 17 20 1
20 17 25 1
21 18 19 2
22 18 30 1
23 20 21 1
24 21 22 1
25 21 23 2
26 20 26 1
27 20 27 1
28 22 28 1
29 22 29 1
30 30 31 1
31 30 39 1
32 31 32 1
33 31 34 1
34 31 40 1
35 32 33 2
36 32 52 1
37 34 35 1
38 35 36 1
39 36 37 1
40 37 38 1
41 38 51 1
42 34 41 1
43 34 42 1
44 35 43 1
45 35 44 1
46 36 45 1
47 36 46 1
48 37 47 1
49 37 48 1
50 38 49 1
51 38 50 1
52 52 53 1
53 52 61 1
54 53 54 1
55 53 56 1
56 53 62 1
57 54 55 2
58 54 67 1
59 56 57 1
60 57 58 1
61 58 59 2
62 58 60 1
63 56 63 1
64 56 64 1
65 57 65 1
66 57 66 1
67 67 68 1
68 67 73 1
69 68 69 1
70 68 71 1
71 68 74 1
72 69 70 2
73 69 78 1
74 71 72 1
75 71 75 1
76 71 76 1
77 72 77 1
78 78 79 1
79 78 86 1
80 79 80 1
81 79 82 1
82 79 87 1
83 80 81 2
84 80 97 1
85 82 83 1
86 82 84 1
87 83 85 1
88 82 88 1
89 83 89 1
90 83 90 1
91 84 91 1
92 84 92 1
93 84 93 1
94 85 94 1
95 85 95 1
96 85 96 1
97 97 98 1
98 97 105 1
99 98 99 1
100 98 101 1
101 98 106 1
102 99 100 2
103 99 116 1
104 101 102 1
105 102 103 1
106 102 104 1
107 101 107 1
108 101 108 1
109 102 109 1
110 103 110 1
111 103 111 1
112 103 112 1
113 104 113 1
114 104 114 1
115 104 115 1
116 116 117 1
117 116 124 1
118 117 118 1
119 117 120 1
120 117 125 1
121 118 119 2
122 118 128 1
123 120 121 1
124 121 122 2
125 121 123 1
126 120 126 1
127 120 127 1
128 128 129 1
129 128 137 1
130 129 130 1
131 129 132 1
132 129 138 1
133 130 131 2
134 130 143 1
135 132 133 1
136 133 134 1
137 134 135 2
138 134 136 1
139 132 139 1
140 132 140 1
141 133 141 1
142 133 142 1
143 143 144 1
144 143 153 1
145 144 145 1
146 144 147 1
147 144 154 1
148 145 146 2
149 145 160 1
150 147 148 1
151 148 149 2
152 149 152 1
153 148 150 1
154 150 151 2
155 151 152 1
156 147 155 1
157 147 156 1
158 149 157 1
159 151 158 1
160 152 159 1
161 160 161 1
162 160 167 1
163 161 162 1
164 161 164 1
165 161 168 1
166 162 163 2
167 162 176 1
168 164 165 1
169 164 166 1
170 164 169 1
171 165 170 1
172 165 171 1
173 165 172 1
174 166 173 1
175 166 174 1
176 166 175 1
177 176 177 1
178 176 185 1
179 177 178 1
180 177 180 1
181 177 186 1
182 178 179 2
183 178 193 1
184 180 181 1
185 181 182 1
186 182 183 1
187 182 184 2
188 180 187 1
189 180 188 1
190 181 189 1
191 181 190 1
192 183 191 1
193 183 192 1
194 193 194 1
195 193 204 1
196 194 195 1
197 194 197 1
198 194 205 1
199 195 196 2
200 195 217 1
201 197 198 1
202 198 199 1
203 199 200 1
204 200 201 1
205 201 202 2
206 201 203 1
207 197 206 1
208 197 207 1
209 198 208 1
210 198 209 1
211 199 210 1
212 199 211 1
213 200 212 1
214 202 213 1
215 202 214 1
216 203 215 1
217 203 216 1
218 217 218 1
219 217 224 1
220 218 219 1
221 218 221 1
222 218 225 1
223 219 220 2
224 219 233 1
225 221 222 1
226 221 223 1
227 221 226 1
228 222 227 1
229 222 228 1
230 222 229 1
231 223 230 1
232 223 231 1
233 223 232 1
234 233 234 1
235 233 241 1
236 234 235 1
237 234 237 1
238 234 242 1
239 235 236 2
240 235 250 1
241 237 238 1
242 238 239 1
243 239 240 1
244 237 243 1
245 237 244 1
246 238 245 1
247 238 246 1
248 240 247 1
249 240 248 1
250 240 249 1
251 250 251 1
252 250 261 1
253 251 252 1
254 251 254 1
255 251 262 1
256 252 253 2
257 254 255 1
258 255 256 1
259 256 257 1
260 257 258 1
261 258 259 2
262 258 260 1
263 254 263 1
264 254 264 1
265 255 265 1
266 255 266 1
267 256 267 1
268 256 268 1
269 257 269 1
270 259 270 1
271 259 271 1
272 260 272 1
273 260 273 1
@<TRIPOS>SUBSTRUCTURE
1	GLU1	1	RESIDUE	1 ****	GLU
2	ASN2	16	RESIDUE	1 ****	ASN
3	LYS3	30	RESIDUE	1 ****	LYS
4	GLU4	52	RESIDUE	1 ****	GLU
5	SER5	67	RESIDUE	1 ****	SER
6	ILE6	78	RESIDUE	1 ****	ILE
7	LEU7	97	RESIDUE	1 ****	LEU
8	ASP8	116	RESIDUE	1 ****	ASP
9	GLU9	128	RESIDUE	1 ****	GLU
10	HIS10	143	RESIDUE	1 ****	HIS
11	VAL11	160	RESIDUE	1 ****	VAL
12	GLN12	176	RESIDUE	1 ****	GLN
13	ARG13	193	RESIDUE	1 ****	ARG
14	VAL14	217	RESIDUE	1 ****	VAL
15	MET15	233	RESIDUE	1 ****	MET
16	ARG16	250	RESIDUE	1 ****	ARG
