REMARK WARNING: 32 MAX_TORS EXCEEDED!!!
REMARK  69 active torsions:
REMARK  status: ('A' for Active; 'I' for Inactive)
REMARK    1  A    between atoms: N_1  and  CA_2 
REMARK    2  A    between atoms: CA_2  and  C_3 
REMARK    3  A    between atoms: CA_2  and  CB_5 
REMARK       I    between atoms: C_3  and  N_11 
REMARK    4  A    between atoms: CB_5  and  CG_6 
REMARK    5  A    between atoms: CG_6  and  CD_7 
REMARK    6  A    between atoms: N_11  and  CA_12 
REMARK    7  A    between atoms: CA_12  and  C_13 
REMARK    8  A    between atoms: CA_12  and  CB_15 
REMARK       I    between atoms: C_13  and  N_22 
REMARK    9  A    between atoms: CB_15  and  CG_16 
REMARK       I    between atoms: CG_16  and  ND2_17 
REMARK   10  A    between atoms: CA_23  and  C_24 
REMARK       I    between atoms: C_24  and  N_29 
REMARK   11  A    between atoms: N_29  and  CA_30 
REMARK   12  A    between atoms: CA_30  and  C_31 
REMARK   13  A    between atoms: CA_30  and  CB_33 
REMARK       I    between atoms: C_31  and  N_39 
REMARK   14  A    between atoms: CB_33  and  CG_34 
REMARK   15  A    between atoms: CG_34  and  CD_35 
REMARK   16  A    between atoms: N_39  and  CA_40 
REMARK   17  A    between atoms: CA_40  and  C_41 
REMARK   18  A    between atoms: CA_40  and  CB_43 
REMARK       I    between atoms: C_41  and  N_47 
REMARK   19  A    between atoms: CB_43  and  OG_44 
REMARK   20  A    between atoms: N_47  and  CA_48 
REMARK   21  A    between atoms: CA_48  and  C_49 
REMARK   22  A    between atoms: CA_48  and  CB_51 
REMARK       I    between atoms: C_49  and  N_56 
REMARK   23  A    between atoms: CB_51  and  CG1_52 
REMARK   24  A    between atoms: N_56  and  CA_57 
REMARK   25  A    between atoms: CA_57  and  C_58 
REMARK   26  A    between atoms: CA_57  and  CB_60 
REMARK       I    between atoms: C_58  and  N_65 
REMARK   27  A    between atoms: CB_60  and  CG_61 
REMARK   28  A    between atoms: N_65  and  CA_66 
REMARK   29  A    between atoms: CA_66  and  C_67 
REMARK   30  A    between atoms: CA_66  and  CB_69 
REMARK       I    between atoms: C_67  and  N_74 
REMARK   31  A    between atoms: CB_69  and  CG_70 
REMARK   32  A    between atoms: N_74  and  CA_75 
REMARK   33  A    between atoms: CA_75  and  C_76 
REMARK   34  A    between atoms: CA_75  and  CB_78 
REMARK       I    between atoms: C_76  and  N_84 
REMARK   35  A    between atoms: CB_78  and  CG_79 
REMARK   36  A    between atoms: CG_79  and  CD_80 
REMARK   37  A    between atoms: N_84  and  CA_85 
REMARK   38  A    between atoms: CA_85  and  C_86 
REMARK   39  A    between atoms: CA_85  and  CB_88 
REMARK       I    between atoms: C_86  and  N_96 
REMARK   40  A    between atoms: CB_88  and  CG_89 
REMARK   41  A    between atoms: N_96  and  CA_97 
REMARK   42  A    between atoms: CA_97  and  C_98 
REMARK   43  A    between atoms: CA_97  and  CB_100 
REMARK       I    between atoms: C_98  and  N_104 
REMARK   44  A    between atoms: N_104  and  CA_105 
REMARK   45  A    between atoms: CA_105  and  C_106 
REMARK   46  A    between atoms: CA_105  and  CB_108 
REMARK       I    between atoms: C_106  and  N_116 
REMARK   47  A    between atoms: CB_108  and  CG_109 
REMARK   48  A    between atoms: CG_109  and  CD_110 
REMARK       I    between atoms: CD_110  and  NE2_111 
REMARK   49  A    between atoms: N_116  and  CA_117 
REMARK   50  A    between atoms: CA_117  and  C_118 
REMARK   51  A    between atoms: CA_117  and  CB_120 
REMARK       I    between atoms: C_118  and  N_133 
REMARK   52  A    between atoms: CB_120  and  CG_121 
REMARK   53  A    between atoms: CG_121  and  CD_122 
REMARK   54  A    between atoms: CD_122  and  NE_123 
REMARK       I    between atoms: NE_123  and  CZ_124 
REMARK       I    between atoms: CZ_124  and  NH1_125 
REMARK   55  A    between atoms: N_133  and  CA_134 
REMARK   56  A    between atoms: CA_134  and  C_135 
REMARK   57  A    between atoms: CA_134  and  CB_137 
REMARK       I    between atoms: C_135  and  N_141 
REMARK   58  A    between atoms: N_141  and  CA_142 
REMARK   59  A    between atoms: CA_142  and  C_143 
REMARK   60  A    between atoms: CA_142  and  CB_145 
REMARK       I    between atoms: C_143  and  N_150 
REMARK   61  A    between atoms: CB_145  and  CG_146 
REMARK   62  A    between atoms: CG_146  and  SD_147 
REMARK   63  A    between atoms: N_150  and  CA_151 
REMARK   64  A    between atoms: CA_151  and  C_152 
REMARK   65  A    between atoms: CA_151  and  CB_154 
REMARK   66  A    between atoms: CB_154  and  CG_155 
REMARK   67  A    between atoms: CG_155  and  CD_156 
REMARK   68  A    between atoms: CD_156  and  CE_157 
REMARK   69  A    between atoms: CE_157  and  NZ_158 
ROOT
ATOM      1  CA  GLU d   9    2650.518 815.605-2770.421  0.00  0.00     0.177 C 
ENDROOT
BRANCH   1   2
ATOM      2  N   GLU d   9    2649.215 814.948-2770.475  0.00  0.00    -0.346 N 
ATOM      3  C   ASP d   8    2648.535 814.997-2771.571  0.00  0.00     0.241 C 
ATOM      4  O   ASP d   8    2649.008 815.602-2772.546  0.00  0.00    -0.271 OA
ATOM      5  H   GLU d   9    2648.851 814.462-2769.668  0.00  0.00     0.163 HD
BRANCH   3   6
ATOM      6  CA  ASP d   8    2647.188 814.318-2771.627  0.00  0.00     0.186 C 
BRANCH   6   7
ATOM      7  N   ASP d   8    2647.257 812.969-2771.073  0.00  0.00    -0.346 N 
ATOM      8  C   LEU d   7    2648.094 812.128-2771.579  0.00  0.00     0.241 C 
ATOM      9  O   LEU d   7    2648.815 812.490-2772.521  0.00  0.00    -0.271 OA
ATOM     10  H   ASP d   8    2646.659 812.699-2770.305  0.00  0.00     0.163 HD
BRANCH   8  11
ATOM     11  CA  LEU d   7    2648.166 810.733-2771.006  0.00  0.00     0.177 C 
BRANCH  11  12
ATOM     12  N   LEU d   7    2648.221 810.769-2769.548  0.00  0.00    -0.346 N 
ATOM     13  C   ILE d   6    2649.167 811.432-2768.974  0.00  0.00     0.241 C 
ATOM     14  O   ILE d   6    2650.002 812.019-2769.678  0.00  0.00    -0.271 OA
ATOM     15  H   LEU d   7    2647.529 810.282-2768.996  0.00  0.00     0.163 HD
BRANCH  13  16
ATOM     16  CA  ILE d   6    2649.224 811.470-2767.466  0.00  0.00     0.180 C 
BRANCH  16  17
ATOM     17  N   ILE d   6    2647.911 811.765-2766.900  0.00  0.00    -0.346 N 
ATOM     18  C   SER d   5    2647.307 812.848-2767.255  0.00  0.00     0.243 C 
ATOM     19  O   SER d   5    2647.855 813.602-2768.059  0.00  0.00    -0.271 OA
ATOM     20  H   ILE d   6    2647.482 811.131-2766.242  0.00  0.00     0.163 HD
BRANCH  18  21
ATOM     21  CA  SER d   5    2645.948 813.154-2766.669  0.00  0.00     0.200 C 
BRANCH  21  22
ATOM     22  N   SER d   5    2645.078 811.983-2766.728  0.00  0.00    -0.344 N 
ATOM     23  C   GLU d   4    2644.851 811.431-2767.872  0.00  0.00     0.241 C 
ATOM     24  O   GLU d   4    2645.378 811.910-2768.886  0.00  0.00    -0.271 OA
ATOM     25  H   SER d   5    2644.661 811.612-2765.887  0.00  0.00     0.163 HD
BRANCH  23  26
ATOM     26  CA  GLU d   4    2643.952 810.220-2767.933  0.00  0.00     0.177 C 
BRANCH  26  27
ATOM     27  N   GLU d   4    2644.311 809.249-2766.903  0.00  0.00    -0.346 N 
ATOM     28  C   PRO d   3    2645.516 808.789-2766.871  0.00  0.00     0.241 C 
ATOM     29  O   PRO d   3    2646.339 809.172-2767.702  0.00  0.00    -0.271 OA
ATOM     30  H   GLU d   4    2643.626 808.943-2766.227  0.00  0.00     0.163 HD
BRANCH  28  31
ATOM     31  CA  PRO d   3    2645.914 807.765-2765.793  0.00  0.00     0.179 C 
ATOM     32  N   PRO d   3    2645.461 808.174-2764.472  0.00  0.00    -0.337 N 
ATOM     33  C   ASN d   2    2645.983 809.169-2763.838  0.00  0.00     0.243 C 
ATOM     34  CD  PRO d   3    2644.383 807.382-2763.923  0.00  0.00     0.127 C 
ATOM     35  O   ASN d   2    2646.898 809.800-2764.366  0.00  0.00    -0.271 OA
ATOM     36  CG  PRO d   3    2643.926 806.563-2765.133  0.00  0.00     0.022 C 
ATOM     37  CB  PRO d   3    2645.209 806.411-2765.963  0.00  0.00     0.037 C 
BRANCH  33  38
ATOM     38  CA  ASN d   2    2645.451 809.525-2762.469  0.00  0.00     0.185 C 
BRANCH  38  39
ATOM     39  N   ASN d   2    2643.992 809.564-2762.469  0.00  0.00    -0.346 N 
ATOM     40  C   GLU d   1    2643.388 810.350-2763.295  0.00  0.00     0.242 C 
ATOM     41  O   GLU d   1    2644.063 811.049-2764.063  0.00  0.00    -0.271 OA
ATOM     42  H   ASN d   2    2643.464 808.984-2761.833  0.00  0.00     0.163 HD
BRANCH  40  43
ATOM     43  CA  GLU d   1    2641.879 810.390-2763.295  0.00  0.00     0.191 C 
BRANCH  43  44
ATOM     44  N   GLU d   1    2641.320 809.041-2763.295  0.00  0.00    -0.326 NA
ATOM     45  H   GLU d   1    2641.947 808.162-2763.295  0.00  0.00     0.180 HD
ENDBRANCH  43  44
BRANCH  43  46
ATOM     46  CB  GLU d   1    2641.355 811.175-2762.058  0.00  0.00     0.047 C 
BRANCH  46  47
ATOM     47  CG  GLU d   1    2641.831 812.660-2761.947  0.00  0.00     0.116 C 
BRANCH  47  48
ATOM     48  CD  GLU d   1    2641.406 813.464-2760.732  0.00  0.00     0.172 C 
ATOM     49  OE1 GLU d   1    2640.678 812.962-2759.854  0.00  0.00    -0.648 OA
ATOM     50  OE2 GLU d   1    2641.837 814.634-2760.660  0.00  0.00    -0.648 OA
ENDBRANCH  47  48
ENDBRANCH  46  47
ENDBRANCH  43  46
ENDBRANCH  40  43
ENDBRANCH  38  39
BRANCH  38  51
ATOM     51  CB  ASN d   2    2645.943 808.502-2761.405  0.00  0.00     0.137 C 
BRANCH  51  52
ATOM     52  CG  ASN d   2    2645.480 808.726-2759.962  0.00  0.00     0.217 C 
ATOM     53  ND2 ASN d   2    2646.074 809.641-2759.243  0.00  0.00    -0.370 N 
ATOM     54 21HD ASN d   2    2645.593 809.814-2758.357  0.00  0.00     0.159 HD
ATOM     55 22HD ASN d   2    2646.776 810.212-2759.712  0.00  0.00     0.159 HD
ATOM     56  OD1 ASN d   2    2644.559 808.092-2759.468  0.00  0.00    -0.274 OA
ENDBRANCH  51  52
ENDBRANCH  38  51
ENDBRANCH  33  38
ENDBRANCH  28  31
ENDBRANCH  26  27
BRANCH  26  57
ATOM     57  CB  GLU d   4    2642.463 810.639-2767.763  0.00  0.00     0.045 C 
BRANCH  57  58
ATOM     58  CG  GLU d   4    2641.916 811.643-2768.829  0.00  0.00     0.116 C 
BRANCH  58  59
ATOM     59  CD  GLU d   4    2640.490 812.140-2768.686  0.00  0.00     0.172 C 
ATOM     60  OE1 GLU d   4    2639.763 811.742-2767.756  0.00  0.00    -0.648 OA
ATOM     61  OE2 GLU d   4    2640.101 812.969-2769.535  0.00  0.00    -0.648 OA
ENDBRANCH  58  59
ENDBRANCH  57  58
ENDBRANCH  26  57
ENDBRANCH  23  26
ENDBRANCH  21  22
BRANCH  21  62
ATOM     62  CB  SER d   5    2646.059 813.687-2765.219  0.00  0.00     0.199 C 
BRANCH  62  63
ATOM     63  OG  SER d   5    2646.790 812.807-2764.358  0.00  0.00    -0.398 OA
ATOM     64  HG  SER d   5    2646.301 811.982-2764.307  0.00  0.00     0.209 HD
ENDBRANCH  62  63
ENDBRANCH  21  62
ENDBRANCH  18  21
ENDBRANCH  16  17
BRANCH  16  65
ATOM     65  CB  ILE d   6    2649.823 810.133-2766.866  0.00  0.00     0.013 C 
ATOM     66  CG2 ILE d   6    2651.265 809.831-2767.381  0.00  0.00     0.012 C 
BRANCH  65  67
ATOM     67  CG1 ILE d   6    2649.842 810.071-2765.305  0.00  0.00     0.002 C 
ATOM     68  CD1 ILE d   6    2650.112 808.682-2764.690  0.00  0.00     0.005 C 
ENDBRANCH  65  67
ENDBRANCH  16  65
ENDBRANCH  13  16
ENDBRANCH  11  12
BRANCH  11  69
ATOM     69  CB  LEU d   7    2646.963 809.873-2771.487  0.00  0.00     0.038 C 
BRANCH  69  70
ATOM     70  CG  LEU d   7    2646.890 808.393-2771.020  0.00  0.00    -0.020 C 
ATOM     71  CD1 LEU d   7    2645.700 807.688-2771.685  0.00  0.00     0.009 C 
ATOM     72  CD2 LEU d   7    2648.183 807.614-2771.312  0.00  0.00     0.009 C 
ENDBRANCH  69  70
ENDBRANCH  11  69
ENDBRANCH   8  11
ENDBRANCH   6   7
BRANCH   6  73
ATOM     73  CB  ASP d   8    2646.110 815.158-2770.886  0.00  0.00     0.147 C 
BRANCH  73  74
ATOM     74  CG  ASP d   8    2645.892 816.579-2771.427  0.00  0.00     0.175 C 
ATOM     75  OD1 ASP d   8    2645.956 816.777-2772.658  0.00  0.00    -0.648 OA
ATOM     76  OD2 ASP d   8    2645.700 817.505-2770.613  0.00  0.00    -0.648 OA
ENDBRANCH  73  74
ENDBRANCH   6  73
ENDBRANCH   3   6
ENDBRANCH   1   2
BRANCH   1  77
ATOM     77  C   GLU d   9    2651.435 815.076-2771.497  0.00  0.00     0.241 C 
ATOM     78  O   GLU d   9    2652.099 815.830-2772.223  0.00  0.00    -0.271 OA
ATOM     79  N   HIS d  10    2651.531 813.801-2771.665  0.00  0.00    -0.346 N 
ATOM     80  H   HIS d  10    2651.000 813.166-2771.086  0.00  0.00     0.163 HD
BRANCH  79  81
ATOM     81  CA  HIS d  10    2652.418 813.289-2772.706  0.00  0.00     0.182 C 
BRANCH  81  82
ATOM     82  C   HIS d  10    2652.052 813.853-2774.057  0.00  0.00     0.241 C 
ATOM     83  O   HIS d  10    2652.904 814.317-2774.829  0.00  0.00    -0.271 OA
ATOM     84  N   VAL d  11    2650.814 813.852-2774.420  0.00  0.00    -0.346 N 
ATOM     85  H   VAL d  11    2650.101 813.480-2773.809  0.00  0.00     0.163 HD
BRANCH  84  86
ATOM     86  CA  VAL d  11    2650.458 814.398-2775.727  0.00  0.00     0.180 C 
BRANCH  86  87
ATOM     87  C   VAL d  11    2650.924 815.828-2775.860  0.00  0.00     0.241 C 
ATOM     88  O   VAL d  11    2651.525 816.232-2776.864  0.00  0.00    -0.271 OA
ATOM     89  N   GLN d  12    2650.688 816.654-2774.898  0.00  0.00    -0.346 N 
ATOM     90  H   GLN d  12    2650.199 816.349-2774.069  0.00  0.00     0.163 HD
BRANCH  89  91
ATOM     91  CA  GLN d  12    2651.137 818.037-2775.026  0.00  0.00     0.177 C 
BRANCH  91  92
ATOM     92  C   GLN d  12    2652.626 818.104-2775.264  0.00  0.00     0.241 C 
ATOM     93  O   GLN d  12    2653.114 818.811-2776.144  0.00  0.00    -0.271 OA
ATOM     94  N   ARG d  13    2653.411 817.397-2774.523  0.00  0.00    -0.346 N 
ATOM     95  H   ARG d  13    2653.035 816.808-2773.794  0.00  0.00     0.163 HD
BRANCH  94  96
ATOM     96  CA  ARG d  13    2654.851 817.462-2774.754  0.00  0.00     0.176 C 
BRANCH  96  97
ATOM     97  C   ARG d  13    2655.187 817.089-2776.179  0.00  0.00     0.241 C 
ATOM     98  O   ARG d  13    2655.956 817.761-2776.864  0.00  0.00    -0.271 OA
ATOM     99  N   VAL d  14    2654.650 816.035-2776.693  0.00  0.00    -0.346 N 
ATOM    100  H   VAL d  14    2654.015 815.467-2776.150  0.00  0.00     0.163 HD
BRANCH  99 101
ATOM    101  CA  VAL d  14    2654.975 815.675-2778.070  0.00  0.00     0.180 C 
BRANCH 101 102
ATOM    102  C   VAL d  14    2654.645 816.804-2779.016  0.00  0.00     0.241 C 
ATOM    103  O   VAL d  14    2655.438 817.185-2779.886  0.00  0.00    -0.271 OA
ATOM    104  N   MET d  15    2653.500 817.390-2778.915  0.00  0.00    -0.346 N 
ATOM    105  H   MET d  15    2652.835 817.098-2778.213  0.00  0.00     0.163 HD
BRANCH 104 106
ATOM    106  CA  MET d  15    2653.180 818.483-2779.829  0.00  0.00     0.177 C 
BRANCH 106 107
ATOM    107  C   MET d  15    2654.210 819.583-2779.741  0.00  0.00     0.241 C 
ATOM    108  O   MET d  15    2654.712 820.093-2780.754  0.00  0.00    -0.271 OA
ATOM    109  N   LYS d  16    2654.580 820.004-2778.579  0.00  0.00    -0.347 N 
ATOM    110  H   LYS d  16    2654.185 819.604-2777.740  0.00  0.00     0.163 HD
BRANCH 109 111
ATOM    111  CA  LYS d  16    2655.576 821.068-2778.495  0.00  0.00     0.162 C 
BRANCH 111 112
ATOM    112  C   LYS d  16    2656.847 820.677-2779.211  0.00  0.00     0.219 C 
ATOM    113  O   LYS d  16    2656.971 819.582-2779.778  0.00  0.00    -0.287 OA
ENDBRANCH 111 112
BRANCH 111 114
ATOM    114  CB  LYS d  16    2655.857 821.396-2777.004  0.00  0.00     0.033 C 
BRANCH 114 115
ATOM    115  CG  LYS d  16    2656.850 822.569-2776.807  0.00  0.00     0.004 C 
BRANCH 115 116
ATOM    116  CD  LYS d  16    2657.201 822.878-2775.349  0.00  0.00     0.027 C 
BRANCH 116 117
ATOM    117  CE  LYS d  16    2658.241 824.006-2775.307  0.00  0.00     0.229 C 
BRANCH 117 118
ATOM    118  NZ  LYS d  16    2658.454 824.425-2773.911  0.00  0.00    -0.079 N 
ATOM    119  3HZ LYS d  16    2657.727 825.094-2773.700  0.00  0.00     0.274 HD
ATOM    120  1HZ LYS d  16    2658.416 823.615-2773.280  0.00  0.00     0.274 HD
ATOM    121  2HZ LYS d  16    2659.382 824.841-2773.784  0.00  0.00     0.274 HD
ENDBRANCH 117 118
ENDBRANCH 116 117
ENDBRANCH 115 116
ENDBRANCH 114 115
ENDBRANCH 111 114
ENDBRANCH 109 111
ENDBRANCH 106 107
BRANCH 106 122
ATOM    122  CB  MET d  15    2651.759 819.029-2779.520  0.00  0.00     0.045 C 
BRANCH 122 123
ATOM    123  CG  MET d  15    2650.596 818.031-2779.710  0.00  0.00     0.076 C 
BRANCH 123 124
ATOM    124  SD  MET d  15    2649.023 818.897-2779.596  0.00  0.00    -0.173 SA
ATOM    125  CE  MET d  15    2647.942 817.468-2779.459  0.00  0.00     0.089 C 
ENDBRANCH 123 124
ENDBRANCH 122 123
ENDBRANCH 106 122
ENDBRANCH 104 106
ENDBRANCH 101 102
BRANCH 101 126
ATOM    126  CB  VAL d  14    2654.202 814.358-2778.476  0.00  0.00     0.009 C 
ATOM    127  CG1 VAL d  14    2654.291 813.938-2779.970  0.00  0.00     0.012 C 
ATOM    128  CG2 VAL d  14    2654.634 813.106-2777.676  0.00  0.00     0.012 C 
ENDBRANCH 101 126
ENDBRANCH  99 101
ENDBRANCH  96  97
BRANCH  96 129
ATOM    129  CB  ARG d  13    2655.564 816.524-2773.740  0.00  0.00     0.036 C 
BRANCH 129 130
ATOM    130  CG  ARG d  13    2657.110 816.676-2773.660  0.00  0.00     0.023 C 
BRANCH 130 131
ATOM    131  CD  ARG d  13    2657.737 815.689-2772.661  0.00  0.00     0.138 C 
BRANCH 131 132
ATOM    132  NE  ARG d  13    2659.214 815.896-2772.611  0.00  0.00    -0.227 N 
ATOM    133  CZ  ARG d  13    2660.062 815.205-2771.856  0.00  0.00     0.665 C 
ATOM    134  NH1 ARG d  13    2659.697 814.241-2771.058  0.00  0.00    -0.235 N 
ATOM    135  NH2 ARG d  13    2661.322 815.503-2771.913  0.00  0.00    -0.235 N 
ATOM    136 11HH ARG d  13    2658.691 814.055-2771.060  0.00  0.00     0.174 HD
ATOM    137 12HH ARG d  13    2660.410 813.758-2770.509  0.00  0.00     0.174 HD
ATOM    138 21HH ARG d  13    2661.589 816.261-2772.545  0.00  0.00     0.174 HD
ATOM    139 22HH ARG d  13    2661.957 814.962-2771.325  0.00  0.00     0.174 HD
ATOM    140  HE  ARG d  13    2659.665 816.618-2773.183  0.00  0.00     0.177 HD
ENDBRANCH 131 132
ENDBRANCH 130 131
ENDBRANCH 129 130
ENDBRANCH  96 129
ENDBRANCH  94  96
ENDBRANCH  91  92
BRANCH  91 141
ATOM    141  CB  GLN d  12    2650.746 818.805-2773.744  0.00  0.00     0.044 C 
BRANCH 141 142
ATOM    142  CG  GLN d  12    2651.108 820.327-2773.714  0.00  0.00     0.105 C 
BRANCH 142 143
ATOM    143  CD  GLN d  12    2650.806 821.141-2772.449  0.00  0.00     0.215 C 
ATOM    144  NE2 GLN d  12    2650.239 820.566-2771.420  0.00  0.00    -0.370 N 
ATOM    145 21HE GLN d  12    2650.133 821.161-2770.597  0.00  0.00     0.159 HD
ATOM    146 22HE GLN d  12    2650.075 819.562-2771.523  0.00  0.00     0.159 HD
ATOM    147  OE1 GLN d  12    2651.109 822.322-2772.372  0.00  0.00    -0.274 OA
ENDBRANCH 142 143
ENDBRANCH 141 142
ENDBRANCH  91 141
ENDBRANCH  89  91
ENDBRANCH  86  87
BRANCH  86 148
ATOM    148  CB  VAL d  11    2648.897 814.292-2775.946  0.00  0.00     0.009 C 
ATOM    149  CG1 VAL d  11    2648.329 814.995-2777.209  0.00  0.00     0.012 C 
ATOM    150  CG2 VAL d  11    2648.372 812.838-2776.018  0.00  0.00     0.012 C 
ENDBRANCH  86 148
ENDBRANCH  84  86
ENDBRANCH  81  82
BRANCH  81 151
ATOM    151  CB  HIS d  10    2652.254 811.760-2772.700  0.00  0.00     0.095 C 
BRANCH 151 152
ATOM    152  CG  HIS d  10    2653.539 811.049-2772.392  0.00  0.00     0.053 A 
ATOM    153  CD2 HIS d  10    2653.921 810.715-2771.100  0.00  0.00     0.116 A 
ATOM    154  NE2 HIS d  10    2655.135 810.082-2771.166  0.00  0.00    -0.359 N 
ATOM    155  CE1 HIS d  10    2655.397 810.084-2772.501  0.00  0.00     0.207 A 
ATOM    156  2HE HIS d  10    2655.702 809.705-2770.393  0.00  0.00     0.166 HD
ATOM    157  ND1 HIS d  10    2654.491 810.642-2773.325  0.00  0.00    -0.247 NA
ENDBRANCH 151 152
ENDBRANCH  81 151
ENDBRANCH  79  81
ENDBRANCH   1  77
BRANCH   1 158
ATOM    158  CB  GLU d   9    2651.151 815.398-2769.015  0.00  0.00     0.045 C 
BRANCH 158 159
ATOM    159  CG  GLU d   9    2652.534 816.089-2768.787  0.00  0.00     0.116 C 
BRANCH 159 160
ATOM    160  CD  GLU d   9    2653.236 815.876-2767.458  0.00  0.00     0.172 C 
ATOM    161  OE1 GLU d   9    2652.715 815.186-2766.562  0.00  0.00    -0.648 OA
ATOM    162  OE2 GLU d   9    2654.356 816.414-2767.327  0.00  0.00    -0.648 OA
ENDBRANCH 159 160
ENDBRANCH 158 159
ENDBRANCH   1 158
TORSDOF 69
