REMARK WARNING: 32 MAX_TORS EXCEEDED!!!
REMARK  70 active torsions:
REMARK  status: ('A' for Active; 'I' for Inactive)
REMARK    1  A    between atoms: N_1  and  CA_2 
REMARK    2  A    between atoms: CA_2  and  C_3 
REMARK    3  A    between atoms: CA_2  and  CB_5 
REMARK       I    between atoms: C_3  and  N_11 
REMARK    4  A    between atoms: CB_5  and  CG_6 
REMARK    5  A    between atoms: CG_6  and  CD_7 
REMARK    6  A    between atoms: N_11  and  CA_12 
REMARK    7  A    between atoms: CA_12  and  C_13 
REMARK    8  A    between atoms: CA_12  and  CB_15 
REMARK       I    between atoms: C_13  and  N_22 
REMARK    9  A    between atoms: CB_15  and  CG_16 
REMARK       I    between atoms: CG_16  and  ND2_17 
REMARK   10  A    between atoms: CA_23  and  C_24 
REMARK       I    between atoms: C_24  and  N_29 
REMARK   11  A    between atoms: N_29  and  CA_30 
REMARK   12  A    between atoms: CA_30  and  C_31 
REMARK   13  A    between atoms: CA_30  and  CB_33 
REMARK       I    between atoms: C_31  and  N_39 
REMARK   14  A    between atoms: CB_33  and  CG_34 
REMARK   15  A    between atoms: CG_34  and  CD_35 
REMARK   16  A    between atoms: N_39  and  CA_40 
REMARK   17  A    between atoms: CA_40  and  C_41 
REMARK   18  A    between atoms: CA_40  and  CB_43 
REMARK       I    between atoms: C_41  and  N_47 
REMARK   19  A    between atoms: CB_43  and  OG_44 
REMARK   20  A    between atoms: N_47  and  CA_48 
REMARK   21  A    between atoms: CA_48  and  C_49 
REMARK   22  A    between atoms: CA_48  and  CB_51 
REMARK       I    between atoms: C_49  and  N_56 
REMARK   23  A    between atoms: CB_51  and  CG1_52 
REMARK   24  A    between atoms: N_56  and  CA_57 
REMARK   25  A    between atoms: CA_57  and  C_58 
REMARK   26  A    between atoms: CA_57  and  CB_60 
REMARK       I    between atoms: C_58  and  N_65 
REMARK   27  A    between atoms: CB_60  and  CG_61 
REMARK   28  A    between atoms: N_65  and  CA_66 
REMARK   29  A    between atoms: CA_66  and  C_67 
REMARK   30  A    between atoms: CA_66  and  CB_69 
REMARK       I    between atoms: C_67  and  N_74 
REMARK   31  A    between atoms: CB_69  and  CG_70 
REMARK   32  A    between atoms: N_74  and  CA_75 
REMARK   33  A    between atoms: CA_75  and  C_76 
REMARK   34  A    between atoms: CA_75  and  CB_78 
REMARK       I    between atoms: C_76  and  N_84 
REMARK   35  A    between atoms: CB_78  and  CG_79 
REMARK   36  A    between atoms: CG_79  and  CD_80 
REMARK   37  A    between atoms: N_84  and  CA_85 
REMARK   38  A    between atoms: CA_85  and  C_86 
REMARK   39  A    between atoms: CA_85  and  CB_88 
REMARK       I    between atoms: C_86  and  N_96 
REMARK   40  A    between atoms: CB_88  and  CG_89 
REMARK   41  A    between atoms: N_96  and  CA_97 
REMARK   42  A    between atoms: CA_97  and  C_98 
REMARK   43  A    between atoms: CA_97  and  CB_100 
REMARK       I    between atoms: C_98  and  N_105 
REMARK   44  A    between atoms: CB_100  and  CG_101 
REMARK   45  A    between atoms: CG_101  and  SD_102 
REMARK   46  A    between atoms: N_105  and  CA_106 
REMARK   47  A    between atoms: CA_106  and  C_107 
REMARK   48  A    between atoms: CA_106  and  CB_109 
REMARK       I    between atoms: C_107  and  N_117 
REMARK   49  A    between atoms: CB_109  and  CG_110 
REMARK   50  A    between atoms: CG_110  and  CD_111 
REMARK       I    between atoms: CD_111  and  NE2_112 
REMARK   51  A    between atoms: N_117  and  CA_118 
REMARK   52  A    between atoms: CA_118  and  C_119 
REMARK   53  A    between atoms: CA_118  and  CB_121 
REMARK       I    between atoms: C_119  and  N_134 
REMARK   54  A    between atoms: CB_121  and  CG_122 
REMARK   55  A    between atoms: CG_122  and  CD_123 
REMARK   56  A    between atoms: CD_123  and  NE_124 
REMARK       I    between atoms: NE_124  and  CZ_125 
REMARK       I    between atoms: CZ_125  and  NH1_126 
REMARK       I    between atoms: CZ_125  and  NH2_127 
REMARK   57  A    between atoms: N_134  and  CA_135 
REMARK   58  A    between atoms: CA_135  and  C_136 
REMARK   59  A    between atoms: CA_135  and  CB_138 
REMARK       I    between atoms: C_136  and  N_142 
REMARK   60  A    between atoms: N_142  and  CA_143 
REMARK   61  A    between atoms: CA_143  and  C_144 
REMARK   62  A    between atoms: CA_143  and  CB_146 
REMARK       I    between atoms: C_144  and  N_151 
REMARK   63  A    between atoms: CB_146  and  CG_147 
REMARK   64  A    between atoms: CG_147  and  SD_148 
REMARK   65  A    between atoms: N_151  and  CA_152 
REMARK   66  A    between atoms: CA_152  and  C_153 
REMARK   67  A    between atoms: CA_152  and  CB_155 
REMARK   68  A    between atoms: CB_155  and  CG_156 
REMARK   69  A    between atoms: CG_156  and  CD_157 
REMARK   70  A    between atoms: CD_157  and  NE_158 
REMARK       I    between atoms: NE_158  and  CZ_159 
REMARK       I    between atoms: CZ_159  and  NH1_160 
ROOT
ATOM      1  C   GLU d   9    1724.220 518.662-1759.066  0.00  0.00     0.241 C 
ATOM      2  O   GLU d   9    1724.884 519.417-1759.791  0.00  0.00    -0.271 OA
ATOM      3  N   HIS d  10    1724.317 517.387-1759.236  0.00  0.00    -0.346 N 
ATOM      4  H   HIS d  10    1723.786 516.751-1758.658  0.00  0.00     0.163 HD
ENDROOT
BRANCH   3   5
ATOM      5  CA  HIS d  10    1725.205 516.877-1760.276  0.00  0.00     0.182 C 
BRANCH   5   6
ATOM      6  C   HIS d  10    1724.839 517.442-1761.628  0.00  0.00     0.241 C 
ATOM      7  O   HIS d  10    1725.691 517.907-1762.399  0.00  0.00    -0.271 OA
ATOM      8  N   MET d  11    1723.601 517.440-1761.991  0.00  0.00    -0.346 N 
ATOM      9  H   MET d  11    1722.888 517.067-1761.380  0.00  0.00     0.163 HD
BRANCH   8  10
ATOM     10  CA  MET d  11    1723.245 517.986-1763.297  0.00  0.00     0.177 C 
BRANCH  10  11
ATOM     11  C   MET d  11    1723.708 519.417-1763.431  0.00  0.00     0.241 C 
ATOM     12  O   MET d  11    1724.309 519.821-1764.438  0.00  0.00    -0.271 OA
ATOM     13  N   GLN d  12    1723.471 520.244-1762.470  0.00  0.00    -0.346 N 
ATOM     14  H   GLN d  12    1722.983 519.939-1761.640  0.00  0.00     0.163 HD
BRANCH  13  15
ATOM     15  CA  GLN d  12    1723.918 521.627-1762.600  0.00  0.00     0.177 C 
BRANCH  15  16
ATOM     16  C   GLN d  12    1725.408 521.695-1762.839  0.00  0.00     0.241 C 
ATOM     17  O   GLN d  12    1725.894 522.402-1763.719  0.00  0.00    -0.271 OA
ATOM     18  N   ARG d  13    1726.194 520.990-1762.098  0.00  0.00    -0.346 N 
ATOM     19  H   ARG d  13    1725.819 520.401-1761.368  0.00  0.00     0.163 HD
BRANCH  18  20
ATOM     20  CA  ARG d  13    1727.634 521.057-1762.330  0.00  0.00     0.176 C 
BRANCH  20  21
ATOM     21  C   ARG d  13    1727.969 520.683-1763.755  0.00  0.00     0.241 C 
ATOM     22  O   ARG d  13    1728.736 521.355-1764.440  0.00  0.00    -0.271 OA
ATOM     23  N   VAL d  14    1727.433 519.628-1764.267  0.00  0.00    -0.346 N 
ATOM     24  H   VAL d  14    1726.799 519.059-1763.723  0.00  0.00     0.163 HD
BRANCH  23  25
ATOM     25  CA  VAL d  14    1727.757 519.266-1765.644  0.00  0.00     0.180 C 
BRANCH  25  26
ATOM     26  C   VAL d  14    1727.425 520.395-1766.591  0.00  0.00     0.241 C 
ATOM     27  O   VAL d  14    1728.218 520.775-1767.462  0.00  0.00    -0.271 OA
ATOM     28  N   MET d  15    1726.280 520.980-1766.489  0.00  0.00    -0.346 N 
ATOM     29  H   MET d  15    1725.616 520.687-1765.787  0.00  0.00     0.163 HD
BRANCH  28  30
ATOM     30  CA  MET d  15    1725.958 522.071-1767.404  0.00  0.00     0.177 C 
BRANCH  30  31
ATOM     31  C   MET d  15    1726.987 523.172-1767.320  0.00  0.00     0.241 C 
ATOM     32  O   MET d  15    1727.488 523.681-1768.334  0.00  0.00    -0.271 OA
ATOM     33  N   ARG d  16    1727.357 523.595-1766.158  0.00  0.00    -0.347 N 
ATOM     34  H   ARG d  16    1726.963 523.196-1765.318  0.00  0.00     0.163 HD
BRANCH  33  35
ATOM     35  CA  ARG d  16    1728.352 524.660-1766.078  0.00  0.00     0.162 C 
BRANCH  35  36
ATOM     36  C   ARG d  16    1729.623 524.267-1766.794  0.00  0.00     0.219 C 
ATOM     37  O   ARG d  16    1729.737 523.190-1767.374  0.00  0.00    -0.287 OA
ENDBRANCH  35  36
BRANCH  35  38
ATOM     38  CB  ARG d  16    1728.623 524.980-1764.580  0.00  0.00     0.035 C 
BRANCH  38  39
ATOM     39  CG  ARG d  16    1729.447 526.271-1764.310  0.00  0.00     0.023 C 
BRANCH  39  40
ATOM     40  CD  ARG d  16    1729.698 526.492-1762.809  0.00  0.00     0.138 C 
BRANCH  40  41
ATOM     41  NE  ARG d  16    1730.473 527.753-1762.611  0.00  0.00    -0.227 N 
ATOM     42  CZ  ARG d  16    1730.865 528.237-1761.437  0.00  0.00     0.665 C 
ATOM     43  NH1 ARG d  16    1730.619 527.654-1760.297  0.00  0.00    -0.235 N 
ATOM     44  NH2 ARG d  16    1731.528 529.350-1761.421  0.00  0.00    -0.235 N 
ATOM     45 11HH ARG d  16    1730.094 526.781-1760.380  0.00  0.00     0.174 HD
ATOM     46 12HH ARG d  16    1730.954 528.092-1759.437  0.00  0.00     0.174 HD
ATOM     47 21HH ARG d  16    1731.712 529.792-1762.323  0.00  0.00     0.174 HD
ATOM     48 22HH ARG d  16    1731.819 529.707-1760.509  0.00  0.00     0.174 HD
ATOM     49  HE  ARG d  16    1730.750 528.333-1763.410  0.00  0.00     0.177 HD
ENDBRANCH  40  41
ENDBRANCH  39  40
ENDBRANCH  38  39
ENDBRANCH  35  38
ENDBRANCH  33  35
ENDBRANCH  30  31
BRANCH  30  50
ATOM     50  CB  MET d  15    1724.536 522.615-1767.095  0.00  0.00     0.045 C 
BRANCH  50  51
ATOM     51  CG  MET d  15    1723.375 521.616-1767.284  0.00  0.00     0.076 C 
BRANCH  51  52
ATOM     52  SD  MET d  15    1721.801 522.481-1767.169  0.00  0.00    -0.173 SA
ATOM     53  CE  MET d  15    1720.721 521.050-1767.029  0.00  0.00     0.089 C 
ENDBRANCH  51  52
ENDBRANCH  50  51
ENDBRANCH  30  50
ENDBRANCH  28  30
ENDBRANCH  25  26
BRANCH  25  54
ATOM     54  CB  VAL d  14    1726.986 517.948-1766.048  0.00  0.00     0.009 C 
ATOM     55  CG1 VAL d  14    1727.074 517.527-1767.541  0.00  0.00     0.012 C 
ATOM     56  CG2 VAL d  14    1727.419 516.697-1765.246  0.00  0.00     0.012 C 
ENDBRANCH  25  54
ENDBRANCH  23  25
ENDBRANCH  20  21
BRANCH  20  57
ATOM     57  CB  ARG d  13    1728.349 520.120-1761.315  0.00  0.00     0.036 C 
BRANCH  57  58
ATOM     58  CG  ARG d  13    1729.894 520.275-1761.236  0.00  0.00     0.023 C 
BRANCH  58  59
ATOM     59  CD  ARG d  13    1730.523 519.290-1760.237  0.00  0.00     0.138 C 
BRANCH  59  60
ATOM     60  NE  ARG d  13    1732.000 519.498-1760.188  0.00  0.00    -0.227 N 
ATOM     61  CZ  ARG d  13    1732.849 518.809-1759.433  0.00  0.00     0.665 C 
ATOM     62  NH1 ARG d  13    1732.486 517.845-1758.634  0.00  0.00    -0.235 N 
ATOM     63  NH2 ARG d  13    1734.108 519.109-1759.491  0.00  0.00    -0.235 N 
ATOM     64 11HH ARG d  13    1731.481 517.658-1758.635  0.00  0.00     0.174 HD
ATOM     65 12HH ARG d  13    1733.200 517.364-1758.085  0.00  0.00     0.174 HD
ATOM     66 21HH ARG d  13    1734.375 519.866-1760.124  0.00  0.00     0.174 HD
ATOM     67 22HH ARG d  13    1734.745 518.569-1758.902  0.00  0.00     0.174 HD
ATOM     68  HE  ARG d  13    1732.450 520.220-1760.761  0.00  0.00     0.177 HD
ENDBRANCH  59  60
ENDBRANCH  58  59
ENDBRANCH  57  58
ENDBRANCH  20  57
ENDBRANCH  18  20
ENDBRANCH  15  16
BRANCH  15  69
ATOM     69  CB  GLN d  12    1723.528 522.396-1761.318  0.00  0.00     0.044 C 
BRANCH  69  70
ATOM     70  CG  GLN d  12    1723.887 523.918-1761.289  0.00  0.00     0.105 C 
BRANCH  70  71
ATOM     71  CD  GLN d  12    1723.585 524.734-1760.026  0.00  0.00     0.215 C 
ATOM     72  NE2 GLN d  12    1723.019 524.159-1758.995  0.00  0.00    -0.370 N 
ATOM     73 21HE GLN d  12    1722.912 524.754-1758.173  0.00  0.00     0.159 HD
ATOM     74 22HE GLN d  12    1722.856 523.155-1759.097  0.00  0.00     0.159 HD
ATOM     75  OE1 GLN d  12    1723.886 525.915-1759.950  0.00  0.00    -0.274 OA
ENDBRANCH  70  71
ENDBRANCH  69  70
ENDBRANCH  15  69
ENDBRANCH  13  15
ENDBRANCH  10  11
BRANCH  10  76
ATOM     76  CB  MET d  11    1721.710 517.877-1763.514  0.00  0.00     0.045 C 
BRANCH  76  77
ATOM     77  CG  MET d  11    1721.133 516.445-1763.539  0.00  0.00     0.076 C 
BRANCH  77  78
ATOM     78  SD  MET d  11    1719.418 516.488-1764.085  0.00  0.00    -0.173 SA
ATOM     79  CE  MET d  11    1718.953 514.812-1763.633  0.00  0.00     0.089 C 
ENDBRANCH  77  78
ENDBRANCH  76  77
ENDBRANCH  10  76
ENDBRANCH   8  10
ENDBRANCH   5   6
BRANCH   5  80
ATOM     80  CB  HIS d  10    1725.042 515.348-1760.272  0.00  0.00     0.095 C 
BRANCH  80  81
ATOM     81  CG  HIS d  10    1726.328 514.638-1759.964  0.00  0.00     0.053 A 
ATOM     82  CD2 HIS d  10    1726.709 514.302-1758.672  0.00  0.00     0.116 A 
ATOM     83  NE2 HIS d  10    1727.924 513.671-1758.738  0.00  0.00    -0.359 N 
ATOM     84  CE1 HIS d  10    1728.187 513.675-1760.073  0.00  0.00     0.207 A 
ATOM     85  2HE HIS d  10    1728.491 513.294-1757.965  0.00  0.00     0.166 HD
ATOM     86  ND1 HIS d  10    1727.281 514.233-1760.897  0.00  0.00    -0.247 NA
ENDBRANCH  80  81
ENDBRANCH   5  80
ENDBRANCH   3   5
BRANCH   1  87
ATOM     87  CA  GLU d   9    1723.302 519.189-1757.990  0.00  0.00     0.177 C 
BRANCH  87  88
ATOM     88  N   GLU d   9    1721.999 518.531-1758.046  0.00  0.00    -0.346 N 
ATOM     89  C   ASP d   8    1721.319 518.581-1759.141  0.00  0.00     0.241 C 
ATOM     90  O   ASP d   8    1721.792 519.187-1760.116  0.00  0.00    -0.271 OA
ATOM     91  H   GLU d   9    1721.636 518.045-1757.239  0.00  0.00     0.163 HD
BRANCH  89  92
ATOM     92  CA  ASP d   8    1719.973 517.901-1759.199  0.00  0.00     0.186 C 
BRANCH  92  93
ATOM     93  N   ASP d   8    1720.043 516.552-1758.646  0.00  0.00    -0.346 N 
ATOM     94  C   LEU d   7    1720.881 515.711-1759.152  0.00  0.00     0.241 C 
ATOM     95  O   LEU d   7    1721.602 516.074-1760.094  0.00  0.00    -0.271 OA
ATOM     96  H   ASP d   8    1719.446 516.280-1757.878  0.00  0.00     0.163 HD
BRANCH  94  97
ATOM     97  CA  LEU d   7    1720.954 514.316-1758.579  0.00  0.00     0.177 C 
BRANCH  97  98
ATOM     98  N   LEU d   7    1721.009 514.352-1757.121  0.00  0.00    -0.346 N 
ATOM     99  C   ILE d   6    1721.954 515.016-1756.547  0.00  0.00     0.241 C 
ATOM    100  O   ILE d   6    1722.789 515.604-1757.251  0.00  0.00    -0.271 OA
ATOM    101  H   LEU d   7    1720.317 513.865-1756.569  0.00  0.00     0.163 HD
BRANCH  99 102
ATOM    102  CA  ILE d   6    1722.011 515.053-1755.039  0.00  0.00     0.180 C 
BRANCH 102 103
ATOM    103  N   ILE d   6    1720.698 515.348-1754.473  0.00  0.00    -0.346 N 
ATOM    104  C   SER d   5    1720.094 516.431-1754.827  0.00  0.00     0.243 C 
ATOM    105  O   SER d   5    1720.641 517.184-1755.632  0.00  0.00    -0.271 OA
ATOM    106  H   ILE d   6    1720.270 514.714-1753.814  0.00  0.00     0.163 HD
BRANCH 104 107
ATOM    107  CA  SER d   5    1718.735 516.737-1754.242  0.00  0.00     0.200 C 
BRANCH 107 108
ATOM    108  N   SER d   5    1717.865 515.565-1754.300  0.00  0.00    -0.344 N 
ATOM    109  C   GLU d   4    1717.638 515.012-1755.443  0.00  0.00     0.241 C 
ATOM    110  O   GLU d   4    1718.164 515.492-1756.458  0.00  0.00    -0.271 OA
ATOM    111  H   SER d   5    1717.448 515.194-1753.459  0.00  0.00     0.163 HD
BRANCH 109 112
ATOM    112  CA  GLU d   4    1716.739 513.801-1755.504  0.00  0.00     0.177 C 
BRANCH 112 113
ATOM    113  N   GLU d   4    1717.098 512.830-1754.475  0.00  0.00    -0.346 N 
ATOM    114  C   PRO d   3    1718.303 512.370-1754.443  0.00  0.00     0.241 C 
ATOM    115  O   PRO d   3    1719.126 512.754-1755.274  0.00  0.00    -0.271 OA
ATOM    116  H   GLU d   4    1716.414 512.524-1753.798  0.00  0.00     0.163 HD
BRANCH 114 117
ATOM    117  CA  PRO d   3    1718.701 511.347-1753.366  0.00  0.00     0.179 C 
ATOM    118  N   PRO d   3    1718.249 511.756-1752.044  0.00  0.00    -0.337 N 
ATOM    119  C   ASN d   2    1718.771 512.751-1751.410  0.00  0.00     0.243 C 
ATOM    120  CD  PRO d   3    1717.172 510.963-1751.495  0.00  0.00     0.127 C 
ATOM    121  O   ASN d   2    1719.686 513.382-1751.939  0.00  0.00    -0.271 OA
ATOM    122  CG  PRO d   3    1716.714 510.145-1752.705  0.00  0.00     0.022 C 
ATOM    123  CB  PRO d   3    1717.997 509.992-1753.535  0.00  0.00     0.037 C 
BRANCH 119 124
ATOM    124  CA  ASN d   2    1718.240 513.107-1750.041  0.00  0.00     0.185 C 
BRANCH 124 125
ATOM    125  N   ASN d   2    1716.781 513.146-1750.041  0.00  0.00    -0.346 N 
ATOM    126  C   GLU d   1    1716.176 513.931-1750.867  0.00  0.00     0.242 C 
ATOM    127  O   GLU d   1    1716.852 514.630-1751.635  0.00  0.00    -0.271 OA
ATOM    128  H   ASN d   2    1716.252 512.566-1749.405  0.00  0.00     0.163 HD
BRANCH 126 129
ATOM    129  CA  GLU d   1    1714.667 513.971-1750.867  0.00  0.00     0.191 C 
BRANCH 129 130
ATOM    130  N   GLU d   1    1714.108 512.622-1750.867  0.00  0.00    -0.326 NA
ATOM    131  H   GLU d   1    1714.735 511.743-1750.867  0.00  0.00     0.180 HD
ENDBRANCH 129 130
BRANCH 129 132
ATOM    132  CB  GLU d   1    1714.144 514.756-1749.630  0.00  0.00     0.047 C 
BRANCH 132 133
ATOM    133  CG  GLU d   1    1714.619 516.241-1749.519  0.00  0.00     0.116 C 
BRANCH 133 134
ATOM    134  CD  GLU d   1    1714.195 517.045-1748.303  0.00  0.00     0.172 C 
ATOM    135  OE1 GLU d   1    1713.467 516.543-1747.426  0.00  0.00    -0.648 OA
ATOM    136  OE2 GLU d   1    1714.625 518.215-1748.232  0.00  0.00    -0.648 OA
ENDBRANCH 133 134
ENDBRANCH 132 133
ENDBRANCH 129 132
ENDBRANCH 126 129
ENDBRANCH 124 125
BRANCH 124 137
ATOM    137  CB  ASN d   2    1718.732 512.084-1748.977  0.00  0.00     0.137 C 
BRANCH 137 138
ATOM    138  CG  ASN d   2    1718.269 512.308-1747.534  0.00  0.00     0.217 C 
ATOM    139  ND2 ASN d   2    1718.863 513.223-1746.816  0.00  0.00    -0.370 N 
ATOM    140 21HD ASN d   2    1718.382 513.396-1745.929  0.00  0.00     0.159 HD
ATOM    141 22HD ASN d   2    1719.565 513.794-1747.285  0.00  0.00     0.159 HD
ATOM    142  OD1 ASN d   2    1717.348 511.674-1747.040  0.00  0.00    -0.274 OA
ENDBRANCH 137 138
ENDBRANCH 124 137
ENDBRANCH 119 124
ENDBRANCH 114 117
ENDBRANCH 112 113
BRANCH 112 143
ATOM    143  CB  GLU d   4    1715.250 514.220-1755.334  0.00  0.00     0.045 C 
BRANCH 143 144
ATOM    144  CG  GLU d   4    1714.702 515.224-1756.400  0.00  0.00     0.116 C 
BRANCH 144 145
ATOM    145  CD  GLU d   4    1713.276 515.721-1756.256  0.00  0.00     0.172 C 
ATOM    146  OE1 GLU d   4    1712.549 515.322-1755.325  0.00  0.00    -0.648 OA
ATOM    147  OE2 GLU d   4    1712.886 516.550-1757.105  0.00  0.00    -0.648 OA
ENDBRANCH 144 145
ENDBRANCH 143 144
ENDBRANCH 112 143
ENDBRANCH 109 112
ENDBRANCH 107 108
BRANCH 107 148
ATOM    148  CB  SER d   5    1718.846 517.269-1752.791  0.00  0.00     0.199 C 
BRANCH 148 149
ATOM    149  OG  SER d   5    1719.578 516.390-1751.930  0.00  0.00    -0.398 OA
ATOM    150  HG  SER d   5    1719.089 515.565-1751.880  0.00  0.00     0.209 HD
ENDBRANCH 148 149
ENDBRANCH 107 148
ENDBRANCH 104 107
ENDBRANCH 102 103
BRANCH 102 151
ATOM    151  CB  ILE d   6    1722.611 513.717-1754.439  0.00  0.00     0.013 C 
ATOM    152  CG2 ILE d   6    1724.053 513.416-1754.955  0.00  0.00     0.012 C 
BRANCH 151 153
ATOM    153  CG1 ILE d   6    1722.631 513.655-1752.878  0.00  0.00     0.002 C 
ATOM    154  CD1 ILE d   6    1722.901 512.266-1752.263  0.00  0.00     0.005 C 
ENDBRANCH 151 153
ENDBRANCH 102 151
ENDBRANCH  99 102
ENDBRANCH  97  98
BRANCH  97 155
ATOM    155  CB  LEU d   7    1719.751 513.456-1759.060  0.00  0.00     0.038 C 
BRANCH 155 156
ATOM    156  CG  LEU d   7    1719.678 511.976-1758.593  0.00  0.00    -0.020 C 
ATOM    157  CD1 LEU d   7    1718.488 511.270-1759.259  0.00  0.00     0.009 C 
ATOM    158  CD2 LEU d   7    1720.972 511.197-1758.885  0.00  0.00     0.009 C 
ENDBRANCH 155 156
ENDBRANCH  97 155
ENDBRANCH  94  97
ENDBRANCH  92  93
BRANCH  92 159
ATOM    159  CB  ASP d   8    1718.895 518.740-1758.457  0.00  0.00     0.147 C 
BRANCH 159 160
ATOM    160  CG  ASP d   8    1718.676 520.161-1758.997  0.00  0.00     0.175 C 
ATOM    161  OD1 ASP d   8    1718.740 520.360-1760.228  0.00  0.00    -0.648 OA
ATOM    162  OD2 ASP d   8    1718.483 521.086-1758.181  0.00  0.00    -0.648 OA
ENDBRANCH 159 160
ENDBRANCH  92 159
ENDBRANCH  89  92
ENDBRANCH  87  88
BRANCH  87 163
ATOM    163  CB  GLU d   9    1723.935 518.982-1756.585  0.00  0.00     0.045 C 
BRANCH 163 164
ATOM    164  CG  GLU d   9    1725.317 519.674-1756.355  0.00  0.00     0.116 C 
BRANCH 164 165
ATOM    165  CD  GLU d   9    1726.019 519.461-1755.027  0.00  0.00     0.172 C 
ATOM    166  OE1 GLU d   9    1725.498 518.770-1754.131  0.00  0.00    -0.648 OA
ATOM    167  OE2 GLU d   9    1727.138 519.999-1754.895  0.00  0.00    -0.648 OA
ENDBRANCH 164 165
ENDBRANCH 163 164
ENDBRANCH  87 163
ENDBRANCH   1  87
TORSDOF 70
