REMARK WARNING: 32 MAX_TORS EXCEEDED!!!
REMARK  68 active torsions:
REMARK  status: ('A' for Active; 'I' for Inactive)
REMARK    1  A    between atoms: N_1  and  CA_2 
REMARK    2  A    between atoms: CA_2  and  C_3 
REMARK    3  A    between atoms: CA_2  and  CB_5 
REMARK       I    between atoms: C_3  and  N_11 
REMARK    4  A    between atoms: CB_5  and  CG_6 
REMARK    5  A    between atoms: CG_6  and  CD_7 
REMARK    6  A    between atoms: N_11  and  CA_12 
REMARK    7  A    between atoms: CA_12  and  C_13 
REMARK    8  A    between atoms: CA_12  and  CB_15 
REMARK       I    between atoms: C_13  and  N_22 
REMARK    9  A    between atoms: CB_15  and  CG_16 
REMARK       I    between atoms: CG_16  and  ND2_17 
REMARK   10  A    between atoms: CA_23  and  C_24 
REMARK       I    between atoms: C_24  and  N_29 
REMARK   11  A    between atoms: N_29  and  CA_30 
REMARK   12  A    between atoms: CA_30  and  C_31 
REMARK   13  A    between atoms: CA_30  and  CB_33 
REMARK       I    between atoms: C_31  and  N_39 
REMARK   14  A    between atoms: CB_33  and  CG_34 
REMARK   15  A    between atoms: CG_34  and  CD_35 
REMARK   16  A    between atoms: N_39  and  CA_40 
REMARK   17  A    between atoms: CA_40  and  C_41 
REMARK   18  A    between atoms: CA_40  and  CB_43 
REMARK       I    between atoms: C_41  and  N_47 
REMARK   19  A    between atoms: CB_43  and  OG_44 
REMARK   20  A    between atoms: N_47  and  CA_48 
REMARK   21  A    between atoms: CA_48  and  C_49 
REMARK   22  A    between atoms: CA_48  and  CB_51 
REMARK       I    between atoms: C_49  and  N_56 
REMARK   23  A    between atoms: CB_51  and  CG1_52 
REMARK   24  A    between atoms: N_56  and  CA_57 
REMARK   25  A    between atoms: CA_57  and  C_58 
REMARK   26  A    between atoms: CA_57  and  CB_60 
REMARK       I    between atoms: C_58  and  N_65 
REMARK   27  A    between atoms: CB_60  and  CG1_61 
REMARK   28  A    between atoms: N_65  and  CA_66 
REMARK   29  A    between atoms: CA_66  and  C_67 
REMARK   30  A    between atoms: CA_66  and  CB_69 
REMARK       I    between atoms: C_67  and  N_74 
REMARK   31  A    between atoms: CB_69  and  CG_70 
REMARK   32  A    between atoms: N_74  and  CA_75 
REMARK   33  A    between atoms: CA_75  and  C_76 
REMARK   34  A    between atoms: CA_75  and  CB_78 
REMARK       I    between atoms: C_76  and  N_84 
REMARK   35  A    between atoms: CB_78  and  CG_79 
REMARK   36  A    between atoms: CG_79  and  CD_80 
REMARK   37  A    between atoms: N_84  and  CA_85 
REMARK   38  A    between atoms: CA_85  and  C_86 
REMARK   39  A    between atoms: CA_85  and  CB_88 
REMARK       I    between atoms: C_86  and  N_96 
REMARK   40  A    between atoms: CB_88  and  CG_89 
REMARK   41  A    between atoms: N_96  and  CA_97 
REMARK   42  A    between atoms: CA_97  and  C_98 
REMARK   43  A    between atoms: CA_97  and  CB_100 
REMARK       I    between atoms: C_98  and  N_104 
REMARK   44  A    between atoms: N_104  and  CA_105 
REMARK   45  A    between atoms: CA_105  and  C_106 
REMARK   46  A    between atoms: CA_105  and  CB_108 
REMARK       I    between atoms: C_106  and  N_116 
REMARK   47  A    between atoms: CB_108  and  CG_109 
REMARK   48  A    between atoms: CG_109  and  CD_110 
REMARK       I    between atoms: CD_110  and  NE2_111 
REMARK   49  A    between atoms: N_116  and  CA_117 
REMARK   50  A    between atoms: CA_117  and  C_118 
REMARK   51  A    between atoms: CA_117  and  CB_120 
REMARK       I    between atoms: C_118  and  N_133 
REMARK   52  A    between atoms: CB_120  and  CG_121 
REMARK   53  A    between atoms: CG_121  and  CD_122 
REMARK   54  A    between atoms: CD_122  and  NE_123 
REMARK       I    between atoms: NE_123  and  CZ_124 
REMARK       I    between atoms: CZ_124  and  NH1_125 
REMARK       I    between atoms: CZ_124  and  NH2_126 
REMARK   55  A    between atoms: N_133  and  CA_134 
REMARK   56  A    between atoms: CA_134  and  C_135 
REMARK   57  A    between atoms: CA_134  and  CB_137 
REMARK       I    between atoms: C_135  and  N_141 
REMARK   58  A    between atoms: N_141  and  CA_142 
REMARK   59  A    between atoms: CA_142  and  C_143 
REMARK   60  A    between atoms: CA_142  and  CB_145 
REMARK       I    between atoms: C_143  and  N_150 
REMARK   61  A    between atoms: CB_145  and  CG_146 
REMARK   62  A    between atoms: CG_146  and  SD_147 
REMARK   63  A    between atoms: N_150  and  CA_151 
REMARK   64  A    between atoms: CA_151  and  C_152 
REMARK   65  A    between atoms: CA_151  and  CB_154 
REMARK   66  A    between atoms: CB_154  and  CG_155 
REMARK   67  A    between atoms: CG_155  and  CD_156 
REMARK   68  A    between atoms: CD_156  and  NE_157 
REMARK       I    between atoms: NE_157  and  CZ_158 
REMARK       I    between atoms: CZ_158  and  NH1_159 
ROOT
ATOM      1  C   GLU d   9    1076.238 305.586-1057.433  0.00  0.00     0.241 C 
ATOM      2  O   GLU d   9    1076.903 306.340-1058.158  0.00  0.00    -0.271 OA
ATOM      3  N   HIS d  10    1076.335 304.311-1057.601  0.00  0.00    -0.346 N 
ATOM      4  H   HIS d  10    1075.804 303.676-1057.023  0.00  0.00     0.163 HD
ENDROOT
BRANCH   1   5
ATOM      5  CA  GLU d   9    1075.320 306.115-1056.357  0.00  0.00     0.177 C 
BRANCH   5   6
ATOM      6  N   GLU d   9    1074.017 305.458-1056.413  0.00  0.00    -0.346 N 
ATOM      7  C   ASP d   8    1073.338 305.507-1057.508  0.00  0.00     0.241 C 
ATOM      8  O   ASP d   8    1073.811 306.111-1058.483  0.00  0.00    -0.271 OA
ATOM      9  H   GLU d   9    1073.654 304.972-1055.605  0.00  0.00     0.163 HD
BRANCH   7  10
ATOM     10  CA  ASP d   8    1071.991 304.827-1057.565  0.00  0.00     0.186 C 
BRANCH  10  11
ATOM     11  N   ASP d   8    1072.061 303.478-1057.010  0.00  0.00    -0.345 N 
ATOM     12  C   ILE d   7    1072.898 302.637-1057.516  0.00  0.00     0.241 C 
ATOM     13  O   ILE d   7    1073.619 302.999-1058.458  0.00  0.00    -0.271 OA
ATOM     14  H   ASP d   8    1071.463 303.208-1056.243  0.00  0.00     0.163 HD
BRANCH  12  15
ATOM     15  CA  ILE d   7    1072.971 301.242-1056.943  0.00  0.00     0.180 C 
BRANCH  15  16
ATOM     16  N   ILE d   7    1073.026 301.278-1055.485  0.00  0.00    -0.346 N 
ATOM     17  C   ILE d   6    1073.972 301.942-1054.911  0.00  0.00     0.241 C 
ATOM     18  O   ILE d   6    1074.807 302.530-1055.615  0.00  0.00    -0.271 OA
ATOM     19  H   ILE d   7    1072.334 300.791-1054.933  0.00  0.00     0.163 HD
BRANCH  17  20
ATOM     20  CA  ILE d   6    1074.029 301.979-1053.403  0.00  0.00     0.180 C 
BRANCH  20  21
ATOM     21  N   ILE d   6    1072.716 302.274-1052.837  0.00  0.00    -0.346 N 
ATOM     22  C   SER d   5    1072.111 303.357-1053.191  0.00  0.00     0.243 C 
ATOM     23  O   SER d   5    1072.658 304.111-1053.995  0.00  0.00    -0.271 OA
ATOM     24  H   ILE d   6    1072.288 301.640-1052.178  0.00  0.00     0.163 HD
BRANCH  22  25
ATOM     25  CA  SER d   5    1070.753 303.662-1052.605  0.00  0.00     0.200 C 
BRANCH  25  26
ATOM     26  N   SER d   5    1069.883 302.491-1052.663  0.00  0.00    -0.344 N 
ATOM     27  C   GLU d   4    1069.656 301.938-1053.806  0.00  0.00     0.241 C 
ATOM     28  O   GLU d   4    1070.182 302.418-1054.821  0.00  0.00    -0.271 OA
ATOM     29  H   SER d   5    1069.466 302.119-1051.822  0.00  0.00     0.163 HD
BRANCH  27  30
ATOM     30  CA  GLU d   4    1068.757 300.727-1053.868  0.00  0.00     0.177 C 
BRANCH  30  31
ATOM     31  N   GLU d   4    1069.117 299.756-1052.838  0.00  0.00    -0.346 N 
ATOM     32  C   PRO d   3    1070.321 299.296-1052.806  0.00  0.00     0.241 C 
ATOM     33  O   PRO d   3    1071.145 299.679-1053.637  0.00  0.00    -0.271 OA
ATOM     34  H   GLU d   4    1068.432 299.449-1052.161  0.00  0.00     0.163 HD
BRANCH  32  35
ATOM     35  CA  PRO d   3    1070.719 298.273-1051.729  0.00  0.00     0.179 C 
ATOM     36  N   PRO d   3    1070.268 298.682-1050.407  0.00  0.00    -0.337 N 
ATOM     37  C   ASN d   2    1070.789 299.677-1049.773  0.00  0.00     0.243 C 
ATOM     38  CD  PRO d   3    1069.190 297.889-1049.858  0.00  0.00     0.127 C 
ATOM     39  O   ASN d   2    1071.704 300.307-1050.302  0.00  0.00    -0.271 OA
ATOM     40  CG  PRO d   3    1068.732 297.070-1051.068  0.00  0.00     0.022 C 
ATOM     41  CB  PRO d   3    1070.015 296.918-1051.898  0.00  0.00     0.037 C 
BRANCH  37  42
ATOM     42  CA  ASN d   2    1070.258 300.032-1048.405  0.00  0.00     0.185 C 
BRANCH  42  43
ATOM     43  N   ASN d   2    1068.799 300.071-1048.405  0.00  0.00    -0.346 N 
ATOM     44  C   GLU d   1    1068.194 300.857-1049.230  0.00  0.00     0.242 C 
ATOM     45  O   GLU d   1    1068.870 301.556-1049.998  0.00  0.00    -0.271 OA
ATOM     46  H   ASN d   2    1068.271 299.491-1047.768  0.00  0.00     0.163 HD
BRANCH  44  47
ATOM     47  CA  GLU d   1    1066.685 300.897-1049.230  0.00  0.00     0.191 C 
BRANCH  47  48
ATOM     48  N   GLU d   1    1066.126 299.548-1049.230  0.00  0.00    -0.326 NA
ATOM     49  H   GLU d   1    1066.753 298.669-1049.230  0.00  0.00     0.180 HD
ENDBRANCH  47  48
BRANCH  47  50
ATOM     50  CB  GLU d   1    1066.162 301.682-1047.993  0.00  0.00     0.047 C 
BRANCH  50  51
ATOM     51  CG  GLU d   1    1066.637 303.167-1047.882  0.00  0.00     0.116 C 
BRANCH  51  52
ATOM     52  CD  GLU d   1    1066.213 303.971-1046.667  0.00  0.00     0.172 C 
ATOM     53  OE1 GLU d   1    1065.485 303.469-1045.789  0.00  0.00    -0.648 OA
ATOM     54  OE2 GLU d   1    1066.643 305.141-1046.595  0.00  0.00    -0.648 OA
ENDBRANCH  51  52
ENDBRANCH  50  51
ENDBRANCH  47  50
ENDBRANCH  44  47
ENDBRANCH  42  43
BRANCH  42  55
ATOM     55  CB  ASN d   2    1070.750 299.010-1047.340  0.00  0.00     0.137 C 
BRANCH  55  56
ATOM     56  CG  ASN d   2    1070.287 299.233-1045.897  0.00  0.00     0.217 C 
ATOM     57  ND2 ASN d   2    1070.881 300.148-1045.179  0.00  0.00    -0.370 N 
ATOM     58 21HD ASN d   2    1070.401 300.321-1044.292  0.00  0.00     0.159 HD
ATOM     59 22HD ASN d   2    1071.583 300.720-1045.648  0.00  0.00     0.159 HD
ATOM     60  OD1 ASN d   2    1069.366 298.599-1045.403  0.00  0.00    -0.274 OA
ENDBRANCH  55  56
ENDBRANCH  42  55
ENDBRANCH  37  42
ENDBRANCH  32  35
ENDBRANCH  30  31
BRANCH  30  61
ATOM     61  CB  GLU d   4    1067.268 301.146-1053.697  0.00  0.00     0.045 C 
BRANCH  61  62
ATOM     62  CG  GLU d   4    1066.720 302.149-1054.763  0.00  0.00     0.116 C 
BRANCH  62  63
ATOM     63  CD  GLU d   4    1065.293 302.646-1054.619  0.00  0.00     0.172 C 
ATOM     64  OE1 GLU d   4    1064.567 302.247-1053.688  0.00  0.00    -0.648 OA
ATOM     65  OE2 GLU d   4    1064.904 303.475-1055.467  0.00  0.00    -0.648 OA
ENDBRANCH  62  63
ENDBRANCH  61  62
ENDBRANCH  30  61
ENDBRANCH  27  30
ENDBRANCH  25  26
BRANCH  25  66
ATOM     66  CB  SER d   5    1070.864 304.195-1051.154  0.00  0.00     0.199 C 
BRANCH  66  67
ATOM     67  OG  SER d   5    1071.596 303.315-1050.293  0.00  0.00    -0.398 OA
ATOM     68  HG  SER d   5    1071.107 302.490-1050.243  0.00  0.00     0.209 HD
ENDBRANCH  66  67
ENDBRANCH  25  66
ENDBRANCH  22  25
ENDBRANCH  20  21
BRANCH  20  69
ATOM     69  CB  ILE d   6    1074.629 300.643-1052.803  0.00  0.00     0.013 C 
ATOM     70  CG2 ILE d   6    1076.070 300.342-1053.319  0.00  0.00     0.012 C 
BRANCH  69  71
ATOM     71  CG1 ILE d   6    1074.649 300.581-1051.242  0.00  0.00     0.002 C 
ATOM     72  CD1 ILE d   6    1074.919 299.191-1050.628  0.00  0.00     0.005 C 
ENDBRANCH  69  71
ENDBRANCH  20  69
ENDBRANCH  17  20
ENDBRANCH  15  16
BRANCH  15  73
ATOM     73  CB  ILE d   7    1071.779 300.334-1057.453  0.00  0.00     0.013 C 
ATOM     74  CG2 ILE d   7    1071.742 300.199-1059.007  0.00  0.00     0.012 C 
BRANCH  73  75
ATOM     75  CG1 ILE d   7    1071.748 298.897-1056.840  0.00  0.00     0.002 C 
ATOM     76  CD1 ILE d   7    1070.443 298.102-1057.057  0.00  0.00     0.005 C 
ENDBRANCH  73  75
ENDBRANCH  15  73
ENDBRANCH  12  15
ENDBRANCH  10  11
BRANCH  10  77
ATOM     77  CB  ASP d   8    1070.913 305.667-1056.824  0.00  0.00     0.147 C 
BRANCH  77  78
ATOM     78  CG  ASP d   8    1070.695 307.088-1057.365  0.00  0.00     0.175 C 
ATOM     79  OD1 ASP d   8    1070.759 307.286-1058.596  0.00  0.00    -0.648 OA
ATOM     80  OD2 ASP d   8    1070.503 308.014-1056.551  0.00  0.00    -0.648 OA
ENDBRANCH  77  78
ENDBRANCH  10  77
ENDBRANCH   7  10
ENDBRANCH   5   6
BRANCH   5  81
ATOM     81  CB  GLU d   9    1075.953 305.908-1054.952  0.00  0.00     0.045 C 
BRANCH  81  82
ATOM     82  CG  GLU d   9    1077.336 306.600-1054.722  0.00  0.00     0.116 C 
BRANCH  82  83
ATOM     83  CD  GLU d   9    1078.038 306.388-1053.394  0.00  0.00     0.172 C 
ATOM     84  OE1 GLU d   9    1077.516 305.697-1052.497  0.00  0.00    -0.648 OA
ATOM     85  OE2 GLU d   9    1079.157 306.925-1053.262  0.00  0.00    -0.648 OA
ENDBRANCH  82  83
ENDBRANCH  81  82
ENDBRANCH   5  81
ENDBRANCH   1   5
BRANCH   3  86
ATOM     86  CA  HIS d  10    1077.223 303.799-1058.641  0.00  0.00     0.182 C 
BRANCH  86  87
ATOM     87  C   HIS d  10    1076.856 304.363-1059.993  0.00  0.00     0.241 C 
ATOM     88  O   HIS d  10    1077.709 304.827-1060.765  0.00  0.00    -0.271 OA
ATOM     89  N   VAL d  11    1075.618 304.362-1060.356  0.00  0.00    -0.346 N 
ATOM     90  H   VAL d  11    1074.905 303.990-1059.745  0.00  0.00     0.163 HD
BRANCH  89  91
ATOM     91  CA  VAL d  11    1075.264 304.908-1061.663  0.00  0.00     0.180 C 
BRANCH  91  92
ATOM     92  C   VAL d  11    1075.728 306.338-1061.796  0.00  0.00     0.241 C 
ATOM     93  O   VAL d  11    1076.329 306.743-1062.799  0.00  0.00    -0.271 OA
ATOM     94  N   GLN d  12    1075.491 307.164-1060.834  0.00  0.00    -0.346 N 
ATOM     95  H   GLN d  12    1075.002 306.858-1060.005  0.00  0.00     0.163 HD
BRANCH  94  96
ATOM     96  CA  GLN d  12    1075.940 308.547-1060.961  0.00  0.00     0.177 C 
BRANCH  96  97
ATOM     97  C   GLN d  12    1077.430 308.614-1061.199  0.00  0.00     0.241 C 
ATOM     98  O   GLN d  12    1077.917 309.323-1062.078  0.00  0.00    -0.271 OA
ATOM     99  N   ARG d  13    1078.214 307.908-1060.458  0.00  0.00    -0.346 N 
ATOM    100  H   ARG d  13    1077.838 307.318-1059.729  0.00  0.00     0.163 HD
BRANCH  99 101
ATOM    101  CA  ARG d  13    1079.654 307.974-1060.689  0.00  0.00     0.176 C 
BRANCH 101 102
ATOM    102  C   ARG d  13    1079.991 307.602-1062.114  0.00  0.00     0.241 C 
ATOM    103  O   ARG d  13    1080.759 308.273-1062.798  0.00  0.00    -0.271 OA
ATOM    104  N   VAL d  14    1079.455 306.547-1062.628  0.00  0.00    -0.346 N 
ATOM    105  H   VAL d  14    1078.820 305.979-1062.086  0.00  0.00     0.163 HD
BRANCH 104 106
ATOM    106  CA  VAL d  14    1079.780 306.187-1064.005  0.00  0.00     0.180 C 
BRANCH 106 107
ATOM    107  C   VAL d  14    1079.450 307.317-1064.951  0.00  0.00     0.241 C 
ATOM    108  O   VAL d  14    1080.243 307.698-1065.821  0.00  0.00    -0.271 OA
ATOM    109  N   MET d  15    1078.305 307.903-1064.850  0.00  0.00    -0.346 N 
ATOM    110  H   MET d  15    1077.640 307.610-1064.148  0.00  0.00     0.163 HD
BRANCH 109 111
ATOM    111  CA  MET d  15    1077.985 308.996-1065.764  0.00  0.00     0.177 C 
BRANCH 111 112
ATOM    112  C   MET d  15    1079.015 310.095-1065.676  0.00  0.00     0.241 C 
ATOM    113  O   MET d  15    1079.518 310.606-1066.689  0.00  0.00    -0.271 OA
ATOM    114  N   ARG d  16    1079.383 310.517-1064.514  0.00  0.00    -0.347 N 
ATOM    115  H   ARG d  16    1078.989 310.117-1063.675  0.00  0.00     0.163 HD
BRANCH 114 116
ATOM    116  CA  ARG d  16    1080.380 311.581-1064.430  0.00  0.00     0.162 C 
BRANCH 116 117
ATOM    117  C   ARG d  16    1081.651 311.188-1065.146  0.00  0.00     0.219 C 
ATOM    118  O   ARG d  16    1081.765 310.111-1065.727  0.00  0.00    -0.287 OA
ENDBRANCH 116 117
BRANCH 116 119
ATOM    119  CB  ARG d  16    1080.648 311.899-1062.932  0.00  0.00     0.035 C 
BRANCH 119 120
ATOM    120  CG  ARG d  16    1081.474 313.188-1062.659  0.00  0.00     0.023 C 
BRANCH 120 121
ATOM    121  CD  ARG d  16    1081.723 313.408-1061.158  0.00  0.00     0.138 C 
BRANCH 121 122
ATOM    122  NE  ARG d  16    1082.499 314.667-1060.957  0.00  0.00    -0.227 N 
ATOM    123  CZ  ARG d  16    1082.890 315.150-1059.782  0.00  0.00     0.665 C 
ATOM    124  NH1 ARG d  16    1082.642 314.566-1058.643  0.00  0.00    -0.235 N 
ATOM    125  NH2 ARG d  16    1083.554 316.262-1059.763  0.00  0.00    -0.235 N 
ATOM    126 11HH ARG d  16    1082.116 313.693-1058.727  0.00  0.00     0.174 HD
ATOM    127 12HH ARG d  16    1082.976 315.002-1057.782  0.00  0.00     0.174 HD
ATOM    128 21HH ARG d  16    1083.740 316.705-1060.665  0.00  0.00     0.174 HD
ATOM    129 22HH ARG d  16    1083.844 316.618-1058.851  0.00  0.00     0.174 HD
ATOM    130  HE  ARG d  16    1082.778 315.248-1061.755  0.00  0.00     0.177 HD
ENDBRANCH 121 122
ENDBRANCH 120 121
ENDBRANCH 119 120
ENDBRANCH 116 119
ENDBRANCH 114 116
ENDBRANCH 111 112
BRANCH 111 131
ATOM    131  CB  MET d  15    1076.563 309.541-1065.455  0.00  0.00     0.045 C 
BRANCH 131 132
ATOM    132  CG  MET d  15    1075.401 308.543-1065.647  0.00  0.00     0.076 C 
BRANCH 132 133
ATOM    133  SD  MET d  15    1073.827 309.409-1065.533  0.00  0.00    -0.173 SA
ATOM    134  CE  MET d  15    1072.746 307.980-1065.396  0.00  0.00     0.089 C 
ENDBRANCH 132 133
ENDBRANCH 131 132
ENDBRANCH 111 131
ENDBRANCH 109 111
ENDBRANCH 106 107
BRANCH 106 135
ATOM    135  CB  VAL d  14    1079.007 304.870-1064.412  0.00  0.00     0.009 C 
ATOM    136  CG1 VAL d  14    1079.096 304.452-1065.905  0.00  0.00     0.012 C 
ATOM    137  CG2 VAL d  14    1079.439 303.618-1063.611  0.00  0.00     0.012 C 
ENDBRANCH 106 135
ENDBRANCH 104 106
ENDBRANCH 101 102
BRANCH 101 138
ATOM    138  CB  ARG d  13    1080.368 307.035-1059.675  0.00  0.00     0.036 C 
BRANCH 138 139
ATOM    139  CG  ARG d  13    1081.913 307.188-1059.593  0.00  0.00     0.023 C 
BRANCH 139 140
ATOM    140  CD  ARG d  13    1082.539 306.200-1058.595  0.00  0.00     0.138 C 
BRANCH 140 141
ATOM    141  NE  ARG d  13    1084.017 306.407-1058.545  0.00  0.00    -0.227 N 
ATOM    142  CZ  ARG d  13    1084.865 305.716-1057.790  0.00  0.00     0.665 C 
ATOM    143  NH1 ARG d  13    1084.499 304.751-1056.992  0.00  0.00    -0.235 N 
ATOM    144  NH2 ARG d  13    1086.124 306.015-1057.847  0.00  0.00    -0.235 N 
ATOM    145 11HH ARG d  13    1083.494 304.565-1056.995  0.00  0.00     0.174 HD
ATOM    146 12HH ARG d  13    1085.212 304.268-1056.443  0.00  0.00     0.174 HD
ATOM    147 21HH ARG d  13    1086.392 306.772-1058.478  0.00  0.00     0.174 HD
ATOM    148 22HH ARG d  13    1086.759 305.473-1057.258  0.00  0.00     0.174 HD
ATOM    149  HE  ARG d  13    1084.468 307.129-1059.116  0.00  0.00     0.177 HD
ENDBRANCH 140 141
ENDBRANCH 139 140
ENDBRANCH 138 139
ENDBRANCH 101 138
ENDBRANCH  99 101
ENDBRANCH  96  97
BRANCH  96 150
ATOM    150  CB  GLN d  12    1075.549 309.315-1059.679  0.00  0.00     0.044 C 
BRANCH 150 151
ATOM    151  CG  GLN d  12    1075.909 310.837-1059.648  0.00  0.00     0.105 C 
BRANCH 151 152
ATOM    152  CD  GLN d  12    1075.606 311.650-1058.383  0.00  0.00     0.215 C 
ATOM    153  NE2 GLN d  12    1075.039 311.074-1057.355  0.00  0.00    -0.370 N 
ATOM    154 21HE GLN d  12    1074.932 311.669-1056.531  0.00  0.00     0.159 HD
ATOM    155 22HE GLN d  12    1074.875 310.071-1057.458  0.00  0.00     0.159 HD
ATOM    156  OE1 GLN d  12    1075.908 312.831-1058.306  0.00  0.00    -0.274 OA
ENDBRANCH 151 152
ENDBRANCH 150 151
ENDBRANCH  96 150
ENDBRANCH  94  96
ENDBRANCH  91  92
BRANCH  91 157
ATOM    157  CB  VAL d  11    1073.702 304.801-1061.883  0.00  0.00     0.009 C 
ATOM    158  CG1 VAL d  11    1073.134 305.505-1063.146  0.00  0.00     0.012 C 
ATOM    159  CG2 VAL d  11    1073.178 303.347-1061.956  0.00  0.00     0.012 C 
ENDBRANCH  91 157
ENDBRANCH  89  91
ENDBRANCH  86  87
BRANCH  86 160
ATOM    160  CB  HIS d  10    1077.058 302.270-1058.636  0.00  0.00     0.095 C 
BRANCH 160 161
ATOM    161  CG  HIS d  10    1078.344 301.560-1058.327  0.00  0.00     0.053 A 
ATOM    162  CD2 HIS d  10    1078.724 301.225-1057.035  0.00  0.00     0.116 A 
ATOM    163  NE2 HIS d  10    1079.939 300.593-1057.101  0.00  0.00    -0.359 N 
ATOM    164  CE1 HIS d  10    1080.202 300.595-1058.436  0.00  0.00     0.207 A 
ATOM    165  2HE HIS d  10    1080.505 300.216-1056.327  0.00  0.00     0.166 HD
ATOM    166  ND1 HIS d  10    1079.296 301.153-1059.260  0.00  0.00    -0.247 NA
ENDBRANCH 160 161
ENDBRANCH  86 160
ENDBRANCH   3  86
TORSDOF 68
