@<TRIPOS>MOLECULE
5-4
270 271 16              
SMALL
USER_CHARGES
@<TRIPOS>ATOM
1	   N	722.201	185.230	-676.506	N.3	1	GLU1	-0.516	
2	  CA	722.760	186.579	-676.506	C.3	1	GLU1	0.040	
3	   C	724.269	186.539	-676.506	C.2	1	GLU1	0.537	
4	   O	724.945	187.238	-677.275	O.2	1	GLU1	-0.582	
5	  CB	722.237	187.364	-675.269	C.3	1	GLU1	0.056	
6	  CG	722.712	188.849	-675.158	C.3	1	GLU1	0.014	
7	  CD	722.288	189.653	-673.943	C.2	1	GLU1	0.805	
8	 OE1	721.560	189.151	-673.065	O.co2	1	GLU1	-0.819	
9	 OE2	722.718	190.823	-673.871	O.co2	1	GLU1	-0.819	
10	   H	722.828	184.351	-676.506	 H	1	GLU1	0.294	
11	  HA	722.434	187.097	-677.426	 H	1	GLU1	0.111	
12	 2HB	722.526	186.833	-674.339	 H	1	GLU1	-0.017	
13	 3HB	721.130	187.354	-675.256	 H	1	GLU1	-0.017	
14	 2HG	722.402	189.434	-676.039	 H	1	GLU1	-0.043	
15	 3HG	723.812	188.916	-675.129	 H	1	GLU1	-0.043	
16	   N	724.874	185.753	-675.681	N.am	2	ASN2	-0.416	
17	  CA	726.333	185.715	-675.681	C.3	2	ASN2	0.014	
18	   C	726.864	185.359	-677.050	C.2	2	ASN2	0.597	
19	   O	727.779	185.990	-677.578	O.2	2	ASN2	-0.568	
20	  CB	726.825	184.692	-674.617	C.3	2	ASN2	-0.204	
21	  CG	726.362	184.916	-673.173	C.2	2	ASN2	0.713	
22	 ND2	726.956	185.831	-672.455	N.pl3	2	ASN2	-0.919	
23	 OD1	725.441	184.282	-672.679	O.2	2	ASN2	-0.593	
24	   H	724.345	185.174	-675.044	 H	2	ASN2	0.272	
25	  HA	726.710	186.725	-675.436	 H	2	ASN2	0.105	
26	 2HB	727.930	184.633	-674.620	 H	2	ASN2	0.080	
27	 3HB	726.496	183.673	-674.902	 H	2	ASN2	0.080	
28	1HD2	726.476	186.003	-671.569	 H	2	ASN2	0.420	
29	2HD2	727.658	186.402	-672.924	 H	2	ASN2	0.420	
30	   N	726.343	184.364	-677.684	N.am	3	PRO3	-0.255	
31	  CA	726.795	183.955	-679.005	C.3	3	PRO3	-0.027	
32	   C	726.397	184.978	-680.082	C.2	3	PRO3	0.590	
33	   O	727.220	185.362	-680.914	O.2	3	PRO3	-0.575	
34	  CB	726.091	182.600	-679.175	C.3	3	PRO3	-0.007	
35	  CG	724.807	182.752	-678.345	C.3	3	PRO3	0.019	
36	  CD	725.265	183.571	-677.135	C.3	3	PRO3	0.019	
37	  HA	727.881	183.835	-679.019	 H	3	PRO3	0.064	
38	 2HB	726.714	181.819	-678.734	 H	3	PRO3	0.025	
39	 3HB	725.893	182.352	-680.220	 H	3	PRO3	0.025	
40	 2HG	724.380	181.790	-678.054	 H	3	PRO3	0.021	
41	 3HG	724.070	183.323	-678.912	 H	3	PRO3	0.021	
42	 2HD	725.654	182.921	-676.347	 H	3	PRO3	0.039	
43	 3HD	724.468	184.207	-676.742	 H	3	PRO3	0.039	
44	   N	725.192	185.438	-680.115	N.am	4	GLU4	-0.516	
45	  CA	724.832	186.409	-681.144	C.3	4	GLU4	0.040	
46	   C	725.731	187.620	-681.083	C.2	4	GLU4	0.537	
47	   O	726.257	188.100	-682.098	O.2	4	GLU4	-0.582	
48	  CB	723.343	186.828	-680.974	C.3	4	GLU4	0.056	
49	  CG	722.795	187.831	-682.040	C.3	4	GLU4	0.014	
50	  CD	721.368	188.327	-681.896	C.2	4	GLU4	0.805	
51	 OE1	720.642	187.929	-680.965	O.co2	4	GLU4	-0.819	
52	 OE2	720.979	189.157	-682.745	O.co2	4	GLU4	-0.819	
53	   H	724.508	185.131	-679.438	 H	4	GLU4	0.294	
54	  HA	724.963	185.939	-682.135	 H	4	GLU4	0.111	
55	 2HB	723.191	187.267	-679.967	 H	4	GLU4	-0.017	
56	 3HB	722.696	185.930	-680.980	 H	4	GLU4	-0.017	
57	 2HG	722.877	187.416	-683.057	 H	4	GLU4	-0.043	
58	 3HG	723.383	188.763	-682.051	 H	4	GLU4	-0.043	
59	   N	725.958	188.173	-679.940	N.am	5	VAL5	-0.416	
60	  CA	726.827	189.345	-679.881	C.3	5	VAL5	-0.087	
61	   C	728.186	189.040	-680.465	C.2	5	VAL5	0.597	
62	   O	728.737	189.797	-681.274	O.2	5	VAL5	-0.568	
63	  CB	726.957	189.841	-678.386	C.3	5	VAL5	0.299	
64	 CG1	727.994	190.967	-678.121	C.3	5	VAL5	-0.319	
65	 CG2	725.630	190.357	-677.780	C.3	5	VAL5	-0.319	
66	   H	725.541	187.801	-679.099	 H	5	VAL5	0.272	
67	  HA	726.384	190.149	-680.495	 H	5	VAL5	0.097	
68	  HB	727.277	188.968	-677.778	 H	5	VAL5	-0.030	
69	1HG1	727.779	191.885	-678.699	 H	5	VAL5	0.079	
70	2HG1	728.038	191.255	-677.052	 H	5	VAL5	0.079	
71	3HG1	729.026	190.658	-678.373	 H	5	VAL5	0.079	
72	1HG2	724.825	189.604	-677.851	 H	5	VAL5	0.079	
73	2HG2	725.734	190.592	-676.702	 H	5	VAL5	0.079	
74	3HG2	725.267	191.274	-678.282	 H	5	VAL5	0.079	
75	   N	728.790	187.957	-680.111	N.am	6	ILE6	-0.416	
76	  CA	730.104	187.662	-680.676	C.3	6	ILE6	-0.060	
77	   C	730.048	187.625	-682.184	C.2	6	ILE6	0.597	
78	   O	730.883	188.213	-682.887	O.2	6	ILE6	-0.568	
79	  CB	730.703	186.326	-680.076	C.3	6	ILE6	0.130	
80	 CG1	730.721	186.264	-678.515	C.3	6	ILE6	-0.043	
81	 CG2	732.145	186.024	-680.590	C.3	6	ILE6	-0.320	
82	 CD1	730.990	184.875	-677.900	C.3	6	ILE6	-0.066	
83	   H	728.361	187.323	-679.452	 H	6	ILE6	0.272	
84	  HA	730.778	188.497	-680.408	 H	6	ILE6	0.087	
85	  HB	730.045	185.500	-680.420	 H	6	ILE6	0.019	
86	2HG1	729.739	186.584	-678.120	 H	6	ILE6	0.024	
87	3HG1	731.437	187.006	-678.109	 H	6	ILE6	0.024	
88	1HG2	732.204	185.931	-681.688	 H	6	ILE6	0.088	
89	2HG2	732.867	186.807	-680.287	 H	6	ILE6	0.088	
90	3HG2	732.534	185.062	-680.211	 H	6	ILE6	0.088	
91	1HD1	730.262	184.120	-678.255	 H	6	ILE6	0.019	
92	2HD1	732.001	184.496	-678.135	 H	6	ILE6	0.019	
93	3HD1	730.913	184.904	-676.797	 H	6	ILE6	0.019	
94	   N	729.102	186.962	-682.758	N.am	7	LEU7	-0.416	
95	  CA	729.049	186.926	-684.217	C.3	7	LEU7	-0.052	
96	   C	728.977	188.321	-684.789	C.2	7	LEU7	0.597	
97	   O	729.698	188.684	-685.731	O.2	7	LEU7	-0.568	
98	  CB	727.846	186.065	-684.698	C.3	7	LEU7	-0.110	
99	  CG	727.773	184.586	-684.232	C.3	7	LEU7	0.353	
100	 CD1	726.583	183.880	-684.899	C.3	7	LEU7	-0.412	
101	 CD2	729.066	183.807	-684.523	C.3	7	LEU7	-0.412	
102	   H	728.410	186.474	-682.208	 H	7	LEU7	0.272	
103	  HA	729.991	186.486	-684.591	 H	7	LEU7	0.092	
104	 2HB	727.824	186.082	-685.806	 H	7	LEU7	0.046	
105	 3HB	726.906	186.568	-684.395	 H	7	LEU7	0.046	
106	  HG	727.602	184.578	-683.135	 H	7	LEU7	-0.036	
107	1HD1	725.626	184.389	-684.677	 H	7	LEU7	0.100	
108	2HD1	726.683	183.840	-686.000	 H	7	LEU7	0.100	
109	3HD1	726.476	182.839	-684.543	 H	7	LEU7	0.100	
110	1HD2	729.342	183.837	-685.592	 H	7	LEU7	0.100	
111	2HD2	729.919	184.218	-683.951	 H	7	LEU7	0.100	
112	3HD2	728.985	182.744	-684.227	 H	7	LEU7	0.100	
113	   N	728.139	189.162	-684.284	N.am	8	ASP8	-0.516	
114	  CA	728.069	190.511	-684.837	C.3	8	ASP8	0.038	
115	   C	729.416	191.191	-684.778	C.2	8	ASP8	0.537	
116	   O	729.889	191.796	-685.753	O.2	8	ASP8	-0.582	
117	  CB	726.991	191.350	-684.096	C.3	8	ASP8	-0.030	
118	  CG	726.772	192.771	-684.636	C.2	8	ASP8	0.799	
119	 OD1	726.837	192.970	-685.867	O.co2	8	ASP8	-0.801	
120	 OD2	726.579	193.697	-683.821	O.co2	8	ASP8	-0.801	
121	   H	727.541	188.890	-683.516	 H	8	ASP8	0.294	
122	  HA	727.787	190.433	-685.904	 H	8	ASP8	0.088	
123	 2HB	727.247	191.433	-683.024	 H	8	ASP8	-0.012	
124	 3HB	726.012	190.845	-684.129	 H	8	ASP8	-0.012	
125	   N	730.095	191.141	-683.683	N.am	9	GLU9	-0.516	
126	  CA	731.397	191.799	-683.626	C.3	9	GLU9	0.040	
127	   C	732.316	191.271	-684.701	C.2	9	GLU9	0.537	
128	   O	732.981	192.026	-685.426	O.2	9	GLU9	-0.582	
129	  CB	732.030	191.591	-682.220	C.3	9	GLU9	0.056	
130	  CG	733.412	192.283	-681.990	C.3	9	GLU9	0.014	
131	  CD	734.113	192.069	-680.661	C.2	9	GLU9	0.805	
132	 OE1	733.591	191.378	-679.765	O.co2	9	GLU9	-0.819	
133	 OE2	735.232	192.607	-680.528	O.co2	9	GLU9	-0.819	
134	   H	729.731	190.654	-682.876	 H	9	GLU9	0.294	
135	  HA	731.255	192.880	-683.801	 H	9	GLU9	0.111	
136	 2HB	732.143	190.506	-682.017	 H	9	GLU9	-0.017	
137	 3HB	731.332	191.944	-681.437	 H	9	GLU9	-0.017	
138	 2HG	733.341	193.374	-682.130	 H	9	GLU9	-0.043	
139	 3HG	734.160	191.938	-682.723	 H	9	GLU9	-0.043	
140	   N	732.413	189.996	-684.871	N.am	10	HIS10	-0.416	
141	  CA	733.302	189.485	-685.911	C.3	10	HIS10	-0.058	
142	   C	732.936	190.050	-687.262	C.2	10	HIS10	0.597	
143	   O	733.789	190.514	-688.033	O.2	10	HIS10	-0.568	
144	  CB	733.138	187.956	-685.906	C.3	10	HIS10	-0.007	
145	  CG	734.423	187.246	-685.597	C.2	10	HIS10	0.187	
146	 CD2	734.803	186.910	-684.305	C.2	10	HIS10	-0.221	
147	 ND1	735.376	186.840	-686.529	N.2	10	HIS10	-0.543	
148	 CE1	736.282	186.281	-685.705	C.2	10	HIS10	0.163	
149	 NE2	736.018	186.278	-684.370	N.pl3	10	HIS10	-0.280	
150	   H	731.882	189.360	-684.293	 H	10	HIS10	0.272	
151	  HA	734.321	189.842	-685.685	 H	10	HIS10	0.136	
152	 2HB	732.773	187.589	-686.887	 H	10	HIS10	0.037	
153	 3HB	732.381	187.619	-685.167	 H	10	HIS10	0.037	
154	 2HD	734.217	187.125	-683.416	 H	10	HIS10	0.186	
155	 1HE	737.173	185.861	-686.152	 H	10	HIS10	0.144	
156	 2HE	736.584	185.901	-683.597	 H	10	HIS10	0.334	
157	   N	731.698	190.049	-687.626	N.am	11	VAL11	-0.416	
158	  CA	731.344	190.595	-688.933	C.3	11	VAL11	-0.087	
159	   C	731.809	192.026	-689.065	C.2	11	VAL11	0.597	
160	   O	732.411	192.431	-690.067	O.2	11	VAL11	-0.568	
161	  CB	729.783	190.489	-689.154	C.3	11	VAL11	0.299	
162	 CG1	729.216	191.193	-690.417	C.3	11	VAL11	-0.319	
163	 CG2	729.259	189.034	-689.228	C.3	11	VAL11	-0.319	
164	   H	730.985	189.676	-687.016	 H	11	VAL11	0.272	
165	  HA	731.865	190.013	-689.715	 H	11	VAL11	0.097	
166	  HB	729.295	190.969	-688.279	 H	11	VAL11	-0.030	
167	1HG1	729.655	190.801	-691.354	 H	11	VAL11	0.079	
168	2HG1	728.117	191.086	-690.500	 H	11	VAL11	0.079	
169	3HG1	729.394	192.285	-690.407	 H	11	VAL11	0.079	
170	1HG2	729.548	188.447	-688.337	 H	11	VAL11	0.079	
171	2HG2	728.153	188.997	-689.272	 H	11	VAL11	0.079	
172	3HG2	729.641	188.494	-690.114	 H	11	VAL11	0.079	
173	   N	731.571	192.851	-688.102	N.am	12	GLN12	-0.416	
174	  CA	732.020	194.234	-688.229	C.3	12	GLN12	-0.003	
175	   C	733.510	194.302	-688.465	C.2	12	GLN12	0.597	
176	   O	733.998	195.010	-689.343	O.2	12	GLN12	-0.568	
177	  CB	731.628	195.001	-686.946	C.3	12	GLN12	-0.004	
178	  CG	731.988	196.523	-686.914	C.3	12	GLN12	-0.064	
179	  CD	731.684	197.336	-685.650	C.2	12	GLN12	0.695	
180	 NE2	731.116	196.759	-684.621	N.pl3	12	GLN12	-0.941	
181	 OE1	731.986	198.517	-685.571	O.2	12	GLN12	-0.609	
182	   H	731.081	192.545	-687.274	 H	12	GLN12	0.272	
183	  HA	731.521	194.691	-689.104	 H	12	GLN12	0.085	
184	 2HB	732.103	194.501	-686.077	 H	12	GLN12	0.017	
185	 3HB	730.537	194.894	-686.784	 H	12	GLN12	0.017	
186	 2HG	731.511	197.044	-687.765	 H	12	GLN12	0.035	
187	 3HG	733.071	196.665	-687.079	 H	12	GLN12	0.035	
188	1HE2	731.008	197.354	-683.798	 H	12	GLN12	0.425	
189	2HE2	730.953	195.756	-684.725	 H	12	GLN12	0.425	
190	   N	734.294	193.594	-687.724	N.am	13	ARG13	-0.348	
191	  CA	735.734	193.660	-687.953	C.3	13	ARG13	-0.264	
192	   C	736.072	193.289	-689.378	C.2	13	ARG13	0.734	
193	   O	736.841	193.961	-690.062	O.2	13	ARG13	-0.589	
194	  CB	736.447	192.721	-686.939	C.3	13	ARG13	-0.001	
195	  CG	737.992	192.874	-686.857	C.3	13	ARG13	0.039	
196	  CD	738.618	191.886	-685.859	C.3	13	ARG13	0.049	
197	  NE	740.095	192.093	-685.807	N.pl3	13	ARG13	-0.530	
198	  CZ	740.942	191.401	-685.051	C.cat	13	ARG13	0.808	
199	 NH1	740.576	190.437	-684.255	N.pl3	13	ARG13	-0.863	
200	 NH2	742.202	191.700	-685.107	N.pl3	13	ARG13	-0.863	
201	   H	733.917	193.004	-686.996	 H	13	ARG13	0.275	
202	  HA	736.058	194.706	-687.794	 H	13	ARG13	0.156	
203	 2HB	736.180	191.671	-687.179	 H	13	ARG13	0.033	
204	 3HB	736.021	192.887	-685.929	 H	13	ARG13	0.033	
205	 2HG	738.239	193.919	-686.577	 H	13	ARG13	0.029	
206	 3HG	738.443	192.718	-687.858	 H	13	ARG13	0.029	
207	 2HD	738.374	190.846	-686.169	 H	13	ARG13	0.069	
208	 3HD	738.160	192.031	-684.857	 H	13	ARG13	0.069	
209	  HE	740.546	192.816	-686.377	 H	13	ARG13	0.346	
210	1HH1	739.571	190.250	-684.259	 H	13	ARG13	0.448	
211	2HH1	741.289	189.953	-683.706	 H	13	ARG13	0.448	
212	1HH2	742.470	192.458	-685.738	 H	13	ARG13	0.448	
213	2HH2	742.836	191.159	-684.518	 H	13	ARG13	0.448	
214	   N	735.536	192.235	-689.893	N.am	14	VAL14	-0.416	
215	  CA	735.862	191.876	-691.271	C.3	14	VAL14	-0.087	
216	   C	735.532	193.007	-692.216	C.2	14	VAL14	0.597	
217	   O	736.327	193.388	-693.085	O.2	14	VAL14	-0.568	
218	  CB	735.090	190.559	-691.679	C.3	14	VAL14	0.299	
219	 CG1	735.180	190.142	-693.172	C.3	14	VAL14	-0.319	
220	 CG2	735.521	189.307	-690.879	C.3	14	VAL14	-0.319	
221	   H	734.900	191.666	-689.352	 H	14	VAL14	0.272	
222	  HA	736.950	191.699	-691.345	 H	14	VAL14	0.097	
223	  HB	734.013	190.730	-691.464	 H	14	VAL14	-0.030	
224	1HG1	736.221	189.965	-693.501	 H	14	VAL14	0.079	
225	2HG1	734.607	189.219	-693.386	 H	14	VAL14	0.079	
226	3HG1	734.751	190.904	-693.851	 H	14	VAL14	0.079	
227	1HG2	735.433	189.465	-689.788	 H	14	VAL14	0.079	
228	2HG2	734.885	188.430	-691.112	 H	14	VAL14	0.079	
229	3HG2	736.569	189.017	-691.084	 H	14	VAL14	0.079	
230	   N	734.388	193.592	-692.115	N.am	15	MET15	-0.416	
231	  CA	734.068	194.686	-693.029	C.3	15	MET15	-0.024	
232	   C	735.098	195.785	-692.940	C.2	15	MET15	0.597	
233	   O	735.602	196.296	-693.952	O.2	15	MET15	-0.568	
234	  CB	732.646	195.231	-692.721	C.3	15	MET15	0.034	
235	  CG	731.484	194.233	-692.914	C.3	15	MET15	0.002	
236	  SD	729.911	195.099	-692.800	S.3	15	MET15	-0.274	
237	  CE	728.829	193.670	-692.665	C.3	15	MET15	-0.054	
238	   H	733.722	193.299	-691.414	 H	15	MET15	0.272	
239	  HA	734.095	194.299	-694.064	 H	15	MET15	0.088	
240	 2HB	732.445	196.110	-693.363	 H	15	MET15	0.024	
241	 3HB	732.610	195.623	-691.684	 H	15	MET15	0.024	
242	 2HG	731.527	193.447	-692.136	 H	15	MET15	0.044	
243	 3HG	731.548	193.718	-693.890	 H	15	MET15	0.044	
244	 1HE	728.974	192.982	-693.518	 H	15	MET15	0.068	
245	 2HE	729.038	193.116	-691.733	 H	15	MET15	0.068	
246	 3HE	727.772	193.985	-692.650	 H	15	MET15	0.068	
247	   N	735.466	196.206	-691.777	N.am	16	ARG16	-0.348	
248	  CA	736.462	197.270	-691.692	C.3	16	ARG16	-0.264	
249	   C	737.734	196.877	-692.407	C.2	16	ARG16	0.734	
250	   O	737.848	195.801	-692.989	O.2	16	ARG16	-0.589	
251	  CB	736.730	197.587	-690.193	C.3	16	ARG16	-0.001	
252	  CG	737.555	198.876	-689.919	C.3	16	ARG16	0.039	
253	  CD	737.804	199.095	-688.418	C.3	16	ARG16	0.049	
254	  NE	738.580	200.354	-688.216	N.pl3	16	ARG16	-0.530	
255	  CZ	738.970	200.836	-687.040	C.cat	16	ARG16	0.808	
256	 NH1	738.721	200.251	-685.902	N.pl3	16	ARG16	-0.863	
257	 NH2	739.634	201.948	-687.020	N.pl3	16	ARG16	-0.863	
258	   H	735.070	195.806	-690.938	 H	16	ARG16	0.275	
259	  HA	736.054	198.163	-692.202	 H	16	ARG16	0.156	
260	 2HB	737.227	196.711	-689.727	 H	16	ARG16	0.033	
261	 3HB	735.761	197.668	-689.660	 H	16	ARG16	0.033	
262	 2HG	737.025	199.747	-690.357	 H	16	ARG16	0.029	
263	 3HG	738.529	198.823	-690.448	 H	16	ARG16	0.029	
264	 2HD	738.352	198.220	-688.004	 H	16	ARG16	0.069	
265	 3HD	736.830	199.137	-687.883	 H	16	ARG16	0.069	
266	  HE	738.859	200.935	-689.013	 H	16	ARG16	0.346	
267	1HH1	738.196	199.378	-685.987	 H	16	ARG16	0.448	
268	2HH1	739.055	200.686	-685.040	 H	16	ARG16	0.448	
269	1HH2	739.820	202.392	-687.922	 H	16	ARG16	0.448	
270	2HH2	739.923	202.303	-686.107	 H	16	ARG16	0.448	
@<TRIPOS>BOND
1 1 2 1
2 1 10 1
3 2 3 1
4 2 5 1
5 2 11 1
6 3 4 2
7 3 16 1
8 5 6 1
9 6 7 1
10 7 8 2
11 7 9 1
12 5 12 1
13 5 13 1
14 6 14 1
15 6 15 1
16 16 17 1
17 16 24 1
18 17 18 1
19 17 20 1
20 17 25 1
21 18 19 2
22 18 30 1
23 20 21 1
24 21 22 1
25 21 23 2
26 20 26 1
27 20 27 1
28 22 28 1
29 22 29 1
30 30 31 1
31 30 36 1
32 31 32 1
33 31 34 1
34 31 37 1
35 32 33 2
36 32 44 1
37 34 35 1
38 35 36 1
39 34 38 1
40 34 39 1
41 35 40 1
42 35 41 1
43 36 42 1
44 36 43 1
45 44 45 1
46 44 53 1
47 45 46 1
48 45 48 1
49 45 54 1
50 46 47 2
51 46 59 1
52 48 49 1
53 49 50 1
54 50 51 2
55 50 52 1
56 48 55 1
57 48 56 1
58 49 57 1
59 49 58 1
60 59 60 1
61 59 66 1
62 60 61 1
63 60 63 1
64 60 67 1
65 61 62 2
66 61 75 1
67 63 64 1
68 63 65 1
69 63 68 1
70 64 69 1
71 64 70 1
72 64 71 1
73 65 72 1
74 65 73 1
75 65 74 1
76 75 76 1
77 75 83 1
78 76 77 1
79 76 79 1
80 76 84 1
81 77 78 2
82 77 94 1
83 79 80 1
84 79 81 1
85 80 82 1
86 79 85 1
87 80 86 1
88 80 87 1
89 81 88 1
90 81 89 1
91 81 90 1
92 82 91 1
93 82 92 1
94 82 93 1
95 94 95 1
96 94 102 1
97 95 96 1
98 95 98 1
99 95 103 1
100 96 97 2
101 96 113 1
102 98 99 1
103 99 100 1
104 99 101 1
105 98 104 1
106 98 105 1
107 99 106 1
108 100 107 1
109 100 108 1
110 100 109 1
111 101 110 1
112 101 111 1
113 101 112 1
114 113 114 1
115 113 121 1
116 114 115 1
117 114 117 1
118 114 122 1
119 115 116 2
120 115 125 1
121 117 118 1
122 118 119 2
123 118 120 1
124 117 123 1
125 117 124 1
126 125 126 1
127 125 134 1
128 126 127 1
129 126 129 1
130 126 135 1
131 127 128 2
132 127 140 1
133 129 130 1
134 130 131 1
135 131 132 2
136 131 133 1
137 129 136 1
138 129 137 1
139 130 138 1
140 130 139 1
141 140 141 1
142 140 150 1
143 141 142 1
144 141 144 1
145 141 151 1
146 142 143 2
147 142 157 1
148 144 145 1
149 145 146 2
150 146 149 1
151 145 147 1
152 147 148 2
153 148 149 1
154 144 152 1
155 144 153 1
156 146 154 1
157 148 155 1
158 149 156 1
159 157 158 1
160 157 164 1
161 158 159 1
162 158 161 1
163 158 165 1
164 159 160 2
165 159 173 1
166 161 162 1
167 161 163 1
168 161 166 1
169 162 167 1
170 162 168 1
171 162 169 1
172 163 170 1
173 163 171 1
174 163 172 1
175 173 174 1
176 173 182 1
177 174 175 1
178 174 177 1
179 174 183 1
180 175 176 2
181 175 190 1
182 177 178 1
183 178 179 1
184 179 180 1
185 179 181 2
186 177 184 1
187 177 185 1
188 178 186 1
189 178 187 1
190 180 188 1
191 180 189 1
192 190 191 1
193 190 201 1
194 191 192 1
195 191 194 1
196 191 202 1
197 192 193 2
198 192 214 1
199 194 195 1
200 195 196 1
201 196 197 1
202 197 198 1
203 198 199 2
204 198 200 1
205 194 203 1
206 194 204 1
207 195 205 1
208 195 206 1
209 196 207 1
210 196 208 1
211 197 209 1
212 199 210 1
213 199 211 1
214 200 212 1
215 200 213 1
216 214 215 1
217 214 221 1
218 215 216 1
219 215 218 1
220 215 222 1
221 216 217 2
222 216 230 1
223 218 219 1
224 218 220 1
225 218 223 1
226 219 224 1
227 219 225 1
228 219 226 1
229 220 227 1
230 220 228 1
231 220 229 1
232 230 231 1
233 230 238 1
234 231 232 1
235 231 234 1
236 231 239 1
237 232 233 2
238 232 247 1
239 234 235 1
240 235 236 1
241 236 237 1
242 234 240 1
243 234 241 1
244 235 242 1
245 235 243 1
246 237 244 1
247 237 245 1
248 237 246 1
249 247 248 1
250 247 258 1
251 248 249 1
252 248 251 1
253 248 259 1
254 249 250 2
255 251 252 1
256 252 253 1
257 253 254 1
258 254 255 1
259 255 256 2
260 255 257 1
261 251 260 1
262 251 261 1
263 252 262 1
264 252 263 1
265 253 264 1
266 253 265 1
267 254 266 1
268 256 267 1
269 256 268 1
270 257 269 1
271 257 270 1
@<TRIPOS>SUBSTRUCTURE
1	GLU1	1	RESIDUE	1 ****	GLU
2	ASN2	16	RESIDUE	1 ****	ASN
3	PRO3	30	RESIDUE	1 ****	PRO
4	GLU4	44	RESIDUE	1 ****	GLU
5	VAL5	59	RESIDUE	1 ****	VAL
6	ILE6	75	RESIDUE	1 ****	ILE
7	LEU7	94	RESIDUE	1 ****	LEU
8	ASP8	113	RESIDUE	1 ****	ASP
9	GLU9	125	RESIDUE	1 ****	GLU
10	HIS10	140	RESIDUE	1 ****	HIS
11	VAL11	157	RESIDUE	1 ****	VAL
12	GLN12	173	RESIDUE	1 ****	GLN
13	ARG13	190	RESIDUE	1 ****	ARG
14	VAL14	214	RESIDUE	1 ****	VAL
15	MET15	230	RESIDUE	1 ****	MET
16	ARG16	247	RESIDUE	1 ****	ARG
