@<TRIPOS>MOLECULE
15-11
265 267 16              
SMALL
USER_CHARGES
@<TRIPOS>ATOM
1	   N	2415.725	740.402	-2515.860	N.3	1	GLU1	-0.516	
2	  CA	2416.284	741.751	-2515.860	C.3	1	GLU1	0.040	
3	   C	2417.793	741.711	-2515.860	C.2	1	GLU1	0.537	
4	   O	2418.469	742.410	-2516.628	O.2	1	GLU1	-0.582	
5	  CB	2415.760	742.536	-2514.623	C.3	1	GLU1	0.056	
6	  CG	2416.236	744.021	-2514.512	C.3	1	GLU1	0.014	
7	  CD	2415.812	744.825	-2513.297	C.2	1	GLU1	0.805	
8	 OE1	2415.083	744.323	-2512.419	O.co2	1	GLU1	-0.819	
9	 OE2	2416.242	745.995	-2513.225	O.co2	1	GLU1	-0.819	
10	   H	2416.352	739.523	-2515.860	 H	1	GLU1	0.294	
11	  HA	2415.958	742.269	-2516.780	 H	1	GLU1	0.111	
12	 2HB	2416.050	742.005	-2513.693	 H	1	GLU1	-0.017	
13	 3HB	2414.654	742.526	-2514.610	 H	1	GLU1	-0.017	
14	 2HG	2415.926	744.606	-2515.393	 H	1	GLU1	-0.043	
15	 3HG	2417.336	744.088	-2514.483	 H	1	GLU1	-0.043	
16	   N	2418.397	740.925	-2515.034	N.am	2	ASN2	-0.416	
17	  CA	2419.856	740.886	-2515.034	C.3	2	ASN2	0.014	
18	   C	2420.388	740.530	-2516.403	C.2	2	ASN2	0.597	
19	   O	2421.303	741.161	-2516.931	O.2	2	ASN2	-0.568	
20	  CB	2420.348	739.863	-2513.970	C.3	2	ASN2	-0.204	
21	  CG	2419.885	740.087	-2512.527	C.2	2	ASN2	0.713	
22	 ND2	2420.479	741.002	-2511.808	N.pl3	2	ASN2	-0.919	
23	 OD1	2418.964	739.453	-2512.032	O.2	2	ASN2	-0.593	
24	   H	2417.869	740.345	-2514.398	 H	2	ASN2	0.272	
25	  HA	2420.234	741.896	-2514.789	 H	2	ASN2	0.105	
26	 2HB	2421.452	739.804	-2513.973	 H	2	ASN2	0.080	
27	 3HB	2420.019	738.845	-2514.256	 H	2	ASN2	0.080	
28	1HD2	2419.998	741.175	-2510.922	 H	2	ASN2	0.420	
29	2HD2	2421.181	741.573	-2512.277	 H	2	ASN2	0.420	
30	   N	2419.866	739.535	-2517.037	N.am	3	PRO3	-0.255	
31	  CA	2420.319	739.126	-2518.358	C.3	3	PRO3	-0.027	
32	   C	2419.921	740.150	-2519.436	C.2	3	PRO3	0.590	
33	   O	2420.744	740.533	-2520.267	O.2	3	PRO3	-0.575	
34	  CB	2419.614	737.772	-2518.528	C.3	3	PRO3	-0.007	
35	  CG	2418.331	737.924	-2517.698	C.3	3	PRO3	0.019	
36	  CD	2418.788	738.743	-2516.488	C.3	3	PRO3	0.019	
37	  HA	2421.405	739.006	-2518.372	 H	3	PRO3	0.064	
38	 2HB	2420.237	736.990	-2518.087	 H	3	PRO3	0.025	
39	 3HB	2419.416	737.523	-2519.573	 H	3	PRO3	0.025	
40	 2HG	2417.903	736.962	-2517.407	 H	3	PRO3	0.021	
41	 3HG	2417.594	738.495	-2518.266	 H	3	PRO3	0.021	
42	 2HD	2419.177	738.093	-2515.701	 H	3	PRO3	0.039	
43	 3HD	2417.991	739.378	-2516.096	 H	3	PRO3	0.039	
44	   N	2418.716	740.610	-2519.468	N.am	4	GLU4	-0.516	
45	  CA	2418.357	741.581	-2520.498	C.3	4	GLU4	0.040	
46	   C	2419.256	742.792	-2520.437	C.2	4	GLU4	0.537	
47	   O	2419.783	743.271	-2521.451	O.2	4	GLU4	-0.582	
48	  CB	2416.868	742.000	-2520.328	C.3	4	GLU4	0.056	
49	  CG	2416.321	743.004	-2521.394	C.3	4	GLU4	0.014	
50	  CD	2414.895	743.501	-2521.251	C.2	4	GLU4	0.805	
51	 OE1	2414.168	743.103	-2520.321	O.co2	4	GLU4	-0.819	
52	 OE2	2414.506	744.330	-2522.100	O.co2	4	GLU4	-0.819	
53	   H	2418.031	740.303	-2518.792	 H	4	GLU4	0.294	
54	  HA	2418.489	741.111	-2521.489	 H	4	GLU4	0.111	
55	 2HB	2416.716	742.440	-2519.322	 H	4	GLU4	-0.017	
56	 3HB	2416.220	741.102	-2520.335	 H	4	GLU4	-0.017	
57	 2HG	2416.403	742.589	-2522.412	 H	4	GLU4	-0.043	
58	 3HG	2416.909	743.936	-2521.405	 H	4	GLU4	-0.043	
59	   N	2419.483	743.344	-2519.293	N.am	5	SER5	-0.416	
60	  CA	2420.353	744.515	-2519.234	C.3	5	SER5	-0.025	
61	   C	2421.712	744.209	-2519.820	C.2	5	SER5	0.597	
62	   O	2422.260	744.963	-2520.624	O.2	5	SER5	-0.568	
63	  CB	2420.464	745.047	-2517.784	C.3	5	SER5	0.212	
64	  OG	2421.195	744.168	-2516.923	O.3	5	SER5	-0.655	
65	   H	2419.066	742.973	-2518.452	 H	5	SER5	0.272	
66	  HA	2419.904	745.306	-2519.864	 H	5	SER5	0.084	
67	 2HB	2419.464	745.242	-2517.351	 H	5	SER5	0.035	
68	 3HB	2420.970	746.033	-2517.786	 H	5	SER5	0.035	
69	  HG	2420.706	743.343	-2516.872	 H	5	SER5	0.428	
70	   N	2422.316	743.126	-2519.465	N.am	6	ILE6	-0.416	
71	  CA	2423.629	742.831	-2520.031	C.3	6	ILE6	-0.060	
72	   C	2423.572	742.793	-2521.539	C.2	6	ILE6	0.597	
73	   O	2424.407	743.380	-2522.243	O.2	6	ILE6	-0.568	
74	  CB	2424.229	741.494	-2519.431	C.3	6	ILE6	0.130	
75	 CG1	2424.247	741.432	-2517.870	C.3	6	ILE6	-0.043	
76	 CG2	2425.670	741.192	-2519.946	C.3	6	ILE6	-0.320	
77	 CD1	2424.517	740.043	-2517.255	C.3	6	ILE6	-0.066	
78	   H	2421.887	742.492	-2518.807	 H	6	ILE6	0.272	
79	  HA	2424.304	743.665	-2519.763	 H	6	ILE6	0.087	
80	  HB	2423.570	740.668	-2519.775	 H	6	ILE6	0.019	
81	2HG1	2423.265	741.752	-2517.474	 H	6	ILE6	0.024	
82	3HG1	2424.963	742.174	-2517.465	 H	6	ILE6	0.024	
83	1HG2	2425.729	741.098	-2521.044	 H	6	ILE6	0.088	
84	2HG2	2426.392	741.974	-2519.643	 H	6	ILE6	0.088	
85	3HG2	2426.059	740.230	-2519.567	 H	6	ILE6	0.088	
86	1HD1	2423.788	739.289	-2517.610	 H	6	ILE6	0.019	
87	2HD1	2425.527	739.664	-2517.490	 H	6	ILE6	0.019	
88	3HD1	2424.440	740.073	-2516.152	 H	6	ILE6	0.019	
89	   N	2422.626	742.130	-2522.113	N.am	7	LEU7	-0.416	
90	  CA	2422.571	742.094	-2523.571	C.3	7	LEU7	-0.052	
91	   C	2422.499	743.489	-2524.144	C.2	7	LEU7	0.597	
92	   O	2423.220	743.851	-2525.086	O.2	7	LEU7	-0.568	
93	  CB	2421.368	741.234	-2524.052	C.3	7	LEU7	-0.110	
94	  CG	2421.295	739.754	-2523.585	C.3	7	LEU7	0.353	
95	 CD1	2420.105	739.049	-2524.250	C.3	7	LEU7	-0.412	
96	 CD2	2422.588	738.975	-2523.876	C.3	7	LEU7	-0.412	
97	   H	2421.934	741.643	-2521.561	 H	7	LEU7	0.272	
98	  HA	2423.513	741.653	-2523.946	 H	7	LEU7	0.092	
99	 2HB	2421.345	741.250	-2525.159	 H	7	LEU7	0.046	
100	 3HB	2420.428	741.737	-2523.748	 H	7	LEU7	0.046	
101	  HG	2421.125	739.746	-2522.488	 H	7	LEU7	-0.036	
102	1HD1	2419.147	739.558	-2524.028	 H	7	LEU7	0.100	
103	2HD1	2420.204	739.008	-2525.352	 H	7	LEU7	0.100	
104	3HD1	2419.997	738.008	-2523.894	 H	7	LEU7	0.100	
105	1HD2	2422.863	739.005	-2524.946	 H	7	LEU7	0.100	
106	2HD2	2423.441	739.386	-2523.305	 H	7	LEU7	0.100	
107	3HD2	2422.506	737.912	-2523.580	 H	7	LEU7	0.100	
108	   N	2421.662	744.330	-2523.638	N.am	8	ASP8	-0.516	
109	  CA	2421.593	745.679	-2524.192	C.3	8	ASP8	0.038	
110	   C	2422.940	746.358	-2524.135	C.2	8	ASP8	0.537	
111	   O	2423.413	746.963	-2525.111	O.2	8	ASP8	-0.582	
112	  CB	2420.515	746.519	-2523.451	C.3	8	ASP8	-0.030	
113	  CG	2420.297	747.940	-2523.992	C.2	8	ASP8	0.799	
114	 OD1	2420.361	748.138	-2525.223	O.co2	8	ASP8	-0.801	
115	 OD2	2420.105	748.866	-2523.178	O.co2	8	ASP8	-0.801	
116	   H	2421.064	744.060	-2522.870	 H	8	ASP8	0.294	
117	  HA	2421.310	745.601	-2525.259	 H	8	ASP8	0.088	
118	 2HB	2420.772	746.603	-2522.379	 H	8	ASP8	-0.012	
119	 3HB	2419.536	746.015	-2523.484	 H	8	ASP8	-0.012	
120	   N	2423.620	746.309	-2523.040	N.am	9	GLU9	-0.516	
121	  CA	2424.923	746.966	-2522.986	C.3	9	GLU9	0.040	
122	   C	2425.840	746.437	-2524.062	C.2	9	GLU9	0.537	
123	   O	2426.504	747.191	-2524.788	O.2	9	GLU9	-0.582	
124	  CB	2425.556	746.758	-2521.580	C.3	9	GLU9	0.056	
125	  CG	2426.939	747.450	-2521.352	C.3	9	GLU9	0.014	
126	  CD	2427.641	747.237	-2520.023	C.2	9	GLU9	0.805	
127	 OE1	2427.120	746.547	-2519.126	O.co2	9	GLU9	-0.819	
128	 OE2	2428.761	747.775	-2519.892	O.co2	9	GLU9	-0.819	
129	   H	2423.256	745.823	-2522.233	 H	9	GLU9	0.294	
130	  HA	2424.781	748.048	-2523.161	 H	9	GLU9	0.111	
131	 2HB	2425.669	745.674	-2521.376	 H	9	GLU9	-0.017	
132	 3HB	2424.860	747.113	-2520.796	 H	9	GLU9	-0.017	
133	 2HG	2426.868	748.541	-2521.492	 H	9	GLU9	-0.043	
134	 3HG	2427.686	747.105	-2522.085	 H	9	GLU9	-0.043	
135	   N	2425.936	745.162	-2524.230	N.am	10	HIS10	-0.416	
136	  CA	2426.823	744.650	-2525.271	C.3	10	HIS10	-0.058	
137	   C	2426.457	745.214	-2526.622	C.2	10	HIS10	0.597	
138	   O	2427.309	745.678	-2527.394	O.2	10	HIS10	-0.568	
139	  CB	2426.659	743.121	-2525.265	C.3	10	HIS10	-0.007	
140	  CG	2427.944	742.410	-2524.957	C.2	10	HIS10	0.187	
141	 CD2	2428.326	742.076	-2523.665	C.2	10	HIS10	-0.221	
142	 ND1	2428.896	742.003	-2525.890	N.2	10	HIS10	-0.543	
143	 CE1	2429.802	741.445	-2525.066	C.2	10	HIS10	0.163	
144	 NE2	2429.540	741.443	-2523.731	N.pl3	10	HIS10	-0.280	
145	   H	2425.406	744.527	-2523.651	 H	10	HIS10	0.272	
146	  HA	2427.843	745.007	-2525.046	 H	10	HIS10	0.136	
147	 2HB	2426.293	742.754	-2526.245	 H	10	HIS10	0.037	
148	 3HB	2425.903	742.785	-2524.524	 H	10	HIS10	0.037	
149	 2HD	2427.740	742.291	-2522.775	 H	10	HIS10	0.186	
150	 1HE	2430.693	741.023	-2525.514	 H	10	HIS10	0.144	
151	 2HE	2430.107	741.066	-2522.958	 H	10	HIS10	0.334	
152	   N	2425.219	745.213	-2526.985	N.am	11	VAL11	-0.416	
153	  CA	2424.864	745.759	-2528.292	C.3	11	VAL11	-0.087	
154	   C	2425.329	747.189	-2528.425	C.2	11	VAL11	0.597	
155	   O	2425.930	747.593	-2529.428	O.2	11	VAL11	-0.568	
156	  CB	2423.302	745.653	-2528.511	C.3	11	VAL11	0.299	
157	 CG1	2422.734	746.356	-2529.774	C.3	11	VAL11	-0.319	
158	 CG2	2422.777	744.199	-2528.583	C.3	11	VAL11	-0.319	
159	   H	2424.506	744.841	-2526.374	 H	11	VAL11	0.272	
160	  HA	2425.383	745.176	-2529.074	 H	11	VAL11	0.097	
161	  HB	2422.815	746.134	-2527.636	 H	11	VAL11	-0.030	
162	1HG1	2423.172	745.964	-2530.711	 H	11	VAL11	0.079	
163	2HG1	2421.635	746.250	-2529.856	 H	11	VAL11	0.079	
164	3HG1	2422.913	747.449	-2529.765	 H	11	VAL11	0.079	
165	1HG2	2423.067	743.612	-2527.692	 H	11	VAL11	0.079	
166	2HG2	2421.671	744.162	-2528.626	 H	11	VAL11	0.079	
167	3HG2	2423.158	743.657	-2529.469	 H	11	VAL11	0.079	
168	   N	2425.093	748.015	-2527.463	N.am	12	GLN12	-0.416	
169	  CA	2425.542	749.398	-2527.591	C.3	12	GLN12	-0.003	
170	   C	2427.031	749.464	-2527.829	C.2	12	GLN12	0.597	
171	   O	2427.519	750.172	-2528.708	O.2	12	GLN12	-0.568	
172	  CB	2425.151	750.166	-2526.309	C.3	12	GLN12	-0.004	
173	  CG	2425.513	751.688	-2526.279	C.3	12	GLN12	-0.064	
174	  CD	2425.211	752.502	-2525.014	C.2	12	GLN12	0.695	
175	 NE2	2424.644	751.927	-2523.985	N.pl3	12	GLN12	-0.941	
176	 OE1	2425.514	753.683	-2524.937	O.2	12	GLN12	-0.609	
177	   H	2424.604	747.710	-2526.634	 H	12	GLN12	0.272	
178	  HA	2425.042	749.854	-2528.466	 H	12	GLN12	0.085	
179	 2HB	2425.627	749.666	-2525.439	 H	12	GLN12	0.017	
180	 3HB	2424.061	750.060	-2526.145	 H	12	GLN12	0.017	
181	 2HG	2425.035	752.209	-2527.129	 H	12	GLN12	0.035	
182	 3HG	2426.596	751.830	-2526.445	 H	12	GLN12	0.035	
183	1HE2	2424.538	752.522	-2523.162	 H	12	GLN12	0.425	
184	2HE2	2424.480	750.923	-2524.088	 H	12	GLN12	0.425	
185	   N	2427.816	748.758	-2527.088	N.am	13	ARG13	-0.348	
186	  CA	2429.256	748.823	-2527.319	C.3	13	ARG13	-0.264	
187	   C	2429.592	748.450	-2528.744	C.2	13	ARG13	0.734	
188	   O	2430.361	749.122	-2529.429	O.2	13	ARG13	-0.589	
189	  CB	2429.969	747.885	-2526.305	C.3	13	ARG13	-0.001	
190	  CG	2431.515	748.037	-2526.225	C.3	13	ARG13	0.039	
191	  CD	2432.142	747.050	-2525.226	C.3	13	ARG13	0.049	
192	  NE	2433.619	747.257	-2525.176	N.pl3	13	ARG13	-0.530	
193	  CZ	2434.467	746.566	-2524.421	C.cat	13	ARG13	0.808	
194	 NH1	2434.102	745.602	-2523.623	N.pl3	13	ARG13	-0.863	
195	 NH2	2435.727	746.864	-2524.478	N.pl3	13	ARG13	-0.863	
196	   H	2427.440	748.169	-2526.359	 H	13	ARG13	0.275	
197	  HA	2429.581	749.869	-2527.162	 H	13	ARG13	0.156	
198	 2HB	2429.703	746.834	-2526.543	 H	13	ARG13	0.033	
199	 3HB	2429.545	748.052	-2525.294	 H	13	ARG13	0.033	
200	 2HG	2431.763	749.082	-2525.946	 H	13	ARG13	0.029	
201	 3HG	2431.965	747.880	-2527.226	 H	13	ARG13	0.029	
202	 2HD	2431.897	746.010	-2525.534	 H	13	ARG13	0.069	
203	 3HD	2431.686	747.197	-2524.224	 H	13	ARG13	0.069	
204	  HE	2434.070	747.979	-2525.748	 H	13	ARG13	0.346	
205	1HH1	2433.096	745.416	-2523.625	 H	13	ARG13	0.448	
206	2HH1	2434.815	745.119	-2523.074	 H	13	ARG13	0.448	
207	1HH2	2435.994	747.622	-2525.110	 H	13	ARG13	0.448	
208	2HH2	2436.362	746.323	-2523.890	 H	13	ARG13	0.448	
209	   N	2429.055	747.396	-2529.258	N.am	14	VAL14	-0.416	
210	  CA	2429.380	747.036	-2530.635	C.3	14	VAL14	-0.087	
211	   C	2429.050	748.165	-2531.581	C.2	14	VAL14	0.597	
212	   O	2429.843	748.546	-2532.451	O.2	14	VAL14	-0.568	
213	  CB	2428.607	745.719	-2531.041	C.3	14	VAL14	0.299	
214	 CG1	2428.696	745.299	-2532.535	C.3	14	VAL14	-0.319	
215	 CG2	2429.039	744.467	-2530.240	C.3	14	VAL14	-0.319	
216	   H	2428.420	746.828	-2528.715	 H	14	VAL14	0.272	
217	  HA	2430.468	746.858	-2530.710	 H	14	VAL14	0.097	
218	  HB	2427.531	745.890	-2530.825	 H	14	VAL14	-0.030	
219	1HG1	2429.737	745.122	-2532.864	 H	14	VAL14	0.079	
220	2HG1	2428.122	744.376	-2532.746	 H	14	VAL14	0.079	
221	3HG1	2428.267	746.061	-2533.213	 H	14	VAL14	0.079	
222	1HG2	2428.952	744.626	-2529.150	 H	14	VAL14	0.079	
223	2HG2	2428.402	743.590	-2530.472	 H	14	VAL14	0.079	
224	3HG2	2430.086	744.176	-2530.446	 H	14	VAL14	0.079	
225	   N	2427.906	748.752	-2531.479	N.am	15	HIS15	-0.416	
226	  CA	2427.585	749.844	-2532.394	C.3	15	HIS15	-0.058	
227	   C	2428.616	750.944	-2532.306	C.2	15	HIS15	0.597	
228	   O	2429.120	751.454	-2533.318	O.2	15	HIS15	-0.568	
229	  CB	2426.204	750.370	-2531.971	C.3	15	HIS15	-0.007	
230	  CG	2425.185	750.240	-2533.066	C.2	15	HIS15	0.187	
231	 CD2	2424.382	749.117	-2533.214	C.2	15	HIS15	-0.221	
232	 ND1	2424.915	751.191	-2534.047	N.2	15	HIS15	-0.543	
233	 CE1	2423.949	750.550	-2534.731	C.2	15	HIS15	0.163	
234	 NE2	2423.571	749.315	-2534.301	N.pl3	15	HIS15	-0.280	
235	   H	2427.241	748.459	-2530.777	 H	15	HIS15	0.272	
236	  HA	2427.635	749.446	-2533.421	 H	15	HIS15	0.136	
237	 2HB	2426.254	751.438	-2531.678	 H	15	HIS15	0.037	
238	 3HB	2425.809	749.839	-2531.080	 H	15	HIS15	0.037	
239	 2HD	2424.415	748.247	-2532.564	 H	15	HIS15	0.186	
240	 1HE	2423.521	751.055	-2535.587	 H	15	HIS15	0.144	
241	 2HE	2422.858	748.682	-2534.690	 H	15	HIS15	0.334	
242	   N	2428.985	751.364	-2531.144	N.am	16	ARG16	-0.348	
243	  CA	2429.983	752.427	-2531.060	C.3	16	ARG16	-0.264	
244	   C	2431.253	752.034	-2531.777	C.2	16	ARG16	0.734	
245	   O	2431.366	750.957	-2532.358	O.2	16	ARG16	-0.589	
246	  CB	2430.252	752.745	-2529.562	C.3	16	ARG16	-0.001	
247	  CG	2431.078	754.033	-2529.289	C.3	16	ARG16	0.039	
248	  CD	2431.328	754.252	-2527.788	C.3	16	ARG16	0.049	
249	  NE	2432.106	755.510	-2527.586	N.pl3	16	ARG16	-0.530	
250	  CZ	2432.498	755.991	-2526.411	C.cat	16	ARG16	0.808	
251	 NH1	2432.250	755.407	-2525.272	N.pl3	16	ARG16	-0.863	
252	 NH2	2433.162	757.103	-2526.392	N.pl3	16	ARG16	-0.863	
253	   H	2428.590	750.965	-2530.305	 H	16	ARG16	0.275	
254	  HA	2429.574	753.320	-2531.570	 H	16	ARG16	0.156	
255	 2HB	2430.748	751.868	-2529.096	 H	16	ARG16	0.033	
256	 3HB	2429.283	752.826	-2529.028	 H	16	ARG16	0.033	
257	 2HG	2430.549	754.904	-2529.726	 H	16	ARG16	0.029	
258	 3HG	2432.052	753.979	-2529.818	 H	16	ARG16	0.029	
259	 2HD	2431.876	753.376	-2527.375	 H	16	ARG16	0.069	
260	 3HD	2430.356	754.295	-2527.252	 H	16	ARG16	0.069	
261	  HE	2432.385	756.091	-2528.383	 H	16	ARG16	0.346	
262	1HH1	2431.723	754.535	-2525.357	 H	16	ARG16	0.448	
263	2HH1	2432.584	755.843	-2524.411	 H	16	ARG16	0.448	
264	1HH2	2433.348	757.547	-2527.294	 H	16	ARG16	0.448	
265	2HH2	2433.453	757.458	-2525.479	 H	16	ARG16	0.448	
@<TRIPOS>BOND
1 1 2 1
2 1 10 1
3 2 3 1
4 2 5 1
5 2 11 1
6 3 4 2
7 3 16 1
8 5 6 1
9 6 7 1
10 7 8 2
11 7 9 1
12 5 12 1
13 5 13 1
14 6 14 1
15 6 15 1
16 16 17 1
17 16 24 1
18 17 18 1
19 17 20 1
20 17 25 1
21 18 19 2
22 18 30 1
23 20 21 1
24 21 22 1
25 21 23 2
26 20 26 1
27 20 27 1
28 22 28 1
29 22 29 1
30 30 31 1
31 30 36 1
32 31 32 1
33 31 34 1
34 31 37 1
35 32 33 2
36 32 44 1
37 34 35 1
38 35 36 1
39 34 38 1
40 34 39 1
41 35 40 1
42 35 41 1
43 36 42 1
44 36 43 1
45 44 45 1
46 44 53 1
47 45 46 1
48 45 48 1
49 45 54 1
50 46 47 2
51 46 59 1
52 48 49 1
53 49 50 1
54 50 51 2
55 50 52 1
56 48 55 1
57 48 56 1
58 49 57 1
59 49 58 1
60 59 60 1
61 59 65 1
62 60 61 1
63 60 63 1
64 60 66 1
65 61 62 2
66 61 70 1
67 63 64 1
68 63 67 1
69 63 68 1
70 64 69 1
71 70 71 1
72 70 78 1
73 71 72 1
74 71 74 1
75 71 79 1
76 72 73 2
77 72 89 1
78 74 75 1
79 74 76 1
80 75 77 1
81 74 80 1
82 75 81 1
83 75 82 1
84 76 83 1
85 76 84 1
86 76 85 1
87 77 86 1
88 77 87 1
89 77 88 1
90 89 90 1
91 89 97 1
92 90 91 1
93 90 93 1
94 90 98 1
95 91 92 2
96 91 108 1
97 93 94 1
98 94 95 1
99 94 96 1
100 93 99 1
101 93 100 1
102 94 101 1
103 95 102 1
104 95 103 1
105 95 104 1
106 96 105 1
107 96 106 1
108 96 107 1
109 108 109 1
110 108 116 1
111 109 110 1
112 109 112 1
113 109 117 1
114 110 111 2
115 110 120 1
116 112 113 1
117 113 114 2
118 113 115 1
119 112 118 1
120 112 119 1
121 120 121 1
122 120 129 1
123 121 122 1
124 121 124 1
125 121 130 1
126 122 123 2
127 122 135 1
128 124 125 1
129 125 126 1
130 126 127 2
131 126 128 1
132 124 131 1
133 124 132 1
134 125 133 1
135 125 134 1
136 135 136 1
137 135 145 1
138 136 137 1
139 136 139 1
140 136 146 1
141 137 138 2
142 137 152 1
143 139 140 1
144 140 141 2
145 141 144 1
146 140 142 1
147 142 143 2
148 143 144 1
149 139 147 1
150 139 148 1
151 141 149 1
152 143 150 1
153 144 151 1
154 152 153 1
155 152 159 1
156 153 154 1
157 153 156 1
158 153 160 1
159 154 155 2
160 154 168 1
161 156 157 1
162 156 158 1
163 156 161 1
164 157 162 1
165 157 163 1
166 157 164 1
167 158 165 1
168 158 166 1
169 158 167 1
170 168 169 1
171 168 177 1
172 169 170 1
173 169 172 1
174 169 178 1
175 170 171 2
176 170 185 1
177 172 173 1
178 173 174 1
179 174 175 1
180 174 176 2
181 172 179 1
182 172 180 1
183 173 181 1
184 173 182 1
185 175 183 1
186 175 184 1
187 185 186 1
188 185 196 1
189 186 187 1
190 186 189 1
191 186 197 1
192 187 188 2
193 187 209 1
194 189 190 1
195 190 191 1
196 191 192 1
197 192 193 1
198 193 194 2
199 193 195 1
200 189 198 1
201 189 199 1
202 190 200 1
203 190 201 1
204 191 202 1
205 191 203 1
206 192 204 1
207 194 205 1
208 194 206 1
209 195 207 1
210 195 208 1
211 209 210 1
212 209 216 1
213 210 211 1
214 210 213 1
215 210 217 1
216 211 212 2
217 211 225 1
218 213 214 1
219 213 215 1
220 213 218 1
221 214 219 1
222 214 220 1
223 214 221 1
224 215 222 1
225 215 223 1
226 215 224 1
227 225 226 1
228 225 235 1
229 226 227 1
230 226 229 1
231 226 236 1
232 227 228 2
233 227 242 1
234 229 230 1
235 230 231 2
236 231 234 1
237 230 232 1
238 232 233 2
239 233 234 1
240 229 237 1
241 229 238 1
242 231 239 1
243 233 240 1
244 234 241 1
245 242 243 1
246 242 253 1
247 243 244 1
248 243 246 1
249 243 254 1
250 244 245 2
251 246 247 1
252 247 248 1
253 248 249 1
254 249 250 1
255 250 251 2
256 250 252 1
257 246 255 1
258 246 256 1
259 247 257 1
260 247 258 1
261 248 259 1
262 248 260 1
263 249 261 1
264 251 262 1
265 251 263 1
266 252 264 1
267 252 265 1
@<TRIPOS>SUBSTRUCTURE
1	GLU1	1	RESIDUE	1 ****	GLU
2	ASN2	16	RESIDUE	1 ****	ASN
3	PRO3	30	RESIDUE	1 ****	PRO
4	GLU4	44	RESIDUE	1 ****	GLU
5	SER5	59	RESIDUE	1 ****	SER
6	ILE6	70	RESIDUE	1 ****	ILE
7	LEU7	89	RESIDUE	1 ****	LEU
8	ASP8	108	RESIDUE	1 ****	ASP
9	GLU9	120	RESIDUE	1 ****	GLU
10	HIS10	135	RESIDUE	1 ****	HIS
11	VAL11	152	RESIDUE	1 ****	VAL
12	GLN12	168	RESIDUE	1 ****	GLN
13	ARG13	185	RESIDUE	1 ****	ARG
14	VAL14	209	RESIDUE	1 ****	VAL
15	HIS15	225	RESIDUE	1 ****	HIS
16	ARG16	242	RESIDUE	1 ****	ARG
