@<TRIPOS>MOLECULE
3-6
270 270 16              
SMALL
USER_CHARGES
@<TRIPOS>ATOM
1	   N	386.661	88.693	-359.065	N.3	1	GLU1	-0.516	
2	  CA	387.220	90.042	-359.065	C.3	1	GLU1	0.040	
3	   C	388.729	90.002	-359.065	C.2	1	GLU1	0.537	
4	   O	389.405	90.701	-359.833	O.2	1	GLU1	-0.582	
5	  CB	386.697	90.827	-357.828	C.3	1	GLU1	0.056	
6	  CG	387.172	92.312	-357.717	C.3	1	GLU1	0.014	
7	  CD	386.748	93.116	-356.502	C.2	1	GLU1	0.805	
8	 OE1	386.020	92.614	-355.624	O.co2	1	GLU1	-0.819	
9	 OE2	387.178	94.286	-356.430	O.co2	1	GLU1	-0.819	
10	   H	387.288	87.814	-359.065	 H	1	GLU1	0.294	
11	  HA	386.894	90.560	-359.985	 H	1	GLU1	0.111	
12	 2HB	386.986	90.296	-356.898	 H	1	GLU1	-0.017	
13	 3HB	385.590	90.817	-357.815	 H	1	GLU1	-0.017	
14	 2HG	386.862	92.897	-358.598	 H	1	GLU1	-0.043	
15	 3HG	388.272	92.379	-357.688	 H	1	GLU1	-0.043	
16	   N	389.333	89.216	-358.239	N.am	2	ASN2	-0.416	
17	  CA	390.793	89.177	-358.240	C.3	2	ASN2	0.014	
18	   C	391.324	88.822	-359.608	C.2	2	ASN2	0.597	
19	   O	392.239	89.452	-360.137	O.2	2	ASN2	-0.568	
20	  CB	391.285	88.154	-357.175	C.3	2	ASN2	-0.204	
21	  CG	390.822	88.378	-355.732	C.2	2	ASN2	0.713	
22	 ND2	391.416	89.293	-355.014	N.pl3	2	ASN2	-0.919	
23	 OD1	389.901	87.744	-355.238	O.2	2	ASN2	-0.593	
24	   H	388.805	88.636	-357.603	 H	2	ASN2	0.272	
25	  HA	391.170	90.187	-357.994	 H	2	ASN2	0.105	
26	 2HB	392.389	88.095	-357.179	 H	2	ASN2	0.080	
27	 3HB	390.956	87.136	-357.461	 H	2	ASN2	0.080	
28	1HD2	390.936	89.466	-354.127	 H	2	ASN2	0.420	
29	2HD2	392.118	89.865	-355.483	 H	2	ASN2	0.420	
30	   N	390.803	87.827	-360.242	N.am	3	ILE3	-0.416	
31	  CA	391.316	87.483	-361.565	C.3	3	ILE3	-0.060	
32	   C	391.222	88.661	-362.505	C.2	3	ILE3	0.597	
33	   O	392.172	89.004	-363.224	O.2	3	ILE3	-0.568	
34	  CB	390.590	86.204	-362.151	C.3	3	ILE3	0.130	
35	 CG1	390.582	84.966	-361.197	C.3	3	ILE3	-0.043	
36	 CG2	391.174	85.753	-363.526	C.3	3	ILE3	-0.320	
37	 CD1	389.622	83.823	-361.587	C.3	3	ILE3	-0.066	
38	   H	390.051	87.293	-359.830	 H	3	ILE3	0.272	
39	  HA	392.392	87.253	-361.457	 H	3	ILE3	0.087	
40	  HB	389.529	86.487	-362.315	 H	3	ILE3	0.019	
41	2HG1	390.279	85.282	-360.182	 H	3	ILE3	0.024	
42	3HG1	391.610	84.574	-361.069	 H	3	ILE3	0.024	
43	1HG2	391.110	86.535	-364.303	 H	3	ILE3	0.088	
44	2HG2	392.236	85.452	-363.449	 H	3	ILE3	0.088	
45	3HG2	390.626	84.894	-363.955	 H	3	ILE3	0.088	
46	1HD1	388.578	84.178	-361.682	 H	3	ILE3	0.019	
47	2HD1	389.898	83.346	-362.545	 H	3	ILE3	0.019	
48	3HD1	389.624	83.022	-360.825	 H	3	ILE3	0.019	
49	   N	390.121	89.330	-362.560	N.am	4	GLU4	-0.516	
50	  CA	390.030	90.470	-363.469	C.3	4	GLU4	0.040	
51	   C	391.110	91.483	-363.176	C.2	4	GLU4	0.537	
52	   O	391.805	91.981	-364.073	O.2	4	GLU4	-0.582	
53	  CB	388.624	91.125	-363.351	C.3	4	GLU4	0.056	
54	  CG	388.357	92.334	-364.304	C.3	4	GLU4	0.014	
55	  CD	387.028	93.058	-364.197	C.2	4	GLU4	0.805	
56	 OE1	386.159	92.684	-363.386	O.co2	4	GLU4	-0.819	
57	 OE2	386.867	94.042	-364.949	O.co2	4	GLU4	-0.819	
58	   H	389.333	89.070	-361.984	 H	4	GLU4	0.294	
59	  HA	390.174	90.109	-364.504	 H	4	GLU4	0.111	
60	 2HB	388.452	91.457	-362.307	 H	4	GLU4	-0.017	
61	 3HB	387.838	90.366	-363.529	 H	4	GLU4	-0.017	
62	 2HG	388.465	92.041	-365.361	 H	4	GLU4	-0.043	
63	 3HG	389.092	93.140	-364.144	 H	4	GLU4	-0.043	
64	   N	391.317	91.840	-361.953	N.am	5	SER5	-0.416	
65	  CA	392.362	92.820	-361.670	C.3	5	SER5	-0.025	
66	   C	393.699	92.350	-362.192	C.2	5	SER5	0.597	
67	   O	394.440	93.086	-362.843	O.2	5	SER5	-0.568	
68	  CB	392.422	93.140	-360.156	C.3	5	SER5	0.212	
69	  OG	392.909	92.044	-359.374	O.3	5	SER5	-0.655	
70	   H	390.765	91.448	-361.204	 H	5	SER5	0.272	
71	  HA	392.114	93.749	-362.215	 H	5	SER5	0.084	
72	 2HB	391.432	93.455	-359.774	 H	5	SER5	0.035	
73	 3HB	393.084	94.011	-359.985	 H	5	SER5	0.035	
74	  HG	392.286	91.320	-359.474	 H	5	SER5	0.428	
75	   N	394.076	91.140	-361.948	N.am	6	ILE6	-0.416	
76	  CA	395.369	90.687	-362.453	C.3	6	ILE6	-0.060	
77	   C	395.451	90.847	-363.952	C.2	6	ILE6	0.597	
78	   O	396.437	91.357	-364.505	O.2	6	ILE6	-0.568	
79	  CB	395.675	89.201	-362.002	C.3	6	ILE6	0.130	
80	 CG1	395.534	88.944	-360.467	C.3	6	ILE6	-0.043	
81	 CG2	397.088	88.711	-362.448	C.3	6	ILE6	-0.320	
82	 CD1	395.506	87.464	-360.032	C.3	6	ILE6	-0.066	
83	   H	393.486	90.517	-361.417	 H	6	ILE6	0.272	
84	  HA	396.145	91.347	-362.024	 H	6	ILE6	0.087	
85	  HB	394.924	88.555	-362.504	 H	6	ILE6	0.019	
86	2HG1	394.586	89.383	-360.103	 H	6	ILE6	0.024	
87	3HG1	396.323	89.490	-359.913	 H	6	ILE6	0.024	
88	1HG2	397.235	88.745	-363.541	 H	6	ILE6	0.088	
89	2HG2	397.899	89.308	-361.988	 H	6	ILE6	0.088	
90	3HG2	397.272	87.655	-362.178	 H	6	ILE6	0.088	
91	1HD1	394.699	86.902	-360.540	 H	6	ILE6	0.019	
92	2HD1	396.456	86.942	-360.244	 H	6	ILE6	0.019	
93	3HD1	395.331	87.370	-358.945	 H	6	ILE6	0.019	
94	   N	394.467	90.440	-364.679	N.am	7	LEU7	-0.416	
95	  CA	394.546	90.595	-366.128	C.3	7	LEU7	-0.052	
96	   C	394.765	92.040	-366.506	C.2	7	LEU7	0.597	
97	   O	395.624	92.381	-367.334	O.2	7	LEU7	-0.568	
98	  CB	393.267	90.031	-366.809	C.3	7	LEU7	-0.110	
99	  CG	392.902	88.542	-366.559	C.3	7	LEU7	0.353	
100	 CD1	391.680	88.149	-367.400	C.3	7	LEU7	-0.412	
101	 CD2	394.068	87.586	-366.860	C.3	7	LEU7	-0.412	
102	   H	393.653	90.021	-364.252	 H	7	LEU7	0.272	
103	  HA	395.432	90.042	-366.491	 H	7	LEU7	0.092	
104	 2HB	393.353	90.187	-367.903	 H	7	LEU7	0.046	
105	 3HB	392.401	90.653	-366.508	 H	7	LEU7	0.046	
106	  HG	392.629	88.429	-365.489	 H	7	LEU7	-0.036	
107	1HD1	390.805	88.791	-367.180	 H	7	LEU7	0.100	
108	2HD1	391.876	88.228	-368.486	 H	7	LEU7	0.100	
109	3HD1	391.365	87.109	-367.201	 H	7	LEU7	0.100	
110	1HD2	394.445	87.698	-367.893	 H	7	LEU7	0.100	
111	2HD2	394.919	87.763	-366.177	 H	7	LEU7	0.100	
112	3HD2	393.781	86.527	-366.721	 H	7	LEU7	0.100	
113	   N	394.037	92.948	-365.950	N.am	8	ASP8	-0.516	
114	  CA	394.248	94.347	-366.315	C.3	8	ASP8	0.038	
115	   C	395.678	94.761	-366.066	C.2	8	ASP8	0.537	
116	   O	396.337	95.387	-366.911	O.2	8	ASP8	-0.582	
117	  CB	393.261	95.267	-365.545	C.3	8	ASP8	-0.030	
118	  CG	393.337	96.760	-365.898	C.2	8	ASP8	0.799	
119	 OD1	393.551	97.095	-367.081	O.co2	8	ASP8	-0.801	
120	 OD2	393.226	97.597	-364.978	O.co2	8	ASP8	-0.801	
121	   H	393.331	92.696	-365.273	 H	8	ASP8	0.294	
122	  HA	394.060	94.453	-367.400	 H	8	ASP8	0.088	
123	 2HB	393.424	95.170	-364.456	 H	8	ASP8	-0.012	
124	 3HB	392.218	94.954	-365.718	 H	8	ASP8	-0.012	
125	   N	396.232	94.455	-364.942	N.am	9	GLU9	-0.516	
126	  CA	397.615	94.856	-364.702	C.3	9	GLU9	0.040	
127	   C	398.530	94.309	-365.771	C.2	9	GLU9	0.537	
128	   O	399.378	95.016	-366.334	O.2	9	GLU9	-0.582	
129	  CB	398.067	94.366	-363.296	C.3	9	GLU9	0.056	
130	  CG	399.518	94.765	-362.873	C.3	9	GLU9	0.014	
131	  CD	400.043	94.267	-361.540	C.2	9	GLU9	0.805	
132	 OE1	399.329	93.575	-360.788	O.co2	9	GLU9	-0.819	
133	 OE2	401.219	94.574	-361.254	O.co2	9	GLU9	-0.819	
134	   H	395.716	93.946	-364.239	 H	9	GLU9	0.294	
135	  HA	397.675	95.959	-364.735	 H	9	GLU9	0.111	
136	 2HB	397.976	93.262	-363.237	 H	9	GLU9	-0.017	
137	 3HB	397.367	94.739	-362.523	 H	9	GLU9	-0.017	
138	 2HG	399.644	95.860	-362.865	 H	9	GLU9	-0.043	
139	 3HG	400.263	94.385	-363.592	 H	9	GLU9	-0.043	
140	   N	398.426	93.068	-366.108	N.am	10	HIS10	-0.416	
141	  CA	399.311	92.538	-367.141	C.3	10	HIS10	-0.058	
142	   C	399.176	93.322	-368.424	C.2	10	HIS10	0.597	
143	   O	400.164	93.718	-369.060	O.2	10	HIS10	-0.568	
144	  CB	398.893	91.075	-367.360	C.3	10	HIS10	-0.007	
145	  CG	400.005	90.113	-367.061	C.2	10	HIS10	0.187	
146	 CD2	400.198	89.558	-365.803	C.2	10	HIS10	-0.221	
147	 ND1	400.960	89.661	-367.969	N.2	10	HIS10	-0.543	
148	 CE1	401.676	88.852	-367.167	C.2	10	HIS10	0.163	
149	 NE2	401.290	88.731	-365.867	N.pl3	10	HIS10	-0.280	
150	   H	397.743	92.472	-365.663	 H	10	HIS10	0.272	
151	  HA	400.350	92.676	-366.795	 H	10	HIS10	0.136	
152	 2HB	398.566	90.904	-368.405	 H	10	HIS10	0.037	
153	 3HB	398.024	90.790	-366.731	 H	10	HIS10	0.037	
154	 2HD	399.574	89.763	-364.937	 H	10	HIS10	0.186	
155	 1HE	402.522	88.337	-367.602	 H	10	HIS10	0.144	
156	 2HE	401.708	88.166	-365.115	 H	10	HIS10	0.334	
157	   N	397.996	93.588	-368.873	N.am	11	VAL11	-0.416	
158	  CA	397.865	94.347	-370.114	C.3	11	VAL11	-0.087	
159	   C	398.574	95.676	-370.013	C.2	11	VAL11	0.597	
160	   O	399.328	96.087	-370.904	O.2	11	VAL11	-0.568	
161	  CB	396.337	94.550	-370.459	C.3	11	VAL11	0.299	
162	 CG1	396.018	95.495	-371.650	C.3	11	VAL11	-0.319	
163	 CG2	395.584	93.234	-370.771	C.3	11	VAL11	-0.319	
164	   H	397.175	93.277	-368.373	 H	11	VAL11	0.272	
165	  HA	398.352	93.782	-370.930	 H	11	VAL11	0.097	
166	  HB	395.855	94.998	-369.564	 H	11	VAL11	-0.030	
167	1HG1	396.472	95.150	-372.598	 H	11	VAL11	0.079	
168	2HG1	394.930	95.598	-371.826	 H	11	VAL11	0.079	
169	3HG1	396.376	96.528	-371.477	 H	11	VAL11	0.079	
170	1HG2	395.684	92.499	-369.951	 H	11	VAL11	0.079	
171	2HG2	394.497	93.402	-370.899	 H	11	VAL11	0.079	
172	3HG2	395.953	92.747	-371.694	 H	11	VAL11	0.079	
173	   N	398.388	96.405	-368.965	N.am	12	GLN12	-0.416	
174	  CA	399.073	97.690	-368.867	C.3	12	GLN12	-0.003	
175	   C	400.569	97.518	-368.984	C.2	12	GLN12	0.597	
176	   O	401.250	98.230	-369.718	O.2	12	GLN12	-0.568	
177	  CB	398.696	98.351	-367.522	C.3	12	GLN12	-0.004	
178	  CG	399.302	99.768	-367.254	C.3	12	GLN12	-0.064	
179	  CD	399.021	100.459	-365.914	C.2	12	GLN12	0.695	
180	 NE2	398.269	99.871	-365.019	N.pl3	12	GLN12	-0.941	
181	 OE1	399.508	101.548	-365.652	O.2	12	GLN12	-0.609	
182	   H	397.778	96.092	-368.224	 H	12	GLN12	0.272	
183	  HA	398.744	98.333	-369.704	 H	12	GLN12	0.085	
184	 2HB	398.995	97.670	-366.698	 H	12	GLN12	0.017	
185	 3HB	397.592	98.421	-367.455	 H	12	GLN12	0.017	
186	 2HG	399.003	100.467	-368.057	 H	12	GLN12	0.035	
187	 3HG	400.405	99.732	-367.319	 H	12	GLN12	0.035	
188	1HE2	398.185	100.369	-364.131	 H	12	GLN12	0.425	
189	2HE2	397.949	98.934	-365.272	 H	12	GLN12	0.425	
190	   N	401.149	96.596	-368.293	N.am	13	ARG13	-0.348	
191	  CA	402.595	96.430	-368.407	C.3	13	ARG13	-0.264	
192	   C	402.999	96.183	-369.841	C.2	13	ARG13	0.734	
193	   O	403.932	96.786	-370.368	O.2	13	ARG13	-0.589	
194	  CB	403.039	95.260	-367.483	C.3	13	ARG13	-0.001	
195	  CG	404.573	95.122	-367.269	C.3	13	ARG13	0.039	
196	  CD	404.926	93.923	-366.375	C.3	13	ARG13	0.049	
197	  NE	406.406	93.853	-366.189	N.pl3	13	ARG13	-0.530	
198	  CZ	407.049	92.933	-365.477	C.cat	13	ARG13	0.808	
199	 NH1	406.452	91.958	-364.850	N.pl3	13	ARG13	-0.863	
200	 NH2	408.340	93.006	-365.400	N.pl3	13	ARG13	-0.863	
201	   H	400.611	95.998	-367.682	 H	13	ARG13	0.275	
202	  HA	403.074	97.373	-368.081	 H	13	ARG13	0.156	
203	 2HB	402.624	94.312	-367.884	 H	13	ARG13	0.033	
204	 3HB	402.553	95.374	-366.493	 H	13	ARG13	0.033	
205	 2HG	404.965	96.063	-366.831	 H	13	ARG13	0.029	
206	 3HG	405.085	95.013	-368.247	 H	13	ARG13	0.029	
207	 2HD	404.541	92.989	-366.842	 H	13	ARG13	0.069	
208	 3HD	404.407	94.023	-365.398	 H	13	ARG13	0.069	
209	  HE	407.024	94.548	-366.620	 H	13	ARG13	0.346	
210	1HH1	405.434	91.958	-364.952	 H	13	ARG13	0.448	
211	2HH1	407.017	91.291	-364.323	 H	13	ARG13	0.448	
212	1HH2	408.791	93.775	-365.899	 H	13	ARG13	0.448	
213	2HH2	408.816	92.290	-364.848	 H	13	ARG13	0.448	
214	   N	402.345	95.314	-370.534	N.am	14	VAL14	-0.416	
215	  CA	402.735	95.076	-371.921	C.3	14	VAL14	-0.087	
216	   C	402.692	96.354	-372.722	C.2	14	VAL14	0.597	
217	   O	403.618	96.692	-373.471	O.2	14	VAL14	-0.568	
218	  CB	401.795	93.979	-372.561	C.3	14	VAL14	0.299	
219	 CG1	401.955	93.740	-374.088	C.3	14	VAL14	-0.319	
220	 CG2	401.931	92.580	-371.913	C.3	14	VAL14	-0.319	
221	   H	401.574	94.806	-370.124	 H	14	VAL14	0.272	
222	  HA	403.780	94.717	-371.940	 H	14	VAL14	0.097	
223	  HB	400.747	94.313	-372.403	 H	14	VAL14	-0.030	
224	1HG1	402.979	93.421	-374.362	 H	14	VAL14	0.079	
225	2HG1	401.258	92.968	-374.468	 H	14	VAL14	0.079	
226	3HG1	401.727	94.644	-374.683	 H	14	VAL14	0.079	
227	1HG2	401.768	92.616	-370.820	 H	14	VAL14	0.079	
228	2HG2	401.182	91.868	-372.310	 H	14	VAL14	0.079	
229	3HG2	402.930	92.135	-372.080	 H	14	VAL14	0.079	
230	   N	401.658	97.119	-372.624	N.am	15	MET15	-0.416	
231	  CA	401.615	98.356	-373.398	C.3	15	MET15	-0.024	
232	   C	402.802	99.234	-373.084	C.2	15	MET15	0.597	
233	   O	403.479	99.767	-373.977	O.2	15	MET15	-0.568	
234	  CB	400.283	99.105	-373.121	C.3	15	MET15	0.034	
235	  CG	398.993	98.364	-373.533	C.3	15	MET15	0.002	
236	  SD	397.584	99.477	-373.415	S.3	15	MET15	-0.274	
237	  CE	396.269	98.259	-373.557	C.3	15	MET15	-0.054	
238	   H	400.889	96.866	-372.020	 H	15	MET15	0.272	
239	  HA	401.674	98.102	-374.473	 H	15	MET15	0.088	
240	 2HB	400.294	100.079	-373.648	 H	15	MET15	0.024	
241	 3HB	400.215	99.367	-372.046	 H	15	MET15	0.024	
242	 2HG	398.829	97.493	-372.871	 H	15	MET15	0.044	
243	 3HG	399.062	97.970	-374.564	 H	15	MET15	0.044	
244	 1HE	396.376	97.667	-374.483	 H	15	MET15	0.068	
245	 2HE	396.292	97.567	-372.697	 H	15	MET15	0.068	
246	 3HE	395.283	98.754	-373.573	 H	15	MET15	0.068	
247	   N	403.124	99.435	-371.851	N.am	16	ARG16	-0.348	
248	  CA	404.272	100.284	-371.548	C.3	16	ARG16	-0.264	
249	   C	405.521	99.761	-372.218	C.2	16	ARG16	0.734	
250	   O	405.508	98.762	-372.933	O.2	16	ARG16	-0.589	
251	  CB	404.446	100.360	-370.005	C.3	16	ARG16	-0.001	
252	  CG	405.446	101.437	-369.497	C.3	16	ARG16	0.039	
253	  CD	405.584	101.420	-367.966	C.3	16	ARG16	0.049	
254	  NE	406.538	102.485	-367.536	N.pl3	16	ARG16	-0.530	
255	  CZ	406.891	102.740	-366.280	C.cat	16	ARG16	0.808	
256	 NH1	406.440	102.073	-365.254	N.pl3	16	ARG16	-0.863	
257	 NH2	407.728	103.704	-366.059	N.pl3	16	ARG16	-0.863	
258	   H	402.589	99.011	-371.106	 H	16	ARG16	0.275	
259	  HA	404.070	101.292	-371.958	 H	16	ARG16	0.156	
260	 2HB	404.741	99.359	-369.630	 H	16	ARG16	0.033	
261	 3HB	403.458	100.547	-369.537	 H	16	ARG16	0.033	
262	 2HG	405.115	102.436	-369.847	 H	16	ARG16	0.029	
263	 3HG	406.443	101.276	-369.956	 H	16	ARG16	0.029	
264	 2HD	405.936	100.417	-367.639	 H	16	ARG16	0.069	
265	 3HD	404.586	101.570	-367.502	 H	16	ARG16	0.069	
266	  HE	406.986	103.100	-368.223	 H	16	ARG16	0.346	
267	1HH1	405.786	101.326	-365.497	 H	16	ARG16	0.448	
268	2HH1	406.759	102.332	-364.319	 H	16	ARG16	0.448	
269	1HH2	408.071	104.215	-366.875	 H	16	ARG16	0.448	
270	2HH2	407.985	103.886	-365.087	 H	16	ARG16	0.448	
@<TRIPOS>BOND
1 1 2 1
2 1 10 1
3 2 3 1
4 2 5 1
5 2 11 1
6 3 4 2
7 3 16 1
8 5 6 1
9 6 7 1
10 7 8 2
11 7 9 1
12 5 12 1
13 5 13 1
14 6 14 1
15 6 15 1
16 16 17 1
17 16 24 1
18 17 18 1
19 17 20 1
20 17 25 1
21 18 19 2
22 18 30 1
23 20 21 1
24 21 22 1
25 21 23 2
26 20 26 1
27 20 27 1
28 22 28 1
29 22 29 1
30 30 31 1
31 30 38 1
32 31 32 1
33 31 34 1
34 31 39 1
35 32 33 2
36 32 49 1
37 34 35 1
38 34 36 1
39 35 37 1
40 34 40 1
41 35 41 1
42 35 42 1
43 36 43 1
44 36 44 1
45 36 45 1
46 37 46 1
47 37 47 1
48 37 48 1
49 49 50 1
50 49 58 1
51 50 51 1
52 50 53 1
53 50 59 1
54 51 52 2
55 51 64 1
56 53 54 1
57 54 55 1
58 55 56 2
59 55 57 1
60 53 60 1
61 53 61 1
62 54 62 1
63 54 63 1
64 64 65 1
65 64 70 1
66 65 66 1
67 65 68 1
68 65 71 1
69 66 67 2
70 66 75 1
71 68 69 1
72 68 72 1
73 68 73 1
74 69 74 1
75 75 76 1
76 75 83 1
77 76 77 1
78 76 79 1
79 76 84 1
80 77 78 2
81 77 94 1
82 79 80 1
83 79 81 1
84 80 82 1
85 79 85 1
86 80 86 1
87 80 87 1
88 81 88 1
89 81 89 1
90 81 90 1
91 82 91 1
92 82 92 1
93 82 93 1
94 94 95 1
95 94 102 1
96 95 96 1
97 95 98 1
98 95 103 1
99 96 97 2
100 96 113 1
101 98 99 1
102 99 100 1
103 99 101 1
104 98 104 1
105 98 105 1
106 99 106 1
107 100 107 1
108 100 108 1
109 100 109 1
110 101 110 1
111 101 111 1
112 101 112 1
113 113 114 1
114 113 121 1
115 114 115 1
116 114 117 1
117 114 122 1
118 115 116 2
119 115 125 1
120 117 118 1
121 118 119 2
122 118 120 1
123 117 123 1
124 117 124 1
125 125 126 1
126 125 134 1
127 126 127 1
128 126 129 1
129 126 135 1
130 127 128 2
131 127 140 1
132 129 130 1
133 130 131 1
134 131 132 2
135 131 133 1
136 129 136 1
137 129 137 1
138 130 138 1
139 130 139 1
140 140 141 1
141 140 150 1
142 141 142 1
143 141 144 1
144 141 151 1
145 142 143 2
146 142 157 1
147 144 145 1
148 145 146 2
149 146 149 1
150 145 147 1
151 147 148 2
152 148 149 1
153 144 152 1
154 144 153 1
155 146 154 1
156 148 155 1
157 149 156 1
158 157 158 1
159 157 164 1
160 158 159 1
161 158 161 1
162 158 165 1
163 159 160 2
164 159 173 1
165 161 162 1
166 161 163 1
167 161 166 1
168 162 167 1
169 162 168 1
170 162 169 1
171 163 170 1
172 163 171 1
173 163 172 1
174 173 174 1
175 173 182 1
176 174 175 1
177 174 177 1
178 174 183 1
179 175 176 2
180 175 190 1
181 177 178 1
182 178 179 1
183 179 180 1
184 179 181 2
185 177 184 1
186 177 185 1
187 178 186 1
188 178 187 1
189 180 188 1
190 180 189 1
191 190 191 1
192 190 201 1
193 191 192 1
194 191 194 1
195 191 202 1
196 192 193 2
197 192 214 1
198 194 195 1
199 195 196 1
200 196 197 1
201 197 198 1
202 198 199 2
203 198 200 1
204 194 203 1
205 194 204 1
206 195 205 1
207 195 206 1
208 196 207 1
209 196 208 1
210 197 209 1
211 199 210 1
212 199 211 1
213 200 212 1
214 200 213 1
215 214 215 1
216 214 221 1
217 215 216 1
218 215 218 1
219 215 222 1
220 216 217 2
221 216 230 1
222 218 219 1
223 218 220 1
224 218 223 1
225 219 224 1
226 219 225 1
227 219 226 1
228 220 227 1
229 220 228 1
230 220 229 1
231 230 231 1
232 230 238 1
233 231 232 1
234 231 234 1
235 231 239 1
236 232 233 2
237 232 247 1
238 234 235 1
239 235 236 1
240 236 237 1
241 234 240 1
242 234 241 1
243 235 242 1
244 235 243 1
245 237 244 1
246 237 245 1
247 237 246 1
248 247 248 1
249 247 258 1
250 248 249 1
251 248 251 1
252 248 259 1
253 249 250 2
254 251 252 1
255 252 253 1
256 253 254 1
257 254 255 1
258 255 256 2
259 255 257 1
260 251 260 1
261 251 261 1
262 252 262 1
263 252 263 1
264 253 264 1
265 253 265 1
266 254 266 1
267 256 267 1
268 256 268 1
269 257 269 1
270 257 270 1
@<TRIPOS>SUBSTRUCTURE
1	GLU1	1	RESIDUE	1 ****	GLU
2	ASN2	16	RESIDUE	1 ****	ASN
3	ILE3	30	RESIDUE	1 ****	ILE
4	GLU4	49	RESIDUE	1 ****	GLU
5	SER5	64	RESIDUE	1 ****	SER
6	ILE6	75	RESIDUE	1 ****	ILE
7	LEU7	94	RESIDUE	1 ****	LEU
8	ASP8	113	RESIDUE	1 ****	ASP
9	GLU9	125	RESIDUE	1 ****	GLU
10	HIS10	140	RESIDUE	1 ****	HIS
11	VAL11	157	RESIDUE	1 ****	VAL
12	GLN12	173	RESIDUE	1 ****	GLN
13	ARG13	190	RESIDUE	1 ****	ARG
14	VAL14	214	RESIDUE	1 ****	VAL
15	MET15	230	RESIDUE	1 ****	MET
16	ARG16	247	RESIDUE	1 ****	ARG
