@<TRIPOS>MOLECULE
1-20
274 275 16              
SMALL
USER_CHARGES
@<TRIPOS>ATOM
1	   N	165.382	32.116	-133.652	N.3	1	ARG1	-0.348	
2	  CA	165.923	32.795	-134.826	C.3	1	ARG1	-0.264	
3	   C	167.433	32.812	-134.792	C.2	1	ARG1	0.734	
4	   O	168.110	32.507	-135.772	O.2	1	ARG1	-0.589	
5	  CB	165.341	34.236	-134.884	C.3	1	ARG1	-0.001	
6	  CG	165.592	35.006	-136.211	C.3	1	ARG1	0.039	
7	  CD	165.016	36.431	-136.170	C.3	1	ARG1	0.049	
8	  NE	165.268	37.112	-137.474	N.pl3	1	ARG1	-0.530	
9	  CZ	164.907	38.356	-137.774	C.cat	1	ARG1	0.808	
10	 NH1	164.283	39.146	-136.946	N.pl3	1	ARG1	-0.863	
11	 NH2	165.189	38.811	-138.954	N.pl3	1	ARG1	-0.863	
12	   H	165.988	31.718	-132.926	 H	1	ARG1	0.275	
13	  HA	165.615	32.225	-135.723	 H	1	ARG1	0.156	
14	 2HB	165.740	34.816	-134.026	 H	1	ARG1	0.033	
15	 3HB	164.248	34.194	-134.701	 H	1	ARG1	0.033	
16	 2HG	165.152	34.433	-137.053	 H	1	ARG1	0.029	
17	 3HG	166.680	35.057	-136.421	 H	1	ARG1	0.029	
18	 2HD	165.484	36.993	-135.332	 H	1	ARG1	0.069	
19	 3HD	163.928	36.385	-135.949	 H	1	ARG1	0.069	
20	  HE	165.752	36.628	-138.237	 H	1	ARG1	0.346	
21	1HH1	164.092	38.727	-136.033	 H	1	ARG1	0.448	
22	2HH1	164.039	40.089	-137.253	 H	1	ARG1	0.448	
23	1HH2	165.679	38.178	-139.589	 H	1	ARG1	0.448	
24	2HH2	164.902	39.768	-139.166	 H	1	ARG1	0.448	
25	   N	168.030	33.157	-133.702	N.am	2	ASN2	-0.416	
26	  CA	169.490	33.173	-133.669	C.3	2	ASN2	0.014	
27	   C	170.054	31.820	-134.036	C.2	2	ASN2	0.597	
28	   O	170.971	31.694	-134.846	O.2	2	ASN2	-0.568	
29	  CB	169.972	33.606	-132.255	C.3	2	ASN2	-0.204	
30	  CG	169.476	34.960	-131.737	C.2	2	ASN2	0.713	
31	 ND2	170.044	36.050	-132.179	N.pl3	2	ASN2	-0.919	
32	 OD1	168.554	35.055	-130.942	O.2	2	ASN2	-0.593	
33	   H	167.496	33.411	-132.884	 H	2	ASN2	0.272	
34	  HA	169.849	33.894	-134.427	 H	2	ASN2	0.105	
35	 2HB	171.077	33.601	-132.206	 H	2	ASN2	0.080	
36	 3HB	169.662	32.847	-131.510	 H	2	ASN2	0.080	
37	1HD2	169.543	36.895	-131.892	 H	2	ASN2	0.420	
38	2HD2	170.748	35.941	-132.908	 H	2	ASN2	0.420	
39	   N	169.558	30.766	-133.483	N.am	3	PRO3	-0.255	
40	  CA	170.042	29.426	-133.779	C.3	3	PRO3	-0.027	
41	   C	169.654	28.984	-135.200	C.2	3	PRO3	0.590	
42	   O	170.489	28.470	-135.944	O.2	3	PRO3	-0.575	
43	  CB	169.359	28.593	-132.684	C.3	3	PRO3	-0.007	
44	  CG	168.057	29.359	-132.405	C.3	3	PRO3	0.019	
45	  CD	168.479	30.826	-132.521	C.3	3	PRO3	0.019	
46	  HA	171.130	29.381	-133.682	 H	3	PRO3	0.064	
47	 2HB	169.982	28.606	-131.787	 H	3	PRO3	0.025	
48	 3HB	169.186	27.557	-132.983	 H	3	PRO3	0.025	
49	 2HG	167.636	29.127	-131.424	 H	3	PRO3	0.021	
50	 3HG	167.324	29.129	-133.181	 H	3	PRO3	0.021	
51	 2HD	168.860	31.200	-131.568	 H	3	PRO3	0.039	
52	 3HD	167.666	31.462	-132.880	 H	3	PRO3	0.039	
53	   N	168.444	29.154	-135.615	N.am	4	GLU4	-0.516	
54	  CA	168.094	28.728	-136.968	C.3	4	GLU4	0.040	
55	   C	168.976	29.401	-137.991	C.2	4	GLU4	0.537	
56	   O	169.517	28.768	-138.910	O.2	4	GLU4	-0.582	
57	  CB	166.597	29.047	-137.247	C.3	4	GLU4	0.056	
58	  CG	166.058	28.602	-138.645	C.3	4	GLU4	0.014	
59	  CD	164.623	28.937	-139.005	C.2	4	GLU4	0.805	
60	 OE1	163.883	29.532	-138.199	O.co2	4	GLU4	-0.819	
61	 OE2	164.241	28.599	-140.144	O.co2	4	GLU4	-0.819	
62	   H	167.750	29.574	-135.014	 H	4	GLU4	0.294	
63	  HA	168.251	27.638	-137.047	 H	4	GLU4	0.111	
64	 2HB	166.418	30.136	-137.132	 H	4	GLU4	-0.017	
65	 3HB	165.961	28.583	-136.468	 H	4	GLU4	-0.017	
66	 2HG	166.166	27.514	-138.786	 H	4	GLU4	-0.043	
67	 3HG	166.635	29.066	-139.462	 H	4	GLU4	-0.043	
68	   N	169.172	30.673	-137.909	N.am	5	SER5	-0.416	
69	  CA	170.026	31.323	-138.899	C.3	5	SER5	-0.025	
70	   C	171.400	30.696	-138.923	C.2	5	SER5	0.597	
71	   O	171.954	30.381	-139.976	O.2	5	SER5	-0.568	
72	  CB	170.100	32.849	-138.647	C.3	5	SER5	0.212	
73	  OG	170.825	33.182	-137.458	O.3	5	SER5	-0.655	
74	   H	168.743	31.211	-137.170	 H	5	SER5	0.272	
75	  HA	169.579	31.154	-139.897	 H	5	SER5	0.084	
76	 2HB	169.089	33.297	-138.601	 H	5	SER5	0.035	
77	 3HB	170.593	33.345	-139.506	 H	5	SER5	0.035	
78	  HG	170.346	32.807	-136.715	 H	5	SER5	0.428	
79	   N	172.011	30.484	-137.807	N.am	6	ILE6	-0.416	
80	  CA	173.339	29.878	-137.831	C.3	6	ILE6	-0.060	
81	   C	173.314	28.547	-138.542	C.2	6	ILE6	0.597	
82	   O	174.156	28.245	-139.401	O.2	6	ILE6	-0.568	
83	  CB	173.944	29.756	-136.373	C.3	6	ILE6	0.130	
84	 CG1	173.931	31.083	-135.549	C.3	6	ILE6	-0.043	
85	 CG2	175.399	29.194	-136.366	C.3	6	ILE6	-0.320	
86	 CD1	174.206	30.939	-134.038	C.3	6	ILE6	-0.066	
87	   H	171.577	30.734	-136.930	 H	6	ILE6	0.272	
88	  HA	173.997	30.539	-138.425	 H	6	ILE6	0.087	
89	  HB	173.304	29.033	-135.824	 H	6	ILE6	0.019	
90	2HG1	172.937	31.561	-135.631	 H	6	ILE6	0.024	
91	3HG1	174.629	31.818	-135.996	 H	6	ILE6	0.024	
92	1HG2	175.482	28.194	-136.827	 H	6	ILE6	0.088	
93	2HG2	176.105	29.860	-136.898	 H	6	ILE6	0.088	
94	3HG2	175.793	29.058	-135.343	 H	6	ILE6	0.088	
95	1HD1	173.495	30.241	-133.556	 H	6	ILE6	0.019	
96	2HD1	175.226	30.572	-133.825	 H	6	ILE6	0.019	
97	3HD1	174.107	31.911	-133.520	 H	6	ILE6	0.019	
98	   N	172.389	27.698	-138.247	N.am	7	LEU7	-0.416	
99	  CA	172.365	26.411	-138.935	C.3	7	LEU7	-0.052	
100	   C	172.286	26.599	-140.431	C.2	7	LEU7	0.597	
101	   O	173.022	25.977	-141.212	O.2	7	LEU7	-0.568	
102	  CB	171.183	25.539	-138.423	C.3	7	LEU7	-0.110	
103	  CG	171.119	25.214	-136.906	C.3	7	LEU7	0.353	
104	 CD1	169.952	24.258	-136.619	C.3	7	LEU7	-0.412	
105	 CD2	172.428	24.607	-136.373	C.3	7	LEU7	-0.412	
106	   H	171.692	27.920	-137.551	 H	7	LEU7	0.272	
107	  HA	173.320	25.891	-138.738	 H	7	LEU7	0.092	
108	 2HB	171.182	24.584	-138.983	 H	7	LEU7	0.046	
109	 3HB	170.231	26.029	-138.709	 H	7	LEU7	0.046	
110	  HG	170.927	26.160	-136.358	 H	7	LEU7	-0.036	
111	1HD1	168.985	24.679	-136.951	 H	7	LEU7	0.100	
112	2HD1	170.075	23.283	-137.127	 H	7	LEU7	0.100	
113	3HD1	169.851	24.052	-135.538	 H	7	LEU7	0.100	
114	1HD2	172.725	23.699	-136.927	 H	7	LEU7	0.100	
115	2HD2	173.264	25.328	-136.450	 H	7	LEU7	0.100	
116	3HD2	172.354	24.339	-135.303	 H	7	LEU7	0.100	
117	   N	171.428	27.434	-140.912	N.am	8	ASP8	-0.516	
118	  CA	171.352	27.616	-142.359	C.3	8	ASP8	0.038	
119	   C	172.688	28.034	-142.923	C.2	8	ASP8	0.537	
120	   O	173.173	27.497	-143.931	O.2	8	ASP8	-0.582	
121	  CB	170.248	28.649	-142.722	C.3	8	ASP8	-0.030	
122	  CG	170.022	28.874	-144.224	C.2	8	ASP8	0.799	
123	 OD1	170.109	27.904	-145.004	O.co2	8	ASP8	-0.801	
124	 OD2	169.802	30.035	-144.627	O.co2	8	ASP8	-0.801	
125	   H	170.818	27.953	-140.297	 H	8	ASP8	0.294	
126	  HA	171.092	26.643	-142.817	 H	8	ASP8	0.088	
127	 2HB	170.482	29.628	-142.265	 H	8	ASP8	-0.012	
128	 3HB	169.277	28.347	-142.298	 H	8	ASP8	-0.012	
129	   N	173.346	28.979	-142.340	N.am	9	GLU9	-0.516	
130	  CA	174.639	29.383	-142.886	C.3	9	GLU9	0.040	
131	   C	175.585	28.209	-142.958	C.2	9	GLU9	0.537	
132	   O	176.255	27.967	-143.973	O.2	9	GLU9	-0.582	
133	  CB	175.245	30.518	-142.012	C.3	9	GLU9	0.056	
134	  CG	176.614	31.092	-142.503	C.3	9	GLU9	0.014	
135	  CD	177.291	32.159	-141.662	C.2	9	GLU9	0.805	
136	 OE1	176.760	32.585	-140.619	O.co2	9	GLU9	-0.819	
137	 OE2	178.400	32.566	-142.066	O.co2	9	GLU9	-0.819	
138	   H	172.972	29.432	-141.518	 H	9	GLU9	0.294	
139	  HA	174.486	29.760	-143.913	 H	9	GLU9	0.111	
140	 2HB	175.368	30.162	-140.969	 H	9	GLU9	-0.017	
141	 3HB	174.528	31.357	-141.932	 H	9	GLU9	-0.017	
142	 2HG	176.531	31.507	-143.520	 H	9	GLU9	-0.043	
143	 3HG	177.380	30.302	-142.565	 H	9	GLU9	-0.043	
144	   N	175.702	27.435	-141.933	N.am	10	HIS10	-0.416	
145	  CA	176.618	26.300	-142.002	C.3	10	HIS10	-0.058	
146	   C	176.272	25.395	-143.160	C.2	10	HIS10	0.597	
147	   O	177.134	24.974	-143.945	O.2	10	HIS10	-0.568	
148	  CB	176.473	25.546	-140.670	C.3	10	HIS10	-0.007	
149	  CG	177.761	25.495	-139.901	C.2	10	HIS10	0.187	
150	 CD2	178.120	26.463	-138.972	C.2	10	HIS10	-0.221	
151	 ND1	178.738	24.508	-140.009	N.2	10	HIS10	-0.543	
152	 CE1	179.634	24.970	-139.118	C.2	10	HIS10	0.163	
153	 NE2	179.344	26.124	-138.457	N.pl3	10	HIS10	-0.280	
154	   H	175.167	27.612	-141.094	 H	10	HIS10	0.272	
155	  HA	177.627	26.697	-142.203	 H	10	HIS10	0.136	
156	 2HB	176.133	24.504	-140.834	 H	10	HIS10	0.037	
157	 3HB	175.707	26.005	-140.011	 H	10	HIS10	0.037	
158	 2HD	177.513	27.328	-138.720	 H	10	HIS10	0.186	
159	 1HE	180.539	24.396	-138.974	 H	10	HIS10	0.144	
160	 2HE	179.899	26.624	-137.748	 H	10	HIS10	0.334	
161	   N	175.042	25.048	-143.337	N.am	11	VAL11	-0.416	
162	  CA	174.707	24.173	-144.456	C.3	11	VAL11	-0.087	
163	   C	175.155	24.774	-145.766	C.2	11	VAL11	0.597	
164	   O	175.772	24.117	-146.614	O.2	11	VAL11	-0.568	
165	  CB	173.152	23.891	-144.470	C.3	11	VAL11	0.299	
166	 CG1	172.601	23.126	-145.705	C.3	11	VAL11	-0.319	
167	 CG2	172.648	23.098	-143.241	C.3	11	VAL11	-0.319	
168	   H	174.321	25.378	-142.710	 H	11	VAL11	0.272	
169	  HA	175.250	23.218	-144.336	 H	11	VAL11	0.097	
170	  HB	172.640	24.877	-144.455	 H	11	VAL11	-0.030	
171	1HG1	173.064	22.129	-145.827	 H	11	VAL11	0.079	
172	2HG1	171.505	22.975	-145.651	 H	11	VAL11	0.079	
173	3HG1	172.764	23.678	-146.650	 H	11	VAL11	0.079	
174	1HG2	172.927	23.590	-142.291	 H	11	VAL11	0.079	
175	2HG2	171.544	23.015	-143.228	 H	11	VAL11	0.079	
176	3HG2	173.055	22.069	-143.208	 H	11	VAL11	0.079	
177	   N	174.888	26.013	-146.009	N.am	12	GLN12	-0.416	
178	  CA	175.321	26.595	-147.276	C.3	12	GLN12	-0.003	
179	   C	176.814	26.458	-147.453	C.2	12	GLN12	0.597	
180	   O	177.310	26.055	-148.503	O.2	12	GLN12	-0.568	
181	  CB	174.893	28.080	-147.310	C.3	12	GLN12	-0.004	
182	  CG	175.233	28.866	-148.619	C.3	12	GLN12	-0.064	
183	  CD	174.894	30.360	-148.702	C.2	12	GLN12	0.695	
184	 NE2	174.313	30.956	-147.692	N.pl3	12	GLN12	-0.941	
185	 OE1	175.179	31.017	-149.691	O.2	12	GLN12	-0.609	
186	   H	174.386	26.571	-145.334	 H	12	GLN12	0.272	
187	  HA	174.834	26.047	-148.104	 H	12	GLN12	0.085	
188	 2HB	175.358	28.600	-146.446	 H	12	GLN12	0.017	
189	 3HB	173.801	28.142	-147.135	 H	12	GLN12	0.017	
190	 2HG	174.767	28.371	-149.491	 H	12	GLN12	0.035	
191	 3HG	176.318	28.819	-148.825	 H	12	GLN12	0.035	
192	1HE2	174.181	31.963	-147.803	 H	12	GLN12	0.425	
193	2HE2	174.165	30.367	-146.870	 H	12	GLN12	0.425	
194	   N	177.592	26.773	-146.473	N.am	13	ARG13	-0.348	
195	  CA	179.036	26.640	-146.646	C.3	13	ARG13	-0.264	
196	   C	179.407	25.226	-147.026	C.2	13	ARG13	0.734	
197	   O	180.181	24.981	-147.949	O.2	13	ARG13	-0.589	
198	  CB	179.740	27.076	-145.330	C.3	13	ARG13	-0.001	
199	  CG	181.281	27.260	-145.425	C.3	13	ARG13	0.039	
200	  CD	181.900	27.656	-144.074	C.3	13	ARG13	0.049	
201	  NE	183.373	27.838	-144.231	N.pl3	13	ARG13	-0.530	
202	  CZ	184.214	28.174	-143.257	C.cat	13	ARG13	0.808	
203	 NH1	183.845	28.383	-142.025	N.pl3	13	ARG13	-0.863	
204	 NH2	185.471	28.303	-143.547	N.pl3	13	ARG13	-0.863	
205	   H	177.209	27.106	-145.601	 H	13	ARG13	0.275	
206	  HA	179.344	27.302	-147.478	 H	13	ARG13	0.156	
207	 2HB	179.493	26.343	-144.534	 H	13	ARG13	0.033	
208	 3HB	179.292	28.026	-144.976	 H	13	ARG13	0.033	
209	 2HG	181.510	28.024	-146.196	 H	13	ARG13	0.029	
210	 3HG	181.755	26.323	-145.783	 H	13	ARG13	0.029	
211	 2HD	181.676	26.868	-143.321	 H	13	ARG13	0.069	
212	 3HD	181.421	28.588	-143.705	 H	13	ARG13	0.069	
213	  HE	183.827	27.709	-145.141	 H	13	ARG13	0.346	
214	1HH1	182.843	28.264	-141.863	 H	13	ARG13	0.448	
215	2HH1	184.553	28.639	-141.335	 H	13	ARG13	0.448	
216	1HH2	185.741	28.134	-144.518	 H	13	ARG13	0.448	
217	2HH2	186.100	28.563	-142.786	 H	13	ARG13	0.448	
218	   N	178.895	24.245	-146.362	N.am	14	VAL14	-0.416	
219	  CA	179.253	22.878	-146.730	C.3	14	VAL14	-0.087	
220	   C	178.928	22.605	-148.179	C.2	14	VAL14	0.597	
221	   O	179.734	22.057	-148.941	O.2	14	VAL14	-0.568	
222	  CB	178.507	21.856	-145.784	C.3	14	VAL14	0.299	
223	 CG1	178.632	20.353	-146.157	C.3	14	VAL14	-0.319	
224	 CG2	178.938	21.945	-144.301	C.3	14	VAL14	-0.319	
225	   H	178.256	24.421	-145.600	 H	14	VAL14	0.272	
226	  HA	180.345	22.753	-146.614	 H	14	VAL14	0.097	
227	  HB	177.424	22.102	-145.825	 H	14	VAL14	-0.030	
228	1HG1	179.682	20.005	-146.167	 H	14	VAL14	0.079	
229	2HG1	178.076	19.699	-145.459	 H	14	VAL14	0.079	
230	3HG1	178.207	20.129	-147.155	 H	14	VAL14	0.079	
231	1HG2	178.826	22.969	-143.900	 H	14	VAL14	0.079	
232	2HG2	178.318	21.295	-143.652	 H	14	VAL14	0.079	
233	3HG2	179.993	21.649	-144.151	 H	14	VAL14	0.079	
234	   N	177.774	22.955	-148.637	N.am	15	MET15	-0.416	
235	  CA	177.458	22.691	-150.038	C.3	15	MET15	-0.024	
236	   C	178.472	23.335	-150.952	C.2	15	MET15	0.597	
237	   O	178.989	22.719	-151.897	O.2	15	MET15	-0.568	
238	  CB	176.024	23.194	-150.359	C.3	15	MET15	0.034	
239	  CG	174.879	22.507	-149.584	C.3	15	MET15	0.002	
240	  SD	173.292	22.995	-150.279	S.3	15	MET15	-0.274	
241	  CE	172.227	22.382	-148.967	C.3	15	MET15	-0.054	
242	   H	177.098	23.404	-148.036	 H	15	MET15	0.272	
243	  HA	177.511	21.600	-150.212	 H	15	MET15	0.088	
244	 2HB	175.824	23.064	-151.440	 H	15	MET15	0.024	
245	 3HB	175.962	24.288	-150.189	 H	15	MET15	0.024	
246	 2HG	174.916	22.797	-148.517	 H	15	MET15	0.044	
247	 3HG	174.969	21.405	-149.618	 H	15	MET15	0.044	
248	 1HE	172.397	21.305	-148.789	 H	15	MET15	0.068	
249	 2HE	172.424	22.926	-148.026	 H	15	MET15	0.068	
250	 3HE	171.165	22.526	-149.232	 H	15	MET15	0.068	
251	   N	178.811	24.563	-150.746	N.am	16	ARG16	-0.348	
252	  CA	179.792	25.184	-151.631	C.3	16	ARG16	-0.264	
253	   C	181.082	24.399	-151.644	C.2	16	ARG16	0.734	
254	   O	181.222	23.365	-150.995	O.2	16	ARG16	-0.589	
255	  CB	180.026	26.651	-151.168	C.3	16	ARG16	-0.001	
256	  CG	180.828	27.544	-152.156	C.3	16	ARG16	0.039	
257	  CD	181.044	28.964	-151.606	C.3	16	ARG16	0.049	
258	  NE	181.799	29.778	-152.603	N.pl3	16	ARG16	-0.530	
259	  CZ	182.160	31.048	-152.443	C.cat	16	ARG16	0.808	
260	 NH1	181.896	31.744	-151.373	N.pl3	16	ARG16	-0.863	
261	 NH2	182.809	31.629	-153.402	N.pl3	16	ARG16	-0.863	
262	   H	178.404	25.085	-149.983	 H	16	ARG16	0.275	
263	  HA	179.382	25.171	-152.658	 H	16	ARG16	0.156	
264	 2HB	180.524	26.636	-150.177	 H	16	ARG16	0.033	
265	 3HB	179.045	27.131	-150.974	 H	16	ARG16	0.033	
266	 2HG	180.296	27.580	-153.128	 H	16	ARG16	0.029	
267	 3HG	181.813	27.082	-152.372	 H	16	ARG16	0.029	
268	 2HD	181.595	28.905	-150.642	 H	16	ARG16	0.069	
269	 3HD	180.060	29.426	-151.378	 H	16	ARG16	0.069	
270	  HE	182.087	29.378	-153.502	 H	16	ARG16	0.346	
271	1HH1	181.384	31.227	-150.654	 H	16	ARG16	0.448	
272	2HH1	182.207	32.716	-151.327	 H	16	ARG16	0.448	
273	1HH2	183.007	31.068	-154.233	 H	16	ARG16	0.448	
274	2HH2	183.075	32.605	-153.261	 H	16	ARG16	0.448	
@<TRIPOS>BOND
1 1 2 1
2 1 12 1
3 2 3 1
4 2 5 1
5 2 13 1
6 3 4 2
7 3 25 1
8 5 6 1
9 6 7 1
10 7 8 1
11 8 9 1
12 9 10 2
13 9 11 1
14 5 14 1
15 5 15 1
16 6 16 1
17 6 17 1
18 7 18 1
19 7 19 1
20 8 20 1
21 10 21 1
22 10 22 1
23 11 23 1
24 11 24 1
25 25 26 1
26 25 33 1
27 26 27 1
28 26 29 1
29 26 34 1
30 27 28 2
31 27 39 1
32 29 30 1
33 30 31 1
34 30 32 2
35 29 35 1
36 29 36 1
37 31 37 1
38 31 38 1
39 39 40 1
40 39 45 1
41 40 41 1
42 40 43 1
43 40 46 1
44 41 42 2
45 41 53 1
46 43 44 1
47 44 45 1
48 43 47 1
49 43 48 1
50 44 49 1
51 44 50 1
52 45 51 1
53 45 52 1
54 53 54 1
55 53 62 1
56 54 55 1
57 54 57 1
58 54 63 1
59 55 56 2
60 55 68 1
61 57 58 1
62 58 59 1
63 59 60 2
64 59 61 1
65 57 64 1
66 57 65 1
67 58 66 1
68 58 67 1
69 68 69 1
70 68 74 1
71 69 70 1
72 69 72 1
73 69 75 1
74 70 71 2
75 70 79 1
76 72 73 1
77 72 76 1
78 72 77 1
79 73 78 1
80 79 80 1
81 79 87 1
82 80 81 1
83 80 83 1
84 80 88 1
85 81 82 2
86 81 98 1
87 83 84 1
88 83 85 1
89 84 86 1
90 83 89 1
91 84 90 1
92 84 91 1
93 85 92 1
94 85 93 1
95 85 94 1
96 86 95 1
97 86 96 1
98 86 97 1
99 98 99 1
100 98 106 1
101 99 100 1
102 99 102 1
103 99 107 1
104 100 101 2
105 100 117 1
106 102 103 1
107 103 104 1
108 103 105 1
109 102 108 1
110 102 109 1
111 103 110 1
112 104 111 1
113 104 112 1
114 104 113 1
115 105 114 1
116 105 115 1
117 105 116 1
118 117 118 1
119 117 125 1
120 118 119 1
121 118 121 1
122 118 126 1
123 119 120 2
124 119 129 1
125 121 122 1
126 122 123 2
127 122 124 1
128 121 127 1
129 121 128 1
130 129 130 1
131 129 138 1
132 130 131 1
133 130 133 1
134 130 139 1
135 131 132 2
136 131 144 1
137 133 134 1
138 134 135 1
139 135 136 2
140 135 137 1
141 133 140 1
142 133 141 1
143 134 142 1
144 134 143 1
145 144 145 1
146 144 154 1
147 145 146 1
148 145 148 1
149 145 155 1
150 146 147 2
151 146 161 1
152 148 149 1
153 149 150 2
154 150 153 1
155 149 151 1
156 151 152 2
157 152 153 1
158 148 156 1
159 148 157 1
160 150 158 1
161 152 159 1
162 153 160 1
163 161 162 1
164 161 168 1
165 162 163 1
166 162 165 1
167 162 169 1
168 163 164 2
169 163 177 1
170 165 166 1
171 165 167 1
172 165 170 1
173 166 171 1
174 166 172 1
175 166 173 1
176 167 174 1
177 167 175 1
178 167 176 1
179 177 178 1
180 177 186 1
181 178 179 1
182 178 181 1
183 178 187 1
184 179 180 2
185 179 194 1
186 181 182 1
187 182 183 1
188 183 184 1
189 183 185 2
190 181 188 1
191 181 189 1
192 182 190 1
193 182 191 1
194 184 192 1
195 184 193 1
196 194 195 1
197 194 205 1
198 195 196 1
199 195 198 1
200 195 206 1
201 196 197 2
202 196 218 1
203 198 199 1
204 199 200 1
205 200 201 1
206 201 202 1
207 202 203 2
208 202 204 1
209 198 207 1
210 198 208 1
211 199 209 1
212 199 210 1
213 200 211 1
214 200 212 1
215 201 213 1
216 203 214 1
217 203 215 1
218 204 216 1
219 204 217 1
220 218 219 1
221 218 225 1
222 219 220 1
223 219 222 1
224 219 226 1
225 220 221 2
226 220 234 1
227 222 223 1
228 222 224 1
229 222 227 1
230 223 228 1
231 223 229 1
232 223 230 1
233 224 231 1
234 224 232 1
235 224 233 1
236 234 235 1
237 234 242 1
238 235 236 1
239 235 238 1
240 235 243 1
241 236 237 2
242 236 251 1
243 238 239 1
244 239 240 1
245 240 241 1
246 238 244 1
247 238 245 1
248 239 246 1
249 239 247 1
250 241 248 1
251 241 249 1
252 241 250 1
253 251 252 1
254 251 262 1
255 252 253 1
256 252 255 1
257 252 263 1
258 253 254 2
259 255 256 1
260 256 257 1
261 257 258 1
262 258 259 1
263 259 260 2
264 259 261 1
265 255 264 1
266 255 265 1
267 256 266 1
268 256 267 1
269 257 268 1
270 257 269 1
271 258 270 1
272 260 271 1
273 260 272 1
274 261 273 1
275 261 274 1
@<TRIPOS>SUBSTRUCTURE
1	ARG1	1	RESIDUE	1 ****	ARG
2	ASN2	25	RESIDUE	1 ****	ASN
3	PRO3	39	RESIDUE	1 ****	PRO
4	GLU4	53	RESIDUE	1 ****	GLU
5	SER5	68	RESIDUE	1 ****	SER
6	ILE6	79	RESIDUE	1 ****	ILE
7	LEU7	98	RESIDUE	1 ****	LEU
8	ASP8	117	RESIDUE	1 ****	ASP
9	GLU9	129	RESIDUE	1 ****	GLU
10	HIS10	144	RESIDUE	1 ****	HIS
11	VAL11	161	RESIDUE	1 ****	VAL
12	GLN12	177	RESIDUE	1 ****	GLN
13	ARG13	194	RESIDUE	1 ****	ARG
14	VAL14	218	RESIDUE	1 ****	VAL
15	MET15	234	RESIDUE	1 ****	MET
16	ARG16	251	RESIDUE	1 ****	ARG
