@<TRIPOS>MOLECULE
13-12
252 253 16              
SMALL
USER_CHARGES
@<TRIPOS>ATOM
1	   N	2096.829	637.157	-2168.986	N.3	1	GLU1	-0.516	
2	  CA	2097.388	638.506	-2168.986	C.3	1	GLU1	0.040	
3	   C	2098.897	638.466	-2168.986	C.2	1	GLU1	0.537	
4	   O	2099.573	639.165	-2169.755	O.2	1	GLU1	-0.582	
5	  CB	2096.865	639.291	-2167.749	C.3	1	GLU1	0.056	
6	  CG	2097.340	640.776	-2167.638	C.3	1	GLU1	0.014	
7	  CD	2096.916	641.580	-2166.423	C.2	1	GLU1	0.805	
8	 OE1	2096.188	641.078	-2165.545	O.co2	1	GLU1	-0.819	
9	 OE2	2097.346	642.750	-2166.351	O.co2	1	GLU1	-0.819	
10	   H	2097.456	636.278	-2168.986	 H	1	GLU1	0.294	
11	  HA	2097.062	639.024	-2169.906	 H	1	GLU1	0.111	
12	 2HB	2097.154	638.760	-2166.819	 H	1	GLU1	-0.017	
13	 3HB	2095.758	639.281	-2167.736	 H	1	GLU1	-0.017	
14	 2HG	2097.030	641.361	-2168.519	 H	1	GLU1	-0.043	
15	 3HG	2098.440	640.843	-2167.609	 H	1	GLU1	-0.043	
16	   N	2099.502	637.680	-2168.161	N.am	2	ASN2	-0.416	
17	  CA	2100.961	637.641	-2168.161	C.3	2	ASN2	0.014	
18	   C	2101.493	637.285	-2169.529	C.2	2	ASN2	0.597	
19	   O	2102.408	637.915	-2170.057	O.2	2	ASN2	-0.568	
20	  CB	2101.453	636.618	-2167.096	C.3	2	ASN2	-0.204	
21	  CG	2100.990	636.842	-2165.653	C.2	2	ASN2	0.713	
22	 ND2	2101.583	637.756	-2164.935	N.pl3	2	ASN2	-0.919	
23	 OD1	2100.068	636.208	-2165.159	O.2	2	ASN2	-0.593	
24	   H	2098.974	637.100	-2167.524	 H	2	ASN2	0.272	
25	  HA	2101.339	638.650	-2167.915	 H	2	ASN2	0.105	
26	 2HB	2102.557	636.559	-2167.099	 H	2	ASN2	0.080	
27	 3HB	2101.124	635.599	-2167.382	 H	2	ASN2	0.080	
28	1HD2	2101.103	637.930	-2164.048	 H	2	ASN2	0.420	
29	2HD2	2102.285	638.328	-2165.404	 H	2	ASN2	0.420	
30	   N	2100.971	636.290	-2170.164	N.am	3	PRO3	-0.255	
31	  CA	2101.423	635.881	-2171.485	C.3	3	PRO3	-0.027	
32	   C	2101.026	636.905	-2172.562	C.2	3	PRO3	0.590	
33	   O	2101.849	637.288	-2173.393	O.2	3	PRO3	-0.575	
34	  CB	2100.719	634.526	-2171.655	C.3	3	PRO3	-0.007	
35	  CG	2099.435	634.679	-2170.825	C.3	3	PRO3	0.019	
36	  CD	2099.893	635.497	-2169.615	C.3	3	PRO3	0.019	
37	  HA	2102.509	635.761	-2171.498	 H	3	PRO3	0.064	
38	 2HB	2101.342	633.745	-2171.214	 H	3	PRO3	0.025	
39	 3HB	2100.521	634.278	-2172.700	 H	3	PRO3	0.025	
40	 2HG	2099.008	633.717	-2170.534	 H	3	PRO3	0.021	
41	 3HG	2098.698	635.250	-2171.392	 H	3	PRO3	0.021	
42	 2HD	2100.282	634.848	-2168.827	 H	3	PRO3	0.039	
43	 3HD	2099.096	636.133	-2169.222	 H	3	PRO3	0.039	
44	   N	2099.821	637.365	-2172.595	N.am	4	GLU4	-0.516	
45	  CA	2099.462	638.336	-2173.625	C.3	4	GLU4	0.040	
46	   C	2100.361	639.547	-2173.563	C.2	4	GLU4	0.537	
47	   O	2100.888	640.026	-2174.577	O.2	4	GLU4	-0.582	
48	  CB	2097.973	638.755	-2173.455	C.3	4	GLU4	0.056	
49	  CG	2097.426	639.759	-2174.521	C.3	4	GLU4	0.014	
50	  CD	2095.999	640.256	-2174.377	C.2	4	GLU4	0.805	
51	 OE1	2095.272	639.857	-2173.447	O.co2	4	GLU4	-0.819	
52	 OE2	2095.610	641.085	-2175.226	O.co2	4	GLU4	-0.819	
53	   H	2099.136	637.058	-2171.918	 H	4	GLU4	0.294	
54	  HA	2099.593	637.865	-2174.616	 H	4	GLU4	0.111	
55	 2HB	2097.820	639.195	-2172.448	 H	4	GLU4	-0.017	
56	 3HB	2097.325	637.857	-2173.461	 H	4	GLU4	-0.017	
57	 2HG	2097.508	639.344	-2175.539	 H	4	GLU4	-0.043	
58	 3HG	2098.014	640.691	-2174.531	 H	4	GLU4	-0.043	
59	   N	2100.588	640.099	-2172.420	N.am	5	SER5	-0.416	
60	  CA	2101.458	641.270	-2172.361	C.3	5	SER5	-0.025	
61	   C	2102.817	640.964	-2172.946	C.2	5	SER5	0.597	
62	   O	2103.365	641.718	-2173.751	O.2	5	SER5	-0.568	
63	  CB	2101.569	641.802	-2170.910	C.3	5	SER5	0.212	
64	  OG	2102.300	640.923	-2170.049	O.3	5	SER5	-0.655	
65	   H	2100.170	639.728	-2171.578	 H	5	SER5	0.272	
66	  HA	2101.009	642.061	-2172.990	 H	5	SER5	0.084	
67	 2HB	2100.569	641.996	-2170.477	 H	5	SER5	0.035	
68	 3HB	2102.074	642.788	-2170.912	 H	5	SER5	0.035	
69	  HG	2101.811	640.098	-2169.999	 H	5	SER5	0.428	
70	   N	2103.421	639.881	-2172.592	N.am	6	ILE6	-0.416	
71	  CA	2104.734	639.585	-2173.158	C.3	6	ILE6	-0.060	
72	   C	2104.677	639.548	-2174.666	C.2	6	ILE6	0.597	
73	   O	2105.512	640.135	-2175.369	O.2	6	ILE6	-0.568	
74	  CB	2105.333	638.249	-2172.557	C.3	6	ILE6	0.130	
75	 CG1	2105.352	638.187	-2170.997	C.3	6	ILE6	-0.043	
76	 CG2	2106.774	637.947	-2173.073	C.3	6	ILE6	-0.320	
77	 CD1	2105.622	636.797	-2170.381	C.3	6	ILE6	-0.066	
78	   H	2102.992	639.247	-2171.933	 H	6	ILE6	0.272	
79	  HA	2105.408	640.419	-2172.890	 H	6	ILE6	0.087	
80	  HB	2104.675	637.423	-2172.902	 H	6	ILE6	0.019	
81	2HG1	2104.370	638.507	-2170.601	 H	6	ILE6	0.024	
82	3HG1	2106.068	638.929	-2170.592	 H	6	ILE6	0.024	
83	1HG2	2106.833	637.853	-2174.171	 H	6	ILE6	0.088	
84	2HG2	2107.497	638.729	-2172.770	 H	6	ILE6	0.088	
85	3HG2	2107.164	636.985	-2172.694	 H	6	ILE6	0.088	
86	1HD1	2104.893	636.044	-2170.736	 H	6	ILE6	0.019	
87	2HD1	2106.632	636.419	-2170.617	 H	6	ILE6	0.019	
88	3HD1	2105.545	636.828	-2169.279	 H	6	ILE6	0.019	
89	   N	2103.731	638.885	-2175.239	N.am	7	LEU7	-0.416	
90	  CA	2103.676	638.848	-2176.698	C.3	7	LEU7	-0.052	
91	   C	2103.604	640.244	-2177.271	C.2	7	LEU7	0.597	
92	   O	2104.325	640.605	-2178.213	O.2	7	LEU7	-0.568	
93	  CB	2102.473	637.989	-2177.178	C.3	7	LEU7	-0.110	
94	  CG	2102.399	636.509	-2176.711	C.3	7	LEU7	0.353	
95	 CD1	2101.209	635.804	-2177.377	C.3	7	LEU7	-0.412	
96	 CD2	2103.693	635.730	-2177.003	C.3	7	LEU7	-0.412	
97	   H	2103.039	638.398	-2174.688	 H	7	LEU7	0.272	
98	  HA	2104.618	638.408	-2177.072	 H	7	LEU7	0.092	
99	 2HB	2102.449	638.004	-2178.286	 H	7	LEU7	0.046	
100	 3HB	2101.533	638.491	-2176.874	 H	7	LEU7	0.046	
101	  HG	2102.229	636.501	-2175.614	 H	7	LEU7	-0.036	
102	1HD1	2100.252	636.313	-2177.154	 H	7	LEU7	0.100	
103	2HD1	2101.309	635.763	-2178.478	 H	7	LEU7	0.100	
104	3HD1	2101.102	634.763	-2177.021	 H	7	LEU7	0.100	
105	1HD2	2103.968	635.760	-2178.073	 H	7	LEU7	0.100	
106	2HD2	2104.546	636.141	-2176.431	 H	7	LEU7	0.100	
107	3HD2	2103.611	634.667	-2176.707	 H	7	LEU7	0.100	
108	   N	2102.767	641.085	-2176.765	N.am	8	ASP8	-0.516	
109	  CA	2102.697	642.434	-2177.319	C.3	8	ASP8	0.038	
110	   C	2104.044	643.113	-2177.262	C.2	8	ASP8	0.537	
111	   O	2104.517	643.717	-2178.237	O.2	8	ASP8	-0.582	
112	  CB	2101.620	643.274	-2176.578	C.3	8	ASP8	-0.030	
113	  CG	2101.402	644.695	-2177.119	C.2	8	ASP8	0.799	
114	 OD1	2101.466	644.893	-2178.350	O.co2	8	ASP8	-0.801	
115	 OD2	2101.210	645.621	-2176.304	O.co2	8	ASP8	-0.801	
116	   H	2102.169	640.815	-2175.997	 H	8	ASP8	0.294	
117	  HA	2102.414	642.356	-2178.386	 H	8	ASP8	0.088	
118	 2HB	2101.877	643.358	-2175.506	 H	8	ASP8	-0.012	
119	 3HB	2100.640	642.769	-2176.610	 H	8	ASP8	-0.012	
120	   N	2104.724	643.064	-2176.167	N.am	9	GLU9	-0.516	
121	  CA	2106.028	643.721	-2176.112	C.3	9	GLU9	0.040	
122	   C	2106.945	643.192	-2177.188	C.2	9	GLU9	0.537	
123	   O	2107.609	643.946	-2177.914	O.2	9	GLU9	-0.582	
124	  CB	2106.661	643.513	-2174.707	C.3	9	GLU9	0.056	
125	  CG	2108.044	644.205	-2174.478	C.3	9	GLU9	0.014	
126	  CD	2108.746	643.992	-2173.150	C.2	9	GLU9	0.805	
127	 OE1	2108.224	643.302	-2172.253	O.co2	9	GLU9	-0.819	
128	 OE2	2109.865	644.530	-2173.019	O.co2	9	GLU9	-0.819	
129	   H	2104.361	642.578	-2175.359	 H	9	GLU9	0.294	
130	  HA	2105.886	644.803	-2176.288	 H	9	GLU9	0.111	
131	 2HB	2106.773	642.429	-2174.503	 H	9	GLU9	-0.017	
132	 3HB	2105.964	643.867	-2173.922	 H	9	GLU9	-0.017	
133	 2HG	2107.972	645.296	-2174.618	 H	9	GLU9	-0.043	
134	 3HG	2108.791	643.859	-2175.212	 H	9	GLU9	-0.043	
135	   N	2107.041	641.917	-2177.357	N.am	10	HIS10	-0.416	
136	  CA	2107.928	641.404	-2178.397	C.3	10	HIS10	-0.058	
137	   C	2107.561	641.969	-2179.749	C.2	10	HIS10	0.597	
138	   O	2108.414	642.433	-2180.521	O.2	10	HIS10	-0.568	
139	  CB	2107.764	639.876	-2178.392	C.3	10	HIS10	-0.007	
140	  CG	2109.049	639.165	-2178.083	C.2	10	HIS10	0.187	
141	 CD2	2109.430	638.830	-2176.791	C.2	10	HIS10	-0.221	
142	 ND1	2110.000	638.758	-2179.016	N.2	10	HIS10	-0.543	
143	 CE1	2110.907	638.200	-2178.193	C.2	10	HIS10	0.163	
144	 NE2	2110.645	638.198	-2176.858	N.pl3	10	HIS10	-0.280	
145	   H	2106.510	641.282	-2176.778	 H	10	HIS10	0.272	
146	  HA	2108.948	641.762	-2178.173	 H	10	HIS10	0.136	
147	 2HB	2107.398	639.508	-2179.371	 H	10	HIS10	0.037	
148	 3HB	2107.008	639.539	-2177.651	 H	10	HIS10	0.037	
149	 2HD	2108.845	639.046	-2175.902	 H	10	HIS10	0.186	
150	 1HE	2111.798	637.778	-2178.640	 H	10	HIS10	0.144	
151	 2HE	2111.212	637.821	-2176.084	 H	10	HIS10	0.334	
152	   N	2106.323	641.968	-2180.111	N.am	11	VAL11	-0.416	
153	  CA	2105.968	642.514	-2181.418	C.3	11	VAL11	-0.087	
154	   C	2106.434	643.944	-2181.552	C.2	11	VAL11	0.597	
155	   O	2107.035	644.348	-2182.555	O.2	11	VAL11	-0.568	
156	  CB	2104.407	642.408	-2181.637	C.3	11	VAL11	0.299	
157	 CG1	2103.839	643.111	-2182.900	C.3	11	VAL11	-0.319	
158	 CG2	2103.882	640.954	-2181.709	C.3	11	VAL11	-0.319	
159	   H	2105.610	641.596	-2179.500	 H	11	VAL11	0.272	
160	  HA	2106.488	641.930	-2182.201	 H	11	VAL11	0.097	
161	  HB	2103.920	642.889	-2180.762	 H	11	VAL11	-0.030	
162	1HG1	2104.277	642.719	-2183.837	 H	11	VAL11	0.079	
163	2HG1	2102.740	643.004	-2182.982	 H	11	VAL11	0.079	
164	3HG1	2104.017	644.203	-2182.892	 H	11	VAL11	0.079	
165	1HG2	2104.171	640.367	-2180.819	 H	11	VAL11	0.079	
166	2HG2	2102.776	640.917	-2181.752	 H	11	VAL11	0.079	
167	3HG2	2104.263	640.412	-2182.596	 H	11	VAL11	0.079	
168	   N	2106.197	644.770	-2180.590	N.am	12	GLN12	-0.416	
169	  CA	2106.646	646.153	-2180.718	C.3	12	GLN12	-0.003	
170	   C	2108.136	646.219	-2180.956	C.2	12	GLN12	0.597	
171	   O	2108.624	646.927	-2181.835	O.2	12	GLN12	-0.568	
172	  CB	2106.256	646.921	-2179.435	C.3	12	GLN12	-0.004	
173	  CG	2106.617	648.443	-2179.405	C.3	12	GLN12	-0.064	
174	  CD	2106.316	649.257	-2178.141	C.2	12	GLN12	0.695	
175	 NE2	2105.749	648.682	-2177.111	N.pl3	12	GLN12	-0.941	
176	 OE1	2106.618	650.438	-2178.064	O.2	12	GLN12	-0.609	
177	   H	2105.708	644.465	-2179.760	 H	12	GLN12	0.272	
178	  HA	2106.147	646.609	-2181.593	 H	12	GLN12	0.085	
179	 2HB	2106.732	646.421	-2178.566	 H	12	GLN12	0.017	
180	 3HB	2105.166	646.815	-2179.272	 H	12	GLN12	0.017	
181	 2HG	2106.140	648.964	-2180.256	 H	12	GLN12	0.035	
182	 3HG	2107.701	648.584	-2179.571	 H	12	GLN12	0.035	
183	1HE2	2105.642	649.276	-2176.288	 H	12	GLN12	0.425	
184	2HE2	2105.584	647.678	-2177.214	 H	12	GLN12	0.425	
185	   N	2108.921	645.512	-2180.215	N.am	13	CYS13	-0.416	
186	  CA	2110.361	645.576	-2180.445	C.3	13	CYS13	0.021	
187	   C	2110.699	645.204	-2181.870	C.2	13	CYS13	0.597	
188	   O	2111.475	645.880	-2182.559	O.2	13	CYS13	-0.568	
189	  CB	2111.062	644.668	-2179.417	C.3	13	CYS13	-0.123	
190	  SG	2112.858	644.841	-2179.529	S.3	13	CYS13	-0.312	
191	   H	2108.544	644.923	-2179.486	 H	13	CYS13	0.272	
192	  HA	2110.691	646.620	-2180.292	 H	13	CYS13	0.112	
193	 2HB	2110.787	643.603	-2179.561	 H	13	CYS13	0.111	
194	 3HB	2110.761	644.924	-2178.385	 H	13	CYS13	0.111	
195	  HG	2113.092	643.682	-2180.140	 H	13	CYS13	0.193	
196	   N	2110.162	644.150	-2182.384	N.am	14	VAL14	-0.416	
197	  CA	2110.488	643.790	-2183.761	C.3	14	VAL14	-0.087	
198	   C	2110.161	644.919	-2184.708	C.2	14	VAL14	0.597	
199	   O	2110.956	645.300	-2185.577	O.2	14	VAL14	-0.568	
200	  CB	2109.715	642.473	-2184.169	C.3	14	VAL14	0.299	
201	 CG1	2109.806	642.054	-2185.662	C.3	14	VAL14	-0.319	
202	 CG2	2110.145	641.220	-2183.368	C.3	14	VAL14	-0.319	
203	   H	2109.526	643.582	-2181.843	 H	14	VAL14	0.272	
204	  HA	2111.576	643.612	-2183.835	 H	14	VAL14	0.097	
205	  HB	2108.639	642.645	-2183.954	 H	14	VAL14	-0.030	
206	1HG1	2110.847	641.876	-2185.990	 H	14	VAL14	0.079	
207	2HG1	2109.232	641.132	-2185.875	 H	14	VAL14	0.079	
208	3HG1	2109.378	642.816	-2186.341	 H	14	VAL14	0.079	
209	1HG2	2110.057	641.379	-2182.277	 H	14	VAL14	0.079	
210	2HG2	2109.509	640.345	-2183.600	 H	14	VAL14	0.079	
211	3HG2	2111.193	640.930	-2183.572	 H	14	VAL14	0.079	
212	   N	2109.016	645.507	-2184.608	N.am	15	MET15	-0.416	
213	  CA	2108.698	646.599	-2185.522	C.3	15	MET15	-0.024	
214	   C	2109.730	647.698	-2185.434	C.2	15	MET15	0.597	
215	   O	2110.234	648.208	-2186.446	O.2	15	MET15	-0.568	
216	  CB	2107.277	647.147	-2185.216	C.3	15	MET15	0.034	
217	  CG	2106.115	646.150	-2185.408	C.3	15	MET15	0.002	
218	  SD	2104.541	647.017	-2185.297	S.3	15	MET15	-0.274	
219	  CE	2103.458	645.589	-2185.161	C.3	15	MET15	-0.054	
220	   H	2108.350	645.215	-2183.907	 H	15	MET15	0.272	
221	  HA	2108.725	646.212	-2186.558	 H	15	MET15	0.088	
222	 2HB	2107.077	648.025	-2185.858	 H	15	MET15	0.024	
223	 3HB	2107.241	647.539	-2184.179	 H	15	MET15	0.024	
224	 2HG	2106.155	645.364	-2184.630	 H	15	MET15	0.044	
225	 3HG	2106.178	645.634	-2186.384	 H	15	MET15	0.044	
226	 1HE	2103.603	644.900	-2186.012	 H	15	MET15	0.068	
227	 2HE	2103.666	645.036	-2184.228	 H	15	MET15	0.068	
228	 3HE	2102.401	645.905	-2185.146	 H	15	MET15	0.068	
229	   N	2110.097	648.119	-2184.271	N.am	16	ARG16	-0.348	
230	  CA	2111.095	649.182	-2184.187	C.3	16	ARG16	-0.264	
231	   C	2112.366	648.787	-2184.902	C.2	16	ARG16	0.734	
232	   O	2112.480	647.711	-2185.482	O.2	16	ARG16	-0.589	
233	  CB	2111.363	649.500	-2182.688	C.3	16	ARG16	-0.001	
234	  CG	2112.189	650.788	-2182.415	C.3	16	ARG16	0.039	
235	  CD	2112.437	651.008	-2180.914	C.3	16	ARG16	0.049	
236	  NE	2113.214	652.266	-2180.712	N.pl3	16	ARG16	-0.530	
237	  CZ	2113.604	652.749	-2179.536	C.cat	16	ARG16	0.808	
238	 NH1	2113.355	652.165	-2178.398	N.pl3	16	ARG16	-0.863	
239	 NH2	2114.269	653.861	-2179.518	N.pl3	16	ARG16	-0.863	
240	   H	2109.701	647.720	-2183.433	 H	16	ARG16	0.275	
241	  HA	2110.688	650.075	-2184.698	 H	16	ARG16	0.156	
242	 2HB	2111.858	648.624	-2182.221	 H	16	ARG16	0.033	
243	 3HB	2110.393	649.582	-2182.156	 H	16	ARG16	0.033	
244	 2HG	2111.660	651.660	-2182.854	 H	16	ARG16	0.029	
245	 3HG	2113.163	650.734	-2182.943	 H	16	ARG16	0.029	
246	 2HD	2112.984	650.133	-2180.500	 H	16	ARG16	0.069	
247	 3HD	2111.463	651.052	-2180.380	 H	16	ARG16	0.069	
248	  HE	2113.494	652.846	-2181.510	 H	16	ARG16	0.346	
249	1HH1	2112.828	651.293	-2178.483	 H	16	ARG16	0.448	
250	2HH1	2113.688	652.601	-2177.536	 H	16	ARG16	0.448	
251	1HH2	2114.457	654.303	-2180.419	 H	16	ARG16	0.448	
252	2HH2	2114.559	654.216	-2178.605	 H	16	ARG16	0.448	
@<TRIPOS>BOND
1 1 2 1
2 1 10 1
3 2 3 1
4 2 5 1
5 2 11 1
6 3 4 2
7 3 16 1
8 5 6 1
9 6 7 1
10 7 8 2
11 7 9 1
12 5 12 1
13 5 13 1
14 6 14 1
15 6 15 1
16 16 17 1
17 16 24 1
18 17 18 1
19 17 20 1
20 17 25 1
21 18 19 2
22 18 30 1
23 20 21 1
24 21 22 1
25 21 23 2
26 20 26 1
27 20 27 1
28 22 28 1
29 22 29 1
30 30 31 1
31 30 36 1
32 31 32 1
33 31 34 1
34 31 37 1
35 32 33 2
36 32 44 1
37 34 35 1
38 35 36 1
39 34 38 1
40 34 39 1
41 35 40 1
42 35 41 1
43 36 42 1
44 36 43 1
45 44 45 1
46 44 53 1
47 45 46 1
48 45 48 1
49 45 54 1
50 46 47 2
51 46 59 1
52 48 49 1
53 49 50 1
54 50 51 2
55 50 52 1
56 48 55 1
57 48 56 1
58 49 57 1
59 49 58 1
60 59 60 1
61 59 65 1
62 60 61 1
63 60 63 1
64 60 66 1
65 61 62 2
66 61 70 1
67 63 64 1
68 63 67 1
69 63 68 1
70 64 69 1
71 70 71 1
72 70 78 1
73 71 72 1
74 71 74 1
75 71 79 1
76 72 73 2
77 72 89 1
78 74 75 1
79 74 76 1
80 75 77 1
81 74 80 1
82 75 81 1
83 75 82 1
84 76 83 1
85 76 84 1
86 76 85 1
87 77 86 1
88 77 87 1
89 77 88 1
90 89 90 1
91 89 97 1
92 90 91 1
93 90 93 1
94 90 98 1
95 91 92 2
96 91 108 1
97 93 94 1
98 94 95 1
99 94 96 1
100 93 99 1
101 93 100 1
102 94 101 1
103 95 102 1
104 95 103 1
105 95 104 1
106 96 105 1
107 96 106 1
108 96 107 1
109 108 109 1
110 108 116 1
111 109 110 1
112 109 112 1
113 109 117 1
114 110 111 2
115 110 120 1
116 112 113 1
117 113 114 2
118 113 115 1
119 112 118 1
120 112 119 1
121 120 121 1
122 120 129 1
123 121 122 1
124 121 124 1
125 121 130 1
126 122 123 2
127 122 135 1
128 124 125 1
129 125 126 1
130 126 127 2
131 126 128 1
132 124 131 1
133 124 132 1
134 125 133 1
135 125 134 1
136 135 136 1
137 135 145 1
138 136 137 1
139 136 139 1
140 136 146 1
141 137 138 2
142 137 152 1
143 139 140 1
144 140 141 2
145 141 144 1
146 140 142 1
147 142 143 2
148 143 144 1
149 139 147 1
150 139 148 1
151 141 149 1
152 143 150 1
153 144 151 1
154 152 153 1
155 152 159 1
156 153 154 1
157 153 156 1
158 153 160 1
159 154 155 2
160 154 168 1
161 156 157 1
162 156 158 1
163 156 161 1
164 157 162 1
165 157 163 1
166 157 164 1
167 158 165 1
168 158 166 1
169 158 167 1
170 168 169 1
171 168 177 1
172 169 170 1
173 169 172 1
174 169 178 1
175 170 171 2
176 170 185 1
177 172 173 1
178 173 174 1
179 174 175 1
180 174 176 2
181 172 179 1
182 172 180 1
183 173 181 1
184 173 182 1
185 175 183 1
186 175 184 1
187 185 186 1
188 185 191 1
189 186 187 1
190 186 189 1
191 186 192 1
192 187 188 2
193 187 196 1
194 189 190 1
195 189 193 1
196 189 194 1
197 190 195 1
198 196 197 1
199 196 203 1
200 197 198 1
201 197 200 1
202 197 204 1
203 198 199 2
204 198 212 1
205 200 201 1
206 200 202 1
207 200 205 1
208 201 206 1
209 201 207 1
210 201 208 1
211 202 209 1
212 202 210 1
213 202 211 1
214 212 213 1
215 212 220 1
216 213 214 1
217 213 216 1
218 213 221 1
219 214 215 2
220 214 229 1
221 216 217 1
222 217 218 1
223 218 219 1
224 216 222 1
225 216 223 1
226 217 224 1
227 217 225 1
228 219 226 1
229 219 227 1
230 219 228 1
231 229 230 1
232 229 240 1
233 230 231 1
234 230 233 1
235 230 241 1
236 231 232 2
237 233 234 1
238 234 235 1
239 235 236 1
240 236 237 1
241 237 238 2
242 237 239 1
243 233 242 1
244 233 243 1
245 234 244 1
246 234 245 1
247 235 246 1
248 235 247 1
249 236 248 1
250 238 249 1
251 238 250 1
252 239 251 1
253 239 252 1
@<TRIPOS>SUBSTRUCTURE
1	GLU1	1	RESIDUE	1 ****	GLU
2	ASN2	16	RESIDUE	1 ****	ASN
3	PRO3	30	RESIDUE	1 ****	PRO
4	GLU4	44	RESIDUE	1 ****	GLU
5	SER5	59	RESIDUE	1 ****	SER
6	ILE6	70	RESIDUE	1 ****	ILE
7	LEU7	89	RESIDUE	1 ****	LEU
8	ASP8	108	RESIDUE	1 ****	ASP
9	GLU9	120	RESIDUE	1 ****	GLU
10	HIS10	135	RESIDUE	1 ****	HIS
11	VAL11	152	RESIDUE	1 ****	VAL
12	GLN12	168	RESIDUE	1 ****	GLN
13	CYS13	185	RESIDUE	1 ****	CYS
14	VAL14	196	RESIDUE	1 ****	VAL
15	MET15	212	RESIDUE	1 ****	MET
16	ARG16	229	RESIDUE	1 ****	ARG
