REMARK WARNING: 32 MAX_TORS EXCEEDED!!!
REMARK  67 active torsions:
REMARK  status: ('A' for Active; 'I' for Inactive)
REMARK    1  A    between atoms: N_1  and  CA_2 
REMARK    2  A    between atoms: CA_2  and  C_3 
REMARK    3  A    between atoms: CA_2  and  CB_5 
REMARK       I    between atoms: C_3  and  N_11 
REMARK    4  A    between atoms: CB_5  and  CG_6 
REMARK    5  A    between atoms: CG_6  and  CD_7 
REMARK    6  A    between atoms: N_11  and  CA_12 
REMARK    7  A    between atoms: CA_12  and  C_13 
REMARK    8  A    between atoms: CA_12  and  CB_15 
REMARK       I    between atoms: C_13  and  N_22 
REMARK    9  A    between atoms: CB_15  and  CG_16 
REMARK       I    between atoms: CG_16  and  ND2_17 
REMARK   10  A    between atoms: CA_23  and  C_24 
REMARK       I    between atoms: C_24  and  N_29 
REMARK   11  A    between atoms: N_29  and  CA_30 
REMARK   12  A    between atoms: CA_30  and  C_31 
REMARK   13  A    between atoms: CA_30  and  CB_33 
REMARK       I    between atoms: C_31  and  N_39 
REMARK   14  A    between atoms: CB_33  and  CG_34 
REMARK   15  A    between atoms: CG_34  and  CD_35 
REMARK   16  A    between atoms: N_39  and  CA_40 
REMARK   17  A    between atoms: CA_40  and  C_41 
REMARK   18  A    between atoms: CA_40  and  CB_43 
REMARK       I    between atoms: C_41  and  N_47 
REMARK   19  A    between atoms: CB_43  and  OG_44 
REMARK   20  A    between atoms: N_47  and  CA_48 
REMARK   21  A    between atoms: CA_48  and  C_49 
REMARK   22  A    between atoms: CA_48  and  CB_51 
REMARK       I    between atoms: C_49  and  N_56 
REMARK   23  A    between atoms: CB_51  and  CG1_52 
REMARK   24  A    between atoms: N_56  and  CA_57 
REMARK   25  A    between atoms: CA_57  and  C_58 
REMARK   26  A    between atoms: CA_57  and  CB_60 
REMARK       I    between atoms: C_58  and  N_65 
REMARK   27  A    between atoms: CB_60  and  CG_61 
REMARK   28  A    between atoms: N_65  and  CA_66 
REMARK   29  A    between atoms: CA_66  and  C_67 
REMARK   30  A    between atoms: CA_66  and  CB_69 
REMARK       I    between atoms: C_67  and  N_74 
REMARK   31  A    between atoms: CB_69  and  CG_70 
REMARK   32  A    between atoms: N_74  and  CA_75 
REMARK   33  A    between atoms: CA_75  and  C_76 
REMARK   34  A    between atoms: CA_75  and  CB_78 
REMARK       I    between atoms: C_76  and  N_84 
REMARK   35  A    between atoms: CB_78  and  CG_79 
REMARK   36  A    between atoms: CG_79  and  CD_80 
REMARK   37  A    between atoms: N_84  and  CA_85 
REMARK   38  A    between atoms: CA_85  and  C_86 
REMARK   39  A    between atoms: CA_85  and  CB_88 
REMARK       I    between atoms: C_86  and  N_96 
REMARK   40  A    between atoms: CB_88  and  CG_89 
REMARK   41  A    between atoms: N_96  and  CA_97 
REMARK   42  A    between atoms: CA_97  and  C_98 
REMARK   43  A    between atoms: CA_97  and  CB_100 
REMARK       I    between atoms: C_98  and  N_104 
REMARK   44  A    between atoms: N_104  and  CA_105 
REMARK   45  A    between atoms: CA_105  and  C_106 
REMARK   46  A    between atoms: CA_105  and  CB_108 
REMARK       I    between atoms: C_106  and  N_116 
REMARK   47  A    between atoms: CB_108  and  CG_109 
REMARK   48  A    between atoms: CG_109  and  CD_110 
REMARK       I    between atoms: CD_110  and  NE2_111 
REMARK   49  A    between atoms: N_116  and  CA_117 
REMARK   50  A    between atoms: CA_117  and  C_118 
REMARK   51  A    between atoms: CA_117  and  CB_120 
REMARK       I    between atoms: C_118  and  N_133 
REMARK   52  A    between atoms: CB_120  and  CG_121 
REMARK   53  A    between atoms: CG_121  and  CD_122 
REMARK   54  A    between atoms: CD_122  and  NE_123 
REMARK       I    between atoms: NE_123  and  CZ_124 
REMARK       I    between atoms: CZ_124  and  NH1_125 
REMARK       I    between atoms: CZ_124  and  NH2_126 
REMARK   55  A    between atoms: N_133  and  CA_134 
REMARK   56  A    between atoms: CA_134  and  C_135 
REMARK       I    between atoms: C_135  and  N_138 
REMARK   57  A    between atoms: N_138  and  CA_139 
REMARK   58  A    between atoms: CA_139  and  C_140 
REMARK   59  A    between atoms: CA_139  and  CB_142 
REMARK       I    between atoms: C_140  and  N_147 
REMARK   60  A    between atoms: CB_142  and  CG_143 
REMARK   61  A    between atoms: CG_143  and  SD_144 
REMARK   62  A    between atoms: N_147  and  CA_148 
REMARK   63  A    between atoms: CA_148  and  C_149 
REMARK   64  A    between atoms: CA_148  and  CB_151 
REMARK   65  A    between atoms: CB_151  and  CG_152 
REMARK   66  A    between atoms: CG_152  and  CD_153 
REMARK   67  A    between atoms: CD_153  and  NE_154 
REMARK       I    between atoms: NE_154  and  CZ_155 
REMARK       I    between atoms: CZ_155  and  NH1_156 
ROOT
ATOM      1  C   GLU d   9    2194.450 672.224-2274.670  0.00  0.00     0.241 C 
ATOM      2  O   GLU d   9    2195.114 672.977-2275.396  0.00  0.00    -0.271 OA
ATOM      3  N   HIS d  10    2194.546 670.948-2274.839  0.00  0.00    -0.346 N 
ATOM      4  H   HIS d  10    2194.015 670.314-2274.260  0.00  0.00     0.163 HD
ENDROOT
BRANCH   1   5
ATOM      5  CA  GLU d   9    2193.532 672.752-2273.594  0.00  0.00     0.177 C 
BRANCH   5   6
ATOM      6  N   GLU d   9    2192.229 672.095-2273.649  0.00  0.00    -0.346 N 
ATOM      7  C   ASP d   8    2191.549 672.145-2274.744  0.00  0.00     0.241 C 
ATOM      8  O   ASP d   8    2192.022 672.749-2275.719  0.00  0.00    -0.271 OA
ATOM      9  H   GLU d   9    2191.865 671.610-2272.842  0.00  0.00     0.163 HD
BRANCH   7  10
ATOM     10  CA  ASP d   8    2190.202 671.466-2274.801  0.00  0.00     0.186 C 
BRANCH  10  11
ATOM     11  N   ASP d   8    2190.272 670.117-2274.247  0.00  0.00    -0.346 N 
ATOM     12  C   LEU d   7    2191.109 669.275-2274.753  0.00  0.00     0.241 C 
ATOM     13  O   LEU d   7    2191.830 669.637-2275.695  0.00  0.00    -0.271 OA
ATOM     14  H   ASP d   8    2189.674 669.846-2273.479  0.00  0.00     0.163 HD
BRANCH  12  15
ATOM     15  CA  LEU d   7    2191.181 667.880-2274.180  0.00  0.00     0.177 C 
BRANCH  15  16
ATOM     16  N   LEU d   7    2191.236 667.916-2272.721  0.00  0.00    -0.346 N 
ATOM     17  C   ILE d   6    2192.182 668.580-2272.148  0.00  0.00     0.241 C 
ATOM     18  O   ILE d   6    2193.016 669.167-2272.852  0.00  0.00    -0.271 OA
ATOM     19  H   LEU d   7    2190.543 667.429-2272.170  0.00  0.00     0.163 HD
BRANCH  17  20
ATOM     20  CA  ILE d   6    2192.239 668.617-2270.640  0.00  0.00     0.180 C 
BRANCH  20  21
ATOM     21  N   ILE d   6    2190.926 668.913-2270.074  0.00  0.00    -0.346 N 
ATOM     22  C   SER d   5    2190.321 669.996-2270.428  0.00  0.00     0.243 C 
ATOM     23  O   SER d   5    2190.869 670.749-2271.233  0.00  0.00    -0.271 OA
ATOM     24  H   ILE d   6    2190.497 668.278-2269.416  0.00  0.00     0.163 HD
BRANCH  22  25
ATOM     25  CA  SER d   5    2188.962 670.302-2269.843  0.00  0.00     0.200 C 
BRANCH  25  26
ATOM     26  N   SER d   5    2188.093 669.131-2269.902  0.00  0.00    -0.344 N 
ATOM     27  C   GLU d   4    2187.865 668.578-2271.045  0.00  0.00     0.241 C 
ATOM     28  O   GLU d   4    2188.392 669.058-2272.060  0.00  0.00    -0.271 OA
ATOM     29  H   SER d   5    2187.675 668.759-2269.061  0.00  0.00     0.163 HD
BRANCH  27  30
ATOM     30  CA  GLU d   4    2186.966 667.367-2271.107  0.00  0.00     0.177 C 
BRANCH  30  31
ATOM     31  N   GLU d   4    2187.325 666.396-2270.077  0.00  0.00    -0.346 N 
ATOM     32  C   PRO d   3    2188.530 665.936-2270.044  0.00  0.00     0.241 C 
ATOM     33  O   PRO d   3    2189.354 666.319-2270.876  0.00  0.00    -0.271 OA
ATOM     34  H   GLU d   4    2186.641 666.090-2269.401  0.00  0.00     0.163 HD
BRANCH  32  35
ATOM     35  CA  PRO d   3    2188.928 664.913-2268.967  0.00  0.00     0.179 C 
ATOM     36  N   PRO d   3    2188.476 665.322-2267.646  0.00  0.00    -0.337 N 
ATOM     37  C   ASN d   2    2188.997 666.317-2267.012  0.00  0.00     0.243 C 
ATOM     38  CD  PRO d   3    2187.397 664.529-2267.097  0.00  0.00     0.127 C 
ATOM     39  O   ASN d   2    2189.912 666.947-2267.540  0.00  0.00    -0.271 OA
ATOM     40  CG  PRO d   3    2186.940 663.710-2268.307  0.00  0.00     0.022 C 
ATOM     41  CB  PRO d   3    2188.224 663.558-2269.137  0.00  0.00     0.037 C 
BRANCH  37  42
ATOM     42  CA  ASN d   2    2188.466 666.672-2265.643  0.00  0.00     0.185 C 
BRANCH  42  43
ATOM     43  N   ASN d   2    2187.007 666.711-2265.643  0.00  0.00    -0.346 N 
ATOM     44  C   GLU d   1    2186.402 667.497-2266.469  0.00  0.00     0.242 C 
ATOM     45  O   GLU d   1    2187.078 668.196-2267.237  0.00  0.00    -0.271 OA
ATOM     46  H   ASN d   2    2186.478 666.132-2265.007  0.00  0.00     0.163 HD
BRANCH  44  47
ATOM     47  CA  GLU d   1    2184.893 667.537-2266.469  0.00  0.00     0.191 C 
BRANCH  47  48
ATOM     48  N   GLU d   1    2184.334 666.188-2266.469  0.00  0.00    -0.326 NA
ATOM     49  H   GLU d   1    2184.961 665.309-2266.469  0.00  0.00     0.180 HD
ENDBRANCH  47  48
BRANCH  47  50
ATOM     50  CB  GLU d   1    2184.370 668.322-2265.232  0.00  0.00     0.047 C 
BRANCH  50  51
ATOM     51  CG  GLU d   1    2184.845 669.807-2265.121  0.00  0.00     0.116 C 
BRANCH  51  52
ATOM     52  CD  GLU d   1    2184.421 670.611-2263.906  0.00  0.00     0.172 C 
ATOM     53  OE1 GLU d   1    2183.693 670.109-2263.028  0.00  0.00    -0.648 OA
ATOM     54  OE2 GLU d   1    2184.851 671.781-2263.833  0.00  0.00    -0.648 OA
ENDBRANCH  51  52
ENDBRANCH  50  51
ENDBRANCH  47  50
ENDBRANCH  44  47
ENDBRANCH  42  43
BRANCH  42  55
ATOM     55  CB  ASN d   2    2188.958 665.649-2264.579  0.00  0.00     0.137 C 
BRANCH  55  56
ATOM     56  CG  ASN d   2    2188.494 665.873-2263.135  0.00  0.00     0.217 C 
ATOM     57  ND2 ASN d   2    2189.088 666.788-2262.417  0.00  0.00    -0.370 N 
ATOM     58 21HD ASN d   2    2188.607 666.961-2261.531  0.00  0.00     0.159 HD
ATOM     59 22HD ASN d   2    2189.790 667.360-2262.886  0.00  0.00     0.159 HD
ATOM     60  OD1 ASN d   2    2187.573 665.240-2262.641  0.00  0.00    -0.274 OA
ENDBRANCH  55  56
ENDBRANCH  42  55
ENDBRANCH  37  42
ENDBRANCH  32  35
ENDBRANCH  30  31
BRANCH  30  61
ATOM     61  CB  GLU d   4    2185.478 667.787-2270.937  0.00  0.00     0.045 C 
BRANCH  61  62
ATOM     62  CG  GLU d   4    2184.930 668.790-2272.003  0.00  0.00     0.116 C 
BRANCH  62  63
ATOM     63  CD  GLU d   4    2183.504 669.287-2271.860  0.00  0.00     0.172 C 
ATOM     64  OE1 GLU d   4    2182.777 668.889-2270.929  0.00  0.00    -0.648 OA
ATOM     65  OE2 GLU d   4    2183.115 670.117-2272.708  0.00  0.00    -0.648 OA
ENDBRANCH  62  63
ENDBRANCH  61  62
ENDBRANCH  30  61
ENDBRANCH  27  30
ENDBRANCH  25  26
BRANCH  25  66
ATOM     66  CB  SER d   5    2189.074 670.834-2268.393  0.00  0.00     0.199 C 
BRANCH  66  67
ATOM     67  OG  SER d   5    2189.805 669.954-2267.532  0.00  0.00    -0.398 OA
ATOM     68  HG  SER d   5    2189.316 669.130-2267.481  0.00  0.00     0.209 HD
ENDBRANCH  66  67
ENDBRANCH  25  66
ENDBRANCH  22  25
ENDBRANCH  20  21
BRANCH  20  69
ATOM     69  CB  ILE d   6    2192.838 667.281-2270.040  0.00  0.00     0.013 C 
ATOM     70  CG2 ILE d   6    2194.279 666.978-2270.555  0.00  0.00     0.012 C 
BRANCH  69  71
ATOM     71  CG1 ILE d   6    2192.857 667.218-2268.479  0.00  0.00     0.002 C 
ATOM     72  CD1 ILE d   6    2193.126 665.829-2267.864  0.00  0.00     0.005 C 
ENDBRANCH  69  71
ENDBRANCH  20  69
ENDBRANCH  17  20
ENDBRANCH  15  16
BRANCH  15  73
ATOM     73  CB  LEU d   7    2189.977 667.020-2274.660  0.00  0.00     0.038 C 
BRANCH  73  74
ATOM     74  CG  LEU d   7    2189.904 665.541-2274.194  0.00  0.00    -0.020 C 
ATOM     75  CD1 LEU d   7    2188.714 664.835-2274.859  0.00  0.00     0.009 C 
ATOM     76  CD2 LEU d   7    2191.198 664.761-2274.485  0.00  0.00     0.009 C 
ENDBRANCH  73  74
ENDBRANCH  15  73
ENDBRANCH  12  15
ENDBRANCH  10  11
BRANCH  10  77
ATOM     77  CB  ASP d   8    2189.124 672.306-2274.060  0.00  0.00     0.147 C 
BRANCH  77  78
ATOM     78  CG  ASP d   8    2188.906 673.726-2274.601  0.00  0.00     0.175 C 
ATOM     79  OD1 ASP d   8    2188.971 673.925-2275.832  0.00  0.00    -0.648 OA
ATOM     80  OD2 ASP d   8    2188.715 674.653-2273.787  0.00  0.00    -0.648 OA
ENDBRANCH  77  78
ENDBRANCH  10  77
ENDBRANCH   7  10
ENDBRANCH   5   6
BRANCH   5  81
ATOM     81  CB  GLU d   9    2194.166 672.545-2272.189  0.00  0.00     0.045 C 
BRANCH  81  82
ATOM     82  CG  GLU d   9    2195.549 673.237-2271.960  0.00  0.00     0.116 C 
BRANCH  82  83
ATOM     83  CD  GLU d   9    2196.251 673.024-2270.632  0.00  0.00     0.172 C 
ATOM     84  OE1 GLU d   9    2195.729 672.334-2269.735  0.00  0.00    -0.648 OA
ATOM     85  OE2 GLU d   9    2197.370 673.561-2270.501  0.00  0.00    -0.648 OA
ENDBRANCH  82  83
ENDBRANCH  81  82
ENDBRANCH   5  81
ENDBRANCH   1   5
BRANCH   3  86
ATOM     86  CA  HIS d  10    2195.433 670.436-2275.880  0.00  0.00     0.182 C 
BRANCH  86  87
ATOM     87  C   HIS d  10    2195.066 671.000-2277.231  0.00  0.00     0.241 C 
ATOM     88  O   HIS d  10    2195.919 671.464-2278.003  0.00  0.00    -0.271 OA
ATOM     89  N   VAL d  11    2193.828 671.000-2277.594  0.00  0.00    -0.346 N 
ATOM     90  H   VAL d  11    2193.115 670.628-2276.983  0.00  0.00     0.163 HD
BRANCH  89  91
ATOM     91  CA  VAL d  11    2193.473 671.545-2278.901  0.00  0.00     0.180 C 
BRANCH  91  92
ATOM     92  C   VAL d  11    2193.938 672.976-2279.034  0.00  0.00     0.241 C 
ATOM     93  O   VAL d  11    2194.539 673.380-2280.037  0.00  0.00    -0.271 OA
ATOM     94  N   GLN d  12    2193.702 673.802-2278.072  0.00  0.00    -0.346 N 
ATOM     95  H   GLN d  12    2193.213 673.496-2277.243  0.00  0.00     0.163 HD
BRANCH  94  96
ATOM     96  CA  GLN d  12    2194.151 675.185-2278.200  0.00  0.00     0.177 C 
BRANCH  96  97
ATOM     97  C   GLN d  12    2195.641 675.251-2278.438  0.00  0.00     0.241 C 
ATOM     98  O   GLN d  12    2196.128 675.959-2279.317  0.00  0.00    -0.271 OA
ATOM     99  N   ARG d  13    2196.426 674.544-2277.697  0.00  0.00    -0.346 N 
ATOM    100  H   ARG d  13    2196.049 673.955-2276.968  0.00  0.00     0.163 HD
BRANCH  99 101
ATOM    101  CA  ARG d  13    2197.866 674.609-2277.928  0.00  0.00     0.176 C 
BRANCH 101 102
ATOM    102  C   ARG d  13    2198.201 674.237-2279.353  0.00  0.00     0.240 C 
ATOM    103  O   ARG d  13    2198.970 674.908-2280.038  0.00  0.00    -0.271 OA
ATOM    104  N   GLY d  14    2197.665 673.182-2279.867  0.00  0.00    -0.351 N 
ATOM    105  H   GLY d  14    2197.030 672.614-2279.325  0.00  0.00     0.163 HD
BRANCH 104 106
ATOM    106  CA  GLY d  14    2197.990 672.823-2281.244  0.00  0.00     0.225 C 
BRANCH 106 107
ATOM    107  C   GLY d  14    2197.660 673.952-2282.190  0.00  0.00     0.236 C 
ATOM    108  O   GLY d  14    2198.452 674.331-2283.057  0.00  0.00    -0.272 OA
ATOM    109  N   MET d  15    2196.515 674.538-2282.089  0.00  0.00    -0.346 N 
ATOM    110  H   MET d  15    2195.850 674.246-2281.388  0.00  0.00     0.163 HD
BRANCH 109 111
ATOM    111  CA  MET d  15    2196.196 675.631-2283.004  0.00  0.00     0.177 C 
BRANCH 111 112
ATOM    112  C   MET d  15    2197.226 676.730-2282.916  0.00  0.00     0.241 C 
ATOM    113  O   MET d  15    2197.729 677.241-2283.929  0.00  0.00    -0.271 OA
ATOM    114  N   ARG d  16    2197.594 677.152-2281.754  0.00  0.00    -0.347 N 
ATOM    115  H   ARG d  16    2197.199 676.752-2280.915  0.00  0.00     0.163 HD
BRANCH 114 116
ATOM    116  CA  ARG d  16    2198.591 678.215-2281.670  0.00  0.00     0.162 C 
BRANCH 116 117
ATOM    117  C   ARG d  16    2199.862 677.822-2282.386  0.00  0.00     0.219 C 
ATOM    118  O   ARG d  16    2199.976 676.746-2282.966  0.00  0.00    -0.287 OA
ENDBRANCH 116 117
BRANCH 116 119
ATOM    119  CB  ARG d  16    2198.859 678.534-2280.172  0.00  0.00     0.035 C 
BRANCH 119 120
ATOM    120  CG  ARG d  16    2199.684 679.823-2279.899  0.00  0.00     0.023 C 
BRANCH 120 121
ATOM    121  CD  ARG d  16    2199.933 680.043-2278.398  0.00  0.00     0.138 C 
BRANCH 121 122
ATOM    122  NE  ARG d  16    2200.709 681.302-2278.198  0.00  0.00    -0.227 N 
ATOM    123  CZ  ARG d  16    2201.100 681.785-2277.022  0.00  0.00     0.665 C 
ATOM    124  NH1 ARG d  16    2200.852 681.201-2275.883  0.00  0.00    -0.235 N 
ATOM    125  NH2 ARG d  16    2201.764 682.898-2277.004  0.00  0.00    -0.235 N 
ATOM    126 11HH ARG d  16    2200.326 680.328-2275.968  0.00  0.00     0.174 HD
ATOM    127 12HH ARG d  16    2201.186 681.637-2275.022  0.00  0.00     0.174 HD
ATOM    128 21HH ARG d  16    2201.950 683.340-2277.906  0.00  0.00     0.174 HD
ATOM    129 22HH ARG d  16    2202.054 683.254-2276.091  0.00  0.00     0.174 HD
ATOM    130  HE  ARG d  16    2200.988 681.883-2278.995  0.00  0.00     0.177 HD
ENDBRANCH 121 122
ENDBRANCH 120 121
ENDBRANCH 119 120
ENDBRANCH 116 119
ENDBRANCH 114 116
ENDBRANCH 111 112
BRANCH 111 131
ATOM    131  CB  MET d  15    2194.774 676.177-2282.695  0.00  0.00     0.045 C 
BRANCH 131 132
ATOM    132  CG  MET d  15    2193.612 675.179-2282.887  0.00  0.00     0.076 C 
BRANCH 132 133
ATOM    133  SD  MET d  15    2192.038 676.045-2282.774  0.00  0.00    -0.173 SA
ATOM    134  CE  MET d  15    2190.957 674.616-2282.636  0.00  0.00     0.089 C 
ENDBRANCH 132 133
ENDBRANCH 131 132
ENDBRANCH 111 131
ENDBRANCH 109 111
ENDBRANCH 106 107
ENDBRANCH 104 106
ENDBRANCH 101 102
BRANCH 101 135
ATOM    135  CB  ARG d  13    2198.579 673.671-2276.914  0.00  0.00     0.036 C 
BRANCH 135 136
ATOM    136  CG  ARG d  13    2200.124 673.824-2276.833  0.00  0.00     0.023 C 
BRANCH 136 137
ATOM    137  CD  ARG d  13    2200.751 672.837-2275.835  0.00  0.00     0.138 C 
BRANCH 137 138
ATOM    138  NE  ARG d  13    2202.228 673.043-2275.785  0.00  0.00    -0.227 N 
ATOM    139  CZ  ARG d  13    2203.076 672.352-2275.030  0.00  0.00     0.665 C 
ATOM    140  NH1 ARG d  13    2202.711 671.389-2274.231  0.00  0.00    -0.235 N 
ATOM    141  NH2 ARG d  13    2204.336 672.651-2275.087  0.00  0.00    -0.235 N 
ATOM    142 11HH ARG d  13    2201.706 671.203-2274.234  0.00  0.00     0.174 HD
ATOM    143 12HH ARG d  13    2203.425 670.906-2273.683  0.00  0.00     0.174 HD
ATOM    144 21HH ARG d  13    2204.604 673.408-2275.719  0.00  0.00     0.174 HD
ATOM    145 22HH ARG d  13    2204.971 672.110-2274.499  0.00  0.00     0.174 HD
ATOM    146  HE  ARG d  13    2202.679 673.765-2276.357  0.00  0.00     0.177 HD
ENDBRANCH 137 138
ENDBRANCH 136 137
ENDBRANCH 135 136
ENDBRANCH 101 135
ENDBRANCH  99 101
ENDBRANCH  96  97
BRANCH  96 147
ATOM    147  CB  GLN d  12    2193.761 675.953-2276.918  0.00  0.00     0.044 C 
BRANCH 147 148
ATOM    148  CG  GLN d  12    2194.122 677.474-2276.887  0.00  0.00     0.105 C 
BRANCH 148 149
ATOM    149  CD  GLN d  12    2193.821 678.289-2275.623  0.00  0.00     0.215 C 
ATOM    150  NE2 GLN d  12    2193.253 677.713-2274.594  0.00  0.00    -0.370 N 
ATOM    151 21HE GLN d  12    2193.147 678.308-2273.771  0.00  0.00     0.159 HD
ATOM    152 22HE GLN d  12    2193.089 676.710-2274.697  0.00  0.00     0.159 HD
ATOM    153  OE1 GLN d  12    2194.123 679.470-2275.546  0.00  0.00    -0.274 OA
ENDBRANCH 148 149
ENDBRANCH 147 148
ENDBRANCH  96 147
ENDBRANCH  94  96
ENDBRANCH  91  92
BRANCH  91 154
ATOM    154  CB  VAL d  11    2191.912 671.439-2279.120  0.00  0.00     0.009 C 
ATOM    155  CG1 VAL d  11    2191.343 672.143-2280.383  0.00  0.00     0.012 C 
ATOM    156  CG2 VAL d  11    2191.386 669.985-2279.192  0.00  0.00     0.012 C 
ENDBRANCH  91 154
ENDBRANCH  89  91
ENDBRANCH  86  87
BRANCH  86 157
ATOM    157  CB  HIS d  10    2195.268 668.907-2275.874  0.00  0.00     0.095 C 
BRANCH 157 158
ATOM    158  CG  HIS d  10    2196.554 668.196-2275.566  0.00  0.00     0.053 A 
ATOM    159  CD2 HIS d  10    2196.935 667.862-2274.273  0.00  0.00     0.116 A 
ATOM    160  NE2 HIS d  10    2198.149 667.230-2274.340  0.00  0.00    -0.359 N 
ATOM    161  CE1 HIS d  10    2198.412 667.232-2275.675  0.00  0.00     0.207 A 
ATOM    162  2HE HIS d  10    2198.716 666.853-2273.567  0.00  0.00     0.166 HD
ATOM    163  ND1 HIS d  10    2197.505 667.790-2276.499  0.00  0.00    -0.247 NA
ENDBRANCH 157 158
ENDBRANCH  86 157
ENDBRANCH   3  86
TORSDOF 67
