@<TRIPOS>MOLECULE
9-14
264 265 16              
SMALL
USER_CHARGES
@<TRIPOS>ATOM
1	   N	1459.777	429.332	-1475.285	N.3	1	GLU1	-0.516	
2	  CA	1460.336	430.681	-1475.285	C.3	1	GLU1	0.040	
3	   C	1461.845	430.641	-1475.285	C.2	1	GLU1	0.537	
4	   O	1462.521	431.340	-1476.053	O.2	1	GLU1	-0.582	
5	  CB	1459.813	431.466	-1474.047	C.3	1	GLU1	0.056	
6	  CG	1460.288	432.951	-1473.937	C.3	1	GLU1	0.014	
7	  CD	1459.864	433.755	-1472.721	C.2	1	GLU1	0.805	
8	 OE1	1459.136	433.253	-1471.844	O.co2	1	GLU1	-0.819	
9	 OE2	1460.294	434.925	-1472.650	O.co2	1	GLU1	-0.819	
10	   H	1460.404	428.453	-1475.285	 H	1	GLU1	0.294	
11	  HA	1460.010	431.199	-1476.204	 H	1	GLU1	0.111	
12	 2HB	1460.102	430.935	-1473.118	 H	1	GLU1	-0.017	
13	 3HB	1458.706	431.456	-1474.035	 H	1	GLU1	-0.017	
14	 2HG	1459.978	433.536	-1474.818	 H	1	GLU1	-0.043	
15	 3HG	1461.388	433.018	-1473.907	 H	1	GLU1	-0.043	
16	   N	1462.449	429.855	-1474.459	N.am	2	ASN2	-0.416	
17	  CA	1463.909	429.816	-1474.459	C.3	2	ASN2	0.014	
18	   C	1464.440	429.461	-1475.828	C.2	2	ASN2	0.597	
19	   O	1465.355	430.091	-1476.357	O.2	2	ASN2	-0.568	
20	  CB	1464.401	428.793	-1473.395	C.3	2	ASN2	-0.204	
21	  CG	1463.938	429.017	-1471.952	C.2	2	ASN2	0.713	
22	 ND2	1464.532	429.932	-1471.234	N.pl3	2	ASN2	-0.919	
23	 OD1	1463.017	428.383	-1471.458	O.2	2	ASN2	-0.593	
24	   H	1461.921	429.275	-1473.823	 H	2	ASN2	0.272	
25	  HA	1464.286	430.826	-1474.214	 H	2	ASN2	0.105	
26	 2HB	1465.505	428.734	-1473.399	 H	2	ASN2	0.080	
27	 3HB	1464.072	427.775	-1473.681	 H	2	ASN2	0.080	
28	1HD2	1464.051	430.105	-1470.347	 H	2	ASN2	0.420	
29	2HD2	1465.234	430.504	-1471.703	 H	2	ASN2	0.420	
30	   N	1463.918	428.465	-1476.462	N.am	3	PRO3	-0.255	
31	  CA	1464.370	428.056	-1477.784	C.3	3	PRO3	-0.027	
32	   C	1463.972	429.080	-1478.861	C.2	3	PRO3	0.590	
33	   O	1464.795	429.463	-1479.692	O.2	3	PRO3	-0.575	
34	  CB	1463.666	426.701	-1477.953	C.3	3	PRO3	-0.007	
35	  CG	1462.383	426.854	-1477.123	C.3	3	PRO3	0.019	
36	  CD	1462.840	427.672	-1475.913	C.3	3	PRO3	0.019	
37	  HA	1465.456	427.936	-1477.797	 H	3	PRO3	0.064	
38	 2HB	1464.289	425.920	-1477.512	 H	3	PRO3	0.025	
39	 3HB	1463.468	426.453	-1478.998	 H	3	PRO3	0.025	
40	 2HG	1461.955	425.891	-1476.832	 H	3	PRO3	0.021	
41	 3HG	1461.645	427.425	-1477.690	 H	3	PRO3	0.021	
42	 2HD	1463.230	427.023	-1475.125	 H	3	PRO3	0.039	
43	 3HD	1462.044	428.308	-1475.520	 H	3	PRO3	0.039	
44	   N	1462.767	429.540	-1478.893	N.am	4	GLU4	-0.516	
45	  CA	1462.407	430.511	-1479.922	C.3	4	GLU4	0.040	
46	   C	1463.306	431.722	-1479.861	C.2	4	GLU4	0.537	
47	   O	1463.832	432.202	-1480.876	O.2	4	GLU4	-0.582	
48	  CB	1460.919	430.929	-1479.752	C.3	4	GLU4	0.056	
49	  CG	1460.370	431.933	-1480.817	C.3	4	GLU4	0.014	
50	  CD	1458.944	432.430	-1480.673	C.2	4	GLU4	0.805	
51	 OE1	1458.218	432.031	-1479.743	O.co2	4	GLU4	-0.819	
52	 OE2	1458.554	433.259	-1481.522	O.co2	4	GLU4	-0.819	
53	   H	1462.083	429.233	-1478.216	 H	4	GLU4	0.294	
54	  HA	1462.538	430.040	-1480.914	 H	4	GLU4	0.111	
55	 2HB	1460.766	431.369	-1478.745	 H	4	GLU4	-0.017	
56	 3HB	1460.271	430.031	-1479.758	 H	4	GLU4	-0.017	
57	 2HG	1460.452	431.518	-1481.835	 H	4	GLU4	-0.043	
58	 3HG	1460.958	432.865	-1480.828	 H	4	GLU4	-0.043	
59	   N	1463.534	432.275	-1478.718	N.am	5	SER5	-0.416	
60	  CA	1464.403	433.446	-1478.660	C.3	5	SER5	-0.025	
61	   C	1465.762	433.141	-1479.245	C.2	5	SER5	0.597	
62	   O	1466.309	433.894	-1480.050	O.2	5	SER5	-0.568	
63	  CB	1464.515	433.978	-1477.209	C.3	5	SER5	0.212	
64	  OG	1465.247	433.099	-1476.348	O.3	5	SER5	-0.655	
65	   H	1463.117	431.903	-1477.877	 H	5	SER5	0.272	
66	  HA	1463.954	434.236	-1479.289	 H	5	SER5	0.084	
67	 2HB	1463.515	434.172	-1476.776	 H	5	SER5	0.035	
68	 3HB	1465.020	434.964	-1477.211	 H	5	SER5	0.035	
69	  HG	1464.758	432.274	-1476.298	 H	5	SER5	0.428	
70	   N	1466.367	432.058	-1478.891	N.am	6	ILE6	-0.416	
71	  CA	1467.680	431.763	-1479.458	C.3	6	ILE6	-0.060	
72	   C	1467.623	431.726	-1480.966	C.2	6	ILE6	0.597	
73	   O	1468.457	432.313	-1481.670	O.2	6	ILE6	-0.568	
74	  CB	1468.280	430.427	-1478.858	C.3	6	ILE6	0.130	
75	 CG1	1468.299	430.364	-1477.297	C.3	6	ILE6	-0.043	
76	 CG2	1469.721	430.125	-1479.374	C.3	6	ILE6	-0.320	
77	 CD1	1468.569	428.975	-1476.682	C.3	6	ILE6	-0.066	
78	   H	1465.938	431.423	-1478.233	 H	6	ILE6	0.272	
79	  HA	1468.354	432.597	-1479.190	 H	6	ILE6	0.087	
80	  HB	1467.622	429.601	-1479.202	 H	6	ILE6	0.019	
81	2HG1	1467.317	430.684	-1476.901	 H	6	ILE6	0.024	
82	3HG1	1469.015	431.106	-1476.892	 H	6	ILE6	0.024	
83	1HG2	1469.780	430.032	-1480.472	 H	6	ILE6	0.088	
84	2HG2	1470.443	430.907	-1479.071	 H	6	ILE6	0.088	
85	3HG2	1470.111	429.163	-1478.995	 H	6	ILE6	0.088	
86	1HD1	1467.841	428.221	-1477.037	 H	6	ILE6	0.019	
87	2HD1	1469.580	428.596	-1476.918	 H	6	ILE6	0.019	
88	3HD1	1468.493	429.005	-1475.580	 H	6	ILE6	0.019	
89	   N	1466.677	431.062	-1481.539	N.am	7	LEU7	-0.416	
90	  CA	1466.622	431.026	-1482.998	C.3	7	LEU7	-0.052	
91	   C	1466.549	432.422	-1483.570	C.2	7	LEU7	0.597	
92	   O	1467.270	432.785	-1484.512	O.2	7	LEU7	-0.568	
93	  CB	1465.419	430.166	-1483.478	C.3	7	LEU7	-0.110	
94	  CG	1465.346	428.686	-1483.012	C.3	7	LEU7	0.353	
95	 CD1	1464.156	427.981	-1483.678	C.3	7	LEU7	-0.412	
96	 CD2	1466.639	427.907	-1483.304	C.3	7	LEU7	-0.412	
97	   H	1465.985	430.575	-1480.988	 H	7	LEU7	0.272	
98	  HA	1467.563	430.586	-1483.372	 H	7	LEU7	0.092	
99	 2HB	1465.395	430.182	-1484.586	 H	7	LEU7	0.046	
100	 3HB	1464.479	430.669	-1483.174	 H	7	LEU7	0.046	
101	  HG	1465.176	428.678	-1481.915	 H	7	LEU7	-0.036	
102	1HD1	1463.199	428.490	-1483.455	 H	7	LEU7	0.100	
103	2HD1	1464.255	427.940	-1484.779	 H	7	LEU7	0.100	
104	3HD1	1464.049	426.939	-1483.322	 H	7	LEU7	0.100	
105	1HD2	1466.915	427.938	-1484.374	 H	7	LEU7	0.100	
106	2HD2	1467.493	428.319	-1482.733	 H	7	LEU7	0.100	
107	3HD2	1466.558	426.845	-1483.008	 H	7	LEU7	0.100	
108	   N	1465.712	433.262	-1483.063	N.am	8	ASP8	-0.516	
109	  CA	1465.641	434.612	-1483.616	C.3	8	ASP8	0.038	
110	   C	1466.988	435.292	-1483.559	C.2	8	ASP8	0.537	
111	   O	1467.461	435.897	-1484.533	O.2	8	ASP8	-0.582	
112	  CB	1464.563	435.451	-1482.874	C.3	8	ASP8	-0.030	
113	  CG	1464.344	436.871	-1483.415	C.2	8	ASP8	0.799	
114	 OD1	1464.408	437.071	-1484.645	O.co2	8	ASP8	-0.801	
115	 OD2	1464.152	437.797	-1482.599	O.co2	8	ASP8	-0.801	
116	   H	1465.114	432.991	-1482.296	 H	8	ASP8	0.294	
117	  HA	1465.358	434.534	-1484.683	 H	8	ASP8	0.088	
118	 2HB	1464.821	435.533	-1481.803	 H	8	ASP8	-0.012	
119	 3HB	1463.584	434.945	-1482.907	 H	8	ASP8	-0.012	
120	   N	1467.668	435.242	-1482.464	N.am	9	THR9	-0.416	
121	  CA	1468.969	435.899	-1482.409	C.3	9	THR9	-0.039	
122	   C	1469.888	435.373	-1483.485	C.2	9	THR9	0.597	
123	   O	1470.538	436.114	-1484.195	O.2	9	THR9	-0.568	
124	  CB	1469.616	435.722	-1480.993	C.3	9	THR9	0.365	
125	 CG2	1471.007	436.361	-1480.791	C.3	9	THR9	-0.244	
126	 OG1	1468.801	436.320	-1479.994	O.3	9	THR9	-0.676	
127	   H	1467.305	434.755	-1481.657	 H	9	THR9	0.272	
128	  HA	1468.823	436.978	-1482.599	 H	9	THR9	0.101	
129	  HB	1469.697	434.634	-1480.781	 H	9	THR9	0.004	
130	 1HG	1469.216	436.113	-1479.152	 H	9	THR9	0.410	
131	1HG2	1471.387	436.213	-1479.764	 H	9	THR9	0.064	
132	2HG2	1471.774	435.926	-1481.459	 H	9	THR9	0.064	
133	3HG2	1470.990	437.450	-1480.982	 H	9	THR9	0.064	
134	   N	1469.986	434.098	-1483.656	N.am	10	HIS10	-0.416	
135	  CA	1470.875	433.588	-1484.697	C.3	10	HIS10	-0.058	
136	   C	1470.507	434.154	-1486.047	C.2	10	HIS10	0.597	
137	   O	1471.359	434.620	-1486.819	O.2	10	HIS10	-0.568	
138	  CB	1470.713	432.059	-1484.693	C.3	10	HIS10	-0.007	
139	  CG	1471.999	431.350	-1484.386	C.2	10	HIS10	0.187	
140	 CD2	1472.380	431.014	-1483.093	C.2	10	HIS10	-0.221	
141	 ND1	1472.952	430.946	-1485.319	N.2	10	HIS10	-0.543	
142	 CE1	1473.859	430.389	-1484.496	C.2	10	HIS10	0.163	
143	 NE2	1473.596	430.384	-1483.161	N.pl3	10	HIS10	-0.280	
144	   H	1469.456	433.461	-1483.078	 H	10	HIS10	0.272	
145	  HA	1471.893	433.947	-1484.471	 H	10	HIS10	0.136	
146	 2HB	1470.348	431.693	-1485.673	 H	10	HIS10	0.037	
147	 3HB	1469.958	431.720	-1483.953	 H	10	HIS10	0.037	
148	 2HD	1471.795	431.228	-1482.204	 H	10	HIS10	0.186	
149	 1HE	1474.750	429.969	-1484.943	 H	10	HIS10	0.144	
150	 2HE	1474.163	430.007	-1482.388	 H	10	HIS10	0.334	
151	   N	1469.269	434.151	-1486.410	N.am	11	VAL11	-0.416	
152	  CA	1468.914	434.698	-1487.717	C.3	11	VAL11	-0.087	
153	   C	1469.376	436.129	-1487.848	C.2	11	VAL11	0.597	
154	   O	1469.977	436.536	-1488.851	O.2	11	VAL11	-0.568	
155	  CB	1467.353	434.590	-1487.936	C.3	11	VAL11	0.299	
156	 CG1	1466.783	435.294	-1489.198	C.3	11	VAL11	-0.319	
157	 CG2	1466.830	433.135	-1488.011	C.3	11	VAL11	-0.319	
158	   H	1468.557	433.777	-1485.800	 H	11	VAL11	0.272	
159	  HA	1469.434	434.117	-1488.500	 H	11	VAL11	0.097	
160	  HB	1466.865	435.068	-1487.061	 H	11	VAL11	-0.030	
161	1HG1	1467.222	434.904	-1490.136	 H	11	VAL11	0.079	
162	2HG1	1465.685	435.185	-1489.281	 H	11	VAL11	0.079	
163	3HG1	1466.960	436.387	-1489.188	 H	11	VAL11	0.079	
164	1HG2	1467.120	432.547	-1487.121	 H	11	VAL11	0.079	
165	2HG2	1465.724	433.097	-1488.054	 H	11	VAL11	0.079	
166	3HG2	1467.213	432.595	-1488.898	 H	11	VAL11	0.079	
167	   N	1469.138	436.954	-1486.885	N.am	12	GLN12	-0.416	
168	  CA	1469.584	438.338	-1487.011	C.3	12	GLN12	-0.003	
169	   C	1471.074	438.407	-1487.249	C.2	12	GLN12	0.597	
170	   O	1471.561	439.117	-1488.126	O.2	12	GLN12	-0.568	
171	  CB	1469.192	439.104	-1485.728	C.3	12	GLN12	-0.004	
172	  CG	1469.551	440.626	-1485.695	C.3	12	GLN12	-0.064	
173	  CD	1469.247	441.438	-1484.430	C.2	12	GLN12	0.695	
174	 NE2	1468.681	440.860	-1483.401	N.pl3	12	GLN12	-0.941	
175	 OE1	1469.547	442.619	-1484.351	O.2	12	GLN12	-0.609	
176	   H	1468.650	436.647	-1486.056	 H	12	GLN12	0.272	
177	  HA	1469.084	438.794	-1487.885	 H	12	GLN12	0.085	
178	 2HB	1469.669	438.603	-1484.859	 H	12	GLN12	0.017	
179	 3HB	1468.103	438.994	-1485.565	 H	12	GLN12	0.017	
180	 2HG	1469.072	441.147	-1486.545	 H	12	GLN12	0.035	
181	 3HG	1470.634	440.769	-1485.861	 H	12	GLN12	0.035	
182	1HE2	1468.573	441.453	-1482.577	 H	12	GLN12	0.425	
183	2HE2	1468.519	439.856	-1483.506	 H	12	GLN12	0.425	
184	   N	1471.860	437.701	-1486.508	N.am	13	ARG13	-0.348	
185	  CA	1473.300	437.769	-1486.739	C.3	13	ARG13	-0.264	
186	   C	1473.637	437.399	-1488.164	C.2	13	ARG13	0.734	
187	   O	1474.405	438.073	-1488.848	O.2	13	ARG13	-0.589	
188	  CB	1474.015	436.830	-1485.726	C.3	13	ARG13	-0.001	
189	  CG	1475.559	436.985	-1485.645	C.3	13	ARG13	0.039	
190	  CD	1476.188	435.997	-1484.648	C.3	13	ARG13	0.049	
191	  NE	1477.665	436.207	-1484.597	N.pl3	13	ARG13	-0.530	
192	  CZ	1478.514	435.515	-1483.842	C.cat	13	ARG13	0.808	
193	 NH1	1478.150	434.550	-1483.046	N.pl3	13	ARG13	-0.863	
194	 NH2	1479.773	435.816	-1483.899	N.pl3	13	ARG13	-0.863	
195	   H	1471.484	437.110	-1485.780	 H	13	ARG13	0.275	
196	  HA	1473.623	438.815	-1486.579	 H	13	ARG13	0.156	
197	 2HB	1473.750	435.779	-1485.966	 H	13	ARG13	0.033	
198	 3HB	1473.589	436.995	-1484.715	 H	13	ARG13	0.033	
199	 2HG	1475.806	438.030	-1485.364	 H	13	ARG13	0.029	
200	 3HG	1476.010	436.831	-1486.646	 H	13	ARG13	0.029	
201	 2HD	1475.945	434.957	-1484.958	 H	13	ARG13	0.069	
202	 3HD	1475.731	436.142	-1483.645	 H	13	ARG13	0.069	
203	  HE	1478.115	436.930	-1485.167	 H	13	ARG13	0.346	
204	1HH1	1477.145	434.362	-1483.049	 H	13	ARG13	0.448	
205	2HH1	1478.864	434.067	-1482.498	 H	13	ARG13	0.448	
206	1HH2	1480.039	436.575	-1484.529	 H	13	ARG13	0.448	
207	2HH2	1480.409	435.275	-1483.311	 H	13	ARG13	0.448	
208	   N	1473.102	436.344	-1488.680	N.am	14	VAL14	-0.416	
209	  CA	1473.427	435.987	-1490.057	C.3	14	VAL14	-0.087	
210	   C	1473.096	437.117	-1491.002	C.2	14	VAL14	0.597	
211	   O	1473.889	437.500	-1491.871	O.2	14	VAL14	-0.568	
212	  CB	1472.657	434.669	-1490.466	C.3	14	VAL14	0.299	
213	 CG1	1472.747	434.252	-1491.960	C.3	14	VAL14	-0.319	
214	 CG2	1473.091	433.417	-1489.667	C.3	14	VAL14	-0.319	
215	   H	1472.468	435.775	-1488.139	 H	14	VAL14	0.272	
216	  HA	1474.516	435.812	-1490.132	 H	14	VAL14	0.097	
217	  HB	1471.580	434.839	-1490.250	 H	14	VAL14	-0.030	
218	1HG1	1473.788	434.077	-1492.289	 H	14	VAL14	0.079	
219	2HG1	1472.175	433.329	-1492.173	 H	14	VAL14	0.079	
220	3HG1	1472.317	435.015	-1492.637	 H	14	VAL14	0.079	
221	1HG2	1473.003	433.574	-1488.576	 H	14	VAL14	0.079	
222	2HG2	1472.456	432.540	-1489.900	 H	14	VAL14	0.079	
223	3HG2	1474.139	433.128	-1489.872	 H	14	VAL14	0.079	
224	   N	1471.951	437.702	-1490.900	N.am	15	MET15	-0.416	
225	  CA	1471.629	438.795	-1491.813	C.3	15	MET15	-0.024	
226	   C	1472.658	439.896	-1491.724	C.2	15	MET15	0.597	
227	   O	1473.160	440.408	-1492.737	O.2	15	MET15	-0.568	
228	  CB	1470.207	439.338	-1491.504	C.3	15	MET15	0.034	
229	  CG	1469.046	438.339	-1491.697	C.3	15	MET15	0.002	
230	  SD	1467.471	439.203	-1491.583	S.3	15	MET15	-0.274	
231	  CE	1466.392	437.771	-1491.448	C.3	15	MET15	-0.054	
232	   H	1471.286	437.407	-1490.199	 H	15	MET15	0.272	
233	  HA	1471.656	438.408	-1492.849	 H	15	MET15	0.088	
234	 2HB	1470.003	440.217	-1492.146	 H	15	MET15	0.024	
235	 3HB	1470.170	439.730	-1490.468	 H	15	MET15	0.024	
236	 2HG	1469.090	437.552	-1490.920	 H	15	MET15	0.044	
237	 3HG	1469.110	437.824	-1492.674	 H	15	MET15	0.044	
238	 1HE	1466.536	437.084	-1492.300	 H	15	MET15	0.068	
239	 2HE	1466.601	437.218	-1490.515	 H	15	MET15	0.068	
240	 3HE	1465.334	438.085	-1491.431	 H	15	MET15	0.068	
241	   N	1473.026	440.316	-1490.562	N.am	16	ARG16	-0.348	
242	  CA	1474.021	441.381	-1490.477	C.3	16	ARG16	-0.264	
243	   C	1475.292	440.991	-1491.193	C.2	16	ARG16	0.734	
244	   O	1475.407	439.915	-1491.776	O.2	16	ARG16	-0.589	
245	  CB	1474.289	441.698	-1488.978	C.3	16	ARG16	-0.001	
246	  CG	1475.112	442.988	-1488.704	C.3	16	ARG16	0.039	
247	  CD	1475.361	443.207	-1487.203	C.3	16	ARG16	0.049	
248	  NE	1476.136	444.466	-1487.000	N.pl3	16	ARG16	-0.530	
249	  CZ	1476.526	444.948	-1485.824	C.cat	16	ARG16	0.808	
250	 NH1	1476.279	444.362	-1484.686	N.pl3	16	ARG16	-0.863	
251	 NH2	1477.189	446.061	-1485.804	N.pl3	16	ARG16	-0.863	
252	   H	1472.631	439.915	-1489.723	 H	16	ARG16	0.275	
253	  HA	1473.611	442.274	-1490.986	 H	16	ARG16	0.156	
254	 2HB	1474.787	440.822	-1488.512	 H	16	ARG16	0.033	
255	 3HB	1473.320	441.778	-1488.445	 H	16	ARG16	0.033	
256	 2HG	1474.581	443.859	-1489.141	 H	16	ARG16	0.029	
257	 3HG	1476.086	442.937	-1489.233	 H	16	ARG16	0.029	
258	 2HD	1475.911	442.332	-1486.790	 H	16	ARG16	0.069	
259	 3HD	1474.388	443.247	-1486.667	 H	16	ARG16	0.069	
260	  HE	1476.414	445.048	-1487.797	 H	16	ARG16	0.346	
261	1HH1	1475.754	443.489	-1484.772	 H	16	ARG16	0.448	
262	2HH1	1476.613	444.798	-1483.824	 H	16	ARG16	0.448	
263	1HH2	1477.374	446.506	-1486.706	 H	16	ARG16	0.448	
264	2HH2	1477.478	446.416	-1484.891	 H	16	ARG16	0.448	
@<TRIPOS>BOND
1 1 2 1
2 1 10 1
3 2 3 1
4 2 5 1
5 2 11 1
6 3 4 2
7 3 16 1
8 5 6 1
9 6 7 1
10 7 8 2
11 7 9 1
12 5 12 1
13 5 13 1
14 6 14 1
15 6 15 1
16 16 17 1
17 16 24 1
18 17 18 1
19 17 20 1
20 17 25 1
21 18 19 2
22 18 30 1
23 20 21 1
24 21 22 1
25 21 23 2
26 20 26 1
27 20 27 1
28 22 28 1
29 22 29 1
30 30 31 1
31 30 36 1
32 31 32 1
33 31 34 1
34 31 37 1
35 32 33 2
36 32 44 1
37 34 35 1
38 35 36 1
39 34 38 1
40 34 39 1
41 35 40 1
42 35 41 1
43 36 42 1
44 36 43 1
45 44 45 1
46 44 53 1
47 45 46 1
48 45 48 1
49 45 54 1
50 46 47 2
51 46 59 1
52 48 49 1
53 49 50 1
54 50 51 2
55 50 52 1
56 48 55 1
57 48 56 1
58 49 57 1
59 49 58 1
60 59 60 1
61 59 65 1
62 60 61 1
63 60 63 1
64 60 66 1
65 61 62 2
66 61 70 1
67 63 64 1
68 63 67 1
69 63 68 1
70 64 69 1
71 70 71 1
72 70 78 1
73 71 72 1
74 71 74 1
75 71 79 1
76 72 73 2
77 72 89 1
78 74 75 1
79 74 76 1
80 75 77 1
81 74 80 1
82 75 81 1
83 75 82 1
84 76 83 1
85 76 84 1
86 76 85 1
87 77 86 1
88 77 87 1
89 77 88 1
90 89 90 1
91 89 97 1
92 90 91 1
93 90 93 1
94 90 98 1
95 91 92 2
96 91 108 1
97 93 94 1
98 94 95 1
99 94 96 1
100 93 99 1
101 93 100 1
102 94 101 1
103 95 102 1
104 95 103 1
105 95 104 1
106 96 105 1
107 96 106 1
108 96 107 1
109 108 109 1
110 108 116 1
111 109 110 1
112 109 112 1
113 109 117 1
114 110 111 2
115 110 120 1
116 112 113 1
117 113 114 2
118 113 115 1
119 112 118 1
120 112 119 1
121 120 121 1
122 120 127 1
123 121 122 1
124 121 124 1
125 121 128 1
126 122 123 2
127 122 134 1
128 124 125 1
129 124 126 1
130 124 129 1
131 126 130 1
132 125 131 1
133 125 132 1
134 125 133 1
135 134 135 1
136 134 144 1
137 135 136 1
138 135 138 1
139 135 145 1
140 136 137 2
141 136 151 1
142 138 139 1
143 139 140 2
144 140 143 1
145 139 141 1
146 141 142 2
147 142 143 1
148 138 146 1
149 138 147 1
150 140 148 1
151 142 149 1
152 143 150 1
153 151 152 1
154 151 158 1
155 152 153 1
156 152 155 1
157 152 159 1
158 153 154 2
159 153 167 1
160 155 156 1
161 155 157 1
162 155 160 1
163 156 161 1
164 156 162 1
165 156 163 1
166 157 164 1
167 157 165 1
168 157 166 1
169 167 168 1
170 167 176 1
171 168 169 1
172 168 171 1
173 168 177 1
174 169 170 2
175 169 184 1
176 171 172 1
177 172 173 1
178 173 174 1
179 173 175 2
180 171 178 1
181 171 179 1
182 172 180 1
183 172 181 1
184 174 182 1
185 174 183 1
186 184 185 1
187 184 195 1
188 185 186 1
189 185 188 1
190 185 196 1
191 186 187 2
192 186 208 1
193 188 189 1
194 189 190 1
195 190 191 1
196 191 192 1
197 192 193 2
198 192 194 1
199 188 197 1
200 188 198 1
201 189 199 1
202 189 200 1
203 190 201 1
204 190 202 1
205 191 203 1
206 193 204 1
207 193 205 1
208 194 206 1
209 194 207 1
210 208 209 1
211 208 215 1
212 209 210 1
213 209 212 1
214 209 216 1
215 210 211 2
216 210 224 1
217 212 213 1
218 212 214 1
219 212 217 1
220 213 218 1
221 213 219 1
222 213 220 1
223 214 221 1
224 214 222 1
225 214 223 1
226 224 225 1
227 224 232 1
228 225 226 1
229 225 228 1
230 225 233 1
231 226 227 2
232 226 241 1
233 228 229 1
234 229 230 1
235 230 231 1
236 228 234 1
237 228 235 1
238 229 236 1
239 229 237 1
240 231 238 1
241 231 239 1
242 231 240 1
243 241 242 1
244 241 252 1
245 242 243 1
246 242 245 1
247 242 253 1
248 243 244 2
249 245 246 1
250 246 247 1
251 247 248 1
252 248 249 1
253 249 250 2
254 249 251 1
255 245 254 1
256 245 255 1
257 246 256 1
258 246 257 1
259 247 258 1
260 247 259 1
261 248 260 1
262 250 261 1
263 250 262 1
264 251 263 1
265 251 264 1
@<TRIPOS>SUBSTRUCTURE
1	GLU1	1	RESIDUE	1 ****	GLU
2	ASN2	16	RESIDUE	1 ****	ASN
3	PRO3	30	RESIDUE	1 ****	PRO
4	GLU4	44	RESIDUE	1 ****	GLU
5	SER5	59	RESIDUE	1 ****	SER
6	ILE6	70	RESIDUE	1 ****	ILE
7	LEU7	89	RESIDUE	1 ****	LEU
8	ASP8	108	RESIDUE	1 ****	ASP
9	THR9	120	RESIDUE	1 ****	THR
10	HIS10	134	RESIDUE	1 ****	HIS
11	VAL11	151	RESIDUE	1 ****	VAL
12	GLN12	167	RESIDUE	1 ****	GLN
13	ARG13	184	RESIDUE	1 ****	ARG
14	VAL14	208	RESIDUE	1 ****	VAL
15	MET15	224	RESIDUE	1 ****	MET
16	ARG16	241	RESIDUE	1 ****	ARG
