@<TRIPOS>MOLECULE
2-20
275 276 16              
SMALL
USER_CHARGES
@<TRIPOS>ATOM
1	   N	330.646	73.623	-310.834	N.3	1	GLU1	-0.516	
2	  CA	331.205	74.972	-310.834	C.3	1	GLU1	0.040	
3	   C	332.714	74.932	-310.834	C.2	1	GLU1	0.537	
4	   O	333.389	75.631	-311.603	O.2	1	GLU1	-0.582	
5	  CB	330.682	75.757	-309.597	C.3	1	GLU1	0.056	
6	  CG	331.157	77.242	-309.486	C.3	1	GLU1	0.014	
7	  CD	330.733	78.046	-308.271	C.2	1	GLU1	0.805	
8	 OE1	330.005	77.544	-307.393	O.co2	1	GLU1	-0.819	
9	 OE2	331.163	79.216	-308.199	O.co2	1	GLU1	-0.819	
10	   H	331.273	72.744	-310.834	 H	1	GLU1	0.294	
11	  HA	330.879	75.490	-311.754	 H	1	GLU1	0.111	
12	 2HB	330.971	75.226	-308.667	 H	1	GLU1	-0.017	
13	 3HB	329.575	75.747	-309.584	 H	1	GLU1	-0.017	
14	 2HG	330.847	77.827	-310.367	 H	1	GLU1	-0.043	
15	 3HG	332.257	77.309	-309.457	 H	1	GLU1	-0.043	
16	   N	333.318	74.146	-310.009	N.am	2	ARG2	-0.348	
17	  CA	334.778	74.108	-310.009	C.3	2	ARG2	-0.264	
18	   C	335.309	73.752	-311.378	C.2	2	ARG2	0.734	
19	   O	336.222	74.382	-311.906	O.2	2	ARG2	-0.589	
20	  CB	335.252	73.088	-308.935	C.3	2	ARG2	-0.001	
21	  CG	336.772	73.120	-308.608	C.3	2	ARG2	0.039	
22	  CD	337.160	72.059	-307.565	C.3	2	ARG2	0.049	
23	  NE	338.622	72.151	-307.276	N.pl3	2	ARG2	-0.530	
24	  CZ	339.288	71.375	-306.426	C.cat	2	ARG2	0.808	
25	 NH1	338.733	70.419	-305.735	N.pl3	2	ARG2	-0.863	
26	 NH2	340.558	71.578	-306.274	N.pl3	2	ARG2	-0.863	
27	   H	332.790	73.567	-309.373	 H	2	ARG2	0.275	
28	  HA	335.147	75.121	-309.760	 H	2	ARG2	0.156	
29	 2HB	334.953	72.069	-309.255	 H	2	ARG2	0.033	
30	 3HB	334.685	73.258	-307.997	 H	2	ARG2	0.033	
31	 2HG	337.046	74.134	-308.251	 H	2	ARG2	0.029	
32	 3HG	337.363	72.958	-309.532	 H	2	ARG2	0.029	
33	 2HD	336.895	71.050	-307.950	 H	2	ARG2	0.069	
34	 3HD	336.562	72.211	-306.641	 H	2	ARG2	0.069	
35	  HE	339.208	72.852	-307.740	 H	2	ARG2	0.346	
36	1HH1	337.730	70.311	-305.903	 H	2	ARG2	0.448	
37	2HH1	339.314	69.867	-305.102	 H	2	ARG2	0.448	
38	1HH2	340.976	72.330	-306.824	 H	2	ARG2	0.448	
39	2HH2	341.052	70.972	-305.615	 H	2	ARG2	0.448	
40	   N	334.787	72.757	-312.012	N.am	3	PRO3	-0.255	
41	  CA	335.238	72.348	-313.334	C.3	3	PRO3	-0.027	
42	   C	334.840	73.372	-314.410	C.2	3	PRO3	0.590	
43	   O	335.663	73.755	-315.242	O.2	3	PRO3	-0.575	
44	  CB	334.534	70.993	-313.503	C.3	3	PRO3	-0.007	
45	  CG	333.251	71.145	-312.672	C.3	3	PRO3	0.019	
46	  CD	333.709	71.964	-311.463	C.3	3	PRO3	0.019	
47	  HA	336.324	72.228	-313.348	 H	3	PRO3	0.064	
48	 2HB	335.158	70.212	-313.062	 H	3	PRO3	0.025	
49	 3HB	334.336	70.745	-314.548	 H	3	PRO3	0.025	
50	 2HG	332.824	70.183	-312.381	 H	3	PRO3	0.021	
51	 3HG	332.514	71.716	-313.239	 H	3	PRO3	0.021	
52	 2HD	334.099	71.314	-310.675	 H	3	PRO3	0.039	
53	 3HD	332.913	72.600	-311.069	 H	3	PRO3	0.039	
54	   N	333.635	73.831	-314.442	N.am	4	GLU4	-0.516	
55	  CA	333.274	74.802	-315.472	C.3	4	GLU4	0.040	
56	   C	334.173	76.014	-315.411	C.2	4	GLU4	0.537	
57	   O	334.699	76.493	-316.426	O.2	4	GLU4	-0.582	
58	  CB	331.786	75.221	-315.301	C.3	4	GLU4	0.056	
59	  CG	331.237	76.224	-316.366	C.3	4	GLU4	0.014	
60	  CD	329.811	76.720	-316.222	C.2	4	GLU4	0.805	
61	 OE1	329.085	76.322	-315.291	O.co2	4	GLU4	-0.819	
62	 OE2	329.420	77.549	-317.070	O.co2	4	GLU4	-0.819	
63	   H	332.951	73.524	-313.765	 H	4	GLU4	0.294	
64	  HA	333.405	74.332	-316.463	 H	4	GLU4	0.111	
65	 2HB	331.634	75.660	-314.294	 H	4	GLU4	-0.017	
66	 3HB	331.138	74.323	-315.307	 H	4	GLU4	-0.017	
67	 2HG	331.319	75.809	-317.384	 H	4	GLU4	-0.043	
68	 3HG	331.825	77.157	-316.378	 H	4	GLU4	-0.043	
69	   N	334.401	76.566	-314.268	N.am	5	SER5	-0.416	
70	  CA	335.270	77.738	-314.209	C.3	5	SER5	-0.025	
71	   C	336.629	77.433	-314.796	C.2	5	SER5	0.597	
72	   O	337.175	78.186	-315.601	O.2	5	SER5	-0.568	
73	  CB	335.382	78.270	-312.759	C.3	5	SER5	0.212	
74	  OG	336.114	77.391	-311.898	O.3	5	SER5	-0.655	
75	   H	333.984	76.194	-313.426	 H	5	SER5	0.272	
76	  HA	334.820	78.528	-314.838	 H	5	SER5	0.084	
77	 2HB	334.382	78.463	-312.325	 H	5	SER5	0.035	
78	 3HB	335.887	79.256	-312.761	 H	5	SER5	0.035	
79	  HG	335.626	76.566	-311.848	 H	5	SER5	0.428	
80	   N	337.234	76.350	-314.442	N.am	6	ILE6	-0.416	
81	  CA	338.547	76.055	-315.009	C.3	6	ILE6	-0.060	
82	   C	338.489	76.018	-316.516	C.2	6	ILE6	0.597	
83	   O	339.323	76.606	-317.221	O.2	6	ILE6	-0.568	
84	  CB	339.147	74.719	-314.409	C.3	6	ILE6	0.130	
85	 CG1	339.167	74.657	-312.848	C.3	6	ILE6	-0.043	
86	 CG2	340.589	74.418	-314.925	C.3	6	ILE6	-0.320	
87	 CD1	339.438	73.268	-312.233	C.3	6	ILE6	-0.066	
88	   H	336.806	75.715	-313.783	 H	6	ILE6	0.272	
89	  HA	339.221	76.890	-314.741	 H	6	ILE6	0.087	
90	  HB	338.490	73.893	-314.753	 H	6	ILE6	0.019	
91	2HG1	338.185	74.976	-312.452	 H	6	ILE6	0.024	
92	3HG1	339.883	75.399	-312.444	 H	6	ILE6	0.024	
93	1HG2	340.647	74.325	-316.023	 H	6	ILE6	0.088	
94	2HG2	341.311	75.200	-314.623	 H	6	ILE6	0.088	
95	3HG2	340.979	73.456	-314.546	 H	6	ILE6	0.088	
96	1HD1	338.710	72.513	-312.588	 H	6	ILE6	0.019	
97	2HD1	340.449	72.889	-312.470	 H	6	ILE6	0.019	
98	3HD1	339.362	73.297	-311.131	 H	6	ILE6	0.019	
99	   N	337.543	75.354	-317.090	N.am	7	LEU7	-0.416	
100	  CA	337.488	75.318	-318.548	C.3	7	LEU7	-0.052	
101	   C	337.415	76.714	-319.121	C.2	7	LEU7	0.597	
102	   O	338.135	77.077	-320.063	O.2	7	LEU7	-0.568	
103	  CB	336.285	74.458	-319.028	C.3	7	LEU7	-0.110	
104	  CG	336.213	72.978	-318.562	C.3	7	LEU7	0.353	
105	 CD1	335.023	72.272	-319.227	C.3	7	LEU7	-0.412	
106	 CD2	337.506	72.199	-318.854	C.3	7	LEU7	-0.412	
107	   H	336.852	74.867	-316.538	 H	7	LEU7	0.272	
108	  HA	338.430	74.879	-318.923	 H	7	LEU7	0.092	
109	 2HB	336.261	74.474	-320.136	 H	7	LEU7	0.046	
110	 3HB	335.345	74.960	-318.724	 H	7	LEU7	0.046	
111	  HG	336.043	72.970	-317.465	 H	7	LEU7	-0.036	
112	1HD1	334.066	72.781	-319.004	 H	7	LEU7	0.100	
113	2HD1	335.122	72.232	-320.328	 H	7	LEU7	0.100	
114	3HD1	334.916	71.231	-318.871	 H	7	LEU7	0.100	
115	1HD2	337.781	72.230	-319.924	 H	7	LEU7	0.100	
116	2HD2	338.360	72.611	-318.283	 H	7	LEU7	0.100	
117	3HD2	337.426	71.137	-318.558	 H	7	LEU7	0.100	
118	   N	336.577	77.554	-318.614	N.am	8	ASP8	-0.516	
119	  CA	336.506	78.903	-319.167	C.3	8	ASP8	0.038	
120	   C	337.853	79.584	-319.110	C.2	8	ASP8	0.537	
121	   O	338.325	80.189	-320.085	O.2	8	ASP8	-0.582	
122	  CB	335.428	79.742	-318.425	C.3	8	ASP8	-0.030	
123	  CG	335.209	81.163	-318.965	C.2	8	ASP8	0.799	
124	 OD1	335.272	81.362	-320.196	O.co2	8	ASP8	-0.801	
125	 OD2	335.016	82.088	-318.149	O.co2	8	ASP8	-0.801	
126	   H	335.980	77.282	-317.846	 H	8	ASP8	0.294	
127	  HA	336.223	78.826	-320.234	 H	8	ASP8	0.088	
128	 2HB	335.686	79.825	-317.353	 H	8	ASP8	-0.012	
129	 3HB	334.449	79.236	-318.457	 H	8	ASP8	-0.012	
130	   N	338.533	79.534	-318.015	N.am	9	GLU9	-0.516	
131	  CA	339.835	80.192	-317.960	C.3	9	GLU9	0.040	
132	   C	340.753	79.665	-319.037	C.2	9	GLU9	0.537	
133	   O	341.417	80.420	-319.762	O.2	9	GLU9	-0.582	
134	  CB	340.470	79.984	-316.555	C.3	9	GLU9	0.056	
135	  CG	341.852	80.677	-316.326	C.3	9	GLU9	0.014	
136	  CD	342.554	80.464	-314.998	C.2	9	GLU9	0.805	
137	 OE1	342.034	79.772	-314.102	O.co2	9	GLU9	-0.819	
138	 OE2	343.673	81.002	-314.867	O.co2	9	GLU9	-0.819	
139	   H	338.170	79.047	-317.208	 H	9	GLU9	0.294	
140	  HA	339.693	81.274	-318.135	 H	9	GLU9	0.111	
141	 2HB	340.583	78.900	-316.352	 H	9	GLU9	-0.017	
142	 3HB	339.773	80.337	-315.771	 H	9	GLU9	-0.017	
143	 2HG	341.780	81.768	-316.466	 H	9	GLU9	-0.043	
144	 3HG	342.599	80.333	-317.061	 H	9	GLU9	-0.043	
145	   N	340.850	78.390	-319.206	N.am	10	HIS10	-0.416	
146	  CA	341.738	77.879	-320.247	C.3	10	HIS10	-0.058	
147	   C	341.370	78.444	-321.598	C.2	10	HIS10	0.597	
148	   O	342.222	78.909	-322.370	O.2	10	HIS10	-0.568	
149	  CB	341.575	76.350	-320.243	C.3	10	HIS10	-0.007	
150	  CG	342.861	75.641	-319.935	C.2	10	HIS10	0.187	
151	 CD2	343.242	75.305	-318.643	C.2	10	HIS10	-0.221	
152	 ND1	343.813	75.235	-320.868	N.2	10	HIS10	-0.543	
153	 CE1	344.720	74.677	-320.045	C.2	10	HIS10	0.163	
154	 NE2	344.458	74.674	-318.710	N.pl3	10	HIS10	-0.280	
155	   H	340.320	77.754	-318.628	 H	10	HIS10	0.272	
156	  HA	342.757	78.237	-320.022	 H	10	HIS10	0.136	
157	 2HB	341.209	75.983	-321.222	 H	10	HIS10	0.037	
158	 3HB	340.820	76.013	-319.502	 H	10	HIS10	0.037	
159	 2HD	342.657	75.520	-317.753	 H	10	HIS10	0.186	
160	 1HE	345.611	74.257	-320.493	 H	10	HIS10	0.144	
161	 2HE	345.025	74.297	-317.937	 H	10	HIS10	0.334	
162	   N	340.132	78.442	-321.961	N.am	11	VAL11	-0.416	
163	  CA	339.776	78.988	-323.267	C.3	11	VAL11	-0.087	
164	   C	340.240	80.419	-323.399	C.2	11	VAL11	0.597	
165	   O	340.840	80.825	-324.403	O.2	11	VAL11	-0.568	
166	  CB	338.215	78.881	-323.486	C.3	11	VAL11	0.299	
167	 CG1	337.646	79.585	-324.748	C.3	11	VAL11	-0.319	
168	 CG2	337.691	77.427	-323.559	C.3	11	VAL11	-0.319	
169	   H	339.420	78.069	-321.350	 H	11	VAL11	0.272	
170	  HA	340.296	78.406	-324.050	 H	11	VAL11	0.097	
171	  HB	337.728	79.361	-322.610	 H	11	VAL11	-0.030	
172	1HG1	338.084	79.194	-325.686	 H	11	VAL11	0.079	
173	2HG1	336.547	79.477	-324.830	 H	11	VAL11	0.079	
174	3HG1	337.823	80.677	-324.739	 H	11	VAL11	0.079	
175	1HG2	337.982	76.839	-322.669	 H	11	VAL11	0.079	
176	2HG2	336.586	77.389	-323.601	 H	11	VAL11	0.079	
177	3HG2	338.073	76.886	-324.446	 H	11	VAL11	0.079	
178	   N	340.003	81.245	-322.437	N.am	12	GLN12	-0.416	
179	  CA	340.450	82.628	-322.564	C.3	12	GLN12	-0.003	
180	   C	341.940	82.696	-322.802	C.2	12	GLN12	0.597	
181	   O	342.427	83.405	-323.681	O.2	12	GLN12	-0.568	
182	  CB	340.060	83.395	-321.281	C.3	12	GLN12	-0.004	
183	  CG	340.419	84.917	-321.250	C.3	12	GLN12	-0.064	
184	  CD	340.117	85.730	-319.984	C.2	12	GLN12	0.695	
185	 NE2	339.550	85.153	-318.955	N.pl3	12	GLN12	-0.941	
186	 OE1	340.418	86.911	-319.907	O.2	12	GLN12	-0.609	
187	   H	339.514	80.938	-321.608	 H	12	GLN12	0.272	
188	  HA	339.950	83.084	-323.439	 H	12	GLN12	0.085	
189	 2HB	340.536	82.895	-320.412	 H	12	GLN12	0.017	
190	 3HB	338.970	83.287	-321.117	 H	12	GLN12	0.017	
191	 2HG	339.941	85.438	-322.100	 H	12	GLN12	0.035	
192	 3HG	341.502	85.060	-321.416	 H	12	GLN12	0.035	
193	1HE2	339.443	85.747	-318.132	 H	12	GLN12	0.425	
194	2HE2	339.387	84.149	-319.059	 H	12	GLN12	0.425	
195	   N	342.726	81.990	-322.062	N.am	13	ARG13	-0.348	
196	  CA	344.166	82.056	-322.293	C.3	13	ARG13	-0.264	
197	   C	344.502	81.685	-323.718	C.2	13	ARG13	0.734	
198	   O	345.270	82.358	-324.403	O.2	13	ARG13	-0.589	
199	  CB	344.880	81.118	-321.280	C.3	13	ARG13	-0.001	
200	  CG	346.425	81.272	-321.199	C.3	13	ARG13	0.039	
201	  CD	347.053	80.284	-320.202	C.3	13	ARG13	0.049	
202	  NE	348.530	80.492	-320.152	N.pl3	13	ARG13	-0.530	
203	  CZ	349.378	79.801	-319.397	C.cat	13	ARG13	0.808	
204	 NH1	349.014	78.836	-318.600	N.pl3	13	ARG13	-0.863	
205	 NH2	350.638	80.100	-319.454	N.pl3	13	ARG13	-0.863	
206	   H	342.350	81.400	-321.333	 H	13	ARG13	0.275	
207	  HA	344.490	83.102	-322.135	 H	13	ARG13	0.156	
208	 2HB	344.614	80.067	-321.519	 H	13	ARG13	0.033	
209	 3HB	344.455	81.284	-320.269	 H	13	ARG13	0.033	
210	 2HG	346.672	82.316	-320.920	 H	13	ARG13	0.029	
211	 3HG	346.875	81.116	-322.201	 H	13	ARG13	0.029	
212	 2HD	346.809	79.244	-320.511	 H	13	ARG13	0.069	
213	 3HD	346.596	80.429	-319.199	 H	13	ARG13	0.069	
214	  HE	348.980	81.215	-320.722	 H	13	ARG13	0.346	
215	1HH1	348.009	78.649	-318.602	 H	13	ARG13	0.448	
216	2HH1	349.728	78.353	-318.051	 H	13	ARG13	0.448	
217	1HH2	350.905	80.859	-320.085	 H	13	ARG13	0.448	
218	2HH2	351.273	79.559	-318.866	 H	13	ARG13	0.448	
219	   N	343.966	80.631	-324.233	N.am	14	VAL14	-0.416	
220	  CA	344.290	80.272	-325.610	C.3	14	VAL14	-0.087	
221	   C	343.959	81.402	-326.556	C.2	14	VAL14	0.597	
222	   O	344.752	81.784	-327.425	O.2	14	VAL14	-0.568	
223	  CB	343.519	78.954	-326.017	C.3	14	VAL14	0.299	
224	 CG1	343.607	78.537	-327.511	C.3	14	VAL14	-0.319	
225	 CG2	343.951	77.702	-325.217	C.3	14	VAL14	-0.319	
226	   H	343.331	80.062	-323.691	 H	14	VAL14	0.272	
227	  HA	345.379	80.096	-325.686	 H	14	VAL14	0.097	
228	  HB	342.442	79.125	-325.801	 H	14	VAL14	-0.030	
229	1HG1	344.649	78.360	-327.840	 H	14	VAL14	0.079	
230	2HG1	343.035	77.613	-327.724	 H	14	VAL14	0.079	
231	3HG1	343.178	79.299	-328.189	 H	14	VAL14	0.079	
232	1HG2	343.865	77.860	-324.127	 H	14	VAL14	0.079	
233	2HG2	343.316	76.826	-325.450	 H	14	VAL14	0.079	
234	3HG2	344.999	77.413	-325.423	 H	14	VAL14	0.079	
235	   N	342.814	81.987	-326.453	N.am	15	MET15	-0.416	
236	  CA	342.493	83.080	-327.367	C.3	15	MET15	-0.024	
237	   C	343.523	84.180	-327.279	C.2	15	MET15	0.597	
238	   O	344.024	84.692	-328.292	O.2	15	MET15	-0.568	
239	  CB	341.071	83.625	-327.057	C.3	15	MET15	0.034	
240	  CG	339.910	82.626	-327.248	C.3	15	MET15	0.002	
241	  SD	338.335	83.491	-327.133	S.3	15	MET15	-0.274	
242	  CE	337.255	82.061	-326.997	C.3	15	MET15	-0.054	
243	   H	342.150	81.694	-325.752	 H	15	MET15	0.272	
244	  HA	342.518	82.693	-328.402	 H	15	MET15	0.088	
245	 2HB	340.868	84.503	-327.699	 H	15	MET15	0.024	
246	 3HB	341.036	84.017	-326.021	 H	15	MET15	0.024	
247	 2HG	339.954	81.840	-326.471	 H	15	MET15	0.044	
248	 3HG	339.973	82.111	-328.225	 H	15	MET15	0.044	
249	 1HE	337.399	81.373	-327.849	 H	15	MET15	0.068	
250	 2HE	337.465	81.508	-326.064	 H	15	MET15	0.068	
251	 3HE	336.197	82.375	-326.979	 H	15	MET15	0.068	
252	   N	343.891	84.601	-326.117	N.am	16	ARG16	-0.348	
253	  CA	344.887	85.666	-326.033	C.3	16	ARG16	-0.264	
254	   C	346.158	85.274	-326.750	C.2	16	ARG16	0.734	
255	   O	346.272	84.198	-327.332	O.2	16	ARG16	-0.589	
256	  CB	345.157	85.983	-324.535	C.3	16	ARG16	-0.001	
257	  CG	345.982	87.273	-324.262	C.3	16	ARG16	0.039	
258	  CD	346.232	87.492	-322.761	C.3	16	ARG16	0.049	
259	  NE	347.007	88.751	-322.560	N.pl3	16	ARG16	-0.530	
260	  CZ	347.399	89.234	-321.385	C.cat	16	ARG16	0.808	
261	 NH1	347.152	88.649	-320.246	N.pl3	16	ARG16	-0.863	
262	 NH2	348.062	90.347	-321.366	N.pl3	16	ARG16	-0.863	
263	   H	343.497	84.201	-325.278	 H	16	ARG16	0.275	
264	  HA	344.478	86.558	-326.543	 H	16	ARG16	0.156	
265	 2HB	345.655	85.108	-324.069	 H	16	ARG16	0.033	
266	 3HB	344.188	86.064	-324.001	 H	16	ARG16	0.033	
267	 2HG	345.450	88.144	-324.699	 H	16	ARG16	0.029	
268	 3HG	346.955	87.221	-324.792	 H	16	ARG16	0.029	
269	 2HD	346.781	86.617	-322.348	 H	16	ARG16	0.069	
270	 3HD	345.259	87.534	-322.225	 H	16	ARG16	0.069	
271	  HE	347.285	89.333	-323.357	 H	16	ARG16	0.346	
272	1HH1	346.627	87.776	-320.331	 H	16	ARG16	0.448	
273	2HH1	347.487	89.084	-319.385	 H	16	ARG16	0.448	
274	1HH2	348.247	90.790	-322.268	 H	16	ARG16	0.448	
275	2HH2	348.353	90.702	-320.454	 H	16	ARG16	0.448	
@<TRIPOS>BOND
1 1 2 1
2 1 10 1
3 2 3 1
4 2 5 1
5 2 11 1
6 3 4 2
7 3 16 1
8 5 6 1
9 6 7 1
10 7 8 2
11 7 9 1
12 5 12 1
13 5 13 1
14 6 14 1
15 6 15 1
16 16 17 1
17 16 27 1
18 17 18 1
19 17 20 1
20 17 28 1
21 18 19 2
22 18 40 1
23 20 21 1
24 21 22 1
25 22 23 1
26 23 24 1
27 24 25 2
28 24 26 1
29 20 29 1
30 20 30 1
31 21 31 1
32 21 32 1
33 22 33 1
34 22 34 1
35 23 35 1
36 25 36 1
37 25 37 1
38 26 38 1
39 26 39 1
40 40 41 1
41 40 46 1
42 41 42 1
43 41 44 1
44 41 47 1
45 42 43 2
46 42 54 1
47 44 45 1
48 45 46 1
49 44 48 1
50 44 49 1
51 45 50 1
52 45 51 1
53 46 52 1
54 46 53 1
55 54 55 1
56 54 63 1
57 55 56 1
58 55 58 1
59 55 64 1
60 56 57 2
61 56 69 1
62 58 59 1
63 59 60 1
64 60 61 2
65 60 62 1
66 58 65 1
67 58 66 1
68 59 67 1
69 59 68 1
70 69 70 1
71 69 75 1
72 70 71 1
73 70 73 1
74 70 76 1
75 71 72 2
76 71 80 1
77 73 74 1
78 73 77 1
79 73 78 1
80 74 79 1
81 80 81 1
82 80 88 1
83 81 82 1
84 81 84 1
85 81 89 1
86 82 83 2
87 82 99 1
88 84 85 1
89 84 86 1
90 85 87 1
91 84 90 1
92 85 91 1
93 85 92 1
94 86 93 1
95 86 94 1
96 86 95 1
97 87 96 1
98 87 97 1
99 87 98 1
100 99 100 1
101 99 107 1
102 100 101 1
103 100 103 1
104 100 108 1
105 101 102 2
106 101 118 1
107 103 104 1
108 104 105 1
109 104 106 1
110 103 109 1
111 103 110 1
112 104 111 1
113 105 112 1
114 105 113 1
115 105 114 1
116 106 115 1
117 106 116 1
118 106 117 1
119 118 119 1
120 118 126 1
121 119 120 1
122 119 122 1
123 119 127 1
124 120 121 2
125 120 130 1
126 122 123 1
127 123 124 2
128 123 125 1
129 122 128 1
130 122 129 1
131 130 131 1
132 130 139 1
133 131 132 1
134 131 134 1
135 131 140 1
136 132 133 2
137 132 145 1
138 134 135 1
139 135 136 1
140 136 137 2
141 136 138 1
142 134 141 1
143 134 142 1
144 135 143 1
145 135 144 1
146 145 146 1
147 145 155 1
148 146 147 1
149 146 149 1
150 146 156 1
151 147 148 2
152 147 162 1
153 149 150 1
154 150 151 2
155 151 154 1
156 150 152 1
157 152 153 2
158 153 154 1
159 149 157 1
160 149 158 1
161 151 159 1
162 153 160 1
163 154 161 1
164 162 163 1
165 162 169 1
166 163 164 1
167 163 166 1
168 163 170 1
169 164 165 2
170 164 178 1
171 166 167 1
172 166 168 1
173 166 171 1
174 167 172 1
175 167 173 1
176 167 174 1
177 168 175 1
178 168 176 1
179 168 177 1
180 178 179 1
181 178 187 1
182 179 180 1
183 179 182 1
184 179 188 1
185 180 181 2
186 180 195 1
187 182 183 1
188 183 184 1
189 184 185 1
190 184 186 2
191 182 189 1
192 182 190 1
193 183 191 1
194 183 192 1
195 185 193 1
196 185 194 1
197 195 196 1
198 195 206 1
199 196 197 1
200 196 199 1
201 196 207 1
202 197 198 2
203 197 219 1
204 199 200 1
205 200 201 1
206 201 202 1
207 202 203 1
208 203 204 2
209 203 205 1
210 199 208 1
211 199 209 1
212 200 210 1
213 200 211 1
214 201 212 1
215 201 213 1
216 202 214 1
217 204 215 1
218 204 216 1
219 205 217 1
220 205 218 1
221 219 220 1
222 219 226 1
223 220 221 1
224 220 223 1
225 220 227 1
226 221 222 2
227 221 235 1
228 223 224 1
229 223 225 1
230 223 228 1
231 224 229 1
232 224 230 1
233 224 231 1
234 225 232 1
235 225 233 1
236 225 234 1
237 235 236 1
238 235 243 1
239 236 237 1
240 236 239 1
241 236 244 1
242 237 238 2
243 237 252 1
244 239 240 1
245 240 241 1
246 241 242 1
247 239 245 1
248 239 246 1
249 240 247 1
250 240 248 1
251 242 249 1
252 242 250 1
253 242 251 1
254 252 253 1
255 252 263 1
256 253 254 1
257 253 256 1
258 253 264 1
259 254 255 2
260 256 257 1
261 257 258 1
262 258 259 1
263 259 260 1
264 260 261 2
265 260 262 1
266 256 265 1
267 256 266 1
268 257 267 1
269 257 268 1
270 258 269 1
271 258 270 1
272 259 271 1
273 261 272 1
274 261 273 1
275 262 274 1
276 262 275 1
@<TRIPOS>SUBSTRUCTURE
1	GLU1	1	RESIDUE	1 ****	GLU
2	ARG2	16	RESIDUE	1 ****	ARG
3	PRO3	40	RESIDUE	1 ****	PRO
4	GLU4	54	RESIDUE	1 ****	GLU
5	SER5	69	RESIDUE	1 ****	SER
6	ILE6	80	RESIDUE	1 ****	ILE
7	LEU7	99	RESIDUE	1 ****	LEU
8	ASP8	118	RESIDUE	1 ****	ASP
9	GLU9	130	RESIDUE	1 ****	GLU
10	HIS10	145	RESIDUE	1 ****	HIS
11	VAL11	162	RESIDUE	1 ****	VAL
12	GLN12	178	RESIDUE	1 ****	GLN
13	ARG13	195	RESIDUE	1 ****	ARG
14	VAL14	219	RESIDUE	1 ****	VAL
15	MET15	235	RESIDUE	1 ****	MET
16	ARG16	252	RESIDUE	1 ****	ARG
