REMARK WARNING: 32 MAX_TORS EXCEEDED!!!
REMARK  64 active torsions:
REMARK  status: ('A' for Active; 'I' for Inactive)
REMARK    1  A    between atoms: N_1  and  CA_2 
REMARK    2  A    between atoms: CA_2  and  C_3 
REMARK    3  A    between atoms: CA_2  and  CB_5 
REMARK       I    between atoms: C_3  and  N_11 
REMARK    4  A    between atoms: CB_5  and  CG_6 
REMARK    5  A    between atoms: CG_6  and  CD_7 
REMARK    6  A    between atoms: N_11  and  CA_12 
REMARK    7  A    between atoms: CA_12  and  C_13 
REMARK    8  A    between atoms: CA_12  and  CB_15 
REMARK       I    between atoms: C_13  and  N_22 
REMARK    9  A    between atoms: CB_15  and  CG_16 
REMARK       I    between atoms: CG_16  and  ND2_17 
REMARK   10  A    between atoms: CA_23  and  C_24 
REMARK       I    between atoms: C_24  and  N_29 
REMARK   11  A    between atoms: N_29  and  CA_30 
REMARK   12  A    between atoms: CA_30  and  C_31 
REMARK   13  A    between atoms: CA_30  and  CB_33 
REMARK       I    between atoms: C_31  and  N_39 
REMARK   14  A    between atoms: CB_33  and  CG_34 
REMARK   15  A    between atoms: CG_34  and  CD_35 
REMARK   16  A    between atoms: N_39  and  CA_40 
REMARK   17  A    between atoms: CA_40  and  C_41 
REMARK   18  A    between atoms: CA_40  and  CB_43 
REMARK       I    between atoms: C_41  and  N_47 
REMARK   19  A    between atoms: CB_43  and  OG_44 
REMARK   20  A    between atoms: N_47  and  CA_48 
REMARK   21  A    between atoms: CA_48  and  C_49 
REMARK   22  A    between atoms: CA_48  and  CB_51 
REMARK       I    between atoms: C_49  and  N_56 
REMARK   23  A    between atoms: CB_51  and  CG1_52 
REMARK   24  A    between atoms: N_56  and  CA_57 
REMARK   25  A    between atoms: CA_57  and  C_58 
REMARK   26  A    between atoms: CA_57  and  CB_60 
REMARK       I    between atoms: C_58  and  N_65 
REMARK   27  A    between atoms: CB_60  and  CG_61 
REMARK   28  A    between atoms: N_65  and  CA_66 
REMARK   29  A    between atoms: CA_66  and  C_67 
REMARK   30  A    between atoms: CA_66  and  CB_69 
REMARK       I    between atoms: C_67  and  N_74 
REMARK   31  A    between atoms: CB_69  and  CG_70 
REMARK   32  A    between atoms: N_74  and  CA_75 
REMARK   33  A    between atoms: CA_75  and  C_76 
REMARK   34  A    between atoms: CA_75  and  CB_78 
REMARK       I    between atoms: C_76  and  N_84 
REMARK   35  A    between atoms: CB_78  and  CG_79 
REMARK   36  A    between atoms: CG_79  and  CD_80 
REMARK   37  A    between atoms: N_84  and  CA_85 
REMARK   38  A    between atoms: CA_85  and  C_86 
REMARK   39  A    between atoms: CA_85  and  CB_88 
REMARK       I    between atoms: C_86  and  N_96 
REMARK   40  A    between atoms: CB_88  and  CG_89 
REMARK   41  A    between atoms: N_96  and  CA_97 
REMARK   42  A    between atoms: CA_97  and  C_98 
REMARK   43  A    between atoms: CA_97  and  CB_100 
REMARK       I    between atoms: C_98  and  N_104 
REMARK   44  A    between atoms: N_104  and  CA_105 
REMARK   45  A    between atoms: CA_105  and  C_106 
REMARK   46  A    between atoms: CA_105  and  CB_108 
REMARK       I    between atoms: C_106  and  N_116 
REMARK   47  A    between atoms: CB_108  and  CG_109 
REMARK   48  A    between atoms: CG_109  and  CD_110 
REMARK       I    between atoms: CD_110  and  NE2_111 
REMARK   49  A    between atoms: N_116  and  CA_117 
REMARK   50  A    between atoms: CA_117  and  C_118 
REMARK       I    between atoms: C_118  and  N_122 
REMARK   51  A    between atoms: N_122  and  CA_123 
REMARK   52  A    between atoms: CA_123  and  C_124 
REMARK   53  A    between atoms: CA_123  and  CB_126 
REMARK       I    between atoms: C_124  and  N_130 
REMARK   54  A    between atoms: N_130  and  CA_131 
REMARK   55  A    between atoms: CA_131  and  C_132 
REMARK   56  A    between atoms: CA_131  and  CB_134 
REMARK       I    between atoms: C_132  and  N_139 
REMARK   57  A    between atoms: CB_134  and  CG_135 
REMARK   58  A    between atoms: CG_135  and  SD_136 
REMARK   59  A    between atoms: N_139  and  CA_140 
REMARK   60  A    between atoms: CA_140  and  C_141 
REMARK   61  A    between atoms: CA_140  and  CB_143 
REMARK   62  A    between atoms: CB_143  and  CG_144 
REMARK   63  A    between atoms: CG_144  and  CD_145 
REMARK   64  A    between atoms: CD_145  and  NE_146 
REMARK       I    between atoms: NE_146  and  CZ_147 
REMARK       I    between atoms: CZ_147  and  NH1_148 
ROOT
ATOM      1  CA  GLU d   9    2019.078 614.480-2078.815  0.00  0.00     0.177 C 
ENDROOT
BRANCH   1   2
ATOM      2  N   GLU d   9    2017.775 613.822-2078.871  0.00  0.00    -0.346 N 
ATOM      3  C   ASP d   8    2017.096 613.873-2079.967  0.00  0.00     0.241 C 
ATOM      4  O   ASP d   8    2017.569 614.479-2080.941  0.00  0.00    -0.271 OA
ATOM      5  H   GLU d   9    2017.411 613.335-2078.065  0.00  0.00     0.163 HD
BRANCH   3   6
ATOM      6  CA  ASP d   8    2015.749 613.194-2080.025  0.00  0.00     0.186 C 
BRANCH   6   7
ATOM      7  N   ASP d   8    2015.819 611.844-2079.472  0.00  0.00    -0.346 N 
ATOM      8  C   LEU d   7    2016.656 611.003-2079.979  0.00  0.00     0.241 C 
ATOM      9  O   LEU d   7    2017.377 611.366-2080.920  0.00  0.00    -0.271 OA
ATOM     10  H   ASP d   8    2015.221 611.572-2078.705  0.00  0.00     0.163 HD
BRANCH   8  11
ATOM     11  CA  LEU d   7    2016.728 609.608-2079.407  0.00  0.00     0.177 C 
BRANCH  11  12
ATOM     12  N   LEU d   7    2016.782 609.643-2077.948  0.00  0.00    -0.346 N 
ATOM     13  C   ILE d   6    2017.728 610.306-2077.374  0.00  0.00     0.241 C 
ATOM     14  O   ILE d   6    2018.563 610.894-2078.077  0.00  0.00    -0.271 OA
ATOM     15  H   LEU d   7    2016.090 609.156-2077.397  0.00  0.00     0.163 HD
BRANCH  13  16
ATOM     16  CA  ILE d   6    2017.785 610.343-2075.866  0.00  0.00     0.180 C 
BRANCH  16  17
ATOM     17  N   ILE d   6    2016.472 610.638-2075.300  0.00  0.00    -0.346 N 
ATOM     18  C   SER d   5    2015.868 611.722-2075.654  0.00  0.00     0.243 C 
ATOM     19  O   SER d   5    2016.415 612.475-2076.459  0.00  0.00    -0.271 OA
ATOM     20  H   ILE d   6    2016.043 610.004-2074.641  0.00  0.00     0.163 HD
BRANCH  18  21
ATOM     21  CA  SER d   5    2014.509 612.028-2075.068  0.00  0.00     0.200 C 
BRANCH  21  22
ATOM     22  N   SER d   5    2013.639 610.857-2075.127  0.00  0.00    -0.344 N 
ATOM     23  C   GLU d   4    2013.412 610.304-2076.270  0.00  0.00     0.241 C 
ATOM     24  O   GLU d   4    2013.938 610.783-2077.284  0.00  0.00    -0.271 OA
ATOM     25  H   SER d   5    2013.222 610.485-2074.285  0.00  0.00     0.163 HD
BRANCH  23  26
ATOM     26  CA  GLU d   4    2012.513 609.093-2076.331  0.00  0.00     0.177 C 
BRANCH  26  27
ATOM     27  N   GLU d   4    2012.873 608.122-2075.301  0.00  0.00    -0.346 N 
ATOM     28  C   PRO d   3    2014.077 607.662-2075.269  0.00  0.00     0.241 C 
ATOM     29  O   PRO d   3    2014.901 608.045-2076.100  0.00  0.00    -0.271 OA
ATOM     30  H   GLU d   4    2012.188 607.816-2074.625  0.00  0.00     0.163 HD
BRANCH  28  31
ATOM     31  CA  PRO d   3    2014.475 606.639-2074.191  0.00  0.00     0.179 C 
ATOM     32  N   PRO d   3    2014.024 607.048-2072.870  0.00  0.00    -0.337 N 
ATOM     33  C   ASN d   2    2014.545 608.043-2072.236  0.00  0.00     0.243 C 
ATOM     34  CD  PRO d   3    2012.946 606.255-2072.321  0.00  0.00     0.127 C 
ATOM     35  O   ASN d   2    2015.460 608.674-2072.765  0.00  0.00    -0.271 OA
ATOM     36  CG  PRO d   3    2012.488 605.436-2073.531  0.00  0.00     0.022 C 
ATOM     37  CB  PRO d   3    2013.771 605.284-2074.361  0.00  0.00     0.037 C 
BRANCH  33  38
ATOM     38  CA  ASN d   2    2014.014 608.399-2070.867  0.00  0.00     0.185 C 
BRANCH  38  39
ATOM     39  N   ASN d   2    2012.555 608.437-2070.867  0.00  0.00    -0.346 N 
ATOM     40  C   GLU d   1    2011.950 609.223-2071.693  0.00  0.00     0.242 C 
ATOM     41  O   GLU d   1    2012.626 609.922-2072.461  0.00  0.00    -0.271 OA
ATOM     42  H   ASN d   2    2012.027 607.858-2070.231  0.00  0.00     0.163 HD
BRANCH  40  43
ATOM     43  CA  GLU d   1    2010.441 609.263-2071.693  0.00  0.00     0.191 C 
BRANCH  43  44
ATOM     44  N   GLU d   1    2009.882 607.914-2071.693  0.00  0.00    -0.326 NA
ATOM     45  H   GLU d   1    2010.509 607.035-2071.693  0.00  0.00     0.180 HD
ENDBRANCH  43  44
BRANCH  43  46
ATOM     46  CB  GLU d   1    2009.918 610.048-2070.456  0.00  0.00     0.047 C 
BRANCH  46  47
ATOM     47  CG  GLU d   1    2010.393 611.533-2070.345  0.00  0.00     0.116 C 
BRANCH  47  48
ATOM     48  CD  GLU d   1    2009.969 612.337-2069.130  0.00  0.00     0.172 C 
ATOM     49  OE1 GLU d   1    2009.241 611.835-2068.252  0.00  0.00    -0.648 OA
ATOM     50  OE2 GLU d   1    2010.399 613.507-2069.058  0.00  0.00    -0.648 OA
ENDBRANCH  47  48
ENDBRANCH  46  47
ENDBRANCH  43  46
ENDBRANCH  40  43
ENDBRANCH  38  39
BRANCH  38  51
ATOM     51  CB  ASN d   2    2014.506 607.376-2069.803  0.00  0.00     0.137 C 
BRANCH  51  52
ATOM     52  CG  ASN d   2    2014.043 607.599-2068.360  0.00  0.00     0.217 C 
ATOM     53  ND2 ASN d   2    2014.637 608.514-2067.642  0.00  0.00    -0.370 N 
ATOM     54 21HD ASN d   2    2014.156 608.688-2066.755  0.00  0.00     0.159 HD
ATOM     55 22HD ASN d   2    2015.339 609.086-2068.111  0.00  0.00     0.159 HD
ATOM     56  OD1 ASN d   2    2013.122 606.966-2067.866  0.00  0.00    -0.274 OA
ENDBRANCH  51  52
ENDBRANCH  38  51
ENDBRANCH  33  38
ENDBRANCH  28  31
ENDBRANCH  26  27
BRANCH  26  57
ATOM     57  CB  GLU d   4    2011.024 609.512-2076.161  0.00  0.00     0.045 C 
BRANCH  57  58
ATOM     58  CG  GLU d   4    2010.476 610.515-2077.227  0.00  0.00     0.116 C 
BRANCH  58  59
ATOM     59  CD  GLU d   4    2009.050 611.012-2077.083  0.00  0.00     0.172 C 
ATOM     60  OE1 GLU d   4    2008.323 610.613-2076.153  0.00  0.00    -0.648 OA
ATOM     61  OE2 GLU d   4    2008.660 611.840-2077.932  0.00  0.00    -0.648 OA
ENDBRANCH  58  59
ENDBRANCH  57  58
ENDBRANCH  26  57
ENDBRANCH  23  26
ENDBRANCH  21  22
BRANCH  21  62
ATOM     62  CB  SER d   5    2014.621 612.560-2073.618  0.00  0.00     0.199 C 
BRANCH  62  63
ATOM     63  OG  SER d   5    2015.352 611.680-2072.757  0.00  0.00    -0.398 OA
ATOM     64  HG  SER d   5    2014.863 610.856-2072.706  0.00  0.00     0.209 HD
ENDBRANCH  62  63
ENDBRANCH  21  62
ENDBRANCH  18  21
ENDBRANCH  16  17
BRANCH  16  65
ATOM     65  CB  ILE d   6    2018.384 609.007-2075.266  0.00  0.00     0.013 C 
ATOM     66  CG2 ILE d   6    2019.826 608.705-2075.781  0.00  0.00     0.012 C 
BRANCH  65  67
ATOM     67  CG1 ILE d   6    2018.404 608.944-2073.705  0.00  0.00     0.002 C 
ATOM     68  CD1 ILE d   6    2018.673 607.555-2073.091  0.00  0.00     0.005 C 
ENDBRANCH  65  67
ENDBRANCH  16  65
ENDBRANCH  13  16
ENDBRANCH  11  12
BRANCH  11  69
ATOM     69  CB  LEU d   7    2015.524 608.748-2079.888  0.00  0.00     0.038 C 
BRANCH  69  70
ATOM     70  CG  LEU d   7    2015.451 607.269-2079.422  0.00  0.00    -0.020 C 
ATOM     71  CD1 LEU d   7    2014.261 606.563-2080.088  0.00  0.00     0.009 C 
ATOM     72  CD2 LEU d   7    2016.744 606.489-2079.713  0.00  0.00     0.009 C 
ENDBRANCH  69  70
ENDBRANCH  11  69
ENDBRANCH   8  11
ENDBRANCH   6   7
BRANCH   6  73
ATOM     73  CB  ASP d   8    2014.671 614.033-2079.283  0.00  0.00     0.147 C 
BRANCH  73  74
ATOM     74  CG  ASP d   8    2014.453 615.454-2079.823  0.00  0.00     0.175 C 
ATOM     75  OD1 ASP d   8    2014.517 615.653-2081.053  0.00  0.00    -0.648 OA
ATOM     76  OD2 ASP d   8    2014.260 616.379-2079.007  0.00  0.00    -0.648 OA
ENDBRANCH  73  74
ENDBRANCH   6  73
ENDBRANCH   3   6
ENDBRANCH   1   2
BRANCH   1  77
ATOM     77  C   GLU d   9    2019.996 613.952-2079.891  0.00  0.00     0.241 C 
ATOM     78  O   GLU d   9    2020.661 614.707-2080.615  0.00  0.00    -0.271 OA
ATOM     79  N   HIS d  10    2020.093 612.677-2080.061  0.00  0.00    -0.346 N 
ATOM     80  H   HIS d  10    2019.561 612.042-2079.483  0.00  0.00     0.163 HD
BRANCH  79  81
ATOM     81  CA  HIS d  10    2020.981 612.167-2081.102  0.00  0.00     0.182 C 
BRANCH  81  82
ATOM     82  C   HIS d  10    2020.615 612.732-2082.453  0.00  0.00     0.241 C 
ATOM     83  O   HIS d  10    2021.467 613.197-2083.224  0.00  0.00    -0.271 OA
ATOM     84  N   VAL d  11    2019.377 612.732-2082.816  0.00  0.00    -0.346 N 
ATOM     85  H   VAL d  11    2018.664 612.359-2082.206  0.00  0.00     0.163 HD
BRANCH  84  86
ATOM     86  CA  VAL d  11    2019.022 613.279-2084.123  0.00  0.00     0.180 C 
BRANCH  86  87
ATOM     87  C   VAL d  11    2019.487 614.709-2084.254  0.00  0.00     0.241 C 
ATOM     88  O   VAL d  11    2020.088 615.115-2085.256  0.00  0.00    -0.271 OA
ATOM     89  N   GLN d  12    2019.250 615.534-2083.291  0.00  0.00    -0.346 N 
ATOM     90  H   GLN d  12    2018.761 615.227-2082.462  0.00  0.00     0.163 HD
BRANCH  89  91
ATOM     91  CA  GLN d  12    2019.698 616.917-2083.417  0.00  0.00     0.177 C 
BRANCH  91  92
ATOM     92  C   GLN d  12    2021.189 616.984-2083.654  0.00  0.00     0.241 C 
ATOM     93  O   GLN d  12    2021.676 617.693-2084.531  0.00  0.00    -0.271 OA
ATOM     94  N   ALA d  13    2021.973 616.277-2082.913  0.00  0.00    -0.346 N 
ATOM     95  H   ALA d  13    2021.596 615.686-2082.186  0.00  0.00     0.163 HD
BRANCH  94  96
ATOM     96  CA  ALA d  13    2023.413 616.342-2083.144  0.00  0.00     0.172 C 
ATOM     97  CB  ALA d  13    2024.093 615.425-2082.113  0.00  0.00     0.042 C 
BRANCH  96  98
ATOM     98  C   ALA d  13    2023.750 615.972-2084.569  0.00  0.00     0.240 C 
ATOM     99  O   ALA d  13    2024.523 616.648-2085.257  0.00  0.00    -0.271 OA
ATOM    100  N   VAL d  14    2023.214 614.918-2085.084  0.00  0.00    -0.346 N 
ATOM    101  H   VAL d  14    2022.578 614.349-2084.542  0.00  0.00     0.163 HD
BRANCH 100 102
ATOM    102  CA  VAL d  14    2023.539 614.560-2086.462  0.00  0.00     0.180 C 
BRANCH 102 103
ATOM    103  C   VAL d  14    2023.209 615.690-2087.407  0.00  0.00     0.241 C 
ATOM    104  O   VAL d  14    2024.004 616.072-2088.276  0.00  0.00    -0.271 OA
ATOM    105  N   MET d  15    2022.065 616.276-2087.305  0.00  0.00    -0.346 N 
ATOM    106  H   MET d  15    2021.399 615.983-2086.604  0.00  0.00     0.163 HD
BRANCH 105 107
ATOM    107  CA  MET d  15    2021.745 617.370-2088.219  0.00  0.00     0.177 C 
BRANCH 107 108
ATOM    108  C   MET d  15    2022.776 618.469-2088.129  0.00  0.00     0.241 C 
ATOM    109  O   MET d  15    2023.279 618.981-2089.142  0.00  0.00    -0.271 OA
ATOM    110  N   ARG d  16    2023.144 618.890-2086.967  0.00  0.00    -0.347 N 
ATOM    111  H   ARG d  16    2022.749 618.489-2086.128  0.00  0.00     0.163 HD
BRANCH 110 112
ATOM    112  CA  ARG d  16    2024.141 619.953-2086.882  0.00  0.00     0.162 C 
BRANCH 112 113
ATOM    113  C   ARG d  16    2025.412 619.561-2087.598  0.00  0.00     0.219 C 
ATOM    114  O   ARG d  16    2025.525 618.485-2088.180  0.00  0.00    -0.287 OA
ENDBRANCH 112 113
BRANCH 112 115
ATOM    115  CB  ARG d  16    2024.409 620.270-2085.383  0.00  0.00     0.035 C 
BRANCH 115 116
ATOM    116  CG  ARG d  16    2025.234 621.559-2085.109  0.00  0.00     0.023 C 
BRANCH 116 117
ATOM    117  CD  ARG d  16    2025.483 621.777-2083.608  0.00  0.00     0.138 C 
BRANCH 117 118
ATOM    118  NE  ARG d  16    2026.260 623.036-2083.406  0.00  0.00    -0.227 N 
ATOM    119  CZ  ARG d  16    2026.650 623.517-2082.229  0.00  0.00     0.665 C 
ATOM    120  NH1 ARG d  16    2026.402 622.932-2081.091  0.00  0.00    -0.235 N 
ATOM    121  NH2 ARG d  16    2027.315 624.630-2082.210  0.00  0.00    -0.235 N 
ATOM    122 11HH ARG d  16    2025.876 622.059-2081.177  0.00  0.00     0.174 HD
ATOM    123 12HH ARG d  16    2026.736 623.367-2080.229  0.00  0.00     0.174 HD
ATOM    124 21HH ARG d  16    2027.501 625.073-2083.111  0.00  0.00     0.174 HD
ATOM    125 22HH ARG d  16    2027.604 624.984-2081.297  0.00  0.00     0.174 HD
ATOM    126  HE  ARG d  16    2026.539 623.617-2084.202  0.00  0.00     0.177 HD
ENDBRANCH 117 118
ENDBRANCH 116 117
ENDBRANCH 115 116
ENDBRANCH 112 115
ENDBRANCH 110 112
ENDBRANCH 107 108
BRANCH 107 127
ATOM    127  CB  MET d  15    2020.324 617.915-2087.910  0.00  0.00     0.045 C 
BRANCH 127 128
ATOM    128  CG  MET d  15    2019.162 616.918-2088.103  0.00  0.00     0.076 C 
BRANCH 128 129
ATOM    129  SD  MET d  15    2017.588 617.784-2087.989  0.00  0.00    -0.173 SA
ATOM    130  CE  MET d  15    2016.506 616.354-2087.854  0.00  0.00     0.089 C 
ENDBRANCH 128 129
ENDBRANCH 127 128
ENDBRANCH 107 127
ENDBRANCH 105 107
ENDBRANCH 102 103
BRANCH 102 131
ATOM    131  CB  VAL d  14    2022.766 613.243-2086.870  0.00  0.00     0.009 C 
ATOM    132  CG1 VAL d  14    2022.856 612.826-2088.363  0.00  0.00     0.012 C 
ATOM    133  CG2 VAL d  14    2023.198 611.990-2086.070  0.00  0.00     0.012 C 
ENDBRANCH 102 131
ENDBRANCH 100 102
ENDBRANCH  96  98
ENDBRANCH  94  96
ENDBRANCH  91  92
BRANCH  91 134
ATOM    134  CB  GLN d  12    2019.308 617.684-2082.133  0.00  0.00     0.044 C 
BRANCH 134 135
ATOM    135  CG  GLN d  12    2019.668 619.205-2082.101  0.00  0.00     0.105 C 
BRANCH 135 136
ATOM    136  CD  GLN d  12    2019.366 620.018-2080.835  0.00  0.00     0.215 C 
ATOM    137  NE2 GLN d  12    2018.798 619.441-2079.807  0.00  0.00    -0.370 N 
ATOM    138 21HE GLN d  12    2018.691 620.035-2078.983  0.00  0.00     0.159 HD
ATOM    139 22HE GLN d  12    2018.635 618.437-2079.911  0.00  0.00     0.159 HD
ATOM    140  OE1 GLN d  12    2019.668 621.199-2080.757  0.00  0.00    -0.274 OA
ENDBRANCH 135 136
ENDBRANCH 134 135
ENDBRANCH  91 134
ENDBRANCH  89  91
ENDBRANCH  86  87
BRANCH  86 141
ATOM    141  CB  VAL d  11    2017.461 613.173-2084.342  0.00  0.00     0.009 C 
ATOM    142  CG1 VAL d  11    2016.893 613.878-2085.605  0.00  0.00     0.012 C 
ATOM    143  CG2 VAL d  11    2016.936 611.719-2084.417  0.00  0.00     0.012 C 
ENDBRANCH  86 141
ENDBRANCH  84  86
ENDBRANCH  81  82
BRANCH  81 144
ATOM    144  CB  HIS d  10    2020.816 610.638-2081.098  0.00  0.00     0.095 C 
BRANCH 144 145
ATOM    145  CG  HIS d  10    2022.102 609.927-2080.790  0.00  0.00     0.053 A 
ATOM    146  CD2 HIS d  10    2022.482 609.591-2079.497  0.00  0.00     0.116 A 
ATOM    147  NE2 HIS d  10    2023.697 608.959-2079.564  0.00  0.00    -0.359 N 
ATOM    148  CE1 HIS d  10    2023.960 608.963-2080.899  0.00  0.00     0.207 A 
ATOM    149  2HE HIS d  10    2024.264 608.581-2078.791  0.00  0.00     0.166 HD
ATOM    150  ND1 HIS d  10    2023.054 609.522-2081.722  0.00  0.00    -0.247 NA
ENDBRANCH 144 145
ENDBRANCH  81 144
ENDBRANCH  79  81
ENDBRANCH   1  77
BRANCH   1 151
ATOM    151  CB  GLU d   9    2019.711 614.271-2077.409  0.00  0.00     0.045 C 
BRANCH 151 152
ATOM    152  CG  GLU d   9    2021.094 614.962-2077.179  0.00  0.00     0.116 C 
BRANCH 152 153
ATOM    153  CD  GLU d   9    2021.795 614.748-2075.851  0.00  0.00     0.172 C 
ATOM    154  OE1 GLU d   9    2021.273 614.057-2074.955  0.00  0.00    -0.648 OA
ATOM    155  OE2 GLU d   9    2022.914 615.285-2075.718  0.00  0.00    -0.648 OA
ENDBRANCH 152 153
ENDBRANCH 151 152
ENDBRANCH   1 151
TORSDOF 64
