REMARK WARNING: 32 MAX_TORS EXCEEDED!!!
REMARK  66 active torsions:
REMARK  status: ('A' for Active; 'I' for Inactive)
REMARK    1  A    between atoms: N_1  and  CA_2 
REMARK    2  A    between atoms: CA_2  and  C_3 
REMARK    3  A    between atoms: CA_2  and  CB_5 
REMARK       I    between atoms: C_3  and  N_11 
REMARK    4  A    between atoms: CB_5  and  CG_6 
REMARK    5  A    between atoms: CG_6  and  CD_7 
REMARK    6  A    between atoms: N_11  and  CA_12 
REMARK    7  A    between atoms: CA_12  and  C_13 
REMARK    8  A    between atoms: CA_12  and  CB_15 
REMARK       I    between atoms: C_13  and  N_22 
REMARK    9  A    between atoms: CB_15  and  CG_16 
REMARK       I    between atoms: CG_16  and  ND2_17 
REMARK   10  A    between atoms: CA_23  and  C_24 
REMARK       I    between atoms: C_24  and  N_29 
REMARK   11  A    between atoms: N_29  and  CA_30 
REMARK   12  A    between atoms: CA_30  and  C_31 
REMARK   13  A    between atoms: CA_30  and  CB_33 
REMARK       I    between atoms: C_31  and  N_39 
REMARK   14  A    between atoms: CB_33  and  CG_34 
REMARK   15  A    between atoms: CG_34  and  CD_35 
REMARK   16  A    between atoms: N_39  and  CA_40 
REMARK   17  A    between atoms: CA_40  and  C_41 
REMARK   18  A    between atoms: CA_40  and  CB_43 
REMARK       I    between atoms: C_41  and  N_47 
REMARK   19  A    between atoms: CB_43  and  OG_44 
REMARK   20  A    between atoms: N_47  and  CA_48 
REMARK   21  A    between atoms: CA_48  and  C_49 
REMARK   22  A    between atoms: CA_48  and  CB_51 
REMARK       I    between atoms: C_49  and  N_56 
REMARK   23  A    between atoms: CB_51  and  CG1_52 
REMARK   24  A    between atoms: N_56  and  CA_57 
REMARK   25  A    between atoms: CA_57  and  C_58 
REMARK   26  A    between atoms: CA_57  and  CB_60 
REMARK       I    between atoms: C_58  and  N_65 
REMARK   27  A    between atoms: CB_60  and  CG_61 
REMARK   28  A    between atoms: N_65  and  CA_66 
REMARK   29  A    between atoms: CA_66  and  C_67 
REMARK   30  A    between atoms: CA_66  and  CB_69 
REMARK       I    between atoms: C_67  and  N_74 
REMARK   31  A    between atoms: CB_69  and  CG_70 
REMARK   32  A    between atoms: N_74  and  CA_75 
REMARK   33  A    between atoms: CA_75  and  C_76 
REMARK   34  A    between atoms: CA_75  and  CB_78 
REMARK       I    between atoms: C_76  and  N_84 
REMARK   35  A    between atoms: CB_78  and  CG_79 
REMARK   36  A    between atoms: CG_79  and  CD_80 
REMARK   37  A    between atoms: N_84  and  CA_85 
REMARK   38  A    between atoms: CA_85  and  C_86 
REMARK   39  A    between atoms: CA_85  and  CB_88 
REMARK       I    between atoms: C_86  and  N_96 
REMARK   40  A    between atoms: CB_88  and  CG_89 
REMARK   41  A    between atoms: N_96  and  CA_97 
REMARK   42  A    between atoms: CA_97  and  C_98 
REMARK   43  A    between atoms: CA_97  and  CB_100 
REMARK       I    between atoms: C_98  and  N_104 
REMARK   44  A    between atoms: N_104  and  CA_105 
REMARK   45  A    between atoms: CA_105  and  C_106 
REMARK   46  A    between atoms: CA_105  and  CB_108 
REMARK       I    between atoms: C_106  and  N_116 
REMARK   47  A    between atoms: CB_108  and  CG_109 
REMARK   48  A    between atoms: CG_109  and  CD_110 
REMARK       I    between atoms: CD_110  and  NE2_111 
REMARK   49  A    between atoms: N_116  and  CA_117 
REMARK   50  A    between atoms: CA_117  and  C_118 
REMARK   51  A    between atoms: CA_117  and  CB_120 
REMARK       I    between atoms: C_118  and  N_132 
REMARK   52  A    between atoms: CB_120  and  CG_121 
REMARK   53  A    between atoms: N_132  and  CA_133 
REMARK   54  A    between atoms: CA_133  and  C_134 
REMARK   55  A    between atoms: CA_133  and  CB_136 
REMARK       I    between atoms: C_134  and  N_140 
REMARK   56  A    between atoms: N_140  and  CA_141 
REMARK   57  A    between atoms: CA_141  and  C_142 
REMARK   58  A    between atoms: CA_141  and  CB_144 
REMARK       I    between atoms: C_142  and  N_149 
REMARK   59  A    between atoms: CB_144  and  CG_145 
REMARK   60  A    between atoms: CG_145  and  SD_146 
REMARK   61  A    between atoms: N_149  and  CA_150 
REMARK   62  A    between atoms: CA_150  and  C_151 
REMARK   63  A    between atoms: CA_150  and  CB_153 
REMARK   64  A    between atoms: CB_153  and  CG_154 
REMARK   65  A    between atoms: CG_154  and  CD_155 
REMARK   66  A    between atoms: CD_155  and  NE_156 
REMARK       I    between atoms: NE_156  and  CZ_157 
REMARK       I    between atoms: CZ_157  and  NH1_158 
ROOT
ATOM      1  C   GLU d   9    2090.908 637.674-2159.522  0.00  0.00     0.241 C 
ATOM      2  O   GLU d   9    2091.572 638.428-2160.248  0.00  0.00    -0.271 OA
ATOM      3  N   HIS d  10    2091.004 636.399-2159.691  0.00  0.00    -0.346 N 
ATOM      4  H   HIS d  10    2090.473 635.764-2159.112  0.00  0.00     0.163 HD
ENDROOT
BRANCH   1   5
ATOM      5  CA  GLU d   9    2089.990 638.203-2158.446  0.00  0.00     0.177 C 
BRANCH   5   6
ATOM      6  N   GLU d   9    2088.687 637.546-2158.501  0.00  0.00    -0.346 N 
ATOM      7  C   ASP d   8    2088.007 637.596-2159.596  0.00  0.00     0.241 C 
ATOM      8  O   ASP d   8    2088.480 638.200-2160.571  0.00  0.00    -0.271 OA
ATOM      9  H   GLU d   9    2088.323 637.060-2157.694  0.00  0.00     0.163 HD
BRANCH   7  10
ATOM     10  CA  ASP d   8    2086.660 636.917-2159.653  0.00  0.00     0.186 C 
BRANCH  10  11
ATOM     11  N   ASP d   8    2086.730 635.567-2159.099  0.00  0.00    -0.346 N 
ATOM     12  C   LEU d   7    2087.567 634.726-2159.605  0.00  0.00     0.241 C 
ATOM     13  O   LEU d   7    2088.288 635.088-2160.547  0.00  0.00    -0.271 OA
ATOM     14  H   ASP d   8    2086.132 635.297-2158.331  0.00  0.00     0.163 HD
BRANCH  12  15
ATOM     15  CA  LEU d   7    2087.639 633.331-2159.032  0.00  0.00     0.177 C 
BRANCH  15  16
ATOM     16  N   LEU d   7    2087.694 633.367-2157.573  0.00  0.00    -0.346 N 
ATOM     17  C   ILE d   6    2088.640 634.030-2157.000  0.00  0.00     0.241 C 
ATOM     18  O   ILE d   6    2089.474 634.617-2157.704  0.00  0.00    -0.271 OA
ATOM     19  H   LEU d   7    2087.001 632.880-2157.022  0.00  0.00     0.163 HD
BRANCH  17  20
ATOM     20  CA  ILE d   6    2088.697 634.068-2155.492  0.00  0.00     0.180 C 
BRANCH  20  21
ATOM     21  N   ILE d   6    2087.384 634.363-2154.926  0.00  0.00    -0.346 N 
ATOM     22  C   SER d   5    2086.779 635.446-2155.280  0.00  0.00     0.243 C 
ATOM     23  O   SER d   5    2087.327 636.200-2156.085  0.00  0.00    -0.271 OA
ATOM     24  H   ILE d   6    2086.955 633.729-2154.267  0.00  0.00     0.163 HD
BRANCH  22  25
ATOM     25  CA  SER d   5    2085.420 635.753-2154.695  0.00  0.00     0.200 C 
BRANCH  25  26
ATOM     26  N   SER d   5    2084.551 634.581-2154.754  0.00  0.00    -0.344 N 
ATOM     27  C   GLU d   4    2084.323 634.029-2155.897  0.00  0.00     0.241 C 
ATOM     28  O   GLU d   4    2084.850 634.508-2156.911  0.00  0.00    -0.271 OA
ATOM     29  H   SER d   5    2084.133 634.210-2153.913  0.00  0.00     0.163 HD
BRANCH  27  30
ATOM     30  CA  GLU d   4    2083.424 632.818-2155.959  0.00  0.00     0.177 C 
BRANCH  30  31
ATOM     31  N   GLU d   4    2083.783 631.847-2154.929  0.00  0.00    -0.346 N 
ATOM     32  C   PRO d   3    2084.988 631.387-2154.896  0.00  0.00     0.241 C 
ATOM     33  O   PRO d   3    2085.812 631.770-2155.728  0.00  0.00    -0.271 OA
ATOM     34  H   GLU d   4    2083.099 631.541-2154.252  0.00  0.00     0.163 HD
BRANCH  32  35
ATOM     35  CA  PRO d   3    2085.386 630.363-2153.819  0.00  0.00     0.179 C 
ATOM     36  N   PRO d   3    2084.934 630.773-2152.498  0.00  0.00    -0.337 N 
ATOM     37  C   ASN d   2    2085.455 631.767-2151.864  0.00  0.00     0.243 C 
ATOM     38  CD  PRO d   3    2083.855 629.980-2151.949  0.00  0.00     0.127 C 
ATOM     39  O   ASN d   2    2086.370 632.398-2152.392  0.00  0.00    -0.271 OA
ATOM     40  CG  PRO d   3    2083.398 629.161-2153.159  0.00  0.00     0.022 C 
ATOM     41  CB  PRO d   3    2084.682 629.009-2153.989  0.00  0.00     0.037 C 
BRANCH  37  42
ATOM     42  CA  ASN d   2    2084.924 632.123-2150.495  0.00  0.00     0.185 C 
BRANCH  42  43
ATOM     43  N   ASN d   2    2083.465 632.162-2150.495  0.00  0.00    -0.346 N 
ATOM     44  C   GLU d   1    2082.860 632.948-2151.320  0.00  0.00     0.242 C 
ATOM     45  O   GLU d   1    2083.536 633.647-2152.089  0.00  0.00    -0.271 OA
ATOM     46  H   ASN d   2    2082.936 631.582-2149.859  0.00  0.00     0.163 HD
BRANCH  44  47
ATOM     47  CA  GLU d   1    2081.351 632.988-2151.320  0.00  0.00     0.191 C 
BRANCH  47  48
ATOM     48  N   GLU d   1    2080.792 631.639-2151.320  0.00  0.00    -0.326 NA
ATOM     49  H   GLU d   1    2081.419 630.760-2151.320  0.00  0.00     0.180 HD
ENDBRANCH  47  48
BRANCH  47  50
ATOM     50  CB  GLU d   1    2080.828 633.773-2150.083  0.00  0.00     0.047 C 
BRANCH  50  51
ATOM     51  CG  GLU d   1    2081.303 635.258-2149.972  0.00  0.00     0.116 C 
BRANCH  51  52
ATOM     52  CD  GLU d   1    2080.879 636.062-2148.757  0.00  0.00     0.172 C 
ATOM     53  OE1 GLU d   1    2080.151 635.560-2147.879  0.00  0.00    -0.648 OA
ATOM     54  OE2 GLU d   1    2081.309 637.232-2148.685  0.00  0.00    -0.648 OA
ENDBRANCH  51  52
ENDBRANCH  50  51
ENDBRANCH  47  50
ENDBRANCH  44  47
ENDBRANCH  42  43
BRANCH  42  55
ATOM     55  CB  ASN d   2    2085.416 631.100-2149.430  0.00  0.00     0.137 C 
BRANCH  55  56
ATOM     56  CG  ASN d   2    2084.952 631.324-2147.987  0.00  0.00     0.217 C 
ATOM     57  ND2 ASN d   2    2085.546 632.239-2147.269  0.00  0.00    -0.370 N 
ATOM     58 21HD ASN d   2    2085.065 632.412-2146.383  0.00  0.00     0.159 HD
ATOM     59 22HD ASN d   2    2086.248 632.810-2147.738  0.00  0.00     0.159 HD
ATOM     60  OD1 ASN d   2    2084.031 630.690-2147.493  0.00  0.00    -0.274 OA
ENDBRANCH  55  56
ENDBRANCH  42  55
ENDBRANCH  37  42
ENDBRANCH  32  35
ENDBRANCH  30  31
BRANCH  30  61
ATOM     61  CB  GLU d   4    2081.936 633.237-2155.789  0.00  0.00     0.045 C 
BRANCH  61  62
ATOM     62  CG  GLU d   4    2081.388 634.241-2156.855  0.00  0.00     0.116 C 
BRANCH  62  63
ATOM     63  CD  GLU d   4    2079.962 634.738-2156.712  0.00  0.00     0.172 C 
ATOM     64  OE1 GLU d   4    2079.235 634.340-2155.781  0.00  0.00    -0.648 OA
ATOM     65  OE2 GLU d   4    2079.573 635.567-2157.560  0.00  0.00    -0.648 OA
ENDBRANCH  62  63
ENDBRANCH  61  62
ENDBRANCH  30  61
ENDBRANCH  27  30
ENDBRANCH  25  26
BRANCH  25  66
ATOM     66  CB  SER d   5    2085.532 636.285-2153.245  0.00  0.00     0.199 C 
BRANCH  66  67
ATOM     67  OG  SER d   5    2086.263 635.405-2152.384  0.00  0.00    -0.398 OA
ATOM     68  HG  SER d   5    2085.774 634.580-2152.333  0.00  0.00     0.209 HD
ENDBRANCH  66  67
ENDBRANCH  25  66
ENDBRANCH  22  25
ENDBRANCH  20  21
BRANCH  20  69
ATOM     69  CB  ILE d   6    2089.296 632.731-2154.892  0.00  0.00     0.013 C 
ATOM     70  CG2 ILE d   6    2090.737 632.429-2155.407  0.00  0.00     0.012 C 
BRANCH  69  71
ATOM     71  CG1 ILE d   6    2089.315 632.669-2153.331  0.00  0.00     0.002 C 
ATOM     72  CD1 ILE d   6    2089.584 631.280-2152.716  0.00  0.00     0.005 C 
ENDBRANCH  69  71
ENDBRANCH  20  69
ENDBRANCH  17  20
ENDBRANCH  15  16
BRANCH  15  73
ATOM     73  CB  LEU d   7    2086.435 632.471-2159.512  0.00  0.00     0.038 C 
BRANCH  73  74
ATOM     74  CG  LEU d   7    2086.362 630.992-2159.046  0.00  0.00    -0.020 C 
ATOM     75  CD1 LEU d   7    2085.172 630.286-2159.711  0.00  0.00     0.009 C 
ATOM     76  CD2 LEU d   7    2087.656 630.212-2159.337  0.00  0.00     0.009 C 
ENDBRANCH  73  74
ENDBRANCH  15  73
ENDBRANCH  12  15
ENDBRANCH  10  11
BRANCH  10  77
ATOM     77  CB  ASP d   8    2085.582 637.757-2158.912  0.00  0.00     0.147 C 
BRANCH  77  78
ATOM     78  CG  ASP d   8    2085.364 639.177-2159.453  0.00  0.00     0.175 C 
ATOM     79  OD1 ASP d   8    2085.429 639.375-2160.684  0.00  0.00    -0.648 OA
ATOM     80  OD2 ASP d   8    2085.173 640.104-2158.638  0.00  0.00    -0.648 OA
ENDBRANCH  77  78
ENDBRANCH  10  77
ENDBRANCH   7  10
ENDBRANCH   5   6
BRANCH   5  81
ATOM     81  CB  GLU d   9    2090.624 637.996-2157.041  0.00  0.00     0.045 C 
BRANCH  81  82
ATOM     82  CG  GLU d   9    2092.007 638.688-2156.812  0.00  0.00     0.116 C 
BRANCH  82  83
ATOM     83  CD  GLU d   9    2092.709 638.474-2155.484  0.00  0.00     0.172 C 
ATOM     84  OE1 GLU d   9    2092.187 637.784-2154.587  0.00  0.00    -0.648 OA
ATOM     85  OE2 GLU d   9    2093.828 639.012-2155.353  0.00  0.00    -0.648 OA
ENDBRANCH  82  83
ENDBRANCH  81  82
ENDBRANCH   5  81
ENDBRANCH   1   5
BRANCH   3  86
ATOM     86  CA  HIS d  10    2091.891 635.887-2160.731  0.00  0.00     0.182 C 
BRANCH  86  87
ATOM     87  C   HIS d  10    2091.524 636.451-2162.083  0.00  0.00     0.241 C 
ATOM     88  O   HIS d  10    2092.377 636.915-2162.855  0.00  0.00    -0.271 OA
ATOM     89  N   VAL d  11    2090.286 636.451-2162.446  0.00  0.00    -0.346 N 
ATOM     90  H   VAL d  11    2089.573 636.078-2161.835  0.00  0.00     0.163 HD
BRANCH  89  91
ATOM     91  CA  VAL d  11    2089.931 636.996-2163.753  0.00  0.00     0.180 C 
BRANCH  91  92
ATOM     92  C   VAL d  11    2090.396 638.426-2163.886  0.00  0.00     0.241 C 
ATOM     93  O   VAL d  11    2090.997 638.831-2164.889  0.00  0.00    -0.271 OA
ATOM     94  N   GLN d  12    2090.160 639.253-2162.924  0.00  0.00    -0.346 N 
ATOM     95  H   GLN d  12    2089.671 638.947-2162.094  0.00  0.00     0.163 HD
BRANCH  94  96
ATOM     96  CA  GLN d  12    2090.609 640.635-2163.052  0.00  0.00     0.177 C 
BRANCH  96  97
ATOM     97  C   GLN d  12    2092.099 640.702-2163.290  0.00  0.00     0.241 C 
ATOM     98  O   GLN d  12    2092.586 641.409-2164.169  0.00  0.00    -0.271 OA
ATOM     99  N   TRP d  13    2092.883 639.995-2162.549  0.00  0.00    -0.346 N 
ATOM    100  H   TRP d  13    2092.507 639.405-2161.820  0.00  0.00     0.163 HD
BRANCH  99 101
ATOM    101  CA  TRP d  13    2094.323 640.059-2162.780  0.00  0.00     0.181 C 
BRANCH 101 102
ATOM    102  C   TRP d  13    2094.661 639.686-2164.204  0.00  0.00     0.241 C 
ATOM    103  O   TRP d  13    2095.432 640.359-2164.887  0.00  0.00    -0.271 OA
ATOM    104  N   VAL d  14    2094.125 638.632-2164.719  0.00  0.00    -0.346 N 
ATOM    105  H   VAL d  14    2093.489 638.064-2164.179  0.00  0.00     0.163 HD
BRANCH 104 106
ATOM    106  CA  VAL d  14    2094.452 638.273-2166.096  0.00  0.00     0.180 C 
BRANCH 106 107
ATOM    107  C   VAL d  14    2094.125 639.403-2167.042  0.00  0.00     0.241 C 
ATOM    108  O   VAL d  14    2094.919 639.784-2167.911  0.00  0.00    -0.271 OA
ATOM    109  N   MET d  15    2092.980 639.990-2166.942  0.00  0.00    -0.346 N 
ATOM    110  H   MET d  15    2092.314 639.697-2166.242  0.00  0.00     0.163 HD
BRANCH 109 111
ATOM    111  CA  MET d  15    2092.662 641.083-2167.857  0.00  0.00     0.177 C 
BRANCH 111 112
ATOM    112  C   MET d  15    2093.693 642.182-2167.767  0.00  0.00     0.241 C 
ATOM    113  O   MET d  15    2094.198 642.693-2168.778  0.00  0.00    -0.271 OA
ATOM    114  N   ARG d  16    2094.060 642.602-2166.604  0.00  0.00    -0.347 N 
ATOM    115  H   ARG d  16    2093.663 642.202-2165.765  0.00  0.00     0.163 HD
BRANCH 114 116
ATOM    116  CA  ARG d  16    2095.057 643.665-2166.518  0.00  0.00     0.162 C 
BRANCH 116 117
ATOM    117  C   ARG d  16    2096.328 643.272-2167.232  0.00  0.00     0.219 C 
ATOM    118  O   ARG d  16    2096.443 642.195-2167.813  0.00  0.00    -0.287 OA
ENDBRANCH 116 117
BRANCH 116 119
ATOM    119  CB  ARG d  16    2095.323 643.983-2165.019  0.00  0.00     0.035 C 
BRANCH 119 120
ATOM    120  CG  ARG d  16    2096.149 645.271-2164.744  0.00  0.00     0.023 C 
BRANCH 120 121
ATOM    121  CD  ARG d  16    2096.396 645.490-2163.243  0.00  0.00     0.138 C 
BRANCH 121 122
ATOM    122  NE  ARG d  16    2097.173 646.748-2163.040  0.00  0.00    -0.227 N 
ATOM    123  CZ  ARG d  16    2097.562 647.230-2161.864  0.00  0.00     0.665 C 
ATOM    124  NH1 ARG d  16    2097.312 646.646-2160.725  0.00  0.00    -0.235 N 
ATOM    125  NH2 ARG d  16    2098.227 648.342-2161.844  0.00  0.00    -0.235 N 
ATOM    126 11HH ARG d  16    2096.786 645.773-2160.811  0.00  0.00     0.174 HD
ATOM    127 12HH ARG d  16    2097.645 647.081-2159.864  0.00  0.00     0.174 HD
ATOM    128 21HH ARG d  16    2098.414 648.785-2162.745  0.00  0.00     0.174 HD
ATOM    129 22HH ARG d  16    2098.516 648.697-2160.930  0.00  0.00     0.174 HD
ATOM    130  HE  ARG d  16    2097.453 647.329-2163.836  0.00  0.00     0.177 HD
ENDBRANCH 121 122
ENDBRANCH 120 121
ENDBRANCH 119 120
ENDBRANCH 116 119
ENDBRANCH 114 116
ENDBRANCH 111 112
BRANCH 111 131
ATOM    131  CB  MET d  15    2091.240 641.630-2167.550  0.00  0.00     0.045 C 
BRANCH 131 132
ATOM    132  CG  MET d  15    2090.078 640.632-2167.744  0.00  0.00     0.076 C 
BRANCH 132 133
ATOM    133  SD  MET d  15    2088.505 641.500-2167.632  0.00  0.00    -0.173 SA
ATOM    134  CE  MET d  15    2087.422 640.071-2167.497  0.00  0.00     0.089 C 
ENDBRANCH 132 133
ENDBRANCH 131 132
ENDBRANCH 111 131
ENDBRANCH 109 111
ENDBRANCH 106 107
BRANCH 106 135
ATOM    135  CB  VAL d  14    2093.680 636.956-2166.505  0.00  0.00     0.009 C 
ATOM    136  CG1 VAL d  14    2093.771 636.538-2167.998  0.00  0.00     0.012 C 
ATOM    137  CG2 VAL d  14    2094.110 635.703-2165.704  0.00  0.00     0.012 C 
ENDBRANCH 106 135
ENDBRANCH 104 106
ENDBRANCH 101 102
BRANCH 101 138
ATOM    138  CB  TRP d  13    2095.039 639.088-2161.799  0.00  0.00     0.075 C 
BRANCH 138 139
ATOM    139  CG  TRP d  13    2094.931 639.475-2160.321  0.00  0.00    -0.028 A 
ATOM    140  CD2 TRP d  13    2095.643 640.437-2159.635  0.00  0.00    -0.002 A 
ATOM    141  CE3 TRP d  13    2096.689 641.304-2160.045  0.00  0.00     0.014 A 
ATOM    142  CE2 TRP d  13    2095.135 640.494-2158.314  0.00  0.00     0.042 A 
ATOM    143  CZ3 TRP d  13    2097.211 642.198-2159.110  0.00  0.00     0.001 A 
ATOM    144  CH2 TRP d  13    2096.716 642.251-2157.800  0.00  0.00     0.002 A 
ATOM    145  CZ2 TRP d  13    2095.676 641.413-2157.388  0.00  0.00     0.030 A 
ATOM    146  NE1 TRP d  13    2094.104 639.582-2158.144  0.00  0.00    -0.365 N 
ATOM    147  CD1 TRP d  13    2093.991 638.962-2159.403  0.00  0.00     0.096 A 
ATOM    148  1HE TRP d  13    2093.527 639.434-2157.309  0.00  0.00     0.165 HD
ENDBRANCH 138 139
ENDBRANCH 101 138
ENDBRANCH  99 101
ENDBRANCH  96  97
BRANCH  96 149
ATOM    149  CB  GLN d  12    2090.219 641.404-2161.770  0.00  0.00     0.044 C 
BRANCH 149 150
ATOM    150  CG  GLN d  12    2090.580 642.925-2161.739  0.00  0.00     0.105 C 
BRANCH 150 151
ATOM    151  CD  GLN d  12    2090.279 643.740-2160.475  0.00  0.00     0.215 C 
ATOM    152  NE2 GLN d  12    2089.711 643.164-2159.446  0.00  0.00    -0.370 N 
ATOM    153 21HE GLN d  12    2089.605 643.759-2158.622  0.00  0.00     0.159 HD
ATOM    154 22HE GLN d  12    2089.547 642.161-2159.548  0.00  0.00     0.159 HD
ATOM    155  OE1 GLN d  12    2090.581 644.920-2160.398  0.00  0.00    -0.274 OA
ENDBRANCH 150 151
ENDBRANCH 149 150
ENDBRANCH  96 149
ENDBRANCH  94  96
ENDBRANCH  91  92
BRANCH  91 156
ATOM    156  CB  VAL d  11    2088.370 636.890-2163.972  0.00  0.00     0.009 C 
ATOM    157  CG1 VAL d  11    2087.801 637.594-2165.235  0.00  0.00     0.012 C 
ATOM    158  CG2 VAL d  11    2087.844 635.436-2164.044  0.00  0.00     0.012 C 
ENDBRANCH  91 156
ENDBRANCH  89  91
ENDBRANCH  86  87
BRANCH  86 159
ATOM    159  CB  HIS d  10    2091.726 634.358-2160.726  0.00  0.00     0.095 C 
BRANCH 159 160
ATOM    160  CG  HIS d  10    2093.012 633.647-2160.418  0.00  0.00     0.053 A 
ATOM    161  CD2 HIS d  10    2093.393 633.313-2159.125  0.00  0.00     0.116 A 
ATOM    162  NE2 HIS d  10    2094.607 632.680-2159.192  0.00  0.00    -0.359 N 
ATOM    163  CE1 HIS d  10    2094.870 632.682-2160.527  0.00  0.00     0.207 A 
ATOM    164  2HE HIS d  10    2095.174 632.303-2158.419  0.00  0.00     0.166 HD
ATOM    165  ND1 HIS d  10    2093.963 633.240-2161.350  0.00  0.00    -0.247 NA
ENDBRANCH 159 160
ENDBRANCH  86 159
ENDBRANCH   3  86
TORSDOF 66
