@<TRIPOS>MOLECULE
3-18
266 266 16              
SMALL
USER_CHARGES
@<TRIPOS>ATOM
1	   N	504.097	116.959	-450.896	N.3	1	GLU1	-0.516	
2	  CA	504.656	118.308	-450.896	C.3	1	GLU1	0.040	
3	   C	506.165	118.268	-450.896	C.2	1	GLU1	0.537	
4	   O	506.841	118.967	-451.665	O.2	1	GLU1	-0.582	
5	  CB	504.133	119.093	-449.659	C.3	1	GLU1	0.056	
6	  CG	504.608	120.578	-449.548	C.3	1	GLU1	0.014	
7	  CD	504.184	121.382	-448.333	C.2	1	GLU1	0.805	
8	 OE1	503.456	120.880	-447.455	O.co2	1	GLU1	-0.819	
9	 OE2	504.614	122.552	-448.261	O.co2	1	GLU1	-0.819	
10	   H	504.724	116.080	-450.896	 H	1	GLU1	0.294	
11	  HA	504.330	118.826	-451.816	 H	1	GLU1	0.111	
12	 2HB	504.422	118.562	-448.729	 H	1	GLU1	-0.017	
13	 3HB	503.026	119.083	-449.646	 H	1	GLU1	-0.017	
14	 2HG	504.298	121.163	-450.429	 H	1	GLU1	-0.043	
15	 3HG	505.708	120.645	-449.519	 H	1	GLU1	-0.043	
16	   N	506.770	117.482	-450.071	N.am	2	ASN2	-0.416	
17	  CA	508.229	117.443	-450.071	C.3	2	ASN2	0.014	
18	   C	508.760	117.088	-451.440	C.2	2	ASN2	0.597	
19	   O	509.675	117.719	-451.968	O.2	2	ASN2	-0.568	
20	  CB	508.721	116.420	-449.007	C.3	2	ASN2	-0.204	
21	  CG	508.258	116.644	-447.563	C.2	2	ASN2	0.713	
22	 ND2	508.852	117.559	-446.845	N.pl3	2	ASN2	-0.919	
23	 OD1	507.337	116.010	-447.069	O.2	2	ASN2	-0.593	
24	   H	506.241	116.902	-449.434	 H	2	ASN2	0.272	
25	  HA	508.606	118.453	-449.826	 H	2	ASN2	0.105	
26	 2HB	509.826	116.362	-449.010	 H	2	ASN2	0.080	
27	 3HB	508.392	115.402	-449.292	 H	2	ASN2	0.080	
28	1HD2	508.372	117.732	-445.958	 H	2	ASN2	0.420	
29	2HD2	509.554	118.131	-447.314	 H	2	ASN2	0.420	
30	   N	508.239	116.093	-452.074	N.am	3	GLU3	-0.516	
31	  CA	508.752	115.749	-453.397	C.3	3	GLU3	0.040	
32	   C	508.658	116.927	-454.336	C.2	3	GLU3	0.537	
33	   O	509.607	117.271	-455.056	O.2	3	GLU3	-0.582	
34	  CB	507.963	114.535	-453.967	C.3	3	GLU3	0.056	
35	  CG	508.434	114.017	-455.364	C.3	3	GLU3	0.014	
36	  CD	507.668	112.874	-456.005	C.2	3	GLU3	0.805	
37	 OE1	506.701	112.345	-455.423	O.co2	3	GLU3	-0.819	
38	 OE2	508.050	112.513	-457.137	O.co2	3	GLU3	-0.819	
39	   H	507.487	115.559	-451.661	 H	3	GLU3	0.294	
40	  HA	509.818	115.474	-453.302	 H	3	GLU3	0.111	
41	 2HB	506.885	114.786	-454.031	 H	3	GLU3	-0.017	
42	 3HB	508.004	113.690	-453.253	 H	3	GLU3	-0.017	
43	 2HG	509.490	113.704	-455.339	 H	3	GLU3	-0.043	
44	 3HG	508.378	114.812	-456.125	 H	3	GLU3	-0.043	
45	   N	507.556	117.596	-454.391	N.am	4	GLU4	-0.516	
46	  CA	507.465	118.736	-455.300	C.3	4	GLU4	0.040	
47	   C	508.545	119.749	-455.007	C.2	4	GLU4	0.537	
48	   O	509.239	120.248	-455.904	O.2	4	GLU4	-0.582	
49	  CB	506.059	119.391	-455.181	C.3	4	GLU4	0.056	
50	  CG	505.792	120.600	-456.134	C.3	4	GLU4	0.014	
51	  CD	504.462	121.323	-456.027	C.2	4	GLU4	0.805	
52	 OE1	503.594	120.950	-455.215	O.co2	4	GLU4	-0.819	
53	 OE2	504.300	122.307	-456.778	O.co2	4	GLU4	-0.819	
54	   H	506.769	117.336	-453.815	 H	4	GLU4	0.294	
55	  HA	507.609	118.376	-456.334	 H	4	GLU4	0.111	
56	 2HB	505.887	119.723	-454.137	 H	4	GLU4	-0.017	
57	 3HB	505.273	118.631	-455.359	 H	4	GLU4	-0.017	
58	 2HG	505.899	120.307	-457.191	 H	4	GLU4	-0.043	
59	 3HG	506.527	121.406	-455.974	 H	4	GLU4	-0.043	
60	   N	508.752	120.106	-453.784	N.am	5	SER5	-0.416	
61	  CA	509.797	121.086	-453.501	C.3	5	SER5	-0.025	
62	   C	511.134	120.616	-454.024	C.2	5	SER5	0.597	
63	   O	511.875	121.353	-454.675	O.2	5	SER5	-0.568	
64	  CB	509.857	121.406	-451.987	C.3	5	SER5	0.212	
65	  OG	510.345	120.310	-451.205	O.3	5	SER5	-0.655	
66	   H	508.200	119.714	-453.035	 H	5	SER5	0.272	
67	  HA	509.549	122.016	-454.046	 H	5	SER5	0.084	
68	 2HB	508.868	121.721	-451.604	 H	5	SER5	0.035	
69	 3HB	510.519	122.277	-451.816	 H	5	SER5	0.035	
70	  HG	509.722	119.586	-451.305	 H	5	SER5	0.428	
71	   N	511.512	119.407	-453.780	N.am	6	ILE6	-0.416	
72	  CA	512.805	118.954	-454.286	C.3	6	ILE6	-0.060	
73	   C	512.886	119.114	-455.784	C.2	6	ILE6	0.597	
74	   O	513.871	119.625	-456.338	O.2	6	ILE6	-0.568	
75	  CB	513.111	117.468	-453.835	C.3	6	ILE6	0.130	
76	 CG1	512.971	117.211	-452.300	C.3	6	ILE6	-0.043	
77	 CG2	514.524	116.979	-454.282	C.3	6	ILE6	-0.320	
78	 CD1	512.943	115.730	-451.866	C.3	6	ILE6	-0.066	
79	   H	510.922	118.783	-453.249	 H	6	ILE6	0.272	
80	  HA	513.581	119.614	-453.857	 H	6	ILE6	0.087	
81	  HB	512.360	116.822	-454.337	 H	6	ILE6	0.019	
82	2HG1	512.023	117.650	-451.936	 H	6	ILE6	0.024	
83	3HG1	513.759	117.756	-451.746	 H	6	ILE6	0.024	
84	1HG2	514.670	117.013	-455.375	 H	6	ILE6	0.088	
85	2HG2	515.335	117.575	-453.822	 H	6	ILE6	0.088	
86	3HG2	514.708	115.923	-454.013	 H	6	ILE6	0.088	
87	1HD1	512.136	115.169	-452.373	 H	6	ILE6	0.019	
88	2HD1	513.894	115.208	-452.078	 H	6	ILE6	0.019	
89	3HD1	512.768	115.636	-450.778	 H	6	ILE6	0.019	
90	   N	511.901	118.707	-456.511	N.am	7	LEU7	-0.416	
91	  CA	511.981	118.862	-457.961	C.3	7	LEU7	-0.052	
92	   C	512.199	120.308	-458.338	C.2	7	LEU7	0.597	
93	   O	513.057	120.650	-459.166	O.2	7	LEU7	-0.568	
94	  CB	510.701	118.298	-458.642	C.3	7	LEU7	-0.110	
95	  CG	510.337	116.809	-458.391	C.3	7	LEU7	0.353	
96	 CD1	509.114	116.416	-459.232	C.3	7	LEU7	-0.412	
97	 CD2	511.503	115.853	-458.693	C.3	7	LEU7	-0.412	
98	   H	511.088	118.287	-456.084	 H	7	LEU7	0.272	
99	  HA	512.866	118.311	-458.323	 H	7	LEU7	0.092	
100	 2HB	510.787	118.455	-459.735	 H	7	LEU7	0.046	
101	 3HB	509.835	118.919	-458.339	 H	7	LEU7	0.046	
102	  HG	510.064	116.696	-457.321	 H	7	LEU7	-0.036	
103	1HD1	508.240	117.057	-459.011	 H	7	LEU7	0.100	
104	2HD1	509.310	116.495	-460.319	 H	7	LEU7	0.100	
105	3HD1	508.800	115.375	-459.033	 H	7	LEU7	0.100	
106	1HD2	511.880	115.966	-459.726	 H	7	LEU7	0.100	
107	2HD2	512.355	116.031	-458.011	 H	7	LEU7	0.100	
108	3HD2	511.216	114.794	-458.554	 H	7	LEU7	0.100	
109	   N	511.470	121.216	-457.782	N.am	8	ASP8	-0.516	
110	  CA	511.681	122.614	-458.146	C.3	8	ASP8	0.038	
111	   C	513.111	123.029	-457.898	C.2	8	ASP8	0.537	
112	   O	513.769	123.656	-458.743	O.2	8	ASP8	-0.582	
113	  CB	510.693	123.534	-457.376	C.3	8	ASP8	-0.030	
114	  CG	510.769	125.027	-457.728	C.2	8	ASP8	0.799	
115	 OD1	510.982	125.362	-458.911	O.co2	8	ASP8	-0.801	
116	 OD2	510.658	125.864	-456.808	O.co2	8	ASP8	-0.801	
117	   H	510.765	120.963	-457.105	 H	8	ASP8	0.294	
118	  HA	511.492	122.721	-459.232	 H	8	ASP8	0.088	
119	 2HB	510.857	123.437	-456.287	 H	8	ASP8	-0.012	
120	 3HB	509.651	123.221	-457.549	 H	8	ASP8	-0.012	
121	   N	513.665	122.723	-456.774	N.am	9	GLU9	-0.516	
122	  CA	515.048	123.125	-456.534	C.3	9	GLU9	0.040	
123	   C	515.963	122.578	-457.604	C.2	9	GLU9	0.537	
124	   O	516.810	123.286	-458.167	O.2	9	GLU9	-0.582	
125	  CB	515.501	122.634	-455.129	C.3	9	GLU9	0.056	
126	  CG	516.952	123.034	-454.707	C.3	9	GLU9	0.014	
127	  CD	517.478	122.535	-453.373	C.2	9	GLU9	0.805	
128	 OE1	516.764	121.843	-452.622	O.co2	9	GLU9	-0.819	
129	 OE2	518.654	122.843	-453.088	O.co2	9	GLU9	-0.819	
130	   H	513.150	122.213	-456.071	 H	9	GLU9	0.294	
131	  HA	515.107	124.228	-456.568	 H	9	GLU9	0.111	
132	 2HB	515.410	121.530	-455.071	 H	9	GLU9	-0.017	
133	 3HB	514.801	123.007	-454.356	 H	9	GLU9	-0.017	
134	 2HG	517.078	124.129	-454.699	 H	9	GLU9	-0.043	
135	 3HG	517.696	122.654	-455.425	 H	9	GLU9	-0.043	
136	   N	515.859	121.338	-457.941	N.am	10	HIS10	-0.416	
137	  CA	516.744	120.808	-458.975	C.3	10	HIS10	-0.058	
138	   C	516.608	121.592	-460.258	C.2	10	HIS10	0.597	
139	   O	517.596	121.989	-460.894	O.2	10	HIS10	-0.568	
140	  CB	516.326	119.345	-459.194	C.3	10	HIS10	-0.007	
141	  CG	517.438	118.383	-458.895	C.2	10	HIS10	0.187	
142	 CD2	517.633	117.828	-457.638	C.2	10	HIS10	-0.221	
143	 ND1	518.393	117.932	-459.804	N.2	10	HIS10	-0.543	
144	 CE1	519.110	117.123	-459.003	C.2	10	HIS10	0.163	
145	 NE2	518.725	117.002	-457.703	N.pl3	10	HIS10	-0.280	
146	   H	515.177	120.741	-457.496	 H	10	HIS10	0.272	
147	  HA	517.782	120.947	-458.630	 H	10	HIS10	0.136	
148	 2HB	515.999	119.174	-460.239	 H	10	HIS10	0.037	
149	 3HB	515.457	119.060	-458.565	 H	10	HIS10	0.037	
150	 2HD	517.009	118.032	-456.772	 H	10	HIS10	0.186	
151	 1HE	519.956	116.608	-459.438	 H	10	HIS10	0.144	
152	 2HE	519.144	116.436	-456.951	 H	10	HIS10	0.334	
153	   N	515.428	121.858	-460.706	N.am	11	VAL11	-0.416	
154	  CA	515.296	122.617	-461.947	C.3	11	VAL11	-0.087	
155	   C	516.004	123.946	-461.846	C.2	11	VAL11	0.597	
156	   O	516.758	124.358	-462.737	O.2	11	VAL11	-0.568	
157	  CB	513.767	122.820	-462.291	C.3	11	VAL11	0.299	
158	 CG1	513.448	123.765	-463.482	C.3	11	VAL11	-0.319	
159	 CG2	513.015	121.503	-462.603	C.3	11	VAL11	-0.319	
160	   H	514.607	121.546	-460.206	 H	11	VAL11	0.272	
161	  HA	515.782	122.052	-462.763	 H	11	VAL11	0.097	
162	  HB	513.286	123.267	-461.395	 H	11	VAL11	-0.030	
163	1HG1	513.902	123.420	-464.430	 H	11	VAL11	0.079	
164	2HG1	512.359	123.868	-463.657	 H	11	VAL11	0.079	
165	3HG1	513.805	124.798	-463.308	 H	11	VAL11	0.079	
166	1HG2	513.116	120.768	-461.784	 H	11	VAL11	0.079	
167	2HG2	511.928	121.671	-462.730	 H	11	VAL11	0.079	
168	3HG2	513.383	121.017	-463.526	 H	11	VAL11	0.079	
169	   N	515.819	124.675	-460.798	N.am	12	GLN12	-0.416	
170	  CA	516.503	125.961	-460.699	C.3	12	GLN12	-0.003	
171	   C	517.999	125.789	-460.817	C.2	12	GLN12	0.597	
172	   O	518.680	126.502	-461.551	O.2	12	GLN12	-0.568	
173	  CB	516.126	126.621	-459.354	C.3	12	GLN12	-0.004	
174	  CG	516.732	128.038	-459.086	C.3	12	GLN12	-0.064	
175	  CD	516.451	128.729	-457.746	C.2	12	GLN12	0.695	
176	 NE2	515.700	128.140	-456.851	N.pl3	12	GLN12	-0.941	
177	 OE1	516.938	129.818	-457.484	O.2	12	GLN12	-0.609	
178	   H	515.208	124.361	-460.056	 H	12	GLN12	0.272	
179	  HA	516.173	126.604	-461.536	 H	12	GLN12	0.085	
180	 2HB	516.426	125.939	-458.530	 H	12	GLN12	0.017	
181	 3HB	515.023	126.691	-459.286	 H	12	GLN12	0.017	
182	 2HG	516.432	128.737	-459.889	 H	12	GLN12	0.035	
183	 3HG	517.835	128.003	-459.152	 H	12	GLN12	0.035	
184	1HE2	515.616	128.638	-455.962	 H	12	GLN12	0.425	
185	2HE2	515.381	127.203	-457.104	 H	12	GLN12	0.425	
186	   N	518.579	124.867	-460.126	N.am	13	ARG13	-0.348	
187	  CA	520.026	124.702	-460.241	C.3	13	ARG13	-0.264	
188	   C	520.429	124.455	-461.675	C.2	13	ARG13	0.734	
189	   O	521.361	125.058	-462.203	O.2	13	ARG13	-0.589	
190	  CB	520.471	123.532	-459.318	C.3	13	ARG13	-0.001	
191	  CG	522.005	123.395	-459.105	C.3	13	ARG13	0.039	
192	  CD	522.359	122.195	-458.211	C.3	13	ARG13	0.049	
193	  NE	523.838	122.126	-458.025	N.pl3	13	ARG13	-0.530	
194	  CZ	524.482	121.206	-457.314	C.cat	13	ARG13	0.808	
195	 NH1	523.886	120.231	-456.687	N.pl3	13	ARG13	-0.863	
196	 NH2	525.773	121.279	-457.238	N.pl3	13	ARG13	-0.863	
197	   H	518.042	124.268	-459.516	 H	13	ARG13	0.275	
198	  HA	520.504	125.645	-459.916	 H	13	ARG13	0.156	
199	 2HB	520.056	122.584	-459.719	 H	13	ARG13	0.033	
200	 3HB	519.985	123.645	-458.327	 H	13	ARG13	0.033	
201	 2HG	522.397	124.335	-458.666	 H	13	ARG13	0.029	
202	 3HG	522.516	123.286	-460.083	 H	13	ARG13	0.029	
203	 2HD	521.974	121.262	-458.678	 H	13	ARG13	0.069	
204	 3HD	521.840	122.294	-457.234	 H	13	ARG13	0.069	
205	  HE	524.457	122.821	-458.456	 H	13	ARG13	0.346	
206	1HH1	522.868	120.230	-456.788	 H	13	ARG13	0.448	
207	2HH1	524.452	119.564	-456.160	 H	13	ARG13	0.448	
208	1HH2	526.223	122.049	-457.736	 H	13	ARG13	0.448	
209	2HH2	526.249	120.564	-456.685	 H	13	ARG13	0.448	
210	   N	519.775	123.586	-462.368	N.am	14	VAL14	-0.416	
211	  CA	520.165	123.348	-463.755	C.3	14	VAL14	-0.087	
212	   C	520.121	124.627	-464.557	C.2	14	VAL14	0.597	
213	   O	521.046	124.965	-465.305	O.2	14	VAL14	-0.568	
214	  CB	519.224	122.251	-464.396	C.3	14	VAL14	0.299	
215	 CG1	519.384	122.012	-465.922	C.3	14	VAL14	-0.319	
216	 CG2	519.361	120.852	-463.747	C.3	14	VAL14	-0.319	
217	   H	519.005	123.078	-461.958	 H	14	VAL14	0.272	
218	  HA	521.210	122.990	-463.775	 H	14	VAL14	0.097	
219	  HB	518.177	122.584	-464.236	 H	14	VAL14	-0.030	
220	1HG1	520.407	121.693	-466.196	 H	14	VAL14	0.079	
221	2HG1	518.687	121.240	-466.302	 H	14	VAL14	0.079	
222	3HG1	519.156	122.917	-466.518	 H	14	VAL14	0.079	
223	1HG2	519.199	120.888	-462.655	 H	14	VAL14	0.079	
224	2HG2	518.613	120.140	-464.144	 H	14	VAL14	0.079	
225	3HG2	520.360	120.407	-463.915	 H	14	VAL14	0.079	
226	   N	519.086	125.391	-464.458	N.am	15	MET15	-0.416	
227	  CA	519.043	126.628	-465.232	C.3	15	MET15	-0.024	
228	   C	520.230	127.506	-464.918	C.2	15	MET15	0.597	
229	   O	520.905	128.040	-465.811	O.2	15	MET15	-0.568	
230	  CB	517.710	127.377	-464.954	C.3	15	MET15	0.034	
231	  CG	516.421	126.635	-465.366	C.3	15	MET15	0.002	
232	  SD	515.011	127.748	-465.247	S.3	15	MET15	-0.274	
233	  CE	513.697	126.529	-465.388	C.3	15	MET15	-0.054	
234	   H	518.318	125.137	-463.853	 H	15	MET15	0.272	
235	  HA	519.102	126.374	-466.307	 H	15	MET15	0.088	
236	 2HB	517.721	128.350	-465.481	 H	15	MET15	0.024	
237	 3HB	517.642	127.638	-463.878	 H	15	MET15	0.024	
238	 2HG	516.257	125.764	-464.703	 H	15	MET15	0.044	
239	 3HG	516.489	126.242	-466.397	 H	15	MET15	0.044	
240	 1HE	513.804	125.937	-466.315	 H	15	MET15	0.068	
241	 2HE	513.720	125.837	-464.528	 H	15	MET15	0.068	
242	 3HE	512.711	127.024	-465.404	 H	15	MET15	0.068	
243	   N	520.551	127.707	-463.685	N.am	16	ARG16	-0.348	
244	  CA	521.700	128.557	-463.383	C.3	16	ARG16	-0.264	
245	   C	522.949	128.034	-464.053	C.2	16	ARG16	0.734	
246	   O	522.935	127.035	-464.768	O.2	16	ARG16	-0.589	
247	  CB	521.874	128.633	-461.839	C.3	16	ARG16	-0.001	
248	  CG	522.874	129.710	-461.332	C.3	16	ARG16	0.039	
249	  CD	523.013	129.693	-459.801	C.3	16	ARG16	0.049	
250	  NE	523.967	130.758	-459.371	N.pl3	16	ARG16	-0.530	
251	  CZ	524.319	131.013	-458.115	C.cat	16	ARG16	0.808	
252	 NH1	523.870	130.346	-457.089	N.pl3	16	ARG16	-0.863	
253	 NH2	525.156	131.978	-457.894	N.pl3	16	ARG16	-0.863	
254	   H	520.017	127.283	-462.940	 H	16	ARG16	0.275	
255	  HA	521.497	129.564	-463.792	 H	16	ARG16	0.156	
256	 2HB	522.170	127.631	-461.464	 H	16	ARG16	0.033	
257	 3HB	520.886	128.819	-461.371	 H	16	ARG16	0.033	
258	 2HG	522.542	130.709	-461.681	 H	16	ARG16	0.029	
259	 3HG	523.871	129.549	-461.791	 H	16	ARG16	0.029	
260	 2HD	523.365	128.690	-459.474	 H	16	ARG16	0.069	
261	 3HD	522.014	129.843	-459.336	 H	16	ARG16	0.069	
262	  HE	524.414	131.374	-460.058	 H	16	ARG16	0.346	
263	1HH1	523.215	129.598	-457.332	 H	16	ARG16	0.448	
264	2HH1	524.189	130.604	-456.154	 H	16	ARG16	0.448	
265	1HH2	525.498	132.488	-458.710	 H	16	ARG16	0.448	
266	2HH2	525.413	132.159	-456.923	 H	16	ARG16	0.448	
@<TRIPOS>BOND
1 1 2 1
2 1 10 1
3 2 3 1
4 2 5 1
5 2 11 1
6 3 4 2
7 3 16 1
8 5 6 1
9 6 7 1
10 7 8 2
11 7 9 1
12 5 12 1
13 5 13 1
14 6 14 1
15 6 15 1
16 16 17 1
17 16 24 1
18 17 18 1
19 17 20 1
20 17 25 1
21 18 19 2
22 18 30 1
23 20 21 1
24 21 22 1
25 21 23 2
26 20 26 1
27 20 27 1
28 22 28 1
29 22 29 1
30 30 31 1
31 30 39 1
32 31 32 1
33 31 34 1
34 31 40 1
35 32 33 2
36 32 45 1
37 34 35 1
38 35 36 1
39 36 37 2
40 36 38 1
41 34 41 1
42 34 42 1
43 35 43 1
44 35 44 1
45 45 46 1
46 45 54 1
47 46 47 1
48 46 49 1
49 46 55 1
50 47 48 2
51 47 60 1
52 49 50 1
53 50 51 1
54 51 52 2
55 51 53 1
56 49 56 1
57 49 57 1
58 50 58 1
59 50 59 1
60 60 61 1
61 60 66 1
62 61 62 1
63 61 64 1
64 61 67 1
65 62 63 2
66 62 71 1
67 64 65 1
68 64 68 1
69 64 69 1
70 65 70 1
71 71 72 1
72 71 79 1
73 72 73 1
74 72 75 1
75 72 80 1
76 73 74 2
77 73 90 1
78 75 76 1
79 75 77 1
80 76 78 1
81 75 81 1
82 76 82 1
83 76 83 1
84 77 84 1
85 77 85 1
86 77 86 1
87 78 87 1
88 78 88 1
89 78 89 1
90 90 91 1
91 90 98 1
92 91 92 1
93 91 94 1
94 91 99 1
95 92 93 2
96 92 109 1
97 94 95 1
98 95 96 1
99 95 97 1
100 94 100 1
101 94 101 1
102 95 102 1
103 96 103 1
104 96 104 1
105 96 105 1
106 97 106 1
107 97 107 1
108 97 108 1
109 109 110 1
110 109 117 1
111 110 111 1
112 110 113 1
113 110 118 1
114 111 112 2
115 111 121 1
116 113 114 1
117 114 115 2
118 114 116 1
119 113 119 1
120 113 120 1
121 121 122 1
122 121 130 1
123 122 123 1
124 122 125 1
125 122 131 1
126 123 124 2
127 123 136 1
128 125 126 1
129 126 127 1
130 127 128 2
131 127 129 1
132 125 132 1
133 125 133 1
134 126 134 1
135 126 135 1
136 136 137 1
137 136 146 1
138 137 138 1
139 137 140 1
140 137 147 1
141 138 139 2
142 138 153 1
143 140 141 1
144 141 142 2
145 142 145 1
146 141 143 1
147 143 144 2
148 144 145 1
149 140 148 1
150 140 149 1
151 142 150 1
152 144 151 1
153 145 152 1
154 153 154 1
155 153 160 1
156 154 155 1
157 154 157 1
158 154 161 1
159 155 156 2
160 155 169 1
161 157 158 1
162 157 159 1
163 157 162 1
164 158 163 1
165 158 164 1
166 158 165 1
167 159 166 1
168 159 167 1
169 159 168 1
170 169 170 1
171 169 178 1
172 170 171 1
173 170 173 1
174 170 179 1
175 171 172 2
176 171 186 1
177 173 174 1
178 174 175 1
179 175 176 1
180 175 177 2
181 173 180 1
182 173 181 1
183 174 182 1
184 174 183 1
185 176 184 1
186 176 185 1
187 186 187 1
188 186 197 1
189 187 188 1
190 187 190 1
191 187 198 1
192 188 189 2
193 188 210 1
194 190 191 1
195 191 192 1
196 192 193 1
197 193 194 1
198 194 195 2
199 194 196 1
200 190 199 1
201 190 200 1
202 191 201 1
203 191 202 1
204 192 203 1
205 192 204 1
206 193 205 1
207 195 206 1
208 195 207 1
209 196 208 1
210 196 209 1
211 210 211 1
212 210 217 1
213 211 212 1
214 211 214 1
215 211 218 1
216 212 213 2
217 212 226 1
218 214 215 1
219 214 216 1
220 214 219 1
221 215 220 1
222 215 221 1
223 215 222 1
224 216 223 1
225 216 224 1
226 216 225 1
227 226 227 1
228 226 234 1
229 227 228 1
230 227 230 1
231 227 235 1
232 228 229 2
233 228 243 1
234 230 231 1
235 231 232 1
236 232 233 1
237 230 236 1
238 230 237 1
239 231 238 1
240 231 239 1
241 233 240 1
242 233 241 1
243 233 242 1
244 243 244 1
245 243 254 1
246 244 245 1
247 244 247 1
248 244 255 1
249 245 246 2
250 247 248 1
251 248 249 1
252 249 250 1
253 250 251 1
254 251 252 2
255 251 253 1
256 247 256 1
257 247 257 1
258 248 258 1
259 248 259 1
260 249 260 1
261 249 261 1
262 250 262 1
263 252 263 1
264 252 264 1
265 253 265 1
266 253 266 1
@<TRIPOS>SUBSTRUCTURE
1	GLU1	1	RESIDUE	1 ****	GLU
2	ASN2	16	RESIDUE	1 ****	ASN
3	GLU3	30	RESIDUE	1 ****	GLU
4	GLU4	45	RESIDUE	1 ****	GLU
5	SER5	60	RESIDUE	1 ****	SER
6	ILE6	71	RESIDUE	1 ****	ILE
7	LEU7	90	RESIDUE	1 ****	LEU
8	ASP8	109	RESIDUE	1 ****	ASP
9	GLU9	121	RESIDUE	1 ****	GLU
10	HIS10	136	RESIDUE	1 ****	HIS
11	VAL11	153	RESIDUE	1 ****	VAL
12	GLN12	169	RESIDUE	1 ****	GLN
13	ARG13	186	RESIDUE	1 ****	ARG
14	VAL14	210	RESIDUE	1 ****	VAL
15	MET15	226	RESIDUE	1 ****	MET
16	ARG16	243	RESIDUE	1 ****	ARG
