@<TRIPOS>MOLECULE
4-14
264 265 16              
SMALL
USER_CHARGES
@<TRIPOS>ATOM
1	   N	639.265	158.920	-588.596	N.3	1	GLU1	-0.516	
2	  CA	639.824	160.269	-588.596	C.3	1	GLU1	0.040	
3	   C	641.333	160.229	-588.596	C.2	1	GLU1	0.537	
4	   O	642.009	160.928	-589.364	O.2	1	GLU1	-0.582	
5	  CB	639.301	161.054	-587.359	C.3	1	GLU1	0.056	
6	  CG	639.776	162.539	-587.247	C.3	1	GLU1	0.014	
7	  CD	639.352	163.343	-586.033	C.2	1	GLU1	0.805	
8	 OE1	638.624	162.841	-585.155	O.co2	1	GLU1	-0.819	
9	 OE2	639.782	164.513	-585.961	O.co2	1	GLU1	-0.819	
10	   H	639.892	158.041	-588.596	 H	1	GLU1	0.294	
11	  HA	639.498	160.787	-589.516	 H	1	GLU1	0.111	
12	 2HB	639.590	160.523	-586.429	 H	1	GLU1	-0.017	
13	 3HB	638.194	161.044	-587.346	 H	1	GLU1	-0.017	
14	 2HG	639.466	163.124	-588.129	 H	1	GLU1	-0.043	
15	 3HG	640.876	162.606	-587.219	 H	1	GLU1	-0.043	
16	   N	641.937	159.443	-587.770	N.am	2	ASN2	-0.416	
17	  CA	643.397	159.405	-587.770	C.3	2	ASN2	0.014	
18	   C	643.928	159.049	-589.139	C.2	2	ASN2	0.597	
19	   O	644.843	159.680	-589.668	O.2	2	ASN2	-0.568	
20	  CB	643.889	158.382	-586.706	C.3	2	ASN2	-0.204	
21	  CG	643.426	158.606	-585.263	C.2	2	ASN2	0.713	
22	 ND2	644.020	159.521	-584.545	N.pl3	2	ASN2	-0.919	
23	 OD1	642.505	157.972	-584.769	O.2	2	ASN2	-0.593	
24	   H	641.409	158.864	-587.134	 H	2	ASN2	0.272	
25	  HA	643.774	160.415	-587.525	 H	2	ASN2	0.105	
26	 2HB	644.993	158.323	-586.710	 H	2	ASN2	0.080	
27	 3HB	643.560	157.364	-586.992	 H	2	ASN2	0.080	
28	1HD2	643.539	159.694	-583.658	 H	2	ASN2	0.420	
29	2HD2	644.722	160.092	-585.014	 H	2	ASN2	0.420	
30	   N	643.407	158.054	-589.773	N.am	3	PRO3	-0.255	
31	  CA	643.859	157.645	-591.095	C.3	3	PRO3	-0.027	
32	   C	643.460	158.669	-592.172	C.2	3	PRO3	0.590	
33	   O	644.284	159.052	-593.003	O.2	3	PRO3	-0.575	
34	  CB	643.155	156.290	-591.264	C.3	3	PRO3	-0.007	
35	  CG	641.871	156.442	-590.434	C.3	3	PRO3	0.019	
36	  CD	642.329	157.261	-589.224	C.3	3	PRO3	0.019	
37	  HA	644.944	157.525	-591.108	 H	3	PRO3	0.064	
38	 2HB	643.778	155.509	-590.823	 H	3	PRO3	0.025	
39	 3HB	642.957	156.042	-592.309	 H	3	PRO3	0.025	
40	 2HG	641.444	155.480	-590.143	 H	3	PRO3	0.021	
41	 3HG	641.134	157.013	-591.001	 H	3	PRO3	0.021	
42	 2HD	642.718	156.611	-588.437	 H	3	PRO3	0.039	
43	 3HD	641.532	157.897	-588.831	 H	3	PRO3	0.039	
44	   N	642.255	159.128	-592.204	N.am	4	THR4	-0.416	
45	  CA	641.896	160.099	-593.233	C.3	4	THR4	-0.039	
46	   C	642.795	161.310	-593.173	C.2	4	THR4	0.597	
47	   O	643.310	161.779	-594.168	O.2	4	THR4	-0.568	
48	  CB	640.393	160.517	-593.095	C.3	4	THR4	0.365	
49	 CG2	639.874	161.551	-594.116	C.3	4	THR4	-0.244	
50	 OG1	639.544	159.389	-593.265	O.3	4	THR4	-0.676	
51	   H	641.571	158.822	-591.527	 H	4	THR4	0.272	
52	  HA	642.044	159.628	-594.222	 H	4	THR4	0.101	
53	  HB	640.238	160.926	-592.073	 H	4	THR4	0.004	
54	 1HG	638.650	159.701	-593.098	 H	4	THR4	0.410	
55	1HG2	638.801	161.778	-593.970	 H	4	THR4	0.064	
56	2HG2	640.399	162.521	-594.041	 H	4	THR4	0.064	
57	3HG2	639.994	161.196	-595.157	 H	4	THR4	0.064	
58	   N	643.023	161.864	-592.030	N.am	5	SER5	-0.416	
59	  CA	643.892	163.036	-591.973	C.3	5	SER5	-0.025	
60	   C	645.251	162.730	-592.559	C.2	5	SER5	0.597	
61	   O	645.797	163.483	-593.365	O.2	5	SER5	-0.568	
62	  CB	644.004	163.570	-590.523	C.3	5	SER5	0.212	
63	  OG	644.736	162.692	-589.662	O.3	5	SER5	-0.655	
64	   H	642.606	161.493	-591.188	 H	5	SER5	0.272	
65	  HA	643.442	163.825	-592.603	 H	5	SER5	0.084	
66	 2HB	643.004	163.764	-590.090	 H	5	SER5	0.035	
67	 3HB	644.509	164.556	-590.527	 H	5	SER5	0.035	
68	  HG	644.247	161.867	-589.610	 H	5	SER5	0.428	
69	   N	645.856	161.648	-592.204	N.am	6	ILE6	-0.416	
70	  CA	647.169	161.353	-592.770	C.3	6	ILE6	-0.060	
71	   C	647.111	161.313	-594.278	C.2	6	ILE6	0.597	
72	   O	647.946	161.901	-594.983	O.2	6	ILE6	-0.568	
73	  CB	647.769	160.017	-592.169	C.3	6	ILE6	0.130	
74	 CG1	647.789	159.957	-590.608	C.3	6	ILE6	-0.043	
75	 CG2	649.210	159.715	-592.684	C.3	6	ILE6	-0.320	
76	 CD1	648.060	158.568	-589.991	C.3	6	ILE6	-0.066	
77	   H	645.428	161.014	-591.544	 H	6	ILE6	0.272	
78	  HA	647.843	162.187	-592.504	 H	6	ILE6	0.087	
79	  HB	647.112	159.191	-592.512	 H	6	ILE6	0.019	
80	2HG1	646.807	160.277	-590.212	 H	6	ILE6	0.024	
81	3HG1	648.505	160.699	-590.204	 H	6	ILE6	0.024	
82	1HG2	649.269	159.621	-593.783	 H	6	ILE6	0.088	
83	2HG2	649.932	160.498	-592.383	 H	6	ILE6	0.088	
84	3HG2	649.601	158.754	-592.305	 H	6	ILE6	0.088	
85	1HD1	647.332	157.814	-590.345	 H	6	ILE6	0.019	
86	2HD1	649.070	158.190	-590.227	 H	6	ILE6	0.019	
87	3HD1	647.984	158.599	-588.889	 H	6	ILE6	0.019	
88	   N	646.165	160.649	-594.851	N.am	7	LEU7	-0.416	
89	  CA	646.110	160.611	-596.309	C.3	7	LEU7	-0.052	
90	   C	646.037	162.006	-596.883	C.2	7	LEU7	0.597	
91	   O	646.757	162.368	-597.825	O.2	7	LEU7	-0.568	
92	  CB	644.907	159.750	-596.788	C.3	7	LEU7	-0.110	
93	  CG	644.835	158.271	-596.320	C.3	7	LEU7	0.353	
94	 CD1	643.645	157.564	-596.984	C.3	7	LEU7	-0.412	
95	 CD2	646.129	157.492	-596.611	C.3	7	LEU7	-0.412	
96	   H	645.474	160.162	-594.298	 H	7	LEU7	0.272	
97	  HA	647.052	160.171	-596.683	 H	7	LEU7	0.092	
98	 2HB	644.883	159.765	-597.895	 H	7	LEU7	0.046	
99	 3HB	643.967	160.253	-596.484	 H	7	LEU7	0.046	
100	  HG	644.666	158.264	-595.223	 H	7	LEU7	-0.036	
101	1HD1	642.688	158.073	-596.762	 H	7	LEU7	0.100	
102	2HD1	643.744	157.523	-598.085	 H	7	LEU7	0.100	
103	3HD1	643.539	156.523	-596.627	 H	7	LEU7	0.100	
104	1HD2	646.403	157.521	-597.681	 H	7	LEU7	0.100	
105	2HD2	646.982	157.904	-596.041	 H	7	LEU7	0.100	
106	3HD2	646.048	156.430	-596.314	 H	7	LEU7	0.100	
107	   N	645.200	162.847	-596.377	N.am	8	ASP8	-0.516	
108	  CA	645.128	164.196	-596.932	C.3	8	ASP8	0.038	
109	   C	646.475	164.876	-596.876	C.2	8	ASP8	0.537	
110	   O	646.947	165.481	-597.851	O.2	8	ASP8	-0.582	
111	  CB	644.050	165.035	-596.190	C.3	8	ASP8	-0.030	
112	  CG	643.831	166.455	-596.732	C.2	8	ASP8	0.799	
113	 OD1	643.894	166.653	-597.963	O.co2	8	ASP8	-0.801	
114	 OD2	643.638	167.382	-595.917	O.co2	8	ASP8	-0.801	
115	   H	644.602	162.576	-595.609	 H	8	ASP8	0.294	
116	  HA	644.845	164.117	-597.999	 H	8	ASP8	0.088	
117	 2HB	644.308	165.119	-595.119	 H	8	ASP8	-0.012	
118	 3HB	643.072	164.529	-596.222	 H	8	ASP8	-0.012	
119	   N	647.155	164.828	-595.781	N.am	9	GLU9	-0.516	
120	  CA	648.457	165.486	-595.727	C.3	9	GLU9	0.040	
121	   C	649.375	164.958	-596.802	C.2	9	GLU9	0.537	
122	   O	650.039	165.711	-597.529	O.2	9	GLU9	-0.582	
123	  CB	649.092	165.280	-594.321	C.3	9	GLU9	0.056	
124	  CG	650.474	165.973	-594.093	C.3	9	GLU9	0.014	
125	  CD	651.177	165.761	-592.765	C.2	9	GLU9	0.805	
126	 OE1	650.656	165.071	-591.868	O.co2	9	GLU9	-0.819	
127	 OE2	652.296	166.300	-592.634	O.co2	9	GLU9	-0.819	
128	   H	646.792	164.342	-594.973	 H	9	GLU9	0.294	
129	  HA	648.315	166.567	-595.903	 H	9	GLU9	0.111	
130	 2HB	649.205	164.196	-594.117	 H	9	GLU9	-0.017	
131	 3HB	648.395	165.634	-593.537	 H	9	GLU9	-0.017	
132	 2HG	650.402	167.064	-594.234	 H	9	GLU9	-0.043	
133	 3HG	651.221	165.628	-594.827	 H	9	GLU9	-0.043	
134	   N	649.472	163.682	-596.971	N.am	10	HIS10	-0.416	
135	  CA	650.360	163.170	-598.011	C.3	10	HIS10	-0.058	
136	   C	649.992	163.733	-599.362	C.2	10	HIS10	0.597	
137	   O	650.844	164.198	-600.135	O.2	10	HIS10	-0.568	
138	  CB	650.197	161.641	-598.004	C.3	10	HIS10	-0.007	
139	  CG	651.483	160.932	-597.696	C.2	10	HIS10	0.187	
140	 CD2	651.864	160.598	-596.404	C.2	10	HIS10	-0.221	
141	 ND1	652.434	160.526	-598.629	N.2	10	HIS10	-0.543	
142	 CE1	653.341	159.968	-597.805	C.2	10	HIS10	0.163	
143	 NE2	653.079	159.967	-596.470	N.pl3	10	HIS10	-0.280	
144	   H	648.942	163.047	-596.391	 H	10	HIS10	0.272	
145	  HA	651.379	163.528	-597.786	 H	10	HIS10	0.136	
146	 2HB	649.831	161.273	-598.984	 H	10	HIS10	0.037	
147	 3HB	649.441	161.305	-597.264	 H	10	HIS10	0.037	
148	 2HD	651.279	160.814	-595.514	 H	10	HIS10	0.186	
149	 1HE	654.232	159.548	-598.252	 H	10	HIS10	0.144	
150	 2HE	653.646	159.590	-595.697	 H	10	HIS10	0.334	
151	   N	648.754	163.732	-599.725	N.am	11	VAL11	-0.416	
152	  CA	648.399	164.276	-601.032	C.3	11	VAL11	-0.087	
153	   C	648.862	165.707	-601.166	C.2	11	VAL11	0.597	
154	   O	649.463	166.112	-602.169	O.2	11	VAL11	-0.568	
155	  CB	646.837	164.169	-601.251	C.3	11	VAL11	0.299	
156	 CG1	646.268	164.872	-602.514	C.3	11	VAL11	-0.319	
157	 CG2	646.313	162.715	-601.323	C.3	11	VAL11	-0.319	
158	   H	648.042	163.359	-599.114	 H	11	VAL11	0.272	
159	  HA	648.918	163.694	-601.814	 H	11	VAL11	0.097	
160	  HB	646.350	164.650	-600.376	 H	11	VAL11	-0.030	
161	1HG1	646.706	164.479	-603.451	 H	11	VAL11	0.079	
162	2HG1	645.169	164.764	-602.595	 H	11	VAL11	0.079	
163	3HG1	646.446	165.964	-602.506	 H	11	VAL11	0.079	
164	1HG2	646.604	162.128	-600.431	 H	11	VAL11	0.079	
165	2HG2	645.207	162.677	-601.365	 H	11	VAL11	0.079	
166	3HG2	646.695	162.173	-602.209	 H	11	VAL11	0.079	
167	   N	648.625	166.534	-600.204	N.am	12	GLN12	-0.416	
168	  CA	649.073	167.917	-600.333	C.3	12	GLN12	-0.003	
169	   C	650.563	167.985	-600.571	C.2	12	GLN12	0.597	
170	   O	651.049	168.692	-601.451	O.2	12	GLN12	-0.568	
171	  CB	648.682	168.685	-599.051	C.3	12	GLN12	-0.004	
172	  CG	649.042	170.207	-599.021	C.3	12	GLN12	-0.064	
173	  CD	648.739	171.021	-597.757	C.2	12	GLN12	0.695	
174	 NE2	648.173	170.446	-596.727	N.pl3	12	GLN12	-0.941	
175	 OE1	649.041	172.203	-597.680	O.2	12	GLN12	-0.609	
176	   H	648.137	166.228	-599.375	 H	12	GLN12	0.272	
177	  HA	648.573	168.372	-601.208	 H	12	GLN12	0.085	
178	 2HB	649.159	168.186	-598.181	 H	12	GLN12	0.017	
179	 3HB	647.592	168.577	-598.887	 H	12	GLN12	0.017	
180	 2HG	648.564	170.727	-599.872	 H	12	GLN12	0.035	
181	 3HG	650.125	170.350	-599.187	 H	12	GLN12	0.035	
182	1HE2	648.066	171.041	-595.904	 H	12	GLN12	0.425	
183	2HE2	648.010	169.442	-596.830	 H	12	GLN12	0.425	
184	   N	651.348	167.279	-599.830	N.am	13	ARG13	-0.348	
185	  CA	652.788	167.345	-600.061	C.3	13	ARG13	-0.264	
186	   C	653.124	166.973	-601.486	C.2	13	ARG13	0.734	
187	   O	653.892	167.644	-602.171	O.2	13	ARG13	-0.589	
188	  CB	653.503	166.408	-599.047	C.3	13	ARG13	-0.001	
189	  CG	655.047	166.562	-598.966	C.3	13	ARG13	0.039	
190	  CD	655.675	165.575	-597.968	C.3	13	ARG13	0.049	
191	  NE	657.152	165.783	-597.918	N.pl3	13	ARG13	-0.530	
192	  CZ	658.001	165.093	-597.163	C.cat	13	ARG13	0.808	
193	 NH1	657.637	164.129	-596.365	N.pl3	13	ARG13	-0.863	
194	 NH2	659.260	165.392	-597.221	N.pl3	13	ARG13	-0.863	
195	   H	650.973	166.689	-599.101	 H	13	ARG13	0.275	
196	  HA	653.112	168.392	-599.904	 H	13	ARG13	0.156	
197	 2HB	653.237	165.357	-599.285	 H	13	ARG13	0.033	
198	 3HB	653.078	166.575	-598.036	 H	13	ARG13	0.033	
199	 2HG	655.295	167.607	-598.688	 H	13	ARG13	0.029	
200	 3HG	655.498	166.405	-599.968	 H	13	ARG13	0.029	
201	 2HD	655.431	164.535	-598.276	 H	13	ARG13	0.069	
202	 3HD	655.219	165.721	-596.966	 H	13	ARG13	0.069	
203	  HE	657.603	166.505	-598.490	 H	13	ARG13	0.346	
204	1HH1	656.631	163.942	-596.367	 H	13	ARG13	0.448	
205	2HH1	658.350	163.647	-595.816	 H	13	ARG13	0.448	
206	1HH2	659.527	166.150	-597.852	 H	13	ARG13	0.448	
207	2HH2	659.896	164.852	-596.632	 H	13	ARG13	0.448	
208	   N	652.588	165.918	-601.999	N.am	14	VAL14	-0.416	
209	  CA	652.913	165.557	-603.377	C.3	14	VAL14	-0.087	
210	   C	652.582	166.686	-604.323	C.2	14	VAL14	0.597	
211	   O	653.375	167.067	-605.193	O.2	14	VAL14	-0.568	
212	  CB	652.141	164.239	-603.782	C.3	14	VAL14	0.299	
213	 CG1	652.230	163.820	-605.275	C.3	14	VAL14	-0.319	
214	 CG2	652.574	162.988	-602.981	C.3	14	VAL14	-0.319	
215	   H	651.954	165.349	-601.457	 H	14	VAL14	0.272	
216	  HA	654.001	165.381	-603.452	 H	14	VAL14	0.097	
217	  HB	651.065	164.410	-603.566	 H	14	VAL14	-0.030	
218	1HG1	653.271	163.643	-605.604	 H	14	VAL14	0.079	
219	2HG1	651.657	162.896	-605.487	 H	14	VAL14	0.079	
220	3HG1	651.800	164.581	-605.954	 H	14	VAL14	0.079	
221	1HG2	652.487	163.147	-601.891	 H	14	VAL14	0.079	
222	2HG2	651.938	162.111	-603.212	 H	14	VAL14	0.079	
223	3HG2	653.622	162.699	-603.187	 H	14	VAL14	0.079	
224	   N	651.437	167.272	-604.221	N.am	15	MET15	-0.416	
225	  CA	651.115	168.363	-605.136	C.3	15	MET15	-0.024	
226	   C	652.145	169.464	-605.050	C.2	15	MET15	0.597	
227	   O	652.647	169.974	-606.063	O.2	15	MET15	-0.568	
228	  CB	649.694	168.909	-604.827	C.3	15	MET15	0.034	
229	  CG	648.532	167.910	-605.017	C.3	15	MET15	0.002	
230	  SD	646.958	168.775	-604.903	S.3	15	MET15	-0.274	
231	  CE	645.878	167.345	-604.764	C.3	15	MET15	-0.054	
232	   H	650.772	166.979	-603.519	 H	15	MET15	0.272	
233	  HA	651.141	167.975	-606.171	 H	15	MET15	0.088	
234	 2HB	649.491	169.787	-605.469	 H	15	MET15	0.024	
235	 3HB	649.659	169.302	-603.791	 H	15	MET15	0.024	
236	 2HG	648.576	167.125	-604.239	 H	15	MET15	0.044	
237	 3HG	648.595	167.394	-605.993	 H	15	MET15	0.044	
238	 1HE	646.021	166.656	-605.616	 H	15	MET15	0.068	
239	 2HE	646.088	166.793	-603.831	 H	15	MET15	0.068	
240	 3HE	644.820	167.660	-604.747	 H	15	MET15	0.068	
241	   N	652.514	169.886	-603.888	N.am	16	ARG16	-0.348	
242	  CA	653.510	170.951	-603.806	C.3	16	ARG16	-0.264	
243	   C	654.781	170.558	-604.522	C.2	16	ARG16	0.734	
244	   O	654.895	169.481	-605.103	O.2	16	ARG16	-0.589	
245	  CB	653.780	171.270	-602.308	C.3	16	ARG16	-0.001	
246	  CG	654.605	172.559	-602.036	C.3	16	ARG16	0.039	
247	  CD	654.855	172.780	-600.535	C.3	16	ARG16	0.049	
248	  NE	655.631	174.039	-600.336	N.pl3	16	ARG16	-0.530	
249	  CZ	656.022	174.523	-599.161	C.cat	16	ARG16	0.808	
250	 NH1	655.776	173.939	-598.022	N.pl3	16	ARG16	-0.863	
251	 NH2	656.686	175.636	-599.143	N.pl3	16	ARG16	-0.863	
252	   H	652.120	169.487	-603.048	 H	16	ARG16	0.275	
253	  HA	653.100	171.843	-604.316	 H	16	ARG16	0.156	
254	 2HB	654.278	170.394	-601.841	 H	16	ARG16	0.033	
255	 3HB	652.811	171.351	-601.773	 H	16	ARG16	0.033	
256	 2HG	654.074	173.430	-602.474	 H	16	ARG16	0.029	
257	 3HG	655.578	172.507	-602.566	 H	16	ARG16	0.029	
258	 2HD	655.405	171.906	-600.122	 H	16	ARG16	0.069	
259	 3HD	653.883	172.822	-600.000	 H	16	ARG16	0.069	
260	  HE	655.908	174.620	-601.134	 H	16	ARG16	0.346	
261	1HH1	655.251	173.066	-598.105	 H	16	ARG16	0.448	
262	2HH1	656.110	174.376	-597.161	 H	16	ARG16	0.448	
263	1HH2	656.870	176.078	-600.046	 H	16	ARG16	0.448	
264	2HH2	656.976	175.992	-598.231	 H	16	ARG16	0.448	
@<TRIPOS>BOND
1 1 2 1
2 1 10 1
3 2 3 1
4 2 5 1
5 2 11 1
6 3 4 2
7 3 16 1
8 5 6 1
9 6 7 1
10 7 8 2
11 7 9 1
12 5 12 1
13 5 13 1
14 6 14 1
15 6 15 1
16 16 17 1
17 16 24 1
18 17 18 1
19 17 20 1
20 17 25 1
21 18 19 2
22 18 30 1
23 20 21 1
24 21 22 1
25 21 23 2
26 20 26 1
27 20 27 1
28 22 28 1
29 22 29 1
30 30 31 1
31 30 36 1
32 31 32 1
33 31 34 1
34 31 37 1
35 32 33 2
36 32 44 1
37 34 35 1
38 35 36 1
39 34 38 1
40 34 39 1
41 35 40 1
42 35 41 1
43 36 42 1
44 36 43 1
45 44 45 1
46 44 51 1
47 45 46 1
48 45 48 1
49 45 52 1
50 46 47 2
51 46 58 1
52 48 49 1
53 48 50 1
54 48 53 1
55 50 54 1
56 49 55 1
57 49 56 1
58 49 57 1
59 58 59 1
60 58 64 1
61 59 60 1
62 59 62 1
63 59 65 1
64 60 61 2
65 60 69 1
66 62 63 1
67 62 66 1
68 62 67 1
69 63 68 1
70 69 70 1
71 69 77 1
72 70 71 1
73 70 73 1
74 70 78 1
75 71 72 2
76 71 88 1
77 73 74 1
78 73 75 1
79 74 76 1
80 73 79 1
81 74 80 1
82 74 81 1
83 75 82 1
84 75 83 1
85 75 84 1
86 76 85 1
87 76 86 1
88 76 87 1
89 88 89 1
90 88 96 1
91 89 90 1
92 89 92 1
93 89 97 1
94 90 91 2
95 90 107 1
96 92 93 1
97 93 94 1
98 93 95 1
99 92 98 1
100 92 99 1
101 93 100 1
102 94 101 1
103 94 102 1
104 94 103 1
105 95 104 1
106 95 105 1
107 95 106 1
108 107 108 1
109 107 115 1
110 108 109 1
111 108 111 1
112 108 116 1
113 109 110 2
114 109 119 1
115 111 112 1
116 112 113 2
117 112 114 1
118 111 117 1
119 111 118 1
120 119 120 1
121 119 128 1
122 120 121 1
123 120 123 1
124 120 129 1
125 121 122 2
126 121 134 1
127 123 124 1
128 124 125 1
129 125 126 2
130 125 127 1
131 123 130 1
132 123 131 1
133 124 132 1
134 124 133 1
135 134 135 1
136 134 144 1
137 135 136 1
138 135 138 1
139 135 145 1
140 136 137 2
141 136 151 1
142 138 139 1
143 139 140 2
144 140 143 1
145 139 141 1
146 141 142 2
147 142 143 1
148 138 146 1
149 138 147 1
150 140 148 1
151 142 149 1
152 143 150 1
153 151 152 1
154 151 158 1
155 152 153 1
156 152 155 1
157 152 159 1
158 153 154 2
159 153 167 1
160 155 156 1
161 155 157 1
162 155 160 1
163 156 161 1
164 156 162 1
165 156 163 1
166 157 164 1
167 157 165 1
168 157 166 1
169 167 168 1
170 167 176 1
171 168 169 1
172 168 171 1
173 168 177 1
174 169 170 2
175 169 184 1
176 171 172 1
177 172 173 1
178 173 174 1
179 173 175 2
180 171 178 1
181 171 179 1
182 172 180 1
183 172 181 1
184 174 182 1
185 174 183 1
186 184 185 1
187 184 195 1
188 185 186 1
189 185 188 1
190 185 196 1
191 186 187 2
192 186 208 1
193 188 189 1
194 189 190 1
195 190 191 1
196 191 192 1
197 192 193 2
198 192 194 1
199 188 197 1
200 188 198 1
201 189 199 1
202 189 200 1
203 190 201 1
204 190 202 1
205 191 203 1
206 193 204 1
207 193 205 1
208 194 206 1
209 194 207 1
210 208 209 1
211 208 215 1
212 209 210 1
213 209 212 1
214 209 216 1
215 210 211 2
216 210 224 1
217 212 213 1
218 212 214 1
219 212 217 1
220 213 218 1
221 213 219 1
222 213 220 1
223 214 221 1
224 214 222 1
225 214 223 1
226 224 225 1
227 224 232 1
228 225 226 1
229 225 228 1
230 225 233 1
231 226 227 2
232 226 241 1
233 228 229 1
234 229 230 1
235 230 231 1
236 228 234 1
237 228 235 1
238 229 236 1
239 229 237 1
240 231 238 1
241 231 239 1
242 231 240 1
243 241 242 1
244 241 252 1
245 242 243 1
246 242 245 1
247 242 253 1
248 243 244 2
249 245 246 1
250 246 247 1
251 247 248 1
252 248 249 1
253 249 250 2
254 249 251 1
255 245 254 1
256 245 255 1
257 246 256 1
258 246 257 1
259 247 258 1
260 247 259 1
261 248 260 1
262 250 261 1
263 250 262 1
264 251 263 1
265 251 264 1
@<TRIPOS>SUBSTRUCTURE
1	GLU1	1	RESIDUE	1 ****	GLU
2	ASN2	16	RESIDUE	1 ****	ASN
3	PRO3	30	RESIDUE	1 ****	PRO
4	THR4	44	RESIDUE	1 ****	THR
5	SER5	58	RESIDUE	1 ****	SER
6	ILE6	69	RESIDUE	1 ****	ILE
7	LEU7	88	RESIDUE	1 ****	LEU
8	ASP8	107	RESIDUE	1 ****	ASP
9	GLU9	119	RESIDUE	1 ****	GLU
10	HIS10	134	RESIDUE	1 ****	HIS
11	VAL11	151	RESIDUE	1 ****	VAL
12	GLN12	167	RESIDUE	1 ****	GLN
13	ARG13	184	RESIDUE	1 ****	ARG
14	VAL14	208	RESIDUE	1 ****	VAL
15	MET15	224	RESIDUE	1 ****	MET
16	ARG16	241	RESIDUE	1 ****	ARG
