REMARK WARNING: 32 MAX_TORS EXCEEDED!!!
REMARK  67 active torsions:
REMARK  status: ('A' for Active; 'I' for Inactive)
REMARK    1  A    between atoms: N_1  and  CA_2 
REMARK    2  A    between atoms: CA_2  and  C_3 
REMARK    3  A    between atoms: CA_2  and  CB_5 
REMARK       I    between atoms: C_3  and  N_11 
REMARK    4  A    between atoms: CB_5  and  CG_6 
REMARK    5  A    between atoms: CG_6  and  CD_7 
REMARK    6  A    between atoms: N_11  and  CA_12 
REMARK    7  A    between atoms: CA_12  and  C_13 
REMARK    8  A    between atoms: CA_12  and  CB_15 
REMARK       I    between atoms: C_13  and  N_22 
REMARK    9  A    between atoms: CB_15  and  CG_16 
REMARK       I    between atoms: CG_16  and  ND2_17 
REMARK   10  A    between atoms: CA_23  and  C_24 
REMARK       I    between atoms: C_24  and  N_29 
REMARK   11  A    between atoms: N_29  and  CA_30 
REMARK   12  A    between atoms: CA_30  and  C_31 
REMARK   13  A    between atoms: CA_30  and  CB_33 
REMARK       I    between atoms: C_31  and  N_39 
REMARK   14  A    between atoms: CB_33  and  CG_34 
REMARK   15  A    between atoms: CG_34  and  CD_35 
REMARK   16  A    between atoms: N_39  and  CA_40 
REMARK   17  A    between atoms: CA_40  and  C_41 
REMARK   18  A    between atoms: CA_40  and  CB_43 
REMARK       I    between atoms: C_41  and  N_47 
REMARK   19  A    between atoms: CB_43  and  OG_44 
REMARK   20  A    between atoms: N_47  and  CA_48 
REMARK   21  A    between atoms: CA_48  and  C_49 
REMARK   22  A    between atoms: CA_48  and  CB_51 
REMARK       I    between atoms: C_49  and  N_56 
REMARK   23  A    between atoms: CB_51  and  CG1_52 
REMARK   24  A    between atoms: N_56  and  CA_57 
REMARK   25  A    between atoms: CA_57  and  C_58 
REMARK   26  A    between atoms: CA_57  and  CB_60 
REMARK       I    between atoms: C_58  and  N_65 
REMARK   27  A    between atoms: CB_60  and  CG_61 
REMARK   28  A    between atoms: N_65  and  CA_66 
REMARK   29  A    between atoms: CA_66  and  C_67 
REMARK   30  A    between atoms: CA_66  and  CB_69 
REMARK       I    between atoms: C_67  and  N_74 
REMARK   31  A    between atoms: CB_69  and  CG_70 
REMARK   32  A    between atoms: N_74  and  CA_75 
REMARK   33  A    between atoms: CA_75  and  C_76 
REMARK   34  A    between atoms: CA_75  and  CB_78 
REMARK       I    between atoms: C_76  and  N_84 
REMARK   35  A    between atoms: CB_78  and  CG_79 
REMARK   36  A    between atoms: CG_79  and  CD_80 
REMARK   37  A    between atoms: N_84  and  CA_85 
REMARK   38  A    between atoms: CA_85  and  C_86 
REMARK   39  A    between atoms: CA_85  and  CB_88 
REMARK       I    between atoms: C_86  and  N_96 
REMARK   40  A    between atoms: CB_88  and  CG_89 
REMARK   41  A    between atoms: N_96  and  CA_97 
REMARK   42  A    between atoms: CA_97  and  C_98 
REMARK   43  A    between atoms: CA_97  and  CB_100 
REMARK       I    between atoms: C_98  and  N_104 
REMARK   44  A    between atoms: N_104  and  CA_105 
REMARK   45  A    between atoms: CA_105  and  C_106 
REMARK   46  A    between atoms: CA_105  and  CB_108 
REMARK       I    between atoms: C_106  and  N_113 
REMARK   47  A    between atoms: CB_108  and  CG1_109 
REMARK   48  A    between atoms: N_113  and  CA_114 
REMARK   49  A    between atoms: CA_114  and  C_115 
REMARK   50  A    between atoms: CA_114  and  CB_117 
REMARK       I    between atoms: C_115  and  N_130 
REMARK   51  A    between atoms: CB_117  and  CG_118 
REMARK   52  A    between atoms: CG_118  and  CD_119 
REMARK   53  A    between atoms: CD_119  and  NE_120 
REMARK       I    between atoms: NE_120  and  CZ_121 
REMARK       I    between atoms: CZ_121  and  NH1_122 
REMARK       I    between atoms: CZ_121  and  NH2_123 
REMARK   54  A    between atoms: N_130  and  CA_131 
REMARK   55  A    between atoms: CA_131  and  C_132 
REMARK   56  A    between atoms: CA_131  and  CB_134 
REMARK       I    between atoms: C_132  and  N_138 
REMARK   57  A    between atoms: N_138  and  CA_139 
REMARK   58  A    between atoms: CA_139  and  C_140 
REMARK   59  A    between atoms: CA_139  and  CB_142 
REMARK       I    between atoms: C_140  and  N_147 
REMARK   60  A    between atoms: CB_142  and  CG_143 
REMARK   61  A    between atoms: CG_143  and  SD_144 
REMARK   62  A    between atoms: N_147  and  CA_148 
REMARK   63  A    between atoms: CA_148  and  C_149 
REMARK   64  A    between atoms: CA_148  and  CB_151 
REMARK   65  A    between atoms: CB_151  and  CG_152 
REMARK   66  A    between atoms: CG_152  and  CD_153 
REMARK   67  A    between atoms: CD_153  and  NE_154 
REMARK       I    between atoms: NE_154  and  CZ_155 
REMARK       I    between atoms: CZ_155  and  NH1_156 
ROOT
ATOM      1  C   GLU d   9    1896.857 573.887-1946.112  0.00  0.00     0.241 C 
ATOM      2  O   GLU d   9    1897.520 574.642-1946.838  0.00  0.00    -0.271 OA
ATOM      3  N   HIS d  10    1896.954 572.612-1946.282  0.00  0.00    -0.346 N 
ATOM      4  H   HIS d  10    1896.424 571.976-1945.704  0.00  0.00     0.163 HD
ENDROOT
BRANCH   1   5
ATOM      5  CA  GLU d   9    1895.939 574.414-1945.036  0.00  0.00     0.177 C 
BRANCH   5   6
ATOM      6  N   GLU d   9    1894.636 573.756-1945.091  0.00  0.00    -0.346 N 
ATOM      7  C   ASP d   8    1893.956 573.806-1946.187  0.00  0.00     0.241 C 
ATOM      8  O   ASP d   8    1894.429 574.411-1947.161  0.00  0.00    -0.271 OA
ATOM      9  H   GLU d   9    1894.273 573.269-1944.284  0.00  0.00     0.163 HD
BRANCH   7  10
ATOM     10  CA  ASP d   8    1892.610 573.126-1946.244  0.00  0.00     0.186 C 
BRANCH  10  11
ATOM     11  N   ASP d   8    1892.680 571.776-1945.691  0.00  0.00    -0.346 N 
ATOM     12  C   LEU d   7    1893.518 570.936-1946.197  0.00  0.00     0.241 C 
ATOM     13  O   LEU d   7    1894.239 571.299-1947.139  0.00  0.00    -0.271 OA
ATOM     14  H   ASP d   8    1892.083 571.505-1944.923  0.00  0.00     0.163 HD
BRANCH  12  15
ATOM     15  CA  LEU d   7    1893.591 569.541-1945.625  0.00  0.00     0.177 C 
BRANCH  15  16
ATOM     16  N   LEU d   7    1893.646 569.577-1944.166  0.00  0.00    -0.346 N 
ATOM     17  C   ILE d   6    1894.591 570.240-1943.592  0.00  0.00     0.241 C 
ATOM     18  O   ILE d   6    1895.426 570.828-1944.296  0.00  0.00    -0.271 OA
ATOM     19  H   LEU d   7    1892.954 569.089-1943.615  0.00  0.00     0.163 HD
BRANCH  17  20
ATOM     20  CA  ILE d   6    1894.648 570.278-1942.085  0.00  0.00     0.180 C 
BRANCH  20  21
ATOM     21  N   ILE d   6    1893.335 570.573-1941.518  0.00  0.00    -0.346 N 
ATOM     22  C   SER d   5    1892.730 571.656-1941.873  0.00  0.00     0.243 C 
ATOM     23  O   SER d   5    1893.278 572.409-1942.678  0.00  0.00    -0.271 OA
ATOM     24  H   ILE d   6    1892.907 569.938-1940.859  0.00  0.00     0.163 HD
BRANCH  22  25
ATOM     25  CA  SER d   5    1891.372 571.961-1941.287  0.00  0.00     0.200 C 
BRANCH  25  26
ATOM     26  N   SER d   5    1890.502 570.790-1941.345  0.00  0.00    -0.344 N 
ATOM     27  C   GLU d   4    1890.275 570.237-1942.489  0.00  0.00     0.241 C 
ATOM     28  O   GLU d   4    1890.801 570.717-1943.503  0.00  0.00    -0.271 OA
ATOM     29  H   SER d   5    1890.085 570.418-1940.504  0.00  0.00     0.163 HD
BRANCH  27  30
ATOM     30  CA  GLU d   4    1889.376 569.026-1942.550  0.00  0.00     0.177 C 
BRANCH  30  31
ATOM     31  N   GLU d   4    1889.735 568.055-1941.520  0.00  0.00    -0.346 N 
ATOM     32  C   PRO d   3    1890.940 567.595-1941.488  0.00  0.00     0.241 C 
ATOM     33  O   PRO d   3    1891.763 567.978-1942.319  0.00  0.00    -0.271 OA
ATOM     34  H   GLU d   4    1889.051 567.748-1940.844  0.00  0.00     0.163 HD
BRANCH  32  35
ATOM     35  CA  PRO d   3    1891.338 566.572-1940.411  0.00  0.00     0.179 C 
ATOM     36  N   PRO d   3    1890.886 566.981-1939.089  0.00  0.00    -0.337 N 
ATOM     37  C   ASN d   2    1891.408 567.976-1938.455  0.00  0.00     0.243 C 
ATOM     38  CD  PRO d   3    1889.808 566.188-1938.540  0.00  0.00     0.127 C 
ATOM     39  O   ASN d   2    1892.323 568.606-1938.984  0.00  0.00    -0.271 OA
ATOM     40  CG  PRO d   3    1889.351 565.369-1939.750  0.00  0.00     0.022 C 
ATOM     41  CB  PRO d   3    1890.634 565.217-1940.580  0.00  0.00     0.037 C 
BRANCH  37  42
ATOM     42  CA  ASN d   2    1890.877 568.331-1937.087  0.00  0.00     0.185 C 
BRANCH  42  43
ATOM     43  N   ASN d   2    1889.417 568.370-1937.087  0.00  0.00    -0.346 N 
ATOM     44  C   GLU d   1    1888.813 569.156-1937.912  0.00  0.00     0.242 C 
ATOM     45  O   GLU d   1    1889.489 569.855-1938.681  0.00  0.00    -0.271 OA
ATOM     46  H   ASN d   2    1888.889 567.791-1936.450  0.00  0.00     0.163 HD
BRANCH  44  47
ATOM     47  CA  GLU d   1    1887.304 569.196-1937.912  0.00  0.00     0.191 C 
BRANCH  47  48
ATOM     48  N   GLU d   1    1886.745 567.847-1937.912  0.00  0.00    -0.326 NA
ATOM     49  H   GLU d   1    1887.372 566.968-1937.912  0.00  0.00     0.180 HD
ENDBRANCH  47  48
BRANCH  47  50
ATOM     50  CB  GLU d   1    1886.781 569.981-1936.675  0.00  0.00     0.047 C 
BRANCH  50  51
ATOM     51  CG  GLU d   1    1887.256 571.466-1936.564  0.00  0.00     0.116 C 
BRANCH  51  52
ATOM     52  CD  GLU d   1    1886.832 572.270-1935.349  0.00  0.00     0.172 C 
ATOM     53  OE1 GLU d   1    1886.104 571.768-1934.471  0.00  0.00    -0.648 OA
ATOM     54  OE2 GLU d   1    1887.262 573.440-1935.277  0.00  0.00    -0.648 OA
ENDBRANCH  51  52
ENDBRANCH  50  51
ENDBRANCH  47  50
ENDBRANCH  44  47
ENDBRANCH  42  43
BRANCH  42  55
ATOM     55  CB  ASN d   2    1891.369 567.308-1936.022  0.00  0.00     0.137 C 
BRANCH  55  56
ATOM     56  CG  ASN d   2    1890.906 567.532-1934.579  0.00  0.00     0.217 C 
ATOM     57  ND2 ASN d   2    1891.500 568.447-1933.861  0.00  0.00    -0.370 N 
ATOM     58 21HD ASN d   2    1891.019 568.620-1932.974  0.00  0.00     0.159 HD
ATOM     59 22HD ASN d   2    1892.202 569.019-1934.330  0.00  0.00     0.159 HD
ATOM     60  OD1 ASN d   2    1889.985 566.899-1934.085  0.00  0.00    -0.274 OA
ENDBRANCH  55  56
ENDBRANCH  42  55
ENDBRANCH  37  42
ENDBRANCH  32  35
ENDBRANCH  30  31
BRANCH  30  61
ATOM     61  CB  GLU d   4    1887.887 569.445-1942.380  0.00  0.00     0.045 C 
BRANCH  61  62
ATOM     62  CG  GLU d   4    1887.339 570.448-1943.445  0.00  0.00     0.116 C 
BRANCH  62  63
ATOM     63  CD  GLU d   4    1885.913 570.945-1943.302  0.00  0.00     0.172 C 
ATOM     64  OE1 GLU d   4    1885.186 570.547-1942.371  0.00  0.00    -0.648 OA
ATOM     65  OE2 GLU d   4    1885.523 571.775-1944.150  0.00  0.00    -0.648 OA
ENDBRANCH  62  63
ENDBRANCH  61  62
ENDBRANCH  30  61
ENDBRANCH  27  30
ENDBRANCH  25  26
BRANCH  25  66
ATOM     66  CB  SER d   5    1891.483 572.493-1939.837  0.00  0.00     0.199 C 
BRANCH  66  67
ATOM     67  OG  SER d   5    1892.215 571.614-1938.975  0.00  0.00    -0.398 OA
ATOM     68  HG  SER d   5    1891.726 570.789-1938.925  0.00  0.00     0.209 HD
ENDBRANCH  66  67
ENDBRANCH  25  66
ENDBRANCH  22  25
ENDBRANCH  20  21
BRANCH  20  69
ATOM     69  CB  ILE d   6    1895.248 568.942-1941.485  0.00  0.00     0.013 C 
ATOM     70  CG2 ILE d   6    1896.690 568.640-1942.000  0.00  0.00     0.012 C 
BRANCH  69  71
ATOM     71  CG1 ILE d   6    1895.268 568.880-1939.924  0.00  0.00     0.002 C 
ATOM     72  CD1 ILE d   6    1895.538 567.490-1939.309  0.00  0.00     0.005 C 
ENDBRANCH  69  71
ENDBRANCH  20  69
ENDBRANCH  17  20
ENDBRANCH  15  16
BRANCH  15  73
ATOM     73  CB  LEU d   7    1892.388 568.680-1946.105  0.00  0.00     0.038 C 
BRANCH  73  74
ATOM     74  CG  LEU d   7    1892.315 567.201-1945.639  0.00  0.00    -0.020 C 
ATOM     75  CD1 LEU d   7    1891.125 566.495-1946.304  0.00  0.00     0.009 C 
ATOM     76  CD2 LEU d   7    1893.609 566.422-1945.930  0.00  0.00     0.009 C 
ENDBRANCH  73  74
ENDBRANCH  15  73
ENDBRANCH  12  15
ENDBRANCH  10  11
BRANCH  10  77
ATOM     77  CB  ASP d   8    1891.531 573.964-1945.502  0.00  0.00     0.147 C 
BRANCH  77  78
ATOM     78  CG  ASP d   8    1891.312 575.385-1946.042  0.00  0.00     0.175 C 
ATOM     79  OD1 ASP d   8    1891.377 575.585-1947.273  0.00  0.00    -0.648 OA
ATOM     80  OD2 ASP d   8    1891.120 576.311-1945.227  0.00  0.00    -0.648 OA
ENDBRANCH  77  78
ENDBRANCH  10  77
ENDBRANCH   7  10
ENDBRANCH   5   6
BRANCH   5  81
ATOM     81  CB  GLU d   9    1896.572 574.207-1943.631  0.00  0.00     0.045 C 
BRANCH  81  82
ATOM     82  CG  GLU d   9    1897.955 574.899-1943.401  0.00  0.00     0.116 C 
BRANCH  82  83
ATOM     83  CD  GLU d   9    1898.657 574.686-1942.073  0.00  0.00     0.172 C 
ATOM     84  OE1 GLU d   9    1898.136 573.995-1941.177  0.00  0.00    -0.648 OA
ATOM     85  OE2 GLU d   9    1899.776 575.225-1941.942  0.00  0.00    -0.648 OA
ENDBRANCH  82  83
ENDBRANCH  81  82
ENDBRANCH   5  81
ENDBRANCH   1   5
BRANCH   3  86
ATOM     86  CA  HIS d  10    1897.842 572.101-1947.323  0.00  0.00     0.182 C 
BRANCH  86  87
ATOM     87  C   HIS d  10    1897.475 572.666-1948.674  0.00  0.00     0.241 C 
ATOM     88  O   HIS d  10    1898.327 573.131-1949.445  0.00  0.00    -0.271 OA
ATOM     89  N   VAL d  11    1896.237 572.664-1949.036  0.00  0.00    -0.346 N 
ATOM     90  H   VAL d  11    1895.524 572.291-1948.426  0.00  0.00     0.163 HD
BRANCH  89  91
ATOM     91  CA  VAL d  11    1895.881 573.211-1950.343  0.00  0.00     0.180 C 
BRANCH  91  92
ATOM     92  C   VAL d  11    1896.344 574.642-1950.475  0.00  0.00     0.241 C 
ATOM     93  O   VAL d  11    1896.945 575.047-1951.478  0.00  0.00    -0.271 OA
ATOM     94  N   ILE d  12    1896.107 575.467-1949.513  0.00  0.00    -0.346 N 
ATOM     95  H   ILE d  12    1895.619 575.160-1948.683  0.00  0.00     0.163 HD
BRANCH  94  96
ATOM     96  CA  ILE d  12    1896.555 576.851-1949.640  0.00  0.00     0.180 C 
BRANCH  96  97
ATOM     97  C   ILE d  12    1898.044 576.917-1949.879  0.00  0.00     0.241 C 
ATOM     98  O   ILE d  12    1898.536 577.631-1950.765  0.00  0.00    -0.271 OA
ATOM     99  N   ARG d  13    1898.828 576.210-1949.138  0.00  0.00    -0.346 N 
ATOM    100  H   ARG d  13    1898.452 575.621-1948.409  0.00  0.00     0.163 HD
BRANCH  99 101
ATOM    101  CA  ARG d  13    1900.269 576.275-1949.369  0.00  0.00     0.176 C 
BRANCH 101 102
ATOM    102  C   ARG d  13    1900.604 575.904-1950.794  0.00  0.00     0.241 C 
ATOM    103  O   ARG d  13    1901.373 576.575-1951.479  0.00  0.00    -0.271 OA
ATOM    104  N   VAL d  14    1900.067 574.849-1951.308  0.00  0.00    -0.346 N 
ATOM    105  H   VAL d  14    1899.432 574.281-1950.765  0.00  0.00     0.163 HD
BRANCH 104 106
ATOM    106  CA  VAL d  14    1900.391 574.490-1952.685  0.00  0.00     0.180 C 
BRANCH 106 107
ATOM    107  C   VAL d  14    1900.062 575.619-1953.631  0.00  0.00     0.241 C 
ATOM    108  O   VAL d  14    1900.855 576.000-1954.501  0.00  0.00    -0.271 OA
ATOM    109  N   MET d  15    1898.917 576.206-1953.529  0.00  0.00    -0.346 N 
ATOM    110  H   MET d  15    1898.252 575.914-1952.827  0.00  0.00     0.163 HD
BRANCH 109 111
ATOM    111  CA  MET d  15    1898.597 577.299-1954.443  0.00  0.00     0.177 C 
BRANCH 111 112
ATOM    112  C   MET d  15    1899.628 578.398-1954.356  0.00  0.00     0.241 C 
ATOM    113  O   MET d  15    1900.130 578.908-1955.369  0.00  0.00    -0.271 OA
ATOM    114  N   ARG d  16    1899.997 578.819-1953.194  0.00  0.00    -0.347 N 
ATOM    115  H   ARG d  16    1899.602 578.420-1952.354  0.00  0.00     0.163 HD
BRANCH 114 116
ATOM    116  CA  ARG d  16    1900.994 579.883-1953.111  0.00  0.00     0.162 C 
BRANCH 116 117
ATOM    117  C   ARG d  16    1902.264 579.489-1953.828  0.00  0.00     0.219 C 
ATOM    118  O   ARG d  16    1902.378 578.412-1954.408  0.00  0.00    -0.287 OA
ENDBRANCH 116 117
BRANCH 116 119
ATOM    119  CB  ARG d  16    1901.264 580.201-1951.613  0.00  0.00     0.035 C 
BRANCH 119 120
ATOM    120  CG  ARG d  16    1902.089 581.490-1951.341  0.00  0.00     0.023 C 
BRANCH 120 121
ATOM    121  CD  ARG d  16    1902.340 581.710-1949.840  0.00  0.00     0.138 C 
BRANCH 121 122
ATOM    122  NE  ARG d  16    1903.116 582.969-1949.640  0.00  0.00    -0.227 N 
ATOM    123  CZ  ARG d  16    1903.508 583.452-1948.465  0.00  0.00     0.665 C 
ATOM    124  NH1 ARG d  16    1903.261 582.868-1947.326  0.00  0.00    -0.235 N 
ATOM    125  NH2 ARG d  16    1904.173 584.564-1948.447  0.00  0.00    -0.235 N 
ATOM    126 11HH ARG d  16    1902.734 581.996-1947.410  0.00  0.00     0.174 HD
ATOM    127 12HH ARG d  16    1903.595 583.304-1946.465  0.00  0.00     0.174 HD
ATOM    128 21HH ARG d  16    1904.358 585.007-1949.349  0.00  0.00     0.174 HD
ATOM    129 22HH ARG d  16    1904.463 584.920-1947.535  0.00  0.00     0.174 HD
ATOM    130  HE  ARG d  16    1903.395 583.550-1950.438  0.00  0.00     0.177 HD
ENDBRANCH 121 122
ENDBRANCH 120 121
ENDBRANCH 119 120
ENDBRANCH 116 119
ENDBRANCH 114 116
ENDBRANCH 111 112
BRANCH 111 131
ATOM    131  CB  MET d  15    1897.176 577.845-1954.134  0.00  0.00     0.045 C 
BRANCH 131 132
ATOM    132  CG  MET d  15    1896.013 576.847-1954.325  0.00  0.00     0.076 C 
BRANCH 132 133
ATOM    133  SD  MET d  15    1894.440 577.714-1954.210  0.00  0.00    -0.173 SA
ATOM    134  CE  MET d  15    1893.358 576.285-1954.073  0.00  0.00     0.089 C 
ENDBRANCH 132 133
ENDBRANCH 131 132
ENDBRANCH 111 131
ENDBRANCH 109 111
ENDBRANCH 106 107
BRANCH 106 135
ATOM    135  CB  VAL d  14    1899.618 573.173-1953.091  0.00  0.00     0.009 C 
ATOM    136  CG1 VAL d  14    1899.706 572.754-1954.585  0.00  0.00     0.012 C 
ATOM    137  CG2 VAL d  14    1900.050 571.920-1952.291  0.00  0.00     0.012 C 
ENDBRANCH 106 135
ENDBRANCH 104 106
ENDBRANCH 101 102
BRANCH 101 138
ATOM    138  CB  ARG d  13    1900.982 575.336-1948.355  0.00  0.00     0.036 C 
BRANCH 138 139
ATOM    139  CG  ARG d  13    1902.527 575.489-1948.274  0.00  0.00     0.023 C 
BRANCH 139 140
ATOM    140  CD  ARG d  13    1903.154 574.501-1947.277  0.00  0.00     0.138 C 
BRANCH 140 141
ATOM    141  NE  ARG d  13    1904.631 574.707-1947.227  0.00  0.00    -0.227 N 
ATOM    142  CZ  ARG d  13    1905.479 574.015-1946.472  0.00  0.00     0.665 C 
ATOM    143  NH1 ARG d  13    1905.113 573.051-1945.674  0.00  0.00    -0.235 N 
ATOM    144  NH2 ARG d  13    1906.738 574.313-1946.529  0.00  0.00    -0.235 N 
ATOM    145 11HH ARG d  13    1904.108 572.865-1945.677  0.00  0.00     0.174 HD
ATOM    146 12HH ARG d  13    1905.826 572.568-1945.125  0.00  0.00     0.174 HD
ATOM    147 21HH ARG d  13    1907.006 575.071-1947.160  0.00  0.00     0.174 HD
ATOM    148 22HH ARG d  13    1907.373 573.772-1945.940  0.00  0.00     0.174 HD
ATOM    149  HE  ARG d  13    1905.082 575.429-1947.797  0.00  0.00     0.177 HD
ENDBRANCH 140 141
ENDBRANCH 139 140
ENDBRANCH 138 139
ENDBRANCH 101 138
ENDBRANCH  99 101
ENDBRANCH  96  97
BRANCH  96 150
ATOM    150  CB  ILE d  12    1896.120 577.715-1948.388  0.00  0.00     0.013 C 
ATOM    151  CG2 ILE d  12    1896.504 579.221-1948.529  0.00  0.00     0.012 C 
BRANCH 150 152
ATOM    152  CG1 ILE d  12    1894.600 577.633-1948.036  0.00  0.00     0.002 C 
ATOM    153  CD1 ILE d  12    1894.198 578.191-1946.654  0.00  0.00     0.005 C 
ENDBRANCH 150 152
ENDBRANCH  96 150
ENDBRANCH  94  96
ENDBRANCH  91  92
BRANCH  91 154
ATOM    154  CB  VAL d  11    1894.320 573.103-1950.562  0.00  0.00     0.009 C 
ATOM    155  CG1 VAL d  11    1893.750 573.807-1951.825  0.00  0.00     0.012 C 
ATOM    156  CG2 VAL d  11    1893.796 571.649-1950.635  0.00  0.00     0.012 C 
ENDBRANCH  91 154
ENDBRANCH  89  91
ENDBRANCH  86  87
BRANCH  86 157
ATOM    157  CB  HIS d  10    1897.679 570.572-1947.318  0.00  0.00     0.095 C 
BRANCH 157 158
ATOM    158  CG  HIS d  10    1898.965 569.863-1947.010  0.00  0.00     0.053 A 
ATOM    159  CD2 HIS d  10    1899.346 569.527-1945.718  0.00  0.00     0.116 A 
ATOM    160  NE2 HIS d  10    1900.561 568.896-1945.785  0.00  0.00    -0.359 N 
ATOM    161  CE1 HIS d  10    1900.824 568.900-1947.120  0.00  0.00     0.207 A 
ATOM    162  2HE HIS d  10    1901.128 568.519-1945.012  0.00  0.00     0.166 HD
ATOM    163  ND1 HIS d  10    1899.917 569.458-1947.943  0.00  0.00    -0.247 NA
ENDBRANCH 157 158
ENDBRANCH  86 157
ENDBRANCH   3  86
TORSDOF 67
