@<TRIPOS>MOLECULE
1-17
262 263 16              
SMALL
USER_CHARGES
@<TRIPOS>ATOM
1	   N	140.194	26.569	-110.033	N.3	1	ASP1	-0.516	
2	  CA	140.753	27.918	-110.033	C.3	1	ASP1	0.038	
3	   C	142.262	27.879	-110.033	C.2	1	ASP1	0.537	
4	   O	142.937	28.580	-110.802	O.2	1	ASP1	-0.582	
5	  CB	140.218	28.731	-108.821	C.3	1	ASP1	-0.030	
6	  CG	140.680	30.194	-108.751	C.2	1	ASP1	0.799	
7	 OD1	140.797	30.846	-109.809	O.co2	1	ASP1	-0.801	
8	 OD2	140.969	30.676	-107.636	O.co2	1	ASP1	-0.801	
9	   H	140.821	25.690	-110.033	 H	1	ASP1	0.294	
10	  HA	140.438	28.423	-110.966	 H	1	ASP1	0.088	
11	 2HB	140.513	28.239	-107.876	 H	1	ASP1	-0.012	
12	 3HB	139.116	28.747	-108.817	 H	1	ASP1	-0.012	
13	   N	142.867	27.094	-109.207	N.am	2	ASN2	-0.416	
14	  CA	144.327	27.056	-109.208	C.3	2	ASN2	0.014	
15	   C	144.858	26.701	-110.577	C.2	2	ASN2	0.597	
16	   O	145.772	27.333	-111.105	O.2	2	ASN2	-0.568	
17	  CB	144.820	26.034	-108.144	C.3	2	ASN2	-0.204	
18	  CG	144.357	26.257	-106.700	C.2	2	ASN2	0.713	
19	 ND2	144.950	27.173	-105.982	N.pl3	2	ASN2	-0.919	
20	 OD1	143.437	25.623	-106.206	O.2	2	ASN2	-0.593	
21	   H	142.339	26.514	-108.571	 H	2	ASN2	0.272	
22	  HA	144.703	28.067	-108.963	 H	2	ASN2	0.105	
23	 2HB	145.924	25.976	-108.147	 H	2	ASN2	0.080	
24	 3HB	144.491	25.015	-108.429	 H	2	ASN2	0.080	
25	1HD2	144.470	27.345	-105.095	 H	2	ASN2	0.420	
26	2HD2	145.651	27.745	-106.451	 H	2	ASN2	0.420	
27	   N	144.337	25.706	-111.211	N.am	3	PRO3	-0.255	
28	  CA	144.789	25.297	-112.532	C.3	3	PRO3	-0.027	
29	   C	144.390	26.320	-113.609	C.2	3	PRO3	0.590	
30	   O	145.212	26.704	-114.441	O.2	3	PRO3	-0.575	
31	  CB	144.086	23.942	-112.701	C.3	3	PRO3	-0.007	
32	  CG	142.803	24.093	-111.871	C.3	3	PRO3	0.019	
33	  CD	143.260	24.912	-110.661	C.3	3	PRO3	0.019	
34	  HA	145.875	25.178	-112.546	 H	3	PRO3	0.064	
35	 2HB	144.710	23.161	-112.261	 H	3	PRO3	0.025	
36	 3HB	143.888	23.693	-113.747	 H	3	PRO3	0.025	
37	 2HG	142.376	23.130	-111.580	 H	3	PRO3	0.021	
38	 3HG	142.064	24.663	-112.438	 H	3	PRO3	0.021	
39	 2HD	143.650	24.263	-109.874	 H	3	PRO3	0.039	
40	 3HD	142.463	25.547	-110.268	 H	3	PRO3	0.039	
41	   N	143.184	26.779	-113.641	N.am	4	GLU4	-0.516	
42	  CA	142.823	27.750	-114.671	C.3	4	GLU4	0.040	
43	   C	143.721	28.962	-114.610	C.2	4	GLU4	0.537	
44	   O	144.247	29.442	-115.624	O.2	4	GLU4	-0.582	
45	  CB	141.335	28.167	-114.500	C.3	4	GLU4	0.056	
46	  CG	140.785	29.170	-115.565	C.3	4	GLU4	0.014	
47	  CD	139.358	29.665	-115.421	C.2	4	GLU4	0.805	
48	 OE1	138.632	29.266	-114.490	O.co2	4	GLU4	-0.819	
49	 OE2	138.967	30.494	-116.270	O.co2	4	GLU4	-0.819	
50	   H	142.501	26.471	-112.964	 H	4	GLU4	0.294	
51	  HA	142.955	27.279	-115.662	 H	4	GLU4	0.111	
52	 2HB	141.182	28.606	-113.493	 H	4	GLU4	-0.017	
53	 3HB	140.688	27.268	-114.506	 H	4	GLU4	-0.017	
54	 2HG	140.867	28.755	-116.583	 H	4	GLU4	-0.043	
55	 3HG	141.372	30.103	-115.577	 H	4	GLU4	-0.043	
56	   N	143.948	29.515	-113.466	N.am	5	SER5	-0.416	
57	  CA	144.817	30.687	-113.408	C.3	5	SER5	-0.025	
58	   C	146.176	30.383	-113.994	C.2	5	SER5	0.597	
59	   O	146.722	31.137	-114.799	O.2	5	SER5	-0.568	
60	  CB	144.928	31.219	-111.958	C.3	5	SER5	0.212	
61	  OG	145.661	30.341	-111.097	O.3	5	SER5	-0.655	
62	   H	143.532	29.142	-112.625	 H	5	SER5	0.272	
63	  HA	144.366	31.476	-114.037	 H	5	SER5	0.084	
64	 2HB	143.928	31.412	-111.524	 H	5	SER5	0.035	
65	 3HB	145.432	32.205	-111.960	 H	5	SER5	0.035	
66	  HG	145.173	29.515	-111.046	 H	5	SER5	0.428	
67	   N	146.782	29.300	-113.640	N.am	6	ILE6	-0.416	
68	  CA	148.095	29.007	-114.207	C.3	6	ILE6	-0.060	
69	   C	148.037	28.969	-115.715	C.2	6	ILE6	0.597	
70	   O	148.871	29.558	-116.419	O.2	6	ILE6	-0.568	
71	  CB	148.696	27.671	-113.607	C.3	6	ILE6	0.130	
72	 CG1	148.716	27.609	-112.046	C.3	6	ILE6	-0.043	
73	 CG2	150.138	27.371	-114.123	C.3	6	ILE6	-0.320	
74	 CD1	148.988	26.220	-111.431	C.3	6	ILE6	-0.066	
75	   H	146.354	28.665	-112.981	 H	6	ILE6	0.272	
76	  HA	148.768	29.842	-113.939	 H	6	ILE6	0.087	
77	  HB	148.039	26.844	-113.951	 H	6	ILE6	0.019	
78	2HG1	147.734	27.928	-111.650	 H	6	ILE6	0.024	
79	3HG1	149.431	28.352	-111.641	 H	6	ILE6	0.024	
80	1HG2	150.196	27.277	-115.221	 H	6	ILE6	0.088	
81	2HG2	150.859	28.154	-113.821	 H	6	ILE6	0.088	
82	3HG2	150.529	26.409	-113.744	 H	6	ILE6	0.088	
83	1HD1	148.260	25.465	-111.785	 H	6	ILE6	0.019	
84	2HD1	149.999	25.842	-111.667	 H	6	ILE6	0.019	
85	3HD1	148.912	26.250	-110.328	 H	6	ILE6	0.019	
86	   N	147.092	28.304	-116.288	N.am	7	LEU7	-0.416	
87	  CA	147.037	28.268	-117.747	C.3	7	LEU7	-0.052	
88	   C	146.963	29.664	-118.319	C.2	7	LEU7	0.597	
89	   O	147.683	30.027	-119.261	O.2	7	LEU7	-0.568	
90	  CB	145.835	27.407	-118.227	C.3	7	LEU7	-0.110	
91	  CG	145.764	25.927	-117.760	C.3	7	LEU7	0.353	
92	 CD1	144.574	25.220	-118.425	C.3	7	LEU7	-0.412	
93	 CD2	147.058	25.150	-118.052	C.3	7	LEU7	-0.412	
94	   H	146.401	27.817	-115.737	 H	7	LEU7	0.272	
95	  HA	147.979	27.829	-118.121	 H	7	LEU7	0.092	
96	 2HB	145.811	27.423	-119.334	 H	7	LEU7	0.046	
97	 3HB	144.894	27.909	-117.922	 H	7	LEU7	0.046	
98	  HG	145.594	25.919	-116.663	 H	7	LEU7	-0.036	
99	1HD1	143.617	25.728	-118.203	 H	7	LEU7	0.100	
100	2HD1	144.673	25.180	-119.527	 H	7	LEU7	0.100	
101	3HD1	144.469	24.179	-118.069	 H	7	LEU7	0.100	
102	1HD2	147.333	25.180	-119.122	 H	7	LEU7	0.100	
103	2HD2	147.911	25.562	-117.481	 H	7	LEU7	0.100	
104	3HD2	146.978	24.087	-117.756	 H	7	LEU7	0.100	
105	   N	146.125	30.503	-117.812	N.am	8	ASP8	-0.516	
106	  CA	146.053	31.853	-118.365	C.3	8	ASP8	0.038	
107	   C	147.399	32.534	-118.309	C.2	8	ASP8	0.537	
108	   O	147.870	33.140	-119.283	O.2	8	ASP8	-0.582	
109	  CB	144.974	32.690	-117.623	C.3	8	ASP8	-0.030	
110	  CG	144.753	34.111	-118.164	C.2	8	ASP8	0.799	
111	 OD1	144.817	34.310	-119.394	O.co2	8	ASP8	-0.801	
112	 OD2	144.560	35.037	-117.348	O.co2	8	ASP8	-0.801	
113	   H	145.527	30.231	-117.045	 H	8	ASP8	0.294	
114	  HA	145.770	31.775	-119.432	 H	8	ASP8	0.088	
115	 2HB	145.231	32.774	-116.552	 H	8	ASP8	-0.012	
116	 3HB	143.995	32.184	-117.656	 H	8	ASP8	-0.012	
117	   N	148.079	32.485	-117.213	N.am	9	GLU9	-0.516	
118	  CA	149.380	33.144	-117.158	C.3	9	GLU9	0.040	
119	   C	150.299	32.618	-118.234	C.2	9	GLU9	0.537	
120	   O	150.962	33.373	-118.960	O.2	9	GLU9	-0.582	
121	  CB	150.015	32.937	-115.753	C.3	9	GLU9	0.056	
122	  CG	151.396	33.631	-115.524	C.3	9	GLU9	0.014	
123	  CD	152.099	33.418	-114.196	C.2	9	GLU9	0.805	
124	 OE1	151.578	32.727	-113.300	O.co2	9	GLU9	-0.819	
125	 OE2	153.217	33.957	-114.064	O.co2	9	GLU9	-0.819	
126	   H	147.716	31.998	-116.406	 H	9	GLU9	0.294	
127	  HA	149.237	34.226	-117.333	 H	9	GLU9	0.111	
128	 2HB	150.129	31.852	-115.550	 H	9	GLU9	-0.017	
129	 3HB	149.317	33.289	-114.969	 H	9	GLU9	-0.017	
130	 2HG	151.323	34.721	-115.664	 H	9	GLU9	-0.043	
131	 3HG	152.143	33.287	-116.258	 H	9	GLU9	-0.043	
132	   N	150.397	31.343	-118.404	N.am	10	HIS10	-0.416	
133	  CA	151.285	30.832	-119.445	C.3	10	HIS10	-0.058	
134	   C	150.917	31.397	-120.796	C.2	10	HIS10	0.597	
135	   O	151.769	31.863	-121.568	O.2	10	HIS10	-0.568	
136	  CB	151.123	29.303	-119.440	C.3	10	HIS10	-0.007	
137	  CG	152.410	28.595	-119.132	C.2	10	HIS10	0.187	
138	 CD2	152.792	28.260	-117.840	C.2	10	HIS10	-0.221	
139	 ND1	153.362	28.190	-120.065	N.2	10	HIS10	-0.543	
140	 CE1	154.270	27.633	-119.242	C.2	10	HIS10	0.163	
141	 NE2	154.007	27.630	-117.907	N.pl3	10	HIS10	-0.280	
142	   H	149.867	30.706	-117.826	 H	10	HIS10	0.272	
143	  HA	152.304	31.191	-119.220	 H	10	HIS10	0.136	
144	 2HB	150.758	28.936	-120.420	 H	10	HIS10	0.037	
145	 3HB	150.368	28.965	-118.700	 H	10	HIS10	0.037	
146	 2HD	152.206	28.474	-116.951	 H	10	HIS10	0.186	
147	 1HE	155.161	27.213	-119.689	 H	10	HIS10	0.144	
148	 2HE	154.575	27.253	-117.134	 H	10	HIS10	0.334	
149	   N	149.680	31.394	-121.158	N.am	11	VAL11	-0.416	
150	  CA	149.324	31.940	-122.465	C.3	11	VAL11	-0.087	
151	   C	149.786	33.371	-122.597	C.2	11	VAL11	0.597	
152	   O	150.386	33.777	-123.601	O.2	11	VAL11	-0.568	
153	  CB	147.762	31.832	-122.684	C.3	11	VAL11	0.299	
154	 CG1	147.193	32.535	-123.947	C.3	11	VAL11	-0.319	
155	 CG2	147.240	30.377	-122.758	C.3	11	VAL11	-0.319	
156	   H	148.967	31.020	-120.548	 H	11	VAL11	0.272	
157	  HA	149.844	31.359	-123.248	 H	11	VAL11	0.097	
158	  HB	147.274	32.311	-121.809	 H	11	VAL11	-0.030	
159	1HG1	147.631	32.144	-124.884	 H	11	VAL11	0.079	
160	2HG1	146.094	32.426	-124.028	 H	11	VAL11	0.079	
161	3HG1	147.369	33.628	-123.937	 H	11	VAL11	0.079	
162	1HG2	147.530	29.790	-121.867	 H	11	VAL11	0.079	
163	2HG2	146.134	30.338	-122.800	 H	11	VAL11	0.079	
164	3HG2	147.622	29.837	-123.644	 H	11	VAL11	0.079	
165	   N	149.548	34.197	-121.635	N.am	12	GLN12	-0.416	
166	  CA	149.995	35.580	-121.762	C.3	12	GLN12	-0.003	
167	   C	151.485	35.649	-122.000	C.2	12	GLN12	0.597	
168	   O	151.971	36.358	-122.879	O.2	12	GLN12	-0.568	
169	  CB	149.603	36.347	-120.479	C.3	12	GLN12	-0.004	
170	  CG	149.962	37.869	-120.448	C.3	12	GLN12	-0.064	
171	  CD	149.658	38.682	-119.183	C.2	12	GLN12	0.695	
172	 NE2	149.092	38.105	-118.154	N.pl3	12	GLN12	-0.941	
173	 OE1	149.959	39.863	-119.105	O.2	12	GLN12	-0.609	
174	   H	149.060	33.890	-120.806	 H	12	GLN12	0.272	
175	  HA	149.495	36.036	-122.637	 H	12	GLN12	0.085	
176	 2HB	150.080	35.847	-119.610	 H	12	GLN12	0.017	
177	 3HB	148.513	36.238	-120.316	 H	12	GLN12	0.017	
178	 2HG	149.483	38.389	-121.298	 H	12	GLN12	0.035	
179	 3HG	151.045	38.013	-120.614	 H	12	GLN12	0.035	
180	1HE2	148.985	38.699	-117.330	 H	12	GLN12	0.425	
181	2HE2	148.930	37.101	-118.257	 H	12	GLN12	0.425	
182	   N	152.270	34.943	-121.260	N.am	13	ARG13	-0.348	
183	  CA	153.711	35.011	-121.491	C.3	13	ARG13	-0.264	
184	   C	154.047	34.640	-122.916	C.2	13	ARG13	0.734	
185	   O	154.814	35.313	-123.600	O.2	13	ARG13	-0.589	
186	  CB	154.425	34.073	-120.477	C.3	13	ARG13	-0.001	
187	  CG	155.970	34.228	-120.396	C.3	13	ARG13	0.039	
188	  CD	156.598	33.241	-119.399	C.3	13	ARG13	0.049	
189	  NE	158.075	33.450	-119.349	N.pl3	13	ARG13	-0.530	
190	  CZ	158.924	32.759	-118.594	C.cat	13	ARG13	0.808	
191	 NH1	158.561	31.794	-117.796	N.pl3	13	ARG13	-0.863	
192	 NH2	160.184	33.060	-118.651	N.pl3	13	ARG13	-0.863	
193	   H	151.895	34.353	-120.531	 H	13	ARG13	0.275	
194	  HA	154.034	36.057	-121.332	 H	13	ARG13	0.156	
195	 2HB	154.160	33.022	-120.716	 H	13	ARG13	0.033	
196	 3HB	154.000	34.239	-119.466	 H	13	ARG13	0.033	
197	 2HG	156.217	35.273	-120.117	 H	13	ARG13	0.029	
198	 3HG	156.421	34.073	-121.398	 H	13	ARG13	0.029	
199	 2HD	156.355	32.201	-119.708	 H	13	ARG13	0.069	
200	 3HD	156.142	33.386	-118.396	 H	13	ARG13	0.069	
201	  HE	158.526	34.173	-119.919	 H	13	ARG13	0.346	
202	1HH1	157.556	31.607	-117.799	 H	13	ARG13	0.448	
203	2HH1	159.275	31.312	-117.248	 H	13	ARG13	0.448	
204	1HH2	160.450	33.818	-119.282	 H	13	ARG13	0.448	
205	2HH2	160.820	32.519	-118.062	 H	13	ARG13	0.448	
206	   N	153.512	33.585	-123.430	N.am	14	VAL14	-0.416	
207	  CA	153.837	33.227	-124.808	C.3	14	VAL14	-0.087	
208	   C	153.505	34.356	-125.753	C.2	14	VAL14	0.597	
209	   O	154.298	34.739	-126.623	O.2	14	VAL14	-0.568	
210	  CB	153.066	31.909	-125.215	C.3	14	VAL14	0.299	
211	 CG1	153.155	31.491	-126.708	C.3	14	VAL14	-0.319	
212	 CG2	153.500	30.657	-124.415	C.3	14	VAL14	-0.319	
213	   H	152.878	33.016	-122.888	 H	14	VAL14	0.272	
214	  HA	154.925	33.051	-124.883	 H	14	VAL14	0.097	
215	  HB	151.990	32.078	-124.999	 H	14	VAL14	-0.030	
216	1HG1	154.197	31.315	-127.037	 H	14	VAL14	0.079	
217	2HG1	152.584	30.567	-126.921	 H	14	VAL14	0.079	
218	3HG1	152.725	32.253	-127.386	 H	14	VAL14	0.079	
219	1HG2	153.413	30.815	-123.324	 H	14	VAL14	0.079	
220	2HG2	152.865	29.780	-124.647	 H	14	VAL14	0.079	
221	3HG2	154.548	30.368	-124.621	 H	14	VAL14	0.079	
222	   N	152.360	34.941	-125.651	N.am	15	MET15	-0.416	
223	  CA	152.038	36.033	-126.564	C.3	15	MET15	-0.024	
224	   C	153.067	37.134	-126.477	C.2	15	MET15	0.597	
225	   O	153.568	37.646	-127.489	O.2	15	MET15	-0.568	
226	  CB	150.616	36.577	-126.255	C.3	15	MET15	0.034	
227	  CG	149.455	35.577	-126.447	C.3	15	MET15	0.002	
228	  SD	147.880	36.442	-126.332	S.3	15	MET15	-0.274	
229	  CE	146.801	35.010	-126.195	C.3	15	MET15	-0.054	
230	   H	151.695	34.647	-124.949	 H	15	MET15	0.272	
231	  HA	152.064	35.646	-127.600	 H	15	MET15	0.088	
232	 2HB	150.412	37.456	-126.897	 H	15	MET15	0.024	
233	 3HB	150.580	36.969	-125.219	 H	15	MET15	0.024	
234	 2HG	149.499	34.792	-125.669	 H	15	MET15	0.044	
235	 3HG	149.518	35.062	-127.423	 H	15	MET15	0.044	
236	 1HE	146.945	34.323	-127.048	 H	15	MET15	0.068	
237	 2HE	147.011	34.458	-125.263	 H	15	MET15	0.068	
238	 3HE	145.743	35.324	-126.178	 H	15	MET15	0.068	
239	   N	153.435	37.556	-125.314	N.am	16	ARG16	-0.348	
240	  CA	154.430	38.621	-125.231	C.3	16	ARG16	-0.264	
241	   C	155.701	38.230	-125.947	C.2	16	ARG16	0.734	
242	   O	155.816	37.154	-126.529	O.2	16	ARG16	-0.589	
243	  CB	154.699	38.939	-123.732	C.3	16	ARG16	-0.001	
244	  CG	155.523	40.229	-123.460	C.3	16	ARG16	0.039	
245	  CD	155.773	40.448	-121.958	C.3	16	ARG16	0.049	
246	  NE	156.547	41.708	-121.757	N.pl3	16	ARG16	-0.530	
247	  CZ	156.938	42.191	-120.582	C.cat	16	ARG16	0.808	
248	 NH1	156.691	41.606	-119.443	N.pl3	16	ARG16	-0.863	
249	 NH2	157.601	43.304	-120.563	N.pl3	16	ARG16	-0.863	
250	   H	153.041	37.155	-124.475	 H	16	ARG16	0.275	
251	  HA	154.020	39.513	-125.740	 H	16	ARG16	0.156	
252	 2HB	155.197	38.063	-123.266	 H	16	ARG16	0.033	
253	 3HB	153.730	39.018	-123.198	 H	16	ARG16	0.033	
254	 2HG	154.991	41.099	-123.897	 H	16	ARG16	0.029	
255	 3HG	156.496	40.177	-123.989	 H	16	ARG16	0.029	
256	 2HD	156.323	39.574	-121.545	 H	16	ARG16	0.069	
257	 3HD	154.800	40.490	-121.423	 H	16	ARG16	0.069	
258	  HE	156.825	42.290	-122.555	 H	16	ARG16	0.346	
259	1HH1	156.167	40.732	-119.528	 H	16	ARG16	0.448	
260	2HH1	157.025	42.042	-118.582	 H	16	ARG16	0.448	
261	1HH2	157.785	43.748	-121.465	 H	16	ARG16	0.448	
262	2HH2	157.891	43.660	-119.651	 H	16	ARG16	0.448	
@<TRIPOS>BOND
1 1 2 1
2 1 9 1
3 2 3 1
4 2 5 1
5 2 10 1
6 3 4 2
7 3 13 1
8 5 6 1
9 6 7 2
10 6 8 1
11 5 11 1
12 5 12 1
13 13 14 1
14 13 21 1
15 14 15 1
16 14 17 1
17 14 22 1
18 15 16 2
19 15 27 1
20 17 18 1
21 18 19 1
22 18 20 2
23 17 23 1
24 17 24 1
25 19 25 1
26 19 26 1
27 27 28 1
28 27 33 1
29 28 29 1
30 28 31 1
31 28 34 1
32 29 30 2
33 29 41 1
34 31 32 1
35 32 33 1
36 31 35 1
37 31 36 1
38 32 37 1
39 32 38 1
40 33 39 1
41 33 40 1
42 41 42 1
43 41 50 1
44 42 43 1
45 42 45 1
46 42 51 1
47 43 44 2
48 43 56 1
49 45 46 1
50 46 47 1
51 47 48 2
52 47 49 1
53 45 52 1
54 45 53 1
55 46 54 1
56 46 55 1
57 56 57 1
58 56 62 1
59 57 58 1
60 57 60 1
61 57 63 1
62 58 59 2
63 58 67 1
64 60 61 1
65 60 64 1
66 60 65 1
67 61 66 1
68 67 68 1
69 67 75 1
70 68 69 1
71 68 71 1
72 68 76 1
73 69 70 2
74 69 86 1
75 71 72 1
76 71 73 1
77 72 74 1
78 71 77 1
79 72 78 1
80 72 79 1
81 73 80 1
82 73 81 1
83 73 82 1
84 74 83 1
85 74 84 1
86 74 85 1
87 86 87 1
88 86 94 1
89 87 88 1
90 87 90 1
91 87 95 1
92 88 89 2
93 88 105 1
94 90 91 1
95 91 92 1
96 91 93 1
97 90 96 1
98 90 97 1
99 91 98 1
100 92 99 1
101 92 100 1
102 92 101 1
103 93 102 1
104 93 103 1
105 93 104 1
106 105 106 1
107 105 113 1
108 106 107 1
109 106 109 1
110 106 114 1
111 107 108 2
112 107 117 1
113 109 110 1
114 110 111 2
115 110 112 1
116 109 115 1
117 109 116 1
118 117 118 1
119 117 126 1
120 118 119 1
121 118 121 1
122 118 127 1
123 119 120 2
124 119 132 1
125 121 122 1
126 122 123 1
127 123 124 2
128 123 125 1
129 121 128 1
130 121 129 1
131 122 130 1
132 122 131 1
133 132 133 1
134 132 142 1
135 133 134 1
136 133 136 1
137 133 143 1
138 134 135 2
139 134 149 1
140 136 137 1
141 137 138 2
142 138 141 1
143 137 139 1
144 139 140 2
145 140 141 1
146 136 144 1
147 136 145 1
148 138 146 1
149 140 147 1
150 141 148 1
151 149 150 1
152 149 156 1
153 150 151 1
154 150 153 1
155 150 157 1
156 151 152 2
157 151 165 1
158 153 154 1
159 153 155 1
160 153 158 1
161 154 159 1
162 154 160 1
163 154 161 1
164 155 162 1
165 155 163 1
166 155 164 1
167 165 166 1
168 165 174 1
169 166 167 1
170 166 169 1
171 166 175 1
172 167 168 2
173 167 182 1
174 169 170 1
175 170 171 1
176 171 172 1
177 171 173 2
178 169 176 1
179 169 177 1
180 170 178 1
181 170 179 1
182 172 180 1
183 172 181 1
184 182 183 1
185 182 193 1
186 183 184 1
187 183 186 1
188 183 194 1
189 184 185 2
190 184 206 1
191 186 187 1
192 187 188 1
193 188 189 1
194 189 190 1
195 190 191 2
196 190 192 1
197 186 195 1
198 186 196 1
199 187 197 1
200 187 198 1
201 188 199 1
202 188 200 1
203 189 201 1
204 191 202 1
205 191 203 1
206 192 204 1
207 192 205 1
208 206 207 1
209 206 213 1
210 207 208 1
211 207 210 1
212 207 214 1
213 208 209 2
214 208 222 1
215 210 211 1
216 210 212 1
217 210 215 1
218 211 216 1
219 211 217 1
220 211 218 1
221 212 219 1
222 212 220 1
223 212 221 1
224 222 223 1
225 222 230 1
226 223 224 1
227 223 226 1
228 223 231 1
229 224 225 2
230 224 239 1
231 226 227 1
232 227 228 1
233 228 229 1
234 226 232 1
235 226 233 1
236 227 234 1
237 227 235 1
238 229 236 1
239 229 237 1
240 229 238 1
241 239 240 1
242 239 250 1
243 240 241 1
244 240 243 1
245 240 251 1
246 241 242 2
247 243 244 1
248 244 245 1
249 245 246 1
250 246 247 1
251 247 248 2
252 247 249 1
253 243 252 1
254 243 253 1
255 244 254 1
256 244 255 1
257 245 256 1
258 245 257 1
259 246 258 1
260 248 259 1
261 248 260 1
262 249 261 1
263 249 262 1
@<TRIPOS>SUBSTRUCTURE
1	ASP1	1	RESIDUE	1 ****	ASP
2	ASN2	13	RESIDUE	1 ****	ASN
3	PRO3	27	RESIDUE	1 ****	PRO
4	GLU4	41	RESIDUE	1 ****	GLU
5	SER5	56	RESIDUE	1 ****	SER
6	ILE6	67	RESIDUE	1 ****	ILE
7	LEU7	86	RESIDUE	1 ****	LEU
8	ASP8	105	RESIDUE	1 ****	ASP
9	GLU9	117	RESIDUE	1 ****	GLU
10	HIS10	132	RESIDUE	1 ****	HIS
11	VAL11	149	RESIDUE	1 ****	VAL
12	GLN12	165	RESIDUE	1 ****	GLN
13	ARG13	182	RESIDUE	1 ****	ARG
14	VAL14	206	RESIDUE	1 ****	VAL
15	MET15	222	RESIDUE	1 ****	MET
16	ARG16	239	RESIDUE	1 ****	ARG
