@<TRIPOS>MOLECULE
10-4
264 264 16              
SMALL
USER_CHARGES
@<TRIPOS>ATOM
1	   N	1541.667	456.274	-1564.322	N.3	1	GLU1	-0.516	
2	  CA	1542.226	457.623	-1564.322	C.3	1	GLU1	0.040	
3	   C	1543.735	457.583	-1564.322	C.2	1	GLU1	0.537	
4	   O	1544.411	458.282	-1565.091	O.2	1	GLU1	-0.582	
5	  CB	1541.703	458.408	-1563.085	C.3	1	GLU1	0.056	
6	  CG	1542.178	459.893	-1562.974	C.3	1	GLU1	0.014	
7	  CD	1541.754	460.697	-1561.759	C.2	1	GLU1	0.805	
8	 OE1	1541.026	460.195	-1560.881	O.co2	1	GLU1	-0.819	
9	 OE2	1542.184	461.867	-1561.687	O.co2	1	GLU1	-0.819	
10	   H	1542.294	455.395	-1564.322	 H	1	GLU1	0.294	
11	  HA	1541.900	458.141	-1565.242	 H	1	GLU1	0.111	
12	 2HB	1541.992	457.877	-1562.155	 H	1	GLU1	-0.017	
13	 3HB	1540.596	458.398	-1563.072	 H	1	GLU1	-0.017	
14	 2HG	1541.868	460.478	-1563.855	 H	1	GLU1	-0.043	
15	 3HG	1543.278	459.960	-1562.945	 H	1	GLU1	-0.043	
16	   N	1544.339	456.797	-1563.497	N.am	2	ASN2	-0.416	
17	  CA	1545.799	456.758	-1563.497	C.3	2	ASN2	0.014	
18	   C	1546.330	456.403	-1564.866	C.2	2	ASN2	0.597	
19	   O	1547.245	457.033	-1565.395	O.2	2	ASN2	-0.568	
20	  CB	1546.291	455.735	-1562.433	C.3	2	ASN2	-0.204	
21	  CG	1545.828	455.959	-1560.990	C.2	2	ASN2	0.713	
22	 ND2	1546.422	456.874	-1560.271	N.pl3	2	ASN2	-0.919	
23	 OD1	1544.907	455.325	-1560.495	O.2	2	ASN2	-0.593	
24	   H	1543.811	456.217	-1562.861	 H	2	ASN2	0.272	
25	  HA	1546.176	457.768	-1563.252	 H	2	ASN2	0.105	
26	 2HB	1547.395	455.676	-1562.437	 H	2	ASN2	0.080	
27	 3HB	1545.962	454.717	-1562.719	 H	2	ASN2	0.080	
28	1HD2	1545.941	457.047	-1559.385	 H	2	ASN2	0.420	
29	2HD2	1547.124	457.446	-1560.741	 H	2	ASN2	0.420	
30	   N	1545.808	455.408	-1565.500	N.am	3	PRO3	-0.255	
31	  CA	1546.260	454.998	-1566.822	C.3	3	PRO3	-0.027	
32	   C	1545.862	456.022	-1567.898	C.2	3	PRO3	0.590	
33	   O	1546.685	456.405	-1568.730	O.2	3	PRO3	-0.575	
34	  CB	1545.556	453.644	-1566.991	C.3	3	PRO3	-0.007	
35	  CG	1544.273	453.796	-1566.161	C.3	3	PRO3	0.019	
36	  CD	1544.730	454.614	-1564.951	C.3	3	PRO3	0.019	
37	  HA	1547.346	454.879	-1566.835	 H	3	PRO3	0.064	
38	 2HB	1546.179	452.862	-1566.550	 H	3	PRO3	0.025	
39	 3HB	1545.358	453.395	-1568.036	 H	3	PRO3	0.025	
40	 2HG	1543.845	452.833	-1565.870	 H	3	PRO3	0.021	
41	 3HG	1543.535	454.367	-1566.728	 H	3	PRO3	0.021	
42	 2HD	1545.120	453.965	-1564.163	 H	3	PRO3	0.039	
43	 3HD	1543.934	455.250	-1564.558	 H	3	PRO3	0.039	
44	   N	1544.657	456.482	-1567.931	N.am	4	GLU4	-0.516	
45	  CA	1544.297	457.453	-1568.960	C.3	4	GLU4	0.040	
46	   C	1545.196	458.664	-1568.899	C.2	4	GLU4	0.537	
47	   O	1545.722	459.144	-1569.914	O.2	4	GLU4	-0.582	
48	  CB	1542.809	457.872	-1568.790	C.3	4	GLU4	0.056	
49	  CG	1542.260	458.875	-1569.855	C.3	4	GLU4	0.014	
50	  CD	1540.834	459.372	-1569.711	C.2	4	GLU4	0.805	
51	 OE1	1540.108	458.973	-1568.780	O.co2	4	GLU4	-0.819	
52	 OE2	1540.444	460.201	-1570.560	O.co2	4	GLU4	-0.819	
53	   H	1543.973	456.175	-1567.254	 H	4	GLU4	0.294	
54	  HA	1544.428	456.982	-1569.951	 H	4	GLU4	0.111	
55	 2HB	1542.656	458.311	-1567.783	 H	4	GLU4	-0.017	
56	 3HB	1542.161	456.974	-1568.796	 H	4	GLU4	-0.017	
57	 2HG	1542.342	458.460	-1570.873	 H	4	GLU4	-0.043	
58	 3HG	1542.848	459.808	-1569.866	 H	4	GLU4	-0.043	
59	   N	1545.424	459.217	-1567.756	N.am	5	SER5	-0.416	
60	  CA	1546.293	460.388	-1567.698	C.3	5	SER5	-0.025	
61	   C	1547.652	460.083	-1568.283	C.2	5	SER5	0.597	
62	   O	1548.199	460.836	-1569.088	O.2	5	SER5	-0.568	
63	  CB	1546.405	460.920	-1566.247	C.3	5	SER5	0.212	
64	  OG	1547.137	460.041	-1565.386	O.3	5	SER5	-0.655	
65	   H	1545.007	458.845	-1566.914	 H	5	SER5	0.272	
66	  HA	1545.844	461.178	-1568.327	 H	5	SER5	0.084	
67	 2HB	1545.405	461.114	-1565.813	 H	5	SER5	0.035	
68	 3HB	1546.910	461.906	-1566.249	 H	5	SER5	0.035	
69	  HG	1546.648	459.216	-1565.335	 H	5	SER5	0.428	
70	   N	1548.257	459.000	-1567.929	N.am	6	ILE6	-0.416	
71	  CA	1549.570	458.705	-1568.496	C.3	6	ILE6	-0.060	
72	   C	1549.512	458.668	-1570.004	C.2	6	ILE6	0.597	
73	   O	1550.347	459.256	-1570.708	O.2	6	ILE6	-0.568	
74	  CB	1550.170	457.369	-1567.896	C.3	6	ILE6	0.130	
75	 CG1	1550.189	457.306	-1566.335	C.3	6	ILE6	-0.043	
76	 CG2	1551.611	457.067	-1568.411	C.3	6	ILE6	-0.320	
77	 CD1	1550.459	455.917	-1565.720	C.3	6	ILE6	-0.066	
78	   H	1547.828	458.365	-1567.270	 H	6	ILE6	0.272	
79	  HA	1550.244	459.539	-1568.228	 H	6	ILE6	0.087	
80	  HB	1549.512	456.543	-1568.240	 H	6	ILE6	0.019	
81	2HG1	1549.207	457.626	-1565.939	 H	6	ILE6	0.024	
82	3HG1	1550.905	458.048	-1565.930	 H	6	ILE6	0.024	
83	1HG2	1551.670	456.974	-1569.510	 H	6	ILE6	0.088	
84	2HG2	1552.333	457.850	-1568.109	 H	6	ILE6	0.088	
85	3HG2	1552.001	456.105	-1568.033	 H	6	ILE6	0.088	
86	1HD1	1549.731	455.163	-1566.075	 H	6	ILE6	0.019	
87	2HD1	1551.470	455.539	-1565.956	 H	6	ILE6	0.019	
88	3HD1	1550.383	455.947	-1564.618	 H	6	ILE6	0.019	
89	   N	1548.567	458.004	-1570.577	N.am	7	LEU7	-0.416	
90	  CA	1548.511	457.968	-1572.036	C.3	7	LEU7	-0.052	
91	   C	1548.439	459.364	-1572.608	C.2	7	LEU7	0.597	
92	   O	1549.159	459.727	-1573.550	O.2	7	LEU7	-0.568	
93	  CB	1547.308	457.108	-1572.516	C.3	7	LEU7	-0.110	
94	  CG	1547.236	455.629	-1572.050	C.3	7	LEU7	0.353	
95	 CD1	1546.046	454.923	-1572.715	C.3	7	LEU7	-0.412	
96	 CD2	1548.529	454.850	-1572.342	C.3	7	LEU7	-0.412	
97	   H	1547.875	457.517	-1570.026	 H	7	LEU7	0.272	
98	  HA	1549.453	457.528	-1572.410	 H	7	LEU7	0.092	
99	 2HB	1547.285	457.124	-1573.624	 H	7	LEU7	0.046	
100	 3HB	1546.369	457.611	-1572.212	 H	7	LEU7	0.046	
101	  HG	1547.066	455.620	-1570.953	 H	7	LEU7	-0.036	
102	1HD1	1545.089	455.432	-1572.493	 H	7	LEU7	0.100	
103	2HD1	1546.145	454.883	-1573.817	 H	7	LEU7	0.100	
104	3HD1	1545.939	453.882	-1572.359	 H	7	LEU7	0.100	
105	1HD2	1548.804	454.880	-1573.411	 H	7	LEU7	0.100	
106	2HD2	1549.383	455.261	-1571.770	 H	7	LEU7	0.100	
107	3HD2	1548.448	453.787	-1572.046	 H	7	LEU7	0.100	
108	   N	1547.602	460.204	-1572.101	N.am	8	ASP8	-0.516	
109	  CA	1547.531	461.554	-1572.654	C.3	8	ASP8	0.038	
110	   C	1548.878	462.234	-1572.597	C.2	8	ASP8	0.537	
111	   O	1549.350	462.839	-1573.571	O.2	8	ASP8	-0.582	
112	  CB	1546.453	462.393	-1571.912	C.3	8	ASP8	-0.030	
113	  CG	1546.234	463.814	-1572.452	C.2	8	ASP8	0.799	
114	 OD1	1546.298	464.013	-1573.683	O.co2	8	ASP8	-0.801	
115	 OD2	1546.042	464.739	-1571.637	O.co2	8	ASP8	-0.801	
116	   H	1547.004	459.933	-1571.334	 H	8	ASP8	0.294	
117	  HA	1547.248	461.476	-1573.721	 H	8	ASP8	0.088	
118	 2HB	1546.710	462.476	-1570.840	 H	8	ASP8	-0.012	
119	 3HB	1545.474	461.888	-1571.945	 H	8	ASP8	-0.012	
120	   N	1549.558	462.184	-1571.502	N.am	9	GLU9	-0.516	
121	  CA	1550.860	462.841	-1571.446	C.3	9	GLU9	0.040	
122	   C	1551.778	462.314	-1572.523	C.2	9	GLU9	0.537	
123	   O	1552.442	463.069	-1573.248	O.2	9	GLU9	-0.582	
124	  CB	1551.494	462.633	-1570.041	C.3	9	GLU9	0.056	
125	  CG	1552.876	463.326	-1569.812	C.3	9	GLU9	0.014	
126	  CD	1553.579	463.112	-1568.483	C.2	9	GLU9	0.805	
127	 OE1	1553.057	462.420	-1567.587	O.co2	9	GLU9	-0.819	
128	 OE2	1554.698	463.650	-1568.352	O.co2	9	GLU9	-0.819	
129	   H	1549.194	461.697	-1570.695	 H	9	GLU9	0.294	
130	  HA	1550.718	463.923	-1571.621	 H	9	GLU9	0.111	
131	 2HB	1551.607	461.549	-1569.838	 H	9	GLU9	-0.017	
132	 3HB	1550.797	462.986	-1569.257	 H	9	GLU9	-0.017	
133	 2HG	1552.805	464.416	-1569.951	 H	9	GLU9	-0.043	
134	 3HG	1553.623	462.981	-1570.546	 H	9	GLU9	-0.043	
135	   N	1551.875	461.039	-1572.693	N.am	10	VAL10	-0.416	
136	  CA	1552.763	460.529	-1573.734	C.3	10	VAL10	-0.087	
137	   C	1552.394	461.096	-1575.084	C.2	10	VAL10	0.597	
138	   O	1553.243	461.561	-1575.855	O.2	10	VAL10	-0.568	
139	  CB	1552.714	458.950	-1573.754	C.3	10	VAL10	0.299	
140	 CG1	1553.459	458.252	-1574.925	C.3	10	VAL10	-0.319	
141	 CG2	1553.265	458.289	-1572.468	C.3	10	VAL10	-0.319	
142	   H	1551.345	460.403	-1572.114	 H	10	VAL10	0.272	
143	  HA	1553.795	460.860	-1573.515	 H	10	VAL10	0.097	
144	  HB	1551.645	458.656	-1573.841	 H	10	VAL10	-0.030	
145	1HG1	1554.538	458.495	-1574.945	 H	10	VAL10	0.079	
146	2HG1	1553.372	457.149	-1574.880	 H	10	VAL10	0.079	
147	3HG1	1553.045	458.529	-1575.913	 H	10	VAL10	0.079	
148	1HG2	1552.755	458.664	-1571.562	 H	10	VAL10	0.079	
149	2HG2	1553.113	457.192	-1572.471	 H	10	VAL10	0.079	
150	3HG2	1554.348	458.471	-1572.333	 H	10	VAL10	0.079	
151	   N	1551.156	461.094	-1575.445	N.am	11	VAL11	-0.416	
152	  CA	1550.799	461.642	-1576.751	C.3	11	VAL11	-0.087	
153	   C	1551.261	463.073	-1576.882	C.2	11	VAL11	0.597	
154	   O	1551.861	463.480	-1577.885	O.2	11	VAL11	-0.568	
155	  CB	1549.237	461.534	-1576.968	C.3	11	VAL11	0.299	
156	 CG1	1548.666	462.239	-1578.229	C.3	11	VAL11	-0.319	
157	 CG2	1548.714	460.079	-1577.043	C.3	11	VAL11	-0.319	
158	   H	1550.444	460.720	-1574.834	 H	11	VAL11	0.272	
159	  HA	1551.318	461.061	-1577.535	 H	11	VAL11	0.097	
160	  HB	1548.750	462.012	-1576.092	 H	11	VAL11	-0.030	
161	1HG1	1549.104	461.849	-1579.167	 H	11	VAL11	0.079	
162	2HG1	1547.567	462.131	-1578.310	 H	11	VAL11	0.079	
163	3HG1	1548.843	463.332	-1578.219	 H	11	VAL11	0.079	
164	1HG2	1549.005	459.491	-1576.153	 H	11	VAL11	0.079	
165	2HG2	1547.608	460.041	-1577.084	 H	11	VAL11	0.079	
166	3HG2	1549.095	459.540	-1577.931	 H	11	VAL11	0.079	
167	   N	1551.025	463.897	-1575.918	N.am	12	GLN12	-0.416	
168	  CA	1551.472	465.280	-1576.043	C.3	12	GLN12	-0.003	
169	   C	1552.961	465.350	-1576.283	C.2	12	GLN12	0.597	
170	   O	1553.446	466.060	-1577.161	O.2	12	GLN12	-0.568	
171	  CB	1551.081	466.046	-1574.759	C.3	12	GLN12	-0.004	
172	  CG	1551.440	467.568	-1574.726	C.3	12	GLN12	-0.064	
173	  CD	1551.138	468.379	-1573.459	C.2	12	GLN12	0.695	
174	 NE2	1550.573	467.800	-1572.431	N.pl3	12	GLN12	-0.941	
175	 OE1	1551.439	469.560	-1573.380	O.2	12	GLN12	-0.609	
176	   H	1550.537	463.589	-1575.089	 H	12	GLN12	0.272	
177	  HA	1550.971	465.737	-1576.917	 H	12	GLN12	0.085	
178	 2HB	1551.559	465.545	-1573.891	 H	12	GLN12	0.017	
179	 3HB	1549.991	465.937	-1574.594	 H	12	GLN12	0.017	
180	 2HG	1550.961	468.089	-1575.575	 H	12	GLN12	0.035	
181	 3HG	1552.523	467.711	-1574.892	 H	12	GLN12	0.035	
182	1HE2	1550.466	468.393	-1571.606	 H	12	GLN12	0.425	
183	2HE2	1550.411	466.797	-1572.536	 H	12	GLN12	0.425	
184	   N	1553.747	464.643	-1575.544	N.am	13	ARG13	-0.348	
185	  CA	1555.187	464.711	-1575.776	C.3	13	ARG13	-0.264	
186	   C	1555.522	464.342	-1577.202	C.2	13	ARG13	0.734	
187	   O	1556.289	465.015	-1577.886	O.2	13	ARG13	-0.589	
188	  CB	1555.903	463.771	-1574.765	C.3	13	ARG13	-0.001	
189	  CG	1557.448	463.926	-1574.685	C.3	13	ARG13	0.039	
190	  CD	1558.077	462.937	-1573.690	C.3	13	ARG13	0.049	
191	  NE	1559.554	463.146	-1573.641	N.pl3	13	ARG13	-0.530	
192	  CZ	1560.404	462.454	-1572.888	C.cat	13	ARG13	0.808	
193	 NH1	1560.041	461.488	-1572.091	N.pl3	13	ARG13	-0.863	
194	 NH2	1561.663	462.755	-1572.946	N.pl3	13	ARG13	-0.863	
195	   H	1553.373	464.051	-1574.816	 H	13	ARG13	0.275	
196	  HA	1555.511	465.757	-1575.617	 H	13	ARG13	0.156	
197	 2HB	1555.637	462.720	-1575.005	 H	13	ARG13	0.033	
198	 3HB	1555.479	463.935	-1573.753	 H	13	ARG13	0.033	
199	 2HG	1557.695	464.970	-1574.405	 H	13	ARG13	0.029	
200	 3HG	1557.897	463.771	-1575.688	 H	13	ARG13	0.029	
201	 2HD	1557.833	461.897	-1574.000	 H	13	ARG13	0.069	
202	 3HD	1557.622	463.081	-1572.686	 H	13	ARG13	0.069	
203	  HE	1560.004	463.869	-1574.211	 H	13	ARG13	0.346	
204	1HH1	1559.036	461.301	-1572.093	 H	13	ARG13	0.448	
205	2HH1	1560.755	461.005	-1571.544	 H	13	ARG13	0.448	
206	1HH2	1561.929	463.514	-1573.576	 H	13	ARG13	0.448	
207	2HH2	1562.299	462.213	-1572.359	 H	13	ARG13	0.448	
208	   N	1554.986	463.287	-1577.718	N.am	14	VAL14	-0.416	
209	  CA	1555.310	462.930	-1579.096	C.3	14	VAL14	-0.087	
210	   C	1554.977	464.061	-1580.040	C.2	14	VAL14	0.597	
211	   O	1555.769	464.445	-1580.910	O.2	14	VAL14	-0.568	
212	  CB	1554.539	461.613	-1579.504	C.3	14	VAL14	0.299	
213	 CG1	1554.626	461.197	-1580.998	C.3	14	VAL14	-0.319	
214	 CG2	1554.973	460.360	-1578.706	C.3	14	VAL14	-0.319	
215	   H	1554.353	462.717	-1577.176	 H	14	VAL14	0.272	
216	  HA	1556.398	462.755	-1579.172	 H	14	VAL14	0.097	
217	  HB	1553.462	461.783	-1579.286	 H	14	VAL14	-0.030	
218	1HG1	1555.667	461.022	-1581.329	 H	14	VAL14	0.079	
219	2HG1	1554.054	460.273	-1581.211	 H	14	VAL14	0.079	
220	3HG1	1554.195	461.960	-1581.675	 H	14	VAL14	0.079	
221	1HG2	1554.887	460.517	-1577.615	 H	14	VAL14	0.079	
222	2HG2	1554.338	459.483	-1578.939	 H	14	VAL14	0.079	
223	3HG2	1556.021	460.072	-1578.913	 H	14	VAL14	0.079	
224	   N	1553.832	464.646	-1579.936	N.am	15	MET15	-0.416	
225	  CA	1553.509	465.739	-1580.847	C.3	15	MET15	-0.024	
226	   C	1554.538	466.840	-1580.759	C.2	15	MET15	0.597	
227	   O	1555.039	467.353	-1581.772	O.2	15	MET15	-0.568	
228	  CB	1552.088	466.283	-1580.536	C.3	15	MET15	0.034	
229	  CG	1550.927	465.283	-1580.728	C.3	15	MET15	0.002	
230	  SD	1549.352	466.148	-1580.610	S.3	15	MET15	-0.274	
231	  CE	1548.272	464.716	-1580.474	C.3	15	MET15	-0.054	
232	   H	1553.168	464.351	-1579.234	 H	15	MET15	0.272	
233	  HA	1553.534	465.353	-1581.884	 H	15	MET15	0.088	
234	 2HB	1551.883	467.162	-1581.177	 H	15	MET15	0.024	
235	 3HB	1552.053	466.674	-1579.499	 H	15	MET15	0.024	
236	 2HG	1550.971	464.497	-1579.951	 H	15	MET15	0.044	
237	 3HG	1550.989	464.770	-1581.705	 H	15	MET15	0.044	
238	 1HE	1548.416	464.029	-1581.328	 H	15	MET15	0.068	
239	 2HE	1548.483	464.162	-1579.543	 H	15	MET15	0.068	
240	 3HE	1547.214	465.030	-1580.456	 H	15	MET15	0.068	
241	   N	1554.908	467.260	-1579.597	N.am	16	ARG16	-0.348	
242	  CA	1555.903	468.325	-1579.513	C.3	16	ARG16	-0.264	
243	   C	1557.173	467.935	-1580.231	C.2	16	ARG16	0.734	
244	   O	1557.288	466.859	-1580.814	O.2	16	ARG16	-0.589	
245	  CB	1556.174	468.641	-1578.014	C.3	16	ARG16	-0.001	
246	  CG	1556.998	469.930	-1577.740	C.3	16	ARG16	0.039	
247	  CD	1557.249	470.147	-1576.239	C.3	16	ARG16	0.049	
248	  NE	1558.024	471.407	-1576.037	N.pl3	16	ARG16	-0.530	
249	  CZ	1558.416	471.888	-1574.861	C.cat	16	ARG16	0.808	
250	 NH1	1558.170	471.302	-1573.723	N.pl3	16	ARG16	-0.863	
251	 NH2	1559.078	473.001	-1574.841	N.pl3	16	ARG16	-0.863	
252	   H	1554.515	466.858	-1578.758	 H	16	ARG16	0.275	
253	  HA	1555.492	469.218	-1580.020	 H	16	ARG16	0.156	
254	 2HB	1556.672	467.765	-1577.550	 H	16	ARG16	0.033	
255	 3HB	1555.205	468.720	-1577.479	 H	16	ARG16	0.033	
256	 2HG	1556.466	470.801	-1578.175	 H	16	ARG16	0.029	
257	 3HG	1557.970	469.879	-1578.270	 H	16	ARG16	0.029	
258	 2HD	1557.799	469.273	-1575.828	 H	16	ARG16	0.069	
259	 3HD	1556.276	470.188	-1575.702	 H	16	ARG16	0.069	
260	  HE	1558.300	471.990	-1576.833	 H	16	ARG16	0.346	
261	1HH1	1557.645	470.428	-1573.808	 H	16	ARG16	0.448	
262	2HH1	1558.505	471.736	-1572.861	 H	16	ARG16	0.448	
263	1HH2	1559.262	473.446	-1575.743	 H	16	ARG16	0.448	
264	2HH2	1559.369	473.355	-1573.928	 H	16	ARG16	0.448	
@<TRIPOS>BOND
1 1 2 1
2 1 10 1
3 2 3 1
4 2 5 1
5 2 11 1
6 3 4 2
7 3 16 1
8 5 6 1
9 6 7 1
10 7 8 2
11 7 9 1
12 5 12 1
13 5 13 1
14 6 14 1
15 6 15 1
16 16 17 1
17 16 24 1
18 17 18 1
19 17 20 1
20 17 25 1
21 18 19 2
22 18 30 1
23 20 21 1
24 21 22 1
25 21 23 2
26 20 26 1
27 20 27 1
28 22 28 1
29 22 29 1
30 30 31 1
31 30 36 1
32 31 32 1
33 31 34 1
34 31 37 1
35 32 33 2
36 32 44 1
37 34 35 1
38 35 36 1
39 34 38 1
40 34 39 1
41 35 40 1
42 35 41 1
43 36 42 1
44 36 43 1
45 44 45 1
46 44 53 1
47 45 46 1
48 45 48 1
49 45 54 1
50 46 47 2
51 46 59 1
52 48 49 1
53 49 50 1
54 50 51 2
55 50 52 1
56 48 55 1
57 48 56 1
58 49 57 1
59 49 58 1
60 59 60 1
61 59 65 1
62 60 61 1
63 60 63 1
64 60 66 1
65 61 62 2
66 61 70 1
67 63 64 1
68 63 67 1
69 63 68 1
70 64 69 1
71 70 71 1
72 70 78 1
73 71 72 1
74 71 74 1
75 71 79 1
76 72 73 2
77 72 89 1
78 74 75 1
79 74 76 1
80 75 77 1
81 74 80 1
82 75 81 1
83 75 82 1
84 76 83 1
85 76 84 1
86 76 85 1
87 77 86 1
88 77 87 1
89 77 88 1
90 89 90 1
91 89 97 1
92 90 91 1
93 90 93 1
94 90 98 1
95 91 92 2
96 91 108 1
97 93 94 1
98 94 95 1
99 94 96 1
100 93 99 1
101 93 100 1
102 94 101 1
103 95 102 1
104 95 103 1
105 95 104 1
106 96 105 1
107 96 106 1
108 96 107 1
109 108 109 1
110 108 116 1
111 109 110 1
112 109 112 1
113 109 117 1
114 110 111 2
115 110 120 1
116 112 113 1
117 113 114 2
118 113 115 1
119 112 118 1
120 112 119 1
121 120 121 1
122 120 129 1
123 121 122 1
124 121 124 1
125 121 130 1
126 122 123 2
127 122 135 1
128 124 125 1
129 125 126 1
130 126 127 2
131 126 128 1
132 124 131 1
133 124 132 1
134 125 133 1
135 125 134 1
136 135 136 1
137 135 142 1
138 136 137 1
139 136 139 1
140 136 143 1
141 137 138 2
142 137 151 1
143 139 140 1
144 139 141 1
145 139 144 1
146 140 145 1
147 140 146 1
148 140 147 1
149 141 148 1
150 141 149 1
151 141 150 1
152 151 152 1
153 151 158 1
154 152 153 1
155 152 155 1
156 152 159 1
157 153 154 2
158 153 167 1
159 155 156 1
160 155 157 1
161 155 160 1
162 156 161 1
163 156 162 1
164 156 163 1
165 157 164 1
166 157 165 1
167 157 166 1
168 167 168 1
169 167 176 1
170 168 169 1
171 168 171 1
172 168 177 1
173 169 170 2
174 169 184 1
175 171 172 1
176 172 173 1
177 173 174 1
178 173 175 2
179 171 178 1
180 171 179 1
181 172 180 1
182 172 181 1
183 174 182 1
184 174 183 1
185 184 185 1
186 184 195 1
187 185 186 1
188 185 188 1
189 185 196 1
190 186 187 2
191 186 208 1
192 188 189 1
193 189 190 1
194 190 191 1
195 191 192 1
196 192 193 2
197 192 194 1
198 188 197 1
199 188 198 1
200 189 199 1
201 189 200 1
202 190 201 1
203 190 202 1
204 191 203 1
205 193 204 1
206 193 205 1
207 194 206 1
208 194 207 1
209 208 209 1
210 208 215 1
211 209 210 1
212 209 212 1
213 209 216 1
214 210 211 2
215 210 224 1
216 212 213 1
217 212 214 1
218 212 217 1
219 213 218 1
220 213 219 1
221 213 220 1
222 214 221 1
223 214 222 1
224 214 223 1
225 224 225 1
226 224 232 1
227 225 226 1
228 225 228 1
229 225 233 1
230 226 227 2
231 226 241 1
232 228 229 1
233 229 230 1
234 230 231 1
235 228 234 1
236 228 235 1
237 229 236 1
238 229 237 1
239 231 238 1
240 231 239 1
241 231 240 1
242 241 242 1
243 241 252 1
244 242 243 1
245 242 245 1
246 242 253 1
247 243 244 2
248 245 246 1
249 246 247 1
250 247 248 1
251 248 249 1
252 249 250 2
253 249 251 1
254 245 254 1
255 245 255 1
256 246 256 1
257 246 257 1
258 247 258 1
259 247 259 1
260 248 260 1
261 250 261 1
262 250 262 1
263 251 263 1
264 251 264 1
@<TRIPOS>SUBSTRUCTURE
1	GLU1	1	RESIDUE	1 ****	GLU
2	ASN2	16	RESIDUE	1 ****	ASN
3	PRO3	30	RESIDUE	1 ****	PRO
4	GLU4	44	RESIDUE	1 ****	GLU
5	SER5	59	RESIDUE	1 ****	SER
6	ILE6	70	RESIDUE	1 ****	ILE
7	LEU7	89	RESIDUE	1 ****	LEU
8	ASP8	108	RESIDUE	1 ****	ASP
9	GLU9	120	RESIDUE	1 ****	GLU
10	VAL10	135	RESIDUE	1 ****	VAL
11	VAL11	151	RESIDUE	1 ****	VAL
12	GLN12	167	RESIDUE	1 ****	GLN
13	ARG13	184	RESIDUE	1 ****	ARG
14	VAL14	208	RESIDUE	1 ****	VAL
15	MET15	224	RESIDUE	1 ****	MET
16	ARG16	241	RESIDUE	1 ****	ARG
