@<TRIPOS>MOLECULE
8-11
270 272 16              
SMALL
USER_CHARGES
@<TRIPOS>ATOM
1	   N	1271.196	367.561	-1271.328	N.3	1	GLU1	-0.516	
2	  CA	1271.755	368.910	-1271.328	C.3	1	GLU1	0.040	
3	   C	1273.264	368.870	-1271.328	C.2	1	GLU1	0.537	
4	   O	1273.940	369.570	-1272.096	O.2	1	GLU1	-0.582	
5	  CB	1271.232	369.695	-1270.091	C.3	1	GLU1	0.056	
6	  CG	1271.707	371.180	-1269.980	C.3	1	GLU1	0.014	
7	  CD	1271.283	371.984	-1268.765	C.2	1	GLU1	0.805	
8	 OE1	1270.555	371.482	-1267.887	O.co2	1	GLU1	-0.819	
9	 OE2	1271.713	373.154	-1268.693	O.co2	1	GLU1	-0.819	
10	   H	1271.823	366.682	-1271.328	 H	1	GLU1	0.294	
11	  HA	1271.429	369.428	-1272.248	 H	1	GLU1	0.111	
12	 2HB	1271.521	369.164	-1269.161	 H	1	GLU1	-0.017	
13	 3HB	1270.125	369.685	-1270.078	 H	1	GLU1	-0.017	
14	 2HG	1271.397	371.765	-1270.861	 H	1	GLU1	-0.043	
15	 3HG	1272.807	371.247	-1269.951	 H	1	GLU1	-0.043	
16	   N	1273.869	368.085	-1270.503	N.am	2	ASN2	-0.416	
17	  CA	1275.328	368.046	-1270.503	C.3	2	ASN2	0.014	
18	   C	1275.859	367.690	-1271.871	C.2	2	ASN2	0.597	
19	   O	1276.774	368.321	-1272.400	O.2	2	ASN2	-0.568	
20	  CB	1275.820	367.023	-1269.438	C.3	2	ASN2	-0.204	
21	  CG	1275.357	367.247	-1267.995	C.2	2	ASN2	0.713	
22	 ND2	1275.951	368.162	-1267.277	N.pl3	2	ASN2	-0.919	
23	 OD1	1274.436	366.613	-1267.501	O.2	2	ASN2	-0.593	
24	   H	1273.341	367.505	-1269.866	 H	2	ASN2	0.272	
25	  HA	1275.705	369.056	-1270.257	 H	2	ASN2	0.105	
26	 2HB	1276.925	366.964	-1269.442	 H	2	ASN2	0.080	
27	 3HB	1275.491	366.005	-1269.724	 H	2	ASN2	0.080	
28	1HD2	1275.471	368.335	-1266.390	 H	2	ASN2	0.420	
29	2HD2	1276.653	368.733	-1267.746	 H	2	ASN2	0.420	
30	   N	1275.338	366.695	-1272.505	N.am	3	PRO3	-0.255	
31	  CA	1275.789	366.286	-1273.827	C.3	3	PRO3	-0.027	
32	   C	1275.391	367.309	-1274.904	C.2	3	PRO3	0.590	
33	   O	1276.214	367.693	-1275.735	O.2	3	PRO3	-0.575	
34	  CB	1275.085	364.931	-1273.996	C.3	3	PRO3	-0.007	
35	  CG	1273.802	365.084	-1273.166	C.3	3	PRO3	0.019	
36	  CD	1274.260	365.902	-1271.956	C.3	3	PRO3	0.019	
37	  HA	1276.875	366.166	-1273.841	 H	3	PRO3	0.064	
38	 2HB	1275.708	364.150	-1273.556	 H	3	PRO3	0.025	
39	 3HB	1274.887	364.683	-1275.042	 H	3	PRO3	0.025	
40	 2HG	1273.375	364.121	-1272.875	 H	3	PRO3	0.021	
41	 3HG	1273.064	365.654	-1273.733	 H	3	PRO3	0.021	
42	 2HD	1274.649	365.253	-1271.169	 H	3	PRO3	0.039	
43	 3HD	1273.463	366.538	-1271.563	 H	3	PRO3	0.039	
44	   N	1274.187	367.770	-1274.936	N.am	4	GLU4	-0.516	
45	  CA	1273.827	368.741	-1275.966	C.3	4	GLU4	0.040	
46	   C	1274.726	369.952	-1275.905	C.2	4	GLU4	0.537	
47	   O	1275.252	370.431	-1276.919	O.2	4	GLU4	-0.582	
48	  CB	1272.338	369.159	-1275.795	C.3	4	GLU4	0.056	
49	  CG	1271.790	370.163	-1276.861	C.3	4	GLU4	0.014	
50	  CD	1270.363	370.659	-1276.717	C.2	4	GLU4	0.805	
51	 OE1	1269.637	370.261	-1275.786	O.co2	4	GLU4	-0.819	
52	 OE2	1269.974	371.489	-1277.565	O.co2	4	GLU4	-0.819	
53	   H	1273.502	367.463	-1274.259	 H	4	GLU4	0.294	
54	  HA	1273.958	368.270	-1276.957	 H	4	GLU4	0.111	
55	 2HB	1272.186	369.599	-1274.788	 H	4	GLU4	-0.017	
56	 3HB	1271.690	368.261	-1275.801	 H	4	GLU4	-0.017	
57	 2HG	1271.871	369.748	-1277.878	 H	4	GLU4	-0.043	
58	 3HG	1272.378	371.095	-1276.872	 H	4	GLU4	-0.043	
59	   N	1274.953	370.505	-1274.761	N.am	5	SER5	-0.416	
60	  CA	1275.823	371.676	-1274.703	C.3	5	SER5	-0.025	
61	   C	1277.181	371.370	-1275.289	C.2	5	SER5	0.597	
62	   O	1277.728	372.124	-1276.094	O.2	5	SER5	-0.568	
63	  CB	1275.934	372.208	-1273.252	C.3	5	SER5	0.212	
64	  OG	1276.666	371.329	-1272.392	O.3	5	SER5	-0.655	
65	   H	1274.536	370.133	-1273.920	 H	5	SER5	0.272	
66	  HA	1275.373	372.466	-1275.332	 H	5	SER5	0.084	
67	 2HB	1274.934	372.402	-1272.819	 H	5	SER5	0.035	
68	 3HB	1276.439	373.194	-1273.255	 H	5	SER5	0.035	
69	  HG	1276.177	370.504	-1272.341	 H	5	SER5	0.428	
70	   N	1277.786	370.287	-1274.935	N.am	6	ILE6	-0.416	
71	  CA	1279.099	369.993	-1275.501	C.3	6	ILE6	-0.060	
72	   C	1279.042	369.955	-1277.009	C.2	6	ILE6	0.597	
73	   O	1279.877	370.543	-1277.713	O.2	6	ILE6	-0.568	
74	  CB	1279.699	368.657	-1274.901	C.3	6	ILE6	0.130	
75	 CG1	1279.719	368.594	-1273.340	C.3	6	ILE6	-0.043	
76	 CG2	1281.140	368.355	-1275.417	C.3	6	ILE6	-0.320	
77	 CD1	1279.989	367.205	-1272.726	C.3	6	ILE6	-0.066	
78	   H	1277.358	369.653	-1274.276	 H	6	ILE6	0.272	
79	  HA	1279.773	370.827	-1275.233	 H	6	ILE6	0.087	
80	  HB	1279.041	367.831	-1275.246	 H	6	ILE6	0.019	
81	2HG1	1278.736	368.914	-1272.945	 H	6	ILE6	0.024	
82	3HG1	1280.434	369.336	-1272.936	 H	6	ILE6	0.024	
83	1HG2	1281.199	368.262	-1276.515	 H	6	ILE6	0.088	
84	2HG2	1281.862	369.137	-1275.115	 H	6	ILE6	0.088	
85	3HG2	1281.531	367.393	-1275.038	 H	6	ILE6	0.088	
86	1HD1	1279.261	366.451	-1273.080	 H	6	ILE6	0.019	
87	2HD1	1280.999	366.826	-1272.962	 H	6	ILE6	0.019	
88	3HD1	1279.913	367.235	-1271.623	 H	6	ILE6	0.019	
89	   N	1278.096	369.292	-1277.583	N.am	7	LEU7	-0.416	
90	  CA	1278.041	369.256	-1279.041	C.3	7	LEU7	-0.052	
91	   C	1277.968	370.651	-1279.613	C.2	7	LEU7	0.597	
92	   O	1278.689	371.015	-1280.555	O.2	7	LEU7	-0.568	
93	  CB	1276.838	368.396	-1279.522	C.3	7	LEU7	-0.110	
94	  CG	1276.765	366.916	-1279.055	C.3	7	LEU7	0.353	
95	 CD1	1275.575	366.211	-1279.721	C.3	7	LEU7	-0.412	
96	 CD2	1278.059	366.137	-1279.347	C.3	7	LEU7	-0.412	
97	   H	1277.404	368.805	-1277.031	 H	7	LEU7	0.272	
98	  HA	1278.983	368.816	-1279.416	 H	7	LEU7	0.092	
99	 2HB	1276.814	368.412	-1280.629	 H	7	LEU7	0.046	
100	 3HB	1275.898	368.899	-1279.217	 H	7	LEU7	0.046	
101	  HG	1276.595	366.908	-1277.958	 H	7	LEU7	-0.036	
102	1HD1	1274.618	366.720	-1279.498	 H	7	LEU7	0.100	
103	2HD1	1275.674	366.170	-1280.822	 H	7	LEU7	0.100	
104	3HD1	1275.469	365.169	-1279.365	 H	7	LEU7	0.100	
105	1HD2	1278.334	366.168	-1280.417	 H	7	LEU7	0.100	
106	2HD2	1278.912	366.549	-1278.776	 H	7	LEU7	0.100	
107	3HD2	1277.977	365.075	-1279.051	 H	7	LEU7	0.100	
108	   N	1277.131	371.492	-1279.107	N.am	8	HIS8	-0.416	
109	  CA	1277.060	372.842	-1279.659	C.3	8	HIS8	-0.058	
110	   C	1278.406	373.522	-1279.602	C.2	8	HIS8	0.597	
111	   O	1278.879	374.128	-1280.576	O.2	8	HIS8	-0.568	
112	  CB	1276.036	373.606	-1278.804	C.3	8	HIS8	-0.007	
113	  CG	1274.867	374.091	-1279.611	C.2	8	HIS8	0.187	
114	 CD2	1273.713	373.339	-1279.787	C.2	8	HIS8	-0.221	
115	 ND1	1274.782	375.316	-1280.268	N.2	8	HIS8	-0.543	
116	 CE1	1273.555	375.204	-1280.809	C.2	8	HIS8	0.163	
117	 NE2	1272.852	374.063	-1280.570	N.pl3	8	HIS8	-0.280	
118	   H	1276.533	371.220	-1278.339	 H	8	HIS8	0.272	
119	  HA	1276.797	372.752	-1280.727	 H	8	HIS8	0.136	
120	 2HB	1276.500	374.485	-1278.313	 H	8	HIS8	0.037	
121	 3HB	1275.637	372.984	-1277.975	 H	8	HIS8	0.037	
122	 2HD	1273.552	372.351	-1279.365	 H	8	HIS8	0.186	
123	 1HE	1273.191	376.031	-1281.404	 H	8	HIS8	0.144	
124	 2HE	1271.909	373.801	-1280.893	 H	8	HIS8	0.334	
125	   N	1279.086	373.472	-1278.507	N.am	9	GLU9	-0.516	
126	  CA	1280.388	374.130	-1278.451	C.3	9	GLU9	0.040	
127	   C	1281.307	373.604	-1279.527	C.2	9	GLU9	0.537	
128	   O	1281.970	374.360	-1280.252	O.2	9	GLU9	-0.582	
129	  CB	1281.022	373.922	-1277.046	C.3	9	GLU9	0.056	
130	  CG	1282.404	374.615	-1276.816	C.3	9	GLU9	0.014	
131	  CD	1283.106	374.401	-1275.487	C.2	9	GLU9	0.805	
132	 OE1	1282.585	373.709	-1274.592	O.co2	9	GLU9	-0.819	
133	 OE2	1284.225	374.939	-1275.355	O.co2	9	GLU9	-0.819	
134	   H	1278.723	372.985	-1277.700	 H	9	GLU9	0.294	
135	  HA	1280.245	375.212	-1278.625	 H	9	GLU9	0.111	
136	 2HB	1281.135	372.837	-1276.843	 H	9	GLU9	-0.017	
137	 3HB	1280.324	374.274	-1276.261	 H	9	GLU9	-0.017	
138	 2HG	1282.331	375.706	-1276.955	 H	9	GLU9	-0.043	
139	 3HG	1283.151	374.271	-1277.550	 H	9	GLU9	-0.043	
140	   N	1281.404	372.329	-1279.697	N.am	10	HIS10	-0.416	
141	  CA	1282.293	371.819	-1280.738	C.3	10	HIS10	-0.058	
142	   C	1281.926	372.384	-1282.089	C.2	10	HIS10	0.597	
143	   O	1282.778	372.850	-1282.860	O.2	10	HIS10	-0.568	
144	  CB	1282.130	370.290	-1280.734	C.3	10	HIS10	-0.007	
145	  CG	1283.416	369.580	-1280.427	C.2	10	HIS10	0.187	
146	 CD2	1283.797	369.244	-1279.134	C.2	10	HIS10	-0.221	
147	 ND1	1284.368	369.176	-1281.359	N.2	10	HIS10	-0.543	
148	 CE1	1285.275	368.618	-1280.536	C.2	10	HIS10	0.163	
149	 NE2	1285.012	368.614	-1279.201	N.pl3	10	HIS10	-0.280	
150	   H	1280.874	371.693	-1279.120	 H	10	HIS10	0.272	
151	  HA	1283.311	372.177	-1280.513	 H	10	HIS10	0.136	
152	 2HB	1281.765	369.924	-1281.714	 H	10	HIS10	0.037	
153	 3HB	1281.374	369.952	-1279.995	 H	10	HIS10	0.037	
154	 2HD	1283.211	369.459	-1278.245	 H	10	HIS10	0.186	
155	 1HE	1286.166	368.198	-1280.984	 H	10	HIS10	0.144	
156	 2HE	1285.579	368.236	-1278.428	 H	10	HIS10	0.334	
157	   N	1280.688	372.383	-1282.452	N.am	11	VAL11	-0.416	
158	  CA	1280.333	372.930	-1283.759	C.3	11	VAL11	-0.087	
159	   C	1280.796	374.361	-1283.890	C.2	11	VAL11	0.597	
160	   O	1281.397	374.767	-1284.893	O.2	11	VAL11	-0.568	
161	  CB	1278.772	372.822	-1283.979	C.3	11	VAL11	0.299	
162	 CG1	1278.203	373.527	-1285.241	C.3	11	VAL11	-0.319	
163	 CG2	1278.248	371.368	-1284.053	C.3	11	VAL11	-0.319	
164	   H	1279.975	372.009	-1281.842	 H	11	VAL11	0.272	
165	  HA	1280.853	372.348	-1284.542	 H	11	VAL11	0.097	
166	  HB	1278.284	373.301	-1283.103	 H	11	VAL11	-0.030	
167	1HG1	1278.642	373.136	-1286.179	 H	11	VAL11	0.079	
168	2HG1	1277.104	373.419	-1285.324	 H	11	VAL11	0.079	
169	3HG1	1278.381	374.619	-1285.231	 H	11	VAL11	0.079	
170	1HG2	1278.538	370.780	-1283.163	 H	11	VAL11	0.079	
171	2HG2	1277.142	371.330	-1284.096	 H	11	VAL11	0.079	
172	3HG2	1278.631	370.828	-1284.940	 H	11	VAL11	0.079	
173	   N	1280.558	375.186	-1282.927	N.am	12	GLN12	-0.416	
174	  CA	1281.006	376.569	-1283.054	C.3	12	GLN12	-0.003	
175	   C	1282.496	376.637	-1283.292	C.2	12	GLN12	0.597	
176	   O	1282.983	377.346	-1284.170	O.2	12	GLN12	-0.568	
177	  CB	1280.615	377.335	-1281.771	C.3	12	GLN12	-0.004	
178	  CG	1280.974	378.857	-1281.738	C.3	12	GLN12	-0.064	
179	  CD	1280.671	379.670	-1280.473	C.2	12	GLN12	0.695	
180	 NE2	1280.104	379.092	-1279.445	N.pl3	12	GLN12	-0.941	
181	 OE1	1280.972	380.851	-1280.395	O.2	12	GLN12	-0.609	
182	   H	1280.070	374.879	-1282.098	 H	12	GLN12	0.272	
183	  HA	1280.506	377.025	-1283.928	 H	12	GLN12	0.085	
184	 2HB	1281.091	376.835	-1280.901	 H	12	GLN12	0.017	
185	 3HB	1279.524	377.227	-1281.607	 H	12	GLN12	0.017	
186	 2HG	1280.496	379.378	-1282.589	 H	12	GLN12	0.035	
187	 3HG	1282.057	379.000	-1281.904	 H	12	GLN12	0.035	
188	1HE2	1279.997	379.686	-1278.621	 H	12	GLN12	0.425	
189	2HE2	1279.941	378.089	-1279.549	 H	12	GLN12	0.425	
190	   N	1283.281	375.931	-1282.551	N.am	13	ARG13	-0.348	
191	  CA	1284.721	375.997	-1282.781	C.3	13	ARG13	-0.264	
192	   C	1285.058	375.626	-1284.206	C.2	13	ARG13	0.734	
193	   O	1285.826	376.299	-1284.890	O.2	13	ARG13	-0.589	
194	  CB	1285.435	375.058	-1281.768	C.3	13	ARG13	-0.001	
195	  CG	1286.980	375.212	-1281.686	C.3	13	ARG13	0.039	
196	  CD	1287.607	374.224	-1280.689	C.3	13	ARG13	0.049	
197	  NE	1289.084	374.432	-1280.638	N.pl3	13	ARG13	-0.530	
198	  CZ	1289.932	373.740	-1279.883	C.cat	13	ARG13	0.808	
199	 NH1	1289.568	372.775	-1279.086	N.pl3	13	ARG13	-0.863	
200	 NH2	1291.191	374.040	-1279.940	N.pl3	13	ARG13	-0.863	
201	   H	1282.905	375.340	-1281.823	 H	13	ARG13	0.275	
202	  HA	1285.045	377.043	-1282.622	 H	13	ARG13	0.156	
203	 2HB	1285.169	374.008	-1282.007	 H	13	ARG13	0.033	
204	 3HB	1285.009	375.224	-1280.757	 H	13	ARG13	0.033	
205	 2HG	1287.227	376.257	-1281.406	 H	13	ARG13	0.029	
206	 3HG	1287.430	375.056	-1282.688	 H	13	ARG13	0.029	
207	 2HD	1287.363	373.184	-1280.999	 H	13	ARG13	0.069	
208	 3HD	1287.150	374.369	-1279.686	 H	13	ARG13	0.069	
209	  HE	1289.535	375.155	-1281.209	 H	13	ARG13	0.346	
210	1HH1	1288.562	372.589	-1279.090	 H	13	ARG13	0.448	
211	2HH1	1290.281	372.293	-1278.538	 H	13	ARG13	0.448	
212	1HH2	1291.459	374.798	-1280.570	 H	13	ARG13	0.448	
213	2HH2	1291.827	373.499	-1279.351	 H	13	ARG13	0.448	
214	   N	1284.522	374.572	-1284.721	N.am	14	VAL14	-0.416	
215	  CA	1284.847	374.213	-1286.099	C.3	14	VAL14	-0.087	
216	   C	1284.517	375.343	-1287.044	C.2	14	VAL14	0.597	
217	   O	1285.310	375.726	-1287.914	O.2	14	VAL14	-0.568	
218	  CB	1284.075	372.896	-1286.506	C.3	14	VAL14	0.299	
219	 CG1	1284.165	372.478	-1288.000	C.3	14	VAL14	-0.319	
220	 CG2	1284.508	371.644	-1285.707	C.3	14	VAL14	-0.319	
221	   H	1283.887	374.003	-1284.180	 H	14	VAL14	0.272	
222	  HA	1285.935	374.037	-1286.174	 H	14	VAL14	0.097	
223	  HB	1282.999	373.067	-1286.291	 H	14	VAL14	-0.030	
224	1HG1	1285.206	372.302	-1288.329	 H	14	VAL14	0.079	
225	2HG1	1283.592	371.555	-1288.213	 H	14	VAL14	0.079	
226	3HG1	1283.735	373.241	-1288.678	 H	14	VAL14	0.079	
227	1HG2	1284.420	371.802	-1284.616	 H	14	VAL14	0.079	
228	2HG2	1283.872	370.767	-1285.939	 H	14	VAL14	0.079	
229	3HG2	1285.556	371.354	-1285.912	 H	14	VAL14	0.079	
230	   N	1283.372	375.929	-1286.942	N.am	15	MET15	-0.416	
231	  CA	1283.051	377.022	-1287.856	C.3	15	MET15	-0.024	
232	   C	1284.081	378.122	-1287.767	C.2	15	MET15	0.597	
233	   O	1284.583	378.633	-1288.780	O.2	15	MET15	-0.568	
234	  CB	1281.629	377.566	-1287.546	C.3	15	MET15	0.034	
235	  CG	1280.468	376.568	-1287.739	C.3	15	MET15	0.002	
236	  SD	1278.893	377.433	-1287.624	S.3	15	MET15	-0.274	
237	  CE	1277.813	376.003	-1287.488	C.3	15	MET15	-0.054	
238	   H	1282.707	375.635	-1286.241	 H	15	MET15	0.272	
239	  HA	1283.077	376.635	-1288.891	 H	15	MET15	0.088	
240	 2HB	1281.427	378.445	-1288.188	 H	15	MET15	0.024	
241	 3HB	1281.594	377.959	-1286.510	 H	15	MET15	0.024	
242	 2HG	1280.511	375.782	-1286.961	 H	15	MET15	0.044	
243	 3HG	1280.531	376.053	-1288.715	 H	15	MET15	0.044	
244	 1HE	1277.957	375.315	-1288.341	 H	15	MET15	0.068	
245	 2HE	1278.022	375.450	-1286.555	 H	15	MET15	0.068	
246	 3HE	1276.755	376.318	-1287.471	 H	15	MET15	0.068	
247	   N	1284.449	378.543	-1286.605	N.am	16	ARG16	-0.348	
248	  CA	1285.445	379.607	-1286.521	C.3	16	ARG16	-0.264	
249	   C	1286.716	379.215	-1287.237	C.2	16	ARG16	0.734	
250	   O	1286.830	378.139	-1287.819	O.2	16	ARG16	-0.589	
251	  CB	1285.714	379.924	-1285.022	C.3	16	ARG16	-0.001	
252	  CG	1286.538	381.214	-1284.749	C.3	16	ARG16	0.039	
253	  CD	1286.788	381.433	-1283.248	C.3	16	ARG16	0.049	
254	  NE	1287.563	382.692	-1283.046	N.pl3	16	ARG16	-0.530	
255	  CZ	1287.954	383.175	-1281.870	C.cat	16	ARG16	0.808	
256	 NH1	1287.707	382.590	-1280.732	N.pl3	16	ARG16	-0.863	
257	 NH2	1288.617	384.287	-1281.852	N.pl3	16	ARG16	-0.863	
258	   H	1284.055	378.142	-1285.766	 H	16	ARG16	0.275	
259	  HA	1285.035	380.500	-1287.030	 H	16	ARG16	0.156	
260	 2HB	1286.211	379.049	-1284.556	 H	16	ARG16	0.033	
261	 3HB	1284.745	380.005	-1284.489	 H	16	ARG16	0.033	
262	 2HG	1286.007	382.085	-1285.186	 H	16	ARG16	0.029	
263	 3HG	1287.512	381.162	-1285.278	 H	16	ARG16	0.029	
264	 2HD	1287.337	380.558	-1282.835	 H	16	ARG16	0.069	
265	 3HD	1285.815	381.475	-1282.712	 H	16	ARG16	0.069	
266	  HE	1287.841	383.274	-1283.843	 H	16	ARG16	0.346	
267	1HH1	1287.182	381.716	-1280.817	 H	16	ARG16	0.448	
268	2HH1	1288.041	383.025	-1279.871	 H	16	ARG16	0.448	
269	1HH2	1288.803	384.731	-1282.753	 H	16	ARG16	0.448	
270	2HH2	1288.907	384.642	-1280.939	 H	16	ARG16	0.448	
@<TRIPOS>BOND
1 1 2 1
2 1 10 1
3 2 3 1
4 2 5 1
5 2 11 1
6 3 4 2
7 3 16 1
8 5 6 1
9 6 7 1
10 7 8 2
11 7 9 1
12 5 12 1
13 5 13 1
14 6 14 1
15 6 15 1
16 16 17 1
17 16 24 1
18 17 18 1
19 17 20 1
20 17 25 1
21 18 19 2
22 18 30 1
23 20 21 1
24 21 22 1
25 21 23 2
26 20 26 1
27 20 27 1
28 22 28 1
29 22 29 1
30 30 31 1
31 30 36 1
32 31 32 1
33 31 34 1
34 31 37 1
35 32 33 2
36 32 44 1
37 34 35 1
38 35 36 1
39 34 38 1
40 34 39 1
41 35 40 1
42 35 41 1
43 36 42 1
44 36 43 1
45 44 45 1
46 44 53 1
47 45 46 1
48 45 48 1
49 45 54 1
50 46 47 2
51 46 59 1
52 48 49 1
53 49 50 1
54 50 51 2
55 50 52 1
56 48 55 1
57 48 56 1
58 49 57 1
59 49 58 1
60 59 60 1
61 59 65 1
62 60 61 1
63 60 63 1
64 60 66 1
65 61 62 2
66 61 70 1
67 63 64 1
68 63 67 1
69 63 68 1
70 64 69 1
71 70 71 1
72 70 78 1
73 71 72 1
74 71 74 1
75 71 79 1
76 72 73 2
77 72 89 1
78 74 75 1
79 74 76 1
80 75 77 1
81 74 80 1
82 75 81 1
83 75 82 1
84 76 83 1
85 76 84 1
86 76 85 1
87 77 86 1
88 77 87 1
89 77 88 1
90 89 90 1
91 89 97 1
92 90 91 1
93 90 93 1
94 90 98 1
95 91 92 2
96 91 108 1
97 93 94 1
98 94 95 1
99 94 96 1
100 93 99 1
101 93 100 1
102 94 101 1
103 95 102 1
104 95 103 1
105 95 104 1
106 96 105 1
107 96 106 1
108 96 107 1
109 108 109 1
110 108 118 1
111 109 110 1
112 109 112 1
113 109 119 1
114 110 111 2
115 110 125 1
116 112 113 1
117 113 114 2
118 114 117 1
119 113 115 1
120 115 116 2
121 116 117 1
122 112 120 1
123 112 121 1
124 114 122 1
125 116 123 1
126 117 124 1
127 125 126 1
128 125 134 1
129 126 127 1
130 126 129 1
131 126 135 1
132 127 128 2
133 127 140 1
134 129 130 1
135 130 131 1
136 131 132 2
137 131 133 1
138 129 136 1
139 129 137 1
140 130 138 1
141 130 139 1
142 140 141 1
143 140 150 1
144 141 142 1
145 141 144 1
146 141 151 1
147 142 143 2
148 142 157 1
149 144 145 1
150 145 146 2
151 146 149 1
152 145 147 1
153 147 148 2
154 148 149 1
155 144 152 1
156 144 153 1
157 146 154 1
158 148 155 1
159 149 156 1
160 157 158 1
161 157 164 1
162 158 159 1
163 158 161 1
164 158 165 1
165 159 160 2
166 159 173 1
167 161 162 1
168 161 163 1
169 161 166 1
170 162 167 1
171 162 168 1
172 162 169 1
173 163 170 1
174 163 171 1
175 163 172 1
176 173 174 1
177 173 182 1
178 174 175 1
179 174 177 1
180 174 183 1
181 175 176 2
182 175 190 1
183 177 178 1
184 178 179 1
185 179 180 1
186 179 181 2
187 177 184 1
188 177 185 1
189 178 186 1
190 178 187 1
191 180 188 1
192 180 189 1
193 190 191 1
194 190 201 1
195 191 192 1
196 191 194 1
197 191 202 1
198 192 193 2
199 192 214 1
200 194 195 1
201 195 196 1
202 196 197 1
203 197 198 1
204 198 199 2
205 198 200 1
206 194 203 1
207 194 204 1
208 195 205 1
209 195 206 1
210 196 207 1
211 196 208 1
212 197 209 1
213 199 210 1
214 199 211 1
215 200 212 1
216 200 213 1
217 214 215 1
218 214 221 1
219 215 216 1
220 215 218 1
221 215 222 1
222 216 217 2
223 216 230 1
224 218 219 1
225 218 220 1
226 218 223 1
227 219 224 1
228 219 225 1
229 219 226 1
230 220 227 1
231 220 228 1
232 220 229 1
233 230 231 1
234 230 238 1
235 231 232 1
236 231 234 1
237 231 239 1
238 232 233 2
239 232 247 1
240 234 235 1
241 235 236 1
242 236 237 1
243 234 240 1
244 234 241 1
245 235 242 1
246 235 243 1
247 237 244 1
248 237 245 1
249 237 246 1
250 247 248 1
251 247 258 1
252 248 249 1
253 248 251 1
254 248 259 1
255 249 250 2
256 251 252 1
257 252 253 1
258 253 254 1
259 254 255 1
260 255 256 2
261 255 257 1
262 251 260 1
263 251 261 1
264 252 262 1
265 252 263 1
266 253 264 1
267 253 265 1
268 254 266 1
269 256 267 1
270 256 268 1
271 257 269 1
272 257 270 1
@<TRIPOS>SUBSTRUCTURE
1	GLU1	1	RESIDUE	1 ****	GLU
2	ASN2	16	RESIDUE	1 ****	ASN
3	PRO3	30	RESIDUE	1 ****	PRO
4	GLU4	44	RESIDUE	1 ****	GLU
5	SER5	59	RESIDUE	1 ****	SER
6	ILE6	70	RESIDUE	1 ****	ILE
7	LEU7	89	RESIDUE	1 ****	LEU
8	HIS8	108	RESIDUE	1 ****	HIS
9	GLU9	125	RESIDUE	1 ****	GLU
10	HIS10	140	RESIDUE	1 ****	HIS
11	VAL11	157	RESIDUE	1 ****	VAL
12	GLN12	173	RESIDUE	1 ****	GLN
13	ARG13	190	RESIDUE	1 ****	ARG
14	VAL14	214	RESIDUE	1 ****	VAL
15	MET15	230	RESIDUE	1 ****	MET
16	ARG16	247	RESIDUE	1 ****	ARG
