@<TRIPOS>MOLECULE
4-8
270 272 16              
SMALL
USER_CHARGES
@<TRIPOS>ATOM
1	   N	590.338	143.538	-535.334	N.3	1	GLU1	-0.516	
2	  CA	590.897	144.887	-535.334	C.3	1	GLU1	0.040	
3	   C	592.406	144.847	-535.334	C.2	1	GLU1	0.537	
4	   O	593.082	145.546	-536.102	O.2	1	GLU1	-0.582	
5	  CB	590.374	145.672	-534.097	C.3	1	GLU1	0.056	
6	  CG	590.849	147.157	-533.986	C.3	1	GLU1	0.014	
7	  CD	590.425	147.961	-532.771	C.2	1	GLU1	0.805	
8	 OE1	589.697	147.459	-531.893	O.co2	1	GLU1	-0.819	
9	 OE2	590.855	149.131	-532.699	O.co2	1	GLU1	-0.819	
10	   H	590.965	142.659	-535.334	 H	1	GLU1	0.294	
11	  HA	590.571	145.405	-536.254	 H	1	GLU1	0.111	
12	 2HB	590.663	145.141	-533.167	 H	1	GLU1	-0.017	
13	 3HB	589.267	145.662	-534.084	 H	1	GLU1	-0.017	
14	 2HG	590.539	147.742	-534.867	 H	1	GLU1	-0.043	
15	 3HG	591.949	147.224	-533.957	 H	1	GLU1	-0.043	
16	   N	593.011	144.061	-534.509	N.am	2	ASN2	-0.416	
17	  CA	594.470	144.022	-534.509	C.3	2	ASN2	0.014	
18	   C	595.002	143.667	-535.877	C.2	2	ASN2	0.597	
19	   O	595.916	144.298	-536.406	O.2	2	ASN2	-0.568	
20	  CB	594.962	142.999	-533.444	C.3	2	ASN2	-0.204	
21	  CG	594.499	143.223	-532.001	C.2	2	ASN2	0.713	
22	 ND2	595.094	144.138	-531.283	N.pl3	2	ASN2	-0.919	
23	 OD1	593.579	142.589	-531.507	O.2	2	ASN2	-0.593	
24	   H	592.483	143.481	-533.872	 H	2	ASN2	0.272	
25	  HA	594.848	145.032	-534.263	 H	2	ASN2	0.105	
26	 2HB	596.067	142.940	-533.448	 H	2	ASN2	0.080	
27	 3HB	594.633	141.981	-533.730	 H	2	ASN2	0.080	
28	1HD2	594.613	144.311	-530.396	 H	2	ASN2	0.420	
29	2HD2	595.795	144.710	-531.752	 H	2	ASN2	0.420	
30	   N	594.480	142.672	-536.511	N.am	3	PRO3	-0.255	
31	  CA	594.932	142.263	-537.833	C.3	3	PRO3	-0.027	
32	   C	594.534	143.286	-538.910	C.2	3	PRO3	0.590	
33	   O	595.357	143.669	-539.741	O.2	3	PRO3	-0.575	
34	  CB	594.228	140.908	-538.002	C.3	3	PRO3	-0.007	
35	  CG	592.945	141.060	-537.172	C.3	3	PRO3	0.019	
36	  CD	593.402	141.879	-535.962	C.3	3	PRO3	0.019	
37	  HA	596.018	142.143	-537.847	 H	3	PRO3	0.064	
38	 2HB	594.851	140.127	-537.562	 H	3	PRO3	0.025	
39	 3HB	594.030	140.659	-539.048	 H	3	PRO3	0.025	
40	 2HG	592.517	140.097	-536.881	 H	3	PRO3	0.021	
41	 3HG	592.207	141.631	-537.740	 H	3	PRO3	0.021	
42	 2HD	593.792	141.229	-535.175	 H	3	PRO3	0.039	
43	 3HD	592.606	142.514	-535.569	 H	3	PRO3	0.039	
44	   N	593.329	143.746	-538.942	N.am	4	PHE4	-0.416	
45	  CA	592.969	144.717	-539.972	C.3	4	PHE4	-0.002	
46	   C	593.868	145.929	-539.911	C.2	4	PHE4	0.597	
47	   O	594.402	146.416	-540.946	O.2	4	PHE4	-0.568	
48	  CB	591.492	145.176	-539.781	C.3	4	PHE4	-0.034	
49	  CG	590.422	144.072	-539.811	C.2	4	PHE4	0.012	
50	 CD1	590.078	143.410	-538.627	C.2	4	PHE4	-0.126	
51	 CD2	589.835	143.678	-541.016	C.2	4	PHE4	-0.126	
52	 CE1	589.172	142.355	-538.651	C.2	4	PHE4	-0.170	
53	 CE2	588.920	142.629	-541.037	C.2	4	PHE4	-0.170	
54	  CZ	588.592	141.966	-539.855	C.2	4	PHE4	-0.107	
55	   H	592.645	143.439	-538.266	 H	4	PHE4	0.272	
56	  HA	593.093	144.247	-540.966	 H	4	PHE4	0.098	
57	 2HB	591.238	145.929	-540.553	 H	4	PHE4	0.030	
58	 3HB	591.397	145.739	-538.830	 H	4	PHE4	0.030	
59	 1HD	590.550	143.687	-537.693	 H	4	PHE4	0.133	
60	 2HD	590.102	144.173	-541.939	 H	4	PHE4	0.133	
61	 1HE	588.937	141.831	-537.736	 H	4	PHE4	0.143	
62	 2HE	588.474	142.322	-541.972	 H	4	PHE4	0.143	
63	  HZ	587.893	141.143	-539.872	 H	4	PHE4	0.130	
64	   N	594.096	146.483	-538.769	N.am	5	SER5	-0.416	
65	  CA	594.964	147.655	-538.712	C.3	5	SER5	-0.025	
66	   C	596.323	147.350	-539.299	C.2	5	SER5	0.597	
67	   O	596.869	148.103	-540.105	O.2	5	SER5	-0.568	
68	  CB	595.077	148.189	-537.263	C.3	5	SER5	0.212	
69	  OG	595.810	147.311	-536.401	O.3	5	SER5	-0.655	
70	   H	593.680	146.112	-537.927	 H	5	SER5	0.272	
71	  HA	594.514	148.444	-539.342	 H	5	SER5	0.084	
72	 2HB	594.077	148.382	-536.829	 H	5	SER5	0.035	
73	 3HB	595.581	149.175	-537.266	 H	5	SER5	0.035	
74	  HG	595.322	146.486	-536.349	 H	5	SER5	0.428	
75	   N	596.929	146.267	-538.944	N.am	6	ILE6	-0.416	
76	  CA	598.242	145.973	-539.511	C.3	6	ILE6	-0.060	
77	   C	598.183	145.934	-541.019	C.2	6	ILE6	0.597	
78	   O	599.017	146.521	-541.724	O.2	6	ILE6	-0.568	
79	  CB	598.843	144.638	-538.910	C.3	6	ILE6	0.130	
80	 CG1	598.863	144.577	-537.349	C.3	6	ILE6	-0.043	
81	 CG2	600.284	144.336	-539.426	C.3	6	ILE6	-0.320	
82	 CD1	599.135	143.189	-536.733	C.3	6	ILE6	-0.066	
83	   H	596.501	145.633	-538.284	 H	6	ILE6	0.272	
84	  HA	598.915	146.808	-539.245	 H	6	ILE6	0.087	
85	  HB	598.185	143.811	-539.253	 H	6	ILE6	0.019	
86	2HG1	597.881	144.897	-536.953	 H	6	ILE6	0.024	
87	3HG1	599.579	145.320	-536.946	 H	6	ILE6	0.024	
88	1HG2	600.342	144.242	-540.525	 H	6	ILE6	0.088	
89	2HG2	601.006	145.119	-539.125	 H	6	ILE6	0.088	
90	3HG2	600.675	143.375	-539.047	 H	6	ILE6	0.088	
91	1HD1	598.407	142.434	-537.086	 H	6	ILE6	0.019	
92	2HD1	600.145	142.810	-536.969	 H	6	ILE6	0.019	
93	3HD1	599.059	143.219	-535.630	 H	6	ILE6	0.019	
94	   N	597.238	145.269	-541.591	N.am	7	LEU7	-0.416	
95	  CA	597.182	145.232	-543.050	C.3	7	LEU7	-0.052	
96	   C	597.108	146.626	-543.623	C.2	7	LEU7	0.597	
97	   O	597.828	146.989	-544.566	O.2	7	LEU7	-0.568	
98	  CB	595.979	144.370	-543.528	C.3	7	LEU7	-0.110	
99	  CG	595.907	142.891	-543.060	C.3	7	LEU7	0.353	
100	 CD1	594.718	142.184	-543.725	C.3	7	LEU7	-0.412	
101	 CD2	597.201	142.113	-543.352	C.3	7	LEU7	-0.412	
102	   H	596.546	144.782	-541.039	 H	7	LEU7	0.272	
103	  HA	598.123	144.792	-543.424	 H	7	LEU7	0.092	
104	 2HB	595.955	144.385	-544.636	 H	7	LEU7	0.046	
105	 3HB	595.039	144.872	-543.224	 H	7	LEU7	0.046	
106	  HG	595.738	142.884	-541.963	 H	7	LEU7	-0.036	
107	1HD1	593.760	142.692	-543.502	 H	7	LEU7	0.100	
108	2HD1	594.816	142.142	-544.826	 H	7	LEU7	0.100	
109	3HD1	594.612	141.143	-543.368	 H	7	LEU7	0.100	
110	1HD2	597.476	142.142	-544.423	 H	7	LEU7	0.100	
111	2HD2	598.055	142.525	-542.782	 H	7	LEU7	0.100	
112	3HD2	597.121	141.050	-543.055	 H	7	LEU7	0.100	
113	   N	596.270	147.467	-543.117	N.am	8	ASP8	-0.516	
114	  CA	596.198	148.816	-543.672	C.3	8	ASP8	0.038	
115	   C	597.544	149.497	-543.616	C.2	8	ASP8	0.537	
116	   O	598.016	150.101	-544.591	O.2	8	ASP8	-0.582	
117	  CB	595.120	149.654	-542.930	C.3	8	ASP8	-0.030	
118	  CG	594.900	151.075	-543.472	C.2	8	ASP8	0.799	
119	 OD1	594.963	151.273	-544.702	O.co2	8	ASP8	-0.801	
120	 OD2	594.708	152.001	-542.657	O.co2	8	ASP8	-0.801	
121	   H	595.673	147.196	-542.349	 H	8	ASP8	0.294	
122	  HA	595.915	148.737	-544.738	 H	8	ASP8	0.088	
123	 2HB	595.378	149.739	-541.858	 H	8	ASP8	-0.012	
124	 3HB	594.141	149.149	-542.962	 H	8	ASP8	-0.012	
125	   N	598.225	149.448	-542.521	N.am	9	GLU9	-0.516	
126	  CA	599.527	150.107	-542.467	C.3	9	GLU9	0.040	
127	   C	600.445	149.579	-543.543	C.2	9	GLU9	0.537	
128	   O	601.108	150.334	-544.270	O.2	9	GLU9	-0.582	
129	  CB	600.162	149.901	-541.062	C.3	9	GLU9	0.056	
130	  CG	601.544	150.595	-540.834	C.3	9	GLU9	0.014	
131	  CD	602.247	150.383	-539.506	C.2	9	GLU9	0.805	
132	 OE1	601.727	149.692	-538.609	O.co2	9	GLU9	-0.819	
133	 OE2	603.366	150.922	-539.376	O.co2	9	GLU9	-0.819	
134	   H	597.863	148.962	-541.713	 H	9	GLU9	0.294	
135	  HA	599.384	151.188	-542.643	 H	9	GLU9	0.111	
136	 2HB	600.276	148.817	-540.858	 H	9	GLU9	-0.017	
137	 3HB	599.465	150.254	-540.278	 H	9	GLU9	-0.017	
138	 2HG	601.471	151.685	-540.975	 H	9	GLU9	-0.043	
139	 3HG	602.291	150.250	-541.568	 H	9	GLU9	-0.043	
140	   N	600.543	148.304	-543.711	N.am	10	HIS10	-0.416	
141	  CA	601.430	147.792	-544.752	C.3	10	HIS10	-0.058	
142	   C	601.062	148.356	-546.103	C.2	10	HIS10	0.597	
143	   O	601.914	148.821	-546.876	O.2	10	HIS10	-0.568	
144	  CB	601.268	146.263	-544.746	C.3	10	HIS10	-0.007	
145	  CG	602.555	145.555	-544.438	C.2	10	HIS10	0.187	
146	 CD2	602.937	145.221	-543.145	C.2	10	HIS10	-0.221	
147	 ND1	603.506	145.149	-545.371	N.2	10	HIS10	-0.543	
148	 CE1	604.414	144.593	-544.548	C.2	10	HIS10	0.163	
149	 NE2	604.152	144.591	-543.212	N.pl3	10	HIS10	-0.280	
150	   H	600.013	147.668	-543.132	 H	10	HIS10	0.272	
151	  HA	602.449	148.151	-544.528	 H	10	HIS10	0.136	
152	 2HB	600.903	145.895	-545.725	 H	10	HIS10	0.037	
153	 3HB	600.513	145.926	-544.005	 H	10	HIS10	0.037	
154	 2HD	602.351	145.436	-542.256	 H	10	HIS10	0.186	
155	 1HE	605.305	144.172	-544.995	 H	10	HIS10	0.144	
156	 2HE	604.720	144.214	-542.439	 H	10	HIS10	0.334	
157	   N	599.824	148.353	-546.466	N.am	11	VAL11	-0.416	
158	  CA	599.467	148.898	-547.772	C.3	11	VAL11	-0.087	
159	   C	599.930	150.329	-547.906	C.2	11	VAL11	0.597	
160	   O	600.530	150.734	-548.910	O.2	11	VAL11	-0.568	
161	  CB	597.906	148.790	-547.991	C.3	11	VAL11	0.299	
162	 CG1	597.336	149.492	-549.254	C.3	11	VAL11	-0.319	
163	 CG2	597.383	147.335	-548.062	C.3	11	VAL11	-0.319	
164	   H	599.112	147.980	-545.854	 H	11	VAL11	0.272	
165	  HA	599.987	148.315	-548.555	 H	11	VAL11	0.097	
166	  HB	597.419	149.270	-547.115	 H	11	VAL11	-0.030	
167	1HG1	597.774	149.100	-550.191	 H	11	VAL11	0.079	
168	2HG1	596.237	149.384	-549.335	 H	11	VAL11	0.079	
169	3HG1	597.513	150.585	-549.245	 H	11	VAL11	0.079	
170	1HG2	597.674	146.749	-547.172	 H	11	VAL11	0.079	
171	2HG2	596.277	147.297	-548.104	 H	11	VAL11	0.079	
172	3HG2	597.765	146.794	-548.949	 H	11	VAL11	0.079	
173	   N	599.693	151.155	-546.944	N.am	12	GLN12	-0.416	
174	  CA	600.140	152.538	-547.073	C.3	12	GLN12	-0.003	
175	   C	601.630	152.607	-547.312	C.2	12	GLN12	0.597	
176	   O	602.116	153.315	-548.191	O.2	12	GLN12	-0.568	
177	  CB	599.750	153.307	-545.791	C.3	12	GLN12	-0.004	
178	  CG	600.108	154.829	-545.761	C.3	12	GLN12	-0.064	
179	  CD	599.806	155.643	-544.496	C.2	12	GLN12	0.695	
180	 NE2	599.240	155.067	-543.467	N.pl3	12	GLN12	-0.941	
181	 OE1	600.107	156.824	-544.420	O.2	12	GLN12	-0.609	
182	   H	599.205	150.849	-546.115	 H	12	GLN12	0.272	
183	  HA	599.640	152.994	-547.948	 H	12	GLN12	0.085	
184	 2HB	600.227	152.807	-544.921	 H	12	GLN12	0.017	
185	 3HB	598.659	153.198	-545.626	 H	12	GLN12	0.017	
186	 2HG	599.630	155.348	-546.612	 H	12	GLN12	0.035	
187	 3HG	601.192	154.972	-545.927	 H	12	GLN12	0.035	
188	1HE2	599.133	155.662	-542.644	 H	12	GLN12	0.425	
189	2HE2	599.078	154.063	-543.569	 H	12	GLN12	0.425	
190	   N	602.416	151.902	-546.571	N.am	13	ARG13	-0.348	
191	  CA	603.856	151.969	-546.803	C.3	13	ARG13	-0.264	
192	   C	604.191	151.596	-548.228	C.2	13	ARG13	0.734	
193	   O	604.959	152.268	-548.913	O.2	13	ARG13	-0.589	
194	  CB	604.571	151.031	-545.789	C.3	13	ARG13	-0.001	
195	  CG	606.116	151.186	-545.709	C.3	13	ARG13	0.039	
196	  CD	606.744	150.199	-544.711	C.3	13	ARG13	0.049	
197	  NE	608.221	150.408	-544.661	N.pl3	13	ARG13	-0.530	
198	  CZ	609.070	149.718	-543.906	C.cat	13	ARG13	0.808	
199	 NH1	608.707	148.753	-543.108	N.pl3	13	ARG13	-0.863	
200	 NH2	610.329	150.018	-543.964	N.pl3	13	ARG13	-0.863	
201	   H	602.041	151.312	-545.842	 H	13	ARG13	0.275	
202	  HA	604.179	153.015	-546.645	 H	13	ARG13	0.156	
203	 2HB	604.305	149.980	-546.027	 H	13	ARG13	0.033	
204	 3HB	604.146	151.198	-544.778	 H	13	ARG13	0.033	
205	 2HG	606.363	152.231	-545.430	 H	13	ARG13	0.029	
206	 3HG	606.565	151.029	-546.711	 H	13	ARG13	0.029	
207	 2HD	606.500	149.159	-545.019	 H	13	ARG13	0.069	
208	 3HD	606.288	150.345	-543.708	 H	13	ARG13	0.069	
209	  HE	608.671	151.130	-545.233	 H	13	ARG13	0.346	
210	1HH1	607.701	148.566	-543.110	 H	13	ARG13	0.448	
211	2HH1	609.421	148.271	-542.559	 H	13	ARG13	0.448	
212	1HH2	610.596	150.775	-544.596	 H	13	ARG13	0.448	
213	2HH2	610.966	149.477	-543.376	 H	13	ARG13	0.448	
214	   N	603.656	150.541	-548.741	N.am	14	VAL14	-0.416	
215	  CA	603.980	150.181	-550.118	C.3	14	VAL14	-0.087	
216	   C	603.648	151.310	-551.065	C.2	14	VAL14	0.597	
217	   O	604.441	151.692	-551.935	O.2	14	VAL14	-0.568	
218	  CB	603.209	148.863	-550.524	C.3	14	VAL14	0.299	
219	 CG1	603.297	148.444	-552.017	C.3	14	VAL14	-0.319	
220	 CG2	603.642	147.612	-549.723	C.3	14	VAL14	-0.319	
221	   H	603.022	149.972	-548.198	 H	14	VAL14	0.272	
222	  HA	605.068	150.005	-550.194	 H	14	VAL14	0.097	
223	  HB	602.132	149.033	-550.307	 H	14	VAL14	-0.030	
224	1HG1	604.338	148.267	-552.347	 H	14	VAL14	0.079	
225	2HG1	602.725	147.520	-552.229	 H	14	VAL14	0.079	
226	3HG1	602.867	149.205	-552.696	 H	14	VAL14	0.079	
227	1HG2	603.556	147.771	-548.632	 H	14	VAL14	0.079	
228	2HG2	603.007	146.734	-549.954	 H	14	VAL14	0.079	
229	3HG2	604.690	147.322	-549.929	 H	14	VAL14	0.079	
230	   N	602.503	151.895	-550.962	N.am	15	MET15	-0.416	
231	  CA	602.181	152.986	-551.877	C.3	15	MET15	-0.024	
232	   C	603.210	154.087	-551.790	C.2	15	MET15	0.597	
233	   O	603.711	154.598	-552.804	O.2	15	MET15	-0.568	
234	  CB	600.759	153.531	-551.567	C.3	15	MET15	0.034	
235	  CG	599.598	152.531	-551.757	C.3	15	MET15	0.002	
236	  SD	598.023	153.396	-551.643	S.3	15	MET15	-0.274	
237	  CE	596.944	151.965	-551.504	C.3	15	MET15	-0.054	
238	   H	601.839	151.602	-550.260	 H	15	MET15	0.272	
239	  HA	602.206	152.598	-552.912	 H	15	MET15	0.088	
240	 2HB	600.555	154.409	-552.210	 H	15	MET15	0.024	
241	 3HB	600.724	153.924	-550.531	 H	15	MET15	0.024	
242	 2HG	599.642	151.746	-550.979	 H	15	MET15	0.044	
243	 3HG	599.661	152.016	-552.733	 H	15	MET15	0.044	
244	 1HE	597.087	151.277	-552.356	 H	15	MET15	0.068	
245	 2HE	597.154	151.414	-550.571	 H	15	MET15	0.068	
246	 3HE	595.886	152.280	-551.487	 H	15	MET15	0.068	
247	   N	603.579	154.510	-550.629	N.am	16	ARG16	-0.348	
248	  CA	604.575	155.575	-550.547	C.3	16	ARG16	-0.264	
249	   C	605.845	155.183	-551.263	C.2	16	ARG16	0.734	
250	   O	605.960	154.106	-551.844	O.2	16	ARG16	-0.589	
251	  CB	604.845	155.894	-549.049	C.3	16	ARG16	-0.001	
252	  CG	605.669	157.184	-548.778	C.3	16	ARG16	0.039	
253	  CD	605.919	157.405	-547.277	C.3	16	ARG16	0.049	
254	  NE	606.695	158.665	-547.077	N.pl3	16	ARG16	-0.530	
255	  CZ	607.086	159.148	-545.902	C.cat	16	ARG16	0.808	
256	 NH1	606.840	158.564	-544.763	N.pl3	16	ARG16	-0.863	
257	 NH2	607.749	160.261	-545.885	N.pl3	16	ARG16	-0.863	
258	   H	603.186	154.110	-549.789	 H	16	ARG16	0.275	
259	  HA	604.165	156.467	-551.057	 H	16	ARG16	0.156	
260	 2HB	605.343	155.019	-548.582	 H	16	ARG16	0.033	
261	 3HB	603.876	155.974	-548.514	 H	16	ARG16	0.033	
262	 2HG	605.137	158.054	-549.215	 H	16	ARG16	0.029	
263	 3HG	606.642	157.132	-549.307	 H	16	ARG16	0.029	
264	 2HD	606.469	156.531	-546.863	 H	16	ARG16	0.069	
265	 3HD	604.947	157.447	-546.741	 H	16	ARG16	0.069	
266	  HE	606.972	159.245	-547.875	 H	16	ARG16	0.346	
267	1HH1	606.315	157.691	-544.846	 H	16	ARG16	0.448	
268	2HH1	607.175	159.001	-543.903	 H	16	ARG16	0.448	
269	1HH2	607.934	160.704	-546.787	 H	16	ARG16	0.448	
270	2HH2	608.040	160.617	-544.973	 H	16	ARG16	0.448	
@<TRIPOS>BOND
1 1 2 1
2 1 10 1
3 2 3 1
4 2 5 1
5 2 11 1
6 3 4 2
7 3 16 1
8 5 6 1
9 6 7 1
10 7 8 2
11 7 9 1
12 5 12 1
13 5 13 1
14 6 14 1
15 6 15 1
16 16 17 1
17 16 24 1
18 17 18 1
19 17 20 1
20 17 25 1
21 18 19 2
22 18 30 1
23 20 21 1
24 21 22 1
25 21 23 2
26 20 26 1
27 20 27 1
28 22 28 1
29 22 29 1
30 30 31 1
31 30 36 1
32 31 32 1
33 31 34 1
34 31 37 1
35 32 33 2
36 32 44 1
37 34 35 1
38 35 36 1
39 34 38 1
40 34 39 1
41 35 40 1
42 35 41 1
43 36 42 1
44 36 43 1
45 44 45 1
46 44 55 1
47 45 46 1
48 45 48 1
49 45 56 1
50 46 47 2
51 46 64 1
52 48 49 1
53 49 50 2
54 49 51 1
55 51 53 2
56 50 52 1
57 53 54 1
58 52 54 2
59 48 57 1
60 48 58 1
61 50 59 1
62 51 60 1
63 52 61 1
64 53 62 1
65 54 63 1
66 64 65 1
67 64 70 1
68 65 66 1
69 65 68 1
70 65 71 1
71 66 67 2
72 66 75 1
73 68 69 1
74 68 72 1
75 68 73 1
76 69 74 1
77 75 76 1
78 75 83 1
79 76 77 1
80 76 79 1
81 76 84 1
82 77 78 2
83 77 94 1
84 79 80 1
85 79 81 1
86 80 82 1
87 79 85 1
88 80 86 1
89 80 87 1
90 81 88 1
91 81 89 1
92 81 90 1
93 82 91 1
94 82 92 1
95 82 93 1
96 94 95 1
97 94 102 1
98 95 96 1
99 95 98 1
100 95 103 1
101 96 97 2
102 96 113 1
103 98 99 1
104 99 100 1
105 99 101 1
106 98 104 1
107 98 105 1
108 99 106 1
109 100 107 1
110 100 108 1
111 100 109 1
112 101 110 1
113 101 111 1
114 101 112 1
115 113 114 1
116 113 121 1
117 114 115 1
118 114 117 1
119 114 122 1
120 115 116 2
121 115 125 1
122 117 118 1
123 118 119 2
124 118 120 1
125 117 123 1
126 117 124 1
127 125 126 1
128 125 134 1
129 126 127 1
130 126 129 1
131 126 135 1
132 127 128 2
133 127 140 1
134 129 130 1
135 130 131 1
136 131 132 2
137 131 133 1
138 129 136 1
139 129 137 1
140 130 138 1
141 130 139 1
142 140 141 1
143 140 150 1
144 141 142 1
145 141 144 1
146 141 151 1
147 142 143 2
148 142 157 1
149 144 145 1
150 145 146 2
151 146 149 1
152 145 147 1
153 147 148 2
154 148 149 1
155 144 152 1
156 144 153 1
157 146 154 1
158 148 155 1
159 149 156 1
160 157 158 1
161 157 164 1
162 158 159 1
163 158 161 1
164 158 165 1
165 159 160 2
166 159 173 1
167 161 162 1
168 161 163 1
169 161 166 1
170 162 167 1
171 162 168 1
172 162 169 1
173 163 170 1
174 163 171 1
175 163 172 1
176 173 174 1
177 173 182 1
178 174 175 1
179 174 177 1
180 174 183 1
181 175 176 2
182 175 190 1
183 177 178 1
184 178 179 1
185 179 180 1
186 179 181 2
187 177 184 1
188 177 185 1
189 178 186 1
190 178 187 1
191 180 188 1
192 180 189 1
193 190 191 1
194 190 201 1
195 191 192 1
196 191 194 1
197 191 202 1
198 192 193 2
199 192 214 1
200 194 195 1
201 195 196 1
202 196 197 1
203 197 198 1
204 198 199 2
205 198 200 1
206 194 203 1
207 194 204 1
208 195 205 1
209 195 206 1
210 196 207 1
211 196 208 1
212 197 209 1
213 199 210 1
214 199 211 1
215 200 212 1
216 200 213 1
217 214 215 1
218 214 221 1
219 215 216 1
220 215 218 1
221 215 222 1
222 216 217 2
223 216 230 1
224 218 219 1
225 218 220 1
226 218 223 1
227 219 224 1
228 219 225 1
229 219 226 1
230 220 227 1
231 220 228 1
232 220 229 1
233 230 231 1
234 230 238 1
235 231 232 1
236 231 234 1
237 231 239 1
238 232 233 2
239 232 247 1
240 234 235 1
241 235 236 1
242 236 237 1
243 234 240 1
244 234 241 1
245 235 242 1
246 235 243 1
247 237 244 1
248 237 245 1
249 237 246 1
250 247 248 1
251 247 258 1
252 248 249 1
253 248 251 1
254 248 259 1
255 249 250 2
256 251 252 1
257 252 253 1
258 253 254 1
259 254 255 1
260 255 256 2
261 255 257 1
262 251 260 1
263 251 261 1
264 252 262 1
265 252 263 1
266 253 264 1
267 253 265 1
268 254 266 1
269 256 267 1
270 256 268 1
271 257 269 1
272 257 270 1
@<TRIPOS>SUBSTRUCTURE
1	GLU1	1	RESIDUE	1 ****	GLU
2	ASN2	16	RESIDUE	1 ****	ASN
3	PRO3	30	RESIDUE	1 ****	PRO
4	PHE4	44	RESIDUE	1 ****	PHE
5	SER5	64	RESIDUE	1 ****	SER
6	ILE6	75	RESIDUE	1 ****	ILE
7	LEU7	94	RESIDUE	1 ****	LEU
8	ASP8	113	RESIDUE	1 ****	ASP
9	GLU9	125	RESIDUE	1 ****	GLU
10	HIS10	140	RESIDUE	1 ****	HIS
11	VAL11	157	RESIDUE	1 ****	VAL
12	GLN12	173	RESIDUE	1 ****	GLN
13	ARG13	190	RESIDUE	1 ****	ARG
14	VAL14	214	RESIDUE	1 ****	VAL
15	MET15	230	RESIDUE	1 ****	MET
16	ARG16	247	RESIDUE	1 ****	ARG
