REMARK WARNING: 32 MAX_TORS EXCEEDED!!!
REMARK  65 active torsions:
REMARK  status: ('A' for Active; 'I' for Inactive)
REMARK    1  A    between atoms: N_1  and  CA_2 
REMARK    2  A    between atoms: CA_2  and  C_3 
REMARK    3  A    between atoms: CA_2  and  CB_5 
REMARK       I    between atoms: C_3  and  N_11 
REMARK    4  A    between atoms: CB_5  and  CG_6 
REMARK    5  A    between atoms: CG_6  and  CD_7 
REMARK    6  A    between atoms: N_11  and  CA_12 
REMARK    7  A    between atoms: CA_12  and  C_13 
REMARK    8  A    between atoms: CA_12  and  CB_15 
REMARK       I    between atoms: C_13  and  N_22 
REMARK    9  A    between atoms: CB_15  and  CG_16 
REMARK       I    between atoms: CG_16  and  ND2_17 
REMARK   10  A    between atoms: CA_23  and  C_24 
REMARK       I    between atoms: C_24  and  N_29 
REMARK   11  A    between atoms: N_29  and  CA_30 
REMARK   12  A    between atoms: CA_30  and  C_31 
REMARK   13  A    between atoms: CA_30  and  CB_33 
REMARK       I    between atoms: C_31  and  N_39 
REMARK   14  A    between atoms: CB_33  and  CG_34 
REMARK   15  A    between atoms: CG_34  and  CD_35 
REMARK   16  A    between atoms: N_39  and  CA_40 
REMARK   17  A    between atoms: CA_40  and  C_41 
REMARK   18  A    between atoms: CA_40  and  CB_43 
REMARK       I    between atoms: C_41  and  N_47 
REMARK   19  A    between atoms: CB_43  and  OG_44 
REMARK   20  A    between atoms: N_47  and  CA_48 
REMARK   21  A    between atoms: CA_48  and  C_49 
REMARK   22  A    between atoms: CA_48  and  CB_51 
REMARK       I    between atoms: C_49  and  N_56 
REMARK   23  A    between atoms: CB_51  and  CG1_52 
REMARK   24  A    between atoms: N_56  and  CA_57 
REMARK   25  A    between atoms: CA_57  and  C_58 
REMARK   26  A    between atoms: CA_57  and  CB_60 
REMARK       I    between atoms: C_58  and  N_65 
REMARK   27  A    between atoms: CB_60  and  CG_61 
REMARK   28  A    between atoms: N_65  and  CA_66 
REMARK   29  A    between atoms: CA_66  and  C_67 
REMARK   30  A    between atoms: CA_66  and  CB_69 
REMARK       I    between atoms: C_67  and  N_74 
REMARK   31  A    between atoms: CB_69  and  CG_70 
REMARK   32  A    between atoms: N_74  and  CA_75 
REMARK   33  A    between atoms: CA_75  and  C_76 
REMARK       I    between atoms: C_76  and  N_79 
REMARK   34  A    between atoms: N_79  and  CA_80 
REMARK   35  A    between atoms: CA_80  and  C_81 
REMARK   36  A    between atoms: CA_80  and  CB_83 
REMARK       I    between atoms: C_81  and  N_91 
REMARK   37  A    between atoms: CB_83  and  CG_84 
REMARK   38  A    between atoms: N_91  and  CA_92 
REMARK   39  A    between atoms: CA_92  and  C_93 
REMARK   40  A    between atoms: CA_92  and  CB_95 
REMARK       I    between atoms: C_93  and  N_99 
REMARK   41  A    between atoms: N_99  and  CA_100 
REMARK   42  A    between atoms: CA_100  and  C_101 
REMARK   43  A    between atoms: CA_100  and  CB_103 
REMARK       I    between atoms: C_101  and  N_111 
REMARK   44  A    between atoms: CB_103  and  CG_104 
REMARK   45  A    between atoms: CG_104  and  CD_105 
REMARK       I    between atoms: CD_105  and  NE2_106 
REMARK   46  A    between atoms: N_111  and  CA_112 
REMARK   47  A    between atoms: CA_112  and  C_113 
REMARK   48  A    between atoms: CA_112  and  CB_115 
REMARK       I    between atoms: C_113  and  N_128 
REMARK   49  A    between atoms: CB_115  and  CG_116 
REMARK   50  A    between atoms: CG_116  and  CD_117 
REMARK   51  A    between atoms: CD_117  and  NE_118 
REMARK       I    between atoms: NE_118  and  CZ_119 
REMARK       I    between atoms: CZ_119  and  NH1_120 
REMARK       I    between atoms: CZ_119  and  NH2_121 
REMARK   52  A    between atoms: N_128  and  CA_129 
REMARK   53  A    between atoms: CA_129  and  C_130 
REMARK   54  A    between atoms: CA_129  and  CB_132 
REMARK       I    between atoms: C_130  and  N_136 
REMARK   55  A    between atoms: N_136  and  CA_137 
REMARK   56  A    between atoms: CA_137  and  C_138 
REMARK   57  A    between atoms: CA_137  and  CB_140 
REMARK       I    between atoms: C_138  and  N_145 
REMARK   58  A    between atoms: CB_140  and  CG_141 
REMARK   59  A    between atoms: CG_141  and  SD_142 
REMARK   60  A    between atoms: N_145  and  CA_146 
REMARK   61  A    between atoms: CA_146  and  C_147 
REMARK   62  A    between atoms: CA_146  and  CB_149 
REMARK   63  A    between atoms: CB_149  and  CG_150 
REMARK   64  A    between atoms: CG_150  and  CD_151 
REMARK   65  A    between atoms: CD_151  and  NE_152 
REMARK       I    between atoms: NE_152  and  CZ_153 
REMARK       I    between atoms: CZ_153  and  NH1_154 
ROOT
ATOM      1  CA  HIS d  10    1380.721 403.820-1387.300  0.00  0.00     0.182 C 
ENDROOT
BRANCH   1   2
ATOM      2  N   HIS d  10    1379.833 404.331-1386.260  0.00  0.00    -0.346 N 
ATOM      3  C   GLY d   9    1379.736 405.606-1386.090  0.00  0.00     0.236 C 
ATOM      4  O   GLY d   9    1380.397 406.357-1386.812  0.00  0.00    -0.272 OA
ATOM      5  H   HIS d  10    1379.302 403.695-1385.681  0.00  0.00     0.163 HD
BRANCH   3   6
ATOM      6  CA  GLY d   9    1378.818 406.133-1385.014  0.00  0.00     0.225 C 
BRANCH   6   7
ATOM      7  N   GLY d   9    1377.516 405.476-1385.069  0.00  0.00    -0.351 N 
ATOM      8  C   ASP d   8    1376.836 405.526-1386.164  0.00  0.00     0.241 C 
ATOM      9  O   ASP d   8    1377.308 406.131-1387.139  0.00  0.00    -0.271 OA
ATOM     10  H   GLY d   9    1377.152 404.989-1384.262  0.00  0.00     0.163 HD
BRANCH   8  11
ATOM     11  CA  ASP d   8    1375.489 404.846-1386.222  0.00  0.00     0.186 C 
BRANCH  11  12
ATOM     12  N   ASP d   8    1375.560 403.496-1385.669  0.00  0.00    -0.346 N 
ATOM     13  C   LEU d   7    1376.397 402.656-1386.175  0.00  0.00     0.241 C 
ATOM     14  O   LEU d   7    1377.117 403.019-1387.117  0.00  0.00    -0.271 OA
ATOM     15  H   ASP d   8    1374.962 403.225-1384.901  0.00  0.00     0.163 HD
BRANCH  13  16
ATOM     16  CA  LEU d   7    1376.469 401.260-1385.603  0.00  0.00     0.177 C 
BRANCH  16  17
ATOM     17  N   LEU d   7    1376.525 401.296-1384.145  0.00  0.00    -0.346 N 
ATOM     18  C   ILE d   6    1377.470 401.960-1383.571  0.00  0.00     0.241 C 
ATOM     19  O   ILE d   6    1378.305 402.547-1384.275  0.00  0.00    -0.271 OA
ATOM     20  H   LEU d   7    1375.833 400.809-1383.593  0.00  0.00     0.163 HD
BRANCH  18  21
ATOM     21  CA  ILE d   6    1377.528 401.997-1382.063  0.00  0.00     0.180 C 
BRANCH  21  22
ATOM     22  N   ILE d   6    1376.215 402.292-1381.497  0.00  0.00    -0.346 N 
ATOM     23  C   SER d   5    1375.610 403.375-1381.851  0.00  0.00     0.243 C 
ATOM     24  O   SER d   5    1376.157 404.128-1382.656  0.00  0.00    -0.271 OA
ATOM     25  H   ILE d   6    1375.786 401.657-1380.838  0.00  0.00     0.163 HD
BRANCH  23  26
ATOM     26  CA  SER d   5    1374.251 403.680-1381.265  0.00  0.00     0.200 C 
BRANCH  26  27
ATOM     27  N   SER d   5    1373.382 402.509-1381.323  0.00  0.00    -0.344 N 
ATOM     28  C   GLU d   4    1373.154 401.956-1382.467  0.00  0.00     0.241 C 
ATOM     29  O   GLU d   4    1373.680 402.436-1383.481  0.00  0.00    -0.271 OA
ATOM     30  H   SER d   5    1372.965 402.137-1380.482  0.00  0.00     0.163 HD
BRANCH  28  31
ATOM     31  CA  GLU d   4    1372.255 400.745-1382.528  0.00  0.00     0.177 C 
BRANCH  31  32
ATOM     32  N   GLU d   4    1372.615 399.774-1381.498  0.00  0.00    -0.346 N 
ATOM     33  C   PRO d   3    1373.820 399.314-1381.466  0.00  0.00     0.241 C 
ATOM     34  O   PRO d   3    1374.643 399.697-1382.297  0.00  0.00    -0.271 OA
ATOM     35  H   GLU d   4    1371.931 399.467-1380.821  0.00  0.00     0.163 HD
BRANCH  33  36
ATOM     36  CA  PRO d   3    1374.218 398.290-1380.389  0.00  0.00     0.179 C 
ATOM     37  N   PRO d   3    1373.766 398.700-1379.068  0.00  0.00    -0.337 N 
ATOM     38  C   ASN d   2    1374.288 399.695-1378.433  0.00  0.00     0.243 C 
ATOM     39  CD  PRO d   3    1372.688 397.906-1378.518  0.00  0.00     0.127 C 
ATOM     40  O   ASN d   2    1375.203 400.325-1378.962  0.00  0.00    -0.271 OA
ATOM     41  CG  PRO d   3    1372.231 397.088-1379.728  0.00  0.00     0.022 C 
ATOM     42  CB  PRO d   3    1373.514 396.936-1380.558  0.00  0.00     0.037 C 
BRANCH  38  43
ATOM     43  CA  ASN d   2    1373.757 400.050-1377.065  0.00  0.00     0.185 C 
BRANCH  43  44
ATOM     44  N   ASN d   2    1372.297 400.089-1377.065  0.00  0.00    -0.346 N 
ATOM     45  C   GLU d   1    1371.693 400.875-1377.890  0.00  0.00     0.242 C 
ATOM     46  O   GLU d   1    1372.369 401.574-1378.658  0.00  0.00    -0.271 OA
ATOM     47  H   ASN d   2    1371.769 399.509-1376.428  0.00  0.00     0.163 HD
BRANCH  45  48
ATOM     48  CA  GLU d   1    1370.184 400.915-1377.890  0.00  0.00     0.191 C 
BRANCH  48  49
ATOM     49  N   GLU d   1    1369.625 399.566-1377.890  0.00  0.00    -0.326 NA
ATOM     50  H   GLU d   1    1370.252 398.687-1377.890  0.00  0.00     0.180 HD
ENDBRANCH  48  49
BRANCH  48  51
ATOM     51  CB  GLU d   1    1369.661 401.700-1376.653  0.00  0.00     0.047 C 
BRANCH  51  52
ATOM     52  CG  GLU d   1    1370.136 403.185-1376.542  0.00  0.00     0.116 C 
BRANCH  52  53
ATOM     53  CD  GLU d   1    1369.712 403.989-1375.327  0.00  0.00     0.172 C 
ATOM     54  OE1 GLU d   1    1368.984 403.487-1374.449  0.00  0.00    -0.648 OA
ATOM     55  OE2 GLU d   1    1370.142 405.159-1375.255  0.00  0.00    -0.648 OA
ENDBRANCH  52  53
ENDBRANCH  51  52
ENDBRANCH  48  51
ENDBRANCH  45  48
ENDBRANCH  43  44
BRANCH  43  56
ATOM     56  CB  ASN d   2    1374.249 399.027-1376.000  0.00  0.00     0.137 C 
BRANCH  56  57
ATOM     57  CG  ASN d   2    1373.786 399.251-1374.557  0.00  0.00     0.217 C 
ATOM     58  ND2 ASN d   2    1374.380 400.166-1373.839  0.00  0.00    -0.370 N 
ATOM     59 21HD ASN d   2    1373.899 400.339-1372.952  0.00  0.00     0.159 HD
ATOM     60 22HD ASN d   2    1375.082 400.738-1374.308  0.00  0.00     0.159 HD
ATOM     61  OD1 ASN d   2    1372.865 398.617-1374.063  0.00  0.00    -0.274 OA
ENDBRANCH  56  57
ENDBRANCH  43  56
ENDBRANCH  38  43
ENDBRANCH  33  36
ENDBRANCH  31  32
BRANCH  31  62
ATOM     62  CB  GLU d   4    1370.767 401.163-1382.357  0.00  0.00     0.045 C 
BRANCH  62  63
ATOM     63  CG  GLU d   4    1370.218 402.167-1383.423  0.00  0.00     0.116 C 
BRANCH  63  64
ATOM     64  CD  GLU d   4    1368.792 402.664-1383.279  0.00  0.00     0.172 C 
ATOM     65  OE1 GLU d   4    1368.066 402.265-1382.348  0.00  0.00    -0.648 OA
ATOM     66  OE2 GLU d   4    1368.402 403.493-1384.127  0.00  0.00    -0.648 OA
ENDBRANCH  63  64
ENDBRANCH  62  63
ENDBRANCH  31  62
ENDBRANCH  28  31
ENDBRANCH  26  27
BRANCH  26  67
ATOM     67  CB  SER d   5    1374.363 404.212-1379.814  0.00  0.00     0.199 C 
BRANCH  67  68
ATOM     68  OG  SER d   5    1375.095 403.333-1378.954  0.00  0.00    -0.398 OA
ATOM     69  HG  SER d   5    1374.606 402.508-1378.903  0.00  0.00     0.209 HD
ENDBRANCH  67  68
ENDBRANCH  26  67
ENDBRANCH  23  26
ENDBRANCH  21  22
BRANCH  21  70
ATOM     70  CB  ILE d   6    1378.128 400.661-1381.464  0.00  0.00     0.013 C 
ATOM     71  CG2 ILE d   6    1379.569 400.359-1381.979  0.00  0.00     0.012 C 
BRANCH  70  72
ATOM     72  CG1 ILE d   6    1378.147 400.598-1379.902  0.00  0.00     0.002 C 
ATOM     73  CD1 ILE d   6    1378.417 399.209-1379.288  0.00  0.00     0.005 C 
ENDBRANCH  70  72
ENDBRANCH  21  70
ENDBRANCH  18  21
ENDBRANCH  16  17
BRANCH  16  74
ATOM     74  CB  LEU d   7    1375.266 400.400-1386.084  0.00  0.00     0.038 C 
BRANCH  74  75
ATOM     75  CG  LEU d   7    1375.194 398.921-1385.617  0.00  0.00    -0.020 C 
ATOM     76  CD1 LEU d   7    1374.004 398.215-1386.283  0.00  0.00     0.009 C 
ATOM     77  CD2 LEU d   7    1376.487 398.142-1385.909  0.00  0.00     0.009 C 
ENDBRANCH  74  75
ENDBRANCH  16  74
ENDBRANCH  13  16
ENDBRANCH  11  12
BRANCH  11  78
ATOM     78  CB  ASP d   8    1374.411 405.685-1385.480  0.00  0.00     0.147 C 
BRANCH  78  79
ATOM     79  CG  ASP d   8    1374.192 407.106-1386.020  0.00  0.00     0.175 C 
ATOM     80  OD1 ASP d   8    1374.256 407.305-1387.250  0.00  0.00    -0.648 OA
ATOM     81  OD2 ASP d   8    1374.000 408.031-1385.204  0.00  0.00    -0.648 OA
ENDBRANCH  78  79
ENDBRANCH  11  78
ENDBRANCH   8  11
ENDBRANCH   6   7
ENDBRANCH   3   6
ENDBRANCH   1   2
BRANCH   1  82
ATOM     82  C   HIS d  10    1380.353 404.384-1388.651  0.00  0.00     0.241 C 
ATOM     83  O   HIS d  10    1381.205 404.849-1389.423  0.00  0.00    -0.271 OA
ATOM     84  N   VAL d  11    1379.115 404.383-1389.014  0.00  0.00    -0.346 N 
ATOM     85  H   VAL d  11    1378.403 404.010-1388.403  0.00  0.00     0.163 HD
BRANCH  84  86
ATOM     86  CA  VAL d  11    1378.760 404.929-1390.320  0.00  0.00     0.180 C 
BRANCH  86  87
ATOM     87  C   VAL d  11    1379.224 406.360-1390.453  0.00  0.00     0.241 C 
ATOM     88  O   VAL d  11    1379.825 406.766-1391.456  0.00  0.00    -0.271 OA
ATOM     89  N   GLN d  12    1378.987 407.186-1389.490  0.00  0.00    -0.346 N 
ATOM     90  H   GLN d  12    1378.498 406.879-1388.661  0.00  0.00     0.163 HD
BRANCH  89  91
ATOM     91  CA  GLN d  12    1379.435 408.569-1389.617  0.00  0.00     0.177 C 
BRANCH  91  92
ATOM     92  C   GLN d  12    1380.925 408.637-1389.855  0.00  0.00     0.241 C 
ATOM     93  O   GLN d  12    1381.412 409.345-1390.734  0.00  0.00    -0.271 OA
ATOM     94  N   ARG d  13    1381.710 407.930-1389.115  0.00  0.00    -0.346 N 
ATOM     95  H   ARG d  13    1381.334 407.340-1388.386  0.00  0.00     0.163 HD
BRANCH  94  96
ATOM     96  CA  ARG d  13    1383.150 407.996-1389.346  0.00  0.00     0.176 C 
BRANCH  96  97
ATOM     97  C   ARG d  13    1383.486 407.625-1390.771  0.00  0.00     0.241 C 
ATOM     98  O   ARG d  13    1384.254 408.297-1391.455  0.00  0.00    -0.271 OA
ATOM     99  N   VAL d  14    1382.950 406.571-1391.285  0.00  0.00    -0.346 N 
ATOM    100  H   VAL d  14    1382.315 406.002-1390.743  0.00  0.00     0.163 HD
BRANCH  99 101
ATOM    101  CA  VAL d  14    1383.274 406.212-1392.663  0.00  0.00     0.180 C 
BRANCH 101 102
ATOM    102  C   VAL d  14    1382.944 407.342-1393.608  0.00  0.00     0.241 C 
ATOM    103  O   VAL d  14    1383.737 407.723-1394.478  0.00  0.00    -0.271 OA
ATOM    104  N   MET d  15    1381.799 407.928-1393.506  0.00  0.00    -0.346 N 
ATOM    105  H   MET d  15    1381.134 407.635-1392.805  0.00  0.00     0.163 HD
BRANCH 104 106
ATOM    106  CA  MET d  15    1381.478 409.020-1394.420  0.00  0.00     0.177 C 
BRANCH 106 107
ATOM    107  C   MET d  15    1382.508 410.120-1394.332  0.00  0.00     0.241 C 
ATOM    108  O   MET d  15    1383.011 410.631-1395.345  0.00  0.00    -0.271 OA
ATOM    109  N   ARG d  16    1382.877 410.541-1393.170  0.00  0.00    -0.347 N 
ATOM    110  H   ARG d  16    1382.483 410.141-1392.331  0.00  0.00     0.163 HD
BRANCH 109 111
ATOM    111  CA  ARG d  16    1383.873 411.605-1393.086  0.00  0.00     0.162 C 
BRANCH 111 112
ATOM    112  C   ARG d  16    1385.144 411.213-1393.803  0.00  0.00     0.219 C 
ATOM    113  O   ARG d  16    1385.258 410.136-1394.384  0.00  0.00    -0.287 OA
ENDBRANCH 111 112
BRANCH 111 114
ATOM    114  CB  ARG d  16    1384.143 411.923-1391.588  0.00  0.00     0.035 C 
BRANCH 114 115
ATOM    115  CG  ARG d  16    1384.968 413.212-1391.315  0.00  0.00     0.023 C 
BRANCH 115 116
ATOM    116  CD  ARG d  16    1385.218 413.432-1389.814  0.00  0.00     0.138 C 
BRANCH 116 117
ATOM    117  NE  ARG d  16    1385.994 414.691-1389.613  0.00  0.00    -0.227 N 
ATOM    118  CZ  ARG d  16    1386.385 415.173-1388.438  0.00  0.00     0.665 C 
ATOM    119  NH1 ARG d  16    1386.138 414.589-1387.299  0.00  0.00    -0.235 N 
ATOM    120  NH2 ARG d  16    1387.049 416.286-1388.419  0.00  0.00    -0.235 N 
ATOM    121 11HH ARG d  16    1385.612 413.716-1387.384  0.00  0.00     0.174 HD
ATOM    122 12HH ARG d  16    1386.472 415.024-1386.438  0.00  0.00     0.174 HD
ATOM    123 21HH ARG d  16    1387.234 416.729-1389.321  0.00  0.00     0.174 HD
ATOM    124 22HH ARG d  16    1387.339 416.641-1387.507  0.00  0.00     0.174 HD
ATOM    125  HE  ARG d  16    1386.272 415.272-1390.411  0.00  0.00     0.177 HD
ENDBRANCH 116 117
ENDBRANCH 115 116
ENDBRANCH 114 115
ENDBRANCH 111 114
ENDBRANCH 109 111
ENDBRANCH 106 107
BRANCH 106 126
ATOM    126  CB  MET d  15    1380.057 409.566-1394.111  0.00  0.00     0.045 C 
BRANCH 126 127
ATOM    127  CG  MET d  15    1378.895 408.567-1394.302  0.00  0.00     0.076 C 
BRANCH 127 128
ATOM    128  SD  MET d  15    1377.321 409.433-1394.188  0.00  0.00    -0.173 SA
ATOM    129  CE  MET d  15    1376.240 408.003-1394.051  0.00  0.00     0.089 C 
ENDBRANCH 127 128
ENDBRANCH 126 127
ENDBRANCH 106 126
ENDBRANCH 104 106
ENDBRANCH 101 102
BRANCH 101 130
ATOM    130  CB  VAL d  14    1382.502 404.895-1393.070  0.00  0.00     0.009 C 
ATOM    131  CG1 VAL d  14    1382.591 404.477-1394.563  0.00  0.00     0.012 C 
ATOM    132  CG2 VAL d  14    1382.934 403.642-1392.270  0.00  0.00     0.012 C 
ENDBRANCH 101 130
ENDBRANCH  99 101
ENDBRANCH  96  97
BRANCH  96 133
ATOM    133  CB  ARG d  13    1383.864 407.057-1388.332  0.00  0.00     0.036 C 
BRANCH 133 134
ATOM    134  CG  ARG d  13    1385.409 407.211-1388.251  0.00  0.00     0.023 C 
BRANCH 134 135
ATOM    135  CD  ARG d  13    1386.036 406.223-1387.254  0.00  0.00     0.138 C 
BRANCH 135 136
ATOM    136  NE  ARG d  13    1387.514 406.431-1387.204  0.00  0.00    -0.227 N 
ATOM    137  CZ  ARG d  13    1388.362 405.739-1386.449  0.00  0.00     0.665 C 
ATOM    138  NH1 ARG d  13    1387.997 404.775-1385.652  0.00  0.00    -0.235 N 
ATOM    139  NH2 ARG d  13    1389.621 406.039-1386.506  0.00  0.00    -0.235 N 
ATOM    140 11HH ARG d  13    1386.992 404.588-1385.655  0.00  0.00     0.174 HD
ATOM    141 12HH ARG d  13    1388.711 404.292-1385.104  0.00  0.00     0.174 HD
ATOM    142 21HH ARG d  13    1389.888 406.797-1387.137  0.00  0.00     0.174 HD
ATOM    143 22HH ARG d  13    1390.257 405.497-1385.918  0.00  0.00     0.174 HD
ATOM    144  HE  ARG d  13    1387.964 407.153-1387.775  0.00  0.00     0.177 HD
ENDBRANCH 135 136
ENDBRANCH 134 135
ENDBRANCH 133 134
ENDBRANCH  96 133
ENDBRANCH  94  96
ENDBRANCH  91  92
BRANCH  91 145
ATOM    145  CB  GLN d  12    1379.044 409.336-1388.334  0.00  0.00     0.044 C 
BRANCH 145 146
ATOM    146  CG  GLN d  12    1379.404 410.858-1388.303  0.00  0.00     0.105 C 
BRANCH 146 147
ATOM    147  CD  GLN d  12    1379.101 411.671-1387.037  0.00  0.00     0.215 C 
ATOM    148  NE2 GLN d  12    1378.535 411.094-1386.009  0.00  0.00    -0.370 N 
ATOM    149 21HE GLN d  12    1378.427 411.688-1385.185  0.00  0.00     0.159 HD
ATOM    150 22HE GLN d  12    1378.371 410.091-1386.112  0.00  0.00     0.159 HD
ATOM    151  OE1 GLN d  12    1379.403 412.852-1386.960  0.00  0.00    -0.274 OA
ENDBRANCH 146 147
ENDBRANCH 145 146
ENDBRANCH  91 145
ENDBRANCH  89  91
ENDBRANCH  86  87
BRANCH  86 152
ATOM    152  CB  VAL d  11    1377.199 404.823-1390.539  0.00  0.00     0.009 C 
ATOM    153  CG1 VAL d  11    1376.629 405.527-1391.802  0.00  0.00     0.012 C 
ATOM    154  CG2 VAL d  11    1376.674 403.368-1390.612  0.00  0.00     0.012 C 
ENDBRANCH  86 152
ENDBRANCH  84  86
ENDBRANCH   1  82
BRANCH   1 155
ATOM    155  CB  HIS d  10    1380.557 402.291-1387.295  0.00  0.00     0.095 C 
BRANCH 155 156
ATOM    156  CG  HIS d  10    1381.843 401.581-1386.987  0.00  0.00     0.053 A 
ATOM    157  CD2 HIS d  10    1382.224 401.246-1385.695  0.00  0.00     0.116 A 
ATOM    158  NE2 HIS d  10    1383.439 400.614-1385.762  0.00  0.00    -0.359 N 
ATOM    159  CE1 HIS d  10    1383.701 400.617-1387.097  0.00  0.00     0.207 A 
ATOM    160  2HE HIS d  10    1384.006 400.237-1384.989  0.00  0.00     0.166 HD
ATOM    161  ND1 HIS d  10    1382.795 401.175-1387.920  0.00  0.00    -0.247 NA
ENDBRANCH 155 156
ENDBRANCH   1 155
TORSDOF 65
