@<TRIPOS>MOLECULE
5-16
271 272 16              
SMALL
USER_CHARGES
@<TRIPOS>ATOM
1	   N	819.623	217.770	-781.375	N.3	1	GLU1	-0.516	
2	  CA	820.182	219.119	-781.375	C.3	1	GLU1	0.040	
3	   C	821.691	219.079	-781.375	C.2	1	GLU1	0.537	
4	   O	822.367	219.778	-782.144	O.2	1	GLU1	-0.582	
5	  CB	819.659	219.904	-780.138	C.3	1	GLU1	0.056	
6	  CG	820.134	221.389	-780.027	C.3	1	GLU1	0.014	
7	  CD	819.710	222.193	-778.812	C.2	1	GLU1	0.805	
8	 OE1	818.982	221.691	-777.934	O.co2	1	GLU1	-0.819	
9	 OE2	820.140	223.363	-778.740	O.co2	1	GLU1	-0.819	
10	   H	820.250	216.891	-781.375	 H	1	GLU1	0.294	
11	  HA	819.856	219.637	-782.295	 H	1	GLU1	0.111	
12	 2HB	819.948	219.373	-779.208	 H	1	GLU1	-0.017	
13	 3HB	818.552	219.894	-780.125	 H	1	GLU1	-0.017	
14	 2HG	819.824	221.974	-780.908	 H	1	GLU1	-0.043	
15	 3HG	821.234	221.456	-779.998	 H	1	GLU1	-0.043	
16	   N	822.296	218.293	-780.550	N.am	2	ASN2	-0.416	
17	  CA	823.755	218.255	-780.550	C.3	2	ASN2	0.014	
18	   C	824.286	217.899	-781.919	C.2	2	ASN2	0.597	
19	   O	825.201	218.530	-782.447	O.2	2	ASN2	-0.568	
20	  CB	824.247	217.232	-779.486	C.3	2	ASN2	-0.204	
21	  CG	823.784	217.456	-778.042	C.2	2	ASN2	0.713	
22	 ND2	824.378	218.371	-777.324	N.pl3	2	ASN2	-0.919	
23	 OD1	822.864	216.822	-777.548	O.2	2	ASN2	-0.593	
24	   H	821.768	217.714	-779.914	 H	2	ASN2	0.272	
25	  HA	824.132	219.265	-780.305	 H	2	ASN2	0.105	
26	 2HB	825.352	217.173	-779.489	 H	2	ASN2	0.080	
27	 3HB	823.918	216.213	-779.772	 H	2	ASN2	0.080	
28	1HD2	823.898	218.543	-776.438	 H	2	ASN2	0.420	
29	2HD2	825.080	218.942	-777.794	 H	2	ASN2	0.420	
30	   N	823.765	216.904	-782.553	N.am	3	PRO3	-0.255	
31	  CA	824.217	216.495	-783.874	C.3	3	PRO3	-0.027	
32	   C	823.819	217.518	-784.951	C.2	3	PRO3	0.590	
33	   O	824.642	217.902	-785.783	O.2	3	PRO3	-0.575	
34	  CB	823.513	215.140	-784.044	C.3	3	PRO3	-0.007	
35	  CG	822.230	215.292	-783.214	C.3	3	PRO3	0.019	
36	  CD	822.687	216.111	-782.004	C.3	3	PRO3	0.019	
37	  HA	825.303	216.375	-783.888	 H	3	PRO3	0.064	
38	 2HB	824.136	214.359	-783.603	 H	3	PRO3	0.025	
39	 3HB	823.315	214.892	-785.089	 H	3	PRO3	0.025	
40	 2HG	821.802	214.330	-782.923	 H	3	PRO3	0.021	
41	 3HG	821.492	215.863	-783.781	 H	3	PRO3	0.021	
42	 2HD	823.076	215.461	-781.216	 H	3	PRO3	0.039	
43	 3HD	821.890	216.747	-781.611	 H	3	PRO3	0.039	
44	   N	822.614	217.978	-784.984	N.am	4	GLU4	-0.516	
45	  CA	822.254	218.949	-786.013	C.3	4	GLU4	0.040	
46	   C	823.153	220.160	-785.952	C.2	4	GLU4	0.537	
47	   O	823.679	220.640	-786.967	O.2	4	GLU4	-0.582	
48	  CB	820.766	219.368	-785.843	C.3	4	GLU4	0.056	
49	  CG	820.217	220.371	-786.909	C.3	4	GLU4	0.014	
50	  CD	818.791	220.867	-786.765	C.2	4	GLU4	0.805	
51	 OE1	818.064	220.469	-785.834	O.co2	4	GLU4	-0.819	
52	 OE2	818.401	221.697	-787.614	O.co2	4	GLU4	-0.819	
53	   H	821.930	217.671	-784.307	 H	4	GLU4	0.294	
54	  HA	822.385	218.479	-787.005	 H	4	GLU4	0.111	
55	 2HB	820.613	219.807	-784.836	 H	4	GLU4	-0.017	
56	 3HB	820.118	218.470	-785.849	 H	4	GLU4	-0.017	
57	 2HG	820.299	219.956	-787.927	 H	4	GLU4	-0.043	
58	 3HG	820.805	221.303	-786.920	 H	4	GLU4	-0.043	
59	   N	823.380	220.713	-784.809	N.am	5	GLN5	-0.416	
60	  CA	824.249	221.884	-784.749	C.3	5	GLN5	-0.003	
61	   C	825.608	221.581	-785.334	C.2	5	GLN5	0.597	
62	   O	826.154	222.336	-786.136	O.2	5	GLN5	-0.568	
63	  CB	824.368	222.338	-783.277	C.3	5	GLN5	-0.004	
64	  CG	825.230	223.617	-783.017	C.3	5	GLN5	-0.064	
65	  CD	825.444	224.093	-781.574	C.2	5	GLN5	0.695	
66	 NE2	824.895	223.440	-780.582	N.pl3	5	GLN5	-0.941	
67	 OE1	826.142	225.064	-781.327	O.2	5	GLN5	-0.609	
68	   H	822.963	220.341	-783.968	 H	5	GLN5	0.272	
69	  HA	823.797	222.693	-785.354	 H	5	GLN5	0.085	
70	 2HB	824.782	221.498	-782.682	 H	5	GLN5	0.017	
71	 3HB	823.352	222.510	-782.872	 H	5	GLN5	0.017	
72	 2HG	824.825	224.472	-783.590	 H	5	GLN5	0.035	
73	 3HG	826.252	223.480	-783.415	 H	5	GLN5	0.035	
74	1HE2	825.139	223.783	-779.651	 H	5	GLN5	0.425	
75	2HE2	824.381	222.599	-780.851	 H	5	GLN5	0.425	
76	   N	826.215	220.499	-784.980	N.am	6	ILE6	-0.416	
77	  CA	827.529	220.207	-785.546	C.3	6	ILE6	-0.060	
78	   C	827.473	220.171	-787.054	C.2	6	ILE6	0.597	
79	   O	828.307	220.760	-787.756	O.2	6	ILE6	-0.568	
80	  CB	828.130	218.871	-784.947	C.3	6	ILE6	0.130	
81	 CG1	828.148	218.807	-783.386	C.3	6	ILE6	-0.043	
82	 CG2	829.572	218.572	-785.461	C.3	6	ILE6	-0.320	
83	 CD1	828.420	217.418	-782.772	C.3	6	ILE6	-0.066	
84	   H	825.787	219.863	-784.322	 H	6	ILE6	0.272	
85	  HA	828.201	221.042	-785.276	 H	6	ILE6	0.087	
86	  HB	827.474	218.044	-785.292	 H	6	ILE6	0.019	
87	2HG1	827.165	219.125	-782.990	 H	6	ILE6	0.024	
88	3HG1	828.862	219.550	-782.979	 H	6	ILE6	0.024	
89	1HG2	829.632	218.480	-786.559	 H	6	ILE6	0.088	
90	2HG2	830.293	219.355	-785.157	 H	6	ILE6	0.088	
91	3HG2	829.963	217.610	-785.083	 H	6	ILE6	0.088	
92	1HD1	827.693	216.663	-783.128	 H	6	ILE6	0.019	
93	2HD1	829.431	217.041	-783.007	 H	6	ILE6	0.019	
94	3HD1	828.342	217.446	-781.669	 H	6	ILE6	0.019	
95	   N	826.529	219.506	-787.629	N.am	7	LEU7	-0.416	
96	  CA	826.475	219.472	-789.088	C.3	7	LEU7	-0.052	
97	   C	826.401	220.867	-789.659	C.2	7	LEU7	0.597	
98	   O	827.122	221.232	-790.599	O.2	7	LEU7	-0.568	
99	  CB	825.274	218.610	-789.570	C.3	7	LEU7	-0.110	
100	  CG	825.203	217.130	-789.105	C.3	7	LEU7	0.353	
101	 CD1	824.015	216.423	-789.772	C.3	7	LEU7	-0.412	
102	 CD2	826.498	216.353	-789.396	C.3	7	LEU7	-0.412	
103	   H	825.837	219.017	-787.079	 H	7	LEU7	0.272	
104	  HA	827.418	219.033	-789.461	 H	7	LEU7	0.092	
105	 2HB	825.251	218.627	-790.677	 H	7	LEU7	0.046	
106	 3HB	824.333	219.111	-789.266	 H	7	LEU7	0.046	
107	  HG	825.032	217.121	-788.008	 H	7	LEU7	-0.036	
108	1HD1	823.057	216.930	-789.550	 H	7	LEU7	0.100	
109	2HD1	824.115	216.384	-790.873	 H	7	LEU7	0.100	
110	3HD1	823.909	215.381	-789.417	 H	7	LEU7	0.100	
111	1HD2	826.774	216.385	-790.466	 H	7	LEU7	0.100	
112	2HD2	827.350	216.765	-788.824	 H	7	LEU7	0.100	
113	3HD2	826.418	215.290	-789.101	 H	7	LEU7	0.100	
114	   N	825.562	221.706	-789.152	N.am	8	ASP8	-0.516	
115	  CA	825.490	223.056	-789.704	C.3	8	ASP8	0.038	
116	   C	826.835	223.738	-789.645	C.2	8	ASP8	0.537	
117	   O	827.308	224.345	-790.618	O.2	8	ASP8	-0.582	
118	  CB	824.410	223.893	-788.962	C.3	8	ASP8	-0.030	
119	  CG	824.189	225.314	-789.501	C.2	8	ASP8	0.799	
120	 OD1	824.254	225.514	-790.732	O.co2	8	ASP8	-0.801	
121	 OD2	823.995	226.238	-788.685	O.co2	8	ASP8	-0.801	
122	   H	824.964	221.433	-788.385	 H	8	ASP8	0.294	
123	  HA	825.208	222.979	-790.771	 H	8	ASP8	0.088	
124	 2HB	824.666	223.975	-787.890	 H	8	ASP8	-0.012	
125	 3HB	823.431	223.386	-788.997	 H	8	ASP8	-0.012	
126	   N	827.514	223.688	-788.549	N.am	9	GLU9	-0.516	
127	  CA	828.816	224.348	-788.492	C.3	9	GLU9	0.040	
128	   C	829.736	223.823	-789.567	C.2	9	GLU9	0.537	
129	   O	830.399	224.579	-790.291	O.2	9	GLU9	-0.582	
130	  CB	829.448	224.139	-787.086	C.3	9	GLU9	0.056	
131	  CG	830.829	224.833	-786.854	C.3	9	GLU9	0.014	
132	  CD	831.530	224.620	-785.526	C.2	9	GLU9	0.805	
133	 OE1	831.009	223.927	-784.631	O.co2	9	GLU9	-0.819	
134	 OE2	832.649	225.159	-785.392	O.co2	9	GLU9	-0.819	
135	   H	827.151	223.200	-787.743	 H	9	GLU9	0.294	
136	  HA	828.672	225.429	-788.666	 H	9	GLU9	0.111	
137	 2HB	829.563	223.055	-786.884	 H	9	GLU9	-0.017	
138	 3HB	828.750	224.490	-786.302	 H	9	GLU9	-0.017	
139	 2HG	830.756	225.924	-786.993	 H	9	GLU9	-0.043	
140	 3HG	831.577	224.491	-787.588	 H	9	GLU9	-0.043	
141	   N	829.834	222.548	-789.738	N.am	10	HIS10	-0.416	
142	  CA	830.724	222.039	-790.778	C.3	10	HIS10	-0.058	
143	   C	830.358	222.605	-792.129	C.2	10	HIS10	0.597	
144	   O	831.210	223.072	-792.899	O.2	10	HIS10	-0.568	
145	  CB	830.563	220.510	-790.776	C.3	10	HIS10	-0.007	
146	  CG	831.849	219.802	-790.467	C.2	10	HIS10	0.187	
147	 CD2	832.229	219.465	-789.174	C.2	10	HIS10	-0.221	
148	 ND1	832.803	219.398	-791.399	N.2	10	HIS10	-0.543	
149	 CE1	833.709	218.841	-790.576	C.2	10	HIS10	0.163	
150	 NE2	833.445	218.836	-789.241	N.pl3	10	HIS10	-0.280	
151	   H	829.304	221.911	-789.161	 H	10	HIS10	0.272	
152	  HA	831.742	222.398	-790.552	 H	10	HIS10	0.136	
153	 2HB	830.199	220.144	-791.756	 H	10	HIS10	0.037	
154	 3HB	829.807	220.171	-790.037	 H	10	HIS10	0.037	
155	 2HD	831.642	219.678	-788.286	 H	10	HIS10	0.186	
156	 1HE	834.601	218.422	-791.022	 H	10	HIS10	0.144	
157	 2HE	834.012	218.458	-788.467	 H	10	HIS10	0.334	
158	   N	829.120	222.603	-792.493	N.am	11	VAL11	-0.416	
159	  CA	828.766	223.150	-793.800	C.3	11	VAL11	-0.087	
160	   C	829.228	224.581	-793.930	C.2	11	VAL11	0.597	
161	   O	829.829	224.988	-794.932	O.2	11	VAL11	-0.568	
162	  CB	827.205	223.041	-794.021	C.3	11	VAL11	0.299	
163	 CG1	826.636	223.745	-795.283	C.3	11	VAL11	-0.319	
164	 CG2	826.683	221.586	-794.096	C.3	11	VAL11	-0.319	
165	   H	828.407	222.228	-791.884	 H	11	VAL11	0.272	
166	  HA	829.287	222.569	-794.582	 H	11	VAL11	0.097	
167	  HB	826.716	223.519	-793.146	 H	11	VAL11	-0.030	
168	1HG1	827.077	223.356	-796.221	 H	11	VAL11	0.079	
169	2HG1	825.538	223.637	-795.367	 H	11	VAL11	0.079	
170	3HG1	826.813	224.838	-795.273	 H	11	VAL11	0.079	
171	1HG2	826.972	220.998	-793.206	 H	11	VAL11	0.079	
172	2HG2	825.577	221.547	-794.140	 H	11	VAL11	0.079	
173	3HG2	827.066	221.047	-794.983	 H	11	VAL11	0.079	
174	   N	828.989	225.405	-792.967	N.am	12	GLN12	-0.416	
175	  CA	829.435	226.789	-793.092	C.3	12	GLN12	-0.003	
176	   C	830.925	226.859	-793.328	C.2	12	GLN12	0.597	
177	   O	831.412	227.569	-794.205	O.2	12	GLN12	-0.568	
178	  CB	829.042	227.555	-791.809	C.3	12	GLN12	-0.004	
179	  CG	829.399	229.077	-791.775	C.3	12	GLN12	-0.064	
180	  CD	829.095	229.888	-790.510	C.2	12	GLN12	0.695	
181	 NE2	828.527	229.310	-789.482	N.pl3	12	GLN12	-0.941	
182	 OE1	829.394	231.070	-790.430	O.2	12	GLN12	-0.609	
183	   H	828.499	225.098	-792.139	 H	12	GLN12	0.272	
184	  HA	828.936	227.246	-793.967	 H	12	GLN12	0.085	
185	 2HB	829.518	227.054	-790.939	 H	12	GLN12	0.017	
186	 3HB	827.951	227.445	-791.647	 H	12	GLN12	0.017	
187	 2HG	828.922	229.598	-792.626	 H	12	GLN12	0.035	
188	 3HG	830.483	229.221	-791.940	 H	12	GLN12	0.035	
189	1HE2	828.418	229.903	-788.658	 H	12	GLN12	0.425	
190	2HE2	828.365	228.306	-789.587	 H	12	GLN12	0.425	
191	   N	831.710	226.153	-792.587	N.am	13	ARG13	-0.348	
192	  CA	833.151	226.221	-792.816	C.3	13	ARG13	-0.264	
193	   C	833.489	225.852	-794.241	C.2	13	ARG13	0.734	
194	   O	834.257	226.525	-794.924	O.2	13	ARG13	-0.589	
195	  CB	833.864	225.282	-791.803	C.3	13	ARG13	-0.001	
196	  CG	835.409	225.437	-791.720	C.3	13	ARG13	0.039	
197	  CD	836.036	224.449	-790.722	C.3	13	ARG13	0.049	
198	  NE	837.513	224.659	-790.670	N.pl3	13	ARG13	-0.530	
199	  CZ	838.361	223.967	-789.915	C.cat	13	ARG13	0.808	
200	 NH1	837.997	223.002	-789.119	N.pl3	13	ARG13	-0.863	
201	 NH2	839.620	224.268	-789.970	N.pl3	13	ARG13	-0.863	
202	   H	831.334	225.561	-791.860	 H	13	ARG13	0.275	
203	  HA	833.473	227.267	-792.656	 H	13	ARG13	0.156	
204	 2HB	833.600	224.231	-792.043	 H	13	ARG13	0.033	
205	 3HB	833.438	225.447	-790.792	 H	13	ARG13	0.033	
206	 2HG	835.655	226.482	-791.439	 H	13	ARG13	0.029	
207	 3HG	835.861	225.283	-792.721	 H	13	ARG13	0.029	
208	 2HD	835.794	223.409	-791.033	 H	13	ARG13	0.069	
209	 3HD	835.578	224.593	-789.720	 H	13	ARG13	0.069	
210	  HE	837.964	225.382	-791.239	 H	13	ARG13	0.346	
211	1HH1	836.991	222.814	-789.123	 H	13	ARG13	0.448	
212	2HH1	838.710	222.519	-788.570	 H	13	ARG13	0.448	
213	1HH2	839.887	225.027	-790.600	 H	13	ARG13	0.448	
214	2HH2	840.256	223.727	-789.381	 H	13	ARG13	0.448	
215	   N	832.955	224.797	-794.758	N.am	14	VAL14	-0.416	
216	  CA	833.282	224.440	-796.135	C.3	14	VAL14	-0.087	
217	   C	832.951	225.570	-797.080	C.2	14	VAL14	0.597	
218	   O	833.745	225.954	-797.948	O.2	14	VAL14	-0.568	
219	  CB	832.512	223.122	-796.544	C.3	14	VAL14	0.299	
220	 CG1	832.603	222.705	-798.038	C.3	14	VAL14	-0.319	
221	 CG2	832.945	221.869	-795.745	C.3	14	VAL14	-0.319	
222	   H	832.320	224.227	-794.217	 H	14	VAL14	0.272	
223	  HA	834.370	224.265	-796.209	 H	14	VAL14	0.097	
224	  HB	831.435	223.291	-796.329	 H	14	VAL14	-0.030	
225	1HG1	833.645	222.530	-798.366	 H	14	VAL14	0.079	
226	2HG1	832.032	221.782	-798.253	 H	14	VAL14	0.079	
227	3HG1	832.174	223.468	-798.716	 H	14	VAL14	0.079	
228	1HG2	832.856	222.027	-794.654	 H	14	VAL14	0.079	
229	2HG2	832.310	220.992	-795.979	 H	14	VAL14	0.079	
230	3HG2	833.993	221.581	-795.950	 H	14	VAL14	0.079	
231	   N	831.805	226.154	-796.979	N.am	15	MET15	-0.416	
232	  CA	831.484	227.248	-797.891	C.3	15	MET15	-0.024	
233	   C	832.513	228.349	-797.801	C.2	15	MET15	0.597	
234	   O	833.016	228.862	-798.813	O.2	15	MET15	-0.568	
235	  CB	830.062	227.791	-797.583	C.3	15	MET15	0.034	
236	  CG	828.901	226.791	-797.777	C.3	15	MET15	0.002	
237	  SD	827.326	227.655	-797.664	S.3	15	MET15	-0.274	
238	  CE	826.247	226.223	-797.530	C.3	15	MET15	-0.054	
239	   H	831.140	225.860	-796.278	 H	15	MET15	0.272	
240	  HA	831.512	226.862	-798.927	 H	15	MET15	0.088	
241	 2HB	829.859	228.670	-798.225	 H	15	MET15	0.024	
242	 3HB	830.024	228.182	-796.547	 H	15	MET15	0.024	
243	 2HG	828.945	226.005	-797.001	 H	15	MET15	0.044	
244	 3HG	828.966	226.277	-798.754	 H	15	MET15	0.044	
245	 1HE	826.393	225.536	-798.383	 H	15	MET15	0.068	
246	 2HE	826.456	225.670	-796.598	 H	15	MET15	0.068	
247	 3HE	825.189	226.537	-797.514	 H	15	MET15	0.068	
248	   N	832.880	228.769	-796.638	N.am	16	ARG16	-0.348	
249	  CA	833.874	229.834	-796.552	C.3	16	ARG16	-0.264	
250	   C	835.146	229.444	-797.267	C.2	16	ARG16	0.734	
251	   O	835.262	228.369	-797.850	O.2	16	ARG16	-0.589	
252	  CB	834.141	230.151	-795.053	C.3	16	ARG16	-0.001	
253	  CG	834.964	231.441	-794.778	C.3	16	ARG16	0.039	
254	  CD	835.212	231.659	-793.276	C.3	16	ARG16	0.049	
255	  NE	835.986	232.918	-793.073	N.pl3	16	ARG16	-0.530	
256	  CZ	836.376	233.400	-791.896	C.cat	16	ARG16	0.808	
257	 NH1	836.128	232.814	-790.758	N.pl3	16	ARG16	-0.863	
258	 NH2	837.038	234.514	-791.875	N.pl3	16	ARG16	-0.863	
259	   H	832.484	228.368	-795.800	 H	16	ARG16	0.275	
260	  HA	833.465	230.727	-797.061	 H	16	ARG16	0.156	
261	 2HB	834.639	229.275	-794.587	 H	16	ARG16	0.033	
262	 3HB	833.172	230.230	-794.520	 H	16	ARG16	0.033	
263	 2HG	834.433	232.311	-795.214	 H	16	ARG16	0.029	
264	 3HG	835.939	231.390	-795.306	 H	16	ARG16	0.029	
265	 2HD	835.762	230.784	-792.863	 H	16	ARG16	0.069	
266	 3HD	834.239	231.699	-792.742	 H	16	ARG16	0.069	
267	  HE	836.265	233.501	-793.869	 H	16	ARG16	0.346	
268	1HH1	835.603	231.940	-790.845	 H	16	ARG16	0.448	
269	2HH1	836.460	233.249	-789.896	 H	16	ARG16	0.448	
270	1HH2	837.224	234.958	-792.776	 H	16	ARG16	0.448	
271	2HH2	837.327	234.868	-790.962	 H	16	ARG16	0.448	
@<TRIPOS>BOND
1 1 2 1
2 1 10 1
3 2 3 1
4 2 5 1
5 2 11 1
6 3 4 2
7 3 16 1
8 5 6 1
9 6 7 1
10 7 8 2
11 7 9 1
12 5 12 1
13 5 13 1
14 6 14 1
15 6 15 1
16 16 17 1
17 16 24 1
18 17 18 1
19 17 20 1
20 17 25 1
21 18 19 2
22 18 30 1
23 20 21 1
24 21 22 1
25 21 23 2
26 20 26 1
27 20 27 1
28 22 28 1
29 22 29 1
30 30 31 1
31 30 36 1
32 31 32 1
33 31 34 1
34 31 37 1
35 32 33 2
36 32 44 1
37 34 35 1
38 35 36 1
39 34 38 1
40 34 39 1
41 35 40 1
42 35 41 1
43 36 42 1
44 36 43 1
45 44 45 1
46 44 53 1
47 45 46 1
48 45 48 1
49 45 54 1
50 46 47 2
51 46 59 1
52 48 49 1
53 49 50 1
54 50 51 2
55 50 52 1
56 48 55 1
57 48 56 1
58 49 57 1
59 49 58 1
60 59 60 1
61 59 68 1
62 60 61 1
63 60 63 1
64 60 69 1
65 61 62 2
66 61 76 1
67 63 64 1
68 64 65 1
69 65 66 1
70 65 67 2
71 63 70 1
72 63 71 1
73 64 72 1
74 64 73 1
75 66 74 1
76 66 75 1
77 76 77 1
78 76 84 1
79 77 78 1
80 77 80 1
81 77 85 1
82 78 79 2
83 78 95 1
84 80 81 1
85 80 82 1
86 81 83 1
87 80 86 1
88 81 87 1
89 81 88 1
90 82 89 1
91 82 90 1
92 82 91 1
93 83 92 1
94 83 93 1
95 83 94 1
96 95 96 1
97 95 103 1
98 96 97 1
99 96 99 1
100 96 104 1
101 97 98 2
102 97 114 1
103 99 100 1
104 100 101 1
105 100 102 1
106 99 105 1
107 99 106 1
108 100 107 1
109 101 108 1
110 101 109 1
111 101 110 1
112 102 111 1
113 102 112 1
114 102 113 1
115 114 115 1
116 114 122 1
117 115 116 1
118 115 118 1
119 115 123 1
120 116 117 2
121 116 126 1
122 118 119 1
123 119 120 2
124 119 121 1
125 118 124 1
126 118 125 1
127 126 127 1
128 126 135 1
129 127 128 1
130 127 130 1
131 127 136 1
132 128 129 2
133 128 141 1
134 130 131 1
135 131 132 1
136 132 133 2
137 132 134 1
138 130 137 1
139 130 138 1
140 131 139 1
141 131 140 1
142 141 142 1
143 141 151 1
144 142 143 1
145 142 145 1
146 142 152 1
147 143 144 2
148 143 158 1
149 145 146 1
150 146 147 2
151 147 150 1
152 146 148 1
153 148 149 2
154 149 150 1
155 145 153 1
156 145 154 1
157 147 155 1
158 149 156 1
159 150 157 1
160 158 159 1
161 158 165 1
162 159 160 1
163 159 162 1
164 159 166 1
165 160 161 2
166 160 174 1
167 162 163 1
168 162 164 1
169 162 167 1
170 163 168 1
171 163 169 1
172 163 170 1
173 164 171 1
174 164 172 1
175 164 173 1
176 174 175 1
177 174 183 1
178 175 176 1
179 175 178 1
180 175 184 1
181 176 177 2
182 176 191 1
183 178 179 1
184 179 180 1
185 180 181 1
186 180 182 2
187 178 185 1
188 178 186 1
189 179 187 1
190 179 188 1
191 181 189 1
192 181 190 1
193 191 192 1
194 191 202 1
195 192 193 1
196 192 195 1
197 192 203 1
198 193 194 2
199 193 215 1
200 195 196 1
201 196 197 1
202 197 198 1
203 198 199 1
204 199 200 2
205 199 201 1
206 195 204 1
207 195 205 1
208 196 206 1
209 196 207 1
210 197 208 1
211 197 209 1
212 198 210 1
213 200 211 1
214 200 212 1
215 201 213 1
216 201 214 1
217 215 216 1
218 215 222 1
219 216 217 1
220 216 219 1
221 216 223 1
222 217 218 2
223 217 231 1
224 219 220 1
225 219 221 1
226 219 224 1
227 220 225 1
228 220 226 1
229 220 227 1
230 221 228 1
231 221 229 1
232 221 230 1
233 231 232 1
234 231 239 1
235 232 233 1
236 232 235 1
237 232 240 1
238 233 234 2
239 233 248 1
240 235 236 1
241 236 237 1
242 237 238 1
243 235 241 1
244 235 242 1
245 236 243 1
246 236 244 1
247 238 245 1
248 238 246 1
249 238 247 1
250 248 249 1
251 248 259 1
252 249 250 1
253 249 252 1
254 249 260 1
255 250 251 2
256 252 253 1
257 253 254 1
258 254 255 1
259 255 256 1
260 256 257 2
261 256 258 1
262 252 261 1
263 252 262 1
264 253 263 1
265 253 264 1
266 254 265 1
267 254 266 1
268 255 267 1
269 257 268 1
270 257 269 1
271 258 270 1
272 258 271 1
@<TRIPOS>SUBSTRUCTURE
1	GLU1	1	RESIDUE	1 ****	GLU
2	ASN2	16	RESIDUE	1 ****	ASN
3	PRO3	30	RESIDUE	1 ****	PRO
4	GLU4	44	RESIDUE	1 ****	GLU
5	GLN5	59	RESIDUE	1 ****	GLN
6	ILE6	76	RESIDUE	1 ****	ILE
7	LEU7	95	RESIDUE	1 ****	LEU
8	ASP8	114	RESIDUE	1 ****	ASP
9	GLU9	126	RESIDUE	1 ****	GLU
10	HIS10	141	RESIDUE	1 ****	HIS
11	VAL11	158	RESIDUE	1 ****	VAL
12	GLN12	174	RESIDUE	1 ****	GLN
13	ARG13	191	RESIDUE	1 ****	ARG
14	VAL14	215	RESIDUE	1 ****	VAL
15	MET15	231	RESIDUE	1 ****	MET
16	ARG16	248	RESIDUE	1 ****	ARG
