REMARK WARNING: 32 MAX_TORS EXCEEDED!!!
REMARK  69 active torsions:
REMARK  status: ('A' for Active; 'I' for Inactive)
REMARK    1  A    between atoms: N_1  and  CA_2 
REMARK    2  A    between atoms: CA_2  and  C_3 
REMARK    3  A    between atoms: CA_2  and  CB_5 
REMARK       I    between atoms: C_3  and  N_11 
REMARK    4  A    between atoms: CB_5  and  CG_6 
REMARK    5  A    between atoms: CG_6  and  CD_7 
REMARK    6  A    between atoms: N_11  and  CA_12 
REMARK    7  A    between atoms: CA_12  and  C_13 
REMARK    8  A    between atoms: CA_12  and  CB_15 
REMARK       I    between atoms: C_13  and  N_22 
REMARK    9  A    between atoms: CB_15  and  CG_16 
REMARK       I    between atoms: CG_16  and  ND2_17 
REMARK   10  A    between atoms: CA_23  and  C_24 
REMARK       I    between atoms: C_24  and  N_29 
REMARK   11  A    between atoms: N_29  and  CA_30 
REMARK   12  A    between atoms: CA_30  and  C_31 
REMARK   13  A    between atoms: CA_30  and  CB_33 
REMARK       I    between atoms: C_31  and  N_39 
REMARK   14  A    between atoms: CB_33  and  CG_34 
REMARK   15  A    between atoms: CG_34  and  CD_35 
REMARK   16  A    between atoms: N_39  and  CA_40 
REMARK   17  A    between atoms: CA_40  and  C_41 
REMARK   18  A    between atoms: CA_40  and  CB_43 
REMARK       I    between atoms: C_41  and  N_47 
REMARK   19  A    between atoms: CB_43  and  OG_44 
REMARK   20  A    between atoms: N_47  and  CA_48 
REMARK   21  A    between atoms: CA_48  and  C_49 
REMARK   22  A    between atoms: CA_48  and  CB_51 
REMARK       I    between atoms: C_49  and  N_56 
REMARK   23  A    between atoms: CB_51  and  CG1_52 
REMARK   24  A    between atoms: N_56  and  CA_57 
REMARK   25  A    between atoms: CA_57  and  C_58 
REMARK   26  A    between atoms: CA_57  and  CB_60 
REMARK       I    between atoms: C_58  and  N_65 
REMARK   27  A    between atoms: CB_60  and  CG_61 
REMARK   28  A    between atoms: N_65  and  CA_66 
REMARK   29  A    between atoms: CA_66  and  C_67 
REMARK   30  A    between atoms: CA_66  and  CB_69 
REMARK       I    between atoms: C_67  and  N_74 
REMARK   31  A    between atoms: CB_69  and  CG_70 
REMARK   32  A    between atoms: N_74  and  CA_75 
REMARK   33  A    between atoms: CA_75  and  C_76 
REMARK   34  A    between atoms: CA_75  and  CB_78 
REMARK       I    between atoms: C_76  and  N_84 
REMARK   35  A    between atoms: CB_78  and  CG_79 
REMARK   36  A    between atoms: CG_79  and  CD_80 
REMARK   37  A    between atoms: N_84  and  CA_85 
REMARK   38  A    between atoms: CA_85  and  C_86 
REMARK   39  A    between atoms: CA_85  and  CB_88 
REMARK       I    between atoms: C_86  and  N_96 
REMARK   40  A    between atoms: CB_88  and  CG_89 
REMARK   41  A    between atoms: N_96  and  CA_97 
REMARK   42  A    between atoms: CA_97  and  C_98 
REMARK   43  A    between atoms: CA_97  and  CB_100 
REMARK       I    between atoms: C_98  and  N_104 
REMARK   44  A    between atoms: N_104  and  CA_105 
REMARK   45  A    between atoms: CA_105  and  C_106 
REMARK   46  A    between atoms: CA_105  and  CB_108 
REMARK       I    between atoms: C_106  and  N_116 
REMARK   47  A    between atoms: CB_108  and  CG_109 
REMARK   48  A    between atoms: CG_109  and  CD_110 
REMARK       I    between atoms: CD_110  and  NE2_111 
REMARK   49  A    between atoms: N_116  and  CA_117 
REMARK   50  A    between atoms: CA_117  and  C_118 
REMARK   51  A    between atoms: CA_117  and  CB_120 
REMARK       I    between atoms: C_118  and  N_133 
REMARK   52  A    between atoms: CB_120  and  CG_121 
REMARK   53  A    between atoms: CG_121  and  CD_122 
REMARK   54  A    between atoms: CD_122  and  NE_123 
REMARK       I    between atoms: NE_123  and  CZ_124 
REMARK       I    between atoms: CZ_124  and  NH1_125 
REMARK       I    between atoms: CZ_124  and  NH2_126 
REMARK   55  A    between atoms: N_133  and  CA_134 
REMARK   56  A    between atoms: CA_134  and  C_135 
REMARK   57  A    between atoms: CA_134  and  CB_137 
REMARK       I    between atoms: C_135  and  N_145 
REMARK   58  A    between atoms: CB_137  and  CG_138 
REMARK   59  A    between atoms: N_145  and  CA_146 
REMARK   60  A    between atoms: CA_146  and  C_147 
REMARK   61  A    between atoms: CA_146  and  CB_149 
REMARK       I    between atoms: C_147  and  N_154 
REMARK   62  A    between atoms: CB_149  and  CG_150 
REMARK   63  A    between atoms: CG_150  and  SD_151 
REMARK   64  A    between atoms: N_154  and  CA_155 
REMARK   65  A    between atoms: CA_155  and  C_156 
REMARK   66  A    between atoms: CA_155  and  CB_158 
REMARK   67  A    between atoms: CB_158  and  CG_159 
REMARK   68  A    between atoms: CG_159  and  CD_160 
REMARK   69  A    between atoms: CD_160  and  NE_161 
REMARK       I    between atoms: NE_161  and  CZ_162 
REMARK       I    between atoms: CZ_162  and  NH1_163 
ROOT
ATOM      1  C   GLU d   9    2260.808 693.217-2345.944  0.00  0.00     0.241 C 
ATOM      2  O   GLU d   9    2261.472 693.970-2346.670  0.00  0.00    -0.271 OA
ATOM      3  N   HIS d  10    2260.904 691.941-2346.113  0.00  0.00    -0.346 N 
ATOM      4  H   HIS d  10    2260.374 691.306-2345.534  0.00  0.00     0.163 HD
ENDROOT
BRANCH   3   5
ATOM      5  CA  HIS d  10    2261.792 691.429-2347.153  0.00  0.00     0.182 C 
BRANCH   5   6
ATOM      6  C   HIS d  10    2261.425 691.993-2348.504  0.00  0.00     0.241 C 
ATOM      7  O   HIS d  10    2262.277 692.457-2349.277  0.00  0.00    -0.271 OA
ATOM      8  N   VAL d  11    2260.187 691.993-2348.867  0.00  0.00    -0.346 N 
ATOM      9  H   VAL d  11    2259.474 691.621-2348.256  0.00  0.00     0.163 HD
BRANCH   8  10
ATOM     10  CA  VAL d  11    2259.832 692.538-2350.174  0.00  0.00     0.180 C 
BRANCH  10  11
ATOM     11  C   VAL d  11    2260.297 693.968-2350.308  0.00  0.00     0.241 C 
ATOM     12  O   VAL d  11    2260.898 694.373-2351.311  0.00  0.00    -0.271 OA
ATOM     13  N   GLN d  12    2260.061 694.795-2349.345  0.00  0.00    -0.346 N 
ATOM     14  H   GLN d  12    2259.572 694.489-2348.516  0.00  0.00     0.163 HD
BRANCH  13  15
ATOM     15  CA  GLN d  12    2260.510 696.177-2349.473  0.00  0.00     0.177 C 
BRANCH  15  16
ATOM     16  C   GLN d  12    2262.000 696.244-2349.712  0.00  0.00     0.241 C 
ATOM     17  O   GLN d  12    2262.487 696.951-2350.591  0.00  0.00    -0.271 OA
ATOM     18  N   ARG d  13    2262.784 695.537-2348.970  0.00  0.00    -0.346 N 
ATOM     19  H   ARG d  13    2262.408 694.948-2348.241  0.00  0.00     0.163 HD
BRANCH  18  20
ATOM     20  CA  ARG d  13    2264.224 695.602-2349.202  0.00  0.00     0.176 C 
BRANCH  20  21
ATOM     21  C   ARG d  13    2264.560 695.230-2350.626  0.00  0.00     0.241 C 
ATOM     22  O   ARG d  13    2265.329 695.901-2351.311  0.00  0.00    -0.271 OA
ATOM     23  N   HIS d  14    2264.023 694.175-2351.140  0.00  0.00    -0.346 N 
ATOM     24  H   HIS d  14    2263.388 693.607-2350.598  0.00  0.00     0.163 HD
BRANCH  23  25
ATOM     25  CA  HIS d  14    2264.348 693.815-2352.518  0.00  0.00     0.182 C 
BRANCH  25  26
ATOM     26  C   HIS d  14    2264.018 694.943-2353.465  0.00  0.00     0.241 C 
ATOM     27  O   HIS d  14    2264.814 695.323-2354.337  0.00  0.00    -0.271 OA
ATOM     28  N   MET d  15    2262.874 695.530-2353.364  0.00  0.00    -0.346 N 
ATOM     29  H   MET d  15    2262.208 695.238-2352.662  0.00  0.00     0.163 HD
BRANCH  28  30
ATOM     30  CA  MET d  15    2262.554 696.621-2354.280  0.00  0.00     0.177 C 
BRANCH  30  31
ATOM     31  C   MET d  15    2263.585 697.720-2354.194  0.00  0.00     0.241 C 
ATOM     32  O   MET d  15    2264.089 698.229-2355.207  0.00  0.00    -0.271 OA
ATOM     33  N   ARG d  16    2263.954 698.143-2353.032  0.00  0.00    -0.347 N 
ATOM     34  H   ARG d  16    2263.559 697.745-2352.192  0.00  0.00     0.163 HD
BRANCH  33  35
ATOM     35  CA  ARG d  16    2264.952 699.206-2352.950  0.00  0.00     0.162 C 
BRANCH  35  36
ATOM     36  C   ARG d  16    2266.222 698.811-2353.665  0.00  0.00     0.219 C 
ATOM     37  O   ARG d  16    2266.335 697.733-2354.245  0.00  0.00    -0.287 OA
ENDBRANCH  35  36
BRANCH  35  38
ATOM     38  CB  ARG d  16    2265.221 699.526-2351.452  0.00  0.00     0.035 C 
BRANCH  38  39
ATOM     39  CG  ARG d  16    2266.047 700.815-2351.181  0.00  0.00     0.023 C 
BRANCH  39  40
ATOM     40  CD  ARG d  16    2266.297 701.036-2349.680  0.00  0.00     0.138 C 
BRANCH  40  41
ATOM     41  NE  ARG d  16    2267.074 702.295-2349.481  0.00  0.00    -0.227 N 
ATOM     42  CZ  ARG d  16    2267.466 702.779-2348.306  0.00  0.00     0.665 C 
ATOM     43  NH1 ARG d  16    2267.217 702.196-2347.167  0.00  0.00    -0.235 N 
ATOM     44  NH2 ARG d  16    2268.130 703.891-2348.289  0.00  0.00    -0.235 N 
ATOM     45 11HH ARG d  16    2266.690 701.324-2347.250  0.00  0.00     0.174 HD
ATOM     46 12HH ARG d  16    2267.552 702.633-2346.306  0.00  0.00     0.174 HD
ATOM     47 21HH ARG d  16    2268.317 704.332-2349.191  0.00  0.00     0.174 HD
ATOM     48 22HH ARG d  16    2268.421 704.247-2347.377  0.00  0.00     0.174 HD
ATOM     49  HE  ARG d  16    2267.353 702.874-2350.279  0.00  0.00     0.177 HD
ENDBRANCH  40  41
ENDBRANCH  39  40
ENDBRANCH  38  39
ENDBRANCH  35  38
ENDBRANCH  33  35
ENDBRANCH  30  31
BRANCH  30  50
ATOM     50  CB  MET d  15    2261.133 697.169-2353.972  0.00  0.00     0.045 C 
BRANCH  50  51
ATOM     51  CG  MET d  15    2259.970 696.171-2354.162  0.00  0.00     0.076 C 
BRANCH  51  52
ATOM     52  SD  MET d  15    2258.397 697.039-2354.049  0.00  0.00    -0.173 SA
ATOM     53  CE  MET d  15    2257.315 695.610-2353.910  0.00  0.00     0.089 C 
ENDBRANCH  51  52
ENDBRANCH  50  51
ENDBRANCH  30  50
ENDBRANCH  28  30
ENDBRANCH  25  26
BRANCH  25  54
ATOM     54  CB  HIS d  14    2263.504 692.572-2352.849  0.00  0.00     0.095 C 
BRANCH  54  55
ATOM     55  CG  HIS d  14    2264.352 691.384-2353.198  0.00  0.00     0.053 A 
ATOM     56  CD2 HIS d  14    2264.787 690.468-2352.250  0.00  0.00     0.116 A 
ATOM     57  NE2 HIS d  14    2265.535 689.516-2352.893  0.00  0.00    -0.359 N 
ATOM     58  CE1 HIS d  14    2265.495 689.932-2354.188  0.00  0.00     0.207 A 
ATOM     59  2HE HIS d  14    2266.007 688.694-2352.488  0.00  0.00     0.166 HD
ATOM     60  ND1 HIS d  14    2264.802 691.049-2354.474  0.00  0.00    -0.247 NA
ENDBRANCH  54  55
ENDBRANCH  25  54
ENDBRANCH  23  25
ENDBRANCH  20  21
BRANCH  20  61
ATOM     61  CB  ARG d  13    2264.938 694.664-2348.187  0.00  0.00     0.036 C 
BRANCH  61  62
ATOM     62  CG  ARG d  13    2266.483 694.817-2348.107  0.00  0.00     0.023 C 
BRANCH  62  63
ATOM     63  CD  ARG d  13    2267.110 693.829-2347.109  0.00  0.00     0.138 C 
BRANCH  63  64
ATOM     64  NE  ARG d  13    2268.587 694.036-2347.059  0.00  0.00    -0.227 N 
ATOM     65  CZ  ARG d  13    2269.435 693.345-2346.303  0.00  0.00     0.665 C 
ATOM     66  NH1 ARG d  13    2269.070 692.381-2345.505  0.00  0.00    -0.235 N 
ATOM     67  NH2 ARG d  13    2270.695 693.644-2346.361  0.00  0.00    -0.235 N 
ATOM     68 11HH ARG d  13    2268.064 692.195-2345.508  0.00  0.00     0.174 HD
ATOM     69 12HH ARG d  13    2269.783 691.898-2344.956  0.00  0.00     0.174 HD
ATOM     70 21HH ARG d  13    2270.962 694.401-2346.992  0.00  0.00     0.174 HD
ATOM     71 22HH ARG d  13    2271.330 693.102-2345.772  0.00  0.00     0.174 HD
ATOM     72  HE  ARG d  13    2269.038 694.758-2347.630  0.00  0.00     0.177 HD
ENDBRANCH  63  64
ENDBRANCH  62  63
ENDBRANCH  61  62
ENDBRANCH  20  61
ENDBRANCH  18  20
ENDBRANCH  15  16
BRANCH  15  73
ATOM     73  CB  GLN d  12    2260.119 696.946-2348.191  0.00  0.00     0.044 C 
BRANCH  73  74
ATOM     74  CG  GLN d  12    2260.481 698.467-2348.161  0.00  0.00     0.105 C 
BRANCH  74  75
ATOM     75  CD  GLN d  12    2260.179 699.282-2346.896  0.00  0.00     0.215 C 
ATOM     76  NE2 GLN d  12    2259.612 698.706-2345.867  0.00  0.00    -0.370 N 
ATOM     77 21HE GLN d  12    2259.506 699.301-2345.044  0.00  0.00     0.159 HD
ATOM     78 22HE GLN d  12    2259.448 697.703-2345.970  0.00  0.00     0.159 HD
ATOM     79  OE1 GLN d  12    2260.482 700.463-2346.820  0.00  0.00    -0.274 OA
ENDBRANCH  74  75
ENDBRANCH  73  74
ENDBRANCH  15  73
ENDBRANCH  13  15
ENDBRANCH  10  11
BRANCH  10  80
ATOM     80  CB  VAL d  11    2258.270 692.432-2350.393  0.00  0.00     0.009 C 
ATOM     81  CG1 VAL d  11    2257.702 693.136-2351.656  0.00  0.00     0.012 C 
ATOM     82  CG2 VAL d  11    2257.745 690.978-2350.465  0.00  0.00     0.012 C 
ENDBRANCH  10  80
ENDBRANCH   8  10
ENDBRANCH   5   6
BRANCH   5  83
ATOM     83  CB  HIS d  10    2261.627 689.900-2347.147  0.00  0.00     0.095 C 
BRANCH  83  84
ATOM     84  CG  HIS d  10    2262.912 689.189-2346.839  0.00  0.00     0.053 A 
ATOM     85  CD2 HIS d  10    2263.294 688.855-2345.547  0.00  0.00     0.116 A 
ATOM     86  NE2 HIS d  10    2264.508 688.222-2345.614  0.00  0.00    -0.359 N 
ATOM     87  CE1 HIS d  10    2264.770 688.225-2346.949  0.00  0.00     0.207 A 
ATOM     88  2HE HIS d  10    2265.075 687.846-2344.840  0.00  0.00     0.166 HD
ATOM     89  ND1 HIS d  10    2263.864 688.783-2347.772  0.00  0.00    -0.247 NA
ENDBRANCH  83  84
ENDBRANCH   5  83
ENDBRANCH   3   5
BRANCH   1  90
ATOM     90  CA  GLU d   9    2259.891 693.745-2344.868  0.00  0.00     0.177 C 
BRANCH  90  91
ATOM     91  N   GLU d   9    2258.588 693.088-2344.923  0.00  0.00    -0.346 N 
ATOM     92  C   ASP d   8    2257.908 693.138-2346.018  0.00  0.00     0.241 C 
ATOM     93  O   ASP d   8    2258.381 693.742-2346.993  0.00  0.00    -0.271 OA
ATOM     94  H   GLU d   9    2258.224 692.603-2344.115  0.00  0.00     0.163 HD
BRANCH  92  95
ATOM     95  CA  ASP d   8    2256.561 692.459-2346.074  0.00  0.00     0.186 C 
BRANCH  95  96
ATOM     96  N   ASP d   8    2256.630 691.110-2345.521  0.00  0.00    -0.346 N 
ATOM     97  C   LEU d   7    2257.467 690.268-2346.026  0.00  0.00     0.241 C 
ATOM     98  O   LEU d   7    2258.188 690.630-2346.969  0.00  0.00    -0.271 OA
ATOM     99  H   ASP d   8    2256.032 690.839-2344.753  0.00  0.00     0.163 HD
BRANCH  97 100
ATOM    100  CA  LEU d   7    2257.539 688.873-2345.453  0.00  0.00     0.177 C 
BRANCH 100 101
ATOM    101  N   LEU d   7    2257.594 688.909-2343.995  0.00  0.00    -0.346 N 
ATOM    102  C   ILE d   6    2258.540 689.572-2343.421  0.00  0.00     0.241 C 
ATOM    103  O   ILE d   6    2259.375 690.160-2344.125  0.00  0.00    -0.271 OA
ATOM    104  H   LEU d   7    2256.902 688.422-2343.444  0.00  0.00     0.163 HD
BRANCH 102 105
ATOM    105  CA  ILE d   6    2258.597 689.610-2341.914  0.00  0.00     0.180 C 
BRANCH 105 106
ATOM    106  N   ILE d   6    2257.284 689.905-2341.348  0.00  0.00    -0.346 N 
ATOM    107  C   SER d   5    2256.680 690.989-2341.702  0.00  0.00     0.243 C 
ATOM    108  O   SER d   5    2257.228 691.742-2342.507  0.00  0.00    -0.271 OA
ATOM    109  H   ILE d   6    2256.855 689.271-2340.689  0.00  0.00     0.163 HD
BRANCH 107 110
ATOM    110  CA  SER d   5    2255.321 691.295-2341.117  0.00  0.00     0.200 C 
BRANCH 110 111
ATOM    111  N   SER d   5    2254.451 690.124-2341.176  0.00  0.00    -0.344 N 
ATOM    112  C   GLU d   4    2254.224 689.571-2342.319  0.00  0.00     0.241 C 
ATOM    113  O   GLU d   4    2254.751 690.051-2343.333  0.00  0.00    -0.271 OA
ATOM    114  H   SER d   5    2254.034 689.752-2340.334  0.00  0.00     0.163 HD
BRANCH 112 115
ATOM    115  CA  GLU d   4    2253.325 688.360-2342.380  0.00  0.00     0.177 C 
BRANCH 115 116
ATOM    116  N   GLU d   4    2253.684 687.389-2341.351  0.00  0.00    -0.346 N 
ATOM    117  C   PRO d   3    2254.889 686.929-2341.318  0.00  0.00     0.241 C 
ATOM    118  O   PRO d   3    2255.712 687.312-2342.149  0.00  0.00    -0.271 OA
ATOM    119  H   GLU d   4    2253.000 687.083-2340.674  0.00  0.00     0.163 HD
BRANCH 117 120
ATOM    120  CA  PRO d   3    2255.287 685.905-2340.241  0.00  0.00     0.179 C 
ATOM    121  N   PRO d   3    2254.834 686.315-2338.919  0.00  0.00    -0.337 N 
ATOM    122  C   ASN d   2    2255.356 687.310-2338.285  0.00  0.00     0.243 C 
ATOM    123  CD  PRO d   3    2253.756 685.522-2338.371  0.00  0.00     0.127 C 
ATOM    124  O   ASN d   2    2256.271 687.940-2338.813  0.00  0.00    -0.271 OA
ATOM    125  CG  PRO d   3    2253.299 684.703-2339.581  0.00  0.00     0.022 C 
ATOM    126  CB  PRO d   3    2254.582 684.551-2340.410  0.00  0.00     0.037 C 
BRANCH 122 127
ATOM    127  CA  ASN d   2    2254.824 687.665-2336.917  0.00  0.00     0.185 C 
BRANCH 127 128
ATOM    128  N   ASN d   2    2253.365 687.704-2336.917  0.00  0.00    -0.346 N 
ATOM    129  C   GLU d   1    2252.761 688.490-2337.742  0.00  0.00     0.242 C 
ATOM    130  O   GLU d   1    2253.437 689.189-2338.510  0.00  0.00    -0.271 OA
ATOM    131  H   ASN d   2    2252.837 687.125-2336.280  0.00  0.00     0.163 HD
BRANCH 129 132
ATOM    132  CA  GLU d   1    2251.252 688.530-2337.742  0.00  0.00     0.191 C 
BRANCH 132 133
ATOM    133  N   GLU d   1    2250.693 687.181-2337.742  0.00  0.00    -0.326 NA
ATOM    134  H   GLU d   1    2251.320 686.302-2337.742  0.00  0.00     0.180 HD
ENDBRANCH 132 133
BRANCH 132 135
ATOM    135  CB  GLU d   1    2250.729 689.315-2336.505  0.00  0.00     0.047 C 
BRANCH 135 136
ATOM    136  CG  GLU d   1    2251.204 690.800-2336.394  0.00  0.00     0.116 C 
BRANCH 136 137
ATOM    137  CD  GLU d   1    2250.780 691.604-2335.179  0.00  0.00     0.172 C 
ATOM    138  OE1 GLU d   1    2250.052 691.102-2334.301  0.00  0.00    -0.648 OA
ATOM    139  OE2 GLU d   1    2251.210 692.774-2335.107  0.00  0.00    -0.648 OA
ENDBRANCH 136 137
ENDBRANCH 135 136
ENDBRANCH 132 135
ENDBRANCH 129 132
ENDBRANCH 127 128
BRANCH 127 140
ATOM    140  CB  ASN d   2    2255.316 686.642-2335.852  0.00  0.00     0.137 C 
BRANCH 140 141
ATOM    141  CG  ASN d   2    2254.853 686.866-2334.409  0.00  0.00     0.217 C 
ATOM    142  ND2 ASN d   2    2255.447 687.781-2333.690  0.00  0.00    -0.370 N 
ATOM    143 21HD ASN d   2    2254.966 687.954-2332.804  0.00  0.00     0.159 HD
ATOM    144 22HD ASN d   2    2256.149 688.353-2334.159  0.00  0.00     0.159 HD
ATOM    145  OD1 ASN d   2    2253.932 686.233-2333.915  0.00  0.00    -0.274 OA
ENDBRANCH 140 141
ENDBRANCH 127 140
ENDBRANCH 122 127
ENDBRANCH 117 120
ENDBRANCH 115 116
BRANCH 115 146
ATOM    146  CB  GLU d   4    2251.836 688.780-2342.211  0.00  0.00     0.045 C 
BRANCH 146 147
ATOM    147  CG  GLU d   4    2251.289 689.783-2343.276  0.00  0.00     0.116 C 
BRANCH 147 148
ATOM    148  CD  GLU d   4    2249.863 690.280-2343.133  0.00  0.00     0.172 C 
ATOM    149  OE1 GLU d   4    2249.136 689.882-2342.203  0.00  0.00    -0.648 OA
ATOM    150  OE2 GLU d   4    2249.474 691.109-2343.982  0.00  0.00    -0.648 OA
ENDBRANCH 147 148
ENDBRANCH 146 147
ENDBRANCH 115 146
ENDBRANCH 112 115
ENDBRANCH 110 111
BRANCH 110 151
ATOM    151  CB  SER d   5    2255.432 691.827-2339.666  0.00  0.00     0.199 C 
BRANCH 151 152
ATOM    152  OG  SER d   5    2256.163 690.947-2338.805  0.00  0.00    -0.398 OA
ATOM    153  HG  SER d   5    2255.674 690.123-2338.754  0.00  0.00     0.209 HD
ENDBRANCH 151 152
ENDBRANCH 110 151
ENDBRANCH 107 110
ENDBRANCH 105 106
BRANCH 105 154
ATOM    154  CB  ILE d   6    2259.197 688.274-2341.313  0.00  0.00     0.013 C 
ATOM    155  CG2 ILE d   6    2260.638 687.971-2341.828  0.00  0.00     0.012 C 
BRANCH 154 156
ATOM    156  CG1 ILE d   6    2259.215 688.211-2339.752  0.00  0.00     0.002 C 
ATOM    157  CD1 ILE d   6    2259.485 686.822-2339.137  0.00  0.00     0.005 C 
ENDBRANCH 154 156
ENDBRANCH 105 154
ENDBRANCH 102 105
ENDBRANCH 100 101
BRANCH 100 158
ATOM    158  CB  LEU d   7    2256.336 688.013-2345.934  0.00  0.00     0.038 C 
BRANCH 158 159
ATOM    159  CG  LEU d   7    2256.263 686.534-2345.467  0.00  0.00    -0.020 C 
ATOM    160  CD1 LEU d   7    2255.073 685.828-2346.133  0.00  0.00     0.009 C 
ATOM    161  CD2 LEU d   7    2257.556 685.754-2345.759  0.00  0.00     0.009 C 
ENDBRANCH 158 159
ENDBRANCH 100 158
ENDBRANCH  97 100
ENDBRANCH  95  96
BRANCH  95 162
ATOM    162  CB  ASP d   8    2255.483 693.299-2345.333  0.00  0.00     0.147 C 
BRANCH 162 163
ATOM    163  CG  ASP d   8    2255.265 694.719-2345.875  0.00  0.00     0.175 C 
ATOM    164  OD1 ASP d   8    2255.329 694.918-2347.106  0.00  0.00    -0.648 OA
ATOM    165  OD2 ASP d   8    2255.073 695.646-2345.060  0.00  0.00    -0.648 OA
ENDBRANCH 162 163
ENDBRANCH  95 162
ENDBRANCH  92  95
ENDBRANCH  90  91
BRANCH  90 166
ATOM    166  CB  GLU d   9    2260.524 693.538-2343.463  0.00  0.00     0.045 C 
BRANCH 166 167
ATOM    167  CG  GLU d   9    2261.907 694.230-2343.234  0.00  0.00     0.116 C 
BRANCH 167 168
ATOM    168  CD  GLU d   9    2262.609 694.017-2341.906  0.00  0.00     0.172 C 
ATOM    169  OE1 GLU d   9    2262.088 693.327-2341.009  0.00  0.00    -0.648 OA
ATOM    170  OE2 GLU d   9    2263.729 694.554-2341.774  0.00  0.00    -0.648 OA
ENDBRANCH 167 168
ENDBRANCH 166 167
ENDBRANCH  90 166
ENDBRANCH   1  90
TORSDOF 69
