REMARK WARNING: 32 MAX_TORS EXCEEDED!!!
REMARK  66 active torsions:
REMARK  status: ('A' for Active; 'I' for Inactive)
REMARK    1  A    between atoms: N_1  and  CA_2 
REMARK    2  A    between atoms: CA_2  and  C_3 
REMARK    3  A    between atoms: CA_2  and  CB_5 
REMARK       I    between atoms: C_3  and  N_11 
REMARK    4  A    between atoms: CB_5  and  CG_6 
REMARK    5  A    between atoms: CG_6  and  CD_7 
REMARK    6  A    between atoms: N_11  and  CA_12 
REMARK    7  A    between atoms: CA_12  and  C_13 
REMARK    8  A    between atoms: CA_12  and  CB_15 
REMARK       I    between atoms: C_13  and  N_22 
REMARK    9  A    between atoms: CB_15  and  CG_16 
REMARK       I    between atoms: CG_16  and  ND2_17 
REMARK   10  A    between atoms: CA_23  and  C_24 
REMARK       I    between atoms: C_24  and  N_29 
REMARK   11  A    between atoms: N_29  and  CA_30 
REMARK   12  A    between atoms: CA_30  and  C_31 
REMARK   13  A    between atoms: CA_30  and  CB_33 
REMARK       I    between atoms: C_31  and  N_39 
REMARK   14  A    between atoms: CB_33  and  CG_34 
REMARK   15  A    between atoms: CG_34  and  CD_35 
REMARK   16  A    between atoms: N_39  and  CA_40 
REMARK   17  A    between atoms: CA_40  and  C_41 
REMARK   18  A    between atoms: CA_40  and  CB_43 
REMARK       I    between atoms: C_41  and  N_47 
REMARK   19  A    between atoms: CB_43  and  OG_44 
REMARK   20  A    between atoms: N_47  and  CA_48 
REMARK   21  A    between atoms: CA_48  and  C_49 
REMARK   22  A    between atoms: CA_48  and  CB_51 
REMARK       I    between atoms: C_49  and  N_56 
REMARK   23  A    between atoms: CB_51  and  CG1_52 
REMARK   24  A    between atoms: N_56  and  CA_57 
REMARK   25  A    between atoms: CA_57  and  C_58 
REMARK   26  A    between atoms: CA_57  and  CB_60 
REMARK       I    between atoms: C_58  and  N_65 
REMARK   27  A    between atoms: CB_60  and  CG_61 
REMARK   28  A    between atoms: N_65  and  CA_66 
REMARK   29  A    between atoms: CA_66  and  C_67 
REMARK   30  A    between atoms: CA_66  and  CB_69 
REMARK       I    between atoms: C_67  and  N_74 
REMARK   31  A    between atoms: CB_69  and  CG_70 
REMARK   32  A    between atoms: N_74  and  CA_75 
REMARK   33  A    between atoms: CA_75  and  C_76 
REMARK   34  A    between atoms: CA_75  and  CB_78 
REMARK       I    between atoms: C_76  and  N_84 
REMARK   35  A    between atoms: CB_78  and  CG_79 
REMARK   36  A    between atoms: CG_79  and  CD_80 
REMARK   37  A    between atoms: N_84  and  CA_85 
REMARK   38  A    between atoms: CA_85  and  C_86 
REMARK   39  A    between atoms: CA_85  and  CB_88 
REMARK       I    between atoms: C_86  and  N_96 
REMARK   40  A    between atoms: CB_88  and  CG_89 
REMARK   41  A    between atoms: N_96  and  CA_97 
REMARK   42  A    between atoms: CA_97  and  C_98 
REMARK   43  A    between atoms: CA_97  and  CB_100 
REMARK       I    between atoms: C_98  and  N_104 
REMARK   44  A    between atoms: N_104  and  CA_105 
REMARK   45  A    between atoms: CA_105  and  C_106 
REMARK   46  A    between atoms: CA_105  and  CB_108 
REMARK       I    between atoms: C_106  and  N_116 
REMARK   47  A    between atoms: CB_108  and  CG_109 
REMARK   48  A    between atoms: CG_109  and  CD_110 
REMARK       I    between atoms: CD_110  and  NE2_111 
REMARK   49  A    between atoms: N_116  and  CA_117 
REMARK   50  A    between atoms: CA_117  and  C_118 
REMARK   51  A    between atoms: CA_117  and  CB_120 
REMARK       I    between atoms: C_118  and  N_133 
REMARK   52  A    between atoms: CB_120  and  CG_121 
REMARK   53  A    between atoms: CG_121  and  CD_122 
REMARK   54  A    between atoms: CD_122  and  NE_123 
REMARK       I    between atoms: NE_123  and  CZ_124 
REMARK       I    between atoms: CZ_124  and  NH1_125 
REMARK   55  A    between atoms: N_133  and  CA_134 
REMARK   56  A    between atoms: CA_134  and  C_135 
REMARK   57  A    between atoms: CA_134  and  CB_137 
REMARK       I    between atoms: C_135  and  N_141 
REMARK   58  A    between atoms: N_141  and  CA_142 
REMARK   59  A    between atoms: CA_142  and  C_143 
REMARK   60  A    between atoms: CA_142  and  CB_145 
REMARK       I    between atoms: C_143  and  N_150 
REMARK   61  A    between atoms: CB_145  and  CG_146 
REMARK   62  A    between atoms: CG_146  and  SD_147 
REMARK   63  A    between atoms: N_150  and  CA_151 
REMARK   64  A    between atoms: CA_151  and  C_152 
REMARK   65  A    between atoms: CA_151  and  CB_154 
REMARK   66  A    between atoms: CB_154  and  CG_155 
ROOT
ATOM      1  CA  GLU d   9    2587.107 797.571-2700.090  0.00  0.00     0.177 C 
ENDROOT
BRANCH   1   2
ATOM      2  N   GLU d   9    2585.803 796.914-2700.144  0.00  0.00    -0.346 N 
ATOM      3  C   ASP d   8    2585.124 796.964-2701.240  0.00  0.00     0.241 C 
ATOM      4  O   ASP d   8    2585.596 797.568-2702.215  0.00  0.00    -0.271 OA
ATOM      5  H   GLU d   9    2585.440 796.428-2699.337  0.00  0.00     0.163 HD
BRANCH   3   6
ATOM      6  CA  ASP d   8    2583.776 796.284-2701.296  0.00  0.00     0.186 C 
BRANCH   6   7
ATOM      7  N   ASP d   8    2583.846 794.935-2700.742  0.00  0.00    -0.346 N 
ATOM      8  C   LEU d   7    2584.683 794.094-2701.248  0.00  0.00     0.241 C 
ATOM      9  O   LEU d   7    2585.404 794.456-2702.190  0.00  0.00    -0.271 OA
ATOM     10  H   ASP d   8    2583.248 794.665-2699.974  0.00  0.00     0.163 HD
BRANCH   8  11
ATOM     11  CA  LEU d   7    2584.755 792.699-2700.675  0.00  0.00     0.177 C 
BRANCH  11  12
ATOM     12  N   LEU d   7    2584.810 792.735-2699.217  0.00  0.00    -0.346 N 
ATOM     13  C   ILE d   6    2585.756 793.398-2698.643  0.00  0.00     0.241 C 
ATOM     14  O   ILE d   6    2586.591 793.985-2699.347  0.00  0.00    -0.271 OA
ATOM     15  H   LEU d   7    2584.118 792.248-2698.665  0.00  0.00     0.163 HD
BRANCH  13  16
ATOM     16  CA  ILE d   6    2585.813 793.436-2697.135  0.00  0.00     0.180 C 
BRANCH  16  17
ATOM     17  N   ILE d   6    2584.500 793.731-2696.569  0.00  0.00    -0.346 N 
ATOM     18  C   SER d   5    2583.896 794.814-2696.924  0.00  0.00     0.243 C 
ATOM     19  O   SER d   5    2584.444 795.568-2697.728  0.00  0.00    -0.271 OA
ATOM     20  H   ILE d   6    2584.071 793.097-2695.911  0.00  0.00     0.163 HD
BRANCH  18  21
ATOM     21  CA  SER d   5    2582.537 795.120-2696.338  0.00  0.00     0.200 C 
BRANCH  21  22
ATOM     22  N   SER d   5    2581.667 793.949-2696.397  0.00  0.00    -0.344 N 
ATOM     23  C   GLU d   4    2581.440 793.397-2697.541  0.00  0.00     0.241 C 
ATOM     24  O   GLU d   4    2581.967 793.876-2698.555  0.00  0.00    -0.271 OA
ATOM     25  H   SER d   5    2581.250 793.578-2695.556  0.00  0.00     0.163 HD
BRANCH  23  26
ATOM     26  CA  GLU d   4    2580.541 792.186-2697.602  0.00  0.00     0.177 C 
BRANCH  26  27
ATOM     27  N   GLU d   4    2580.900 791.215-2696.572  0.00  0.00    -0.346 N 
ATOM     28  C   PRO d   3    2582.105 790.755-2696.540  0.00  0.00     0.241 C 
ATOM     29  O   PRO d   3    2582.928 791.138-2697.371  0.00  0.00    -0.271 OA
ATOM     30  H   GLU d   4    2580.215 790.909-2695.896  0.00  0.00     0.163 HD
BRANCH  28  31
ATOM     31  CA  PRO d   3    2582.502 789.731-2695.462  0.00  0.00     0.179 C 
ATOM     32  N   PRO d   3    2582.050 790.141-2694.141  0.00  0.00    -0.337 N 
ATOM     33  C   ASN d   2    2582.572 791.135-2693.507  0.00  0.00     0.243 C 
ATOM     34  CD  PRO d   3    2580.972 789.348-2693.592  0.00  0.00     0.127 C 
ATOM     35  O   ASN d   2    2583.487 791.766-2694.035  0.00  0.00    -0.271 OA
ATOM     36  CG  PRO d   3    2580.514 788.529-2694.802  0.00  0.00     0.022 C 
ATOM     37  CB  PRO d   3    2581.798 788.377-2695.632  0.00  0.00     0.037 C 
BRANCH  33  38
ATOM     38  CA  ASN d   2    2582.040 791.491-2692.138  0.00  0.00     0.185 C 
BRANCH  38  39
ATOM     39  N   ASN d   2    2580.581 791.530-2692.138  0.00  0.00    -0.346 N 
ATOM     40  C   GLU d   1    2579.977 792.316-2692.964  0.00  0.00     0.242 C 
ATOM     41  O   GLU d   1    2580.652 793.015-2693.732  0.00  0.00    -0.271 OA
ATOM     42  H   ASN d   2    2580.053 790.950-2691.502  0.00  0.00     0.163 HD
BRANCH  40  43
ATOM     43  CA  GLU d   1    2578.468 792.356-2692.964  0.00  0.00     0.191 C 
BRANCH  43  44
ATOM     44  N   GLU d   1    2577.908 791.007-2692.964  0.00  0.00    -0.326 NA
ATOM     45  H   GLU d   1    2578.535 790.128-2692.964  0.00  0.00     0.180 HD
ENDBRANCH  43  44
BRANCH  43  46
ATOM     46  CB  GLU d   1    2577.944 793.141-2691.727  0.00  0.00     0.047 C 
BRANCH  46  47
ATOM     47  CG  GLU d   1    2578.419 794.626-2691.616  0.00  0.00     0.116 C 
BRANCH  47  48
ATOM     48  CD  GLU d   1    2577.995 795.430-2690.401  0.00  0.00     0.172 C 
ATOM     49  OE1 GLU d   1    2577.267 794.928-2689.523  0.00  0.00    -0.648 OA
ATOM     50  OE2 GLU d   1    2578.426 796.600-2690.329  0.00  0.00    -0.648 OA
ENDBRANCH  47  48
ENDBRANCH  46  47
ENDBRANCH  43  46
ENDBRANCH  40  43
ENDBRANCH  38  39
BRANCH  38  51
ATOM     51  CB  ASN d   2    2582.532 790.468-2691.074  0.00  0.00     0.137 C 
BRANCH  51  52
ATOM     52  CG  ASN d   2    2582.069 790.692-2689.631  0.00  0.00     0.217 C 
ATOM     53  ND2 ASN d   2    2582.663 791.607-2688.912  0.00  0.00    -0.370 N 
ATOM     54 21HD ASN d   2    2582.182 791.780-2688.026  0.00  0.00     0.159 HD
ATOM     55 22HD ASN d   2    2583.365 792.178-2689.381  0.00  0.00     0.159 HD
ATOM     56  OD1 ASN d   2    2581.147 790.058-2689.136  0.00  0.00    -0.274 OA
ENDBRANCH  51  52
ENDBRANCH  38  51
ENDBRANCH  33  38
ENDBRANCH  28  31
ENDBRANCH  26  27
BRANCH  26  57
ATOM     57  CB  GLU d   4    2579.052 792.605-2697.432  0.00  0.00     0.045 C 
BRANCH  57  58
ATOM     58  CG  GLU d   4    2578.505 793.609-2698.498  0.00  0.00     0.116 C 
BRANCH  58  59
ATOM     59  CD  GLU d   4    2577.078 794.106-2698.355  0.00  0.00     0.172 C 
ATOM     60  OE1 GLU d   4    2576.352 793.708-2697.425  0.00  0.00    -0.648 OA
ATOM     61  OE2 GLU d   4    2576.689 794.935-2699.204  0.00  0.00    -0.648 OA
ENDBRANCH  58  59
ENDBRANCH  57  58
ENDBRANCH  26  57
ENDBRANCH  23  26
ENDBRANCH  21  22
BRANCH  21  62
ATOM     62  CB  SER d   5    2582.648 795.653-2694.888  0.00  0.00     0.199 C 
BRANCH  62  63
ATOM     63  OG  SER d   5    2583.379 794.773-2694.027  0.00  0.00    -0.398 OA
ATOM     64  HG  SER d   5    2582.890 793.948-2693.976  0.00  0.00     0.209 HD
ENDBRANCH  62  63
ENDBRANCH  21  62
ENDBRANCH  18  21
ENDBRANCH  16  17
BRANCH  16  65
ATOM     65  CB  ILE d   6    2586.412 792.099-2696.535  0.00  0.00     0.013 C 
ATOM     66  CG2 ILE d   6    2587.854 791.797-2697.050  0.00  0.00     0.012 C 
BRANCH  65  67
ATOM     67  CG1 ILE d   6    2586.431 792.037-2694.974  0.00  0.00     0.002 C 
ATOM     68  CD1 ILE d   6    2586.701 790.648-2694.359  0.00  0.00     0.005 C 
ENDBRANCH  65  67
ENDBRANCH  16  65
ENDBRANCH  13  16
ENDBRANCH  11  12
BRANCH  11  69
ATOM     69  CB  LEU d   7    2583.552 791.839-2701.156  0.00  0.00     0.038 C 
BRANCH  69  70
ATOM     70  CG  LEU d   7    2583.479 790.359-2700.689  0.00  0.00    -0.020 C 
ATOM     71  CD1 LEU d   7    2582.289 789.654-2701.354  0.00  0.00     0.009 C 
ATOM     72  CD2 LEU d   7    2584.772 789.580-2700.980  0.00  0.00     0.009 C 
ENDBRANCH  69  70
ENDBRANCH  11  69
ENDBRANCH   8  11
ENDBRANCH   6   7
BRANCH   6  73
ATOM     73  CB  ASP d   8    2582.699 797.124-2700.555  0.00  0.00     0.147 C 
BRANCH  73  74
ATOM     74  CG  ASP d   8    2582.481 798.545-2701.096  0.00  0.00     0.175 C 
ATOM     75  OD1 ASP d   8    2582.545 798.743-2702.327  0.00  0.00    -0.648 OA
ATOM     76  OD2 ASP d   8    2582.289 799.471-2700.282  0.00  0.00    -0.648 OA
ENDBRANCH  73  74
ENDBRANCH   6  73
ENDBRANCH   3   6
ENDBRANCH   1   2
BRANCH   1  77
ATOM     77  C   GLU d   9    2588.024 797.042-2701.166  0.00  0.00     0.241 C 
ATOM     78  O   GLU d   9    2588.688 797.796-2701.892  0.00  0.00    -0.271 OA
ATOM     79  N   HIS d  10    2588.120 795.767-2701.334  0.00  0.00    -0.346 N 
ATOM     80  H   HIS d  10    2587.589 795.132-2700.755  0.00  0.00     0.163 HD
BRANCH  79  81
ATOM     81  CA  HIS d  10    2589.007 795.255-2702.375  0.00  0.00     0.182 C 
BRANCH  81  82
ATOM     82  C   HIS d  10    2588.640 795.819-2703.726  0.00  0.00     0.241 C 
ATOM     83  O   HIS d  10    2589.493 796.283-2704.498  0.00  0.00    -0.271 OA
ATOM     84  N   VAL d  11    2587.403 795.818-2704.089  0.00  0.00    -0.346 N 
ATOM     85  H   VAL d  11    2586.689 795.446-2703.478  0.00  0.00     0.163 HD
BRANCH  84  86
ATOM     86  CA  VAL d  11    2587.047 796.364-2705.396  0.00  0.00     0.180 C 
BRANCH  86  87
ATOM     87  C   VAL d  11    2587.513 797.794-2705.529  0.00  0.00     0.241 C 
ATOM     88  O   VAL d  11    2588.114 798.198-2706.532  0.00  0.00    -0.271 OA
ATOM     89  N   GLN d  12    2587.276 798.620-2704.567  0.00  0.00    -0.346 N 
ATOM     90  H   GLN d  12    2586.788 798.315-2703.738  0.00  0.00     0.163 HD
BRANCH  89  91
ATOM     91  CA  GLN d  12    2587.726 800.003-2704.695  0.00  0.00     0.177 C 
BRANCH  91  92
ATOM     92  C   GLN d  12    2589.215 800.070-2704.933  0.00  0.00     0.241 C 
ATOM     93  O   GLN d  12    2589.703 800.777-2705.812  0.00  0.00    -0.271 OA
ATOM     94  N   ARG d  13    2590.000 799.363-2704.192  0.00  0.00    -0.346 N 
ATOM     95  H   ARG d  13    2589.624 798.774-2703.463  0.00  0.00     0.163 HD
BRANCH  94  96
ATOM     96  CA  ARG d  13    2591.440 799.428-2704.423  0.00  0.00     0.176 C 
BRANCH  96  97
ATOM     97  C   ARG d  13    2591.776 799.055-2705.848  0.00  0.00     0.241 C 
ATOM     98  O   ARG d  13    2592.545 799.727-2706.533  0.00  0.00    -0.271 OA
ATOM     99  N   VAL d  14    2591.239 798.001-2706.362  0.00  0.00    -0.346 N 
ATOM    100  H   VAL d  14    2590.604 797.433-2705.819  0.00  0.00     0.163 HD
BRANCH  99 101
ATOM    101  CA  VAL d  14    2591.564 797.641-2707.739  0.00  0.00     0.180 C 
BRANCH 101 102
ATOM    102  C   VAL d  14    2591.234 798.770-2708.685  0.00  0.00     0.241 C 
ATOM    103  O   VAL d  14    2592.027 799.151-2709.555  0.00  0.00    -0.271 OA
ATOM    104  N   MET d  15    2590.089 799.356-2708.583  0.00  0.00    -0.346 N 
ATOM    105  H   MET d  15    2589.424 799.064-2707.882  0.00  0.00     0.163 HD
BRANCH 104 106
ATOM    106  CA  MET d  15    2589.769 800.449-2709.498  0.00  0.00     0.177 C 
BRANCH 106 107
ATOM    107  C   MET d  15    2590.799 801.549-2709.410  0.00  0.00     0.241 C 
ATOM    108  O   MET d  15    2591.302 802.059-2710.423  0.00  0.00    -0.271 OA
ATOM    109  N   HIS d  16    2591.168 801.970-2708.248  0.00  0.00    -0.347 N 
ATOM    110  H   HIS d  16    2590.773 801.570-2707.409  0.00  0.00     0.163 HD
BRANCH 109 111
ATOM    111  CA  HIS d  16    2592.165 803.034-2708.164  0.00  0.00     0.168 C 
BRANCH 111 112
ATOM    112  C   HIS d  16    2593.436 802.644-2708.878  0.00  0.00     0.219 C 
ATOM    113  O   HIS d  16    2593.561 801.548-2709.446  0.00  0.00    -0.287 OA
ENDBRANCH 111 112
BRANCH 111 114
ATOM    114  CB  HIS d  16    2592.438 803.253-2706.666  0.00  0.00     0.094 C 
BRANCH 114 115
ATOM    115  CG  HIS d  16    2592.100 804.647-2706.224  0.00  0.00     0.053 A 
ATOM    116  CD2 HIS d  16    2590.846 804.999-2705.742  0.00  0.00     0.116 A 
ATOM    117  NE2 HIS d  16    2590.871 806.333-2705.430  0.00  0.00    -0.359 N 
ATOM    118  CE1 HIS d  16    2592.145 806.689-2705.750  0.00  0.00     0.207 A 
ATOM    119  2HE HIS d  16    2590.110 806.915-2705.051  0.00  0.00     0.166 HD
ATOM    120  ND1 HIS d  16    2592.966 805.739-2706.234  0.00  0.00    -0.247 NA
ENDBRANCH 114 115
ENDBRANCH 111 114
ENDBRANCH 109 111
ENDBRANCH 106 107
BRANCH 106 121
ATOM    121  CB  MET d  15    2588.348 800.995-2709.188  0.00  0.00     0.045 C 
BRANCH 121 122
ATOM    122  CG  MET d  15    2587.185 799.997-2709.379  0.00  0.00     0.076 C 
BRANCH 122 123
ATOM    123  SD  MET d  15    2585.612 800.863-2709.265  0.00  0.00    -0.173 SA
ATOM    124  CE  MET d  15    2584.531 799.434-2709.128  0.00  0.00     0.089 C 
ENDBRANCH 122 123
ENDBRANCH 121 122
ENDBRANCH 106 121
ENDBRANCH 104 106
ENDBRANCH 101 102
BRANCH 101 125
ATOM    125  CB  VAL d  14    2590.791 796.324-2708.145  0.00  0.00     0.009 C 
ATOM    126  CG1 VAL d  14    2590.879 795.904-2709.639  0.00  0.00     0.012 C 
ATOM    127  CG2 VAL d  14    2591.222 795.072-2707.344  0.00  0.00     0.012 C 
ENDBRANCH 101 125
ENDBRANCH  99 101
ENDBRANCH  96  97
BRANCH  96 128
ATOM    128  CB  ARG d  13    2592.153 798.490-2703.409  0.00  0.00     0.036 C 
BRANCH 128 129
ATOM    129  CG  ARG d  13    2593.698 798.642-2703.329  0.00  0.00     0.023 C 
BRANCH 129 130
ATOM    130  CD  ARG d  13    2594.325 797.655-2702.330  0.00  0.00     0.138 C 
BRANCH 130 131
ATOM    131  NE  ARG d  13    2595.802 797.862-2702.280  0.00  0.00    -0.227 N 
ATOM    132  CZ  ARG d  13    2596.651 797.171-2701.525  0.00  0.00     0.665 C 
ATOM    133  NH1 ARG d  13    2596.286 796.207-2700.727  0.00  0.00    -0.235 N 
ATOM    134  NH2 ARG d  13    2597.910 797.469-2701.582  0.00  0.00    -0.235 N 
ATOM    135 11HH ARG d  13    2595.280 796.021-2700.729  0.00  0.00     0.174 HD
ATOM    136 12HH ARG d  13    2596.999 795.724-2700.178  0.00  0.00     0.174 HD
ATOM    137 21HH ARG d  13    2598.178 798.227-2702.214  0.00  0.00     0.174 HD
ATOM    138 22HH ARG d  13    2598.546 796.928-2700.994  0.00  0.00     0.174 HD
ATOM    139  HE  ARG d  13    2596.254 798.584-2702.852  0.00  0.00     0.177 HD
ENDBRANCH 130 131
ENDBRANCH 129 130
ENDBRANCH 128 129
ENDBRANCH  96 128
ENDBRANCH  94  96
ENDBRANCH  91  92
BRANCH  91 140
ATOM    140  CB  GLN d  12    2587.335 800.771-2703.413  0.00  0.00     0.044 C 
BRANCH 140 141
ATOM    141  CG  GLN d  12    2587.697 802.293-2703.383  0.00  0.00     0.105 C 
BRANCH 141 142
ATOM    142  CD  GLN d  12    2587.395 803.107-2702.118  0.00  0.00     0.215 C 
ATOM    143  NE2 GLN d  12    2586.828 802.532-2701.089  0.00  0.00    -0.370 N 
ATOM    144 21HE GLN d  12    2586.721 803.127-2700.266  0.00  0.00     0.159 HD
ATOM    145 22HE GLN d  12    2586.664 801.528-2701.192  0.00  0.00     0.159 HD
ATOM    146  OE1 GLN d  12    2587.698 804.288-2702.041  0.00  0.00    -0.274 OA
ENDBRANCH 141 142
ENDBRANCH 140 141
ENDBRANCH  91 140
ENDBRANCH  89  91
ENDBRANCH  86  87
BRANCH  86 147
ATOM    147  CB  VAL d  11    2585.486 796.258-2705.615  0.00  0.00     0.009 C 
ATOM    148  CG1 VAL d  11    2584.918 796.961-2706.878  0.00  0.00     0.012 C 
ATOM    149  CG2 VAL d  11    2584.961 794.804-2705.687  0.00  0.00     0.012 C 
ENDBRANCH  86 147
ENDBRANCH  84  86
ENDBRANCH  81  82
BRANCH  81 150
ATOM    150  CB  HIS d  10    2588.843 793.726-2702.369  0.00  0.00     0.095 C 
BRANCH 150 151
ATOM    151  CG  HIS d  10    2590.128 793.015-2702.061  0.00  0.00     0.053 A 
ATOM    152  CD2 HIS d  10    2590.510 792.681-2700.769  0.00  0.00     0.116 A 
ATOM    153  NE2 HIS d  10    2591.724 792.048-2700.835  0.00  0.00    -0.359 N 
ATOM    154  CE1 HIS d  10    2591.986 792.050-2702.170  0.00  0.00     0.207 A 
ATOM    155  2HE HIS d  10    2592.291 791.671-2700.062  0.00  0.00     0.166 HD
ATOM    156  ND1 HIS d  10    2591.080 792.608-2702.994  0.00  0.00    -0.247 NA
ENDBRANCH 150 151
ENDBRANCH  81 150
ENDBRANCH  79  81
ENDBRANCH   1  77
BRANCH   1 157
ATOM    157  CB  GLU d   9    2587.740 797.364-2698.684  0.00  0.00     0.045 C 
BRANCH 157 158
ATOM    158  CG  GLU d   9    2589.123 798.055-2698.456  0.00  0.00     0.116 C 
BRANCH 158 159
ATOM    159  CD  GLU d   9    2589.825 797.842-2697.127  0.00  0.00     0.172 C 
ATOM    160  OE1 GLU d   9    2589.303 797.152-2696.230  0.00  0.00    -0.648 OA
ATOM    161  OE2 GLU d   9    2590.945 798.380-2696.996  0.00  0.00    -0.648 OA
ENDBRANCH 158 159
ENDBRANCH 157 158
ENDBRANCH   1 157
TORSDOF 66
