@<TRIPOS>MOLECULE
1-16
267 268 16              
SMALL
USER_CHARGES
@<TRIPOS>ATOM
1	   N	132.144	23.329	-101.627	N.3	1	GLN1	-0.416	
2	  CA	132.696	24.680	-101.627	C.3	1	GLN1	-0.003	
3	   C	134.206	24.649	-101.627	C.2	1	GLN1	0.597	
4	   O	134.871	25.347	-102.389	O.2	1	GLN1	-0.568	
5	  CB	132.158	25.435	-100.391	C.3	1	GLN1	-0.004	
6	  CG	132.607	26.926	-100.243	C.3	1	GLN1	-0.064	
7	  CD	132.162	27.721	-99.009	C.2	1	GLN1	0.695	
8	 NE2	131.403	27.156	-98.105	N.pl3	1	GLN1	-0.941	
9	 OE1	132.524	28.875	-98.838	O.2	1	GLN1	-0.609	
10	   H	132.706	22.550	-101.627	 H	1	GLN1	0.272	
11	  HA	132.372	25.196	-102.550	 H	1	GLN1	0.085	
12	 2HB	132.457	24.877	-99.479	 H	1	GLN1	0.017	
13	 3HB	131.051	25.400	-100.404	 H	1	GLN1	0.017	
14	 2HG	132.305	27.504	-101.136	 H	1	GLN1	0.035	
15	 3HG	133.710	26.996	-100.232	 H	1	GLN1	0.035	
16	1HE2	131.206	27.732	-97.285	 H	1	GLN1	0.425	
17	2HE2	131.193	26.170	-98.273	 H	1	GLN1	0.425	
18	   N	134.816	23.867	-100.802	N.am	2	ASN2	-0.416	
19	  CA	136.276	23.838	-100.802	C.3	2	ASN2	0.014	
20	   C	136.809	23.486	-102.171	C.2	2	ASN2	0.597	
21	   O	137.719	24.122	-102.700	O.2	2	ASN2	-0.568	
22	  CB	136.775	22.818	-99.738	C.3	2	ASN2	-0.204	
23	  CG	136.311	23.039	-98.295	C.2	2	ASN2	0.713	
24	 ND2	136.900	23.958	-97.577	N.pl3	2	ASN2	-0.919	
25	 OD1	135.395	22.399	-97.800	O.2	2	ASN2	-0.593	
26	   H	134.292	23.284	-100.165	 H	2	ASN2	0.272	
27	  HA	136.647	24.850	-100.557	 H	2	ASN2	0.105	
28	 2HB	137.880	22.766	-99.742	 H	2	ASN2	0.080	
29	 3HB	136.452	21.798	-100.024	 H	2	ASN2	0.080	
30	1HD2	136.418	24.128	-96.690	 H	2	ASN2	0.420	
31	2HD2	137.598	24.534	-98.046	 H	2	ASN2	0.420	
32	   N	136.293	22.488	-102.805	N.am	3	PRO3	-0.255	
33	  CA	136.747	22.081	-104.127	C.3	3	PRO3	-0.027	
34	   C	136.342	23.102	-105.204	C.2	3	PRO3	0.590	
35	   O	137.162	23.491	-106.035	O.2	3	PRO3	-0.575	
36	  CB	136.052	20.722	-104.296	C.3	3	PRO3	-0.007	
37	  CG	134.768	20.866	-103.465	C.3	3	PRO3	0.019	
38	  CD	135.221	21.687	-102.256	C.3	3	PRO3	0.019	
39	  HA	137.834	21.968	-104.141	 H	3	PRO3	0.064	
40	 2HB	136.680	19.945	-103.855	 H	3	PRO3	0.025	
41	 3HB	135.855	20.472	-105.341	 H	3	PRO3	0.025	
42	 2HG	134.347	19.901	-103.174	 H	3	PRO3	0.021	
43	 3HG	134.026	21.432	-104.032	 H	3	PRO3	0.021	
44	 2HD	135.615	21.040	-101.468	 H	3	PRO3	0.039	
45	 3HD	134.420	22.318	-101.862	 H	3	PRO3	0.039	
46	   N	135.134	23.554	-105.235	N.am	4	GLU4	-0.516	
47	  CA	134.768	24.523	-106.265	C.3	4	GLU4	0.040	
48	   C	135.659	25.740	-106.204	C.2	4	GLU4	0.537	
49	   O	136.182	26.223	-107.219	O.2	4	GLU4	-0.582	
50	  CB	133.277	24.932	-106.094	C.3	4	GLU4	0.056	
51	  CG	132.721	25.932	-107.159	C.3	4	GLU4	0.014	
52	  CD	131.292	26.419	-107.015	C.2	4	GLU4	0.805	
53	 OE1	130.569	26.016	-106.083	O.co2	4	GLU4	-0.819	
54	 OE2	130.896	27.246	-107.863	O.co2	4	GLU4	-0.819	
55	   H	134.452	23.243	-104.558	 H	4	GLU4	0.294	
56	  HA	134.901	24.053	-107.256	 H	4	GLU4	0.111	
57	 2HB	133.122	25.371	-105.087	 H	4	GLU4	-0.017	
58	 3HB	132.635	24.030	-106.100	 H	4	GLU4	-0.017	
59	 2HG	132.805	25.518	-108.177	 H	4	GLU4	-0.043	
60	 3HG	133.303	26.868	-107.170	 H	4	GLU4	-0.043	
61	   N	135.883	26.294	-105.061	N.am	5	SER5	-0.416	
62	  CA	136.745	27.471	-105.003	C.3	5	SER5	-0.025	
63	   C	138.106	27.174	-105.589	C.2	5	SER5	0.597	
64	   O	138.647	27.931	-106.394	O.2	5	SER5	-0.568	
65	  CB	136.854	28.004	-103.552	C.3	5	SER5	0.212	
66	  OG	137.592	27.129	-102.692	O.3	5	SER5	-0.655	
67	   H	135.469	25.920	-104.219	 H	5	SER5	0.272	
68	  HA	136.290	28.258	-105.632	 H	5	SER5	0.084	
69	 2HB	135.853	28.191	-103.119	 H	5	SER5	0.035	
70	 3HB	137.353	28.993	-103.555	 H	5	SER5	0.035	
71	  HG	137.108	26.301	-102.641	 H	5	SER5	0.428	
72	   N	138.718	26.095	-105.235	N.am	6	ILE6	-0.416	
73	  CA	140.032	25.809	-105.802	C.3	6	ILE6	-0.060	
74	   C	139.975	25.771	-107.310	C.2	6	ILE6	0.597	
75	   O	140.805	26.364	-108.014	O.2	6	ILE6	-0.568	
76	  CB	140.641	24.477	-105.203	C.3	6	ILE6	0.130	
77	 CG1	140.662	24.415	-103.641	C.3	6	ILE6	-0.043	
78	 CG2	142.084	24.184	-105.719	C.3	6	ILE6	-0.320	
79	 CD1	140.941	23.027	-103.027	C.3	6	ILE6	-0.066	
80	   H	138.294	25.458	-104.576	 H	6	ILE6	0.272	
81	  HA	140.701	26.648	-105.535	 H	6	ILE6	0.087	
82	  HB	139.989	23.647	-105.546	 H	6	ILE6	0.019	
83	2HG1	139.678	24.728	-103.245	 H	6	ILE6	0.024	
84	3HG1	141.373	25.161	-103.237	 H	6	ILE6	0.024	
85	1HG2	142.143	24.091	-106.817	 H	6	ILE6	0.088	
86	2HG2	142.801	24.971	-105.417	 H	6	ILE6	0.088	
87	3HG2	142.481	23.225	-105.340	 H	6	ILE6	0.088	
88	1HD1	140.218	22.268	-103.381	 H	6	ILE6	0.019	
89	2HD1	141.954	22.655	-103.263	 H	6	ILE6	0.019	
90	3HD1	140.865	23.057	-101.924	 H	6	ILE6	0.019	
91	   N	139.033	25.101	-107.883	N.am	7	LEU7	-0.416	
92	  CA	138.978	25.065	-109.342	C.3	7	LEU7	-0.052	
93	   C	138.896	26.460	-109.914	C.2	7	LEU7	0.597	
94	   O	139.614	26.827	-110.856	O.2	7	LEU7	-0.568	
95	  CB	137.780	24.197	-109.822	C.3	7	LEU7	-0.110	
96	  CG	137.717	22.717	-109.355	C.3	7	LEU7	0.353	
97	 CD1	136.532	22.003	-110.020	C.3	7	LEU7	-0.412	
98	 CD2	139.016	21.946	-109.647	C.3	7	LEU7	-0.412	
99	   H	138.344	24.610	-107.332	 H	7	LEU7	0.272	
100	  HA	139.922	24.631	-109.717	 H	7	LEU7	0.092	
101	 2HB	137.756	24.213	-110.929	 H	7	LEU7	0.046	
102	 3HB	136.837	24.693	-109.517	 H	7	LEU7	0.046	
103	  HG	137.548	22.708	-108.258	 H	7	LEU7	-0.036	
104	1HD1	135.571	22.506	-109.797	 H	7	LEU7	0.100	
105	2HD1	136.631	21.964	-111.121	 H	7	LEU7	0.100	
106	3HD1	136.432	20.961	-109.664	 H	7	LEU7	0.100	
107	1HD2	139.290	21.978	-110.717	 H	7	LEU7	0.100	
108	2HD2	139.867	22.363	-109.076	 H	7	LEU7	0.100	
109	3HD2	138.941	20.883	-109.351	 H	7	LEU7	0.100	
110	   N	138.053	27.295	-109.407	N.am	8	ASP8	-0.516	
111	  CA	137.974	28.644	-109.961	C.3	8	ASP8	0.038	
112	   C	139.316	29.333	-109.904	C.2	8	ASP8	0.537	
113	   O	139.784	29.941	-110.879	O.2	8	ASP8	-0.582	
114	  CB	136.890	29.476	-109.218	C.3	8	ASP8	-0.030	
115	  CG	136.662	30.895	-109.759	C.2	8	ASP8	0.799	
116	 OD1	136.724	31.094	-110.989	O.co2	8	ASP8	-0.801	
117	 OD2	136.464	31.819	-108.943	O.co2	8	ASP8	-0.801	
118	   H	137.457	27.020	-108.640	 H	8	ASP8	0.294	
119	  HA	137.691	28.564	-111.027	 H	8	ASP8	0.088	
120	 2HB	137.148	29.560	-108.147	 H	8	ASP8	-0.012	
121	 3HB	135.915	28.964	-109.251	 H	8	ASP8	-0.012	
122	   N	139.996	29.287	-108.809	N.am	9	GLU9	-0.516	
123	  CA	141.295	29.953	-108.754	C.3	9	GLU9	0.040	
124	   C	142.216	29.432	-109.830	C.2	9	GLU9	0.537	
125	   O	142.874	30.191	-110.556	O.2	9	GLU9	-0.582	
126	  CB	141.930	29.750	-107.349	C.3	9	GLU9	0.056	
127	  CG	143.308	30.451	-107.120	C.3	9	GLU9	0.014	
128	  CD	144.012	30.243	-105.792	C.2	9	GLU9	0.805	
129	 OE1	143.495	29.548	-104.896	O.co2	9	GLU9	-0.819	
130	 OE2	145.128	30.788	-105.661	O.co2	9	GLU9	-0.819	
131	   H	139.637	28.798	-108.002	 H	9	GLU9	0.294	
132	  HA	141.145	31.034	-108.929	 H	9	GLU9	0.111	
133	 2HB	142.050	28.666	-107.146	 H	9	GLU9	-0.017	
134	 3HB	141.231	30.098	-106.564	 H	9	GLU9	-0.017	
135	 2HG	143.229	31.542	-107.260	 H	9	GLU9	-0.043	
136	 3HG	144.057	30.111	-107.855	 H	9	GLU9	-0.043	
137	   N	142.321	28.157	-110.000	N.am	10	HIS10	-0.416	
138	  CA	143.212	27.652	-111.041	C.3	10	HIS10	-0.058	
139	   C	142.840	28.214	-112.392	C.2	10	HIS10	0.597	
140	   O	143.689	28.685	-113.164	O.2	10	HIS10	-0.568	
141	  CB	143.058	26.122	-111.036	C.3	10	HIS10	-0.007	
142	  CG	144.348	25.421	-110.729	C.2	10	HIS10	0.187	
143	 CD2	144.732	25.088	-109.436	C.2	10	HIS10	-0.221	
144	 ND1	145.303	25.021	-111.662	N.2	10	HIS10	-0.543	
145	 CE1	146.213	24.469	-110.839	C.2	10	HIS10	0.163	
146	 NE2	145.951	24.464	-109.504	N.pl3	10	HIS10	-0.280	
147	   H	141.794	27.518	-109.421	 H	10	HIS10	0.272	
148	  HA	144.228	28.016	-110.816	 H	10	HIS10	0.136	
149	 2HB	142.695	25.753	-112.016	 H	10	HIS10	0.037	
150	 3HB	142.305	25.780	-110.296	 H	10	HIS10	0.037	
151	 2HD	144.145	25.299	-108.547	 H	10	HIS10	0.186	
152	 1HE	147.107	24.054	-111.286	 H	10	HIS10	0.144	
153	 2HE	146.521	24.091	-108.731	 H	10	HIS10	0.334	
154	   N	141.602	28.205	-112.754	N.am	11	VAL11	-0.416	
155	  CA	141.243	28.749	-114.061	C.3	11	VAL11	-0.087	
156	   C	141.698	30.183	-114.193	C.2	11	VAL11	0.597	
157	   O	142.296	30.592	-115.197	O.2	11	VAL11	-0.568	
158	  CB	139.682	28.632	-114.280	C.3	11	VAL11	0.299	
159	 CG1	139.109	29.332	-115.542	C.3	11	VAL11	-0.319	
160	 CG2	139.168	27.174	-114.353	C.3	11	VAL11	-0.319	
161	   H	140.892	27.827	-112.143	 H	11	VAL11	0.272	
162	  HA	141.766	28.170	-114.844	 H	11	VAL11	0.097	
163	  HB	139.192	29.108	-113.404	 H	11	VAL11	-0.030	
164	1HG1	139.549	28.943	-116.479	 H	11	VAL11	0.079	
165	2HG1	138.010	29.217	-115.624	 H	11	VAL11	0.079	
166	3HG1	139.279	30.426	-115.533	 H	11	VAL11	0.079	
167	1HG2	139.462	26.589	-113.462	 H	11	VAL11	0.079	
168	2HG2	138.062	27.130	-114.395	 H	11	VAL11	0.079	
169	3HG2	139.553	26.636	-115.240	 H	11	VAL11	0.079	
170	   N	141.455	31.007	-113.231	N.am	12	GLN12	-0.416	
171	  CA	141.894	32.393	-113.358	C.3	12	GLN12	-0.003	
172	   C	143.384	32.470	-113.596	C.2	12	GLN12	0.597	
173	   O	143.866	33.182	-114.475	O.2	12	GLN12	-0.568	
174	  CB	141.499	33.157	-112.075	C.3	12	GLN12	-0.004	
175	  CG	141.849	34.682	-112.044	C.3	12	GLN12	-0.064	
176	  CD	141.541	35.493	-110.779	C.2	12	GLN12	0.695	
177	 NE2	140.979	34.912	-109.750	N.pl3	12	GLN12	-0.941	
178	 OE1	141.835	36.676	-110.701	O.2	12	GLN12	-0.609	
179	   H	140.969	30.697	-112.402	 H	12	GLN12	0.272	
180	  HA	141.392	32.846	-114.233	 H	12	GLN12	0.085	
181	 2HB	141.979	32.660	-111.206	 H	12	GLN12	0.017	
182	 3HB	140.409	33.042	-111.911	 H	12	GLN12	0.017	
183	 2HG	141.367	35.199	-112.894	 H	12	GLN12	0.035	
184	 3HG	142.931	34.831	-112.210	 H	12	GLN12	0.035	
185	1HE2	140.868	35.506	-108.926	 H	12	GLN12	0.425	
186	2HE2	140.822	33.908	-109.853	 H	12	GLN12	0.425	
187	   N	144.173	31.769	-112.856	N.am	13	ARG13	-0.348	
188	  CA	145.613	31.844	-113.087	C.3	13	ARG13	-0.264	
189	   C	145.951	31.475	-114.513	C.2	13	ARG13	0.734	
190	   O	146.715	32.152	-115.197	O.2	13	ARG13	-0.589	
191	  CB	146.333	30.910	-112.074	C.3	13	ARG13	-0.001	
192	  CG	147.877	31.074	-111.993	C.3	13	ARG13	0.039	
193	  CD	148.511	30.090	-110.996	C.3	13	ARG13	0.049	
194	  NE	149.987	30.307	-110.946	N.pl3	13	ARG13	-0.530	
195	  CZ	150.840	29.621	-110.191	C.cat	13	ARG13	0.808	
196	 NH1	150.482	28.654	-109.394	N.pl3	13	ARG13	-0.863	
197	 NH2	152.097	29.929	-110.249	N.pl3	13	ARG13	-0.863	
198	   H	143.802	31.176	-112.127	 H	13	ARG13	0.275	
199	  HA	145.930	32.892	-112.929	 H	13	ARG13	0.156	
200	 2HB	146.074	29.858	-112.313	 H	13	ARG13	0.033	
201	 3HB	145.907	31.074	-111.063	 H	13	ARG13	0.033	
202	 2HG	148.118	32.120	-111.714	 H	13	ARG13	0.029	
203	 3HG	148.328	30.921	-112.995	 H	13	ARG13	0.029	
204	 2HD	148.274	29.048	-111.305	 H	13	ARG13	0.069	
205	 3HD	148.054	30.232	-109.993	 H	13	ARG13	0.069	
206	  HE	150.433	31.033	-111.517	 H	13	ARG13	0.346	
207	1HH1	149.478	28.461	-109.397	 H	13	ARG13	0.448	
208	2HH1	151.198	28.176	-108.846	 H	13	ARG13	0.448	
209	1HH2	152.360	30.689	-110.880	 H	13	ARG13	0.448	
210	2HH2	152.736	29.392	-109.660	 H	13	ARG13	0.448	
211	   N	145.422	30.417	-115.027	N.am	14	VAL14	-0.416	
212	  CA	145.749	30.060	-116.404	C.3	14	VAL14	-0.087	
213	   C	145.411	31.188	-117.350	C.2	14	VAL14	0.597	
214	   O	146.201	31.575	-118.220	O.2	14	VAL14	-0.568	
215	  CB	144.985	28.738	-116.811	C.3	14	VAL14	0.299	
216	 CG1	145.076	28.321	-118.305	C.3	14	VAL14	-0.319	
217	 CG2	145.426	27.489	-116.011	C.3	14	VAL14	-0.319	
218	   H	144.791	29.844	-114.485	 H	14	VAL14	0.272	
219	  HA	146.838	29.891	-116.480	 H	14	VAL14	0.097	
220	  HB	143.908	28.902	-116.595	 H	14	VAL14	-0.030	
221	1HG1	146.119	28.151	-118.634	 H	14	VAL14	0.079	
222	2HG1	144.510	27.394	-118.518	 H	14	VAL14	0.079	
223	3HG1	144.642	29.080	-118.983	 H	14	VAL14	0.079	
224	1HG2	145.338	27.646	-114.921	 H	14	VAL14	0.079	
225	2HG2	144.796	26.608	-116.243	 H	14	VAL14	0.079	
226	3HG2	146.475	27.206	-116.217	 H	14	VAL14	0.079	
227	   N	144.262	31.766	-117.248	N.am	15	MET15	-0.416	
228	  CA	143.934	32.857	-118.161	C.3	15	MET15	-0.024	
229	   C	144.957	33.964	-118.073	C.2	15	MET15	0.597	
230	   O	145.455	34.478	-119.086	O.2	15	MET15	-0.568	
231	  CB	142.509	33.393	-117.851	C.3	15	MET15	0.034	
232	  CG	141.354	32.387	-118.043	C.3	15	MET15	0.002	
233	  SD	139.774	33.242	-117.928	S.3	15	MET15	-0.274	
234	  CE	138.702	31.805	-117.791	C.3	15	MET15	-0.054	
235	   H	143.599	31.469	-116.546	 H	15	MET15	0.272	
236	  HA	143.962	32.470	-119.197	 H	15	MET15	0.088	
237	 2HB	142.300	34.270	-118.493	 H	15	MET15	0.024	
238	 3HB	142.471	33.785	-116.815	 H	15	MET15	0.024	
239	 2HG	141.402	31.601	-117.265	 H	15	MET15	0.044	
240	 3HG	141.420	31.872	-119.019	 H	15	MET15	0.044	
241	 1HE	138.850	31.118	-118.643	 H	15	MET15	0.068	
242	 2HE	138.916	31.254	-116.858	 H	15	MET15	0.068	
243	 3HE	137.643	32.113	-117.774	 H	15	MET15	0.068	
244	   N	145.323	34.387	-116.911	N.am	16	ARG16	-0.348	
245	  CA	146.312	35.458	-116.828	C.3	16	ARG16	-0.264	
246	   C	147.585	35.074	-117.545	C.2	16	ARG16	0.734	
247	   O	147.706	33.998	-118.126	O.2	16	ARG16	-0.589	
248	  CB	146.580	35.777	-115.330	C.3	16	ARG16	-0.001	
249	  CG	147.396	37.072	-115.057	C.3	16	ARG16	0.039	
250	  CD	147.645	37.293	-113.556	C.3	16	ARG16	0.049	
251	  NE	148.413	38.557	-113.355	N.pl3	16	ARG16	-0.530	
252	  CZ	148.801	39.042	-112.179	C.cat	16	ARG16	0.808	
253	 NH1	148.558	38.455	-111.041	N.pl3	16	ARG16	-0.863	
254	 NH2	149.458	40.159	-112.161	N.pl3	16	ARG16	-0.863	
255	   H	144.931	33.984	-116.072	 H	16	ARG16	0.275	
256	  HA	145.897	36.348	-117.337	 H	16	ARG16	0.156	
257	 2HB	147.083	34.905	-114.864	 H	16	ARG16	0.033	
258	 3HB	145.611	35.852	-114.795	 H	16	ARG16	0.033	
259	 2HG	146.860	37.939	-115.494	 H	16	ARG16	0.029	
260	 3HG	148.370	37.025	-115.586	 H	16	ARG16	0.029	
261	 2HD	148.200	36.422	-113.143	 H	16	ARG16	0.069	
262	 3HD	146.672	37.329	-113.020	 H	16	ARG16	0.069	
263	  HE	148.687	39.140	-114.152	 H	16	ARG16	0.346	
264	1HH1	148.038	37.579	-111.125	 H	16	ARG16	0.448	
265	2HH1	148.890	38.893	-110.180	 H	16	ARG16	0.448	
266	1HH2	149.640	40.603	-113.063	 H	16	ARG16	0.448	
267	2HH2	149.746	40.516	-111.249	 H	16	ARG16	0.448	
@<TRIPOS>BOND
1 1 2 1
2 1 10 1
3 2 3 1
4 2 5 1
5 2 11 1
6 3 4 2
7 3 18 1
8 5 6 1
9 6 7 1
10 7 8 1
11 7 9 2
12 5 12 1
13 5 13 1
14 6 14 1
15 6 15 1
16 8 16 1
17 8 17 1
18 18 19 1
19 18 26 1
20 19 20 1
21 19 22 1
22 19 27 1
23 20 21 2
24 20 32 1
25 22 23 1
26 23 24 1
27 23 25 2
28 22 28 1
29 22 29 1
30 24 30 1
31 24 31 1
32 32 33 1
33 32 38 1
34 33 34 1
35 33 36 1
36 33 39 1
37 34 35 2
38 34 46 1
39 36 37 1
40 37 38 1
41 36 40 1
42 36 41 1
43 37 42 1
44 37 43 1
45 38 44 1
46 38 45 1
47 46 47 1
48 46 55 1
49 47 48 1
50 47 50 1
51 47 56 1
52 48 49 2
53 48 61 1
54 50 51 1
55 51 52 1
56 52 53 2
57 52 54 1
58 50 57 1
59 50 58 1
60 51 59 1
61 51 60 1
62 61 62 1
63 61 67 1
64 62 63 1
65 62 65 1
66 62 68 1
67 63 64 2
68 63 72 1
69 65 66 1
70 65 69 1
71 65 70 1
72 66 71 1
73 72 73 1
74 72 80 1
75 73 74 1
76 73 76 1
77 73 81 1
78 74 75 2
79 74 91 1
80 76 77 1
81 76 78 1
82 77 79 1
83 76 82 1
84 77 83 1
85 77 84 1
86 78 85 1
87 78 86 1
88 78 87 1
89 79 88 1
90 79 89 1
91 79 90 1
92 91 92 1
93 91 99 1
94 92 93 1
95 92 95 1
96 92 100 1
97 93 94 2
98 93 110 1
99 95 96 1
100 96 97 1
101 96 98 1
102 95 101 1
103 95 102 1
104 96 103 1
105 97 104 1
106 97 105 1
107 97 106 1
108 98 107 1
109 98 108 1
110 98 109 1
111 110 111 1
112 110 118 1
113 111 112 1
114 111 114 1
115 111 119 1
116 112 113 2
117 112 122 1
118 114 115 1
119 115 116 2
120 115 117 1
121 114 120 1
122 114 121 1
123 122 123 1
124 122 131 1
125 123 124 1
126 123 126 1
127 123 132 1
128 124 125 2
129 124 137 1
130 126 127 1
131 127 128 1
132 128 129 2
133 128 130 1
134 126 133 1
135 126 134 1
136 127 135 1
137 127 136 1
138 137 138 1
139 137 147 1
140 138 139 1
141 138 141 1
142 138 148 1
143 139 140 2
144 139 154 1
145 141 142 1
146 142 143 2
147 143 146 1
148 142 144 1
149 144 145 2
150 145 146 1
151 141 149 1
152 141 150 1
153 143 151 1
154 145 152 1
155 146 153 1
156 154 155 1
157 154 161 1
158 155 156 1
159 155 158 1
160 155 162 1
161 156 157 2
162 156 170 1
163 158 159 1
164 158 160 1
165 158 163 1
166 159 164 1
167 159 165 1
168 159 166 1
169 160 167 1
170 160 168 1
171 160 169 1
172 170 171 1
173 170 179 1
174 171 172 1
175 171 174 1
176 171 180 1
177 172 173 2
178 172 187 1
179 174 175 1
180 175 176 1
181 176 177 1
182 176 178 2
183 174 181 1
184 174 182 1
185 175 183 1
186 175 184 1
187 177 185 1
188 177 186 1
189 187 188 1
190 187 198 1
191 188 189 1
192 188 191 1
193 188 199 1
194 189 190 2
195 189 211 1
196 191 192 1
197 192 193 1
198 193 194 1
199 194 195 1
200 195 196 2
201 195 197 1
202 191 200 1
203 191 201 1
204 192 202 1
205 192 203 1
206 193 204 1
207 193 205 1
208 194 206 1
209 196 207 1
210 196 208 1
211 197 209 1
212 197 210 1
213 211 212 1
214 211 218 1
215 212 213 1
216 212 215 1
217 212 219 1
218 213 214 2
219 213 227 1
220 215 216 1
221 215 217 1
222 215 220 1
223 216 221 1
224 216 222 1
225 216 223 1
226 217 224 1
227 217 225 1
228 217 226 1
229 227 228 1
230 227 235 1
231 228 229 1
232 228 231 1
233 228 236 1
234 229 230 2
235 229 244 1
236 231 232 1
237 232 233 1
238 233 234 1
239 231 237 1
240 231 238 1
241 232 239 1
242 232 240 1
243 234 241 1
244 234 242 1
245 234 243 1
246 244 245 1
247 244 255 1
248 245 246 1
249 245 248 1
250 245 256 1
251 246 247 2
252 248 249 1
253 249 250 1
254 250 251 1
255 251 252 1
256 252 253 2
257 252 254 1
258 248 257 1
259 248 258 1
260 249 259 1
261 249 260 1
262 250 261 1
263 250 262 1
264 251 263 1
265 253 264 1
266 253 265 1
267 254 266 1
268 254 267 1
@<TRIPOS>SUBSTRUCTURE
1	GLN1	1	RESIDUE	1 ****	GLN
2	ASN2	18	RESIDUE	1 ****	ASN
3	PRO3	32	RESIDUE	1 ****	PRO
4	GLU4	46	RESIDUE	1 ****	GLU
5	SER5	61	RESIDUE	1 ****	SER
6	ILE6	72	RESIDUE	1 ****	ILE
7	LEU7	91	RESIDUE	1 ****	LEU
8	ASP8	110	RESIDUE	1 ****	ASP
9	GLU9	122	RESIDUE	1 ****	GLU
10	HIS10	137	RESIDUE	1 ****	HIS
11	VAL11	154	RESIDUE	1 ****	VAL
12	GLN12	170	RESIDUE	1 ****	GLN
13	ARG13	187	RESIDUE	1 ****	ARG
14	VAL14	211	RESIDUE	1 ****	VAL
15	MET15	227	RESIDUE	1 ****	MET
16	ARG16	244	RESIDUE	1 ****	ARG
