@<TRIPOS>MOLECULE
13-3
248 249 16              
SMALL
USER_CHARGES
@<TRIPOS>ATOM
1	   N	2025.460	612.952	-2089.448	N.3	1	GLU1	-0.516	
2	  CA	2026.019	614.301	-2089.448	C.3	1	GLU1	0.040	
3	   C	2027.528	614.261	-2089.448	C.2	1	GLU1	0.537	
4	   O	2028.204	614.960	-2090.217	O.2	1	GLU1	-0.582	
5	  CB	2025.496	615.086	-2088.212	C.3	1	GLU1	0.056	
6	  CG	2025.971	616.571	-2088.101	C.3	1	GLU1	0.014	
7	  CD	2025.547	617.375	-2086.885	C.2	1	GLU1	0.805	
8	 OE1	2024.819	616.873	-2086.008	O.co2	1	GLU1	-0.819	
9	 OE2	2025.977	618.545	-2086.813	O.co2	1	GLU1	-0.819	
10	   H	2026.087	612.073	-2089.448	 H	1	GLU1	0.294	
11	  HA	2025.693	614.819	-2090.369	 H	1	GLU1	0.111	
12	 2HB	2025.785	614.555	-2087.281	 H	1	GLU1	-0.017	
13	 3HB	2024.389	615.076	-2088.198	 H	1	GLU1	-0.017	
14	 2HG	2025.661	617.156	-2088.981	 H	1	GLU1	-0.043	
15	 3HG	2027.071	616.638	-2088.072	 H	1	GLU1	-0.043	
16	   N	2028.132	613.475	-2088.623	N.am	2	ASN2	-0.416	
17	  CA	2029.592	613.436	-2088.623	C.3	2	ASN2	0.014	
18	   C	2030.123	613.081	-2089.992	C.2	2	ASN2	0.597	
19	   O	2031.038	613.711	-2090.521	O.2	2	ASN2	-0.568	
20	  CB	2030.084	612.414	-2087.559	C.3	2	ASN2	-0.204	
21	  CG	2029.620	612.637	-2086.115	C.2	2	ASN2	0.713	
22	 ND2	2030.215	613.552	-2085.397	N.pl3	2	ASN2	-0.919	
23	 OD1	2028.700	612.004	-2085.622	O.2	2	ASN2	-0.593	
24	   H	2027.604	612.896	-2087.987	 H	2	ASN2	0.272	
25	  HA	2029.969	614.446	-2088.378	 H	2	ASN2	0.105	
26	 2HB	2031.188	612.355	-2087.562	 H	2	ASN2	0.080	
27	 3HB	2029.755	611.395	-2087.845	 H	2	ASN2	0.080	
28	1HD2	2029.734	613.725	-2084.511	 H	2	ASN2	0.420	
29	2HD2	2030.917	614.124	-2085.867	 H	2	ASN2	0.420	
30	   N	2029.601	612.086	-2090.626	N.am	3	PRO3	-0.255	
31	  CA	2030.053	611.677	-2091.947	C.3	3	PRO3	-0.027	
32	   C	2029.655	612.700	-2093.024	C.2	3	PRO3	0.590	
33	   O	2030.479	613.083	-2093.856	O.2	3	PRO3	-0.575	
34	  CB	2029.349	610.322	-2092.117	C.3	3	PRO3	-0.007	
35	  CG	2028.066	610.474	-2091.287	C.3	3	PRO3	0.019	
36	  CD	2028.523	611.293	-2090.077	C.3	3	PRO3	0.019	
37	  HA	2031.139	611.557	-2091.961	 H	3	PRO3	0.064	
38	 2HB	2029.972	609.541	-2091.676	 H	3	PRO3	0.025	
39	 3HB	2029.151	610.073	-2093.162	 H	3	PRO3	0.025	
40	 2HG	2027.638	609.512	-2090.995	 H	3	PRO3	0.021	
41	 3HG	2027.328	611.045	-2091.854	 H	3	PRO3	0.021	
42	 2HD	2028.912	610.643	-2089.289	 H	3	PRO3	0.039	
43	 3HD	2027.727	611.929	-2089.684	 H	3	PRO3	0.039	
44	   N	2028.450	613.160	-2093.057	N.am	4	GLU4	-0.516	
45	  CA	2028.090	614.131	-2094.087	C.3	4	GLU4	0.040	
46	   C	2028.989	615.342	-2094.026	C.2	4	GLU4	0.537	
47	   O	2029.516	615.821	-2095.040	O.2	4	GLU4	-0.582	
48	  CB	2026.602	614.549	-2093.917	C.3	4	GLU4	0.056	
49	  CG	2026.054	615.552	-2094.983	C.3	4	GLU4	0.014	
50	  CD	2024.627	616.049	-2094.839	C.2	4	GLU4	0.805	
51	 OE1	2023.901	615.651	-2093.908	O.co2	4	GLU4	-0.819	
52	 OE2	2024.238	616.878	-2095.688	O.co2	4	GLU4	-0.819	
53	   H	2027.766	612.853	-2092.380	 H	4	GLU4	0.294	
54	  HA	2028.222	613.660	-2095.078	 H	4	GLU4	0.111	
55	 2HB	2026.449	614.990	-2092.910	 H	4	GLU4	-0.017	
56	 3HB	2025.954	613.652	-2093.923	 H	4	GLU4	-0.017	
57	 2HG	2026.135	615.138	-2096.000	 H	4	GLU4	-0.043	
58	 3HG	2026.642	616.485	-2094.994	 H	4	GLU4	-0.043	
59	   N	2029.217	615.894	-2092.883	N.am	5	SER5	-0.416	
60	  CA	2030.086	617.065	-2092.824	C.3	5	SER5	-0.025	
61	   C	2031.445	616.760	-2093.410	C.2	5	SER5	0.597	
62	   O	2031.993	617.513	-2094.215	O.2	5	SER5	-0.568	
63	  CB	2030.198	617.598	-2091.374	C.3	5	SER5	0.212	
64	  OG	2030.930	616.718	-2090.513	O.3	5	SER5	-0.655	
65	   H	2028.800	615.523	-2092.041	 H	5	SER5	0.272	
66	  HA	2029.637	617.856	-2093.454	 H	5	SER5	0.084	
67	 2HB	2029.198	617.792	-2090.940	 H	5	SER5	0.035	
68	 3HB	2030.704	618.583	-2091.376	 H	5	SER5	0.035	
69	  HG	2030.441	615.893	-2090.462	 H	5	SER5	0.428	
70	   N	2032.050	615.676	-2093.056	N.am	6	ILE6	-0.416	
71	  CA	2033.363	615.381	-2093.622	C.3	6	ILE6	-0.060	
72	   C	2033.306	615.344	-2095.130	C.2	6	ILE6	0.597	
73	   O	2034.141	615.932	-2095.833	O.2	6	ILE6	-0.568	
74	  CB	2033.962	614.044	-2093.022	C.3	6	ILE6	0.130	
75	 CG1	2033.981	613.982	-2091.461	C.3	6	ILE6	-0.043	
76	 CG2	2035.403	613.742	-2093.537	C.3	6	ILE6	-0.320	
77	 CD1	2034.250	612.593	-2090.846	C.3	6	ILE6	-0.066	
78	   H	2031.621	615.042	-2092.397	 H	6	ILE6	0.272	
79	  HA	2034.037	616.215	-2093.354	 H	6	ILE6	0.087	
80	  HB	2033.304	613.219	-2093.366	 H	6	ILE6	0.019	
81	2HG1	2032.999	614.302	-2091.065	 H	6	ILE6	0.024	
82	3HG1	2034.697	614.724	-2091.056	 H	6	ILE6	0.024	
83	1HG2	2035.462	613.649	-2094.636	 H	6	ILE6	0.088	
84	2HG2	2036.125	614.524	-2093.235	 H	6	ILE6	0.088	
85	3HG2	2035.793	612.780	-2093.159	 H	6	ILE6	0.088	
86	1HD1	2033.522	611.839	-2091.201	 H	6	ILE6	0.019	
87	2HD1	2035.261	612.214	-2091.082	 H	6	ILE6	0.019	
88	3HD1	2034.174	612.622	-2089.744	 H	6	ILE6	0.019	
89	   N	2032.360	614.681	-2095.704	N.am	7	LEU7	-0.416	
90	  CA	2032.305	614.646	-2097.163	C.3	7	LEU7	-0.052	
91	   C	2032.234	616.041	-2097.735	C.2	7	LEU7	0.597	
92	   O	2032.955	616.404	-2098.676	O.2	7	LEU7	-0.568	
93	  CB	2031.102	613.786	-2097.644	C.3	7	LEU7	-0.110	
94	  CG	2031.029	612.306	-2097.177	C.3	7	LEU7	0.353	
95	 CD1	2029.839	611.601	-2097.844	C.3	7	LEU7	-0.412	
96	 CD2	2032.322	611.527	-2097.469	C.3	7	LEU7	-0.412	
97	   H	2031.668	614.194	-2095.153	 H	7	LEU7	0.272	
98	  HA	2033.247	614.205	-2097.537	 H	7	LEU7	0.092	
99	 2HB	2031.079	613.802	-2098.751	 H	7	LEU7	0.046	
100	 3HB	2030.162	614.289	-2097.340	 H	7	LEU7	0.046	
101	  HG	2030.858	612.298	-2096.081	 H	7	LEU7	-0.036	
102	1HD1	2028.882	612.111	-2097.621	 H	7	LEU7	0.100	
103	2HD1	2029.938	611.561	-2098.945	 H	7	LEU7	0.100	
104	3HD1	2029.731	610.560	-2097.488	 H	7	LEU7	0.100	
105	1HD2	2032.597	611.557	-2098.539	 H	7	LEU7	0.100	
106	2HD2	2033.175	611.938	-2096.897	 H	7	LEU7	0.100	
107	3HD2	2032.240	610.464	-2097.173	 H	7	LEU7	0.100	
108	   N	2031.396	616.882	-2097.228	N.am	8	ASP8	-0.516	
109	  CA	2031.327	618.231	-2097.781	C.3	8	ASP8	0.038	
110	   C	2032.673	618.911	-2097.723	C.2	8	ASP8	0.537	
111	   O	2033.147	619.517	-2098.697	O.2	8	ASP8	-0.582	
112	  CB	2030.248	619.070	-2097.039	C.3	8	ASP8	-0.030	
113	  CG	2030.030	620.491	-2097.579	C.2	8	ASP8	0.799	
114	 OD1	2030.095	620.691	-2098.809	O.co2	8	ASP8	-0.801	
115	 OD2	2029.838	621.417	-2096.763	O.co2	8	ASP8	-0.801	
116	   H	2030.798	616.610	-2096.461	 H	8	ASP8	0.294	
117	  HA	2031.044	618.154	-2098.848	 H	8	ASP8	0.088	
118	 2HB	2030.505	619.153	-2095.967	 H	8	ASP8	-0.012	
119	 3HB	2029.269	618.566	-2097.073	 H	8	ASP8	-0.012	
120	   N	2033.353	618.860	-2096.627	N.am	9	GLU9	-0.516	
121	  CA	2034.656	619.517	-2096.571	C.3	9	GLU9	0.040	
122	   C	2035.574	618.990	-2097.647	C.2	9	GLU9	0.537	
123	   O	2036.238	619.745	-2098.371	O.2	9	GLU9	-0.582	
124	  CB	2035.288	619.309	-2095.165	C.3	9	GLU9	0.056	
125	  CG	2036.671	620.000	-2094.935	C.3	9	GLU9	0.014	
126	  CD	2037.372	619.786	-2093.606	C.2	9	GLU9	0.805	
127	 OE1	2036.850	619.094	-2092.711	O.co2	9	GLU9	-0.819	
128	 OE2	2038.491	620.323	-2093.474	O.co2	9	GLU9	-0.819	
129	   H	2032.989	618.373	-2095.821	 H	9	GLU9	0.294	
130	  HA	2034.514	620.599	-2096.745	 H	9	GLU9	0.111	
131	 2HB	2035.401	618.224	-2094.963	 H	9	GLU9	-0.017	
132	 3HB	2034.591	619.661	-2094.381	 H	9	GLU9	-0.017	
133	 2HG	2036.600	621.091	-2095.074	 H	9	GLU9	-0.043	
134	 3HG	2037.418	619.656	-2095.669	 H	9	GLU9	-0.043	
135	   N	2035.670	617.715	-2097.817	N.am	10	HIS10	-0.416	
136	  CA	2036.558	617.204	-2098.858	C.3	10	HIS10	-0.058	
137	   C	2036.192	617.770	-2100.208	C.2	10	HIS10	0.597	
138	   O	2037.045	618.235	-2100.980	O.2	10	HIS10	-0.568	
139	  CB	2036.394	615.675	-2098.854	C.3	10	HIS10	-0.007	
140	  CG	2037.680	614.965	-2098.546	C.2	10	HIS10	0.187	
141	 CD2	2038.060	614.629	-2097.253	C.2	10	HIS10	-0.221	
142	 ND1	2038.632	614.559	-2099.478	N.2	10	HIS10	-0.543	
143	 CE1	2039.538	614.000	-2098.655	C.2	10	HIS10	0.163	
144	 NE2	2039.275	613.997	-2097.320	N.pl3	10	HIS10	-0.280	
145	   H	2035.139	617.079	-2097.239	 H	10	HIS10	0.272	
146	  HA	2037.578	617.561	-2098.632	 H	10	HIS10	0.136	
147	 2HB	2036.029	615.309	-2099.834	 H	10	HIS10	0.037	
148	 3HB	2035.638	615.338	-2098.114	 H	10	HIS10	0.037	
149	 2HD	2037.474	614.843	-2096.364	 H	10	HIS10	0.186	
150	 1HE	2040.429	613.579	-2099.102	 H	10	HIS10	0.144	
151	 2HE	2039.841	613.619	-2096.546	 H	10	HIS10	0.334	
152	   N	2034.954	617.770	-2100.572	N.am	11	VAL11	-0.416	
153	  CA	2034.600	618.317	-2101.878	C.3	11	VAL11	-0.087	
154	   C	2035.064	619.747	-2102.010	C.2	11	VAL11	0.597	
155	   O	2035.666	620.153	-2103.012	O.2	11	VAL11	-0.568	
156	  CB	2033.038	618.210	-2102.098	C.3	11	VAL11	0.299	
157	 CG1	2032.470	618.916	-2103.361	C.3	11	VAL11	-0.319	
158	 CG2	2032.514	616.756	-2102.173	C.3	11	VAL11	-0.319	
159	   H	2034.241	617.396	-2099.962	 H	11	VAL11	0.272	
160	  HA	2035.119	617.735	-2102.661	 H	11	VAL11	0.097	
161	  HB	2032.551	618.690	-2101.223	 H	11	VAL11	-0.030	
162	1HG1	2032.909	618.524	-2104.298	 H	11	VAL11	0.079	
163	2HG1	2031.371	618.809	-2103.443	 H	11	VAL11	0.079	
164	3HG1	2032.649	620.008	-2103.350	 H	11	VAL11	0.079	
165	1HG2	2032.803	616.169	-2101.282	 H	11	VAL11	0.079	
166	2HG2	2031.408	616.720	-2102.216	 H	11	VAL11	0.079	
167	3HG2	2032.896	616.216	-2103.060	 H	11	VAL11	0.079	
168	   N	2034.827	620.572	-2101.046	N.am	12	GLN12	-0.416	
169	  CA	2035.276	621.955	-2101.172	C.3	12	GLN12	-0.003	
170	   C	2036.766	622.022	-2101.410	C.2	12	GLN12	0.597	
171	   O	2037.254	622.731	-2102.287	O.2	12	GLN12	-0.568	
172	  CB	2034.885	622.722	-2099.889	C.3	12	GLN12	-0.004	
173	  CG	2035.245	624.243	-2099.857	C.3	12	GLN12	-0.064	
174	  CD	2034.943	625.056	-2098.591	C.2	12	GLN12	0.695	
175	 NE2	2034.375	624.478	-2097.563	N.pl3	12	GLN12	-0.941	
176	 OE1	2035.245	626.237	-2098.512	O.2	12	GLN12	-0.609	
177	   H	2034.338	620.265	-2100.218	 H	12	GLN12	0.272	
178	  HA	2034.777	622.412	-2102.047	 H	12	GLN12	0.085	
179	 2HB	2035.360	622.221	-2099.020	 H	12	GLN12	0.017	
180	 3HB	2033.794	622.614	-2099.726	 H	12	GLN12	0.017	
181	 2HG	2034.768	624.765	-2100.707	 H	12	GLN12	0.035	
182	 3HG	2036.329	624.385	-2100.022	 H	12	GLN12	0.035	
183	1HE2	2034.268	625.072	-2096.739	 H	12	GLN12	0.425	
184	2HE2	2034.211	623.475	-2097.667	 H	12	GLN12	0.425	
185	   N	2037.550	621.315	-2100.669	N.am	13	GLY13	-0.416	
186	  CA	2038.990	621.380	-2100.899	C.3	13	GLY13	-0.025	
187	   C	2039.328	621.010	-2102.323	C.2	13	GLY13	0.597	
188	   O	2040.101	621.685	-2103.008	O.2	13	GLY13	-0.568	
189	   H	2037.173	620.724	-2099.941	 H	13	GLY13	0.272	
190	 3HA	2039.460	620.706	-2100.244	 H	13	GLY13	0.070	
191	  HA	2039.335	622.417	-2100.726	 H	13	GLY13	0.070	
192	   N	2038.792	619.957	-2102.840	N.am	14	VAL14	-0.416	
193	  CA	2039.119	619.599	-2104.217	C.3	14	VAL14	-0.087	
194	   C	2038.791	620.730	-2105.162	C.2	14	VAL14	0.597	
195	   O	2039.586	621.112	-2106.030	O.2	14	VAL14	-0.568	
196	  CB	2038.347	618.282	-2104.626	C.3	14	VAL14	0.299	
197	 CG1	2038.438	617.866	-2106.120	C.3	14	VAL14	-0.319	
198	 CG2	2038.777	617.029	-2103.827	C.3	14	VAL14	-0.319	
199	   H	2038.156	619.388	-2102.299	 H	14	VAL14	0.272	
200	  HA	2040.207	619.422	-2104.291	 H	14	VAL14	0.097	
201	  HB	2037.270	618.454	-2104.412	 H	14	VAL14	-0.030	
202	1HG1	2039.479	617.689	-2106.448	 H	14	VAL14	0.079	
203	2HG1	2037.865	616.943	-2106.335	 H	14	VAL14	0.079	
204	3HG1	2038.010	618.629	-2106.798	 H	14	VAL14	0.079	
205	1HG2	2038.688	617.186	-2102.736	 H	14	VAL14	0.079	
206	2HG2	2038.141	616.153	-2104.061	 H	14	VAL14	0.079	
207	3HG2	2039.825	616.739	-2104.031	 H	14	VAL14	0.079	
208	   N	2037.646	621.316	-2105.061	N.am	15	MET15	-0.416	
209	  CA	2037.327	622.410	-2105.974	C.3	15	MET15	-0.024	
210	   C	2038.358	623.509	-2105.884	C.2	15	MET15	0.597	
211	   O	2038.862	624.021	-2106.896	O.2	15	MET15	-0.568	
212	  CB	2035.906	622.956	-2105.667	C.3	15	MET15	0.034	
213	  CG	2034.743	621.958	-2105.861	C.3	15	MET15	0.002	
214	  SD	2033.170	622.825	-2105.748	S.3	15	MET15	-0.274	
215	  CE	2032.088	621.395	-2105.614	C.3	15	MET15	-0.054	
216	   H	2036.980	621.023	-2104.361	 H	15	MET15	0.272	
217	  HA	2037.354	622.023	-2107.010	 H	15	MET15	0.088	
218	 2HB	2035.705	623.835	-2106.309	 H	15	MET15	0.024	
219	 3HB	2035.869	623.347	-2104.630	 H	15	MET15	0.024	
220	 2HG	2034.785	621.172	-2105.084	 H	15	MET15	0.044	
221	 3HG	2034.808	621.444	-2106.838	 H	15	MET15	0.044	
222	 1HE	2032.233	620.708	-2106.467	 H	15	MET15	0.068	
223	 2HE	2032.296	620.842	-2104.682	 H	15	MET15	0.068	
224	 3HE	2031.030	621.711	-2105.599	 H	15	MET15	0.068	
225	   N	2038.725	623.929	-2104.721	N.am	16	ARG16	-0.348	
226	  CA	2039.722	624.993	-2104.635	C.3	16	ARG16	-0.264	
227	   C	2040.993	624.600	-2105.350	C.2	16	ARG16	0.734	
228	   O	2041.107	623.524	-2105.932	O.2	16	ARG16	-0.589	
229	  CB	2039.989	625.310	-2103.136	C.3	16	ARG16	-0.001	
230	  CG	2040.815	626.598	-2102.862	C.3	16	ARG16	0.039	
231	  CD	2041.062	626.816	-2101.360	C.3	16	ARG16	0.049	
232	  NE	2041.838	628.075	-2101.157	N.pl3	16	ARG16	-0.530	
233	  CZ	2042.228	628.556	-2099.980	C.cat	16	ARG16	0.808	
234	 NH1	2041.979	627.971	-2098.843	N.pl3	16	ARG16	-0.863	
235	 NH2	2042.893	629.668	-2099.960	N.pl3	16	ARG16	-0.863	
236	   H	2038.329	623.529	-2103.883	 H	16	ARG16	0.275	
237	  HA	2039.314	625.886	-2105.145	 H	16	ARG16	0.156	
238	 2HB	2040.485	624.433	-2102.670	 H	16	ARG16	0.033	
239	 3HB	2039.019	625.391	-2102.604	 H	16	ARG16	0.033	
240	 2HG	2040.285	627.469	-2103.299	 H	16	ARG16	0.029	
241	 3HG	2041.789	626.545	-2103.389	 H	16	ARG16	0.029	
242	 2HD	2041.610	625.941	-2100.946	 H	16	ARG16	0.069	
243	 3HD	2040.088	626.859	-2100.826	 H	16	ARG16	0.069	
244	  HE	2042.118	628.656	-2101.953	 H	16	ARG16	0.346	
245	1HH1	2041.453	627.098	-2098.928	 H	16	ARG16	0.448	
246	2HH1	2042.312	628.406	-2097.980	 H	16	ARG16	0.448	
247	1HH2	2043.080	630.112	-2100.861	 H	16	ARG16	0.448	
248	2HH2	2043.182	630.023	-2099.047	 H	16	ARG16	0.448	
@<TRIPOS>BOND
1 1 2 1
2 1 10 1
3 2 3 1
4 2 5 1
5 2 11 1
6 3 4 2
7 3 16 1
8 5 6 1
9 6 7 1
10 7 8 2
11 7 9 1
12 5 12 1
13 5 13 1
14 6 14 1
15 6 15 1
16 16 17 1
17 16 24 1
18 17 18 1
19 17 20 1
20 17 25 1
21 18 19 2
22 18 30 1
23 20 21 1
24 21 22 1
25 21 23 2
26 20 26 1
27 20 27 1
28 22 28 1
29 22 29 1
30 30 31 1
31 30 36 1
32 31 32 1
33 31 34 1
34 31 37 1
35 32 33 2
36 32 44 1
37 34 35 1
38 35 36 1
39 34 38 1
40 34 39 1
41 35 40 1
42 35 41 1
43 36 42 1
44 36 43 1
45 44 45 1
46 44 53 1
47 45 46 1
48 45 48 1
49 45 54 1
50 46 47 2
51 46 59 1
52 48 49 1
53 49 50 1
54 50 51 2
55 50 52 1
56 48 55 1
57 48 56 1
58 49 57 1
59 49 58 1
60 59 60 1
61 59 65 1
62 60 61 1
63 60 63 1
64 60 66 1
65 61 62 2
66 61 70 1
67 63 64 1
68 63 67 1
69 63 68 1
70 64 69 1
71 70 71 1
72 70 78 1
73 71 72 1
74 71 74 1
75 71 79 1
76 72 73 2
77 72 89 1
78 74 75 1
79 74 76 1
80 75 77 1
81 74 80 1
82 75 81 1
83 75 82 1
84 76 83 1
85 76 84 1
86 76 85 1
87 77 86 1
88 77 87 1
89 77 88 1
90 89 90 1
91 89 97 1
92 90 91 1
93 90 93 1
94 90 98 1
95 91 92 2
96 91 108 1
97 93 94 1
98 94 95 1
99 94 96 1
100 93 99 1
101 93 100 1
102 94 101 1
103 95 102 1
104 95 103 1
105 95 104 1
106 96 105 1
107 96 106 1
108 96 107 1
109 108 109 1
110 108 116 1
111 109 110 1
112 109 112 1
113 109 117 1
114 110 111 2
115 110 120 1
116 112 113 1
117 113 114 2
118 113 115 1
119 112 118 1
120 112 119 1
121 120 121 1
122 120 129 1
123 121 122 1
124 121 124 1
125 121 130 1
126 122 123 2
127 122 135 1
128 124 125 1
129 125 126 1
130 126 127 2
131 126 128 1
132 124 131 1
133 124 132 1
134 125 133 1
135 125 134 1
136 135 136 1
137 135 145 1
138 136 137 1
139 136 139 1
140 136 146 1
141 137 138 2
142 137 152 1
143 139 140 1
144 140 141 2
145 141 144 1
146 140 142 1
147 142 143 2
148 143 144 1
149 139 147 1
150 139 148 1
151 141 149 1
152 143 150 1
153 144 151 1
154 152 153 1
155 152 159 1
156 153 154 1
157 153 156 1
158 153 160 1
159 154 155 2
160 154 168 1
161 156 157 1
162 156 158 1
163 156 161 1
164 157 162 1
165 157 163 1
166 157 164 1
167 158 165 1
168 158 166 1
169 158 167 1
170 168 169 1
171 168 177 1
172 169 170 1
173 169 172 1
174 169 178 1
175 170 171 2
176 170 185 1
177 172 173 1
178 173 174 1
179 174 175 1
180 174 176 2
181 172 179 1
182 172 180 1
183 173 181 1
184 173 182 1
185 175 183 1
186 175 184 1
187 185 186 1
188 185 189 1
189 186 187 1
190 186 190 1
191 186 191 1
192 187 188 2
193 187 192 1
194 192 193 1
195 192 199 1
196 193 194 1
197 193 196 1
198 193 200 1
199 194 195 2
200 194 208 1
201 196 197 1
202 196 198 1
203 196 201 1
204 197 202 1
205 197 203 1
206 197 204 1
207 198 205 1
208 198 206 1
209 198 207 1
210 208 209 1
211 208 216 1
212 209 210 1
213 209 212 1
214 209 217 1
215 210 211 2
216 210 225 1
217 212 213 1
218 213 214 1
219 214 215 1
220 212 218 1
221 212 219 1
222 213 220 1
223 213 221 1
224 215 222 1
225 215 223 1
226 215 224 1
227 225 226 1
228 225 236 1
229 226 227 1
230 226 229 1
231 226 237 1
232 227 228 2
233 229 230 1
234 230 231 1
235 231 232 1
236 232 233 1
237 233 234 2
238 233 235 1
239 229 238 1
240 229 239 1
241 230 240 1
242 230 241 1
243 231 242 1
244 231 243 1
245 232 244 1
246 234 245 1
247 234 246 1
248 235 247 1
249 235 248 1
@<TRIPOS>SUBSTRUCTURE
1	GLU1	1	RESIDUE	1 ****	GLU
2	ASN2	16	RESIDUE	1 ****	ASN
3	PRO3	30	RESIDUE	1 ****	PRO
4	GLU4	44	RESIDUE	1 ****	GLU
5	SER5	59	RESIDUE	1 ****	SER
6	ILE6	70	RESIDUE	1 ****	ILE
7	LEU7	89	RESIDUE	1 ****	LEU
8	ASP8	108	RESIDUE	1 ****	ASP
9	GLU9	120	RESIDUE	1 ****	GLU
10	HIS10	135	RESIDUE	1 ****	HIS
11	VAL11	152	RESIDUE	1 ****	VAL
12	GLN12	168	RESIDUE	1 ****	GLN
13	GLY13	185	RESIDUE	1 ****	GLY
14	VAL14	192	RESIDUE	1 ****	VAL
15	MET15	208	RESIDUE	1 ****	MET
16	ARG16	225	RESIDUE	1 ****	ARG
