@<TRIPOS>MOLECULE
11-9
270 272 16              
SMALL
USER_CHARGES
@<TRIPOS>ATOM
1	   N	1746.948	523.100	-1786.614	N.3	1	GLU1	-0.516	
2	  CA	1747.507	524.449	-1786.614	C.3	1	GLU1	0.040	
3	   C	1749.016	524.409	-1786.614	C.2	1	GLU1	0.537	
4	   O	1749.692	525.108	-1787.383	O.2	1	GLU1	-0.582	
5	  CB	1746.984	525.234	-1785.377	C.3	1	GLU1	0.056	
6	  CG	1747.459	526.719	-1785.266	C.3	1	GLU1	0.014	
7	  CD	1747.035	527.523	-1784.051	C.2	1	GLU1	0.805	
8	 OE1	1746.307	527.021	-1783.173	O.co2	1	GLU1	-0.819	
9	 OE2	1747.465	528.693	-1783.979	O.co2	1	GLU1	-0.819	
10	   H	1747.575	522.221	-1786.614	 H	1	GLU1	0.294	
11	  HA	1747.181	524.967	-1787.534	 H	1	GLU1	0.111	
12	 2HB	1747.273	524.703	-1784.447	 H	1	GLU1	-0.017	
13	 3HB	1745.877	525.224	-1785.364	 H	1	GLU1	-0.017	
14	 2HG	1747.149	527.304	-1786.147	 H	1	GLU1	-0.043	
15	 3HG	1748.559	526.786	-1785.237	 H	1	GLU1	-0.043	
16	   N	1749.621	523.623	-1785.789	N.am	2	ASN2	-0.416	
17	  CA	1751.080	523.584	-1785.789	C.3	2	ASN2	0.014	
18	   C	1751.611	523.229	-1787.158	C.2	2	ASN2	0.597	
19	   O	1752.526	523.859	-1787.686	O.2	2	ASN2	-0.568	
20	  CB	1751.572	522.561	-1784.725	C.3	2	ASN2	-0.204	
21	  CG	1751.109	522.785	-1783.281	C.2	2	ASN2	0.713	
22	 ND2	1751.703	523.700	-1782.563	N.pl3	2	ASN2	-0.919	
23	 OD1	1750.188	522.151	-1782.787	O.2	2	ASN2	-0.593	
24	   H	1749.092	523.043	-1785.152	 H	2	ASN2	0.272	
25	  HA	1751.457	524.594	-1785.544	 H	2	ASN2	0.105	
26	 2HB	1752.676	522.502	-1784.728	 H	2	ASN2	0.080	
27	 3HB	1751.243	521.543	-1785.010	 H	2	ASN2	0.080	
28	1HD2	1751.222	523.873	-1781.677	 H	2	ASN2	0.420	
29	2HD2	1752.405	524.272	-1783.032	 H	2	ASN2	0.420	
30	   N	1751.089	522.234	-1787.792	N.am	3	PRO3	-0.255	
31	  CA	1751.541	521.824	-1789.113	C.3	3	PRO3	-0.027	
32	   C	1751.143	522.848	-1790.190	C.2	3	PRO3	0.590	
33	   O	1751.967	523.231	-1791.022	O.2	3	PRO3	-0.575	
34	  CB	1750.837	520.470	-1789.282	C.3	3	PRO3	-0.007	
35	  CG	1749.554	520.622	-1788.452	C.3	3	PRO3	0.019	
36	  CD	1750.012	521.441	-1787.242	C.3	3	PRO3	0.019	
37	  HA	1752.627	521.704	-1789.127	 H	3	PRO3	0.064	
38	 2HB	1751.460	519.688	-1788.842	 H	3	PRO3	0.025	
39	 3HB	1750.639	520.221	-1790.328	 H	3	PRO3	0.025	
40	 2HG	1749.126	519.659	-1788.161	 H	3	PRO3	0.021	
41	 3HG	1748.816	521.193	-1789.020	 H	3	PRO3	0.021	
42	 2HD	1750.401	520.791	-1786.455	 H	3	PRO3	0.039	
43	 3HD	1749.215	522.076	-1786.849	 H	3	PRO3	0.039	
44	   N	1749.938	523.308	-1790.222	N.am	4	GLU4	-0.516	
45	  CA	1749.579	524.279	-1791.252	C.3	4	GLU4	0.040	
46	   C	1750.478	525.490	-1791.191	C.2	4	GLU4	0.537	
47	   O	1751.004	525.969	-1792.205	O.2	4	GLU4	-0.582	
48	  CB	1748.090	524.698	-1791.082	C.3	4	GLU4	0.056	
49	  CG	1747.542	525.701	-1792.147	C.3	4	GLU4	0.014	
50	  CD	1746.116	526.198	-1792.004	C.2	4	GLU4	0.805	
51	 OE1	1745.389	525.800	-1791.073	O.co2	4	GLU4	-0.819	
52	 OE2	1745.726	527.027	-1792.852	O.co2	4	GLU4	-0.819	
53	   H	1749.254	523.001	-1789.546	 H	4	GLU4	0.294	
54	  HA	1749.710	523.808	-1792.243	 H	4	GLU4	0.111	
55	 2HB	1747.938	525.137	-1790.075	 H	4	GLU4	-0.017	
56	 3HB	1747.442	523.800	-1791.088	 H	4	GLU4	-0.017	
57	 2HG	1747.624	525.286	-1793.165	 H	4	GLU4	-0.043	
58	 3HG	1748.130	526.633	-1792.158	 H	4	GLU4	-0.043	
59	   N	1750.705	526.043	-1790.048	N.am	5	SER5	-0.416	
60	  CA	1751.575	527.214	-1789.989	C.3	5	SER5	-0.025	
61	   C	1752.934	526.908	-1790.575	C.2	5	SER5	0.597	
62	   O	1753.481	527.662	-1791.380	O.2	5	SER5	-0.568	
63	  CB	1751.686	527.746	-1788.539	C.3	5	SER5	0.212	
64	  OG	1752.418	526.867	-1787.678	O.3	5	SER5	-0.655	
65	   H	1750.288	525.671	-1789.206	 H	5	SER5	0.272	
66	  HA	1751.125	528.004	-1790.619	 H	5	SER5	0.084	
67	 2HB	1750.686	527.940	-1788.105	 H	5	SER5	0.035	
68	 3HB	1752.191	528.732	-1788.541	 H	5	SER5	0.035	
69	  HG	1751.929	526.042	-1787.627	 H	5	SER5	0.428	
70	   N	1753.538	525.825	-1790.221	N.am	6	ILE6	-0.416	
71	  CA	1754.852	525.531	-1790.787	C.3	6	ILE6	-0.060	
72	   C	1754.794	525.493	-1792.295	C.2	6	ILE6	0.597	
73	   O	1755.629	526.081	-1792.999	O.2	6	ILE6	-0.568	
74	  CB	1755.451	524.194	-1790.187	C.3	6	ILE6	0.130	
75	 CG1	1755.471	524.132	-1788.626	C.3	6	ILE6	-0.043	
76	 CG2	1756.893	523.893	-1790.702	C.3	6	ILE6	-0.320	
77	 CD1	1755.741	522.743	-1788.011	C.3	6	ILE6	-0.066	
78	   H	1753.110	525.191	-1789.562	 H	6	ILE6	0.272	
79	  HA	1755.526	526.365	-1790.519	 H	6	ILE6	0.087	
80	  HB	1754.794	523.368	-1790.531	 H	6	ILE6	0.019	
81	2HG1	1754.489	524.452	-1788.230	 H	6	ILE6	0.024	
82	3HG1	1756.187	524.875	-1788.221	 H	6	ILE6	0.024	
83	1HG2	1756.952	523.799	-1791.801	 H	6	ILE6	0.088	
84	2HG2	1757.615	524.675	-1790.400	 H	6	ILE6	0.088	
85	3HG2	1757.283	522.931	-1790.323	 H	6	ILE6	0.088	
86	1HD1	1755.013	521.989	-1788.365	 H	6	ILE6	0.019	
87	2HD1	1756.752	522.365	-1788.247	 H	6	ILE6	0.019	
88	3HD1	1755.665	522.773	-1786.908	 H	6	ILE6	0.019	
89	   N	1753.849	524.829	-1792.868	N.am	7	LEU7	-0.416	
90	  CA	1753.794	524.793	-1794.327	C.3	7	LEU7	-0.052	
91	   C	1753.721	526.189	-1794.899	C.2	7	LEU7	0.597	
92	   O	1754.442	526.552	-1795.841	O.2	7	LEU7	-0.568	
93	  CB	1752.591	523.933	-1794.807	C.3	7	LEU7	-0.110	
94	  CG	1752.518	522.454	-1794.341	C.3	7	LEU7	0.353	
95	 CD1	1751.328	521.747	-1795.006	C.3	7	LEU7	-0.412	
96	 CD2	1753.812	521.675	-1794.632	C.3	7	LEU7	-0.412	
97	   H	1753.157	524.342	-1792.317	 H	7	LEU7	0.272	
98	  HA	1754.736	524.354	-1794.701	 H	7	LEU7	0.092	
99	 2HB	1752.568	523.949	-1795.915	 H	7	LEU7	0.046	
100	 3HB	1751.651	524.436	-1794.503	 H	7	LEU7	0.046	
101	  HG	1752.348	522.445	-1793.244	 H	7	LEU7	-0.036	
102	1HD1	1750.371	522.257	-1794.784	 H	7	LEU7	0.100	
103	2HD1	1751.428	521.707	-1796.108	 H	7	LEU7	0.100	
104	3HD1	1751.222	520.706	-1794.650	 H	7	LEU7	0.100	
105	1HD2	1754.087	521.705	-1795.702	 H	7	LEU7	0.100	
106	2HD2	1754.665	522.086	-1794.061	 H	7	LEU7	0.100	
107	3HD2	1753.731	520.612	-1794.336	 H	7	LEU7	0.100	
108	   N	1752.884	527.029	-1794.393	N.am	8	ASP8	-0.516	
109	  CA	1752.813	528.378	-1794.946	C.3	8	ASP8	0.038	
110	   C	1754.159	529.059	-1794.889	C.2	8	ASP8	0.537	
111	   O	1754.632	529.664	-1795.863	O.2	8	ASP8	-0.582	
112	  CB	1751.735	529.217	-1794.204	C.3	8	ASP8	-0.030	
113	  CG	1751.516	530.638	-1794.745	C.2	8	ASP8	0.799	
114	 OD1	1751.580	530.837	-1795.975	O.co2	8	ASP8	-0.801	
115	 OD2	1751.323	531.564	-1793.929	O.co2	8	ASP8	-0.801	
116	   H	1752.286	526.758	-1793.626	 H	8	ASP8	0.294	
117	  HA	1752.530	528.301	-1796.013	 H	8	ASP8	0.088	
118	 2HB	1751.992	529.300	-1793.132	 H	8	ASP8	-0.012	
119	 3HB	1750.756	528.712	-1794.237	 H	8	ASP8	-0.012	
120	   N	1754.839	529.009	-1793.794	N.am	9	GLU9	-0.516	
121	  CA	1756.142	529.667	-1793.738	C.3	9	GLU9	0.040	
122	   C	1757.060	529.140	-1794.814	C.2	9	GLU9	0.537	
123	   O	1757.723	529.895	-1795.540	O.2	9	GLU9	-0.582	
124	  CB	1756.776	529.459	-1792.333	C.3	9	GLU9	0.056	
125	  CG	1758.158	530.152	-1792.104	C.3	9	GLU9	0.014	
126	  CD	1758.860	529.939	-1790.776	C.2	9	GLU9	0.805	
127	 OE1	1758.339	529.248	-1789.879	O.co2	9	GLU9	-0.819	
128	 OE2	1759.979	530.477	-1790.644	O.co2	9	GLU9	-0.819	
129	   H	1754.476	528.522	-1792.987	 H	9	GLU9	0.294	
130	  HA	1755.999	530.749	-1793.914	 H	9	GLU9	0.111	
131	 2HB	1756.889	528.375	-1792.130	 H	9	GLU9	-0.017	
132	 3HB	1756.078	529.812	-1791.549	 H	9	GLU9	-0.017	
133	 2HG	1758.086	531.243	-1792.243	 H	9	GLU9	-0.043	
134	 3HG	1758.905	529.808	-1792.838	 H	9	GLU9	-0.043	
135	   N	1757.157	527.865	-1794.984	N.am	10	HIS10	-0.416	
136	  CA	1758.045	527.354	-1796.025	C.3	10	HIS10	-0.058	
137	   C	1757.678	527.919	-1797.376	C.2	10	HIS10	0.597	
138	   O	1758.530	528.384	-1798.147	O.2	10	HIS10	-0.568	
139	  CB	1757.882	525.825	-1796.020	C.3	10	HIS10	-0.007	
140	  CG	1759.168	525.115	-1795.713	C.2	10	HIS10	0.187	
141	 CD2	1759.549	524.780	-1794.420	C.2	10	HIS10	-0.221	
142	 ND1	1760.120	524.710	-1796.645	N.2	10	HIS10	-0.543	
143	 CE1	1761.027	524.152	-1795.822	C.2	10	HIS10	0.163	
144	 NE2	1760.764	524.149	-1794.487	N.pl3	10	HIS10	-0.280	
145	   H	1756.627	527.229	-1794.406	 H	10	HIS10	0.272	
146	  HA	1759.064	527.712	-1795.800	 H	10	HIS10	0.136	
147	 2HB	1757.517	525.458	-1797.000	 H	10	HIS10	0.037	
148	 3HB	1757.127	525.487	-1795.280	 H	10	HIS10	0.037	
149	 2HD	1758.964	524.995	-1793.531	 H	10	HIS10	0.186	
150	 1HE	1761.918	523.732	-1796.270	 H	10	HIS10	0.144	
151	 2HE	1761.332	523.772	-1793.714	 H	10	HIS10	0.334	
152	   N	1756.440	527.917	-1797.739	N.am	11	TYR11	-0.416	
153	  CA	1756.085	528.463	-1799.045	C.3	11	TYR11	-0.001	
154	   C	1756.548	529.894	-1799.177	C.2	11	TYR11	0.597	
155	   O	1757.147	530.297	-1800.178	O.2	11	TYR11	-0.568	
156	  CB	1754.543	528.437	-1799.258	C.3	11	TYR11	-0.015	
157	  CG	1753.870	527.058	-1799.248	C.2	11	TYR11	-0.001	
158	 CD1	1753.940	526.224	-1800.369	C.2	11	TYR11	-0.191	
159	 CD2	1753.189	526.626	-1798.107	C.2	11	TYR11	-0.191	
160	 CE1	1753.338	524.969	-1800.343	C.2	11	TYR11	-0.234	
161	 CE2	1752.588	525.371	-1798.083	C.2	11	TYR11	-0.234	
162	  CZ	1752.663	524.543	-1799.202	C.2	11	TYR11	0.323	
163	  OH	1752.076	523.310	-1799.180	O.3	11	TYR11	-0.558	
164	   H	1755.727	527.544	-1797.128	 H	11	TYR11	0.272	
165	  HA	1756.587	527.869	-1799.831	 H	11	TYR11	0.088	
166	 2HB	1754.291	528.923	-1800.221	 H	11	TYR11	0.030	
167	 3HB	1754.057	529.091	-1798.504	 H	11	TYR11	0.030	
168	 1HD	1754.467	526.544	-1801.257	 H	11	TYR11	0.170	
169	 2HD	1753.136	527.258	-1797.232	 H	11	TYR11	0.170	
170	 1HE	1753.396	524.321	-1801.204	 H	11	TYR11	0.166	
171	 2HE	1752.070	525.046	-1797.194	 H	11	TYR11	0.166	
172	  HH	1751.663	523.185	-1798.323	 H	11	TYR11	0.399	
173	   N	1756.310	530.720	-1798.215	N.am	12	GLN12	-0.416	
174	  CA	1756.758	532.103	-1798.343	C.3	12	GLN12	-0.003	
175	   C	1758.248	532.171	-1798.580	C.2	12	GLN12	0.597	
176	   O	1758.735	532.879	-1799.459	O.2	12	GLN12	-0.568	
177	  CB	1756.367	532.870	-1797.060	C.3	12	GLN12	-0.004	
178	  CG	1756.727	534.392	-1797.029	C.3	12	GLN12	-0.064	
179	  CD	1756.424	535.206	-1795.765	C.2	12	GLN12	0.695	
180	 NE2	1755.857	534.630	-1794.736	N.pl3	12	GLN12	-0.941	
181	 OE1	1756.725	536.387	-1795.688	O.2	12	GLN12	-0.609	
182	   H	1755.822	530.414	-1797.386	 H	12	GLN12	0.272	
183	  HA	1756.259	532.559	-1799.218	 H	12	GLN12	0.085	
184	 2HB	1756.843	532.371	-1796.191	 H	12	GLN12	0.017	
185	 3HB	1755.277	532.763	-1796.897	 H	12	GLN12	0.017	
186	 2HG	1756.249	534.913	-1797.880	 H	12	GLN12	0.035	
187	 3HG	1757.810	534.535	-1797.195	 H	12	GLN12	0.035	
188	1HE2	1755.750	535.224	-1793.912	 H	12	GLN12	0.425	
189	2HE2	1755.694	533.626	-1794.839	 H	12	GLN12	0.425	
190	   N	1759.033	531.464	-1797.839	N.am	13	ARG13	-0.348	
191	  CA	1760.473	531.531	-1798.070	C.3	13	ARG13	-0.264	
192	   C	1760.810	531.159	-1799.495	C.2	13	ARG13	0.734	
193	   O	1761.578	531.831	-1800.179	O.2	13	ARG13	-0.589	
194	  CB	1761.187	530.592	-1797.056	C.3	13	ARG13	-0.001	
195	  CG	1762.732	530.746	-1796.975	C.3	13	ARG13	0.039	
196	  CD	1763.359	529.759	-1795.977	C.3	13	ARG13	0.049	
197	  NE	1764.836	529.967	-1795.926	N.pl3	13	ARG13	-0.530	
198	  CZ	1765.685	529.276	-1795.171	C.cat	13	ARG13	0.808	
199	 NH1	1765.320	528.312	-1794.373	N.pl3	13	ARG13	-0.863	
200	 NH2	1766.944	529.576	-1795.228	N.pl3	13	ARG13	-0.863	
201	   H	1758.657	530.875	-1797.111	 H	13	ARG13	0.275	
202	  HA	1760.797	532.577	-1797.912	 H	13	ARG13	0.156	
203	 2HB	1760.921	529.542	-1797.295	 H	13	ARG13	0.033	
204	 3HB	1760.762	530.759	-1796.045	 H	13	ARG13	0.033	
205	 2HG	1762.979	531.791	-1796.696	 H	13	ARG13	0.029	
206	 3HG	1763.183	530.590	-1797.976	 H	13	ARG13	0.029	
207	 2HD	1763.115	528.719	-1796.285	 H	13	ARG13	0.069	
208	 3HD	1762.902	529.905	-1794.974	 H	13	ARG13	0.069	
209	  HE	1765.287	530.690	-1796.497	 H	13	ARG13	0.346	
210	1HH1	1764.315	528.125	-1794.376	 H	13	ARG13	0.448	
211	2HH1	1766.033	527.829	-1793.824	 H	13	ARG13	0.448	
212	1HH2	1767.211	530.334	-1795.859	 H	13	ARG13	0.448	
213	2HH2	1767.579	529.035	-1794.639	 H	13	ARG13	0.448	
214	   N	1760.274	530.104	-1800.009	N.am	14	VAL14	-0.416	
215	  CA	1760.599	529.745	-1801.386	C.3	14	VAL14	-0.087	
216	   C	1760.269	530.875	-1802.332	C.2	14	VAL14	0.597	
217	   O	1761.062	531.256	-1803.202	O.2	14	VAL14	-0.568	
218	  CB	1759.828	528.427	-1801.793	C.3	14	VAL14	0.299	
219	 CG1	1759.917	528.009	-1803.286	C.3	14	VAL14	-0.319	
220	 CG2	1760.260	527.176	-1800.992	C.3	14	VAL14	-0.319	
221	   H	1759.640	529.536	-1799.467	 H	14	VAL14	0.272	
222	  HA	1761.688	529.569	-1801.461	 H	14	VAL14	0.097	
223	  HB	1758.751	528.598	-1801.577	 H	14	VAL14	-0.030	
224	1HG1	1760.959	527.832	-1803.615	 H	14	VAL14	0.079	
225	2HG1	1759.345	527.085	-1803.499	 H	14	VAL14	0.079	
226	3HG1	1759.488	528.770	-1803.965	 H	14	VAL14	0.079	
227	1HG2	1760.173	527.334	-1799.902	 H	14	VAL14	0.079	
228	2HG2	1759.625	526.299	-1801.224	 H	14	VAL14	0.079	
229	3HG2	1761.308	526.886	-1801.198	 H	14	VAL14	0.079	
230	   N	1759.124	531.460	-1802.231	N.am	15	MET15	-0.416	
231	  CA	1758.803	532.552	-1803.145	C.3	15	MET15	-0.024	
232	   C	1759.833	533.652	-1803.057	C.2	15	MET15	0.597	
233	   O	1760.335	534.163	-1804.070	O.2	15	MET15	-0.568	
234	  CB	1757.381	533.097	-1802.836	C.3	15	MET15	0.034	
235	  CG	1756.220	532.099	-1803.027	C.3	15	MET15	0.002	
236	  SD	1754.646	532.964	-1802.913	S.3	15	MET15	-0.274	
237	  CE	1753.565	531.534	-1802.776	C.3	15	MET15	-0.054	
238	   H	1758.459	531.167	-1801.529	 H	15	MET15	0.272	
239	  HA	1758.829	532.165	-1804.180	 H	15	MET15	0.088	
240	 2HB	1757.179	533.976	-1803.478	 H	15	MET15	0.024	
241	 3HB	1757.345	533.490	-1801.800	 H	15	MET15	0.024	
242	 2HG	1756.263	531.313	-1802.249	 H	15	MET15	0.044	
243	 3HG	1756.283	531.583	-1804.004	 H	15	MET15	0.044	
244	 1HE	1753.709	530.846	-1803.629	 H	15	MET15	0.068	
245	 2HE	1753.774	530.982	-1801.843	 H	15	MET15	0.068	
246	 3HE	1752.507	531.849	-1802.760	 H	15	MET15	0.068	
247	   N	1760.201	534.074	-1801.895	N.am	16	ARG16	-0.348	
248	  CA	1761.197	535.138	-1801.812	C.3	16	ARG16	-0.264	
249	   C	1762.468	534.746	-1802.528	C.2	16	ARG16	0.734	
250	   O	1762.582	533.670	-1803.109	O.2	16	ARG16	-0.589	
251	  CB	1761.466	535.456	-1800.313	C.3	16	ARG16	-0.001	
252	  CG	1762.291	536.746	-1800.041	C.3	16	ARG16	0.039	
253	  CD	1762.541	536.965	-1798.540	C.3	16	ARG16	0.049	
254	  NE	1763.316	538.225	-1798.339	N.pl3	16	ARG16	-0.530	
255	  CZ	1763.708	538.707	-1797.163	C.cat	16	ARG16	0.808	
256	 NH1	1763.460	538.123	-1796.025	N.pl3	16	ARG16	-0.863	
257	 NH2	1764.371	539.820	-1797.145	N.pl3	16	ARG16	-0.863	
258	   H	1759.807	533.674	-1801.056	 H	16	ARG16	0.275	
259	  HA	1760.788	536.031	-1802.322	 H	16	ARG16	0.156	
260	 2HB	1761.964	534.581	-1799.847	 H	16	ARG16	0.033	
261	 3HB	1760.498	535.537	-1799.779	 H	16	ARG16	0.033	
262	 2HG	1761.760	537.616	-1800.478	 H	16	ARG16	0.029	
263	 3HG	1763.265	536.693	-1800.570	 H	16	ARG16	0.029	
264	 2HD	1763.090	536.091	-1798.126	 H	16	ARG16	0.069	
265	 3HD	1761.568	537.008	-1798.004	 H	16	ARG16	0.069	
266	  HE	1763.595	538.806	-1799.136	 H	16	ARG16	0.346	
267	1HH1	1762.935	537.250	-1796.109	 H	16	ARG16	0.448	
268	2HH1	1763.795	538.559	-1795.163	 H	16	ARG16	0.448	
269	1HH2	1764.556	540.263	-1798.047	 H	16	ARG16	0.448	
270	2HH2	1764.661	540.175	-1796.232	 H	16	ARG16	0.448	
@<TRIPOS>BOND
1 1 2 1
2 1 10 1
3 2 3 1
4 2 5 1
5 2 11 1
6 3 4 2
7 3 16 1
8 5 6 1
9 6 7 1
10 7 8 2
11 7 9 1
12 5 12 1
13 5 13 1
14 6 14 1
15 6 15 1
16 16 17 1
17 16 24 1
18 17 18 1
19 17 20 1
20 17 25 1
21 18 19 2
22 18 30 1
23 20 21 1
24 21 22 1
25 21 23 2
26 20 26 1
27 20 27 1
28 22 28 1
29 22 29 1
30 30 31 1
31 30 36 1
32 31 32 1
33 31 34 1
34 31 37 1
35 32 33 2
36 32 44 1
37 34 35 1
38 35 36 1
39 34 38 1
40 34 39 1
41 35 40 1
42 35 41 1
43 36 42 1
44 36 43 1
45 44 45 1
46 44 53 1
47 45 46 1
48 45 48 1
49 45 54 1
50 46 47 2
51 46 59 1
52 48 49 1
53 49 50 1
54 50 51 2
55 50 52 1
56 48 55 1
57 48 56 1
58 49 57 1
59 49 58 1
60 59 60 1
61 59 65 1
62 60 61 1
63 60 63 1
64 60 66 1
65 61 62 2
66 61 70 1
67 63 64 1
68 63 67 1
69 63 68 1
70 64 69 1
71 70 71 1
72 70 78 1
73 71 72 1
74 71 74 1
75 71 79 1
76 72 73 2
77 72 89 1
78 74 75 1
79 74 76 1
80 75 77 1
81 74 80 1
82 75 81 1
83 75 82 1
84 76 83 1
85 76 84 1
86 76 85 1
87 77 86 1
88 77 87 1
89 77 88 1
90 89 90 1
91 89 97 1
92 90 91 1
93 90 93 1
94 90 98 1
95 91 92 2
96 91 108 1
97 93 94 1
98 94 95 1
99 94 96 1
100 93 99 1
101 93 100 1
102 94 101 1
103 95 102 1
104 95 103 1
105 95 104 1
106 96 105 1
107 96 106 1
108 96 107 1
109 108 109 1
110 108 116 1
111 109 110 1
112 109 112 1
113 109 117 1
114 110 111 2
115 110 120 1
116 112 113 1
117 113 114 2
118 113 115 1
119 112 118 1
120 112 119 1
121 120 121 1
122 120 129 1
123 121 122 1
124 121 124 1
125 121 130 1
126 122 123 2
127 122 135 1
128 124 125 1
129 125 126 1
130 126 127 2
131 126 128 1
132 124 131 1
133 124 132 1
134 125 133 1
135 125 134 1
136 135 136 1
137 135 145 1
138 136 137 1
139 136 139 1
140 136 146 1
141 137 138 2
142 137 152 1
143 139 140 1
144 140 141 2
145 141 144 1
146 140 142 1
147 142 143 2
148 143 144 1
149 139 147 1
150 139 148 1
151 141 149 1
152 143 150 1
153 144 151 1
154 152 153 1
155 152 164 1
156 153 154 1
157 153 156 1
158 153 165 1
159 154 155 2
160 154 173 1
161 156 157 1
162 157 158 2
163 157 159 1
164 159 161 2
165 158 160 1
166 161 162 1
167 160 162 2
168 162 163 1
169 156 166 1
170 156 167 1
171 158 168 1
172 159 169 1
173 160 170 1
174 161 171 1
175 163 172 1
176 173 174 1
177 173 182 1
178 174 175 1
179 174 177 1
180 174 183 1
181 175 176 2
182 175 190 1
183 177 178 1
184 178 179 1
185 179 180 1
186 179 181 2
187 177 184 1
188 177 185 1
189 178 186 1
190 178 187 1
191 180 188 1
192 180 189 1
193 190 191 1
194 190 201 1
195 191 192 1
196 191 194 1
197 191 202 1
198 192 193 2
199 192 214 1
200 194 195 1
201 195 196 1
202 196 197 1
203 197 198 1
204 198 199 2
205 198 200 1
206 194 203 1
207 194 204 1
208 195 205 1
209 195 206 1
210 196 207 1
211 196 208 1
212 197 209 1
213 199 210 1
214 199 211 1
215 200 212 1
216 200 213 1
217 214 215 1
218 214 221 1
219 215 216 1
220 215 218 1
221 215 222 1
222 216 217 2
223 216 230 1
224 218 219 1
225 218 220 1
226 218 223 1
227 219 224 1
228 219 225 1
229 219 226 1
230 220 227 1
231 220 228 1
232 220 229 1
233 230 231 1
234 230 238 1
235 231 232 1
236 231 234 1
237 231 239 1
238 232 233 2
239 232 247 1
240 234 235 1
241 235 236 1
242 236 237 1
243 234 240 1
244 234 241 1
245 235 242 1
246 235 243 1
247 237 244 1
248 237 245 1
249 237 246 1
250 247 248 1
251 247 258 1
252 248 249 1
253 248 251 1
254 248 259 1
255 249 250 2
256 251 252 1
257 252 253 1
258 253 254 1
259 254 255 1
260 255 256 2
261 255 257 1
262 251 260 1
263 251 261 1
264 252 262 1
265 252 263 1
266 253 264 1
267 253 265 1
268 254 266 1
269 256 267 1
270 256 268 1
271 257 269 1
272 257 270 1
@<TRIPOS>SUBSTRUCTURE
1	GLU1	1	RESIDUE	1 ****	GLU
2	ASN2	16	RESIDUE	1 ****	ASN
3	PRO3	30	RESIDUE	1 ****	PRO
4	GLU4	44	RESIDUE	1 ****	GLU
5	SER5	59	RESIDUE	1 ****	SER
6	ILE6	70	RESIDUE	1 ****	ILE
7	LEU7	89	RESIDUE	1 ****	LEU
8	ASP8	108	RESIDUE	1 ****	ASP
9	GLU9	120	RESIDUE	1 ****	GLU
10	HIS10	135	RESIDUE	1 ****	HIS
11	TYR11	152	RESIDUE	1 ****	TYR
12	GLN12	173	RESIDUE	1 ****	GLN
13	ARG13	190	RESIDUE	1 ****	ARG
14	VAL14	214	RESIDUE	1 ****	VAL
15	MET15	230	RESIDUE	1 ****	MET
16	ARG16	247	RESIDUE	1 ****	ARG
