@<TRIPOS>MOLECULE
16-2
255 257 16              
SMALL
USER_CHARGES
@<TRIPOS>ATOM
1	   N	2506.363	769.682	-2613.379	N.3	1	GLU1	-0.516	
2	  CA	2506.922	771.031	-2613.379	C.3	1	GLU1	0.040	
3	   C	2508.431	770.991	-2613.379	C.2	1	GLU1	0.537	
4	   O	2509.107	771.690	-2614.147	O.2	1	GLU1	-0.582	
5	  CB	2506.399	771.816	-2612.142	C.3	1	GLU1	0.056	
6	  CG	2506.874	773.301	-2612.031	C.3	1	GLU1	0.014	
7	  CD	2506.450	774.105	-2610.816	C.2	1	GLU1	0.805	
8	 OE1	2505.722	773.603	-2609.938	O.co2	1	GLU1	-0.819	
9	 OE2	2506.880	775.275	-2610.744	O.co2	1	GLU1	-0.819	
10	   H	2506.990	768.803	-2613.379	 H	1	GLU1	0.294	
11	  HA	2506.596	771.549	-2614.299	 H	1	GLU1	0.111	
12	 2HB	2506.688	771.285	-2611.212	 H	1	GLU1	-0.017	
13	 3HB	2505.292	771.806	-2612.129	 H	1	GLU1	-0.017	
14	 2HG	2506.564	773.886	-2612.912	 H	1	GLU1	-0.043	
15	 3HG	2507.974	773.368	-2612.002	 H	1	GLU1	-0.043	
16	   N	2509.035	770.205	-2612.554	N.am	2	ASN2	-0.416	
17	  CA	2510.495	770.166	-2612.553	C.3	2	ASN2	0.014	
18	   C	2511.026	769.810	-2613.922	C.2	2	ASN2	0.597	
19	   O	2511.941	770.441	-2614.450	O.2	2	ASN2	-0.568	
20	  CB	2510.986	769.143	-2611.489	C.3	2	ASN2	-0.204	
21	  CG	2510.523	769.367	-2610.046	C.2	2	ASN2	0.713	
22	 ND2	2511.117	770.282	-2609.327	N.pl3	2	ASN2	-0.919	
23	 OD1	2509.602	768.733	-2609.552	O.2	2	ASN2	-0.593	
24	   H	2508.507	769.625	-2611.917	 H	2	ASN2	0.272	
25	  HA	2510.872	771.176	-2612.308	 H	2	ASN2	0.105	
26	 2HB	2512.091	769.084	-2611.492	 H	2	ASN2	0.080	
27	 3HB	2510.657	768.125	-2611.775	 H	2	ASN2	0.080	
28	1HD2	2510.636	770.455	-2608.441	 H	2	ASN2	0.420	
29	2HD2	2511.819	770.853	-2609.796	 H	2	ASN2	0.420	
30	   N	2510.505	768.816	-2614.556	N.am	3	PRO3	-0.255	
31	  CA	2510.957	768.406	-2615.878	C.3	3	PRO3	-0.027	
32	   C	2510.559	769.430	-2616.955	C.2	3	PRO3	0.590	
33	   O	2511.383	769.813	-2617.786	O.2	3	PRO3	-0.575	
34	  CB	2510.252	767.052	-2616.047	C.3	3	PRO3	-0.007	
35	  CG	2508.969	767.204	-2615.218	C.3	3	PRO3	0.019	
36	  CD	2509.426	768.023	-2614.008	C.3	3	PRO3	0.019	
37	  HA	2512.043	768.286	-2615.891	 H	3	PRO3	0.064	
38	 2HB	2510.875	766.271	-2615.606	 H	3	PRO3	0.025	
39	 3HB	2510.054	766.803	-2617.093	 H	3	PRO3	0.025	
40	 2HG	2508.541	766.242	-2614.927	 H	3	PRO3	0.021	
41	 3HG	2508.232	767.775	-2615.785	 H	3	PRO3	0.021	
42	 2HD	2509.815	767.373	-2613.220	 H	3	PRO3	0.039	
43	 3HD	2508.630	768.659	-2613.615	 H	3	PRO3	0.039	
44	   N	2509.354	769.890	-2616.988	N.am	4	GLU4	-0.516	
45	  CA	2508.995	770.861	-2618.017	C.3	4	GLU4	0.040	
46	   C	2509.894	772.072	-2617.956	C.2	4	GLU4	0.537	
47	   O	2510.421	772.551	-2618.970	O.2	4	GLU4	-0.582	
48	  CB	2507.507	771.280	-2617.848	C.3	4	GLU4	0.056	
49	  CG	2506.959	772.284	-2618.913	C.3	4	GLU4	0.014	
50	  CD	2505.533	772.781	-2618.770	C.2	4	GLU4	0.805	
51	 OE1	2504.806	772.383	-2617.840	O.co2	4	GLU4	-0.819	
52	 OE2	2505.144	773.610	-2619.619	O.co2	4	GLU4	-0.819	
53	   H	2508.670	769.584	-2616.311	 H	4	GLU4	0.294	
54	  HA	2509.127	770.391	-2619.009	 H	4	GLU4	0.111	
55	 2HB	2507.354	771.720	-2616.841	 H	4	GLU4	-0.017	
56	 3HB	2506.859	770.382	-2617.854	 H	4	GLU4	-0.017	
57	 2HG	2507.041	771.869	-2619.931	 H	4	GLU4	-0.043	
58	 3HG	2507.548	773.216	-2618.924	 H	4	GLU4	-0.043	
59	   N	2510.121	772.625	-2616.812	N.am	5	SER5	-0.416	
60	  CA	2510.991	773.796	-2616.754	C.3	5	SER5	-0.025	
61	   C	2512.350	773.490	-2617.339	C.2	5	SER5	0.597	
62	   O	2512.898	774.243	-2618.144	O.2	5	SER5	-0.568	
63	  CB	2511.103	774.328	-2615.303	C.3	5	SER5	0.212	
64	  OG	2511.833	773.448	-2614.442	O.3	5	SER5	-0.655	
65	   H	2509.704	772.253	-2615.971	 H	5	SER5	0.272	
66	  HA	2510.542	774.586	-2617.383	 H	5	SER5	0.084	
67	 2HB	2510.103	774.522	-2614.870	 H	5	SER5	0.035	
68	 3HB	2511.608	775.313	-2615.305	 H	5	SER5	0.035	
69	  HG	2511.344	772.623	-2614.391	 H	5	SER5	0.428	
70	   N	2512.954	772.406	-2616.985	N.am	6	ILE6	-0.416	
71	  CA	2514.268	772.111	-2617.551	C.3	6	ILE6	-0.060	
72	   C	2514.210	772.073	-2619.058	C.2	6	ILE6	0.597	
73	   O	2515.045	772.660	-2619.762	O.2	6	ILE6	-0.568	
74	  CB	2514.867	770.774	-2616.950	C.3	6	ILE6	0.130	
75	 CG1	2514.885	770.712	-2615.389	C.3	6	ILE6	-0.043	
76	 CG2	2516.308	770.472	-2617.465	C.3	6	ILE6	-0.320	
77	 CD1	2515.155	769.323	-2614.774	C.3	6	ILE6	-0.066	
78	   H	2512.525	771.772	-2616.326	 H	6	ILE6	0.272	
79	  HA	2514.942	772.945	-2617.283	 H	6	ILE6	0.087	
80	  HB	2514.208	769.949	-2617.295	 H	6	ILE6	0.019	
81	2HG1	2513.904	771.032	-2614.994	 H	6	ILE6	0.024	
82	3HG1	2515.602	771.454	-2614.984	 H	6	ILE6	0.024	
83	1HG2	2516.367	770.379	-2618.563	 H	6	ILE6	0.088	
84	2HG2	2517.030	771.254	-2617.163	 H	6	ILE6	0.088	
85	3HG2	2516.698	769.510	-2617.086	 H	6	ILE6	0.088	
86	1HD1	2514.426	768.569	-2615.129	 H	6	ILE6	0.019	
87	2HD1	2516.165	768.944	-2615.010	 H	6	ILE6	0.019	
88	3HD1	2515.078	769.353	-2613.672	 H	6	ILE6	0.019	
89	   N	2513.264	771.410	-2619.632	N.am	7	LEU7	-0.416	
90	  CA	2513.209	771.374	-2621.090	C.3	7	LEU7	-0.052	
91	   C	2513.137	772.769	-2621.663	C.2	7	LEU7	0.597	
92	   O	2513.858	773.131	-2622.606	O.2	7	LEU7	-0.568	
93	  CB	2512.006	770.514	-2621.571	C.3	7	LEU7	-0.110	
94	  CG	2511.933	769.035	-2621.104	C.3	7	LEU7	0.353	
95	 CD1	2510.743	768.329	-2621.770	C.3	7	LEU7	-0.412	
96	 CD2	2513.226	768.255	-2621.396	C.3	7	LEU7	-0.412	
97	   H	2512.572	770.923	-2619.081	 H	7	LEU7	0.272	
98	  HA	2514.151	770.933	-2621.465	 H	7	LEU7	0.092	
99	 2HB	2511.983	770.530	-2622.678	 H	7	LEU7	0.046	
100	 3HB	2511.066	771.017	-2621.267	 H	7	LEU7	0.046	
101	  HG	2511.763	769.027	-2620.007	 H	7	LEU7	-0.036	
102	1HD1	2509.786	768.838	-2621.547	 H	7	LEU7	0.100	
103	2HD1	2510.842	768.289	-2622.871	 H	7	LEU7	0.100	
104	3HD1	2510.635	767.288	-2621.414	 H	7	LEU7	0.100	
105	1HD2	2513.501	768.285	-2622.466	 H	7	LEU7	0.100	
106	2HD2	2514.080	768.666	-2620.824	 H	7	LEU7	0.100	
107	3HD2	2513.145	767.193	-2621.100	 H	7	LEU7	0.100	
108	   N	2512.301	773.610	-2621.157	N.am	8	ASP8	-0.516	
109	  CA	2512.231	774.960	-2621.711	C.3	8	ASP8	0.038	
110	   C	2513.578	775.639	-2621.655	C.2	8	ASP8	0.537	
111	   O	2514.051	776.243	-2622.630	O.2	8	ASP8	-0.582	
112	  CB	2511.153	775.800	-2620.970	C.3	8	ASP8	-0.030	
113	  CG	2510.935	777.220	-2621.512	C.2	8	ASP8	0.799	
114	 OD1	2511.000	777.418	-2622.743	O.co2	8	ASP8	-0.801	
115	 OD2	2510.744	778.147	-2620.697	O.co2	8	ASP8	-0.801	
116	   H	2511.703	773.340	-2620.390	 H	8	ASP8	0.294	
117	  HA	2511.948	774.881	-2622.779	 H	8	ASP8	0.088	
118	 2HB	2511.410	775.883	-2619.899	 H	8	ASP8	-0.012	
119	 3HB	2510.174	775.295	-2621.003	 H	8	ASP8	-0.012	
120	   N	2514.258	775.589	-2620.560	N.am	9	GLU9	-0.516	
121	  CA	2515.561	776.246	-2620.505	C.3	9	GLU9	0.040	
122	   C	2516.479	775.717	-2621.581	C.2	9	GLU9	0.537	
123	   O	2517.142	776.471	-2622.307	O.2	9	GLU9	-0.582	
124	  CB	2516.195	776.039	-2619.100	C.3	9	GLU9	0.056	
125	  CG	2517.578	776.731	-2618.871	C.3	9	GLU9	0.014	
126	  CD	2518.280	776.517	-2617.542	C.2	9	GLU9	0.805	
127	 OE1	2517.758	775.827	-2616.646	O.co2	9	GLU9	-0.819	
128	 OE2	2519.399	777.055	-2617.411	O.co2	9	GLU9	-0.819	
129	   H	2513.894	775.103	-2619.752	 H	9	GLU9	0.294	
130	  HA	2515.419	777.328	-2620.681	 H	9	GLU9	0.111	
131	 2HB	2516.307	774.954	-2618.896	 H	9	GLU9	-0.017	
132	 3HB	2515.498	776.393	-2618.315	 H	9	GLU9	-0.017	
133	 2HG	2517.506	777.821	-2619.011	 H	9	GLU9	-0.043	
134	 3HG	2518.324	776.385	-2619.605	 H	9	GLU9	-0.043	
135	   N	2516.574	774.442	-2621.750	N.am	10	HIS10	-0.416	
136	  CA	2517.462	773.930	-2622.790	C.3	10	HIS10	-0.058	
137	   C	2517.095	774.494	-2624.141	C.2	10	HIS10	0.597	
138	   O	2517.948	774.958	-2624.914	O.2	10	HIS10	-0.568	
139	  CB	2517.297	772.401	-2622.784	C.3	10	HIS10	-0.007	
140	  CG	2518.583	771.690	-2622.476	C.2	10	HIS10	0.187	
141	 CD2	2518.964	771.356	-2621.184	C.2	10	HIS10	-0.221	
142	 ND1	2519.534	771.284	-2623.409	N.2	10	HIS10	-0.543	
143	 CE1	2520.440	770.725	-2622.586	C.2	10	HIS10	0.163	
144	 NE2	2520.178	770.723	-2621.250	N.pl3	10	HIS10	-0.280	
145	   H	2516.044	773.807	-2621.171	 H	10	HIS10	0.272	
146	  HA	2518.481	774.287	-2622.566	 H	10	HIS10	0.136	
147	 2HB	2516.931	772.034	-2623.764	 H	10	HIS10	0.037	
148	 3HB	2516.542	772.065	-2622.044	 H	10	HIS10	0.037	
149	 2HD	2518.379	771.571	-2620.295	 H	10	HIS10	0.186	
150	 1HE	2521.331	770.304	-2623.033	 H	10	HIS10	0.144	
151	 2HE	2520.745	770.346	-2620.477	 H	10	HIS10	0.334	
152	   N	2515.857	774.494	-2624.504	N.am	11	VAL11	-0.416	
153	  CA	2515.502	775.039	-2625.811	C.3	11	VAL11	-0.087	
154	   C	2515.967	776.469	-2625.945	C.2	11	VAL11	0.597	
155	   O	2516.568	776.874	-2626.948	O.2	11	VAL11	-0.568	
156	  CB	2513.940	774.933	-2626.030	C.3	11	VAL11	0.299	
157	 CG1	2513.372	775.637	-2627.293	C.3	11	VAL11	-0.319	
158	 CG2	2513.415	773.479	-2626.102	C.3	11	VAL11	-0.319	
159	   H	2515.144	774.121	-2623.893	 H	11	VAL11	0.272	
160	  HA	2516.021	774.456	-2626.594	 H	11	VAL11	0.097	
161	  HB	2513.453	775.414	-2625.155	 H	11	VAL11	-0.030	
162	1HG1	2513.810	775.244	-2628.230	 H	11	VAL11	0.079	
163	2HG1	2512.273	775.530	-2627.375	 H	11	VAL11	0.079	
164	3HG1	2513.551	776.729	-2627.285	 H	11	VAL11	0.079	
165	1HG2	2513.705	772.892	-2625.211	 H	11	VAL11	0.079	
166	2HG2	2512.309	773.443	-2626.145	 H	11	VAL11	0.079	
167	3HG2	2513.797	772.938	-2626.989	 H	11	VAL11	0.079	
168	   N	2515.731	777.296	-2624.982	N.am	12	GLN12	-0.416	
169	  CA	2516.180	778.678	-2625.110	C.3	12	GLN12	-0.003	
170	   C	2517.670	778.745	-2625.349	C.2	12	GLN12	0.597	
171	   O	2518.157	779.452	-2626.228	O.2	12	GLN12	-0.568	
172	  CB	2515.790	779.447	-2623.828	C.3	12	GLN12	-0.004	
173	  CG	2516.151	780.968	-2623.798	C.3	12	GLN12	-0.064	
174	  CD	2515.849	781.783	-2622.533	C.2	12	GLN12	0.695	
175	 NE2	2515.282	781.207	-2621.504	N.pl3	12	GLN12	-0.941	
176	 OE1	2516.152	782.963	-2622.457	O.2	12	GLN12	-0.609	
177	   H	2515.242	776.990	-2624.153	 H	12	GLN12	0.272	
178	  HA	2515.680	779.134	-2625.986	 H	12	GLN12	0.085	
179	 2HB	2516.266	778.947	-2622.958	 H	12	GLN12	0.017	
180	 3HB	2514.699	779.340	-2623.665	 H	12	GLN12	0.017	
181	 2HG	2515.674	781.489	-2624.649	 H	12	GLN12	0.035	
182	 3HG	2517.234	781.110	-2623.964	 H	12	GLN12	0.035	
183	1HE2	2515.176	781.802	-2620.681	 H	12	GLN12	0.425	
184	2HE2	2515.118	780.204	-2621.607	 H	12	GLN12	0.425	
185	   N	2518.454	778.038	-2624.607	N.am	13	ARG13	-0.348	
186	  CA	2519.895	778.103	-2624.839	C.3	13	ARG13	-0.264	
187	   C	2520.230	777.731	-2626.263	C.2	13	ARG13	0.734	
188	   O	2520.999	778.402	-2626.948	O.2	13	ARG13	-0.589	
189	  CB	2520.608	777.165	-2623.824	C.3	13	ARG13	-0.001	
190	  CG	2522.153	777.317	-2623.744	C.3	13	ARG13	0.039	
191	  CD	2522.780	776.330	-2622.746	C.3	13	ARG13	0.049	
192	  NE	2524.257	776.537	-2622.696	N.pl3	13	ARG13	-0.530	
193	  CZ	2525.105	775.846	-2621.940	C.cat	13	ARG13	0.808	
194	 NH1	2524.740	774.882	-2621.142	N.pl3	13	ARG13	-0.863	
195	 NH2	2526.365	776.144	-2621.998	N.pl3	13	ARG13	-0.863	
196	   H	2518.078	777.449	-2623.878	 H	13	ARG13	0.275	
197	  HA	2520.219	779.149	-2624.681	 H	13	ARG13	0.156	
198	 2HB	2520.341	776.114	-2624.062	 H	13	ARG13	0.033	
199	 3HB	2520.183	777.332	-2622.814	 H	13	ARG13	0.033	
200	 2HG	2522.401	778.362	-2623.465	 H	13	ARG13	0.029	
201	 3HG	2522.603	777.160	-2624.745	 H	13	ARG13	0.029	
202	 2HD	2522.535	775.290	-2623.054	 H	13	ARG13	0.069	
203	 3HD	2522.324	776.477	-2621.743	 H	13	ARG13	0.069	
204	  HE	2524.708	777.259	-2623.267	 H	13	ARG13	0.346	
205	1HH1	2523.735	774.696	-2621.145	 H	13	ARG13	0.448	
206	2HH1	2525.453	774.399	-2620.593	 H	13	ARG13	0.448	
207	1HH2	2526.633	776.902	-2622.629	 H	13	ARG13	0.448	
208	2HH2	2527.000	775.603	-2621.409	 H	13	ARG13	0.448	
209	   N	2519.694	776.676	-2626.777	N.am	14	VAL14	-0.416	
210	  CA	2520.018	776.316	-2628.155	C.3	14	VAL14	-0.087	
211	   C	2519.688	777.445	-2629.101	C.2	14	VAL14	0.597	
212	   O	2520.481	777.827	-2629.970	O.2	14	VAL14	-0.568	
213	  CB	2519.245	774.999	-2628.561	C.3	14	VAL14	0.299	
214	 CG1	2519.334	774.579	-2630.054	C.3	14	VAL14	-0.319	
215	 CG2	2519.677	773.747	-2627.760	C.3	14	VAL14	-0.319	
216	   H	2519.059	776.108	-2626.235	 H	14	VAL14	0.272	
217	  HA	2521.106	776.138	-2628.229	 H	14	VAL14	0.097	
218	  HB	2518.169	775.170	-2628.344	 H	14	VAL14	-0.030	
219	1HG1	2520.375	774.402	-2630.383	 H	14	VAL14	0.079	
220	2HG1	2518.760	773.656	-2630.266	 H	14	VAL14	0.079	
221	3HG1	2518.905	775.341	-2630.732	 H	14	VAL14	0.079	
222	1HG2	2519.590	773.906	-2626.669	 H	14	VAL14	0.079	
223	2HG2	2519.041	772.870	-2627.991	 H	14	VAL14	0.079	
224	3HG2	2520.724	773.456	-2627.965	 H	14	VAL14	0.079	
225	   N	2518.544	778.032	-2628.999	N.am	15	MET15	-0.416	
226	  CA	2518.223	779.124	-2629.913	C.3	15	MET15	-0.024	
227	   C	2519.254	780.224	-2629.825	C.2	15	MET15	0.597	
228	   O	2519.756	780.734	-2630.838	O.2	15	MET15	-0.568	
229	  CB	2516.802	779.670	-2629.604	C.3	15	MET15	0.034	
230	  CG	2515.640	778.672	-2629.795	C.3	15	MET15	0.002	
231	  SD	2514.066	779.538	-2629.680	S.3	15	MET15	-0.274	
232	  CE	2512.985	778.109	-2629.543	C.3	15	MET15	-0.054	
233	   H	2517.879	777.739	-2628.297	 H	15	MET15	0.272	
234	  HA	2518.249	778.736	-2630.948	 H	15	MET15	0.088	
235	 2HB	2516.600	780.549	-2630.246	 H	15	MET15	0.024	
236	 3HB	2516.767	780.063	-2628.567	 H	15	MET15	0.024	
237	 2HG	2515.683	777.886	-2629.017	 H	15	MET15	0.044	
238	 3HG	2515.702	778.156	-2630.771	 H	15	MET15	0.044	
239	 1HE	2513.128	777.420	-2630.395	 H	15	MET15	0.068	
240	 2HE	2513.194	777.556	-2628.610	 H	15	MET15	0.068	
241	 3HE	2511.927	778.424	-2629.526	 H	15	MET15	0.068	
242	   N	2519.623	780.645	-2628.663	N.am	16	PRO16	-0.255	
243	  CA	2520.609	781.701	-2628.491	C.3	16	PRO16	-0.027	
244	   C	2522.021	781.226	-2628.877	C.2	16	PRO16	0.590	
245	   O	2522.203	780.077	-2629.281	O.2	16	PRO16	-0.575	
246	  CB	2520.472	782.021	-2626.995	C.3	16	PRO16	-0.007	
247	  CG	2520.030	780.686	-2626.377	C.3	16	PRO16	0.019	
248	  CD	2519.086	780.104	-2627.434	C.3	16	PRO16	0.019	
249	  HA	2520.352	782.569	-2629.102	 H	16	PRO16	0.064	
250	 2HB	2519.678	782.759	-2626.862	 H	16	PRO16	0.025	
251	 3HB	2521.395	782.407	-2626.555	 H	16	PRO16	0.025	
252	 2HG	2519.537	780.814	-2625.411	 H	16	PRO16	0.021	
253	 3HG	2520.895	780.031	-2626.263	 H	16	PRO16	0.021	
254	 2HD	2518.066	780.468	-2627.290	 H	16	PRO16	0.039	
255	 3HD	2519.102	779.012	-2627.444	 H	16	PRO16	0.039	
@<TRIPOS>BOND
1 1 2 1
2 1 10 1
3 2 3 1
4 2 5 1
5 2 11 1
6 3 4 2
7 3 16 1
8 5 6 1
9 6 7 1
10 7 8 2
11 7 9 1
12 5 12 1
13 5 13 1
14 6 14 1
15 6 15 1
16 16 17 1
17 16 24 1
18 17 18 1
19 17 20 1
20 17 25 1
21 18 19 2
22 18 30 1
23 20 21 1
24 21 22 1
25 21 23 2
26 20 26 1
27 20 27 1
28 22 28 1
29 22 29 1
30 30 31 1
31 30 36 1
32 31 32 1
33 31 34 1
34 31 37 1
35 32 33 2
36 32 44 1
37 34 35 1
38 35 36 1
39 34 38 1
40 34 39 1
41 35 40 1
42 35 41 1
43 36 42 1
44 36 43 1
45 44 45 1
46 44 53 1
47 45 46 1
48 45 48 1
49 45 54 1
50 46 47 2
51 46 59 1
52 48 49 1
53 49 50 1
54 50 51 2
55 50 52 1
56 48 55 1
57 48 56 1
58 49 57 1
59 49 58 1
60 59 60 1
61 59 65 1
62 60 61 1
63 60 63 1
64 60 66 1
65 61 62 2
66 61 70 1
67 63 64 1
68 63 67 1
69 63 68 1
70 64 69 1
71 70 71 1
72 70 78 1
73 71 72 1
74 71 74 1
75 71 79 1
76 72 73 2
77 72 89 1
78 74 75 1
79 74 76 1
80 75 77 1
81 74 80 1
82 75 81 1
83 75 82 1
84 76 83 1
85 76 84 1
86 76 85 1
87 77 86 1
88 77 87 1
89 77 88 1
90 89 90 1
91 89 97 1
92 90 91 1
93 90 93 1
94 90 98 1
95 91 92 2
96 91 108 1
97 93 94 1
98 94 95 1
99 94 96 1
100 93 99 1
101 93 100 1
102 94 101 1
103 95 102 1
104 95 103 1
105 95 104 1
106 96 105 1
107 96 106 1
108 96 107 1
109 108 109 1
110 108 116 1
111 109 110 1
112 109 112 1
113 109 117 1
114 110 111 2
115 110 120 1
116 112 113 1
117 113 114 2
118 113 115 1
119 112 118 1
120 112 119 1
121 120 121 1
122 120 129 1
123 121 122 1
124 121 124 1
125 121 130 1
126 122 123 2
127 122 135 1
128 124 125 1
129 125 126 1
130 126 127 2
131 126 128 1
132 124 131 1
133 124 132 1
134 125 133 1
135 125 134 1
136 135 136 1
137 135 145 1
138 136 137 1
139 136 139 1
140 136 146 1
141 137 138 2
142 137 152 1
143 139 140 1
144 140 141 2
145 141 144 1
146 140 142 1
147 142 143 2
148 143 144 1
149 139 147 1
150 139 148 1
151 141 149 1
152 143 150 1
153 144 151 1
154 152 153 1
155 152 159 1
156 153 154 1
157 153 156 1
158 153 160 1
159 154 155 2
160 154 168 1
161 156 157 1
162 156 158 1
163 156 161 1
164 157 162 1
165 157 163 1
166 157 164 1
167 158 165 1
168 158 166 1
169 158 167 1
170 168 169 1
171 168 177 1
172 169 170 1
173 169 172 1
174 169 178 1
175 170 171 2
176 170 185 1
177 172 173 1
178 173 174 1
179 174 175 1
180 174 176 2
181 172 179 1
182 172 180 1
183 173 181 1
184 173 182 1
185 175 183 1
186 175 184 1
187 185 186 1
188 185 196 1
189 186 187 1
190 186 189 1
191 186 197 1
192 187 188 2
193 187 209 1
194 189 190 1
195 190 191 1
196 191 192 1
197 192 193 1
198 193 194 2
199 193 195 1
200 189 198 1
201 189 199 1
202 190 200 1
203 190 201 1
204 191 202 1
205 191 203 1
206 192 204 1
207 194 205 1
208 194 206 1
209 195 207 1
210 195 208 1
211 209 210 1
212 209 216 1
213 210 211 1
214 210 213 1
215 210 217 1
216 211 212 2
217 211 225 1
218 213 214 1
219 213 215 1
220 213 218 1
221 214 219 1
222 214 220 1
223 214 221 1
224 215 222 1
225 215 223 1
226 215 224 1
227 225 226 1
228 225 233 1
229 226 227 1
230 226 229 1
231 226 234 1
232 227 228 2
233 227 242 1
234 229 230 1
235 230 231 1
236 231 232 1
237 229 235 1
238 229 236 1
239 230 237 1
240 230 238 1
241 232 239 1
242 232 240 1
243 232 241 1
244 242 243 1
245 242 248 1
246 243 244 1
247 243 246 1
248 243 249 1
249 244 245 2
250 246 247 1
251 247 248 1
252 246 250 1
253 246 251 1
254 247 252 1
255 247 253 1
256 248 254 1
257 248 255 1
@<TRIPOS>SUBSTRUCTURE
1	GLU1	1	RESIDUE	1 ****	GLU
2	ASN2	16	RESIDUE	1 ****	ASN
3	PRO3	30	RESIDUE	1 ****	PRO
4	GLU4	44	RESIDUE	1 ****	GLU
5	SER5	59	RESIDUE	1 ****	SER
6	ILE6	70	RESIDUE	1 ****	ILE
7	LEU7	89	RESIDUE	1 ****	LEU
8	ASP8	108	RESIDUE	1 ****	ASP
9	GLU9	120	RESIDUE	1 ****	GLU
10	HIS10	135	RESIDUE	1 ****	HIS
11	VAL11	152	RESIDUE	1 ****	VAL
12	GLN12	168	RESIDUE	1 ****	GLN
13	ARG13	185	RESIDUE	1 ****	ARG
14	VAL14	209	RESIDUE	1 ****	VAL
15	MET15	225	RESIDUE	1 ****	MET
16	PRO16	242	RESIDUE	1 ****	PRO
