@<TRIPOS>MOLECULE
10-7
267 267 16              
SMALL
USER_CHARGES
@<TRIPOS>ATOM
1	   N	1566.286	464.285	-1591.021	N.3	1	GLU1	-0.516	
2	  CA	1566.845	465.634	-1591.021	C.3	1	GLU1	0.040	
3	   C	1568.354	465.594	-1591.021	C.2	1	GLU1	0.537	
4	   O	1569.030	466.293	-1591.790	O.2	1	GLU1	-0.582	
5	  CB	1566.322	466.419	-1589.784	C.3	1	GLU1	0.056	
6	  CG	1566.797	467.904	-1589.673	C.3	1	GLU1	0.014	
7	  CD	1566.373	468.708	-1588.458	C.2	1	GLU1	0.805	
8	 OE1	1565.645	468.206	-1587.580	O.co2	1	GLU1	-0.819	
9	 OE2	1566.803	469.878	-1588.386	O.co2	1	GLU1	-0.819	
10	   H	1566.913	463.406	-1591.021	 H	1	GLU1	0.294	
11	  HA	1566.519	466.152	-1591.941	 H	1	GLU1	0.111	
12	 2HB	1566.611	465.888	-1588.854	 H	1	GLU1	-0.017	
13	 3HB	1565.215	466.409	-1589.771	 H	1	GLU1	-0.017	
14	 2HG	1566.487	468.489	-1590.554	 H	1	GLU1	-0.043	
15	 3HG	1567.897	467.971	-1589.644	 H	1	GLU1	-0.043	
16	   N	1568.959	464.808	-1590.196	N.am	2	ASN2	-0.416	
17	  CA	1570.418	464.769	-1590.196	C.3	2	ASN2	0.014	
18	   C	1570.949	464.414	-1591.565	C.2	2	ASN2	0.597	
19	   O	1571.864	465.044	-1592.094	O.2	2	ASN2	-0.568	
20	  CB	1570.910	463.746	-1589.132	C.3	2	ASN2	-0.204	
21	  CG	1570.447	463.970	-1587.688	C.2	2	ASN2	0.713	
22	 ND2	1571.041	464.885	-1586.970	N.pl3	2	ASN2	-0.919	
23	 OD1	1569.526	463.336	-1587.194	O.2	2	ASN2	-0.593	
24	   H	1568.431	464.228	-1589.560	 H	2	ASN2	0.272	
25	  HA	1570.795	465.779	-1589.951	 H	2	ASN2	0.105	
26	 2HB	1572.015	463.687	-1589.135	 H	2	ASN2	0.080	
27	 3HB	1570.581	462.728	-1589.417	 H	2	ASN2	0.080	
28	1HD2	1570.561	465.058	-1586.084	 H	2	ASN2	0.420	
29	2HD2	1571.743	465.457	-1587.440	 H	2	ASN2	0.420	
30	   N	1570.428	463.418	-1592.199	N.am	3	PRO3	-0.255	
31	  CA	1570.880	463.009	-1593.520	C.3	3	PRO3	-0.027	
32	   C	1570.481	464.033	-1594.597	C.2	3	PRO3	0.590	
33	   O	1571.305	464.416	-1595.429	O.2	3	PRO3	-0.575	
34	  CB	1570.175	461.654	-1593.690	C.3	3	PRO3	-0.007	
35	  CG	1568.892	461.807	-1592.859	C.3	3	PRO3	0.019	
36	  CD	1569.350	462.625	-1591.650	C.3	3	PRO3	0.019	
37	  HA	1571.965	462.889	-1593.534	 H	3	PRO3	0.064	
38	 2HB	1570.798	460.873	-1593.249	 H	3	PRO3	0.025	
39	 3HB	1569.977	461.406	-1594.735	 H	3	PRO3	0.025	
40	 2HG	1568.465	460.844	-1592.568	 H	3	PRO3	0.021	
41	 3HG	1568.155	462.378	-1593.427	 H	3	PRO3	0.021	
42	 2HD	1569.739	461.976	-1590.862	 H	3	PRO3	0.039	
43	 3HD	1568.553	463.261	-1591.257	 H	3	PRO3	0.039	
44	   N	1569.277	464.493	-1594.630	N.am	4	GLU4	-0.516	
45	  CA	1568.917	465.464	-1595.659	C.3	4	GLU4	0.040	
46	   C	1569.816	466.675	-1595.598	C.2	4	GLU4	0.537	
47	   O	1570.342	467.155	-1596.612	O.2	4	GLU4	-0.582	
48	  CB	1567.428	465.882	-1595.489	C.3	4	GLU4	0.056	
49	  CG	1566.880	466.886	-1596.554	C.3	4	GLU4	0.014	
50	  CD	1565.453	467.383	-1596.410	C.2	4	GLU4	0.805	
51	 OE1	1564.727	466.984	-1595.479	O.co2	4	GLU4	-0.819	
52	 OE2	1565.064	468.212	-1597.258	O.co2	4	GLU4	-0.819	
53	   H	1568.593	464.186	-1593.953	 H	4	GLU4	0.294	
54	  HA	1569.048	464.993	-1596.650	 H	4	GLU4	0.111	
55	 2HB	1567.276	466.322	-1594.482	 H	4	GLU4	-0.017	
56	 3HB	1566.781	464.984	-1595.495	 H	4	GLU4	-0.017	
57	 2HG	1566.961	466.471	-1597.572	 H	4	GLU4	-0.043	
58	 3HG	1567.468	467.818	-1596.565	 H	4	GLU4	-0.043	
59	   N	1570.043	467.228	-1594.455	N.am	5	SER5	-0.416	
60	  CA	1570.913	468.399	-1594.396	C.3	5	SER5	-0.025	
61	   C	1572.271	468.094	-1594.982	C.2	5	SER5	0.597	
62	   O	1572.818	468.847	-1595.787	O.2	5	SER5	-0.568	
63	  CB	1571.024	468.931	-1592.946	C.3	5	SER5	0.212	
64	  OG	1571.756	468.052	-1592.085	O.3	5	SER5	-0.655	
65	   H	1569.626	466.856	-1593.613	 H	5	SER5	0.272	
66	  HA	1570.463	469.189	-1595.025	 H	5	SER5	0.084	
67	 2HB	1570.025	469.125	-1592.512	 H	5	SER5	0.035	
68	 3HB	1571.530	469.917	-1592.948	 H	5	SER5	0.035	
69	  HG	1571.267	467.227	-1592.034	 H	5	SER5	0.428	
70	   N	1572.876	467.011	-1594.628	N.am	6	ILE6	-0.416	
71	  CA	1574.189	466.716	-1595.195	C.3	6	ILE6	-0.060	
72	   C	1574.132	466.679	-1596.702	C.2	6	ILE6	0.597	
73	   O	1574.967	467.266	-1597.406	O.2	6	ILE6	-0.568	
74	  CB	1574.789	465.380	-1594.595	C.3	6	ILE6	0.130	
75	 CG1	1574.809	465.317	-1593.034	C.3	6	ILE6	-0.043	
76	 CG2	1576.230	465.078	-1595.110	C.3	6	ILE6	-0.320	
77	 CD1	1575.079	463.928	-1592.419	C.3	6	ILE6	-0.066	
78	   H	1572.448	466.376	-1593.969	 H	6	ILE6	0.272	
79	  HA	1574.863	467.550	-1594.927	 H	6	ILE6	0.087	
80	  HB	1574.131	464.554	-1594.939	 H	6	ILE6	0.019	
81	2HG1	1573.827	465.637	-1592.638	 H	6	ILE6	0.024	
82	3HG1	1575.525	466.059	-1592.629	 H	6	ILE6	0.024	
83	1HG2	1576.289	464.985	-1596.209	 H	6	ILE6	0.088	
84	2HG2	1576.953	465.860	-1594.808	 H	6	ILE6	0.088	
85	3HG2	1576.621	464.116	-1594.732	 H	6	ILE6	0.088	
86	1HD1	1574.351	463.174	-1592.774	 H	6	ILE6	0.019	
87	2HD1	1576.089	463.549	-1592.655	 H	6	ILE6	0.019	
88	3HD1	1575.003	463.958	-1591.316	 H	6	ILE6	0.019	
89	   N	1573.186	466.015	-1597.276	N.am	7	LEU7	-0.416	
90	  CA	1573.131	465.979	-1598.735	C.3	7	LEU7	-0.052	
91	   C	1573.058	467.375	-1599.307	C.2	7	LEU7	0.597	
92	   O	1573.779	467.738	-1600.249	O.2	7	LEU7	-0.568	
93	  CB	1571.928	465.119	-1599.215	C.3	7	LEU7	-0.110	
94	  CG	1571.855	463.639	-1598.749	C.3	7	LEU7	0.353	
95	 CD1	1570.665	462.934	-1599.414	C.3	7	LEU7	-0.412	
96	 CD2	1573.149	462.860	-1599.041	C.3	7	LEU7	-0.412	
97	   H	1572.494	465.528	-1596.725	 H	7	LEU7	0.272	
98	  HA	1574.073	465.539	-1599.109	 H	7	LEU7	0.092	
99	 2HB	1571.905	465.135	-1600.322	 H	7	LEU7	0.046	
100	 3HB	1570.988	465.622	-1598.911	 H	7	LEU7	0.046	
101	  HG	1571.686	463.631	-1597.652	 H	7	LEU7	-0.036	
102	1HD1	1569.708	463.443	-1599.192	 H	7	LEU7	0.100	
103	2HD1	1570.765	462.893	-1600.515	 H	7	LEU7	0.100	
104	3HD1	1570.559	461.892	-1599.058	 H	7	LEU7	0.100	
105	1HD2	1573.424	462.891	-1600.110	 H	7	LEU7	0.100	
106	2HD2	1574.002	463.272	-1598.469	 H	7	LEU7	0.100	
107	3HD2	1573.068	461.798	-1598.745	 H	7	LEU7	0.100	
108	   N	1572.221	468.215	-1598.800	N.am	8	ASP8	-0.516	
109	  CA	1572.151	469.565	-1599.353	C.3	8	ASP8	0.038	
110	   C	1573.497	470.245	-1599.296	C.2	8	ASP8	0.537	
111	   O	1573.970	470.850	-1600.270	O.2	8	ASP8	-0.582	
112	  CB	1571.073	470.404	-1598.611	C.3	8	ASP8	-0.030	
113	  CG	1570.854	471.824	-1599.151	C.2	8	ASP8	0.799	
114	 OD1	1570.918	472.024	-1600.382	O.co2	8	ASP8	-0.801	
115	 OD2	1570.661	472.750	-1598.336	O.co2	8	ASP8	-0.801	
116	   H	1571.623	467.944	-1598.033	 H	8	ASP8	0.294	
117	  HA	1571.868	469.487	-1600.420	 H	8	ASP8	0.088	
118	 2HB	1571.330	470.486	-1597.539	 H	8	ASP8	-0.012	
119	 3HB	1570.094	469.898	-1598.644	 H	8	ASP8	-0.012	
120	   N	1574.177	470.195	-1598.201	N.am	9	GLU9	-0.516	
121	  CA	1575.480	470.852	-1598.145	C.3	9	GLU9	0.040	
122	   C	1576.398	470.325	-1599.221	C.2	9	GLU9	0.537	
123	   O	1577.062	471.080	-1599.946	O.2	9	GLU9	-0.582	
124	  CB	1576.114	470.644	-1596.740	C.3	9	GLU9	0.056	
125	  CG	1577.496	471.336	-1596.510	C.3	9	GLU9	0.014	
126	  CD	1578.198	471.123	-1595.182	C.2	9	GLU9	0.805	
127	 OE1	1577.677	470.431	-1594.286	O.co2	9	GLU9	-0.819	
128	 OE2	1579.317	471.660	-1595.050	O.co2	9	GLU9	-0.819	
129	   H	1573.814	469.708	-1597.394	 H	9	GLU9	0.294	
130	  HA	1575.338	471.934	-1598.320	 H	9	GLU9	0.111	
131	 2HB	1576.227	469.559	-1596.537	 H	9	GLU9	-0.017	
132	 3HB	1575.417	470.997	-1595.955	 H	9	GLU9	-0.017	
133	 2HG	1577.424	472.427	-1596.650	 H	9	GLU9	-0.043	
134	 3HG	1578.243	470.992	-1597.245	 H	9	GLU9	-0.043	
135	   N	1576.494	469.050	-1599.392	N.am	10	LEU10	-0.416	
136	  CA	1577.382	468.540	-1600.433	C.3	10	LEU10	-0.052	
137	   C	1577.013	469.107	-1601.782	C.2	10	LEU10	0.597	
138	   O	1577.864	469.574	-1602.555	O.2	10	LEU10	-0.568	
139	  CB	1577.358	466.986	-1600.458	C.3	10	LEU10	-0.110	
140	  CG	1577.744	466.227	-1599.159	C.3	10	LEU10	0.353	
141	 CD1	1577.767	464.714	-1599.418	C.3	10	LEU10	-0.412	
142	 CD2	1579.100	466.677	-1598.590	C.3	10	LEU10	-0.412	
143	   H	1575.964	468.414	-1598.814	 H	10	LEU10	0.272	
144	  HA	1578.408	468.891	-1600.219	 H	10	LEU10	0.092	
145	 2HB	1578.022	466.637	-1601.273	 H	10	LEU10	0.046	
146	 3HB	1576.346	466.651	-1600.763	 H	10	LEU10	0.046	
147	  HG	1576.963	466.430	-1598.396	 H	10	LEU10	-0.036	
148	1HD1	1576.792	464.346	-1599.790	 H	10	LEU10	0.100	
149	2HD1	1578.531	464.429	-1600.166	 H	10	LEU10	0.100	
150	3HD1	1577.988	464.147	-1598.495	 H	10	LEU10	0.100	
151	1HD2	1579.918	466.575	-1599.326	 H	10	LEU10	0.100	
152	2HD2	1579.071	467.737	-1598.274	 H	10	LEU10	0.100	
153	3HD2	1579.383	466.098	-1597.691	 H	10	LEU10	0.100	
154	   N	1575.775	469.106	-1602.144	N.am	11	VAL11	-0.416	
155	  CA	1575.418	469.655	-1603.449	C.3	11	VAL11	-0.087	
156	   C	1575.881	471.086	-1603.579	C.2	11	VAL11	0.597	
157	   O	1576.481	471.493	-1604.583	O.2	11	VAL11	-0.568	
158	  CB	1573.856	469.547	-1603.667	C.3	11	VAL11	0.299	
159	 CG1	1573.286	470.253	-1604.927	C.3	11	VAL11	-0.319	
160	 CG2	1573.333	468.093	-1603.742	C.3	11	VAL11	-0.319	
161	   H	1575.063	468.732	-1601.533	 H	11	VAL11	0.272	
162	  HA	1575.937	469.074	-1604.233	 H	11	VAL11	0.097	
163	  HB	1573.370	470.025	-1602.790	 H	11	VAL11	-0.030	
164	1HG1	1573.723	469.863	-1605.866	 H	11	VAL11	0.079	
165	2HG1	1572.187	470.145	-1605.008	 H	11	VAL11	0.079	
166	3HG1	1573.463	471.346	-1604.916	 H	11	VAL11	0.079	
167	1HG2	1573.624	467.504	-1602.853	 H	11	VAL11	0.079	
168	2HG2	1572.227	468.055	-1603.784	 H	11	VAL11	0.079	
169	3HG2	1573.714	467.554	-1604.630	 H	11	VAL11	0.079	
170	   N	1575.644	471.909	-1602.615	N.am	12	GLN12	-0.416	
171	  CA	1576.092	473.293	-1602.740	C.3	12	GLN12	-0.003	
172	   C	1577.581	473.362	-1602.979	C.2	12	GLN12	0.597	
173	   O	1578.067	474.073	-1603.857	O.2	12	GLN12	-0.568	
174	  CB	1575.702	474.058	-1601.455	C.3	12	GLN12	-0.004	
175	  CG	1576.061	475.580	-1601.422	C.3	12	GLN12	-0.064	
176	  CD	1575.759	476.390	-1600.155	C.2	12	GLN12	0.695	
177	 NE2	1575.194	475.811	-1599.126	N.pl3	12	GLN12	-0.941	
178	 OE1	1576.060	477.571	-1600.075	O.2	12	GLN12	-0.609	
179	   H	1575.157	471.601	-1601.786	 H	12	GLN12	0.272	
180	  HA	1575.591	473.751	-1603.614	 H	12	GLN12	0.085	
181	 2HB	1576.179	473.556	-1600.588	 H	12	GLN12	0.017	
182	 3HB	1574.612	473.949	-1601.291	 H	12	GLN12	0.017	
183	 2HG	1575.582	476.102	-1602.271	 H	12	GLN12	0.035	
184	 3HG	1577.144	475.723	-1601.588	 H	12	GLN12	0.035	
185	1HE2	1575.087	476.404	-1598.301	 H	12	GLN12	0.425	
186	2HE2	1575.031	474.808	-1599.232	 H	12	GLN12	0.425	
187	   N	1578.367	472.654	-1602.241	N.am	13	ARG13	-0.348	
188	  CA	1579.807	472.722	-1602.473	C.3	13	ARG13	-0.264	
189	   C	1580.142	472.354	-1603.900	C.2	13	ARG13	0.734	
190	   O	1580.909	473.028	-1604.583	O.2	13	ARG13	-0.589	
191	  CB	1580.523	471.781	-1601.462	C.3	13	ARG13	-0.001	
192	  CG	1582.068	471.935	-1601.383	C.3	13	ARG13	0.039	
193	  CD	1582.696	470.946	-1600.388	C.3	13	ARG13	0.049	
194	  NE	1584.174	471.154	-1600.339	N.pl3	13	ARG13	-0.530	
195	  CZ	1585.023	470.462	-1599.586	C.cat	13	ARG13	0.808	
196	 NH1	1584.660	469.495	-1598.791	N.pl3	13	ARG13	-0.863	
197	 NH2	1586.282	470.762	-1599.644	N.pl3	13	ARG13	-0.863	
198	   H	1577.993	472.062	-1601.514	 H	13	ARG13	0.275	
199	  HA	1580.131	473.768	-1602.313	 H	13	ARG13	0.156	
200	 2HB	1580.257	470.731	-1601.704	 H	13	ARG13	0.033	
201	 3HB	1580.098	471.945	-1600.451	 H	13	ARG13	0.033	
202	 2HG	1582.315	472.980	-1601.101	 H	13	ARG13	0.029	
203	 3HG	1582.517	471.782	-1602.385	 H	13	ARG13	0.029	
204	 2HD	1582.453	469.906	-1600.699	 H	13	ARG13	0.069	
205	 3HD	1582.241	471.089	-1599.385	 H	13	ARG13	0.069	
206	  HE	1584.624	471.878	-1600.908	 H	13	ARG13	0.346	
207	1HH1	1583.655	469.308	-1598.793	 H	13	ARG13	0.448	
208	2HH1	1585.374	469.012	-1598.244	 H	13	ARG13	0.448	
209	1HH2	1586.548	471.521	-1600.273	 H	13	ARG13	0.448	
210	2HH2	1586.919	470.220	-1599.057	 H	13	ARG13	0.448	
211	   N	1579.606	471.300	-1604.416	N.am	14	VAL14	-0.416	
212	  CA	1579.930	470.944	-1605.794	C.3	14	VAL14	-0.087	
213	   C	1579.598	472.076	-1606.737	C.2	14	VAL14	0.597	
214	   O	1580.390	472.460	-1607.607	O.2	14	VAL14	-0.568	
215	  CB	1579.158	469.627	-1606.203	C.3	14	VAL14	0.299	
216	 CG1	1579.246	469.212	-1607.698	C.3	14	VAL14	-0.319	
217	 CG2	1579.592	468.374	-1605.406	C.3	14	VAL14	-0.319	
218	   H	1578.972	470.730	-1603.874	 H	14	VAL14	0.272	
219	  HA	1581.018	470.768	-1605.871	 H	14	VAL14	0.097	
220	  HB	1578.082	469.797	-1605.986	 H	14	VAL14	-0.030	
221	1HG1	1580.287	469.037	-1608.028	 H	14	VAL14	0.079	
222	2HG1	1578.674	468.289	-1607.912	 H	14	VAL14	0.079	
223	3HG1	1578.816	469.976	-1608.374	 H	14	VAL14	0.079	
224	1HG2	1579.506	468.529	-1604.316	 H	14	VAL14	0.079	
225	2HG2	1578.957	467.497	-1605.640	 H	14	VAL14	0.079	
226	3HG2	1580.640	468.085	-1605.614	 H	14	VAL14	0.079	
227	   N	1578.453	472.661	-1606.633	N.am	15	MET15	-0.416	
228	  CA	1578.130	473.755	-1607.543	C.3	15	MET15	-0.024	
229	   C	1579.160	474.856	-1607.454	C.2	15	MET15	0.597	
230	   O	1579.661	475.370	-1608.466	O.2	15	MET15	-0.568	
231	  CB	1576.709	474.299	-1607.231	C.3	15	MET15	0.034	
232	  CG	1575.547	473.300	-1607.424	C.3	15	MET15	0.002	
233	  SD	1573.973	474.165	-1607.306	S.3	15	MET15	-0.274	
234	  CE	1572.893	472.734	-1607.171	C.3	15	MET15	-0.054	
235	   H	1577.789	472.366	-1605.931	 H	15	MET15	0.272	
236	  HA	1578.155	473.370	-1608.580	 H	15	MET15	0.088	
237	 2HB	1576.505	475.179	-1607.871	 H	15	MET15	0.024	
238	 3HB	1576.674	474.689	-1606.194	 H	15	MET15	0.024	
239	 2HG	1575.592	472.513	-1606.648	 H	15	MET15	0.044	
240	 3HG	1575.609	472.788	-1608.401	 H	15	MET15	0.044	
241	 1HE	1573.036	472.048	-1608.025	 H	15	MET15	0.068	
242	 2HE	1573.104	472.179	-1606.240	 H	15	MET15	0.068	
243	 3HE	1571.835	473.048	-1607.152	 H	15	MET15	0.068	
244	   N	1579.529	475.274	-1606.291	N.am	16	ARG16	-0.348	
245	  CA	1580.525	476.339	-1606.206	C.3	16	ARG16	-0.264	
246	   C	1581.795	475.949	-1606.925	C.2	16	ARG16	0.734	
247	   O	1581.909	474.874	-1607.509	O.2	16	ARG16	-0.589	
248	  CB	1580.796	476.654	-1604.708	C.3	16	ARG16	-0.001	
249	  CG	1581.620	477.943	-1604.433	C.3	16	ARG16	0.039	
250	  CD	1581.872	478.158	-1602.931	C.3	16	ARG16	0.049	
251	  NE	1582.647	479.418	-1602.728	N.pl3	16	ARG16	-0.530	
252	  CZ	1583.039	479.897	-1601.552	C.cat	16	ARG16	0.808	
253	 NH1	1582.794	479.310	-1600.415	N.pl3	16	ARG16	-0.863	
254	 NH2	1583.702	481.010	-1601.532	N.pl3	16	ARG16	-0.863	
255	   H	1579.136	474.872	-1605.453	 H	16	ARG16	0.275	
256	  HA	1580.115	477.233	-1606.714	 H	16	ARG16	0.156	
257	 2HB	1581.294	475.777	-1604.244	 H	16	ARG16	0.033	
258	 3HB	1579.828	476.732	-1604.172	 H	16	ARG16	0.033	
259	 2HG	1581.089	478.814	-1604.867	 H	16	ARG16	0.029	
260	 3HG	1582.593	477.892	-1604.963	 H	16	ARG16	0.029	
261	 2HD	1582.422	477.283	-1602.521	 H	16	ARG16	0.069	
262	 3HD	1580.899	478.199	-1602.395	 H	16	ARG16	0.069	
263	  HE	1582.924	480.001	-1603.524	 H	16	ARG16	0.346	
264	1HH1	1582.269	478.437	-1600.500	 H	16	ARG16	0.448	
265	2HH1	1583.129	479.744	-1599.553	 H	16	ARG16	0.448	
266	1HH2	1583.886	481.456	-1602.433	 H	16	ARG16	0.448	
267	2HH2	1583.993	481.364	-1600.619	 H	16	ARG16	0.448	
@<TRIPOS>BOND
1 1 2 1
2 1 10 1
3 2 3 1
4 2 5 1
5 2 11 1
6 3 4 2
7 3 16 1
8 5 6 1
9 6 7 1
10 7 8 2
11 7 9 1
12 5 12 1
13 5 13 1
14 6 14 1
15 6 15 1
16 16 17 1
17 16 24 1
18 17 18 1
19 17 20 1
20 17 25 1
21 18 19 2
22 18 30 1
23 20 21 1
24 21 22 1
25 21 23 2
26 20 26 1
27 20 27 1
28 22 28 1
29 22 29 1
30 30 31 1
31 30 36 1
32 31 32 1
33 31 34 1
34 31 37 1
35 32 33 2
36 32 44 1
37 34 35 1
38 35 36 1
39 34 38 1
40 34 39 1
41 35 40 1
42 35 41 1
43 36 42 1
44 36 43 1
45 44 45 1
46 44 53 1
47 45 46 1
48 45 48 1
49 45 54 1
50 46 47 2
51 46 59 1
52 48 49 1
53 49 50 1
54 50 51 2
55 50 52 1
56 48 55 1
57 48 56 1
58 49 57 1
59 49 58 1
60 59 60 1
61 59 65 1
62 60 61 1
63 60 63 1
64 60 66 1
65 61 62 2
66 61 70 1
67 63 64 1
68 63 67 1
69 63 68 1
70 64 69 1
71 70 71 1
72 70 78 1
73 71 72 1
74 71 74 1
75 71 79 1
76 72 73 2
77 72 89 1
78 74 75 1
79 74 76 1
80 75 77 1
81 74 80 1
82 75 81 1
83 75 82 1
84 76 83 1
85 76 84 1
86 76 85 1
87 77 86 1
88 77 87 1
89 77 88 1
90 89 90 1
91 89 97 1
92 90 91 1
93 90 93 1
94 90 98 1
95 91 92 2
96 91 108 1
97 93 94 1
98 94 95 1
99 94 96 1
100 93 99 1
101 93 100 1
102 94 101 1
103 95 102 1
104 95 103 1
105 95 104 1
106 96 105 1
107 96 106 1
108 96 107 1
109 108 109 1
110 108 116 1
111 109 110 1
112 109 112 1
113 109 117 1
114 110 111 2
115 110 120 1
116 112 113 1
117 113 114 2
118 113 115 1
119 112 118 1
120 112 119 1
121 120 121 1
122 120 129 1
123 121 122 1
124 121 124 1
125 121 130 1
126 122 123 2
127 122 135 1
128 124 125 1
129 125 126 1
130 126 127 2
131 126 128 1
132 124 131 1
133 124 132 1
134 125 133 1
135 125 134 1
136 135 136 1
137 135 143 1
138 136 137 1
139 136 139 1
140 136 144 1
141 137 138 2
142 137 154 1
143 139 140 1
144 140 141 1
145 140 142 1
146 139 145 1
147 139 146 1
148 140 147 1
149 141 148 1
150 141 149 1
151 141 150 1
152 142 151 1
153 142 152 1
154 142 153 1
155 154 155 1
156 154 161 1
157 155 156 1
158 155 158 1
159 155 162 1
160 156 157 2
161 156 170 1
162 158 159 1
163 158 160 1
164 158 163 1
165 159 164 1
166 159 165 1
167 159 166 1
168 160 167 1
169 160 168 1
170 160 169 1
171 170 171 1
172 170 179 1
173 171 172 1
174 171 174 1
175 171 180 1
176 172 173 2
177 172 187 1
178 174 175 1
179 175 176 1
180 176 177 1
181 176 178 2
182 174 181 1
183 174 182 1
184 175 183 1
185 175 184 1
186 177 185 1
187 177 186 1
188 187 188 1
189 187 198 1
190 188 189 1
191 188 191 1
192 188 199 1
193 189 190 2
194 189 211 1
195 191 192 1
196 192 193 1
197 193 194 1
198 194 195 1
199 195 196 2
200 195 197 1
201 191 200 1
202 191 201 1
203 192 202 1
204 192 203 1
205 193 204 1
206 193 205 1
207 194 206 1
208 196 207 1
209 196 208 1
210 197 209 1
211 197 210 1
212 211 212 1
213 211 218 1
214 212 213 1
215 212 215 1
216 212 219 1
217 213 214 2
218 213 227 1
219 215 216 1
220 215 217 1
221 215 220 1
222 216 221 1
223 216 222 1
224 216 223 1
225 217 224 1
226 217 225 1
227 217 226 1
228 227 228 1
229 227 235 1
230 228 229 1
231 228 231 1
232 228 236 1
233 229 230 2
234 229 244 1
235 231 232 1
236 232 233 1
237 233 234 1
238 231 237 1
239 231 238 1
240 232 239 1
241 232 240 1
242 234 241 1
243 234 242 1
244 234 243 1
245 244 245 1
246 244 255 1
247 245 246 1
248 245 248 1
249 245 256 1
250 246 247 2
251 248 249 1
252 249 250 1
253 250 251 1
254 251 252 1
255 252 253 2
256 252 254 1
257 248 257 1
258 248 258 1
259 249 259 1
260 249 260 1
261 250 261 1
262 250 262 1
263 251 263 1
264 253 264 1
265 253 265 1
266 254 266 1
267 254 267 1
@<TRIPOS>SUBSTRUCTURE
1	GLU1	1	RESIDUE	1 ****	GLU
2	ASN2	16	RESIDUE	1 ****	ASN
3	PRO3	30	RESIDUE	1 ****	PRO
4	GLU4	44	RESIDUE	1 ****	GLU
5	SER5	59	RESIDUE	1 ****	SER
6	ILE6	70	RESIDUE	1 ****	ILE
7	LEU7	89	RESIDUE	1 ****	LEU
8	ASP8	108	RESIDUE	1 ****	ASP
9	GLU9	120	RESIDUE	1 ****	GLU
10	LEU10	135	RESIDUE	1 ****	LEU
11	VAL11	154	RESIDUE	1 ****	VAL
12	GLN12	170	RESIDUE	1 ****	GLN
13	ARG13	187	RESIDUE	1 ****	ARG
14	VAL14	211	RESIDUE	1 ****	VAL
15	MET15	227	RESIDUE	1 ****	MET
16	ARG16	244	RESIDUE	1 ****	ARG
