@<TRIPOS>MOLECULE
2-11
268 270 16              
SMALL
USER_CHARGES
@<TRIPOS>ATOM
1	   N	256.093	49.856	-230.935	N.3	1	GLU1	-0.516	
2	  CA	256.652	51.205	-230.935	C.3	1	GLU1	0.040	
3	   C	258.161	51.165	-230.935	C.2	1	GLU1	0.537	
4	   O	258.837	51.864	-231.703	O.2	1	GLU1	-0.582	
5	  CB	256.129	51.990	-229.698	C.3	1	GLU1	0.056	
6	  CG	256.604	53.475	-229.587	C.3	1	GLU1	0.014	
7	  CD	256.180	54.279	-228.372	C.2	1	GLU1	0.805	
8	 OE1	255.452	53.777	-227.494	O.co2	1	GLU1	-0.819	
9	 OE2	256.610	55.449	-228.300	O.co2	1	GLU1	-0.819	
10	   H	256.720	48.977	-230.935	 H	1	GLU1	0.294	
11	  HA	256.326	51.723	-231.855	 H	1	GLU1	0.111	
12	 2HB	256.418	51.459	-228.768	 H	1	GLU1	-0.017	
13	 3HB	255.022	51.980	-229.685	 H	1	GLU1	-0.017	
14	 2HG	256.294	54.060	-230.468	 H	1	GLU1	-0.043	
15	 3HG	257.704	53.542	-229.558	 H	1	GLU1	-0.043	
16	   N	258.766	50.379	-230.110	N.am	2	HIS2	-0.416	
17	  CA	260.226	50.340	-230.109	C.3	2	HIS2	-0.058	
18	   C	260.759	49.984	-231.476	C.2	2	HIS2	0.597	
19	   O	261.682	50.620	-232.007	O.2	2	HIS2	-0.568	
20	  CB	260.629	49.270	-229.081	C.3	2	HIS2	-0.007	
21	  CG	261.454	49.835	-227.963	C.2	2	HIS2	0.187	
22	 CD2	260.895	50.325	-226.790	C.2	2	HIS2	-0.221	
23	 ND1	262.843	49.943	-227.948	N.2	2	HIS2	-0.543	
24	 CE1	263.018	50.508	-226.739	C.2	2	HIS2	0.163	
25	 NE2	261.914	50.765	-225.986	N.pl3	2	HIS2	-0.280	
26	   H	258.237	49.800	-229.473	 H	2	HIS2	0.272	
27	  HA	260.587	51.358	-229.884	 H	2	HIS2	0.136	
28	 2HB	261.212	48.456	-229.557	 H	2	HIS2	0.037	
29	 3HB	259.746	48.772	-228.628	 H	2	HIS2	0.037	
30	 2HD	259.830	50.342	-226.577	 H	2	HIS2	0.186	
31	 1HE	264.032	50.725	-226.429	 H	2	HIS2	0.144	
32	 2HE	261.851	51.186	-225.048	 H	2	HIS2	0.334	
33	   N	260.238	48.989	-232.111	N.am	3	PRO3	-0.255	
34	  CA	260.692	48.580	-233.431	C.3	3	PRO3	-0.027	
35	   C	260.296	49.604	-234.509	C.2	3	PRO3	0.590	
36	   O	261.121	49.987	-235.339	O.2	3	PRO3	-0.575	
37	  CB	259.988	47.225	-233.602	C.3	3	PRO3	-0.007	
38	  CG	258.704	47.378	-232.774	C.3	3	PRO3	0.019	
39	  CD	259.159	48.196	-231.563	C.3	3	PRO3	0.019	
40	  HA	261.778	48.460	-233.443	 H	3	PRO3	0.064	
41	 2HB	260.610	46.444	-233.160	 H	3	PRO3	0.025	
42	 3HB	259.792	46.977	-234.648	 H	3	PRO3	0.025	
43	 2HG	258.275	46.415	-232.484	 H	3	PRO3	0.021	
44	 3HG	257.967	47.949	-233.343	 H	3	PRO3	0.021	
45	 2HD	259.547	47.547	-230.775	 H	3	PRO3	0.039	
46	 3HD	258.362	48.832	-231.172	 H	3	PRO3	0.039	
47	   N	259.091	50.064	-234.543	N.am	4	GLU4	-0.516	
48	  CA	258.734	51.035	-235.574	C.3	4	GLU4	0.040	
49	   C	259.632	52.246	-235.511	C.2	4	GLU4	0.537	
50	   O	260.161	52.725	-236.525	O.2	4	GLU4	-0.582	
51	  CB	257.245	51.453	-235.406	C.3	4	GLU4	0.056	
52	  CG	256.698	52.457	-236.473	C.3	4	GLU4	0.014	
53	  CD	255.272	52.954	-236.331	C.2	4	GLU4	0.805	
54	 OE1	254.544	52.555	-235.402	O.co2	4	GLU4	-0.819	
55	 OE2	254.884	53.783	-237.180	O.co2	4	GLU4	-0.819	
56	   H	258.406	49.757	-233.868	 H	4	GLU4	0.294	
57	  HA	258.866	50.564	-236.565	 H	4	GLU4	0.111	
58	 2HB	257.091	51.893	-234.399	 H	4	GLU4	-0.017	
59	 3HB	256.597	50.556	-235.413	 H	4	GLU4	-0.017	
60	 2HG	256.782	52.042	-237.490	 H	4	GLU4	-0.043	
61	 3HG	257.287	53.389	-236.483	 H	4	GLU4	-0.043	
62	   N	259.858	52.798	-234.367	N.am	5	SER5	-0.416	
63	  CA	260.727	53.970	-234.308	C.3	5	SER5	-0.025	
64	   C	262.087	53.664	-234.891	C.2	5	SER5	0.597	
65	   O	262.636	54.418	-235.695	O.2	5	SER5	-0.568	
66	  CB	260.836	54.502	-232.857	C.3	5	SER5	0.212	
67	  OG	261.567	53.623	-231.995	O.3	5	SER5	-0.655	
68	   H	259.439	52.427	-233.527	 H	5	SER5	0.272	
69	  HA	260.279	54.760	-234.937	 H	5	SER5	0.084	
70	 2HB	259.836	54.696	-232.425	 H	5	SER5	0.035	
71	 3HB	261.342	55.488	-232.858	 H	5	SER5	0.035	
72	  HG	261.078	52.798	-231.945	 H	5	SER5	0.428	
73	   N	262.691	52.581	-234.536	N.am	6	ILE6	-0.416	
74	  CA	264.006	52.286	-235.100	C.3	6	ILE6	-0.060	
75	   C	263.951	52.248	-236.608	C.2	6	ILE6	0.597	
76	   O	264.787	52.836	-237.310	O.2	6	ILE6	-0.568	
77	  CB	264.604	50.950	-234.499	C.3	6	ILE6	0.130	
78	 CG1	264.621	50.888	-232.938	C.3	6	ILE6	-0.043	
79	 CG2	266.046	50.648	-235.012	C.3	6	ILE6	-0.320	
80	 CD1	264.890	49.499	-232.322	C.3	6	ILE6	-0.066	
81	   H	262.262	51.947	-233.877	 H	6	ILE6	0.272	
82	  HA	264.679	53.120	-234.831	 H	6	ILE6	0.087	
83	  HB	263.947	50.124	-234.844	 H	6	ILE6	0.019	
84	2HG1	263.638	51.208	-232.543	 H	6	ILE6	0.024	
85	3HG1	265.336	51.630	-232.532	 H	6	ILE6	0.024	
86	1HG2	266.107	50.555	-236.110	 H	6	ILE6	0.088	
87	2HG2	266.768	51.430	-234.708	 H	6	ILE6	0.088	
88	3HG2	266.436	49.686	-234.632	 H	6	ILE6	0.088	
89	1HD1	264.162	48.745	-232.678	 H	6	ILE6	0.019	
90	2HD1	265.901	49.120	-232.556	 H	6	ILE6	0.019	
91	3HD1	264.812	49.529	-231.220	 H	6	ILE6	0.019	
92	   N	263.006	51.585	-237.183	N.am	7	LEU7	-0.416	
93	  CA	262.954	51.549	-238.642	C.3	7	LEU7	-0.052	
94	   C	262.882	52.944	-239.214	C.2	7	LEU7	0.597	
95	   O	263.604	53.307	-240.155	O.2	7	LEU7	-0.568	
96	  CB	261.751	50.688	-239.124	C.3	7	LEU7	-0.110	
97	  CG	261.678	49.209	-238.657	C.3	7	LEU7	0.353	
98	 CD1	260.489	48.503	-239.325	C.3	7	LEU7	-0.412	
99	 CD2	262.972	48.430	-238.947	C.3	7	LEU7	-0.412	
100	   H	262.313	51.098	-236.633	 H	7	LEU7	0.272	
101	  HA	263.896	51.109	-239.014	 H	7	LEU7	0.092	
102	 2HB	261.730	50.705	-240.231	 H	7	LEU7	0.046	
103	 3HB	260.811	51.191	-238.821	 H	7	LEU7	0.046	
104	  HG	261.506	49.201	-237.561	 H	7	LEU7	-0.036	
105	1HD1	259.531	49.012	-239.104	 H	7	LEU7	0.100	
106	2HD1	260.590	48.463	-240.426	 H	7	LEU7	0.100	
107	3HD1	260.381	47.462	-238.969	 H	7	LEU7	0.100	
108	1HD2	263.249	48.460	-240.016	 H	7	LEU7	0.100	
109	2HD2	263.824	48.842	-238.374	 H	7	LEU7	0.100	
110	3HD2	262.890	47.368	-238.651	 H	7	LEU7	0.100	
111	   N	262.044	53.785	-238.709	N.am	8	ASP8	-0.516	
112	  CA	261.974	55.134	-239.263	C.3	8	ASP8	0.038	
113	   C	263.321	55.814	-239.203	C.2	8	ASP8	0.537	
114	   O	263.795	56.419	-240.177	O.2	8	ASP8	-0.582	
115	  CB	260.895	55.973	-238.523	C.3	8	ASP8	-0.030	
116	  CG	260.677	57.394	-239.064	C.2	8	ASP8	0.799	
117	 OD1	260.743	57.593	-240.294	O.co2	8	ASP8	-0.801	
118	 OD2	260.483	58.320	-238.248	O.co2	8	ASP8	-0.801	
119	   H	261.445	53.514	-237.943	 H	8	ASP8	0.294	
120	  HA	261.693	55.056	-240.330	 H	8	ASP8	0.088	
121	 2HB	261.150	56.056	-237.450	 H	8	ASP8	-0.012	
122	 3HB	259.916	55.468	-238.557	 H	8	ASP8	-0.012	
123	   N	263.999	55.764	-238.107	N.am	9	GLU9	-0.516	
124	  CA	265.301	56.422	-238.049	C.3	9	GLU9	0.040	
125	   C	266.221	55.894	-239.123	C.2	9	GLU9	0.537	
126	   O	266.887	56.649	-239.847	O.2	9	GLU9	-0.582	
127	  CB	265.932	56.214	-236.642	C.3	9	GLU9	0.056	
128	  CG	267.315	56.907	-236.411	C.3	9	GLU9	0.014	
129	  CD	268.014	56.693	-235.081	C.2	9	GLU9	0.805	
130	 OE1	267.491	56.002	-234.186	O.co2	9	GLU9	-0.819	
131	 OE2	269.133	57.231	-234.947	O.co2	9	GLU9	-0.819	
132	   H	263.634	55.278	-237.300	 H	9	GLU9	0.294	
133	  HA	265.159	57.504	-238.224	 H	9	GLU9	0.111	
134	 2HB	266.045	55.130	-236.439	 H	9	GLU9	-0.017	
135	 3HB	265.234	56.567	-235.859	 H	9	GLU9	-0.017	
136	 2HG	267.243	57.997	-236.550	 H	9	GLU9	-0.043	
137	 3HG	268.063	56.562	-237.143	 H	9	GLU9	-0.043	
138	   N	266.318	54.619	-239.293	N.am	10	HIS10	-0.416	
139	  CA	267.208	54.108	-240.331	C.3	10	HIS10	-0.058	
140	   C	266.844	54.673	-241.683	C.2	10	HIS10	0.597	
141	   O	267.697	55.138	-242.453	O.2	10	HIS10	-0.568	
142	  CB	267.044	52.579	-240.327	C.3	10	HIS10	-0.007	
143	  CG	268.330	51.869	-240.016	C.2	10	HIS10	0.187	
144	 CD2	268.708	51.534	-238.723	C.2	10	HIS10	-0.221	
145	 ND1	269.283	51.464	-240.947	N.2	10	HIS10	-0.543	
146	 CE1	270.189	50.905	-240.122	C.2	10	HIS10	0.163	
147	 NE2	269.923	50.902	-238.788	N.pl3	10	HIS10	-0.280	
148	   H	265.787	53.984	-238.715	 H	10	HIS10	0.272	
149	  HA	268.227	54.466	-240.104	 H	10	HIS10	0.136	
150	 2HB	266.681	52.212	-241.307	 H	10	HIS10	0.037	
151	 3HB	266.288	52.242	-239.588	 H	10	HIS10	0.037	
152	 2HD	268.121	51.749	-237.835	 H	10	HIS10	0.186	
153	 1HE	271.080	50.485	-240.568	 H	10	HIS10	0.144	
154	 2HE	270.489	50.525	-238.014	 H	10	HIS10	0.334	
155	   N	265.606	54.672	-242.048	N.am	11	VAL11	-0.416	
156	  CA	265.254	55.218	-243.356	C.3	11	VAL11	-0.087	
157	   C	265.718	56.648	-243.487	C.2	11	VAL11	0.597	
158	   O	266.321	57.054	-244.489	O.2	11	VAL11	-0.568	
159	  CB	263.693	55.111	-243.578	C.3	11	VAL11	0.299	
160	 CG1	263.126	55.815	-244.842	C.3	11	VAL11	-0.319	
161	 CG2	263.169	53.656	-243.652	C.3	11	VAL11	-0.319	
162	   H	264.893	54.299	-241.439	 H	11	VAL11	0.272	
163	  HA	265.775	54.636	-244.137	 H	11	VAL11	0.097	
164	  HB	263.204	55.591	-242.703	 H	11	VAL11	-0.030	
165	1HG1	263.567	55.423	-245.778	 H	11	VAL11	0.079	
166	2HG1	262.028	55.707	-244.926	 H	11	VAL11	0.079	
167	3HG1	263.304	56.907	-244.832	 H	11	VAL11	0.079	
168	1HG2	263.457	53.069	-242.761	 H	11	VAL11	0.079	
169	2HG2	262.063	53.619	-243.697	 H	11	VAL11	0.079	
170	3HG2	263.552	53.116	-244.538	 H	11	VAL11	0.079	
171	   N	265.479	57.474	-242.525	N.am	12	GLN12	-0.416	
172	  CA	265.927	58.857	-242.651	C.3	12	GLN12	-0.003	
173	   C	267.418	58.925	-242.887	C.2	12	GLN12	0.597	
174	   O	267.906	59.633	-243.764	O.2	12	GLN12	-0.568	
175	  CB	265.534	59.624	-241.369	C.3	12	GLN12	-0.004	
176	  CG	265.894	61.146	-241.337	C.3	12	GLN12	-0.064	
177	  CD	265.589	61.959	-240.073	C.2	12	GLN12	0.695	
178	 NE2	265.020	61.383	-239.045	N.pl3	12	GLN12	-0.941	
179	 OE1	265.890	63.140	-239.995	O.2	12	GLN12	-0.609	
180	   H	264.989	57.168	-241.697	 H	12	GLN12	0.272	
181	  HA	265.429	59.313	-243.527	 H	12	GLN12	0.085	
182	 2HB	266.009	59.124	-240.499	 H	12	GLN12	0.017	
183	 3HB	264.443	59.517	-241.208	 H	12	GLN12	0.017	
184	 2HG	265.418	61.667	-242.189	 H	12	GLN12	0.035	
185	 3HG	266.977	61.289	-241.501	 H	12	GLN12	0.035	
186	1HE2	264.911	61.977	-238.222	 H	12	GLN12	0.425	
187	2HE2	264.857	60.379	-239.149	 H	12	GLN12	0.425	
188	   N	268.201	58.218	-242.144	N.am	13	ARG13	-0.348	
189	  CA	269.642	58.284	-242.372	C.3	13	ARG13	-0.264	
190	   C	269.981	57.913	-243.797	C.2	13	ARG13	0.734	
191	   O	270.750	58.585	-244.480	O.2	13	ARG13	-0.589	
192	  CB	270.354	57.345	-241.357	C.3	13	ARG13	-0.001	
193	  CG	271.898	57.499	-241.274	C.3	13	ARG13	0.039	
194	  CD	272.524	56.511	-240.275	C.3	13	ARG13	0.049	
195	  NE	274.001	56.719	-240.222	N.pl3	13	ARG13	-0.530	
196	  CZ	274.848	56.027	-239.465	C.cat	13	ARG13	0.808	
197	 NH1	274.481	55.063	-238.668	N.pl3	13	ARG13	-0.863	
198	 NH2	276.107	56.327	-239.520	N.pl3	13	ARG13	-0.863	
199	   H	267.824	57.628	-241.417	 H	13	ARG13	0.275	
200	  HA	269.966	59.330	-242.213	 H	13	ARG13	0.156	
201	 2HB	270.088	56.295	-241.597	 H	13	ARG13	0.033	
202	 3HB	269.926	57.512	-240.348	 H	13	ARG13	0.033	
203	 2HG	272.145	58.544	-240.994	 H	13	ARG13	0.029	
204	 3HG	272.351	57.343	-242.274	 H	13	ARG13	0.029	
205	 2HD	272.280	55.471	-240.584	 H	13	ARG13	0.069	
206	 3HD	272.065	56.657	-239.273	 H	13	ARG13	0.069	
207	  HE	274.453	57.441	-240.791	 H	13	ARG13	0.346	
208	1HH1	273.476	54.876	-238.673	 H	13	ARG13	0.448	
209	2HH1	275.194	54.580	-238.118	 H	13	ARG13	0.448	
210	1HH2	276.376	57.085	-240.150	 H	13	ARG13	0.448	
211	2HH2	276.741	55.785	-238.930	 H	13	ARG13	0.448	
212	   N	269.446	56.859	-244.312	N.am	14	VAL14	-0.416	
213	  CA	269.773	56.500	-245.689	C.3	14	VAL14	-0.087	
214	   C	269.445	57.630	-246.635	C.2	14	VAL14	0.597	
215	   O	270.240	58.011	-247.504	O.2	14	VAL14	-0.568	
216	  CB	269.002	55.182	-246.098	C.3	14	VAL14	0.299	
217	 CG1	269.094	54.764	-247.591	C.3	14	VAL14	-0.319	
218	 CG2	269.433	53.930	-245.297	C.3	14	VAL14	-0.319	
219	   H	268.810	56.290	-243.772	 H	14	VAL14	0.272	
220	  HA	270.862	56.323	-245.762	 H	14	VAL14	0.097	
221	  HB	267.925	55.353	-245.884	 H	14	VAL14	-0.030	
222	1HG1	270.136	54.588	-247.918	 H	14	VAL14	0.079	
223	2HG1	268.522	53.841	-247.805	 H	14	VAL14	0.079	
224	3HG1	268.666	55.527	-248.270	 H	14	VAL14	0.079	
225	1HG2	269.344	54.088	-244.207	 H	14	VAL14	0.079	
226	2HG2	268.798	53.054	-245.531	 H	14	VAL14	0.079	
227	3HG2	270.481	53.641	-245.501	 H	14	VAL14	0.079	
228	   N	268.299	58.215	-246.536	N.am	15	MET15	-0.416	
229	  CA	267.980	59.308	-247.450	C.3	15	MET15	-0.024	
230	   C	269.010	60.408	-247.360	C.2	15	MET15	0.597	
231	   O	269.515	60.919	-248.372	O.2	15	MET15	-0.568	
232	  CB	266.558	59.853	-247.143	C.3	15	MET15	0.034	
233	  CG	265.397	58.855	-247.337	C.3	15	MET15	0.002	
234	  SD	263.823	59.721	-247.226	S.3	15	MET15	-0.274	
235	  CE	262.741	58.291	-247.091	C.3	15	MET15	-0.054	
236	   H	267.633	57.922	-245.835	 H	15	MET15	0.272	
237	  HA	268.008	58.921	-248.486	 H	15	MET15	0.088	
238	 2HB	266.357	60.732	-247.786	 H	15	MET15	0.024	
239	 3HB	266.521	60.246	-246.107	 H	15	MET15	0.024	
240	 2HG	265.439	58.069	-246.560	 H	15	MET15	0.044	
241	 3HG	265.462	58.340	-248.314	 H	15	MET15	0.044	
242	 1HE	262.887	57.602	-247.944	 H	15	MET15	0.068	
243	 2HE	262.949	57.738	-246.158	 H	15	MET15	0.068	
244	 3HE	261.684	58.605	-247.077	 H	15	MET15	0.068	
245	   N	269.377	60.829	-246.197	N.am	16	ARG16	-0.348	
246	  CA	270.373	61.893	-246.111	C.3	16	ARG16	-0.264	
247	   C	271.645	61.501	-246.825	C.2	16	ARG16	0.734	
248	   O	271.760	60.425	-247.407	O.2	16	ARG16	-0.589	
249	  CB	270.639	62.211	-244.613	C.3	16	ARG16	-0.001	
250	  CG	271.463	63.500	-244.338	C.3	16	ARG16	0.039	
251	  CD	271.710	63.720	-242.836	C.3	16	ARG16	0.049	
252	  NE	272.486	64.979	-242.634	N.pl3	16	ARG16	-0.530	
253	  CZ	272.875	65.461	-241.458	C.cat	16	ARG16	0.808	
254	 NH1	272.625	64.876	-240.319	N.pl3	16	ARG16	-0.863	
255	 NH2	273.538	66.574	-241.438	N.pl3	16	ARG16	-0.863	
256	   H	268.981	60.429	-245.359	 H	16	ARG16	0.275	
257	  HA	269.964	62.786	-246.622	 H	16	ARG16	0.156	
258	 2HB	271.135	61.335	-244.145	 H	16	ARG16	0.033	
259	 3HB	269.669	62.292	-244.081	 H	16	ARG16	0.033	
260	 2HG	270.934	64.371	-244.776	 H	16	ARG16	0.029	
261	 3HG	272.438	63.448	-244.865	 H	16	ARG16	0.029	
262	 2HD	272.259	62.845	-242.422	 H	16	ARG16	0.069	
263	 3HD	270.737	63.762	-242.303	 H	16	ARG16	0.069	
264	  HE	272.766	65.560	-243.431	 H	16	ARG16	0.346	
265	1HH1	272.100	64.003	-240.405	 H	16	ARG16	0.448	
266	2HH1	272.958	65.312	-239.458	 H	16	ARG16	0.448	
267	1HH2	273.725	67.017	-242.339	 H	16	ARG16	0.448	
268	2HH2	273.827	66.929	-240.525	 H	16	ARG16	0.448	
@<TRIPOS>BOND
1 1 2 1
2 1 10 1
3 2 3 1
4 2 5 1
5 2 11 1
6 3 4 2
7 3 16 1
8 5 6 1
9 6 7 1
10 7 8 2
11 7 9 1
12 5 12 1
13 5 13 1
14 6 14 1
15 6 15 1
16 16 17 1
17 16 26 1
18 17 18 1
19 17 20 1
20 17 27 1
21 18 19 2
22 18 33 1
23 20 21 1
24 21 22 2
25 22 25 1
26 21 23 1
27 23 24 2
28 24 25 1
29 20 28 1
30 20 29 1
31 22 30 1
32 24 31 1
33 25 32 1
34 33 34 1
35 33 39 1
36 34 35 1
37 34 37 1
38 34 40 1
39 35 36 2
40 35 47 1
41 37 38 1
42 38 39 1
43 37 41 1
44 37 42 1
45 38 43 1
46 38 44 1
47 39 45 1
48 39 46 1
49 47 48 1
50 47 56 1
51 48 49 1
52 48 51 1
53 48 57 1
54 49 50 2
55 49 62 1
56 51 52 1
57 52 53 1
58 53 54 2
59 53 55 1
60 51 58 1
61 51 59 1
62 52 60 1
63 52 61 1
64 62 63 1
65 62 68 1
66 63 64 1
67 63 66 1
68 63 69 1
69 64 65 2
70 64 73 1
71 66 67 1
72 66 70 1
73 66 71 1
74 67 72 1
75 73 74 1
76 73 81 1
77 74 75 1
78 74 77 1
79 74 82 1
80 75 76 2
81 75 92 1
82 77 78 1
83 77 79 1
84 78 80 1
85 77 83 1
86 78 84 1
87 78 85 1
88 79 86 1
89 79 87 1
90 79 88 1
91 80 89 1
92 80 90 1
93 80 91 1
94 92 93 1
95 92 100 1
96 93 94 1
97 93 96 1
98 93 101 1
99 94 95 2
100 94 111 1
101 96 97 1
102 97 98 1
103 97 99 1
104 96 102 1
105 96 103 1
106 97 104 1
107 98 105 1
108 98 106 1
109 98 107 1
110 99 108 1
111 99 109 1
112 99 110 1
113 111 112 1
114 111 119 1
115 112 113 1
116 112 115 1
117 112 120 1
118 113 114 2
119 113 123 1
120 115 116 1
121 116 117 2
122 116 118 1
123 115 121 1
124 115 122 1
125 123 124 1
126 123 132 1
127 124 125 1
128 124 127 1
129 124 133 1
130 125 126 2
131 125 138 1
132 127 128 1
133 128 129 1
134 129 130 2
135 129 131 1
136 127 134 1
137 127 135 1
138 128 136 1
139 128 137 1
140 138 139 1
141 138 148 1
142 139 140 1
143 139 142 1
144 139 149 1
145 140 141 2
146 140 155 1
147 142 143 1
148 143 144 2
149 144 147 1
150 143 145 1
151 145 146 2
152 146 147 1
153 142 150 1
154 142 151 1
155 144 152 1
156 146 153 1
157 147 154 1
158 155 156 1
159 155 162 1
160 156 157 1
161 156 159 1
162 156 163 1
163 157 158 2
164 157 171 1
165 159 160 1
166 159 161 1
167 159 164 1
168 160 165 1
169 160 166 1
170 160 167 1
171 161 168 1
172 161 169 1
173 161 170 1
174 171 172 1
175 171 180 1
176 172 173 1
177 172 175 1
178 172 181 1
179 173 174 2
180 173 188 1
181 175 176 1
182 176 177 1
183 177 178 1
184 177 179 2
185 175 182 1
186 175 183 1
187 176 184 1
188 176 185 1
189 178 186 1
190 178 187 1
191 188 189 1
192 188 199 1
193 189 190 1
194 189 192 1
195 189 200 1
196 190 191 2
197 190 212 1
198 192 193 1
199 193 194 1
200 194 195 1
201 195 196 1
202 196 197 2
203 196 198 1
204 192 201 1
205 192 202 1
206 193 203 1
207 193 204 1
208 194 205 1
209 194 206 1
210 195 207 1
211 197 208 1
212 197 209 1
213 198 210 1
214 198 211 1
215 212 213 1
216 212 219 1
217 213 214 1
218 213 216 1
219 213 220 1
220 214 215 2
221 214 228 1
222 216 217 1
223 216 218 1
224 216 221 1
225 217 222 1
226 217 223 1
227 217 224 1
228 218 225 1
229 218 226 1
230 218 227 1
231 228 229 1
232 228 236 1
233 229 230 1
234 229 232 1
235 229 237 1
236 230 231 2
237 230 245 1
238 232 233 1
239 233 234 1
240 234 235 1
241 232 238 1
242 232 239 1
243 233 240 1
244 233 241 1
245 235 242 1
246 235 243 1
247 235 244 1
248 245 246 1
249 245 256 1
250 246 247 1
251 246 249 1
252 246 257 1
253 247 248 2
254 249 250 1
255 250 251 1
256 251 252 1
257 252 253 1
258 253 254 2
259 253 255 1
260 249 258 1
261 249 259 1
262 250 260 1
263 250 261 1
264 251 262 1
265 251 263 1
266 252 264 1
267 254 265 1
268 254 266 1
269 255 267 1
270 255 268 1
@<TRIPOS>SUBSTRUCTURE
1	GLU1	1	RESIDUE	1 ****	GLU
2	HIS2	16	RESIDUE	1 ****	HIS
3	PRO3	33	RESIDUE	1 ****	PRO
4	GLU4	47	RESIDUE	1 ****	GLU
5	SER5	62	RESIDUE	1 ****	SER
6	ILE6	73	RESIDUE	1 ****	ILE
7	LEU7	92	RESIDUE	1 ****	LEU
8	ASP8	111	RESIDUE	1 ****	ASP
9	GLU9	123	RESIDUE	1 ****	GLU
10	HIS10	138	RESIDUE	1 ****	HIS
11	VAL11	155	RESIDUE	1 ****	VAL
12	GLN12	171	RESIDUE	1 ****	GLN
13	ARG13	188	RESIDUE	1 ****	ARG
14	VAL14	212	RESIDUE	1 ****	VAL
15	MET15	228	RESIDUE	1 ****	MET
16	ARG16	245	RESIDUE	1 ****	ARG
