@<TRIPOS>MOLECULE
12-3
255 256 16              
SMALL
USER_CHARGES
@<TRIPOS>ATOM
1	   N	1862.117	560.153	-1911.251	N.3	1	GLU1	-0.516	
2	  CA	1862.676	561.502	-1911.251	C.3	1	GLU1	0.040	
3	   C	1864.185	561.462	-1911.251	C.2	1	GLU1	0.537	
4	   O	1864.860	562.161	-1912.020	O.2	1	GLU1	-0.582	
5	  CB	1862.153	562.287	-1910.014	C.3	1	GLU1	0.056	
6	  CG	1862.628	563.772	-1909.903	C.3	1	GLU1	0.014	
7	  CD	1862.204	564.576	-1908.688	C.2	1	GLU1	0.805	
8	 OE1	1861.476	564.074	-1907.810	O.co2	1	GLU1	-0.819	
9	 OE2	1862.634	565.746	-1908.616	O.co2	1	GLU1	-0.819	
10	   H	1862.744	559.274	-1911.251	 H	1	GLU1	0.294	
11	  HA	1862.350	562.020	-1912.171	 H	1	GLU1	0.111	
12	 2HB	1862.442	561.756	-1909.084	 H	1	GLU1	-0.017	
13	 3HB	1861.046	562.277	-1910.001	 H	1	GLU1	-0.017	
14	 2HG	1862.318	564.357	-1910.784	 H	1	GLU1	-0.043	
15	 3HG	1863.728	563.839	-1909.874	 H	1	GLU1	-0.043	
16	   N	1864.789	560.676	-1910.426	N.am	2	ASN2	-0.416	
17	  CA	1866.249	560.638	-1910.426	C.3	2	ASN2	0.014	
18	   C	1866.780	560.282	-1911.794	C.2	2	ASN2	0.597	
19	   O	1867.695	560.912	-1912.323	O.2	2	ASN2	-0.568	
20	  CB	1866.740	559.615	-1909.361	C.3	2	ASN2	-0.204	
21	  CG	1866.277	559.839	-1907.918	C.2	2	ASN2	0.713	
22	 ND2	1866.872	560.753	-1907.200	N.pl3	2	ASN2	-0.919	
23	 OD1	1865.356	559.205	-1907.424	O.2	2	ASN2	-0.593	
24	   H	1864.261	560.097	-1909.789	 H	2	ASN2	0.272	
25	  HA	1866.626	561.648	-1910.181	 H	2	ASN2	0.105	
26	 2HB	1867.845	559.555	-1909.365	 H	2	ASN2	0.080	
27	 3HB	1866.411	558.596	-1909.647	 H	2	ASN2	0.080	
28	1HD2	1866.391	560.926	-1906.313	 H	2	ASN2	0.420	
29	2HD2	1867.573	561.325	-1907.669	 H	2	ASN2	0.420	
30	   N	1866.258	559.287	-1912.428	N.am	3	PRO3	-0.255	
31	  CA	1866.710	558.878	-1913.750	C.3	3	PRO3	-0.027	
32	   C	1866.312	559.901	-1914.827	C.2	3	PRO3	0.590	
33	   O	1867.135	560.284	-1915.658	O.2	3	PRO3	-0.575	
34	  CB	1866.006	557.523	-1913.919	C.3	3	PRO3	-0.007	
35	  CG	1864.723	557.675	-1913.089	C.3	3	PRO3	0.019	
36	  CD	1865.180	558.494	-1911.879	C.3	3	PRO3	0.019	
37	  HA	1867.796	558.758	-1913.764	 H	3	PRO3	0.064	
38	 2HB	1866.629	556.742	-1913.479	 H	3	PRO3	0.025	
39	 3HB	1865.807	557.274	-1914.965	 H	3	PRO3	0.025	
40	 2HG	1864.295	556.713	-1912.798	 H	3	PRO3	0.021	
41	 3HG	1863.985	558.246	-1913.656	 H	3	PRO3	0.021	
42	 2HD	1865.569	557.844	-1911.092	 H	3	PRO3	0.039	
43	 3HD	1864.384	559.130	-1911.486	 H	3	PRO3	0.039	
44	   N	1865.107	560.361	-1914.859	N.am	4	GLU4	-0.516	
45	  CA	1864.747	561.332	-1915.889	C.3	4	GLU4	0.040	
46	   C	1865.646	562.543	-1915.828	C.2	4	GLU4	0.537	
47	   O	1866.173	563.023	-1916.842	O.2	4	GLU4	-0.582	
48	  CB	1863.259	561.751	-1915.719	C.3	4	GLU4	0.056	
49	  CG	1862.711	562.755	-1916.784	C.3	4	GLU4	0.014	
50	  CD	1861.284	563.252	-1916.641	C.2	4	GLU4	0.805	
51	 OE1	1860.558	562.853	-1915.710	O.co2	4	GLU4	-0.819	
52	 OE2	1860.895	564.081	-1917.489	O.co2	4	GLU4	-0.819	
53	   H	1864.423	560.054	-1914.182	 H	4	GLU4	0.294	
54	  HA	1864.878	560.862	-1916.880	 H	4	GLU4	0.111	
55	 2HB	1863.107	562.191	-1914.712	 H	4	GLU4	-0.017	
56	 3HB	1862.611	560.853	-1915.725	 H	4	GLU4	-0.017	
57	 2HG	1862.792	562.340	-1917.802	 H	4	GLU4	-0.043	
58	 3HG	1863.299	563.687	-1916.795	 H	4	GLU4	-0.043	
59	   N	1865.874	563.096	-1914.684	N.am	5	SER5	-0.416	
60	  CA	1866.743	564.267	-1914.626	C.3	5	SER5	-0.025	
61	   C	1868.102	563.962	-1915.212	C.2	5	SER5	0.597	
62	   O	1868.649	564.715	-1916.017	O.2	5	SER5	-0.568	
63	  CB	1866.855	564.800	-1913.176	C.3	5	SER5	0.212	
64	  OG	1867.587	563.920	-1912.314	O.3	5	SER5	-0.655	
65	   H	1865.457	562.724	-1913.843	 H	5	SER5	0.272	
66	  HA	1866.294	565.057	-1915.255	 H	5	SER5	0.084	
67	 2HB	1865.855	564.993	-1912.742	 H	5	SER5	0.035	
68	 3HB	1867.360	565.785	-1913.178	 H	5	SER5	0.035	
69	  HG	1867.098	563.095	-1912.264	 H	5	SER5	0.428	
70	   N	1868.707	562.879	-1914.857	N.am	6	ILE6	-0.416	
71	  CA	1870.020	562.584	-1915.424	C.3	6	ILE6	-0.060	
72	   C	1869.963	562.546	-1916.931	C.2	6	ILE6	0.597	
73	   O	1870.798	563.134	-1917.635	O.2	6	ILE6	-0.568	
74	  CB	1870.620	561.248	-1914.824	C.3	6	ILE6	0.130	
75	 CG1	1870.640	561.186	-1913.263	C.3	6	ILE6	-0.043	
76	 CG2	1872.061	560.946	-1915.339	C.3	6	ILE6	-0.320	
77	 CD1	1870.910	559.797	-1912.648	C.3	6	ILE6	-0.066	
78	   H	1868.279	562.244	-1914.198	 H	6	ILE6	0.272	
79	  HA	1870.694	563.418	-1915.156	 H	6	ILE6	0.087	
80	  HB	1869.962	560.422	-1915.168	 H	6	ILE6	0.019	
81	2HG1	1869.657	561.505	-1912.867	 H	6	ILE6	0.024	
82	3HG1	1871.355	561.928	-1912.858	 H	6	ILE6	0.024	
83	1HG2	1872.120	560.853	-1916.438	 H	6	ILE6	0.088	
84	2HG2	1872.783	561.729	-1915.037	 H	6	ILE6	0.088	
85	3HG2	1872.452	559.984	-1914.960	 H	6	ILE6	0.088	
86	1HD1	1870.182	559.042	-1913.002	 H	6	ILE6	0.019	
87	2HD1	1871.920	559.418	-1912.884	 H	6	ILE6	0.019	
88	3HD1	1870.833	559.826	-1911.545	 H	6	ILE6	0.019	
89	   N	1869.017	561.883	-1917.505	N.am	7	LEU7	-0.416	
90	  CA	1868.962	561.847	-1918.964	C.3	7	LEU7	-0.052	
91	   C	1868.890	563.242	-1919.536	C.2	7	LEU7	0.597	
92	   O	1869.610	563.605	-1920.478	O.2	7	LEU7	-0.568	
93	  CB	1867.759	560.986	-1919.444	C.3	7	LEU7	-0.110	
94	  CG	1867.687	559.507	-1918.978	C.3	7	LEU7	0.353	
95	 CD1	1866.497	558.801	-1919.643	C.3	7	LEU7	-0.412	
96	 CD2	1868.981	558.728	-1919.269	C.3	7	LEU7	-0.412	
97	   H	1868.325	561.396	-1916.954	 H	7	LEU7	0.272	
98	  HA	1869.904	561.407	-1919.338	 H	7	LEU7	0.092	
99	 2HB	1867.736	561.002	-1920.552	 H	7	LEU7	0.046	
100	 3HB	1866.819	561.489	-1919.140	 H	7	LEU7	0.046	
101	  HG	1867.517	559.499	-1917.880	 H	7	LEU7	-0.036	
102	1HD1	1865.540	559.310	-1919.421	 H	7	LEU7	0.100	
103	2HD1	1866.596	558.761	-1920.744	 H	7	LEU7	0.100	
104	3HD1	1866.390	557.760	-1919.287	 H	7	LEU7	0.100	
105	1HD2	1869.256	558.758	-1920.339	 H	7	LEU7	0.100	
106	2HD2	1869.834	559.140	-1918.698	 H	7	LEU7	0.100	
107	3HD2	1868.899	557.666	-1918.973	 H	7	LEU7	0.100	
108	   N	1868.052	564.082	-1919.030	N.am	8	ASP8	-0.516	
109	  CA	1867.982	565.432	-1919.583	C.3	8	ASP8	0.038	
110	   C	1869.328	566.112	-1919.526	C.2	8	ASP8	0.537	
111	   O	1869.801	566.717	-1920.500	O.2	8	ASP8	-0.582	
112	  CB	1866.903	566.271	-1918.841	C.3	8	ASP8	-0.030	
113	  CG	1866.684	567.691	-1919.381	C.2	8	ASP8	0.799	
114	 OD1	1866.748	567.891	-1920.612	O.co2	8	ASP8	-0.801	
115	 OD2	1866.492	568.617	-1918.566	O.co2	8	ASP8	-0.801	
116	   H	1867.454	563.811	-1918.262	 H	8	ASP8	0.294	
117	  HA	1867.699	565.354	-1920.650	 H	8	ASP8	0.088	
118	 2HB	1867.161	566.354	-1917.769	 H	8	ASP8	-0.012	
119	 3HB	1865.924	565.765	-1918.874	 H	8	ASP8	-0.012	
120	   N	1870.008	566.062	-1918.430	N.am	9	GLU9	-0.516	
121	  CA	1871.310	566.720	-1918.375	C.3	9	GLU9	0.040	
122	   C	1872.229	566.193	-1919.451	C.2	9	GLU9	0.537	
123	   O	1872.892	566.948	-1920.176	O.2	9	GLU9	-0.582	
124	  CB	1871.944	566.512	-1916.969	C.3	9	GLU9	0.056	
125	  CG	1873.326	567.205	-1916.740	C.3	9	GLU9	0.014	
126	  CD	1874.028	566.992	-1915.411	C.2	9	GLU9	0.805	
127	 OE1	1873.506	566.300	-1914.515	O.co2	9	GLU9	-0.819	
128	 OE2	1875.147	567.530	-1915.279	O.co2	9	GLU9	-0.819	
129	   H	1869.645	565.575	-1917.624	 H	9	GLU9	0.294	
130	  HA	1871.168	567.802	-1918.550	 H	9	GLU9	0.111	
131	 2HB	1872.057	565.428	-1916.766	 H	9	GLU9	-0.017	
132	 3HB	1871.246	566.865	-1916.185	 H	9	GLU9	-0.017	
133	 2HG	1873.254	568.296	-1916.879	 H	9	GLU9	-0.043	
134	 3HG	1874.073	566.860	-1917.474	 H	9	GLU9	-0.043	
135	   N	1872.326	564.918	-1919.620	N.am	10	HIS10	-0.416	
136	  CA	1873.214	564.407	-1920.661	C.3	10	HIS10	-0.058	
137	   C	1872.847	564.972	-1922.012	C.2	10	HIS10	0.597	
138	   O	1873.699	565.437	-1922.783	O.2	10	HIS10	-0.568	
139	  CB	1873.050	562.878	-1920.656	C.3	10	HIS10	-0.007	
140	  CG	1874.336	562.168	-1920.348	C.2	10	HIS10	0.187	
141	 CD2	1874.717	561.833	-1919.056	C.2	10	HIS10	-0.221	
142	 ND1	1875.288	561.763	-1921.281	N.2	10	HIS10	-0.543	
143	 CE1	1876.195	561.205	-1920.458	C.2	10	HIS10	0.163	
144	 NE2	1875.932	561.201	-1919.122	N.pl3	10	HIS10	-0.280	
145	   H	1871.795	564.282	-1919.042	 H	10	HIS10	0.272	
146	  HA	1874.233	564.765	-1920.436	 H	10	HIS10	0.136	
147	 2HB	1872.685	562.511	-1921.636	 H	10	HIS10	0.037	
148	 3HB	1872.295	562.541	-1919.917	 H	10	HIS10	0.037	
149	 2HD	1874.131	562.047	-1918.167	 H	10	HIS10	0.186	
150	 1HE	1877.086	560.784	-1920.904	 H	10	HIS10	0.144	
151	 2HE	1876.499	560.824	-1918.349	 H	10	HIS10	0.334	
152	   N	1871.609	564.971	-1922.375	N.am	11	VAL11	-0.416	
153	  CA	1871.254	565.517	-1923.682	C.3	11	VAL11	-0.087	
154	   C	1871.718	566.948	-1923.814	C.2	11	VAL11	0.597	
155	   O	1872.319	567.354	-1924.817	O.2	11	VAL11	-0.568	
156	  CB	1869.693	565.410	-1923.902	C.3	11	VAL11	0.299	
157	 CG1	1869.125	566.114	-1925.164	C.3	11	VAL11	-0.319	
158	 CG2	1869.169	563.956	-1923.975	C.3	11	VAL11	-0.319	
159	   H	1870.896	564.597	-1921.765	 H	11	VAL11	0.272	
160	  HA	1871.774	564.935	-1924.464	 H	11	VAL11	0.097	
161	  HB	1869.205	565.890	-1923.026	 H	11	VAL11	-0.030	
162	1HG1	1869.563	565.723	-1926.102	 H	11	VAL11	0.079	
163	2HG1	1868.026	566.006	-1925.247	 H	11	VAL11	0.079	
164	3HG1	1869.302	567.206	-1925.155	 H	11	VAL11	0.079	
165	1HG2	1869.459	563.368	-1923.085	 H	11	VAL11	0.079	
166	2HG2	1868.063	563.918	-1924.018	 H	11	VAL11	0.079	
167	3HG2	1869.551	563.415	-1924.862	 H	11	VAL11	0.079	
168	   N	1871.481	567.773	-1922.851	N.am	12	GLY12	-0.416	
169	  CA	1871.929	569.157	-1922.978	C.3	12	GLY12	-0.025	
170	   C	1873.418	569.223	-1923.215	C.2	12	GLY12	0.597	
171	   O	1873.909	569.933	-1924.097	O.2	12	GLY12	-0.568	
172	   H	1870.992	567.467	-1922.022	 H	12	GLY12	0.272	
173	 3HA	1871.696	569.662	-1922.088	 H	12	GLY12	0.070	
174	  HA	1871.425	569.619	-1923.848	 H	12	GLY12	0.070	
175	   N	1874.201	568.515	-1922.474	N.am	13	ARG13	-0.348	
176	  CA	1875.642	568.580	-1922.704	C.3	13	ARG13	-0.264	
177	   C	1875.978	568.208	-1924.129	C.2	13	ARG13	0.734	
178	   O	1876.748	568.879	-1924.812	O.2	13	ARG13	-0.589	
179	  CB	1876.354	567.640	-1921.690	C.3	13	ARG13	-0.001	
180	  CG	1877.899	567.792	-1921.608	C.3	13	ARG13	0.039	
181	  CD	1878.524	566.803	-1920.610	C.3	13	ARG13	0.049	
182	  NE	1880.002	567.009	-1920.559	N.pl3	13	ARG13	-0.530	
183	  CZ	1880.849	566.316	-1919.803	C.cat	13	ARG13	0.808	
184	 NH1	1880.482	565.352	-1919.006	N.pl3	13	ARG13	-0.863	
185	 NH2	1882.108	566.614	-1919.859	N.pl3	13	ARG13	-0.863	
186	   H	1873.824	567.926	-1921.746	 H	13	ARG13	0.275	
187	  HA	1875.967	569.625	-1922.545	 H	13	ARG13	0.156	
188	 2HB	1876.087	566.590	-1921.929	 H	13	ARG13	0.033	
189	 3HB	1875.928	567.807	-1920.679	 H	13	ARG13	0.033	
190	 2HG	1878.148	568.836	-1921.328	 H	13	ARG13	0.029	
191	 3HG	1878.350	567.635	-1922.609	 H	13	ARG13	0.029	
192	 2HD	1878.279	565.763	-1920.919	 H	13	ARG13	0.069	
193	 3HD	1878.067	566.949	-1919.608	 H	13	ARG13	0.069	
194	  HE	1880.454	567.731	-1921.129	 H	13	ARG13	0.346	
195	1HH1	1879.476	565.167	-1919.010	 H	13	ARG13	0.448	
196	2HH1	1881.195	564.869	-1918.457	 H	13	ARG13	0.448	
197	1HH2	1882.377	567.372	-1920.490	 H	13	ARG13	0.448	
198	2HH2	1882.743	566.072	-1919.270	 H	13	ARG13	0.448	
199	   N	1875.441	567.154	-1924.644	N.am	14	VAL14	-0.416	
200	  CA	1875.766	566.794	-1926.021	C.3	14	VAL14	-0.087	
201	   C	1875.438	567.925	-1926.967	C.2	14	VAL14	0.597	
202	   O	1876.232	568.305	-1927.836	O.2	14	VAL14	-0.568	
203	  CB	1874.993	565.478	-1926.428	C.3	14	VAL14	0.299	
204	 CG1	1875.082	565.060	-1927.922	C.3	14	VAL14	-0.319	
205	 CG2	1875.423	564.226	-1925.627	C.3	14	VAL14	-0.319	
206	   H	1874.806	566.586	-1924.102	 H	14	VAL14	0.272	
207	  HA	1876.854	566.616	-1926.095	 H	14	VAL14	0.097	
208	  HB	1873.917	565.651	-1926.213	 H	14	VAL14	-0.030	
209	1HG1	1876.123	564.881	-1928.250	 H	14	VAL14	0.079	
210	2HG1	1874.508	564.137	-1928.134	 H	14	VAL14	0.079	
211	3HG1	1874.654	565.822	-1928.600	 H	14	VAL14	0.079	
212	1HG2	1875.335	564.384	-1924.537	 H	14	VAL14	0.079	
213	2HG2	1874.786	563.350	-1925.860	 H	14	VAL14	0.079	
214	3HG2	1876.470	563.934	-1925.833	 H	14	VAL14	0.079	
215	   N	1874.294	568.512	-1926.865	N.am	15	MET15	-0.416	
216	  CA	1873.975	569.605	-1927.779	C.3	15	MET15	-0.024	
217	   C	1875.006	570.704	-1927.691	C.2	15	MET15	0.597	
218	   O	1875.510	571.214	-1928.704	O.2	15	MET15	-0.568	
219	  CB	1872.554	570.152	-1927.471	C.3	15	MET15	0.034	
220	  CG	1871.391	569.155	-1927.663	C.3	15	MET15	0.002	
221	  SD	1869.818	570.022	-1927.549	S.3	15	MET15	-0.274	
222	  CE	1868.735	568.594	-1927.413	C.3	15	MET15	-0.054	
223	   H	1873.629	568.220	-1926.164	 H	15	MET15	0.272	
224	  HA	1874.001	569.217	-1928.815	 H	15	MET15	0.088	
225	 2HB	1872.353	571.031	-1928.113	 H	15	MET15	0.024	
226	 3HB	1872.519	570.544	-1926.435	 H	15	MET15	0.024	
227	 2HG	1871.433	568.369	-1926.885	 H	15	MET15	0.044	
228	 3HG	1871.454	568.639	-1928.639	 H	15	MET15	0.044	
229	 1HE	1868.879	567.905	-1928.265	 H	15	MET15	0.068	
230	 2HE	1868.944	568.041	-1926.480	 H	15	MET15	0.068	
231	 3HE	1867.678	568.910	-1927.397	 H	15	MET15	0.068	
232	   N	1875.375	571.125	-1926.529	N.am	16	ARG16	-0.348	
233	  CA	1876.372	572.188	-1926.445	C.3	16	ARG16	-0.264	
234	   C	1877.643	571.793	-1927.161	C.2	16	ARG16	0.734	
235	   O	1877.756	570.717	-1927.742	O.2	16	ARG16	-0.589	
236	  CB	1876.641	572.506	-1924.947	C.3	16	ARG16	-0.001	
237	  CG	1877.468	573.794	-1924.674	C.3	16	ARG16	0.039	
238	  CD	1877.717	574.013	-1923.173	C.3	16	ARG16	0.049	
239	  NE	1878.495	575.271	-1922.972	N.pl3	16	ARG16	-0.530	
240	  CZ	1878.886	575.754	-1921.797	C.cat	16	ARG16	0.808	
241	 NH1	1878.638	575.170	-1920.658	N.pl3	16	ARG16	-0.863	
242	 NH2	1879.552	576.866	-1921.778	N.pl3	16	ARG16	-0.863	
243	   H	1874.979	570.725	-1925.690	 H	16	ARG16	0.275	
244	  HA	1875.964	573.081	-1926.956	 H	16	ARG16	0.156	
245	 2HB	1877.137	571.629	-1924.480	 H	16	ARG16	0.033	
246	 3HB	1875.673	572.588	-1924.413	 H	16	ARG16	0.033	
247	 2HG	1876.938	574.665	-1925.112	 H	16	ARG16	0.029	
248	 3HG	1878.442	573.740	-1925.203	 H	16	ARG16	0.029	
249	 2HD	1878.265	573.138	-1922.759	 H	16	ARG16	0.069	
250	 3HD	1876.745	574.057	-1922.638	 H	16	ARG16	0.069	
251	  HE	1878.774	575.852	-1923.769	 H	16	ARG16	0.346	
252	1HH1	1878.111	574.297	-1920.742	 H	16	ARG16	0.448	
253	2HH1	1878.972	575.605	-1919.797	 H	16	ARG16	0.448	
254	1HH2	1879.738	577.308	-1922.680	 H	16	ARG16	0.448	
255	2HH2	1879.842	577.221	-1920.866	 H	16	ARG16	0.448	
@<TRIPOS>BOND
1 1 2 1
2 1 10 1
3 2 3 1
4 2 5 1
5 2 11 1
6 3 4 2
7 3 16 1
8 5 6 1
9 6 7 1
10 7 8 2
11 7 9 1
12 5 12 1
13 5 13 1
14 6 14 1
15 6 15 1
16 16 17 1
17 16 24 1
18 17 18 1
19 17 20 1
20 17 25 1
21 18 19 2
22 18 30 1
23 20 21 1
24 21 22 1
25 21 23 2
26 20 26 1
27 20 27 1
28 22 28 1
29 22 29 1
30 30 31 1
31 30 36 1
32 31 32 1
33 31 34 1
34 31 37 1
35 32 33 2
36 32 44 1
37 34 35 1
38 35 36 1
39 34 38 1
40 34 39 1
41 35 40 1
42 35 41 1
43 36 42 1
44 36 43 1
45 44 45 1
46 44 53 1
47 45 46 1
48 45 48 1
49 45 54 1
50 46 47 2
51 46 59 1
52 48 49 1
53 49 50 1
54 50 51 2
55 50 52 1
56 48 55 1
57 48 56 1
58 49 57 1
59 49 58 1
60 59 60 1
61 59 65 1
62 60 61 1
63 60 63 1
64 60 66 1
65 61 62 2
66 61 70 1
67 63 64 1
68 63 67 1
69 63 68 1
70 64 69 1
71 70 71 1
72 70 78 1
73 71 72 1
74 71 74 1
75 71 79 1
76 72 73 2
77 72 89 1
78 74 75 1
79 74 76 1
80 75 77 1
81 74 80 1
82 75 81 1
83 75 82 1
84 76 83 1
85 76 84 1
86 76 85 1
87 77 86 1
88 77 87 1
89 77 88 1
90 89 90 1
91 89 97 1
92 90 91 1
93 90 93 1
94 90 98 1
95 91 92 2
96 91 108 1
97 93 94 1
98 94 95 1
99 94 96 1
100 93 99 1
101 93 100 1
102 94 101 1
103 95 102 1
104 95 103 1
105 95 104 1
106 96 105 1
107 96 106 1
108 96 107 1
109 108 109 1
110 108 116 1
111 109 110 1
112 109 112 1
113 109 117 1
114 110 111 2
115 110 120 1
116 112 113 1
117 113 114 2
118 113 115 1
119 112 118 1
120 112 119 1
121 120 121 1
122 120 129 1
123 121 122 1
124 121 124 1
125 121 130 1
126 122 123 2
127 122 135 1
128 124 125 1
129 125 126 1
130 126 127 2
131 126 128 1
132 124 131 1
133 124 132 1
134 125 133 1
135 125 134 1
136 135 136 1
137 135 145 1
138 136 137 1
139 136 139 1
140 136 146 1
141 137 138 2
142 137 152 1
143 139 140 1
144 140 141 2
145 141 144 1
146 140 142 1
147 142 143 2
148 143 144 1
149 139 147 1
150 139 148 1
151 141 149 1
152 143 150 1
153 144 151 1
154 152 153 1
155 152 159 1
156 153 154 1
157 153 156 1
158 153 160 1
159 154 155 2
160 154 168 1
161 156 157 1
162 156 158 1
163 156 161 1
164 157 162 1
165 157 163 1
166 157 164 1
167 158 165 1
168 158 166 1
169 158 167 1
170 168 169 1
171 168 172 1
172 169 170 1
173 169 173 1
174 169 174 1
175 170 171 2
176 170 175 1
177 175 176 1
178 175 186 1
179 176 177 1
180 176 179 1
181 176 187 1
182 177 178 2
183 177 199 1
184 179 180 1
185 180 181 1
186 181 182 1
187 182 183 1
188 183 184 2
189 183 185 1
190 179 188 1
191 179 189 1
192 180 190 1
193 180 191 1
194 181 192 1
195 181 193 1
196 182 194 1
197 184 195 1
198 184 196 1
199 185 197 1
200 185 198 1
201 199 200 1
202 199 206 1
203 200 201 1
204 200 203 1
205 200 207 1
206 201 202 2
207 201 215 1
208 203 204 1
209 203 205 1
210 203 208 1
211 204 209 1
212 204 210 1
213 204 211 1
214 205 212 1
215 205 213 1
216 205 214 1
217 215 216 1
218 215 223 1
219 216 217 1
220 216 219 1
221 216 224 1
222 217 218 2
223 217 232 1
224 219 220 1
225 220 221 1
226 221 222 1
227 219 225 1
228 219 226 1
229 220 227 1
230 220 228 1
231 222 229 1
232 222 230 1
233 222 231 1
234 232 233 1
235 232 243 1
236 233 234 1
237 233 236 1
238 233 244 1
239 234 235 2
240 236 237 1
241 237 238 1
242 238 239 1
243 239 240 1
244 240 241 2
245 240 242 1
246 236 245 1
247 236 246 1
248 237 247 1
249 237 248 1
250 238 249 1
251 238 250 1
252 239 251 1
253 241 252 1
254 241 253 1
255 242 254 1
256 242 255 1
@<TRIPOS>SUBSTRUCTURE
1	GLU1	1	RESIDUE	1 ****	GLU
2	ASN2	16	RESIDUE	1 ****	ASN
3	PRO3	30	RESIDUE	1 ****	PRO
4	GLU4	44	RESIDUE	1 ****	GLU
5	SER5	59	RESIDUE	1 ****	SER
6	ILE6	70	RESIDUE	1 ****	ILE
7	LEU7	89	RESIDUE	1 ****	LEU
8	ASP8	108	RESIDUE	1 ****	ASP
9	GLU9	120	RESIDUE	1 ****	GLU
10	HIS10	135	RESIDUE	1 ****	HIS
11	VAL11	152	RESIDUE	1 ****	VAL
12	GLY12	168	RESIDUE	1 ****	GLY
13	ARG13	175	RESIDUE	1 ****	ARG
14	VAL14	199	RESIDUE	1 ****	VAL
15	MET15	215	RESIDUE	1 ****	MET
16	ARG16	232	RESIDUE	1 ****	ARG
