@<TRIPOS>MOLECULE
13-8
261 263 16              
SMALL
USER_CHARGES
@<TRIPOS>ATOM
1	   N	2064.864	626.214	-2133.693	N.3	1	GLU1	-0.516	
2	  CA	2065.423	627.563	-2133.693	C.3	1	GLU1	0.040	
3	   C	2066.932	627.523	-2133.693	C.2	1	GLU1	0.537	
4	   O	2067.608	628.222	-2134.461	O.2	1	GLU1	-0.582	
5	  CB	2064.900	628.348	-2132.456	C.3	1	GLU1	0.056	
6	  CG	2065.375	629.833	-2132.345	C.3	1	GLU1	0.014	
7	  CD	2064.951	630.637	-2131.130	C.2	1	GLU1	0.805	
8	 OE1	2064.223	630.135	-2130.252	O.co2	1	GLU1	-0.819	
9	 OE2	2065.381	631.807	-2131.058	O.co2	1	GLU1	-0.819	
10	   H	2065.491	625.335	-2133.693	 H	1	GLU1	0.294	
11	  HA	2065.097	628.081	-2134.613	 H	1	GLU1	0.111	
12	 2HB	2065.189	627.817	-2131.526	 H	1	GLU1	-0.017	
13	 3HB	2063.793	628.338	-2132.443	 H	1	GLU1	-0.017	
14	 2HG	2065.065	630.418	-2133.226	 H	1	GLU1	-0.043	
15	 3HG	2066.475	629.900	-2132.316	 H	1	GLU1	-0.043	
16	   N	2067.537	626.738	-2132.867	N.am	2	ASN2	-0.416	
17	  CA	2068.996	626.699	-2132.867	C.3	2	ASN2	0.014	
18	   C	2069.528	626.343	-2134.236	C.2	2	ASN2	0.597	
19	   O	2070.443	626.973	-2134.764	O.2	2	ASN2	-0.568	
20	  CB	2069.488	625.676	-2131.803	C.3	2	ASN2	-0.204	
21	  CG	2069.024	625.899	-2130.360	C.2	2	ASN2	0.713	
22	 ND2	2069.618	626.814	-2129.641	N.pl3	2	ASN2	-0.919	
23	 OD1	2068.103	625.266	-2129.865	O.2	2	ASN2	-0.593	
24	   H	2067.009	626.158	-2132.231	 H	2	ASN2	0.272	
25	  HA	2069.374	627.708	-2132.622	 H	2	ASN2	0.105	
26	 2HB	2070.592	625.617	-2131.806	 H	2	ASN2	0.080	
27	 3HB	2069.159	624.657	-2132.089	 H	2	ASN2	0.080	
28	1HD2	2069.137	626.988	-2128.755	 H	2	ASN2	0.420	
29	2HD2	2070.320	627.386	-2130.110	 H	2	ASN2	0.420	
30	   N	2069.006	625.348	-2134.870	N.am	3	PRO3	-0.255	
31	  CA	2069.458	624.939	-2136.191	C.3	3	PRO3	-0.027	
32	   C	2069.061	625.962	-2137.269	C.2	3	PRO3	0.590	
33	   O	2069.884	626.345	-2138.100	O.2	3	PRO3	-0.575	
34	  CB	2068.754	623.584	-2136.361	C.3	3	PRO3	-0.007	
35	  CG	2067.470	623.737	-2135.531	C.3	3	PRO3	0.019	
36	  CD	2067.928	624.555	-2134.321	C.3	3	PRO3	0.019	
37	  HA	2070.544	624.819	-2136.205	 H	3	PRO3	0.064	
38	 2HB	2069.377	622.803	-2135.920	 H	3	PRO3	0.025	
39	 3HB	2068.556	623.336	-2137.406	 H	3	PRO3	0.025	
40	 2HG	2067.042	622.775	-2135.240	 H	3	PRO3	0.021	
41	 3HG	2066.733	624.308	-2136.099	 H	3	PRO3	0.021	
42	 2HD	2068.317	623.905	-2133.534	 H	3	PRO3	0.039	
43	 3HD	2067.131	625.191	-2133.929	 H	3	PRO3	0.039	
44	   N	2067.856	626.423	-2137.301	N.am	4	GLU4	-0.516	
45	  CA	2067.497	627.394	-2138.331	C.3	4	GLU4	0.040	
46	   C	2068.396	628.604	-2138.270	C.2	4	GLU4	0.537	
47	   O	2068.923	629.084	-2139.284	O.2	4	GLU4	-0.582	
48	  CB	2066.008	627.813	-2138.161	C.3	4	GLU4	0.056	
49	  CG	2065.461	628.817	-2139.227	C.3	4	GLU4	0.014	
50	  CD	2064.034	629.314	-2139.084	C.2	4	GLU4	0.805	
51	 OE1	2063.307	628.915	-2138.154	O.co2	4	GLU4	-0.819	
52	 OE2	2063.645	630.143	-2139.933	O.co2	4	GLU4	-0.819	
53	   H	2067.171	626.116	-2136.625	 H	4	GLU4	0.294	
54	  HA	2067.628	626.923	-2139.322	 H	4	GLU4	0.111	
55	 2HB	2065.855	628.252	-2137.155	 H	4	GLU4	-0.017	
56	 3HB	2065.360	626.915	-2138.168	 H	4	GLU4	-0.017	
57	 2HG	2065.542	628.402	-2140.245	 H	4	GLU4	-0.043	
58	 3HG	2066.049	629.749	-2139.238	 H	4	GLU4	-0.043	
59	   N	2068.623	629.157	-2137.126	N.am	5	SER5	-0.416	
60	  CA	2069.493	630.328	-2137.067	C.3	5	SER5	-0.025	
61	   C	2070.852	630.022	-2137.653	C.2	5	SER5	0.597	
62	   O	2071.399	630.775	-2138.457	O.2	5	SER5	-0.568	
63	  CB	2069.604	630.860	-2135.617	C.3	5	SER5	0.212	
64	  OG	2070.335	629.981	-2134.756	O.3	5	SER5	-0.655	
65	   H	2068.205	628.786	-2136.285	 H	5	SER5	0.272	
66	  HA	2069.044	631.119	-2137.697	 H	5	SER5	0.084	
67	 2HB	2068.604	631.054	-2135.184	 H	5	SER5	0.035	
68	 3HB	2070.109	631.846	-2135.619	 H	5	SER5	0.035	
69	  HG	2069.846	629.156	-2134.705	 H	5	SER5	0.428	
70	   N	2071.456	628.939	-2137.298	N.am	6	ILE6	-0.416	
71	  CA	2072.769	628.643	-2137.864	C.3	6	ILE6	-0.060	
72	   C	2072.712	628.606	-2139.372	C.2	6	ILE6	0.597	
73	   O	2073.547	629.193	-2140.076	O.2	6	ILE6	-0.568	
74	  CB	2073.368	627.307	-2137.264	C.3	6	ILE6	0.130	
75	 CG1	2073.387	627.245	-2135.703	C.3	6	ILE6	-0.043	
76	 CG2	2074.809	627.005	-2137.779	C.3	6	ILE6	-0.320	
77	 CD1	2073.656	625.855	-2135.088	C.3	6	ILE6	-0.066	
78	   H	2071.027	628.305	-2136.640	 H	6	ILE6	0.272	
79	  HA	2073.443	629.477	-2137.596	 H	6	ILE6	0.087	
80	  HB	2072.710	626.481	-2137.608	 H	6	ILE6	0.019	
81	2HG1	2072.405	627.565	-2135.307	 H	6	ILE6	0.024	
82	3HG1	2074.103	627.987	-2135.298	 H	6	ILE6	0.024	
83	1HG2	2074.868	626.911	-2138.877	 H	6	ILE6	0.088	
84	2HG2	2075.532	627.787	-2137.476	 H	6	ILE6	0.088	
85	3HG2	2075.199	626.042	-2137.400	 H	6	ILE6	0.088	
86	1HD1	2072.928	625.102	-2135.443	 H	6	ILE6	0.019	
87	2HD1	2074.667	625.476	-2135.323	 H	6	ILE6	0.019	
88	3HD1	2073.580	625.885	-2133.985	 H	6	ILE6	0.019	
89	   N	2071.766	627.943	-2139.946	N.am	7	LEU7	-0.416	
90	  CA	2071.711	627.906	-2141.404	C.3	7	LEU7	-0.052	
91	   C	2071.639	629.302	-2141.977	C.2	7	LEU7	0.597	
92	   O	2072.360	629.663	-2142.919	O.2	7	LEU7	-0.568	
93	  CB	2070.508	627.047	-2141.885	C.3	7	LEU7	-0.110	
94	  CG	2070.434	625.567	-2141.418	C.3	7	LEU7	0.353	
95	 CD1	2069.244	624.862	-2142.083	C.3	7	LEU7	-0.412	
96	 CD2	2071.728	624.787	-2141.709	C.3	7	LEU7	-0.412	
97	   H	2071.074	627.456	-2139.394	 H	7	LEU7	0.272	
98	  HA	2072.653	627.466	-2141.779	 H	7	LEU7	0.092	
99	 2HB	2070.484	627.062	-2142.992	 H	7	LEU7	0.046	
100	 3HB	2069.568	627.549	-2141.581	 H	7	LEU7	0.046	
101	  HG	2070.264	625.559	-2140.321	 H	7	LEU7	-0.036	
102	1HD1	2068.287	625.371	-2141.861	 H	7	LEU7	0.100	
103	2HD1	2069.344	624.821	-2143.185	 H	7	LEU7	0.100	
104	3HD1	2069.137	623.821	-2141.727	 H	7	LEU7	0.100	
105	1HD2	2072.003	624.818	-2142.779	 H	7	LEU7	0.100	
106	2HD2	2072.581	625.199	-2141.138	 H	7	LEU7	0.100	
107	3HD2	2071.646	623.725	-2141.413	 H	7	LEU7	0.100	
108	   N	2070.802	630.143	-2141.471	N.am	8	ASP8	-0.516	
109	  CA	2070.732	631.492	-2142.025	C.3	8	ASP8	0.038	
110	   C	2072.079	632.171	-2141.969	C.2	8	ASP8	0.537	
111	   O	2072.552	632.775	-2142.944	O.2	8	ASP8	-0.582	
112	  CB	2069.655	632.332	-2141.284	C.3	8	ASP8	-0.030	
113	  CG	2069.437	633.753	-2141.825	C.2	8	ASP8	0.799	
114	 OD1	2069.501	633.951	-2143.056	O.co2	8	ASP8	-0.801	
115	 OD2	2069.245	634.679	-2141.011	O.co2	8	ASP8	-0.801	
116	   H	2070.204	629.872	-2140.703	 H	8	ASP8	0.294	
117	  HA	2070.449	631.414	-2143.092	 H	8	ASP8	0.088	
118	 2HB	2069.912	632.416	-2140.212	 H	8	ASP8	-0.012	
119	 3HB	2068.675	631.827	-2141.317	 H	8	ASP8	-0.012	
120	   N	2072.759	632.122	-2140.873	N.am	9	GLU9	-0.516	
121	  CA	2074.062	632.779	-2140.819	C.3	9	GLU9	0.040	
122	   C	2074.980	632.250	-2141.895	C.2	9	GLU9	0.537	
123	   O	2075.644	633.004	-2142.621	O.2	9	GLU9	-0.582	
124	  CB	2074.696	632.571	-2139.413	C.3	9	GLU9	0.056	
125	  CG	2076.079	633.263	-2139.185	C.3	9	GLU9	0.014	
126	  CD	2076.781	633.050	-2137.856	C.2	9	GLU9	0.805	
127	 OE1	2076.259	632.360	-2136.959	O.co2	9	GLU9	-0.819	
128	 OE2	2077.900	633.588	-2137.725	O.co2	9	GLU9	-0.819	
129	   H	2072.396	631.636	-2140.066	 H	9	GLU9	0.294	
130	  HA	2073.921	633.860	-2140.994	 H	9	GLU9	0.111	
131	 2HB	2074.808	631.487	-2139.209	 H	9	GLU9	-0.017	
132	 3HB	2073.999	632.925	-2138.629	 H	9	GLU9	-0.017	
133	 2HG	2076.007	634.354	-2139.325	 H	9	GLU9	-0.043	
134	 3HG	2076.825	632.917	-2139.918	 H	9	GLU9	-0.043	
135	   N	2075.076	630.975	-2142.063	N.am	10	HIS10	-0.416	
136	  CA	2075.963	630.462	-2143.104	C.3	10	HIS10	-0.058	
137	   C	2075.596	631.026	-2144.455	C.2	10	HIS10	0.597	
138	   O	2076.449	631.490	-2145.227	O.2	10	HIS10	-0.568	
139	  CB	2075.799	628.934	-2143.098	C.3	10	HIS10	-0.007	
140	  CG	2077.084	628.223	-2142.790	C.2	10	HIS10	0.187	
141	 CD2	2077.465	627.888	-2141.498	C.2	10	HIS10	-0.221	
142	 ND1	2078.035	627.816	-2143.723	N.2	10	HIS10	-0.543	
143	 CE1	2078.942	627.258	-2142.899	C.2	10	HIS10	0.163	
144	 NE2	2078.680	627.256	-2141.564	N.pl3	10	HIS10	-0.280	
145	   H	2074.545	630.340	-2141.484	 H	10	HIS10	0.272	
146	  HA	2076.983	630.820	-2142.879	 H	10	HIS10	0.136	
147	 2HB	2075.433	628.566	-2144.078	 H	10	HIS10	0.037	
148	 3HB	2075.043	628.597	-2142.357	 H	10	HIS10	0.037	
149	 2HD	2076.880	628.104	-2140.608	 H	10	HIS10	0.186	
150	 1HE	2079.833	626.836	-2143.347	 H	10	HIS10	0.144	
151	 2HE	2079.247	626.879	-2140.791	 H	10	HIS10	0.334	
152	   N	2074.358	631.026	-2144.818	N.am	11	VAL11	-0.416	
153	  CA	2074.003	631.572	-2146.125	C.3	11	VAL11	-0.087	
154	   C	2074.469	633.002	-2146.258	C.2	11	VAL11	0.597	
155	   O	2075.070	633.406	-2147.261	O.2	11	VAL11	-0.568	
156	  CB	2072.442	631.466	-2146.344	C.3	11	VAL11	0.299	
157	 CG1	2071.874	632.169	-2147.607	C.3	11	VAL11	-0.319	
158	 CG2	2071.917	630.012	-2146.416	C.3	11	VAL11	-0.319	
159	   H	2073.645	630.654	-2144.207	 H	11	VAL11	0.272	
160	  HA	2074.522	630.988	-2146.907	 H	11	VAL11	0.097	
161	  HB	2071.955	631.947	-2145.469	 H	11	VAL11	-0.030	
162	1HG1	2072.312	631.776	-2148.544	 H	11	VAL11	0.079	
163	2HG1	2070.774	632.062	-2147.689	 H	11	VAL11	0.079	
164	3HG1	2072.052	633.261	-2147.598	 H	11	VAL11	0.079	
165	1HG2	2072.206	629.425	-2145.525	 H	11	VAL11	0.079	
166	2HG2	2070.811	629.975	-2146.459	 H	11	VAL11	0.079	
167	3HG2	2072.298	629.470	-2147.302	 H	11	VAL11	0.079	
168	   N	2074.232	633.828	-2145.296	N.am	12	GLN12	-0.416	
169	  CA	2074.681	635.211	-2145.424	C.3	12	GLN12	-0.003	
170	   C	2076.171	635.277	-2145.662	C.2	12	GLN12	0.597	
171	   O	2076.658	635.985	-2146.542	O.2	12	GLN12	-0.568	
172	  CB	2074.291	635.979	-2144.142	C.3	12	GLN12	-0.004	
173	  CG	2074.652	637.501	-2144.112	C.3	12	GLN12	-0.064	
174	  CD	2074.351	638.315	-2142.847	C.2	12	GLN12	0.695	
175	 NE2	2073.784	637.740	-2141.818	N.pl3	12	GLN12	-0.941	
176	 OE1	2074.653	639.496	-2142.770	O.2	12	GLN12	-0.609	
177	   H	2073.743	633.523	-2144.467	 H	12	GLN12	0.272	
178	  HA	2074.182	635.667	-2146.299	 H	12	GLN12	0.085	
179	 2HB	2074.767	635.479	-2143.272	 H	12	GLN12	0.017	
180	 3HB	2073.201	635.872	-2143.978	 H	12	GLN12	0.017	
181	 2HG	2074.175	638.021	-2144.962	 H	12	GLN12	0.035	
182	 3HG	2075.736	637.642	-2144.278	 H	12	GLN12	0.035	
183	1HE2	2073.677	638.334	-2140.995	 H	12	GLN12	0.425	
184	2HE2	2073.619	636.736	-2141.921	 H	12	GLN12	0.425	
185	   N	2076.955	634.570	-2144.921	N.am	13	PHE13	-0.416	
186	  CA	2078.396	634.635	-2145.152	C.3	13	PHE13	-0.002	
187	   C	2078.734	634.262	-2146.576	C.2	13	PHE13	0.597	
188	   O	2079.525	634.953	-2147.277	O.2	13	PHE13	-0.568	
189	  CB	2079.135	633.658	-2144.188	C.3	13	PHE13	-0.034	
190	  CG	2078.911	633.880	-2142.684	C.2	13	PHE13	0.012	
191	 CD1	2077.834	633.254	-2142.045	C.2	13	PHE13	-0.126	
192	 CD2	2079.730	634.749	-2141.959	C.2	13	PHE13	-0.126	
193	 CE1	2077.571	633.508	-2140.704	C.2	13	PHE13	-0.170	
194	 CE2	2079.472	634.995	-2140.613	C.2	13	PHE13	-0.170	
195	  CZ	2078.390	634.376	-2139.987	C.2	13	PHE13	-0.107	
196	   H	2076.579	633.981	-2144.192	 H	13	PHE13	0.272	
197	  HA	2078.741	635.671	-2144.978	 H	13	PHE13	0.098	
198	 2HB	2080.224	633.698	-2144.388	 H	13	PHE13	0.030	
199	 3HB	2078.865	632.612	-2144.439	 H	13	PHE13	0.030	
200	 1HD	2077.175	632.603	-2142.604	 H	13	PHE13	0.133	
201	 2HD	2080.558	635.249	-2142.443	 H	13	PHE13	0.133	
202	 1HE	2076.719	633.043	-2140.229	 H	13	PHE13	0.143	
203	 2HE	2080.104	635.673	-2140.058	 H	13	PHE13	0.143	
204	  HZ	2078.180	634.576	-2138.947	 H	13	PHE13	0.130	
205	   N	2078.198	633.208	-2147.092	N.am	14	VAL14	-0.416	
206	  CA	2078.525	632.849	-2148.469	C.3	14	VAL14	-0.087	
207	   C	2078.198	633.979	-2149.415	C.2	14	VAL14	0.597	
208	   O	2078.993	634.360	-2150.283	O.2	14	VAL14	-0.568	
209	  CB	2077.753	631.532	-2148.877	C.3	14	VAL14	0.299	
210	 CG1	2077.844	631.114	-2150.370	C.3	14	VAL14	-0.319	
211	 CG2	2078.182	630.280	-2148.076	C.3	14	VAL14	-0.319	
212	   H	2077.562	632.640	-2146.551	 H	14	VAL14	0.272	
213	  HA	2079.614	632.671	-2148.541	 H	14	VAL14	0.097	
214	  HB	2076.676	631.704	-2148.663	 H	14	VAL14	-0.030	
215	1HG1	2078.886	630.936	-2150.697	 H	14	VAL14	0.079	
216	2HG1	2077.271	630.191	-2150.584	 H	14	VAL14	0.079	
217	3HG1	2077.417	631.877	-2151.049	 H	14	VAL14	0.079	
218	1HG2	2078.093	630.438	-2146.985	 H	14	VAL14	0.079	
219	2HG2	2077.546	629.404	-2148.309	 H	14	VAL14	0.079	
220	3HG2	2079.230	629.989	-2148.280	 H	14	VAL14	0.079	
221	   N	2077.053	634.566	-2149.315	N.am	15	MET15	-0.416	
222	  CA	2076.735	635.658	-2150.229	C.3	15	MET15	-0.024	
223	   C	2077.766	636.758	-2150.140	C.2	15	MET15	0.597	
224	   O	2078.271	637.267	-2151.152	O.2	15	MET15	-0.568	
225	  CB	2075.314	636.206	-2149.924	C.3	15	MET15	0.034	
226	  CG	2074.151	635.208	-2150.117	C.3	15	MET15	0.002	
227	  SD	2072.578	636.076	-2150.006	S.3	15	MET15	-0.274	
228	  CE	2071.495	634.648	-2149.872	C.3	15	MET15	-0.054	
229	   H	2076.386	634.273	-2148.615	 H	15	MET15	0.272	
230	  HA	2076.763	635.271	-2151.265	 H	15	MET15	0.088	
231	 2HB	2075.114	637.084	-2150.566	 H	15	MET15	0.024	
232	 3HB	2075.277	636.598	-2148.887	 H	15	MET15	0.024	
233	 2HG	2074.192	634.423	-2149.339	 H	15	MET15	0.044	
234	 3HG	2074.216	634.693	-2151.094	 H	15	MET15	0.044	
235	 1HE	2071.640	633.959	-2150.723	 H	15	MET15	0.068	
236	 2HE	2071.702	634.095	-2148.938	 H	15	MET15	0.068	
237	 3HE	2070.438	634.964	-2149.857	 H	15	MET15	0.068	
238	   N	2078.133	637.179	-2148.978	N.am	16	ARG16	-0.348	
239	  CA	2079.131	638.242	-2148.893	C.3	16	ARG16	-0.264	
240	   C	2080.402	637.848	-2149.606	C.2	16	ARG16	0.734	
241	   O	2080.516	636.771	-2150.187	O.2	16	ARG16	-0.589	
242	  CB	2079.397	638.560	-2147.394	C.3	16	ARG16	-0.001	
243	  CG	2080.223	639.849	-2147.120	C.3	16	ARG16	0.039	
244	  CD	2080.470	640.069	-2145.619	C.3	16	ARG16	0.049	
245	  NE	2081.247	641.327	-2145.417	N.pl3	16	ARG16	-0.530	
246	  CZ	2081.636	641.810	-2144.241	C.cat	16	ARG16	0.808	
247	 NH1	2081.386	641.226	-2143.103	N.pl3	16	ARG16	-0.863	
248	 NH2	2082.301	642.922	-2144.222	N.pl3	16	ARG16	-0.863	
249	   H	2077.737	636.779	-2148.139	 H	16	ARG16	0.275	
250	  HA	2078.723	639.135	-2149.404	 H	16	ARG16	0.156	
251	 2HB	2079.892	637.684	-2146.926	 H	16	ARG16	0.033	
252	 3HB	2078.427	638.642	-2146.862	 H	16	ARG16	0.033	
253	 2HG	2079.694	640.720	-2147.559	 H	16	ARG16	0.029	
254	 3HG	2081.198	639.795	-2147.647	 H	16	ARG16	0.029	
255	 2HD	2081.017	639.194	-2145.204	 H	16	ARG16	0.069	
256	 3HD	2079.496	640.113	-2145.085	 H	16	ARG16	0.069	
257	  HE	2081.527	641.908	-2146.214	 H	16	ARG16	0.346	
258	1HH1	2080.860	640.354	-2143.188	 H	16	ARG16	0.448	
259	2HH1	2081.719	641.662	-2142.241	 H	16	ARG16	0.448	
260	1HH2	2082.489	643.365	-2145.124	 H	16	ARG16	0.448	
261	2HH2	2082.590	643.277	-2143.309	 H	16	ARG16	0.448	
@<TRIPOS>BOND
1 1 2 1
2 1 10 1
3 2 3 1
4 2 5 1
5 2 11 1
6 3 4 2
7 3 16 1
8 5 6 1
9 6 7 1
10 7 8 2
11 7 9 1
12 5 12 1
13 5 13 1
14 6 14 1
15 6 15 1
16 16 17 1
17 16 24 1
18 17 18 1
19 17 20 1
20 17 25 1
21 18 19 2
22 18 30 1
23 20 21 1
24 21 22 1
25 21 23 2
26 20 26 1
27 20 27 1
28 22 28 1
29 22 29 1
30 30 31 1
31 30 36 1
32 31 32 1
33 31 34 1
34 31 37 1
35 32 33 2
36 32 44 1
37 34 35 1
38 35 36 1
39 34 38 1
40 34 39 1
41 35 40 1
42 35 41 1
43 36 42 1
44 36 43 1
45 44 45 1
46 44 53 1
47 45 46 1
48 45 48 1
49 45 54 1
50 46 47 2
51 46 59 1
52 48 49 1
53 49 50 1
54 50 51 2
55 50 52 1
56 48 55 1
57 48 56 1
58 49 57 1
59 49 58 1
60 59 60 1
61 59 65 1
62 60 61 1
63 60 63 1
64 60 66 1
65 61 62 2
66 61 70 1
67 63 64 1
68 63 67 1
69 63 68 1
70 64 69 1
71 70 71 1
72 70 78 1
73 71 72 1
74 71 74 1
75 71 79 1
76 72 73 2
77 72 89 1
78 74 75 1
79 74 76 1
80 75 77 1
81 74 80 1
82 75 81 1
83 75 82 1
84 76 83 1
85 76 84 1
86 76 85 1
87 77 86 1
88 77 87 1
89 77 88 1
90 89 90 1
91 89 97 1
92 90 91 1
93 90 93 1
94 90 98 1
95 91 92 2
96 91 108 1
97 93 94 1
98 94 95 1
99 94 96 1
100 93 99 1
101 93 100 1
102 94 101 1
103 95 102 1
104 95 103 1
105 95 104 1
106 96 105 1
107 96 106 1
108 96 107 1
109 108 109 1
110 108 116 1
111 109 110 1
112 109 112 1
113 109 117 1
114 110 111 2
115 110 120 1
116 112 113 1
117 113 114 2
118 113 115 1
119 112 118 1
120 112 119 1
121 120 121 1
122 120 129 1
123 121 122 1
124 121 124 1
125 121 130 1
126 122 123 2
127 122 135 1
128 124 125 1
129 125 126 1
130 126 127 2
131 126 128 1
132 124 131 1
133 124 132 1
134 125 133 1
135 125 134 1
136 135 136 1
137 135 145 1
138 136 137 1
139 136 139 1
140 136 146 1
141 137 138 2
142 137 152 1
143 139 140 1
144 140 141 2
145 141 144 1
146 140 142 1
147 142 143 2
148 143 144 1
149 139 147 1
150 139 148 1
151 141 149 1
152 143 150 1
153 144 151 1
154 152 153 1
155 152 159 1
156 153 154 1
157 153 156 1
158 153 160 1
159 154 155 2
160 154 168 1
161 156 157 1
162 156 158 1
163 156 161 1
164 157 162 1
165 157 163 1
166 157 164 1
167 158 165 1
168 158 166 1
169 158 167 1
170 168 169 1
171 168 177 1
172 169 170 1
173 169 172 1
174 169 178 1
175 170 171 2
176 170 185 1
177 172 173 1
178 173 174 1
179 174 175 1
180 174 176 2
181 172 179 1
182 172 180 1
183 173 181 1
184 173 182 1
185 175 183 1
186 175 184 1
187 185 186 1
188 185 196 1
189 186 187 1
190 186 189 1
191 186 197 1
192 187 188 2
193 187 205 1
194 189 190 1
195 190 191 2
196 190 192 1
197 192 194 2
198 191 193 1
199 194 195 1
200 193 195 2
201 189 198 1
202 189 199 1
203 191 200 1
204 192 201 1
205 193 202 1
206 194 203 1
207 195 204 1
208 205 206 1
209 205 212 1
210 206 207 1
211 206 209 1
212 206 213 1
213 207 208 2
214 207 221 1
215 209 210 1
216 209 211 1
217 209 214 1
218 210 215 1
219 210 216 1
220 210 217 1
221 211 218 1
222 211 219 1
223 211 220 1
224 221 222 1
225 221 229 1
226 222 223 1
227 222 225 1
228 222 230 1
229 223 224 2
230 223 238 1
231 225 226 1
232 226 227 1
233 227 228 1
234 225 231 1
235 225 232 1
236 226 233 1
237 226 234 1
238 228 235 1
239 228 236 1
240 228 237 1
241 238 239 1
242 238 249 1
243 239 240 1
244 239 242 1
245 239 250 1
246 240 241 2
247 242 243 1
248 243 244 1
249 244 245 1
250 245 246 1
251 246 247 2
252 246 248 1
253 242 251 1
254 242 252 1
255 243 253 1
256 243 254 1
257 244 255 1
258 244 256 1
259 245 257 1
260 247 258 1
261 247 259 1
262 248 260 1
263 248 261 1
@<TRIPOS>SUBSTRUCTURE
1	GLU1	1	RESIDUE	1 ****	GLU
2	ASN2	16	RESIDUE	1 ****	ASN
3	PRO3	30	RESIDUE	1 ****	PRO
4	GLU4	44	RESIDUE	1 ****	GLU
5	SER5	59	RESIDUE	1 ****	SER
6	ILE6	70	RESIDUE	1 ****	ILE
7	LEU7	89	RESIDUE	1 ****	LEU
8	ASP8	108	RESIDUE	1 ****	ASP
9	GLU9	120	RESIDUE	1 ****	GLU
10	HIS10	135	RESIDUE	1 ****	HIS
11	VAL11	152	RESIDUE	1 ****	VAL
12	GLN12	168	RESIDUE	1 ****	GLN
13	PHE13	185	RESIDUE	1 ****	PHE
14	VAL14	205	RESIDUE	1 ****	VAL
15	MET15	221	RESIDUE	1 ****	MET
16	ARG16	238	RESIDUE	1 ****	ARG
