@<TRIPOS>MOLECULE
14-12
260 261 16              
SMALL
USER_CHARGES
@<TRIPOS>ATOM
1	   N	2258.999	689.812	-2346.668	N.3	1	GLU1	-0.516	
2	  CA	2259.558	691.161	-2346.668	C.3	1	GLU1	0.040	
3	   C	2261.067	691.121	-2346.668	C.2	1	GLU1	0.537	
4	   O	2261.743	691.820	-2347.437	O.2	1	GLU1	-0.582	
5	  CB	2259.035	691.946	-2345.432	C.3	1	GLU1	0.056	
6	  CG	2259.510	693.431	-2345.321	C.3	1	GLU1	0.014	
7	  CD	2259.086	694.235	-2344.105	C.2	1	GLU1	0.805	
8	 OE1	2258.358	693.733	-2343.228	O.co2	1	GLU1	-0.819	
9	 OE2	2259.516	695.405	-2344.033	O.co2	1	GLU1	-0.819	
10	   H	2259.626	688.933	-2346.668	 H	1	GLU1	0.294	
11	  HA	2259.232	691.679	-2347.589	 H	1	GLU1	0.111	
12	 2HB	2259.324	691.415	-2344.501	 H	1	GLU1	-0.017	
13	 3HB	2257.928	691.936	-2345.418	 H	1	GLU1	-0.017	
14	 2HG	2259.200	694.016	-2346.201	 H	1	GLU1	-0.043	
15	 3HG	2260.610	693.498	-2345.292	 H	1	GLU1	-0.043	
16	   N	2261.671	690.335	-2345.843	N.am	2	ASN2	-0.416	
17	  CA	2263.131	690.296	-2345.843	C.3	2	ASN2	0.014	
18	   C	2263.662	689.940	-2347.212	C.2	2	ASN2	0.597	
19	   O	2264.577	690.571	-2347.740	O.2	2	ASN2	-0.568	
20	  CB	2263.622	689.273	-2344.779	C.3	2	ASN2	-0.204	
21	  CG	2263.159	689.497	-2343.335	C.2	2	ASN2	0.713	
22	 ND2	2263.753	690.412	-2342.617	N.pl3	2	ASN2	-0.919	
23	 OD1	2262.238	688.864	-2342.841	O.2	2	ASN2	-0.593	
24	   H	2261.143	689.755	-2345.207	 H	2	ASN2	0.272	
25	  HA	2263.508	691.306	-2345.598	 H	2	ASN2	0.105	
26	 2HB	2264.727	689.214	-2344.782	 H	2	ASN2	0.080	
27	 3HB	2263.293	688.255	-2345.064	 H	2	ASN2	0.080	
28	1HD2	2263.272	690.585	-2341.731	 H	2	ASN2	0.420	
29	2HD2	2264.455	690.983	-2343.086	 H	2	ASN2	0.420	
30	   N	2263.141	688.946	-2347.846	N.am	3	PRO3	-0.255	
31	  CA	2263.593	688.536	-2349.167	C.3	3	PRO3	-0.027	
32	   C	2263.195	689.560	-2350.244	C.2	3	PRO3	0.590	
33	   O	2264.019	689.943	-2351.076	O.2	3	PRO3	-0.575	
34	  CB	2262.888	687.182	-2349.337	C.3	3	PRO3	-0.007	
35	  CG	2261.605	687.334	-2348.507	C.3	3	PRO3	0.019	
36	  CD	2262.062	688.153	-2347.297	C.3	3	PRO3	0.019	
37	  HA	2264.679	688.416	-2349.181	 H	3	PRO3	0.064	
38	 2HB	2263.511	686.401	-2348.896	 H	3	PRO3	0.025	
39	 3HB	2262.690	686.933	-2350.382	 H	3	PRO3	0.025	
40	 2HG	2261.177	686.372	-2348.216	 H	3	PRO3	0.021	
41	 3HG	2260.868	687.905	-2349.075	 H	3	PRO3	0.021	
42	 2HD	2262.451	687.503	-2346.510	 H	3	PRO3	0.039	
43	 3HD	2261.266	688.789	-2346.905	 H	3	PRO3	0.039	
44	   N	2261.990	690.020	-2350.277	N.am	4	GLU4	-0.516	
45	  CA	2261.631	690.991	-2351.307	C.3	4	GLU4	0.040	
46	   C	2262.530	692.202	-2351.245	C.2	4	GLU4	0.537	
47	   O	2263.057	692.681	-2352.260	O.2	4	GLU4	-0.582	
48	  CB	2260.143	691.410	-2351.137	C.3	4	GLU4	0.056	
49	  CG	2259.595	692.414	-2352.203	C.3	4	GLU4	0.014	
50	  CD	2258.169	692.911	-2352.060	C.2	4	GLU4	0.805	
51	 OE1	2257.442	692.513	-2351.129	O.co2	4	GLU4	-0.819	
52	 OE2	2257.780	693.740	-2352.908	O.co2	4	GLU4	-0.819	
53	   H	2261.306	689.714	-2349.601	 H	4	GLU4	0.294	
54	  HA	2261.763	690.521	-2352.298	 H	4	GLU4	0.111	
55	 2HB	2259.990	691.850	-2350.131	 H	4	GLU4	-0.017	
56	 3HB	2259.495	690.513	-2351.144	 H	4	GLU4	-0.017	
57	 2HG	2259.677	691.999	-2353.221	 H	4	GLU4	-0.043	
58	 3HG	2260.184	693.346	-2352.214	 H	4	GLU4	-0.043	
59	   N	2262.757	692.755	-2350.102	N.am	5	SER5	-0.416	
60	  CA	2263.627	693.926	-2350.043	C.3	5	SER5	-0.025	
61	   C	2264.986	693.620	-2350.628	C.2	5	SER5	0.597	
62	   O	2265.534	694.373	-2351.433	O.2	5	SER5	-0.568	
63	  CB	2263.739	694.458	-2348.593	C.3	5	SER5	0.212	
64	  OG	2264.469	693.578	-2347.732	O.3	5	SER5	-0.655	
65	   H	2262.340	692.383	-2349.261	 H	5	SER5	0.272	
66	  HA	2263.178	694.716	-2350.672	 H	5	SER5	0.084	
67	 2HB	2262.739	694.652	-2348.160	 H	5	SER5	0.035	
68	 3HB	2264.244	695.443	-2348.595	 H	5	SER5	0.035	
69	  HG	2263.980	692.753	-2347.681	 H	5	SER5	0.428	
70	   N	2265.590	692.536	-2350.274	N.am	6	ILE6	-0.416	
71	  CA	2266.904	692.241	-2350.840	C.3	6	ILE6	-0.060	
72	   C	2266.846	692.203	-2352.348	C.2	6	ILE6	0.597	
73	   O	2267.681	692.790	-2353.052	O.2	6	ILE6	-0.568	
74	  CB	2267.503	690.904	-2350.240	C.3	6	ILE6	0.130	
75	 CG1	2267.521	690.842	-2348.679	C.3	6	ILE6	-0.043	
76	 CG2	2268.944	690.602	-2350.755	C.3	6	ILE6	-0.320	
77	 CD1	2267.791	689.453	-2348.064	C.3	6	ILE6	-0.066	
78	   H	2265.161	691.902	-2349.615	 H	6	ILE6	0.272	
79	  HA	2267.578	693.075	-2350.572	 H	6	ILE6	0.087	
80	  HB	2266.844	690.079	-2350.584	 H	6	ILE6	0.019	
81	2HG1	2266.540	691.162	-2348.283	 H	6	ILE6	0.024	
82	3HG1	2268.238	691.584	-2348.274	 H	6	ILE6	0.024	
83	1HG2	2269.003	690.509	-2351.853	 H	6	ILE6	0.088	
84	2HG2	2269.666	691.384	-2350.452	 H	6	ILE6	0.088	
85	3HG2	2269.333	689.640	-2350.376	 H	6	ILE6	0.088	
86	1HD1	2267.062	688.699	-2348.419	 H	6	ILE6	0.019	
87	2HD1	2268.801	689.074	-2348.299	 H	6	ILE6	0.019	
88	3HD1	2267.714	689.483	-2346.961	 H	6	ILE6	0.019	
89	   N	2265.900	691.540	-2352.921	N.am	7	LEU7	-0.416	
90	  CA	2265.845	691.504	-2354.380	C.3	7	LEU7	-0.052	
91	   C	2265.773	692.899	-2354.953	C.2	7	LEU7	0.597	
92	   O	2266.494	693.261	-2355.895	O.2	7	LEU7	-0.568	
93	  CB	2264.642	690.644	-2354.860	C.3	7	LEU7	-0.110	
94	  CG	2264.569	689.165	-2354.394	C.3	7	LEU7	0.353	
95	 CD1	2263.379	688.459	-2355.059	C.3	7	LEU7	-0.412	
96	 CD2	2265.862	688.385	-2354.685	C.3	7	LEU7	-0.412	
97	   H	2265.208	691.053	-2352.370	 H	7	LEU7	0.272	
98	  HA	2266.787	691.064	-2354.754	 H	7	LEU7	0.092	
99	 2HB	2264.619	690.660	-2355.968	 H	7	LEU7	0.046	
100	 3HB	2263.702	691.147	-2354.556	 H	7	LEU7	0.046	
101	  HG	2264.399	689.157	-2353.297	 H	7	LEU7	-0.036	
102	1HD1	2262.422	688.968	-2354.837	 H	7	LEU7	0.100	
103	2HD1	2263.478	688.419	-2356.161	 H	7	LEU7	0.100	
104	3HD1	2263.271	687.418	-2354.703	 H	7	LEU7	0.100	
105	1HD2	2266.137	688.415	-2355.755	 H	7	LEU7	0.100	
106	2HD2	2266.716	688.796	-2354.114	 H	7	LEU7	0.100	
107	3HD2	2265.781	687.323	-2354.389	 H	7	LEU7	0.100	
108	   N	2264.937	693.740	-2354.447	N.am	8	ASP8	-0.516	
109	  CA	2264.867	695.090	-2355.001	C.3	8	ASP8	0.038	
110	   C	2266.214	695.769	-2354.944	C.2	8	ASP8	0.537	
111	   O	2266.687	696.373	-2355.919	O.2	8	ASP8	-0.582	
112	  CB	2263.789	695.930	-2354.260	C.3	8	ASP8	-0.030	
113	  CG	2263.571	697.350	-2354.801	C.2	8	ASP8	0.799	
114	 OD1	2263.635	697.548	-2356.032	O.co2	8	ASP8	-0.801	
115	 OD2	2263.380	698.277	-2353.987	O.co2	8	ASP8	-0.801	
116	   H	2264.339	693.470	-2353.679	 H	8	ASP8	0.294	
117	  HA	2264.584	695.011	-2356.068	 H	8	ASP8	0.088	
118	 2HB	2264.046	696.013	-2353.188	 H	8	ASP8	-0.012	
119	 3HB	2262.810	695.425	-2354.293	 H	8	ASP8	-0.012	
120	   N	2266.894	695.719	-2353.849	N.am	9	GLU9	-0.516	
121	  CA	2268.197	696.376	-2353.794	C.3	9	GLU9	0.040	
122	   C	2269.115	695.848	-2354.870	C.2	9	GLU9	0.537	
123	   O	2269.778	696.601	-2355.596	O.2	9	GLU9	-0.582	
124	  CB	2268.831	696.169	-2352.389	C.3	9	GLU9	0.056	
125	  CG	2270.214	696.861	-2352.160	C.3	9	GLU9	0.014	
126	  CD	2270.916	696.648	-2350.832	C.2	9	GLU9	0.805	
127	 OE1	2270.394	695.957	-2349.935	O.co2	9	GLU9	-0.819	
128	 OE2	2272.035	697.185	-2350.701	O.co2	9	GLU9	-0.819	
129	   H	2266.530	695.233	-2353.042	 H	9	GLU9	0.294	
130	  HA	2268.055	697.458	-2353.970	 H	9	GLU9	0.111	
131	 2HB	2268.943	695.084	-2352.185	 H	9	GLU9	-0.017	
132	 3HB	2268.134	696.523	-2351.605	 H	9	GLU9	-0.017	
133	 2HG	2270.142	697.951	-2352.301	 H	9	GLU9	-0.043	
134	 3HG	2270.960	696.515	-2352.894	 H	9	GLU9	-0.043	
135	   N	2269.210	694.572	-2355.039	N.am	10	HIS10	-0.416	
136	  CA	2270.098	694.060	-2356.080	C.3	10	HIS10	-0.058	
137	   C	2269.731	694.624	-2357.431	C.2	10	HIS10	0.597	
138	   O	2270.583	695.088	-2358.203	O.2	10	HIS10	-0.568	
139	  CB	2269.933	692.531	-2356.074	C.3	10	HIS10	-0.007	
140	  CG	2271.219	691.820	-2355.766	C.2	10	HIS10	0.187	
141	 CD2	2271.600	691.486	-2354.473	C.2	10	HIS10	-0.221	
142	 ND1	2272.170	691.414	-2356.698	N.2	10	HIS10	-0.543	
143	 CE1	2273.076	690.856	-2355.875	C.2	10	HIS10	0.163	
144	 NE2	2272.814	690.853	-2354.540	N.pl3	10	HIS10	-0.280	
145	   H	2268.680	693.937	-2354.460	 H	10	HIS10	0.272	
146	  HA	2271.117	694.417	-2355.855	 H	10	HIS10	0.136	
147	 2HB	2269.567	692.164	-2357.053	 H	10	HIS10	0.037	
148	 3HB	2269.177	692.195	-2355.333	 H	10	HIS10	0.037	
149	 2HD	2271.015	691.701	-2353.584	 H	10	HIS10	0.186	
150	 1HE	2273.967	690.434	-2356.323	 H	10	HIS10	0.144	
151	 2HE	2273.381	690.476	-2353.767	 H	10	HIS10	0.334	
152	   N	2268.493	694.624	-2357.794	N.am	11	VAL11	-0.416	
153	  CA	2268.138	695.169	-2359.101	C.3	11	VAL11	-0.087	
154	   C	2268.603	696.599	-2359.234	C.2	11	VAL11	0.597	
155	   O	2269.204	697.004	-2360.237	O.2	11	VAL11	-0.568	
156	  CB	2266.576	695.063	-2359.320	C.3	11	VAL11	0.299	
157	 CG1	2266.008	695.767	-2360.583	C.3	11	VAL11	-0.319	
158	 CG2	2266.051	693.609	-2359.392	C.3	11	VAL11	-0.319	
159	   H	2267.780	694.251	-2357.183	 H	11	VAL11	0.272	
160	  HA	2268.657	694.586	-2359.883	 H	11	VAL11	0.097	
161	  HB	2266.089	695.544	-2358.445	 H	11	VAL11	-0.030	
162	1HG1	2266.446	695.374	-2361.520	 H	11	VAL11	0.079	
163	2HG1	2264.909	695.660	-2360.665	 H	11	VAL11	0.079	
164	3HG1	2266.187	696.859	-2360.574	 H	11	VAL11	0.079	
165	1HG2	2266.341	693.022	-2358.501	 H	11	VAL11	0.079	
166	2HG2	2264.945	693.573	-2359.435	 H	11	VAL11	0.079	
167	3HG2	2266.433	693.068	-2360.278	 H	11	VAL11	0.079	
168	   N	2268.367	697.426	-2358.272	N.am	12	GLN12	-0.416	
169	  CA	2268.816	698.808	-2358.400	C.3	12	GLN12	-0.003	
170	   C	2270.306	698.875	-2358.638	C.2	12	GLN12	0.597	
171	   O	2270.793	699.582	-2359.517	O.2	12	GLN12	-0.568	
172	  CB	2268.426	699.577	-2357.118	C.3	12	GLN12	-0.004	
173	  CG	2268.787	701.098	-2357.087	C.3	12	GLN12	-0.064	
174	  CD	2268.485	701.913	-2355.823	C.2	12	GLN12	0.695	
175	 NE2	2267.918	701.337	-2354.794	N.pl3	12	GLN12	-0.941	
176	 OE1	2268.788	703.093	-2355.746	O.2	12	GLN12	-0.609	
177	   H	2267.878	697.120	-2357.443	 H	12	GLN12	0.272	
178	  HA	2268.316	699.264	-2359.275	 H	12	GLN12	0.085	
179	 2HB	2268.902	699.077	-2356.248	 H	12	GLN12	0.017	
180	 3HB	2267.335	699.470	-2356.954	 H	12	GLN12	0.017	
181	 2HG	2268.310	701.619	-2357.938	 H	12	GLN12	0.035	
182	 3HG	2269.870	701.240	-2357.253	 H	12	GLN12	0.035	
183	1HE2	2267.812	701.932	-2353.970	 H	12	GLN12	0.425	
184	2HE2	2267.754	700.334	-2354.896	 H	12	GLN12	0.425	
185	   N	2271.090	698.168	-2357.897	N.am	13	ARG13	-0.348	
186	  CA	2272.531	698.233	-2358.128	C.3	13	ARG13	-0.264	
187	   C	2272.866	697.861	-2359.553	C.2	13	ARG13	0.734	
188	   O	2273.635	698.532	-2360.238	O.2	13	ARG13	-0.589	
189	  CB	2273.244	697.295	-2357.114	C.3	13	ARG13	-0.001	
190	  CG	2274.789	697.448	-2357.033	C.3	13	ARG13	0.039	
191	  CD	2275.416	696.460	-2356.035	C.3	13	ARG13	0.049	
192	  NE	2276.893	696.667	-2355.985	N.pl3	13	ARG13	-0.530	
193	  CZ	2277.741	695.976	-2355.230	C.cat	13	ARG13	0.808	
194	 NH1	2277.376	695.012	-2354.431	N.pl3	13	ARG13	-0.863	
195	 NH2	2279.001	696.274	-2355.287	N.pl3	13	ARG13	-0.863	
196	   H	2270.714	697.579	-2357.168	 H	13	ARG13	0.275	
197	  HA	2272.855	699.279	-2357.971	 H	13	ARG13	0.156	
198	 2HB	2272.977	696.244	-2357.352	 H	13	ARG13	0.033	
199	 3HB	2272.819	697.462	-2356.103	 H	13	ARG13	0.033	
200	 2HG	2275.037	698.492	-2356.755	 H	13	ARG13	0.029	
201	 3HG	2275.239	697.290	-2358.035	 H	13	ARG13	0.029	
202	 2HD	2275.171	695.420	-2356.343	 H	13	ARG13	0.069	
203	 3HD	2274.960	696.607	-2355.032	 H	13	ARG13	0.069	
204	  HE	2277.344	697.389	-2356.557	 H	13	ARG13	0.346	
205	1HH1	2276.371	694.826	-2354.434	 H	13	ARG13	0.448	
206	2HH1	2278.089	694.529	-2353.883	 H	13	ARG13	0.448	
207	1HH2	2279.269	697.032	-2355.919	 H	13	ARG13	0.448	
208	2HH2	2279.636	695.733	-2354.698	 H	13	ARG13	0.448	
209	   N	2272.330	696.806	-2360.067	N.am	14	CYS14	-0.416	
210	  CA	2272.654	696.445	-2361.444	C.3	14	CYS14	0.021	
211	   C	2272.324	697.575	-2362.391	C.2	14	CYS14	0.597	
212	   O	2273.119	697.956	-2363.262	O.2	14	CYS14	-0.568	
213	  CB	2271.909	695.144	-2361.798	C.3	14	CYS14	-0.123	
214	  SG	2272.407	694.544	-2363.428	S.3	14	CYS14	-0.312	
215	   H	2271.695	696.238	-2359.524	 H	14	CYS14	0.272	
216	  HA	2273.743	696.270	-2361.510	 H	14	CYS14	0.112	
217	 2HB	2270.809	695.287	-2361.781	 H	14	CYS14	0.111	
218	 3HB	2272.124	694.347	-2361.063	 H	14	CYS14	0.111	
219	  HG	2271.300	694.900	-2364.075	 H	14	CYS14	0.193	
220	   N	2271.180	698.162	-2362.290	N.am	15	MET15	-0.416	
221	  CA	2270.860	699.254	-2363.204	C.3	15	MET15	-0.024	
222	   C	2271.891	700.353	-2363.118	C.2	15	MET15	0.597	
223	   O	2272.394	700.862	-2364.132	O.2	15	MET15	-0.568	
224	  CB	2269.439	699.801	-2362.896	C.3	15	MET15	0.034	
225	  CG	2268.276	698.804	-2363.086	C.3	15	MET15	0.002	
226	  SD	2266.703	699.671	-2362.973	S.3	15	MET15	-0.274	
227	  CE	2265.621	698.242	-2362.834	C.3	15	MET15	-0.054	
228	   H	2270.515	697.871	-2361.588	 H	15	MET15	0.272	
229	  HA	2270.885	698.866	-2364.240	 H	15	MET15	0.088	
230	 2HB	2269.237	700.679	-2363.539	 H	15	MET15	0.024	
231	 3HB	2269.404	700.195	-2361.860	 H	15	MET15	0.024	
232	 2HG	2268.319	698.019	-2362.308	 H	15	MET15	0.044	
233	 3HG	2268.339	698.287	-2364.062	 H	15	MET15	0.044	
234	 1HE	2265.764	697.553	-2363.686	 H	15	MET15	0.068	
235	 2HE	2265.830	697.691	-2361.901	 H	15	MET15	0.068	
236	 3HE	2264.563	698.558	-2362.818	 H	15	MET15	0.068	
237	   N	2272.260	700.776	-2361.956	N.am	16	ARG16	-0.348	
238	  CA	2273.258	701.839	-2361.874	C.3	16	ARG16	-0.264	
239	   C	2274.528	701.444	-2362.590	C.2	16	ARG16	0.734	
240	   O	2274.640	700.367	-2363.170	O.2	16	ARG16	-0.589	
241	  CB	2273.528	702.158	-2360.376	C.3	16	ARG16	-0.001	
242	  CG	2274.354	703.447	-2360.105	C.3	16	ARG16	0.039	
243	  CD	2274.604	703.668	-2358.604	C.3	16	ARG16	0.049	
244	  NE	2275.381	704.926	-2358.405	N.pl3	16	ARG16	-0.530	
245	  CZ	2275.774	705.410	-2357.230	C.cat	16	ARG16	0.808	
246	 NH1	2275.526	704.827	-2356.091	N.pl3	16	ARG16	-0.863	
247	 NH2	2276.438	706.522	-2357.213	N.pl3	16	ARG16	-0.863	
248	   H	2271.865	700.377	-2361.116	 H	16	ARG16	0.275	
249	  HA	2272.849	702.731	-2362.385	 H	16	ARG16	0.156	
250	 2HB	2274.024	701.282	-2359.909	 H	16	ARG16	0.033	
251	 3HB	2272.559	702.241	-2359.842	 H	16	ARG16	0.033	
252	 2HG	2273.824	704.318	-2360.543	 H	16	ARG16	0.029	
253	 3HG	2275.327	703.392	-2360.635	 H	16	ARG16	0.029	
254	 2HD	2275.153	702.793	-2358.190	 H	16	ARG16	0.069	
255	 3HD	2273.632	703.712	-2358.069	 H	16	ARG16	0.069	
256	  HE	2275.660	705.506	-2359.203	 H	16	ARG16	0.346	
257	1HH1	2275.000	703.954	-2356.174	 H	16	ARG16	0.448	
258	2HH1	2275.861	705.263	-2355.231	 H	16	ARG16	0.448	
259	1HH2	2276.624	706.964	-2358.116	 H	16	ARG16	0.448	
260	2HH2	2276.729	706.878	-2356.301	 H	16	ARG16	0.448	
@<TRIPOS>BOND
1 1 2 1
2 1 10 1
3 2 3 1
4 2 5 1
5 2 11 1
6 3 4 2
7 3 16 1
8 5 6 1
9 6 7 1
10 7 8 2
11 7 9 1
12 5 12 1
13 5 13 1
14 6 14 1
15 6 15 1
16 16 17 1
17 16 24 1
18 17 18 1
19 17 20 1
20 17 25 1
21 18 19 2
22 18 30 1
23 20 21 1
24 21 22 1
25 21 23 2
26 20 26 1
27 20 27 1
28 22 28 1
29 22 29 1
30 30 31 1
31 30 36 1
32 31 32 1
33 31 34 1
34 31 37 1
35 32 33 2
36 32 44 1
37 34 35 1
38 35 36 1
39 34 38 1
40 34 39 1
41 35 40 1
42 35 41 1
43 36 42 1
44 36 43 1
45 44 45 1
46 44 53 1
47 45 46 1
48 45 48 1
49 45 54 1
50 46 47 2
51 46 59 1
52 48 49 1
53 49 50 1
54 50 51 2
55 50 52 1
56 48 55 1
57 48 56 1
58 49 57 1
59 49 58 1
60 59 60 1
61 59 65 1
62 60 61 1
63 60 63 1
64 60 66 1
65 61 62 2
66 61 70 1
67 63 64 1
68 63 67 1
69 63 68 1
70 64 69 1
71 70 71 1
72 70 78 1
73 71 72 1
74 71 74 1
75 71 79 1
76 72 73 2
77 72 89 1
78 74 75 1
79 74 76 1
80 75 77 1
81 74 80 1
82 75 81 1
83 75 82 1
84 76 83 1
85 76 84 1
86 76 85 1
87 77 86 1
88 77 87 1
89 77 88 1
90 89 90 1
91 89 97 1
92 90 91 1
93 90 93 1
94 90 98 1
95 91 92 2
96 91 108 1
97 93 94 1
98 94 95 1
99 94 96 1
100 93 99 1
101 93 100 1
102 94 101 1
103 95 102 1
104 95 103 1
105 95 104 1
106 96 105 1
107 96 106 1
108 96 107 1
109 108 109 1
110 108 116 1
111 109 110 1
112 109 112 1
113 109 117 1
114 110 111 2
115 110 120 1
116 112 113 1
117 113 114 2
118 113 115 1
119 112 118 1
120 112 119 1
121 120 121 1
122 120 129 1
123 121 122 1
124 121 124 1
125 121 130 1
126 122 123 2
127 122 135 1
128 124 125 1
129 125 126 1
130 126 127 2
131 126 128 1
132 124 131 1
133 124 132 1
134 125 133 1
135 125 134 1
136 135 136 1
137 135 145 1
138 136 137 1
139 136 139 1
140 136 146 1
141 137 138 2
142 137 152 1
143 139 140 1
144 140 141 2
145 141 144 1
146 140 142 1
147 142 143 2
148 143 144 1
149 139 147 1
150 139 148 1
151 141 149 1
152 143 150 1
153 144 151 1
154 152 153 1
155 152 159 1
156 153 154 1
157 153 156 1
158 153 160 1
159 154 155 2
160 154 168 1
161 156 157 1
162 156 158 1
163 156 161 1
164 157 162 1
165 157 163 1
166 157 164 1
167 158 165 1
168 158 166 1
169 158 167 1
170 168 169 1
171 168 177 1
172 169 170 1
173 169 172 1
174 169 178 1
175 170 171 2
176 170 185 1
177 172 173 1
178 173 174 1
179 174 175 1
180 174 176 2
181 172 179 1
182 172 180 1
183 173 181 1
184 173 182 1
185 175 183 1
186 175 184 1
187 185 186 1
188 185 196 1
189 186 187 1
190 186 189 1
191 186 197 1
192 187 188 2
193 187 209 1
194 189 190 1
195 190 191 1
196 191 192 1
197 192 193 1
198 193 194 2
199 193 195 1
200 189 198 1
201 189 199 1
202 190 200 1
203 190 201 1
204 191 202 1
205 191 203 1
206 192 204 1
207 194 205 1
208 194 206 1
209 195 207 1
210 195 208 1
211 209 210 1
212 209 215 1
213 210 211 1
214 210 213 1
215 210 216 1
216 211 212 2
217 211 220 1
218 213 214 1
219 213 217 1
220 213 218 1
221 214 219 1
222 220 221 1
223 220 228 1
224 221 222 1
225 221 224 1
226 221 229 1
227 222 223 2
228 222 237 1
229 224 225 1
230 225 226 1
231 226 227 1
232 224 230 1
233 224 231 1
234 225 232 1
235 225 233 1
236 227 234 1
237 227 235 1
238 227 236 1
239 237 238 1
240 237 248 1
241 238 239 1
242 238 241 1
243 238 249 1
244 239 240 2
245 241 242 1
246 242 243 1
247 243 244 1
248 244 245 1
249 245 246 2
250 245 247 1
251 241 250 1
252 241 251 1
253 242 252 1
254 242 253 1
255 243 254 1
256 243 255 1
257 244 256 1
258 246 257 1
259 246 258 1
260 247 259 1
261 247 260 1
@<TRIPOS>SUBSTRUCTURE
1	GLU1	1	RESIDUE	1 ****	GLU
2	ASN2	16	RESIDUE	1 ****	ASN
3	PRO3	30	RESIDUE	1 ****	PRO
4	GLU4	44	RESIDUE	1 ****	GLU
5	SER5	59	RESIDUE	1 ****	SER
6	ILE6	70	RESIDUE	1 ****	ILE
7	LEU7	89	RESIDUE	1 ****	LEU
8	ASP8	108	RESIDUE	1 ****	ASP
9	GLU9	120	RESIDUE	1 ****	GLU
10	HIS10	135	RESIDUE	1 ****	HIS
11	VAL11	152	RESIDUE	1 ****	VAL
12	GLN12	168	RESIDUE	1 ****	GLN
13	ARG13	185	RESIDUE	1 ****	ARG
14	CYS14	209	RESIDUE	1 ****	CYS
15	MET15	220	RESIDUE	1 ****	MET
16	ARG16	237	RESIDUE	1 ****	ARG
