REMARK WARNING: 32 MAX_TORS EXCEEDED!!!
REMARK  66 active torsions:
REMARK  status: ('A' for Active; 'I' for Inactive)
REMARK    1  A    between atoms: N_1  and  CA_2 
REMARK    2  A    between atoms: CA_2  and  C_3 
REMARK    3  A    between atoms: CA_2  and  CB_5 
REMARK       I    between atoms: C_3  and  N_11 
REMARK    4  A    between atoms: CB_5  and  CG_6 
REMARK    5  A    between atoms: CG_6  and  CD_7 
REMARK    6  A    between atoms: N_11  and  CA_12 
REMARK    7  A    between atoms: CA_12  and  C_13 
REMARK    8  A    between atoms: CA_12  and  CB_15 
REMARK       I    between atoms: C_13  and  N_22 
REMARK    9  A    between atoms: CB_15  and  CG_16 
REMARK       I    between atoms: CG_16  and  ND2_17 
REMARK   10  A    between atoms: CA_23  and  C_24 
REMARK       I    between atoms: C_24  and  N_29 
REMARK   11  A    between atoms: N_29  and  CA_30 
REMARK   12  A    between atoms: CA_30  and  C_31 
REMARK   13  A    between atoms: CA_30  and  CB_33 
REMARK       I    between atoms: C_31  and  N_39 
REMARK   14  A    between atoms: CB_33  and  CG_34 
REMARK   15  A    between atoms: CG_34  and  CD_35 
REMARK   16  A    between atoms: N_39  and  CA_40 
REMARK   17  A    between atoms: CA_40  and  C_41 
REMARK   18  A    between atoms: CA_40  and  CB_43 
REMARK       I    between atoms: C_41  and  N_47 
REMARK   19  A    between atoms: CB_43  and  OG_44 
REMARK   20  A    between atoms: N_47  and  CA_48 
REMARK   21  A    between atoms: CA_48  and  C_49 
REMARK   22  A    between atoms: CA_48  and  CB_51 
REMARK       I    between atoms: C_49  and  N_56 
REMARK   23  A    between atoms: CB_51  and  CG1_52 
REMARK   24  A    between atoms: N_56  and  CA_57 
REMARK   25  A    between atoms: CA_57  and  C_58 
REMARK   26  A    between atoms: CA_57  and  CB_60 
REMARK       I    between atoms: C_58  and  N_65 
REMARK   27  A    between atoms: CB_60  and  CG_61 
REMARK   28  A    between atoms: N_65  and  CA_66 
REMARK   29  A    between atoms: CA_66  and  C_67 
REMARK   30  A    between atoms: CA_66  and  CB_69 
REMARK       I    between atoms: C_67  and  N_74 
REMARK   31  A    between atoms: CB_69  and  CG_70 
REMARK   32  A    between atoms: N_74  and  CA_75 
REMARK   33  A    between atoms: CA_75  and  C_76 
REMARK   34  A    between atoms: CA_75  and  CB_78 
REMARK       I    between atoms: C_76  and  N_84 
REMARK   35  A    between atoms: CB_78  and  CG_79 
REMARK   36  A    between atoms: CG_79  and  CD_80 
REMARK   37  A    between atoms: N_84  and  CA_85 
REMARK   38  A    between atoms: CA_85  and  C_86 
REMARK   39  A    between atoms: CA_85  and  CB_88 
REMARK       I    between atoms: C_86  and  N_96 
REMARK   40  A    between atoms: CB_88  and  CG_89 
REMARK   41  A    between atoms: N_96  and  CA_97 
REMARK   42  A    between atoms: CA_97  and  C_98 
REMARK   43  A    between atoms: CA_97  and  CB_100 
REMARK       I    between atoms: C_98  and  N_104 
REMARK   44  A    between atoms: N_104  and  CA_105 
REMARK   45  A    between atoms: CA_105  and  C_106 
REMARK   46  A    between atoms: CA_105  and  CB_108 
REMARK       I    between atoms: C_106  and  N_116 
REMARK   47  A    between atoms: CB_108  and  CG_109 
REMARK   48  A    between atoms: CG_109  and  CD_110 
REMARK       I    between atoms: CD_110  and  NE2_111 
REMARK   49  A    between atoms: N_116  and  CA_117 
REMARK   50  A    between atoms: CA_117  and  C_118 
REMARK   51  A    between atoms: CA_117  and  CB_120 
REMARK       I    between atoms: C_118  and  N_133 
REMARK   52  A    between atoms: CB_120  and  CG_121 
REMARK   53  A    between atoms: CG_121  and  CD_122 
REMARK   54  A    between atoms: CD_122  and  NE_123 
REMARK       I    between atoms: NE_123  and  CZ_124 
REMARK       I    between atoms: CZ_124  and  NH1_125 
REMARK   55  A    between atoms: N_133  and  CA_134 
REMARK   56  A    between atoms: CA_134  and  C_135 
REMARK   57  A    between atoms: CA_134  and  CB_137 
REMARK       I    between atoms: C_135  and  N_141 
REMARK   58  A    between atoms: N_141  and  CA_142 
REMARK   59  A    between atoms: CA_142  and  C_143 
REMARK   60  A    between atoms: CA_142  and  CB_145 
REMARK       I    between atoms: C_143  and  N_150 
REMARK   61  A    between atoms: CB_145  and  CG_146 
REMARK   62  A    between atoms: CG_146  and  SD_147 
REMARK   63  A    between atoms: N_150  and  CA_151 
REMARK   64  A    between atoms: CA_151  and  C_152 
REMARK   65  A    between atoms: CA_151  and  CB_154 
REMARK   66  A    between atoms: CB_154  and  CG_155 
ROOT
ATOM      1  CA  GLU d   9    2563.136 789.981-2673.362  0.00  0.00     0.177 C 
ENDROOT
BRANCH   1   2
ATOM      2  N   GLU d   9    2561.833 789.324-2673.417  0.00  0.00    -0.346 N 
ATOM      3  C   ASP d   8    2561.153 789.373-2674.512  0.00  0.00     0.241 C 
ATOM      4  O   ASP d   8    2561.626 789.977-2675.487  0.00  0.00    -0.271 OA
ATOM      5  H   GLU d   9    2561.469 788.838-2672.610  0.00  0.00     0.163 HD
BRANCH   3   6
ATOM      6  CA  ASP d   8    2559.806 788.694-2674.569  0.00  0.00     0.186 C 
BRANCH   6   7
ATOM      7  N   ASP d   8    2559.875 787.345-2674.015  0.00  0.00    -0.346 N 
ATOM      8  C   LEU d   7    2560.712 786.504-2674.521  0.00  0.00     0.241 C 
ATOM      9  O   LEU d   7    2561.433 786.865-2675.463  0.00  0.00    -0.271 OA
ATOM     10  H   ASP d   8    2559.278 787.074-2673.247  0.00  0.00     0.163 HD
BRANCH   8  11
ATOM     11  CA  LEU d   7    2560.784 785.108-2673.948  0.00  0.00     0.177 C 
BRANCH  11  12
ATOM     12  N   LEU d   7    2560.839 785.144-2672.489  0.00  0.00    -0.346 N 
ATOM     13  C   ILE d   6    2561.785 785.808-2671.916  0.00  0.00     0.241 C 
ATOM     14  O   ILE d   6    2562.620 786.395-2672.620  0.00  0.00    -0.271 OA
ATOM     15  H   LEU d   7    2560.147 784.658-2671.938  0.00  0.00     0.163 HD
BRANCH  13  16
ATOM     16  CA  ILE d   6    2561.843 785.845-2670.408  0.00  0.00     0.180 C 
BRANCH  16  17
ATOM     17  N   ILE d   6    2560.529 786.141-2669.842  0.00  0.00    -0.346 N 
ATOM     18  C   SER d   5    2559.925 787.224-2670.196  0.00  0.00     0.243 C 
ATOM     19  O   SER d   5    2560.473 787.977-2671.001  0.00  0.00    -0.271 OA
ATOM     20  H   ILE d   6    2560.100 785.506-2669.183  0.00  0.00     0.163 HD
BRANCH  18  21
ATOM     21  CA  SER d   5    2558.566 787.530-2669.611  0.00  0.00     0.200 C 
BRANCH  21  22
ATOM     22  N   SER d   5    2557.696 786.359-2669.670  0.00  0.00    -0.344 N 
ATOM     23  C   GLU d   4    2557.469 785.806-2670.813  0.00  0.00     0.241 C 
ATOM     24  O   GLU d   4    2557.996 786.286-2671.827  0.00  0.00    -0.271 OA
ATOM     25  H   SER d   5    2557.279 785.987-2668.829  0.00  0.00     0.163 HD
BRANCH  23  26
ATOM     26  CA  GLU d   4    2556.570 784.596-2670.875  0.00  0.00     0.177 C 
BRANCH  26  27
ATOM     27  N   GLU d   4    2556.929 783.625-2669.845  0.00  0.00    -0.346 N 
ATOM     28  C   PRO d   3    2558.134 783.164-2669.812  0.00  0.00     0.241 C 
ATOM     29  O   PRO d   3    2558.958 783.547-2670.644  0.00  0.00    -0.271 OA
ATOM     30  H   GLU d   4    2556.245 783.318-2669.168  0.00  0.00     0.163 HD
BRANCH  28  31
ATOM     31  CA  PRO d   3    2558.532 782.141-2668.735  0.00  0.00     0.179 C 
ATOM     32  N   PRO d   3    2558.080 782.550-2667.414  0.00  0.00    -0.337 N 
ATOM     33  C   ASN d   2    2558.601 783.545-2666.780  0.00  0.00     0.243 C 
ATOM     34  CD  PRO d   3    2557.001 781.757-2666.865  0.00  0.00     0.127 C 
ATOM     35  O   ASN d   2    2559.516 784.175-2667.308  0.00  0.00    -0.271 OA
ATOM     36  CG  PRO d   3    2556.544 780.939-2668.075  0.00  0.00     0.022 C 
ATOM     37  CB  PRO d   3    2557.827 780.786-2668.905  0.00  0.00     0.037 C 
BRANCH  33  38
ATOM     38  CA  ASN d   2    2558.070 783.901-2665.411  0.00  0.00     0.185 C 
BRANCH  38  39
ATOM     39  N   ASN d   2    2556.610 783.940-2665.411  0.00  0.00    -0.346 N 
ATOM     40  C   GLU d   1    2556.006 784.725-2666.236  0.00  0.00     0.242 C 
ATOM     41  O   GLU d   1    2556.682 785.424-2667.005  0.00  0.00    -0.271 OA
ATOM     42  H   ASN d   2    2556.082 783.360-2664.775  0.00  0.00     0.163 HD
BRANCH  40  43
ATOM     43  CA  GLU d   1    2554.497 784.765-2666.236  0.00  0.00     0.191 C 
BRANCH  43  44
ATOM     44  N   GLU d   1    2553.938 783.416-2666.236  0.00  0.00    -0.326 NA
ATOM     45  H   GLU d   1    2554.565 782.537-2666.236  0.00  0.00     0.180 HD
ENDBRANCH  43  44
BRANCH  43  46
ATOM     46  CB  GLU d   1    2553.974 785.550-2665.000  0.00  0.00     0.047 C 
BRANCH  46  47
ATOM     47  CG  GLU d   1    2554.449 787.035-2664.888  0.00  0.00     0.116 C 
BRANCH  47  48
ATOM     48  CD  GLU d   1    2554.025 787.839-2663.673  0.00  0.00     0.172 C 
ATOM     49  OE1 GLU d   1    2553.297 787.337-2662.795  0.00  0.00    -0.648 OA
ATOM     50  OE2 GLU d   1    2554.455 789.009-2663.601  0.00  0.00    -0.648 OA
ENDBRANCH  47  48
ENDBRANCH  46  47
ENDBRANCH  43  46
ENDBRANCH  40  43
ENDBRANCH  38  39
BRANCH  38  51
ATOM     51  CB  ASN d   2    2558.561 782.878-2664.346  0.00  0.00     0.137 C 
BRANCH  51  52
ATOM     52  CG  ASN d   2    2558.098 783.101-2662.903  0.00  0.00     0.217 C 
ATOM     53  ND2 ASN d   2    2558.692 784.016-2662.185  0.00  0.00    -0.370 N 
ATOM     54 21HD ASN d   2    2558.211 784.190-2661.299  0.00  0.00     0.159 HD
ATOM     55 22HD ASN d   2    2559.394 784.588-2662.654  0.00  0.00     0.159 HD
ATOM     56  OD1 ASN d   2    2557.177 782.468-2662.409  0.00  0.00    -0.274 OA
ENDBRANCH  51  52
ENDBRANCH  38  51
ENDBRANCH  33  38
ENDBRANCH  28  31
ENDBRANCH  26  27
BRANCH  26  57
ATOM     57  CB  GLU d   4    2555.082 785.015-2670.705  0.00  0.00     0.045 C 
BRANCH  57  58
ATOM     58  CG  GLU d   4    2554.534 786.018-2671.771  0.00  0.00     0.116 C 
BRANCH  58  59
ATOM     59  CD  GLU d   4    2553.108 786.516-2671.628  0.00  0.00     0.172 C 
ATOM     60  OE1 GLU d   4    2552.381 786.117-2670.697  0.00  0.00    -0.648 OA
ATOM     61  OE2 GLU d   4    2552.719 787.345-2672.476  0.00  0.00    -0.648 OA
ENDBRANCH  58  59
ENDBRANCH  57  58
ENDBRANCH  26  57
ENDBRANCH  23  26
ENDBRANCH  21  22
BRANCH  21  62
ATOM     62  CB  SER d   5    2558.677 788.062-2668.161  0.00  0.00     0.199 C 
BRANCH  62  63
ATOM     63  OG  SER d   5    2559.408 787.183-2667.300  0.00  0.00    -0.398 OA
ATOM     64  HG  SER d   5    2558.919 786.358-2667.249  0.00  0.00     0.209 HD
ENDBRANCH  62  63
ENDBRANCH  21  62
ENDBRANCH  18  21
ENDBRANCH  16  17
BRANCH  16  65
ATOM     65  CB  ILE d   6    2562.442 784.509-2669.808  0.00  0.00     0.013 C 
ATOM     66  CG2 ILE d   6    2563.883 784.207-2670.323  0.00  0.00     0.012 C 
BRANCH  65  67
ATOM     67  CG1 ILE d   6    2562.460 784.447-2668.247  0.00  0.00     0.002 C 
ATOM     68  CD1 ILE d   6    2562.730 783.057-2667.632  0.00  0.00     0.005 C 
ENDBRANCH  65  67
ENDBRANCH  16  65
ENDBRANCH  13  16
ENDBRANCH  11  12
BRANCH  11  69
ATOM     69  CB  LEU d   7    2559.581 784.248-2674.428  0.00  0.00     0.038 C 
BRANCH  69  70
ATOM     70  CG  LEU d   7    2559.508 782.769-2673.962  0.00  0.00    -0.020 C 
ATOM     71  CD1 LEU d   7    2558.318 782.064-2674.627  0.00  0.00     0.009 C 
ATOM     72  CD2 LEU d   7    2560.801 781.989-2674.253  0.00  0.00     0.009 C 
ENDBRANCH  69  70
ENDBRANCH  11  69
ENDBRANCH   8  11
ENDBRANCH   6   7
BRANCH   6  73
ATOM     73  CB  ASP d   8    2558.728 789.534-2673.828  0.00  0.00     0.147 C 
BRANCH  73  74
ATOM     74  CG  ASP d   8    2558.510 790.955-2674.369  0.00  0.00     0.175 C 
ATOM     75  OD1 ASP d   8    2558.574 791.153-2675.600  0.00  0.00    -0.648 OA
ATOM     76  OD2 ASP d   8    2558.319 791.881-2673.554  0.00  0.00    -0.648 OA
ENDBRANCH  73  74
ENDBRANCH   6  73
ENDBRANCH   3   6
ENDBRANCH   1   2
BRANCH   1  77
ATOM     77  C   GLU d   9    2564.053 789.452-2674.438  0.00  0.00     0.241 C 
ATOM     78  O   GLU d   9    2564.717 790.206-2675.164  0.00  0.00    -0.271 OA
ATOM     79  N   HIS d  10    2564.149 788.177-2674.607  0.00  0.00    -0.346 N 
ATOM     80  H   HIS d  10    2563.619 787.542-2674.028  0.00  0.00     0.163 HD
BRANCH  79  81
ATOM     81  CA  HIS d  10    2565.037 787.664-2675.647  0.00  0.00     0.182 C 
BRANCH  81  82
ATOM     82  C   HIS d  10    2564.670 788.228-2676.999  0.00  0.00     0.241 C 
ATOM     83  O   HIS d  10    2565.522 788.692-2677.771  0.00  0.00    -0.271 OA
ATOM     84  N   VAL d  11    2563.432 788.228-2677.362  0.00  0.00    -0.346 N 
ATOM     85  H   VAL d  11    2562.719 787.856-2676.751  0.00  0.00     0.163 HD
BRANCH  84  86
ATOM     86  CA  VAL d  11    2563.077 788.774-2678.669  0.00  0.00     0.180 C 
BRANCH  86  87
ATOM     87  C   VAL d  11    2563.542 790.204-2678.802  0.00  0.00     0.241 C 
ATOM     88  O   VAL d  11    2564.143 790.608-2679.805  0.00  0.00    -0.271 OA
ATOM     89  N   GLN d  12    2563.306 791.030-2677.840  0.00  0.00    -0.346 N 
ATOM     90  H   GLN d  12    2562.817 790.725-2677.010  0.00  0.00     0.163 HD
BRANCH  89  91
ATOM     91  CA  GLN d  12    2563.755 792.413-2677.968  0.00  0.00     0.177 C 
BRANCH  91  92
ATOM     92  C   GLN d  12    2565.245 792.479-2678.206  0.00  0.00     0.241 C 
ATOM     93  O   GLN d  12    2565.732 793.187-2679.085  0.00  0.00    -0.271 OA
ATOM     94  N   ARG d  13    2566.029 791.772-2677.465  0.00  0.00    -0.346 N 
ATOM     95  H   ARG d  13    2565.653 791.183-2676.736  0.00  0.00     0.163 HD
BRANCH  94  96
ATOM     96  CA  ARG d  13    2567.469 791.838-2677.696  0.00  0.00     0.176 C 
BRANCH  96  97
ATOM     97  C   ARG d  13    2567.805 791.465-2679.121  0.00  0.00     0.241 C 
ATOM     98  O   ARG d  13    2568.574 792.136-2679.806  0.00  0.00    -0.271 OA
ATOM     99  N   VAL d  14    2567.269 790.411-2679.635  0.00  0.00    -0.346 N 
ATOM    100  H   VAL d  14    2566.634 789.842-2679.092  0.00  0.00     0.163 HD
BRANCH  99 101
ATOM    101  CA  VAL d  14    2567.593 790.050-2681.012  0.00  0.00     0.180 C 
BRANCH 101 102
ATOM    102  C   VAL d  14    2567.263 791.180-2681.958  0.00  0.00     0.241 C 
ATOM    103  O   VAL d  14    2568.056 791.561-2682.828  0.00  0.00    -0.271 OA
ATOM    104  N   MET d  15    2566.119 791.766-2681.856  0.00  0.00    -0.346 N 
ATOM    105  H   MET d  15    2565.454 791.474-2681.155  0.00  0.00     0.163 HD
BRANCH 104 106
ATOM    106  CA  MET d  15    2565.798 792.859-2682.770  0.00  0.00     0.177 C 
BRANCH 106 107
ATOM    107  C   MET d  15    2566.829 793.958-2682.683  0.00  0.00     0.241 C 
ATOM    108  O   MET d  15    2567.331 794.469-2683.696  0.00  0.00    -0.271 OA
ATOM    109  N   PHE d  16    2567.198 794.380-2681.521  0.00  0.00    -0.347 N 
ATOM    110  H   PHE d  16    2566.803 793.980-2680.682  0.00  0.00     0.163 HD
BRANCH 109 111
ATOM    111  CA  PHE d  16    2568.194 795.444-2681.437  0.00  0.00     0.166 C 
BRANCH 111 112
ATOM    112  C   PHE d  16    2569.465 795.053-2682.152  0.00  0.00     0.219 C 
ATOM    113  O   PHE d  16    2569.591 793.937-2682.730  0.00  0.00    -0.287 OA
ENDBRANCH 111 112
BRANCH 111 114
ATOM    114  CB  PHE d  16    2568.529 795.746-2679.945  0.00  0.00     0.072 C 
BRANCH 114 115
ATOM    115  CG  PHE d  16    2567.351 796.163-2679.050  0.00  0.00    -0.056 A 
ATOM    116  CD1 PHE d  16    2566.601 795.181-2678.393  0.00  0.00     0.007 A 
ATOM    117  CE1 PHE d  16    2565.483 795.535-2677.645  0.00  0.00     0.001 A 
ATOM    118  CZ  PHE d  16    2565.119 796.875-2677.533  0.00  0.00     0.000 A 
ATOM    119  CE2 PHE d  16    2565.869 797.860-2678.174  0.00  0.00     0.001 A 
ATOM    120  CD2 PHE d  16    2566.981 797.505-2678.933  0.00  0.00     0.007 A 
ENDBRANCH 114 115
ENDBRANCH 111 114
ENDBRANCH 109 111
ENDBRANCH 106 107
BRANCH 106 121
ATOM    121  CB  MET d  15    2564.377 793.404-2682.461  0.00  0.00     0.045 C 
BRANCH 121 122
ATOM    122  CG  MET d  15    2563.215 792.406-2682.652  0.00  0.00     0.076 C 
BRANCH 122 123
ATOM    123  SD  MET d  15    2561.641 793.273-2682.538  0.00  0.00    -0.173 SA
ATOM    124  CE  MET d  15    2560.560 791.843-2682.400  0.00  0.00     0.089 C 
ENDBRANCH 122 123
ENDBRANCH 121 122
ENDBRANCH 106 121
ENDBRANCH 104 106
ENDBRANCH 101 102
BRANCH 101 125
ATOM    125  CB  VAL d  14    2566.820 788.733-2681.418  0.00  0.00     0.009 C 
ATOM    126  CG1 VAL d  14    2566.909 788.314-2682.911  0.00  0.00     0.012 C 
ATOM    127  CG2 VAL d  14    2567.252 787.481-2680.617  0.00  0.00     0.012 C 
ENDBRANCH 101 125
ENDBRANCH  99 101
ENDBRANCH  96  97
BRANCH  96 128
ATOM    128  CB  ARG d  13    2568.183 790.899-2676.682  0.00  0.00     0.036 C 
BRANCH 128 129
ATOM    129  CG  ARG d  13    2569.728 791.052-2676.601  0.00  0.00     0.023 C 
BRANCH 129 130
ATOM    130  CD  ARG d  13    2570.355 790.065-2675.603  0.00  0.00     0.138 C 
BRANCH 130 131
ATOM    131  NE  ARG d  13    2571.832 790.272-2675.553  0.00  0.00    -0.227 N 
ATOM    132  CZ  ARG d  13    2572.680 789.580-2674.798  0.00  0.00     0.665 C 
ATOM    133  NH1 ARG d  13    2572.315 788.617-2673.999  0.00  0.00    -0.235 N 
ATOM    134  NH2 ARG d  13    2573.940 789.879-2674.855  0.00  0.00    -0.235 N 
ATOM    135 11HH ARG d  13    2571.310 788.431-2674.002  0.00  0.00     0.174 HD
ATOM    136 12HH ARG d  13    2573.028 788.134-2673.450  0.00  0.00     0.174 HD
ATOM    137 21HH ARG d  13    2574.208 790.636-2675.487  0.00  0.00     0.174 HD
ATOM    138 22HH ARG d  13    2574.575 789.338-2674.266  0.00  0.00     0.174 HD
ATOM    139  HE  ARG d  13    2572.283 790.993-2676.125  0.00  0.00     0.177 HD
ENDBRANCH 130 131
ENDBRANCH 129 130
ENDBRANCH 128 129
ENDBRANCH  96 128
ENDBRANCH  94  96
ENDBRANCH  91  92
BRANCH  91 140
ATOM    140  CB  GLN d  12    2563.365 793.181-2676.686  0.00  0.00     0.044 C 
BRANCH 140 141
ATOM    141  CG  GLN d  12    2563.726 794.703-2676.655  0.00  0.00     0.105 C 
BRANCH 141 142
ATOM    142  CD  GLN d  12    2563.424 795.517-2675.391  0.00  0.00     0.215 C 
ATOM    143  NE2 GLN d  12    2562.857 794.941-2674.362  0.00  0.00    -0.370 N 
ATOM    144 21HE GLN d  12    2562.751 795.536-2673.538  0.00  0.00     0.159 HD
ATOM    145 22HE GLN d  12    2562.693 793.938-2674.464  0.00  0.00     0.159 HD
ATOM    146  OE1 GLN d  12    2563.727 796.698-2675.314  0.00  0.00    -0.274 OA
ENDBRANCH 141 142
ENDBRANCH 140 141
ENDBRANCH  91 140
ENDBRANCH  89  91
ENDBRANCH  86  87
BRANCH  86 147
ATOM    147  CB  VAL d  11    2561.515 788.667-2678.888  0.00  0.00     0.009 C 
ATOM    148  CG1 VAL d  11    2560.947 789.371-2680.151  0.00  0.00     0.012 C 
ATOM    149  CG2 VAL d  11    2560.990 787.214-2678.960  0.00  0.00     0.012 C 
ENDBRANCH  86 147
ENDBRANCH  84  86
ENDBRANCH  81  82
BRANCH  81 150
ATOM    150  CB  HIS d  10    2564.872 786.135-2675.642  0.00  0.00     0.095 C 
BRANCH 150 151
ATOM    151  CG  HIS d  10    2566.157 785.425-2675.334  0.00  0.00     0.053 A 
ATOM    152  CD2 HIS d  10    2566.539 785.090-2674.041  0.00  0.00     0.116 A 
ATOM    153  NE2 HIS d  10    2567.753 784.458-2674.108  0.00  0.00    -0.359 N 
ATOM    154  CE1 HIS d  10    2568.015 784.460-2675.443  0.00  0.00     0.207 A 
ATOM    155  2HE HIS d  10    2568.320 784.081-2673.335  0.00  0.00     0.166 HD
ATOM    156  ND1 HIS d  10    2567.109 785.018-2676.266  0.00  0.00    -0.247 NA
ENDBRANCH 150 151
ENDBRANCH  81 150
ENDBRANCH  79  81
ENDBRANCH   1  77
BRANCH   1 157
ATOM    157  CB  GLU d   9    2563.770 789.773-2671.957  0.00  0.00     0.045 C 
BRANCH 157 158
ATOM    158  CG  GLU d   9    2565.153 790.465-2671.728  0.00  0.00     0.116 C 
BRANCH 158 159
ATOM    159  CD  GLU d   9    2565.854 790.252-2670.400  0.00  0.00     0.172 C 
ATOM    160  OE1 GLU d   9    2565.333 789.562-2669.503  0.00  0.00    -0.648 OA
ATOM    161  OE2 GLU d   9    2566.974 790.789-2670.269  0.00  0.00    -0.648 OA
ENDBRANCH 158 159
ENDBRANCH 157 158
ENDBRANCH   1 157
TORSDOF 66
