REMARK WARNING: 32 MAX_TORS EXCEEDED!!!
REMARK  66 active torsions:
REMARK  status: ('A' for Active; 'I' for Inactive)
REMARK    1  A    between atoms: N_1  and  CA_2 
REMARK    2  A    between atoms: CA_2  and  C_3 
REMARK    3  A    between atoms: CA_2  and  CB_5 
REMARK       I    between atoms: C_3  and  N_11 
REMARK    4  A    between atoms: CB_5  and  CG_6 
REMARK    5  A    between atoms: CG_6  and  CD_7 
REMARK    6  A    between atoms: N_11  and  CA_12 
REMARK    7  A    between atoms: CA_12  and  C_13 
REMARK    8  A    between atoms: CA_12  and  CB_15 
REMARK       I    between atoms: C_13  and  N_22 
REMARK    9  A    between atoms: CB_15  and  CG_16 
REMARK       I    between atoms: CG_16  and  ND2_17 
REMARK   10  A    between atoms: CA_23  and  C_24 
REMARK       I    between atoms: C_24  and  N_29 
REMARK   11  A    between atoms: N_29  and  CA_30 
REMARK   12  A    between atoms: CA_30  and  C_31 
REMARK   13  A    between atoms: CA_30  and  CB_33 
REMARK       I    between atoms: C_31  and  N_39 
REMARK   14  A    between atoms: CB_33  and  CG_34 
REMARK   15  A    between atoms: CG_34  and  CD_35 
REMARK   16  A    between atoms: N_39  and  CA_40 
REMARK   17  A    between atoms: CA_40  and  C_41 
REMARK   18  A    between atoms: CA_40  and  CB_43 
REMARK       I    between atoms: C_41  and  N_47 
REMARK   19  A    between atoms: CB_43  and  OG_44 
REMARK   20  A    between atoms: N_47  and  CA_48 
REMARK   21  A    between atoms: CA_48  and  C_49 
REMARK   22  A    between atoms: CA_48  and  CB_51 
REMARK       I    between atoms: C_49  and  N_56 
REMARK   23  A    between atoms: CB_51  and  CG1_52 
REMARK   24  A    between atoms: N_56  and  CA_57 
REMARK   25  A    between atoms: CA_57  and  C_58 
REMARK   26  A    between atoms: CA_57  and  CB_60 
REMARK       I    between atoms: C_58  and  N_65 
REMARK   27  A    between atoms: CB_60  and  CG_61 
REMARK   28  A    between atoms: N_65  and  CA_66 
REMARK   29  A    between atoms: CA_66  and  C_67 
REMARK   30  A    between atoms: CA_66  and  CB_69 
REMARK       I    between atoms: C_67  and  N_74 
REMARK   31  A    between atoms: CB_69  and  CG_70 
REMARK   32  A    between atoms: N_74  and  CA_75 
REMARK   33  A    between atoms: CA_75  and  C_76 
REMARK   34  A    between atoms: CA_75  and  CB_78 
REMARK       I    between atoms: C_76  and  N_84 
REMARK   35  A    between atoms: CB_78  and  CG_79 
REMARK   36  A    between atoms: CG_79  and  CD_80 
REMARK   37  A    between atoms: N_84  and  CA_85 
REMARK   38  A    between atoms: CA_85  and  C_86 
REMARK   39  A    between atoms: CA_85  and  CB_88 
REMARK       I    between atoms: C_86  and  N_96 
REMARK   40  A    between atoms: CB_88  and  CG_89 
REMARK   41  A    between atoms: N_96  and  CA_97 
REMARK   42  A    between atoms: CA_97  and  C_98 
REMARK   43  A    between atoms: CA_97  and  CB_100 
REMARK       I    between atoms: C_98  and  N_104 
REMARK   44  A    between atoms: N_104  and  CA_105 
REMARK   45  A    between atoms: CA_105  and  C_106 
REMARK   46  A    between atoms: CA_105  and  CB_108 
REMARK       I    between atoms: C_106  and  N_116 
REMARK   47  A    between atoms: CB_108  and  CG_109 
REMARK   48  A    between atoms: CG_109  and  CD_110 
REMARK       I    between atoms: CD_110  and  NE2_111 
REMARK   49  A    between atoms: N_116  and  CA_117 
REMARK   50  A    between atoms: CA_117  and  C_118 
REMARK   51  A    between atoms: CA_117  and  CB_120 
REMARK       I    between atoms: C_118  and  N_125 
REMARK   52  A    between atoms: CB_120  and  CG_121 
REMARK   53  A    between atoms: N_125  and  CA_126 
REMARK   54  A    between atoms: CA_126  and  C_127 
REMARK   55  A    between atoms: CA_126  and  CB_129 
REMARK       I    between atoms: C_127  and  N_133 
REMARK   56  A    between atoms: N_133  and  CA_134 
REMARK   57  A    between atoms: CA_134  and  C_135 
REMARK   58  A    between atoms: CA_134  and  CB_137 
REMARK       I    between atoms: C_135  and  N_142 
REMARK   59  A    between atoms: CB_137  and  CG_138 
REMARK   60  A    between atoms: CG_138  and  SD_139 
REMARK   61  A    between atoms: N_142  and  CA_143 
REMARK   62  A    between atoms: CA_143  and  C_144 
REMARK   63  A    between atoms: CA_143  and  CB_146 
REMARK   64  A    between atoms: CB_146  and  CG_147 
REMARK   65  A    between atoms: CG_147  and  CD_148 
REMARK   66  A    between atoms: CD_148  and  NE_149 
REMARK       I    between atoms: NE_149  and  CZ_150 
REMARK       I    between atoms: CZ_150  and  NH1_151 
ROOT
ATOM      1  CA  GLU d   9    2145.216 656.822-2220.432  0.00  0.00     0.177 C 
ENDROOT
BRANCH   1   2
ATOM      2  N   GLU d   9    2143.913 656.165-2220.486  0.00  0.00    -0.346 N 
ATOM      3  C   ASP d   8    2143.233 656.214-2221.582  0.00  0.00     0.241 C 
ATOM      4  O   ASP d   8    2143.706 656.819-2222.557  0.00  0.00    -0.271 OA
ATOM      5  H   GLU d   9    2143.549 655.679-2219.679  0.00  0.00     0.163 HD
BRANCH   3   6
ATOM      6  CA  ASP d   8    2141.885 655.535-2221.638  0.00  0.00     0.186 C 
BRANCH   6   7
ATOM      7  N   ASP d   8    2141.955 654.186-2221.084  0.00  0.00    -0.346 N 
ATOM      8  C   LEU d   7    2142.792 653.345-2221.590  0.00  0.00     0.241 C 
ATOM      9  O   LEU d   7    2143.513 653.707-2222.532  0.00  0.00    -0.271 OA
ATOM     10  H   ASP d   8    2141.357 653.916-2220.316  0.00  0.00     0.163 HD
BRANCH   8  11
ATOM     11  CA  LEU d   7    2142.864 651.950-2221.017  0.00  0.00     0.177 C 
BRANCH  11  12
ATOM     12  N   LEU d   7    2142.919 651.986-2219.559  0.00  0.00    -0.346 N 
ATOM     13  C   ILE d   6    2143.865 652.649-2218.985  0.00  0.00     0.241 C 
ATOM     14  O   ILE d   6    2144.700 653.236-2219.689  0.00  0.00    -0.271 OA
ATOM     15  H   LEU d   7    2142.227 651.499-2219.007  0.00  0.00     0.163 HD
BRANCH  13  16
ATOM     16  CA  ILE d   6    2143.922 652.687-2217.477  0.00  0.00     0.180 C 
BRANCH  16  17
ATOM     17  N   ILE d   6    2142.609 652.982-2216.911  0.00  0.00    -0.346 N 
ATOM     18  C   SER d   5    2142.005 654.065-2217.266  0.00  0.00     0.243 C 
ATOM     19  O   SER d   5    2142.553 654.819-2218.070  0.00  0.00    -0.271 OA
ATOM     20  H   ILE d   6    2142.180 652.348-2216.253  0.00  0.00     0.163 HD
BRANCH  18  21
ATOM     21  CA  SER d   5    2140.646 654.371-2216.680  0.00  0.00     0.200 C 
BRANCH  21  22
ATOM     22  N   SER d   5    2139.776 653.200-2216.739  0.00  0.00    -0.344 N 
ATOM     23  C   GLU d   4    2139.549 652.648-2217.883  0.00  0.00     0.241 C 
ATOM     24  O   GLU d   4    2140.076 653.127-2218.897  0.00  0.00    -0.271 OA
ATOM     25  H   SER d   5    2139.359 652.829-2215.898  0.00  0.00     0.163 HD
BRANCH  23  26
ATOM     26  CA  GLU d   4    2138.650 651.437-2217.944  0.00  0.00     0.177 C 
BRANCH  26  27
ATOM     27  N   GLU d   4    2139.009 650.466-2216.914  0.00  0.00    -0.346 N 
ATOM     28  C   PRO d   3    2140.214 650.006-2216.882  0.00  0.00     0.241 C 
ATOM     29  O   PRO d   3    2141.037 650.389-2217.713  0.00  0.00    -0.271 OA
ATOM     30  H   GLU d   4    2138.324 650.159-2216.238  0.00  0.00     0.163 HD
BRANCH  28  31
ATOM     31  CA  PRO d   3    2140.612 648.982-2215.804  0.00  0.00     0.179 C 
ATOM     32  N   PRO d   3    2140.159 649.391-2214.483  0.00  0.00    -0.337 N 
ATOM     33  C   ASN d   2    2140.681 650.386-2213.849  0.00  0.00     0.243 C 
ATOM     34  CD  PRO d   3    2139.081 648.599-2213.934  0.00  0.00     0.127 C 
ATOM     35  O   ASN d   2    2141.596 651.017-2214.377  0.00  0.00    -0.271 OA
ATOM     36  CG  PRO d   3    2138.624 647.780-2215.144  0.00  0.00     0.022 C 
ATOM     37  CB  PRO d   3    2139.907 647.628-2215.974  0.00  0.00     0.037 C 
BRANCH  33  38
ATOM     38  CA  ASN d   2    2140.149 650.742-2212.480  0.00  0.00     0.185 C 
BRANCH  38  39
ATOM     39  N   ASN d   2    2138.690 650.781-2212.480  0.00  0.00    -0.346 N 
ATOM     40  C   GLU d   1    2138.086 651.567-2213.306  0.00  0.00     0.242 C 
ATOM     41  O   GLU d   1    2138.761 652.266-2214.074  0.00  0.00    -0.271 OA
ATOM     42  H   ASN d   2    2138.162 650.201-2211.844  0.00  0.00     0.163 HD
BRANCH  40  43
ATOM     43  CA  GLU d   1    2136.577 651.607-2213.306  0.00  0.00     0.191 C 
BRANCH  43  44
ATOM     44  N   GLU d   1    2136.018 650.258-2213.306  0.00  0.00    -0.326 NA
ATOM     45  H   GLU d   1    2136.645 649.379-2213.306  0.00  0.00     0.180 HD
ENDBRANCH  43  44
BRANCH  43  46
ATOM     46  CB  GLU d   1    2136.053 652.392-2212.069  0.00  0.00     0.047 C 
BRANCH  46  47
ATOM     47  CG  GLU d   1    2136.529 653.877-2211.958  0.00  0.00     0.116 C 
BRANCH  47  48
ATOM     48  CD  GLU d   1    2136.104 654.681-2210.743  0.00  0.00     0.172 C 
ATOM     49  OE1 GLU d   1    2135.376 654.179-2209.865  0.00  0.00    -0.648 OA
ATOM     50  OE2 GLU d   1    2136.535 655.851-2210.671  0.00  0.00    -0.648 OA
ENDBRANCH  47  48
ENDBRANCH  46  47
ENDBRANCH  43  46
ENDBRANCH  40  43
ENDBRANCH  38  39
BRANCH  38  51
ATOM     51  CB  ASN d   2    2140.641 649.719-2211.416  0.00  0.00     0.137 C 
BRANCH  51  52
ATOM     52  CG  ASN d   2    2140.178 649.943-2209.973  0.00  0.00     0.217 C 
ATOM     53  ND2 ASN d   2    2140.772 650.858-2209.254  0.00  0.00    -0.370 N 
ATOM     54 21HD ASN d   2    2140.291 651.031-2208.368  0.00  0.00     0.159 HD
ATOM     55 22HD ASN d   2    2141.474 651.429-2209.723  0.00  0.00     0.159 HD
ATOM     56  OD1 ASN d   2    2139.257 649.309-2209.479  0.00  0.00    -0.274 OA
ENDBRANCH  51  52
ENDBRANCH  38  51
ENDBRANCH  33  38
ENDBRANCH  28  31
ENDBRANCH  26  27
BRANCH  26  57
ATOM     57  CB  GLU d   4    2137.161 651.856-2217.774  0.00  0.00     0.045 C 
BRANCH  57  58
ATOM     58  CG  GLU d   4    2136.614 652.860-2218.840  0.00  0.00     0.116 C 
BRANCH  58  59
ATOM     59  CD  GLU d   4    2135.188 653.357-2218.697  0.00  0.00     0.172 C 
ATOM     60  OE1 GLU d   4    2134.461 652.959-2217.767  0.00  0.00    -0.648 OA
ATOM     61  OE2 GLU d   4    2134.799 654.186-2219.546  0.00  0.00    -0.648 OA
ENDBRANCH  58  59
ENDBRANCH  57  58
ENDBRANCH  26  57
ENDBRANCH  23  26
ENDBRANCH  21  22
BRANCH  21  62
ATOM     62  CB  SER d   5    2140.757 654.903-2215.230  0.00  0.00     0.199 C 
BRANCH  62  63
ATOM     63  OG  SER d   5    2141.488 654.024-2214.369  0.00  0.00    -0.398 OA
ATOM     64  HG  SER d   5    2140.999 653.199-2214.318  0.00  0.00     0.209 HD
ENDBRANCH  62  63
ENDBRANCH  21  62
ENDBRANCH  18  21
ENDBRANCH  16  17
BRANCH  16  65
ATOM     65  CB  ILE d   6    2144.521 651.350-2216.877  0.00  0.00     0.013 C 
ATOM     66  CG2 ILE d   6    2145.963 651.048-2217.392  0.00  0.00     0.012 C 
BRANCH  65  67
ATOM     67  CG1 ILE d   6    2144.540 651.288-2215.316  0.00  0.00     0.002 C 
ATOM     68  CD1 ILE d   6    2144.810 649.899-2214.701  0.00  0.00     0.005 C 
ENDBRANCH  65  67
ENDBRANCH  16  65
ENDBRANCH  13  16
ENDBRANCH  11  12
BRANCH  11  69
ATOM     69  CB  LEU d   7    2141.661 651.090-2221.498  0.00  0.00     0.038 C 
BRANCH  69  70
ATOM     70  CG  LEU d   7    2141.588 649.610-2221.031  0.00  0.00    -0.020 C 
ATOM     71  CD1 LEU d   7    2140.398 648.905-2221.696  0.00  0.00     0.009 C 
ATOM     72  CD2 LEU d   7    2142.881 648.831-2221.323  0.00  0.00     0.009 C 
ENDBRANCH  69  70
ENDBRANCH  11  69
ENDBRANCH   8  11
ENDBRANCH   6   7
BRANCH   6  73
ATOM     73  CB  ASP d   8    2140.808 656.375-2220.897  0.00  0.00     0.147 C 
BRANCH  73  74
ATOM     74  CG  ASP d   8    2140.590 657.796-2221.438  0.00  0.00     0.175 C 
ATOM     75  OD1 ASP d   8    2140.654 657.994-2222.669  0.00  0.00    -0.648 OA
ATOM     76  OD2 ASP d   8    2140.398 658.722-2220.624  0.00  0.00    -0.648 OA
ENDBRANCH  73  74
ENDBRANCH   6  73
ENDBRANCH   3   6
ENDBRANCH   1   2
BRANCH   1  77
ATOM     77  C   GLU d   9    2146.133 656.293-2221.508  0.00  0.00     0.241 C 
ATOM     78  O   GLU d   9    2146.797 657.047-2222.234  0.00  0.00    -0.271 OA
ATOM     79  N   HIS d  10    2146.229 655.018-2221.676  0.00  0.00    -0.346 N 
ATOM     80  H   HIS d  10    2145.698 654.383-2221.097  0.00  0.00     0.163 HD
BRANCH  79  81
ATOM     81  CA  HIS d  10    2147.116 654.506-2222.717  0.00  0.00     0.182 C 
BRANCH  81  82
ATOM     82  C   HIS d  10    2146.750 655.070-2224.068  0.00  0.00     0.241 C 
ATOM     83  O   HIS d  10    2147.602 655.534-2224.840  0.00  0.00    -0.271 OA
ATOM     84  N   VAL d  11    2145.512 655.069-2224.431  0.00  0.00    -0.346 N 
ATOM     85  H   VAL d  11    2144.799 654.697-2223.820  0.00  0.00     0.163 HD
BRANCH  84  86
ATOM     86  CA  VAL d  11    2145.156 655.615-2225.738  0.00  0.00     0.180 C 
BRANCH  86  87
ATOM     87  C   VAL d  11    2145.622 657.045-2225.871  0.00  0.00     0.241 C 
ATOM     88  O   VAL d  11    2146.223 657.449-2226.875  0.00  0.00    -0.271 OA
ATOM     89  N   GLN d  12    2145.385 657.871-2224.909  0.00  0.00    -0.346 N 
ATOM     90  H   GLN d  12    2144.897 657.566-2224.080  0.00  0.00     0.163 HD
BRANCH  89  91
ATOM     91  CA  GLN d  12    2145.835 659.254-2225.037  0.00  0.00     0.177 C 
BRANCH  91  92
ATOM     92  C   GLN d  12    2147.324 659.320-2225.275  0.00  0.00     0.241 C 
ATOM     93  O   GLN d  12    2147.812 660.028-2226.154  0.00  0.00    -0.271 OA
ATOM     94  N   ASP d  13    2148.109 658.613-2224.534  0.00  0.00    -0.346 N 
ATOM     95  H   ASP d  13    2147.732 658.024-2223.806  0.00  0.00     0.163 HD
BRANCH  94  96
ATOM     96  CA  ASP d  13    2149.549 658.678-2224.765  0.00  0.00     0.186 C 
BRANCH  96  97
ATOM     97  C   ASP d  13    2149.887 658.306-2226.188  0.00  0.00     0.241 C 
ATOM     98  O   ASP d  13    2150.665 658.984-2226.878  0.00  0.00    -0.271 OA
ATOM     99  N   VAL d  14    2149.352 657.252-2226.704  0.00  0.00    -0.346 N 
ATOM    100  H   VAL d  14    2148.715 656.684-2226.163  0.00  0.00     0.163 HD
BRANCH  99 101
ATOM    101  CA  VAL d  14    2149.678 656.892-2228.081  0.00  0.00     0.180 C 
BRANCH 101 102
ATOM    102  C   VAL d  14    2149.351 658.022-2229.027  0.00  0.00     0.241 C 
ATOM    103  O   VAL d  14    2150.146 658.403-2229.895  0.00  0.00    -0.271 OA
ATOM    104  N   MET d  15    2148.206 658.609-2228.927  0.00  0.00    -0.346 N 
ATOM    105  H   MET d  15    2147.540 658.317-2228.226  0.00  0.00     0.163 HD
BRANCH 104 106
ATOM    106  CA  MET d  15    2147.888 659.702-2229.841  0.00  0.00     0.177 C 
BRANCH 106 107
ATOM    107  C   MET d  15    2148.919 660.801-2229.751  0.00  0.00     0.241 C 
ATOM    108  O   MET d  15    2149.424 661.312-2230.763  0.00  0.00    -0.271 OA
ATOM    109  N   ARG d  16    2149.286 661.222-2228.588  0.00  0.00    -0.347 N 
ATOM    110  H   ARG d  16    2148.889 660.822-2227.750  0.00  0.00     0.163 HD
BRANCH 109 111
ATOM    111  CA  ARG d  16    2150.283 662.285-2228.503  0.00  0.00     0.162 C 
BRANCH 111 112
ATOM    112  C   ARG d  16    2151.555 661.891-2229.217  0.00  0.00     0.219 C 
ATOM    113  O   ARG d  16    2151.669 660.815-2229.798  0.00  0.00    -0.287 OA
ENDBRANCH 111 112
BRANCH 111 114
ATOM    114  CB  ARG d  16    2150.550 662.602-2227.004  0.00  0.00     0.035 C 
BRANCH 114 115
ATOM    115  CG  ARG d  16    2151.376 663.890-2226.729  0.00  0.00     0.023 C 
BRANCH 115 116
ATOM    116  CD  ARG d  16    2151.623 664.109-2225.227  0.00  0.00     0.138 C 
BRANCH 116 117
ATOM    117  NE  ARG d  16    2152.400 665.367-2225.024  0.00  0.00    -0.227 N 
ATOM    118  CZ  ARG d  16    2152.790 665.848-2223.848  0.00  0.00     0.665 C 
ATOM    119  NH1 ARG d  16    2152.540 665.264-2222.710  0.00  0.00    -0.235 N 
ATOM    120  NH2 ARG d  16    2153.455 666.960-2223.828  0.00  0.00    -0.235 N 
ATOM    121 11HH ARG d  16    2152.013 664.391-2222.795  0.00  0.00     0.174 HD
ATOM    122 12HH ARG d  16    2152.873 665.698-2221.848  0.00  0.00     0.174 HD
ATOM    123 21HH ARG d  16    2153.642 667.403-2224.729  0.00  0.00     0.174 HD
ATOM    124 22HH ARG d  16    2153.743 667.315-2222.914  0.00  0.00     0.174 HD
ATOM    125  HE  ARG d  16    2152.680 665.948-2225.821  0.00  0.00     0.177 HD
ENDBRANCH 116 117
ENDBRANCH 115 116
ENDBRANCH 114 115
ENDBRANCH 111 114
ENDBRANCH 109 111
ENDBRANCH 106 107
BRANCH 106 126
ATOM    126  CB  MET d  15    2146.467 660.248-2229.534  0.00  0.00     0.045 C 
BRANCH 126 127
ATOM    127  CG  MET d  15    2145.304 659.251-2229.728  0.00  0.00     0.076 C 
BRANCH 127 128
ATOM    128  SD  MET d  15    2143.731 660.118-2229.616  0.00  0.00    -0.173 SA
ATOM    129  CE  MET d  15    2142.649 658.689-2229.481  0.00  0.00     0.089 C 
ENDBRANCH 127 128
ENDBRANCH 126 127
ENDBRANCH 106 126
ENDBRANCH 104 106
ENDBRANCH 101 102
BRANCH 101 130
ATOM    130  CB  VAL d  14    2148.906 655.576-2228.489  0.00  0.00     0.009 C 
ATOM    131  CG1 VAL d  14    2148.998 655.157-2229.982  0.00  0.00     0.012 C 
ATOM    132  CG2 VAL d  14    2149.336 654.323-2227.688  0.00  0.00     0.012 C 
ENDBRANCH 101 130
ENDBRANCH  99 101
ENDBRANCH  96  97
BRANCH  96 133
ATOM    133  CB  ASP d  13    2150.305 657.767-2223.758  0.00  0.00     0.147 C 
BRANCH 133 134
ATOM    134  CG  ASP d  13    2151.837 657.805-2223.854  0.00  0.00     0.175 C 
ATOM    135  OD1 ASP d  13    2152.404 658.887-2224.108  0.00  0.00    -0.648 OA
ATOM    136  OD2 ASP d  13    2152.471 656.737-2223.718  0.00  0.00    -0.648 OA
ENDBRANCH 133 134
ENDBRANCH  96 133
ENDBRANCH  94  96
ENDBRANCH  91  92
BRANCH  91 137
ATOM    137  CB  GLN d  12    2145.444 660.022-2223.755  0.00  0.00     0.044 C 
BRANCH 137 138
ATOM    138  CG  GLN d  12    2145.806 661.544-2223.725  0.00  0.00     0.105 C 
BRANCH 138 139
ATOM    139  CD  GLN d  12    2145.504 662.358-2222.460  0.00  0.00     0.215 C 
ATOM    140  NE2 GLN d  12    2144.937 661.783-2221.431  0.00  0.00    -0.370 N 
ATOM    141 21HE GLN d  12    2144.831 662.378-2220.608  0.00  0.00     0.159 HD
ATOM    142 22HE GLN d  12    2144.773 660.779-2221.534  0.00  0.00     0.159 HD
ATOM    143  OE1 GLN d  12    2145.807 663.539-2222.383  0.00  0.00    -0.274 OA
ENDBRANCH 138 139
ENDBRANCH 137 138
ENDBRANCH  91 137
ENDBRANCH  89  91
ENDBRANCH  86  87
BRANCH  86 144
ATOM    144  CB  VAL d  11    2143.595 655.509-2225.957  0.00  0.00     0.009 C 
ATOM    145  CG1 VAL d  11    2143.027 656.212-2227.220  0.00  0.00     0.012 C 
ATOM    146  CG2 VAL d  11    2143.070 654.055-2226.029  0.00  0.00     0.012 C 
ENDBRANCH  86 144
ENDBRANCH  84  86
ENDBRANCH  81  82
BRANCH  81 147
ATOM    147  CB  HIS d  10    2146.952 652.977-2222.711  0.00  0.00     0.095 C 
BRANCH 147 148
ATOM    148  CG  HIS d  10    2148.237 652.266-2222.403  0.00  0.00     0.053 A 
ATOM    149  CD2 HIS d  10    2148.619 651.932-2221.111  0.00  0.00     0.116 A 
ATOM    150  NE2 HIS d  10    2149.833 651.299-2221.177  0.00  0.00    -0.359 N 
ATOM    151  CE1 HIS d  10    2150.095 651.301-2222.512  0.00  0.00     0.207 A 
ATOM    152  2HE HIS d  10    2150.400 650.922-2220.404  0.00  0.00     0.166 HD
ATOM    153  ND1 HIS d  10    2149.189 651.859-2223.336  0.00  0.00    -0.247 NA
ENDBRANCH 147 148
ENDBRANCH  81 147
ENDBRANCH  79  81
ENDBRANCH   1  77
BRANCH   1 154
ATOM    154  CB  GLU d   9    2145.849 656.614-2219.026  0.00  0.00     0.045 C 
BRANCH 154 155
ATOM    155  CG  GLU d   9    2147.232 657.306-2218.798  0.00  0.00     0.116 C 
BRANCH 155 156
ATOM    156  CD  GLU d   9    2147.934 657.093-2217.469  0.00  0.00     0.172 C 
ATOM    157  OE1 GLU d   9    2147.413 656.403-2216.573  0.00  0.00    -0.648 OA
ATOM    158  OE2 GLU d   9    2149.054 657.631-2217.338  0.00  0.00    -0.648 OA
ENDBRANCH 155 156
ENDBRANCH 154 155
ENDBRANCH   1 154
TORSDOF 66
