@<TRIPOS>MOLECULE
13-19
263 264 16              
SMALL
USER_CHARGES
@<TRIPOS>ATOM
1	   N	2151.729	655.499	-2231.055	N.3	1	GLU1	-0.516	
2	  CA	2152.288	656.848	-2231.055	C.3	1	GLU1	0.040	
3	   C	2153.797	656.808	-2231.055	C.2	1	GLU1	0.537	
4	   O	2154.473	657.507	-2231.823	O.2	1	GLU1	-0.582	
5	  CB	2151.765	657.633	-2229.818	C.3	1	GLU1	0.056	
6	  CG	2152.240	659.118	-2229.707	C.3	1	GLU1	0.014	
7	  CD	2151.816	659.922	-2228.492	C.2	1	GLU1	0.805	
8	 OE1	2151.088	659.420	-2227.614	O.co2	1	GLU1	-0.819	
9	 OE2	2152.246	661.092	-2228.420	O.co2	1	GLU1	-0.819	
10	   H	2152.356	654.620	-2231.055	 H	1	GLU1	0.294	
11	  HA	2151.962	657.366	-2231.975	 H	1	GLU1	0.111	
12	 2HB	2152.054	657.102	-2228.888	 H	1	GLU1	-0.017	
13	 3HB	2150.658	657.623	-2229.805	 H	1	GLU1	-0.017	
14	 2HG	2151.930	659.703	-2230.588	 H	1	GLU1	-0.043	
15	 3HG	2153.340	659.185	-2229.678	 H	1	GLU1	-0.043	
16	   N	2154.401	656.022	-2230.230	N.am	2	ASN2	-0.416	
17	  CA	2155.861	655.983	-2230.229	C.3	2	ASN2	0.014	
18	   C	2156.392	655.627	-2231.598	C.2	2	ASN2	0.597	
19	   O	2157.307	656.258	-2232.126	O.2	2	ASN2	-0.568	
20	  CB	2156.352	654.960	-2229.165	C.3	2	ASN2	-0.204	
21	  CG	2155.889	655.184	-2227.722	C.2	2	ASN2	0.713	
22	 ND2	2156.483	656.099	-2227.003	N.pl3	2	ASN2	-0.919	
23	 OD1	2154.968	654.550	-2227.228	O.2	2	ASN2	-0.593	
24	   H	2153.873	655.442	-2229.593	 H	2	ASN2	0.272	
25	  HA	2156.238	656.993	-2229.984	 H	2	ASN2	0.105	
26	 2HB	2157.457	654.901	-2229.168	 H	2	ASN2	0.080	
27	 3HB	2156.023	653.942	-2229.451	 H	2	ASN2	0.080	
28	1HD2	2156.002	656.272	-2226.117	 H	2	ASN2	0.420	
29	2HD2	2157.185	656.670	-2227.472	 H	2	ASN2	0.420	
30	   N	2155.871	654.633	-2232.232	N.am	3	PRO3	-0.255	
31	  CA	2156.323	654.223	-2233.554	C.3	3	PRO3	-0.027	
32	   C	2155.925	655.247	-2234.631	C.2	3	PRO3	0.590	
33	   O	2156.749	655.630	-2235.462	O.2	3	PRO3	-0.575	
34	  CB	2155.618	652.869	-2233.723	C.3	3	PRO3	-0.007	
35	  CG	2154.335	653.021	-2232.894	C.3	3	PRO3	0.019	
36	  CD	2154.792	653.840	-2231.684	C.3	3	PRO3	0.019	
37	  HA	2157.409	654.103	-2233.567	 H	3	PRO3	0.064	
38	 2HB	2156.241	652.088	-2233.282	 H	3	PRO3	0.025	
39	 3HB	2155.420	652.620	-2234.769	 H	3	PRO3	0.025	
40	 2HG	2153.907	652.059	-2232.603	 H	3	PRO3	0.021	
41	 3HG	2153.598	653.592	-2233.461	 H	3	PRO3	0.021	
42	 2HD	2155.181	653.190	-2230.896	 H	3	PRO3	0.039	
43	 3HD	2153.996	654.476	-2231.291	 H	3	PRO3	0.039	
44	   N	2154.720	655.707	-2234.664	N.am	4	GLU4	-0.516	
45	  CA	2154.361	656.678	-2235.693	C.3	4	GLU4	0.040	
46	   C	2155.260	657.889	-2235.632	C.2	4	GLU4	0.537	
47	   O	2155.787	658.368	-2236.646	O.2	4	GLU4	-0.582	
48	  CB	2152.873	657.097	-2235.524	C.3	4	GLU4	0.056	
49	  CG	2152.325	658.101	-2236.589	C.3	4	GLU4	0.014	
50	  CD	2150.899	658.598	-2236.446	C.2	4	GLU4	0.805	
51	 OE1	2150.172	658.200	-2235.516	O.co2	4	GLU4	-0.819	
52	 OE2	2150.510	659.427	-2237.295	O.co2	4	GLU4	-0.819	
53	   H	2154.036	655.401	-2233.987	 H	4	GLU4	0.294	
54	  HA	2154.493	656.208	-2236.685	 H	4	GLU4	0.111	
55	 2HB	2152.720	657.537	-2234.517	 H	4	GLU4	-0.017	
56	 3HB	2152.225	656.199	-2235.530	 H	4	GLU4	-0.017	
57	 2HG	2152.407	657.686	-2237.607	 H	4	GLU4	-0.043	
58	 3HG	2152.914	659.033	-2236.600	 H	4	GLU4	-0.043	
59	   N	2155.487	658.442	-2234.489	N.am	5	SER5	-0.416	
60	  CA	2156.357	659.613	-2234.430	C.3	5	SER5	-0.025	
61	   C	2157.716	659.307	-2235.015	C.2	5	SER5	0.597	
62	   O	2158.264	660.060	-2235.820	O.2	5	SER5	-0.568	
63	  CB	2156.469	660.145	-2232.979	C.3	5	SER5	0.212	
64	  OG	2157.199	659.265	-2232.118	O.3	5	SER5	-0.655	
65	   H	2155.070	658.070	-2233.647	 H	5	SER5	0.272	
66	  HA	2155.908	660.403	-2235.059	 H	5	SER5	0.084	
67	 2HB	2155.469	660.339	-2232.546	 H	5	SER5	0.035	
68	 3HB	2156.974	661.130	-2232.981	 H	5	SER5	0.035	
69	  HG	2156.710	658.440	-2232.067	 H	5	SER5	0.428	
70	   N	2158.320	658.223	-2234.661	N.am	6	ILE6	-0.416	
71	  CA	2159.634	657.928	-2235.227	C.3	6	ILE6	-0.060	
72	   C	2159.576	657.890	-2236.734	C.2	6	ILE6	0.597	
73	   O	2160.411	658.477	-2237.438	O.2	6	ILE6	-0.568	
74	  CB	2160.233	656.591	-2234.626	C.3	6	ILE6	0.130	
75	 CG1	2160.251	656.529	-2233.065	C.3	6	ILE6	-0.043	
76	 CG2	2161.674	656.289	-2235.141	C.3	6	ILE6	-0.320	
77	 CD1	2160.521	655.140	-2232.450	C.3	6	ILE6	-0.066	
78	   H	2157.891	657.589	-2234.002	 H	6	ILE6	0.272	
79	  HA	2160.308	658.762	-2234.959	 H	6	ILE6	0.087	
80	  HB	2159.574	655.766	-2234.971	 H	6	ILE6	0.019	
81	2HG1	2159.270	656.849	-2232.670	 H	6	ILE6	0.024	
82	3HG1	2160.968	657.271	-2232.660	 H	6	ILE6	0.024	
83	1HG2	2161.733	656.196	-2236.240	 H	6	ILE6	0.088	
84	2HG2	2162.396	657.071	-2234.839	 H	6	ILE6	0.088	
85	3HG2	2162.063	655.327	-2234.762	 H	6	ILE6	0.088	
86	1HD1	2159.792	654.386	-2232.805	 H	6	ILE6	0.019	
87	2HD1	2161.531	654.761	-2232.686	 H	6	ILE6	0.019	
88	3HD1	2160.444	655.170	-2231.348	 H	6	ILE6	0.019	
89	   N	2158.630	657.227	-2237.308	N.am	7	LEU7	-0.416	
90	  CA	2158.575	657.191	-2238.766	C.3	7	LEU7	-0.052	
91	   C	2158.503	658.586	-2239.339	C.2	7	LEU7	0.597	
92	   O	2159.224	658.948	-2240.282	O.2	7	LEU7	-0.568	
93	  CB	2157.372	656.331	-2239.247	C.3	7	LEU7	-0.110	
94	  CG	2157.299	654.852	-2238.780	C.3	7	LEU7	0.353	
95	 CD1	2156.109	654.146	-2239.446	C.3	7	LEU7	-0.412	
96	 CD2	2158.592	654.072	-2239.072	C.3	7	LEU7	-0.412	
97	   H	2157.938	656.740	-2236.757	 H	7	LEU7	0.272	
98	  HA	2159.517	656.750	-2239.141	 H	7	LEU7	0.092	
99	 2HB	2157.349	656.347	-2240.354	 H	7	LEU7	0.046	
100	 3HB	2156.432	656.834	-2238.943	 H	7	LEU7	0.046	
101	  HG	2157.129	654.844	-2237.683	 H	7	LEU7	-0.036	
102	1HD1	2155.152	654.655	-2239.223	 H	7	LEU7	0.100	
103	2HD1	2156.208	654.106	-2240.547	 H	7	LEU7	0.100	
104	3HD1	2156.001	653.105	-2239.090	 H	7	LEU7	0.100	
105	1HD2	2158.867	654.102	-2240.142	 H	7	LEU7	0.100	
106	2HD2	2159.446	654.483	-2238.500	 H	7	LEU7	0.100	
107	3HD2	2158.510	653.010	-2238.776	 H	7	LEU7	0.100	
108	   N	2157.667	659.427	-2238.833	N.am	8	ASP8	-0.516	
109	  CA	2157.597	660.777	-2239.387	C.3	8	ASP8	0.038	
110	   C	2158.944	661.456	-2239.331	C.2	8	ASP8	0.537	
111	   O	2159.417	662.060	-2240.306	O.2	8	ASP8	-0.582	
112	  CB	2156.519	661.617	-2238.646	C.3	8	ASP8	-0.030	
113	  CG	2156.301	663.037	-2239.188	C.2	8	ASP8	0.799	
114	 OD1	2156.365	663.235	-2240.419	O.co2	8	ASP8	-0.801	
115	 OD2	2156.110	663.964	-2238.373	O.co2	8	ASP8	-0.801	
116	   H	2157.069	659.157	-2238.066	 H	8	ASP8	0.294	
117	  HA	2157.314	660.698	-2240.455	 H	8	ASP8	0.088	
118	 2HB	2156.776	661.700	-2237.575	 H	8	ASP8	-0.012	
119	 3HB	2155.540	661.112	-2238.679	 H	8	ASP8	-0.012	
120	   N	2159.624	661.406	-2238.236	N.am	9	GLU9	-0.516	
121	  CA	2160.927	662.063	-2238.181	C.3	9	GLU9	0.040	
122	   C	2161.844	661.534	-2239.257	C.2	9	GLU9	0.537	
123	   O	2162.508	662.288	-2239.983	O.2	9	GLU9	-0.582	
124	  CB	2161.561	661.856	-2236.776	C.3	9	GLU9	0.056	
125	  CG	2162.944	662.548	-2236.547	C.3	9	GLU9	0.014	
126	  CD	2163.646	662.334	-2235.219	C.2	9	GLU9	0.805	
127	 OE1	2163.124	661.644	-2234.322	O.co2	9	GLU9	-0.819	
128	 OE2	2164.765	662.872	-2235.087	O.co2	9	GLU9	-0.819	
129	   H	2159.260	660.920	-2237.428	 H	9	GLU9	0.294	
130	  HA	2160.785	663.145	-2238.357	 H	9	GLU9	0.111	
131	 2HB	2161.673	660.771	-2236.572	 H	9	GLU9	-0.017	
132	 3HB	2160.864	662.210	-2235.991	 H	9	GLU9	-0.017	
133	 2HG	2162.872	663.638	-2236.687	 H	9	GLU9	-0.043	
134	 3HG	2163.690	662.202	-2237.281	 H	9	GLU9	-0.043	
135	   N	2161.940	660.259	-2239.426	N.am	10	HIS10	-0.416	
136	  CA	2162.828	659.747	-2240.466	C.3	10	HIS10	-0.058	
137	   C	2162.461	660.311	-2241.817	C.2	10	HIS10	0.597	
138	   O	2163.313	660.775	-2242.590	O.2	10	HIS10	-0.568	
139	  CB	2162.663	658.218	-2240.460	C.3	10	HIS10	-0.007	
140	  CG	2163.948	657.507	-2240.152	C.2	10	HIS10	0.187	
141	 CD2	2164.330	657.173	-2238.860	C.2	10	HIS10	-0.221	
142	 ND1	2164.900	657.101	-2241.085	N.2	10	HIS10	-0.543	
143	 CE1	2165.806	656.542	-2240.262	C.2	10	HIS10	0.163	
144	 NE2	2165.544	656.540	-2238.927	N.pl3	10	HIS10	-0.280	
145	   H	2161.410	659.624	-2238.847	 H	10	HIS10	0.272	
146	  HA	2163.847	660.104	-2240.242	 H	10	HIS10	0.136	
147	 2HB	2162.297	657.851	-2241.440	 H	10	HIS10	0.037	
148	 3HB	2161.907	657.882	-2239.720	 H	10	HIS10	0.037	
149	 2HD	2163.745	657.388	-2237.971	 H	10	HIS10	0.186	
150	 1HE	2166.697	656.121	-2240.709	 H	10	HIS10	0.144	
151	 2HE	2166.111	656.163	-2238.153	 H	10	HIS10	0.334	
152	   N	2161.223	660.311	-2242.180	N.am	11	VAL11	-0.416	
153	  CA	2160.868	660.856	-2243.487	C.3	11	VAL11	-0.087	
154	   C	2161.333	662.286	-2243.621	C.2	11	VAL11	0.597	
155	   O	2161.934	662.691	-2244.624	O.2	11	VAL11	-0.568	
156	  CB	2159.306	660.750	-2243.706	C.3	11	VAL11	0.299	
157	 CG1	2158.738	661.454	-2244.969	C.3	11	VAL11	-0.319	
158	 CG2	2158.781	659.296	-2243.778	C.3	11	VAL11	-0.319	
159	   H	2160.510	659.938	-2241.569	 H	11	VAL11	0.272	
160	  HA	2161.387	660.273	-2244.270	 H	11	VAL11	0.097	
161	  HB	2158.819	661.231	-2242.831	 H	11	VAL11	-0.030	
162	1HG1	2159.176	661.061	-2245.906	 H	11	VAL11	0.079	
163	2HG1	2157.639	661.347	-2245.051	 H	11	VAL11	0.079	
164	3HG1	2158.917	662.546	-2244.961	 H	11	VAL11	0.079	
165	1HG2	2159.071	658.709	-2242.887	 H	11	VAL11	0.079	
166	2HG2	2157.675	659.260	-2243.821	 H	11	VAL11	0.079	
167	3HG2	2159.163	658.755	-2244.665	 H	11	VAL11	0.079	
168	   N	2161.097	663.113	-2242.658	N.am	12	GLN12	-0.416	
169	  CA	2161.546	664.495	-2242.786	C.3	12	GLN12	-0.003	
170	   C	2163.036	664.562	-2243.025	C.2	12	GLN12	0.597	
171	   O	2163.523	665.269	-2243.904	O.2	12	GLN12	-0.568	
172	  CB	2161.156	665.264	-2241.504	C.3	12	GLN12	-0.004	
173	  CG	2161.517	666.785	-2241.474	C.3	12	GLN12	-0.064	
174	  CD	2161.215	667.600	-2240.209	C.2	12	GLN12	0.695	
175	 NE2	2160.648	667.024	-2239.180	N.pl3	12	GLN12	-0.941	
176	 OE1	2161.518	668.780	-2240.133	O.2	12	GLN12	-0.609	
177	   H	2160.608	662.807	-2241.829	 H	12	GLN12	0.272	
178	  HA	2161.046	664.951	-2243.662	 H	12	GLN12	0.085	
179	 2HB	2161.632	664.764	-2240.635	 H	12	GLN12	0.017	
180	 3HB	2160.065	665.157	-2241.341	 H	12	GLN12	0.017	
181	 2HG	2161.040	667.306	-2242.325	 H	12	GLN12	0.035	
182	 3HG	2162.600	666.927	-2241.640	 H	12	GLN12	0.035	
183	1HE2	2160.542	667.619	-2238.357	 H	12	GLN12	0.425	
184	2HE2	2160.484	666.021	-2239.283	 H	12	GLN12	0.425	
185	   N	2163.820	663.855	-2242.284	N.am	13	LYS13	-0.348	
186	  CA	2165.260	663.919	-2242.514	C.3	13	LYS13	-0.240	
187	   C	2165.598	663.546	-2243.938	C.2	13	LYS13	0.734	
188	   O	2166.374	664.223	-2244.628	O.2	13	LYS13	-0.589	
189	  CB	2165.986	662.984	-2241.509	C.3	13	LYS13	-0.009	
190	  CG	2167.531	663.038	-2241.621	C.3	13	LYS13	0.019	
191	  CD	2168.279	662.081	-2240.689	C.3	13	LYS13	-0.048	
192	  CE	2169.785	662.188	-2240.958	C.3	13	LYS13	-0.014	
193	  NZ	2170.520	661.401	-2239.951	N.4	13	LYS13	-0.385	
194	   H	2163.443	663.266	-2241.555	 H	13	LYS13	0.275	
195	  HA	2165.593	664.961	-2242.355	 H	13	LYS13	0.143	
196	 2HB	2165.635	661.941	-2241.649	 H	13	LYS13	0.036	
197	 3HB	2165.689	663.247	-2240.473	 H	13	LYS13	0.036	
198	 2HG	2167.879	664.077	-2241.454	 H	13	LYS13	0.010	
199	 3HG	2167.848	662.784	-2242.649	 H	13	LYS13	0.010	
200	 2HD	2167.932	661.041	-2240.862	 H	13	LYS13	0.062	
201	 3HD	2168.037	662.318	-2239.635	 H	13	LYS13	0.062	
202	 2HE	2170.125	663.244	-2240.922	 H	13	LYS13	0.113	
203	 3HE	2170.024	661.827	-2241.980	 H	13	LYS13	0.113	
204	 1HZ	2170.007	660.542	-2239.719	 H	13	LYS13	0.340	
205	 2HZ	2171.433	661.102	-2240.306	 H	13	LYS13	0.340	
206	 3HZ	2170.625	662.000	-2239.144	 H	13	LYS13	0.340	
207	   N	2165.061	662.492	-2244.453	N.am	14	VAL14	-0.416	
208	  CA	2165.387	662.132	-2245.830	C.3	14	VAL14	-0.087	
209	   C	2165.059	663.261	-2246.776	C.2	14	VAL14	0.597	
210	   O	2165.854	663.642	-2247.645	O.2	14	VAL14	-0.568	
211	  CB	2164.614	660.815	-2246.237	C.3	14	VAL14	0.299	
212	 CG1	2164.704	660.396	-2247.730	C.3	14	VAL14	-0.319	
213	 CG2	2165.044	659.563	-2245.436	C.3	14	VAL14	-0.319	
214	   H	2164.425	661.924	-2243.911	 H	14	VAL14	0.272	
215	  HA	2166.475	661.954	-2245.904	 H	14	VAL14	0.097	
216	  HB	2163.538	660.988	-2246.022	 H	14	VAL14	-0.030	
217	1HG1	2165.746	660.218	-2248.058	 H	14	VAL14	0.079	
218	2HG1	2164.131	659.473	-2247.943	 H	14	VAL14	0.079	
219	3HG1	2164.277	661.158	-2248.409	 H	14	VAL14	0.079	
220	1HG2	2164.956	659.722	-2244.345	 H	14	VAL14	0.079	
221	2HG2	2164.407	658.687	-2245.668	 H	14	VAL14	0.079	
222	3HG2	2166.092	659.272	-2245.640	 H	14	VAL14	0.079	
223	   N	2163.915	663.849	-2246.676	N.am	15	MET15	-0.416	
224	  CA	2163.596	664.941	-2247.590	C.3	15	MET15	-0.024	
225	   C	2164.627	666.040	-2247.502	C.2	15	MET15	0.597	
226	   O	2165.131	666.550	-2248.515	O.2	15	MET15	-0.568	
227	  CB	2162.175	665.489	-2247.282	C.3	15	MET15	0.034	
228	  CG	2161.012	664.491	-2247.474	C.3	15	MET15	0.002	
229	  SD	2159.439	665.359	-2247.362	S.3	15	MET15	-0.274	
230	  CE	2158.356	663.931	-2247.225	C.3	15	MET15	-0.054	
231	   H	2163.249	663.557	-2245.974	 H	15	MET15	0.272	
232	  HA	2163.622	664.554	-2248.625	 H	15	MET15	0.088	
233	 2HB	2161.974	666.367	-2247.925	 H	15	MET15	0.024	
234	 3HB	2162.140	665.881	-2246.246	 H	15	MET15	0.024	
235	 2HG	2161.054	663.706	-2246.697	 H	15	MET15	0.044	
236	 3HG	2161.075	663.976	-2248.450	 H	15	MET15	0.044	
237	 1HE	2158.500	663.242	-2248.077	 H	15	MET15	0.068	
238	 2HE	2158.564	663.378	-2246.292	 H	15	MET15	0.068	
239	 3HE	2157.299	664.247	-2247.210	 H	15	MET15	0.068	
240	   N	2164.996	666.461	-2246.339	N.am	16	ARG16	-0.348	
241	  CA	2165.993	667.524	-2246.255	C.3	16	ARG16	-0.264	
242	   C	2167.264	667.131	-2246.971	C.2	16	ARG16	0.734	
243	   O	2167.377	666.054	-2247.552	O.2	16	ARG16	-0.589	
244	  CB	2166.261	667.843	-2244.757	C.3	16	ARG16	-0.001	
245	  CG	2167.088	669.131	-2244.484	C.3	16	ARG16	0.039	
246	  CD	2167.336	669.351	-2242.983	C.3	16	ARG16	0.049	
247	  NE	2168.114	670.609	-2242.781	N.pl3	16	ARG16	-0.530	
248	  CZ	2168.505	671.092	-2241.606	C.cat	16	ARG16	0.808	
249	 NH1	2168.256	670.508	-2240.468	N.pl3	16	ARG16	-0.863	
250	 NH2	2169.169	672.204	-2241.588	N.pl3	16	ARG16	-0.863	
251	   H	2164.600	666.062	-2245.500	 H	16	ARG16	0.275	
252	  HA	2165.585	668.418	-2246.765	 H	16	ARG16	0.156	
253	 2HB	2166.758	666.967	-2244.290	 H	16	ARG16	0.033	
254	 3HB	2165.292	667.924	-2244.224	 H	16	ARG16	0.033	
255	 2HG	2166.558	670.002	-2244.922	 H	16	ARG16	0.029	
256	 3HG	2168.061	669.077	-2245.012	 H	16	ARG16	0.029	
257	 2HD	2167.885	668.476	-2242.569	 H	16	ARG16	0.069	
258	 3HD	2166.364	669.394	-2242.448	 H	16	ARG16	0.069	
259	  HE	2168.393	671.190	-2243.579	 H	16	ARG16	0.346	
260	1HH1	2167.729	669.635	-2240.552	 H	16	ARG16	0.448	
261	2HH1	2168.590	670.943	-2239.606	 H	16	ARG16	0.448	
262	1HH2	2169.356	672.646	-2242.490	 H	16	ARG16	0.448	
263	2HH2	2169.460	672.559	-2240.675	 H	16	ARG16	0.448	
@<TRIPOS>BOND
1 1 2 1
2 1 10 1
3 2 3 1
4 2 5 1
5 2 11 1
6 3 4 2
7 3 16 1
8 5 6 1
9 6 7 1
10 7 8 2
11 7 9 1
12 5 12 1
13 5 13 1
14 6 14 1
15 6 15 1
16 16 17 1
17 16 24 1
18 17 18 1
19 17 20 1
20 17 25 1
21 18 19 2
22 18 30 1
23 20 21 1
24 21 22 1
25 21 23 2
26 20 26 1
27 20 27 1
28 22 28 1
29 22 29 1
30 30 31 1
31 30 36 1
32 31 32 1
33 31 34 1
34 31 37 1
35 32 33 2
36 32 44 1
37 34 35 1
38 35 36 1
39 34 38 1
40 34 39 1
41 35 40 1
42 35 41 1
43 36 42 1
44 36 43 1
45 44 45 1
46 44 53 1
47 45 46 1
48 45 48 1
49 45 54 1
50 46 47 2
51 46 59 1
52 48 49 1
53 49 50 1
54 50 51 2
55 50 52 1
56 48 55 1
57 48 56 1
58 49 57 1
59 49 58 1
60 59 60 1
61 59 65 1
62 60 61 1
63 60 63 1
64 60 66 1
65 61 62 2
66 61 70 1
67 63 64 1
68 63 67 1
69 63 68 1
70 64 69 1
71 70 71 1
72 70 78 1
73 71 72 1
74 71 74 1
75 71 79 1
76 72 73 2
77 72 89 1
78 74 75 1
79 74 76 1
80 75 77 1
81 74 80 1
82 75 81 1
83 75 82 1
84 76 83 1
85 76 84 1
86 76 85 1
87 77 86 1
88 77 87 1
89 77 88 1
90 89 90 1
91 89 97 1
92 90 91 1
93 90 93 1
94 90 98 1
95 91 92 2
96 91 108 1
97 93 94 1
98 94 95 1
99 94 96 1
100 93 99 1
101 93 100 1
102 94 101 1
103 95 102 1
104 95 103 1
105 95 104 1
106 96 105 1
107 96 106 1
108 96 107 1
109 108 109 1
110 108 116 1
111 109 110 1
112 109 112 1
113 109 117 1
114 110 111 2
115 110 120 1
116 112 113 1
117 113 114 2
118 113 115 1
119 112 118 1
120 112 119 1
121 120 121 1
122 120 129 1
123 121 122 1
124 121 124 1
125 121 130 1
126 122 123 2
127 122 135 1
128 124 125 1
129 125 126 1
130 126 127 2
131 126 128 1
132 124 131 1
133 124 132 1
134 125 133 1
135 125 134 1
136 135 136 1
137 135 145 1
138 136 137 1
139 136 139 1
140 136 146 1
141 137 138 2
142 137 152 1
143 139 140 1
144 140 141 2
145 141 144 1
146 140 142 1
147 142 143 2
148 143 144 1
149 139 147 1
150 139 148 1
151 141 149 1
152 143 150 1
153 144 151 1
154 152 153 1
155 152 159 1
156 153 154 1
157 153 156 1
158 153 160 1
159 154 155 2
160 154 168 1
161 156 157 1
162 156 158 1
163 156 161 1
164 157 162 1
165 157 163 1
166 157 164 1
167 158 165 1
168 158 166 1
169 158 167 1
170 168 169 1
171 168 177 1
172 169 170 1
173 169 172 1
174 169 178 1
175 170 171 2
176 170 185 1
177 172 173 1
178 173 174 1
179 174 175 1
180 174 176 2
181 172 179 1
182 172 180 1
183 173 181 1
184 173 182 1
185 175 183 1
186 175 184 1
187 185 186 1
188 185 194 1
189 186 187 1
190 186 189 1
191 186 195 1
192 187 188 2
193 187 207 1
194 189 190 1
195 190 191 1
196 191 192 1
197 192 193 1
198 193 206 1
199 189 196 1
200 189 197 1
201 190 198 1
202 190 199 1
203 191 200 1
204 191 201 1
205 192 202 1
206 192 203 1
207 193 204 1
208 193 205 1
209 207 208 1
210 207 214 1
211 208 209 1
212 208 211 1
213 208 215 1
214 209 210 2
215 209 223 1
216 211 212 1
217 211 213 1
218 211 216 1
219 212 217 1
220 212 218 1
221 212 219 1
222 213 220 1
223 213 221 1
224 213 222 1
225 223 224 1
226 223 231 1
227 224 225 1
228 224 227 1
229 224 232 1
230 225 226 2
231 225 240 1
232 227 228 1
233 228 229 1
234 229 230 1
235 227 233 1
236 227 234 1
237 228 235 1
238 228 236 1
239 230 237 1
240 230 238 1
241 230 239 1
242 240 241 1
243 240 251 1
244 241 242 1
245 241 244 1
246 241 252 1
247 242 243 2
248 244 245 1
249 245 246 1
250 246 247 1
251 247 248 1
252 248 249 2
253 248 250 1
254 244 253 1
255 244 254 1
256 245 255 1
257 245 256 1
258 246 257 1
259 246 258 1
260 247 259 1
261 249 260 1
262 249 261 1
263 250 262 1
264 250 263 1
@<TRIPOS>SUBSTRUCTURE
1	GLU1	1	RESIDUE	1 ****	GLU
2	ASN2	16	RESIDUE	1 ****	ASN
3	PRO3	30	RESIDUE	1 ****	PRO
4	GLU4	44	RESIDUE	1 ****	GLU
5	SER5	59	RESIDUE	1 ****	SER
6	ILE6	70	RESIDUE	1 ****	ILE
7	LEU7	89	RESIDUE	1 ****	LEU
8	ASP8	108	RESIDUE	1 ****	ASP
9	GLU9	120	RESIDUE	1 ****	GLU
10	HIS10	135	RESIDUE	1 ****	HIS
11	VAL11	152	RESIDUE	1 ****	VAL
12	GLN12	168	RESIDUE	1 ****	GLN
13	LYS13	185	RESIDUE	1 ****	LYS
14	VAL14	207	RESIDUE	1 ****	VAL
15	MET15	223	RESIDUE	1 ****	MET
16	ARG16	240	RESIDUE	1 ****	ARG
