@<TRIPOS>MOLECULE
10-2
262 263 16              
SMALL
USER_CHARGES
@<TRIPOS>ATOM
1	   N	1525.811	450.997	-1546.198	N.3	1	GLU1	-0.516	
2	  CA	1526.370	452.346	-1546.198	C.3	1	GLU1	0.040	
3	   C	1527.879	452.306	-1546.198	C.2	1	GLU1	0.537	
4	   O	1528.555	453.005	-1546.966	O.2	1	GLU1	-0.582	
5	  CB	1525.847	453.131	-1544.961	C.3	1	GLU1	0.056	
6	  CG	1526.322	454.616	-1544.850	C.3	1	GLU1	0.014	
7	  CD	1525.898	455.420	-1543.635	C.2	1	GLU1	0.805	
8	 OE1	1525.170	454.918	-1542.757	O.co2	1	GLU1	-0.819	
9	 OE2	1526.328	456.590	-1543.563	O.co2	1	GLU1	-0.819	
10	   H	1526.438	450.118	-1546.198	 H	1	GLU1	0.294	
11	  HA	1526.044	452.864	-1547.118	 H	1	GLU1	0.111	
12	 2HB	1526.136	452.600	-1544.031	 H	1	GLU1	-0.017	
13	 3HB	1524.740	453.121	-1544.948	 H	1	GLU1	-0.017	
14	 2HG	1526.012	455.201	-1545.731	 H	1	GLU1	-0.043	
15	 3HG	1527.422	454.683	-1544.821	 H	1	GLU1	-0.043	
16	   N	1528.484	451.521	-1545.373	N.am	2	ASN2	-0.416	
17	  CA	1529.943	451.482	-1545.373	C.3	2	ASN2	0.014	
18	   C	1530.474	451.126	-1546.741	C.2	2	ASN2	0.597	
19	   O	1531.389	451.757	-1547.270	O.2	2	ASN2	-0.568	
20	  CB	1530.435	450.459	-1544.308	C.3	2	ASN2	-0.204	
21	  CG	1529.972	450.683	-1542.865	C.2	2	ASN2	0.713	
22	 ND2	1530.566	451.598	-1542.147	N.pl3	2	ASN2	-0.919	
23	 OD1	1529.051	450.049	-1542.371	O.2	2	ASN2	-0.593	
24	   H	1527.955	450.941	-1544.736	 H	2	ASN2	0.272	
25	  HA	1530.320	452.492	-1545.127	 H	2	ASN2	0.105	
26	 2HB	1531.539	450.400	-1544.312	 H	2	ASN2	0.080	
27	 3HB	1530.106	449.441	-1544.594	 H	2	ASN2	0.080	
28	1HD2	1530.086	451.771	-1541.260	 H	2	ASN2	0.420	
29	2HD2	1531.268	452.169	-1542.616	 H	2	ASN2	0.420	
30	   N	1529.953	450.131	-1547.375	N.am	3	PRO3	-0.255	
31	  CA	1530.404	449.722	-1548.697	C.3	3	PRO3	-0.027	
32	   C	1530.006	450.745	-1549.774	C.2	3	PRO3	0.590	
33	   O	1530.829	451.129	-1550.605	O.2	3	PRO3	-0.575	
34	  CB	1529.700	448.367	-1548.866	C.3	3	PRO3	-0.007	
35	  CG	1528.417	448.519	-1548.036	C.3	3	PRO3	0.019	
36	  CD	1528.875	449.338	-1546.826	C.3	3	PRO3	0.019	
37	  HA	1531.490	449.602	-1548.711	 H	3	PRO3	0.064	
38	 2HB	1530.323	447.586	-1548.425	 H	3	PRO3	0.025	
39	 3HB	1529.502	448.119	-1549.911	 H	3	PRO3	0.025	
40	 2HG	1527.990	447.557	-1547.745	 H	3	PRO3	0.021	
41	 3HG	1527.679	449.090	-1548.603	 H	3	PRO3	0.021	
42	 2HD	1529.264	448.689	-1546.039	 H	3	PRO3	0.039	
43	 3HD	1528.078	449.974	-1546.433	 H	3	PRO3	0.039	
44	   N	1528.801	451.205	-1549.806	N.am	4	GLU4	-0.516	
45	  CA	1528.442	452.176	-1550.836	C.3	4	GLU4	0.040	
46	   C	1529.340	453.388	-1550.774	C.2	4	GLU4	0.537	
47	   O	1529.867	453.867	-1551.789	O.2	4	GLU4	-0.582	
48	  CB	1526.953	452.595	-1550.665	C.3	4	GLU4	0.056	
49	  CG	1526.405	453.599	-1551.731	C.3	4	GLU4	0.014	
50	  CD	1524.978	454.095	-1551.587	C.2	4	GLU4	0.805	
51	 OE1	1524.252	453.697	-1550.656	O.co2	4	GLU4	-0.819	
52	 OE2	1524.588	454.925	-1552.435	O.co2	4	GLU4	-0.819	
53	   H	1528.117	450.899	-1549.129	 H	4	GLU4	0.294	
54	  HA	1528.573	451.706	-1551.827	 H	4	GLU4	0.111	
55	 2HB	1526.801	453.035	-1549.658	 H	4	GLU4	-0.017	
56	 3HB	1526.305	451.697	-1550.671	 H	4	GLU4	-0.017	
57	 2HG	1526.486	453.184	-1552.748	 H	4	GLU4	-0.043	
58	 3HG	1526.993	454.531	-1551.742	 H	4	GLU4	-0.043	
59	   N	1529.568	453.940	-1549.631	N.am	5	SER5	-0.416	
60	  CA	1530.437	455.112	-1549.573	C.3	5	SER5	-0.025	
61	   C	1531.796	454.806	-1550.159	C.2	5	SER5	0.597	
62	   O	1532.343	455.560	-1550.964	O.2	5	SER5	-0.568	
63	  CB	1530.549	455.644	-1548.122	C.3	5	SER5	0.212	
64	  OG	1531.281	454.764	-1547.261	O.3	5	SER5	-0.655	
65	   H	1529.151	453.569	-1548.790	 H	5	SER5	0.272	
66	  HA	1529.988	455.902	-1550.202	 H	5	SER5	0.084	
67	 2HB	1529.549	455.837	-1547.689	 H	5	SER5	0.035	
68	 3HB	1531.054	456.630	-1548.125	 H	5	SER5	0.035	
69	  HG	1530.792	453.939	-1547.211	 H	5	SER5	0.428	
70	   N	1532.401	453.723	-1549.805	N.am	6	ILE6	-0.416	
71	  CA	1533.714	453.429	-1550.371	C.3	6	ILE6	-0.060	
72	   C	1533.657	453.391	-1551.879	C.2	6	ILE6	0.597	
73	   O	1534.491	453.979	-1552.583	O.2	6	ILE6	-0.568	
74	  CB	1534.314	452.092	-1549.771	C.3	6	ILE6	0.130	
75	 CG1	1534.333	452.030	-1548.210	C.3	6	ILE6	-0.043	
76	 CG2	1535.755	451.791	-1550.287	C.3	6	ILE6	-0.320	
77	 CD1	1534.604	450.641	-1547.596	C.3	6	ILE6	-0.066	
78	   H	1531.973	453.089	-1549.146	 H	6	ILE6	0.272	
79	  HA	1534.388	454.263	-1550.103	 H	6	ILE6	0.087	
80	  HB	1533.656	451.266	-1550.115	 H	6	ILE6	0.019	
81	2HG1	1533.351	452.350	-1547.814	 H	6	ILE6	0.024	
82	3HG1	1535.049	452.772	-1547.806	 H	6	ILE6	0.024	
83	1HG2	1535.814	451.697	-1551.385	 H	6	ILE6	0.088	
84	2HG2	1536.477	452.573	-1549.985	 H	6	ILE6	0.088	
85	3HG2	1536.145	450.829	-1549.908	 H	6	ILE6	0.088	
86	1HD1	1533.875	449.887	-1547.950	 H	6	ILE6	0.019	
87	2HD1	1535.614	450.262	-1547.831	 H	6	ILE6	0.019	
88	3HD1	1534.527	450.671	-1546.493	 H	6	ILE6	0.019	
89	   N	1532.711	452.728	-1552.453	N.am	7	LEU7	-0.416	
90	  CA	1532.656	452.692	-1553.911	C.3	7	LEU7	-0.052	
91	   C	1532.583	454.087	-1554.483	C.2	7	LEU7	0.597	
92	   O	1533.304	454.450	-1555.425	O.2	7	LEU7	-0.568	
93	  CB	1531.453	451.832	-1554.391	C.3	7	LEU7	-0.110	
94	  CG	1531.380	450.352	-1553.925	C.3	7	LEU7	0.353	
95	 CD1	1530.190	449.646	-1554.591	C.3	7	LEU7	-0.412	
96	 CD2	1532.674	449.573	-1554.217	C.3	7	LEU7	-0.412	
97	   H	1532.019	452.241	-1551.901	 H	7	LEU7	0.272	
98	  HA	1533.598	452.252	-1554.286	 H	7	LEU7	0.092	
99	 2HB	1531.429	451.848	-1555.499	 H	7	LEU7	0.046	
100	 3HB	1530.513	452.334	-1554.087	 H	7	LEU7	0.046	
101	  HG	1531.210	450.344	-1552.828	 H	7	LEU7	-0.036	
102	1HD1	1529.233	450.156	-1554.368	 H	7	LEU7	0.100	
103	2HD1	1530.289	449.606	-1555.692	 H	7	LEU7	0.100	
104	3HD1	1530.083	448.605	-1554.235	 H	7	LEU7	0.100	
105	1HD2	1532.949	449.604	-1555.287	 H	7	LEU7	0.100	
106	2HD2	1533.527	449.985	-1553.646	 H	7	LEU7	0.100	
107	3HD2	1532.592	448.511	-1553.921	 H	7	LEU7	0.100	
108	   N	1531.746	454.928	-1553.977	N.am	8	ASP8	-0.516	
109	  CA	1531.676	456.278	-1554.530	C.3	8	ASP8	0.038	
110	   C	1533.022	456.957	-1554.472	C.2	8	ASP8	0.537	
111	   O	1533.495	457.563	-1555.447	O.2	8	ASP8	-0.582	
112	  CB	1530.597	457.116	-1553.788	C.3	8	ASP8	-0.030	
113	  CG	1530.378	458.537	-1554.328	C.2	8	ASP8	0.799	
114	 OD1	1530.442	458.737	-1555.558	O.co2	8	ASP8	-0.801	
115	 OD2	1530.186	459.463	-1553.512	O.co2	8	ASP8	-0.801	
116	   H	1531.148	454.657	-1553.209	 H	8	ASP8	0.294	
117	  HA	1531.393	456.200	-1555.597	 H	8	ASP8	0.088	
118	 2HB	1530.855	457.199	-1552.716	 H	8	ASP8	-0.012	
119	 3HB	1529.618	456.611	-1553.821	 H	8	ASP8	-0.012	
120	   N	1533.702	456.907	-1553.377	N.am	9	GLU9	-0.516	
121	  CA	1535.005	457.565	-1553.322	C.3	9	GLU9	0.040	
122	   C	1535.923	457.038	-1554.398	C.2	9	GLU9	0.537	
123	   O	1536.586	457.793	-1555.123	O.2	9	GLU9	-0.582	
124	  CB	1535.638	457.357	-1551.916	C.3	9	GLU9	0.056	
125	  CG	1537.021	458.049	-1551.687	C.3	9	GLU9	0.014	
126	  CD	1537.723	457.836	-1550.359	C.2	9	GLU9	0.805	
127	 OE1	1537.201	457.144	-1549.463	O.co2	9	GLU9	-0.819	
128	 OE2	1538.842	458.373	-1550.227	O.co2	9	GLU9	-0.819	
129	   H	1533.339	456.421	-1552.570	 H	9	GLU9	0.294	
130	  HA	1534.862	458.647	-1553.496	 H	9	GLU9	0.111	
131	 2HB	1535.751	456.272	-1551.714	 H	9	GLU9	-0.017	
132	 3HB	1534.941	457.710	-1551.132	 H	9	GLU9	-0.017	
133	 2HG	1536.949	459.140	-1551.826	 H	9	GLU9	-0.043	
134	 3HG	1537.768	457.704	-1552.421	 H	9	GLU9	-0.043	
135	   N	1536.019	455.763	-1554.568	N.am	10	PRO10	-0.255	
136	  CA	1536.880	455.172	-1555.582	C.3	10	PRO10	-0.027	
137	   C	1536.339	455.420	-1557.000	C.2	10	PRO10	0.590	
138	   O	1537.087	455.819	-1557.893	O.2	10	PRO10	-0.575	
139	  CB	1536.863	453.688	-1555.184	C.3	10	PRO10	-0.007	
140	  CG	1535.486	453.503	-1554.531	C.3	10	PRO10	0.019	
141	  CD	1535.280	454.813	-1553.766	C.3	10	PRO10	0.019	
142	  HA	1537.890	455.583	-1555.514	 H	10	PRO10	0.064	
143	 2HB	1537.642	453.511	-1554.439	 H	10	PRO10	0.025	
144	 3HB	1537.023	453.019	-1556.033	 H	10	PRO10	0.025	
145	 2HG	1535.447	452.631	-1553.873	 H	10	PRO10	0.021	
146	 3HG	1534.722	453.410	-1555.305	 H	10	PRO10	0.021	
147	 2HD	1535.721	454.757	-1552.768	 H	10	PRO10	0.039	
148	 3HD	1534.225	455.090	-1553.699	 H	10	PRO10	0.039	
149	   N	1535.092	455.210	-1557.256	N.am	11	VAL11	-0.416	
150	  CA	1534.596	455.452	-1558.608	C.3	11	VAL11	-0.087	
151	   C	1534.868	456.874	-1559.037	C.2	11	VAL11	0.597	
152	   O	1535.354	457.144	-1560.143	O.2	11	VAL11	-0.568	
153	  CB	1533.051	455.130	-1558.677	C.3	11	VAL11	0.299	
154	 CG1	1532.326	455.510	-1559.998	C.3	11	VAL11	-0.319	
155	 CG2	1532.710	453.639	-1558.440	C.3	11	VAL11	-0.319	
156	   H	1534.468	454.884	-1556.532	 H	11	VAL11	0.272	
157	  HA	1535.139	454.793	-1559.309	 H	11	VAL11	0.097	
158	  HB	1532.558	455.711	-1557.869	 H	11	VAL11	-0.030	
159	1HG1	1532.755	454.998	-1560.880	 H	11	VAL11	0.079	
160	2HG1	1531.246	455.266	-1559.970	 H	11	VAL11	0.079	
161	3HG1	1532.365	456.597	-1560.204	 H	11	VAL11	0.079	
162	1HG2	1533.122	453.270	-1557.483	 H	11	VAL11	0.079	
163	2HG2	1531.617	453.470	-1558.386	 H	11	VAL11	0.079	
164	3HG2	1533.104	452.985	-1559.240	 H	11	VAL11	0.079	
165	   N	1534.585	457.837	-1558.227	N.am	12	GLN12	-0.416	
166	  CA	1534.848	459.211	-1558.642	C.3	12	GLN12	-0.003	
167	   C	1536.301	459.399	-1559.007	C.2	12	GLN12	0.597	
168	   O	1536.644	459.975	-1560.037	O.2	12	GLN12	-0.568	
169	  CB	1534.439	460.161	-1557.494	C.3	12	GLN12	-0.004	
170	  CG	1534.606	461.692	-1557.772	C.3	12	GLN12	-0.064	
171	  CD	1534.277	462.693	-1556.658	C.2	12	GLN12	0.695	
172	 NE2	1533.847	462.265	-1555.498	N.pl3	12	GLN12	-0.941	
173	 OE1	1534.432	463.894	-1556.823	O.2	12	GLN12	-0.609	
174	   H	1534.188	457.642	-1557.319	 H	12	GLN12	0.272	
175	  HA	1534.245	459.432	-1559.542	 H	12	GLN12	0.085	
176	 2HB	1535.023	459.894	-1556.589	 H	12	GLN12	0.017	
177	 3HB	1533.382	459.965	-1557.227	 H	12	GLN12	0.017	
178	 2HG	1534.018	461.982	-1558.663	 H	12	GLN12	0.035	
179	 3HG	1535.651	461.920	-1558.048	 H	12	GLN12	0.035	
180	1HE2	1533.714	462.990	-1554.792	 H	12	GLN12	0.425	
181	2HE2	1533.806	461.248	-1555.402	 H	12	GLN12	0.425	
182	   N	1537.210	458.940	-1558.215	N.am	13	ARG13	-0.348	
183	  CA	1538.615	459.122	-1558.568	C.3	13	ARG13	-0.264	
184	   C	1538.912	458.524	-1559.923	C.2	13	ARG13	0.734	
185	   O	1539.550	459.134	-1560.779	O.2	13	ARG13	-0.589	
186	  CB	1539.498	458.482	-1557.460	C.3	13	ARG13	-0.001	
187	  CG	1541.014	458.821	-1557.533	C.3	13	ARG13	0.039	
188	  CD	1541.816	458.120	-1556.425	C.3	13	ARG13	0.049	
189	  NE	1543.256	458.498	-1556.532	N.pl3	13	ARG13	-0.530	
190	  CZ	1544.227	458.065	-1555.734	C.cat	13	ARG13	0.808	
191	 NH1	1544.032	457.237	-1554.746	N.pl3	13	ARG13	-0.863	
192	 NH2	1545.433	458.487	-1555.946	N.pl3	13	ARG13	-0.863	
193	   H	1536.954	458.463	-1557.362	 H	13	ARG13	0.275	
194	  HA	1538.814	460.209	-1558.632	 H	13	ARG13	0.156	
195	 2HB	1539.353	457.382	-1557.480	 H	13	ARG13	0.033	
196	 3HB	1539.114	458.791	-1556.466	 H	13	ARG13	0.033	
197	 2HG	1541.144	459.921	-1557.471	 H	13	ARG13	0.029	
198	 3HG	1541.422	458.527	-1558.522	 H	13	ARG13	0.029	
199	 2HD	1541.687	457.019	-1556.517	 H	13	ARG13	0.069	
200	 3HD	1541.404	458.403	-1555.432	 H	13	ARG13	0.069	
201	  HE	1543.579	459.144	-1557.260	 H	13	ARG13	0.346	
202	1HH1	1543.060	456.941	-1554.634	 H	13	ARG13	0.448	
203	2HH1	1544.831	456.951	-1554.177	 H	13	ARG13	0.448	
204	1HH2	1545.566	459.135	-1556.724	 H	13	ARG13	0.448	
205	2HH2	1546.164	458.144	-1555.320	 H	13	ARG13	0.448	
206	   N	1538.484	457.337	-1560.191	N.am	14	VAL14	-0.416	
207	  CA	1538.772	456.759	-1561.500	C.3	14	VAL14	-0.087	
208	   C	1538.248	457.642	-1562.608	C.2	14	VAL14	0.597	
209	   O	1538.936	457.936	-1563.594	O.2	14	VAL14	-0.568	
210	  CB	1538.149	455.310	-1561.595	C.3	14	VAL14	0.299	
211	 CG1	1538.203	454.625	-1562.988	C.3	14	VAL14	-0.319	
212	 CG2	1538.780	454.291	-1560.615	C.3	14	VAL14	-0.319	
213	   H	1537.958	456.815	-1559.504	 H	14	VAL14	0.272	
214	  HA	1539.867	456.695	-1561.629	 H	14	VAL14	0.097	
215	  HB	1537.074	455.397	-1561.328	 H	14	VAL14	-0.030	
216	1HG1	1539.238	454.507	-1563.362	 H	14	VAL14	0.079	
217	2HG1	1537.740	453.620	-1562.981	 H	14	VAL14	0.079	
218	3HG1	1537.643	455.190	-1563.758	 H	14	VAL14	0.079	
219	1HG2	1538.737	454.645	-1559.569	 H	14	VAL14	0.079	
220	2HG2	1538.247	453.321	-1560.631	 H	14	VAL14	0.079	
221	3HG2	1539.842	454.087	-1560.848	 H	14	VAL14	0.079	
222	   N	1537.047	458.104	-1562.523	N.am	15	MET15	-0.416	
223	  CA	1536.539	458.957	-1563.594	C.3	15	MET15	-0.024	
224	   C	1537.426	460.162	-1563.793	C.2	15	MET15	0.597	
225	   O	1537.802	460.522	-1564.919	O.2	15	MET15	-0.568	
226	  CB	1535.081	459.389	-1563.277	C.3	15	MET15	0.034	
227	  CG	1534.044	458.248	-1563.188	C.3	15	MET15	0.002	
228	  SD	1532.383	458.937	-1563.108	S.3	15	MET15	-0.274	
229	  CE	1531.500	457.448	-1562.624	C.3	15	MET15	-0.054	
230	   H	1536.465	457.878	-1561.729	 H	15	MET15	0.272	
231	  HA	1536.553	458.384	-1564.539	 H	15	MET15	0.088	
232	 2HB	1534.733	460.099	-1564.051	 H	15	MET15	0.024	
233	 3HB	1535.056	459.967	-1562.331	 H	15	MET15	0.024	
234	 2HG	1534.230	457.636	-1562.285	 H	15	MET15	0.044	
235	 3HG	1534.115	457.565	-1564.054	 H	15	MET15	0.044	
236	 1HE	1531.679	456.630	-1563.344	 H	15	MET15	0.068	
237	 2HE	1531.830	457.112	-1561.626	 H	15	MET15	0.068	
238	 3HE	1530.414	457.640	-1562.581	 H	15	MET15	0.068	
239	   N	1537.806	460.837	-1562.761	N.am	16	ARG16	-0.348	
240	  CA	1538.664	462.003	-1562.955	C.3	16	ARG16	-0.264	
241	   C	1539.930	461.625	-1563.687	C.2	16	ARG16	0.734	
242	   O	1540.145	460.477	-1564.068	O.2	16	ARG16	-0.589	
243	  CB	1538.977	462.631	-1561.567	C.3	16	ARG16	-0.001	
244	  CG	1539.648	464.033	-1561.603	C.3	16	ARG16	0.039	
245	  CD	1539.955	464.563	-1560.193	C.3	16	ARG16	0.049	
246	  NE	1540.577	465.916	-1560.290	N.pl3	16	ARG16	-0.530	
247	  CZ	1540.972	466.656	-1559.258	C.cat	16	ARG16	0.808	
248	 NH1	1540.866	466.277	-1558.015	N.pl3	16	ARG16	-0.863	
249	 NH2	1541.491	467.819	-1559.498	N.pl3	16	ARG16	-0.863	
250	   H	1537.513	460.564	-1561.834	 H	16	ARG16	0.275	
251	  HA	1538.117	462.729	-1563.585	 H	16	ARG16	0.156	
252	 2HB	1539.606	461.922	-1560.989	 H	16	ARG16	0.033	
253	 3HB	1538.038	462.703	-1560.981	 H	16	ARG16	0.033	
254	 2HG	1538.988	464.738	-1562.149	 H	16	ARG16	0.029	
255	 3HG	1540.589	463.989	-1562.190	 H	16	ARG16	0.029	
256	 2HD	1540.632	463.851	-1559.671	 H	16	ARG16	0.069	
257	 3HD	1539.017	464.598	-1559.598	 H	16	ARG16	0.069	
258	  HE	1540.734	466.361	-1561.200	 H	16	ARG16	0.346	
259	1HH1	1540.450	465.351	-1557.895	 H	16	ARG16	0.448	
260	2HH1	1541.192	466.905	-1557.279	 H	16	ARG16	0.448	
261	1HH2	1541.567	468.099	-1560.478	 H	16	ARG16	0.448	
262	2HH2	1541.786	468.373	-1558.692	 H	16	ARG16	0.448	
@<TRIPOS>BOND
1 1 2 1
2 1 10 1
3 2 3 1
4 2 5 1
5 2 11 1
6 3 4 2
7 3 16 1
8 5 6 1
9 6 7 1
10 7 8 2
11 7 9 1
12 5 12 1
13 5 13 1
14 6 14 1
15 6 15 1
16 16 17 1
17 16 24 1
18 17 18 1
19 17 20 1
20 17 25 1
21 18 19 2
22 18 30 1
23 20 21 1
24 21 22 1
25 21 23 2
26 20 26 1
27 20 27 1
28 22 28 1
29 22 29 1
30 30 31 1
31 30 36 1
32 31 32 1
33 31 34 1
34 31 37 1
35 32 33 2
36 32 44 1
37 34 35 1
38 35 36 1
39 34 38 1
40 34 39 1
41 35 40 1
42 35 41 1
43 36 42 1
44 36 43 1
45 44 45 1
46 44 53 1
47 45 46 1
48 45 48 1
49 45 54 1
50 46 47 2
51 46 59 1
52 48 49 1
53 49 50 1
54 50 51 2
55 50 52 1
56 48 55 1
57 48 56 1
58 49 57 1
59 49 58 1
60 59 60 1
61 59 65 1
62 60 61 1
63 60 63 1
64 60 66 1
65 61 62 2
66 61 70 1
67 63 64 1
68 63 67 1
69 63 68 1
70 64 69 1
71 70 71 1
72 70 78 1
73 71 72 1
74 71 74 1
75 71 79 1
76 72 73 2
77 72 89 1
78 74 75 1
79 74 76 1
80 75 77 1
81 74 80 1
82 75 81 1
83 75 82 1
84 76 83 1
85 76 84 1
86 76 85 1
87 77 86 1
88 77 87 1
89 77 88 1
90 89 90 1
91 89 97 1
92 90 91 1
93 90 93 1
94 90 98 1
95 91 92 2
96 91 108 1
97 93 94 1
98 94 95 1
99 94 96 1
100 93 99 1
101 93 100 1
102 94 101 1
103 95 102 1
104 95 103 1
105 95 104 1
106 96 105 1
107 96 106 1
108 96 107 1
109 108 109 1
110 108 116 1
111 109 110 1
112 109 112 1
113 109 117 1
114 110 111 2
115 110 120 1
116 112 113 1
117 113 114 2
118 113 115 1
119 112 118 1
120 112 119 1
121 120 121 1
122 120 129 1
123 121 122 1
124 121 124 1
125 121 130 1
126 122 123 2
127 122 135 1
128 124 125 1
129 125 126 1
130 126 127 2
131 126 128 1
132 124 131 1
133 124 132 1
134 125 133 1
135 125 134 1
136 135 136 1
137 135 141 1
138 136 137 1
139 136 139 1
140 136 142 1
141 137 138 2
142 137 149 1
143 139 140 1
144 140 141 1
145 139 143 1
146 139 144 1
147 140 145 1
148 140 146 1
149 141 147 1
150 141 148 1
151 149 150 1
152 149 156 1
153 150 151 1
154 150 153 1
155 150 157 1
156 151 152 2
157 151 165 1
158 153 154 1
159 153 155 1
160 153 158 1
161 154 159 1
162 154 160 1
163 154 161 1
164 155 162 1
165 155 163 1
166 155 164 1
167 165 166 1
168 165 174 1
169 166 167 1
170 166 169 1
171 166 175 1
172 167 168 2
173 167 182 1
174 169 170 1
175 170 171 1
176 171 172 1
177 171 173 2
178 169 176 1
179 169 177 1
180 170 178 1
181 170 179 1
182 172 180 1
183 172 181 1
184 182 183 1
185 182 193 1
186 183 184 1
187 183 186 1
188 183 194 1
189 184 185 2
190 184 206 1
191 186 187 1
192 187 188 1
193 188 189 1
194 189 190 1
195 190 191 2
196 190 192 1
197 186 195 1
198 186 196 1
199 187 197 1
200 187 198 1
201 188 199 1
202 188 200 1
203 189 201 1
204 191 202 1
205 191 203 1
206 192 204 1
207 192 205 1
208 206 207 1
209 206 213 1
210 207 208 1
211 207 210 1
212 207 214 1
213 208 209 2
214 208 222 1
215 210 211 1
216 210 212 1
217 210 215 1
218 211 216 1
219 211 217 1
220 211 218 1
221 212 219 1
222 212 220 1
223 212 221 1
224 222 223 1
225 222 230 1
226 223 224 1
227 223 226 1
228 223 231 1
229 224 225 2
230 224 239 1
231 226 227 1
232 227 228 1
233 228 229 1
234 226 232 1
235 226 233 1
236 227 234 1
237 227 235 1
238 229 236 1
239 229 237 1
240 229 238 1
241 239 240 1
242 239 250 1
243 240 241 1
244 240 243 1
245 240 251 1
246 241 242 2
247 243 244 1
248 244 245 1
249 245 246 1
250 246 247 1
251 247 248 2
252 247 249 1
253 243 252 1
254 243 253 1
255 244 254 1
256 244 255 1
257 245 256 1
258 245 257 1
259 246 258 1
260 248 259 1
261 248 260 1
262 249 261 1
263 249 262 1
@<TRIPOS>SUBSTRUCTURE
1	GLU1	1	RESIDUE	1 ****	GLU
2	ASN2	16	RESIDUE	1 ****	ASN
3	PRO3	30	RESIDUE	1 ****	PRO
4	GLU4	44	RESIDUE	1 ****	GLU
5	SER5	59	RESIDUE	1 ****	SER
6	ILE6	70	RESIDUE	1 ****	ILE
7	LEU7	89	RESIDUE	1 ****	LEU
8	ASP8	108	RESIDUE	1 ****	ASP
9	GLU9	120	RESIDUE	1 ****	GLU
10	PRO10	135	RESIDUE	1 ****	PRO
11	VAL11	149	RESIDUE	1 ****	VAL
12	GLN12	165	RESIDUE	1 ****	GLN
13	ARG13	182	RESIDUE	1 ****	ARG
14	VAL14	206	RESIDUE	1 ****	VAL
15	MET15	222	RESIDUE	1 ****	MET
16	ARG16	239	RESIDUE	1 ****	ARG
