REMARK WARNING: 32 MAX_TORS EXCEEDED!!!
REMARK  69 active torsions:
REMARK  status: ('A' for Active; 'I' for Inactive)
REMARK    1  A    between atoms: N_1  and  CA_2 
REMARK    2  A    between atoms: CA_2  and  C_3 
REMARK    3  A    between atoms: CA_2  and  CB_5 
REMARK       I    between atoms: C_3  and  N_11 
REMARK    4  A    between atoms: CB_5  and  CG_6 
REMARK    5  A    between atoms: CG_6  and  CD_7 
REMARK    6  A    between atoms: N_11  and  CA_12 
REMARK    7  A    between atoms: CA_12  and  C_13 
REMARK    8  A    between atoms: CA_12  and  CB_15 
REMARK       I    between atoms: C_13  and  N_22 
REMARK    9  A    between atoms: CB_15  and  CG_16 
REMARK       I    between atoms: CG_16  and  ND2_17 
REMARK   10  A    between atoms: CA_23  and  C_24 
REMARK       I    between atoms: C_24  and  N_29 
REMARK   11  A    between atoms: N_29  and  CA_30 
REMARK   12  A    between atoms: CA_30  and  C_31 
REMARK   13  A    between atoms: CA_30  and  CB_33 
REMARK       I    between atoms: C_31  and  N_39 
REMARK   14  A    between atoms: CB_33  and  CG_34 
REMARK   15  A    between atoms: CG_34  and  CD_35 
REMARK   16  A    between atoms: N_39  and  CA_40 
REMARK   17  A    between atoms: CA_40  and  C_41 
REMARK   18  A    between atoms: CA_40  and  CB_43 
REMARK       I    between atoms: C_41  and  N_47 
REMARK   19  A    between atoms: CB_43  and  OG_44 
REMARK   20  A    between atoms: N_47  and  CA_48 
REMARK   21  A    between atoms: CA_48  and  C_49 
REMARK   22  A    between atoms: CA_48  and  CB_51 
REMARK       I    between atoms: C_49  and  N_56 
REMARK   23  A    between atoms: CB_51  and  CG1_52 
REMARK   24  A    between atoms: N_56  and  CA_57 
REMARK   25  A    between atoms: CA_57  and  C_58 
REMARK   26  A    between atoms: CA_57  and  CB_60 
REMARK       I    between atoms: C_58  and  N_65 
REMARK   27  A    between atoms: CB_60  and  CG_61 
REMARK   28  A    between atoms: N_65  and  CA_66 
REMARK   29  A    between atoms: CA_66  and  C_67 
REMARK   30  A    between atoms: CA_66  and  CB_69 
REMARK       I    between atoms: C_67  and  N_74 
REMARK   31  A    between atoms: CB_69  and  CG_70 
REMARK   32  A    between atoms: CG_70  and  SD_71 
REMARK   33  A    between atoms: N_74  and  CA_75 
REMARK   34  A    between atoms: CA_75  and  C_76 
REMARK   35  A    between atoms: CA_75  and  CB_78 
REMARK       I    between atoms: C_76  and  N_84 
REMARK   36  A    between atoms: CB_78  and  CG_79 
REMARK   37  A    between atoms: CG_79  and  CD_80 
REMARK   38  A    between atoms: N_84  and  CA_85 
REMARK   39  A    between atoms: CA_85  and  C_86 
REMARK   40  A    between atoms: CA_85  and  CB_88 
REMARK       I    between atoms: C_86  and  N_96 
REMARK   41  A    between atoms: CB_88  and  CG_89 
REMARK   42  A    between atoms: N_96  and  CA_97 
REMARK   43  A    between atoms: CA_97  and  C_98 
REMARK   44  A    between atoms: CA_97  and  CB_100 
REMARK       I    between atoms: C_98  and  N_104 
REMARK   45  A    between atoms: N_104  and  CA_105 
REMARK   46  A    between atoms: CA_105  and  C_106 
REMARK   47  A    between atoms: CA_105  and  CB_108 
REMARK       I    between atoms: C_106  and  N_116 
REMARK   48  A    between atoms: CB_108  and  CG_109 
REMARK   49  A    between atoms: CG_109  and  CD_110 
REMARK       I    between atoms: CD_110  and  NE2_111 
REMARK   50  A    between atoms: N_116  and  CA_117 
REMARK   51  A    between atoms: CA_117  and  C_118 
REMARK   52  A    between atoms: CA_117  and  CB_120 
REMARK       I    between atoms: C_118  and  N_133 
REMARK   53  A    between atoms: CB_120  and  CG_121 
REMARK   54  A    between atoms: CG_121  and  CD_122 
REMARK   55  A    between atoms: CD_122  and  NE_123 
REMARK       I    between atoms: NE_123  and  CZ_124 
REMARK       I    between atoms: CZ_124  and  NH1_125 
REMARK       I    between atoms: CZ_124  and  NH2_126 
REMARK   56  A    between atoms: N_133  and  CA_134 
REMARK   57  A    between atoms: CA_134  and  C_135 
REMARK   58  A    between atoms: CA_134  and  CB_137 
REMARK       I    between atoms: C_135  and  N_141 
REMARK   59  A    between atoms: N_141  and  CA_142 
REMARK   60  A    between atoms: CA_142  and  C_143 
REMARK   61  A    between atoms: CA_142  and  CB_145 
REMARK       I    between atoms: C_143  and  N_150 
REMARK   62  A    between atoms: CB_145  and  CG_146 
REMARK   63  A    between atoms: CG_146  and  SD_147 
REMARK   64  A    between atoms: N_150  and  CA_151 
REMARK   65  A    between atoms: CA_151  and  C_152 
REMARK   66  A    between atoms: CA_151  and  CB_154 
REMARK   67  A    between atoms: CB_154  and  CG_155 
REMARK   68  A    between atoms: CG_155  and  CD_156 
REMARK   69  A    between atoms: CD_156  and  NE_157 
REMARK       I    between atoms: NE_157  and  CZ_158 
REMARK       I    between atoms: CZ_158  and  NH1_159 
ROOT
ATOM      1  C   GLU d   9    1233.119 357.580-1226.162  0.00  0.00     0.241 C 
ATOM      2  O   GLU d   9    1233.782 358.335-1226.887  0.00  0.00    -0.271 OA
ATOM      3  N   HIS d  10    1233.216 356.305-1226.332  0.00  0.00    -0.346 N 
ATOM      4  H   HIS d  10    1232.686 355.669-1225.754  0.00  0.00     0.163 HD
ENDROOT
BRANCH   1   5
ATOM      5  CA  GLU d   9    1232.201 358.106-1225.086  0.00  0.00     0.177 C 
BRANCH   5   6
ATOM      6  N   GLU d   9    1230.899 357.448-1225.140  0.00  0.00    -0.346 N 
ATOM      7  C   MET d   8    1230.218 357.498-1226.235  0.00  0.00     0.241 C 
ATOM      8  O   MET d   8    1230.690 358.103-1227.210  0.00  0.00    -0.271 OA
ATOM      9  H   GLU d   9    1230.536 356.961-1224.333  0.00  0.00     0.163 HD
BRANCH   7  10
ATOM     10  CA  MET d   8    1228.872 356.817-1226.292  0.00  0.00     0.177 C 
BRANCH  10  11
ATOM     11  N   MET d   8    1228.943 355.468-1225.740  0.00  0.00    -0.346 N 
ATOM     12  C   LEU d   7    1229.780 354.627-1226.246  0.00  0.00     0.241 C 
ATOM     13  O   LEU d   7    1230.501 354.990-1227.188  0.00  0.00    -0.271 OA
ATOM     14  H   MET d   8    1228.345 355.196-1224.972  0.00  0.00     0.163 HD
BRANCH  12  15
ATOM     15  CA  LEU d   7    1229.853 353.232-1225.674  0.00  0.00     0.177 C 
BRANCH  15  16
ATOM     16  N   LEU d   7    1229.908 353.267-1224.216  0.00  0.00    -0.346 N 
ATOM     17  C   ILE d   6    1230.854 353.931-1223.642  0.00  0.00     0.241 C 
ATOM     18  O   ILE d   6    1231.688 354.519-1224.346  0.00  0.00    -0.271 OA
ATOM     19  H   LEU d   7    1229.216 352.780-1223.664  0.00  0.00     0.163 HD
BRANCH  17  20
ATOM     20  CA  ILE d   6    1230.911 353.968-1222.134  0.00  0.00     0.180 C 
BRANCH  20  21
ATOM     21  N   ILE d   6    1229.598 354.263-1221.568  0.00  0.00    -0.346 N 
ATOM     22  C   SER d   5    1228.993 355.346-1221.922  0.00  0.00     0.243 C 
ATOM     23  O   SER d   5    1229.540 356.100-1222.727  0.00  0.00    -0.271 OA
ATOM     24  H   ILE d   6    1229.170 353.629-1220.909  0.00  0.00     0.163 HD
BRANCH  22  25
ATOM     25  CA  SER d   5    1227.634 355.651-1221.336  0.00  0.00     0.200 C 
BRANCH  25  26
ATOM     26  N   SER d   5    1226.765 354.480-1221.395  0.00  0.00    -0.344 N 
ATOM     27  C   GLU d   4    1226.537 353.927-1222.538  0.00  0.00     0.241 C 
ATOM     28  O   GLU d   4    1227.063 354.407-1223.552  0.00  0.00    -0.271 OA
ATOM     29  H   SER d   5    1226.348 354.108-1220.553  0.00  0.00     0.163 HD
BRANCH  27  30
ATOM     30  CA  GLU d   4    1225.638 352.716-1222.599  0.00  0.00     0.177 C 
BRANCH  30  31
ATOM     31  N   GLU d   4    1225.998 351.745-1221.569  0.00  0.00    -0.346 N 
ATOM     32  C   PRO d   3    1227.203 351.285-1221.537  0.00  0.00     0.241 C 
ATOM     33  O   PRO d   3    1228.026 351.668-1222.369  0.00  0.00    -0.271 OA
ATOM     34  H   GLU d   4    1225.314 351.438-1220.892  0.00  0.00     0.163 HD
BRANCH  32  35
ATOM     35  CA  PRO d   3    1227.601 350.262-1220.460  0.00  0.00     0.179 C 
ATOM     36  N   PRO d   3    1227.150 350.671-1219.139  0.00  0.00    -0.337 N 
ATOM     37  C   ASN d   2    1227.671 351.666-1218.505  0.00  0.00     0.243 C 
ATOM     38  CD  PRO d   3    1226.072 349.878-1218.589  0.00  0.00     0.127 C 
ATOM     39  O   ASN d   2    1228.586 352.296-1219.033  0.00  0.00    -0.271 OA
ATOM     40  CG  PRO d   3    1225.614 349.059-1219.799  0.00  0.00     0.022 C 
ATOM     41  CB  PRO d   3    1226.897 348.907-1220.629  0.00  0.00     0.037 C 
BRANCH  37  42
ATOM     42  CA  ASN d   2    1227.140 352.022-1217.136  0.00  0.00     0.185 C 
BRANCH  42  43
ATOM     43  N   ASN d   2    1225.681 352.060-1217.136  0.00  0.00    -0.346 N 
ATOM     44  C   GLU d   1    1225.076 352.846-1217.961  0.00  0.00     0.242 C 
ATOM     45  O   GLU d   1    1225.752 353.545-1218.729  0.00  0.00    -0.271 OA
ATOM     46  H   ASN d   2    1225.152 351.481-1216.499  0.00  0.00     0.163 HD
BRANCH  44  47
ATOM     47  CA  GLU d   1    1223.567 352.886-1217.961  0.00  0.00     0.191 C 
BRANCH  47  48
ATOM     48  N   GLU d   1    1223.008 351.537-1217.961  0.00  0.00    -0.326 NA
ATOM     49  H   GLU d   1    1223.635 350.658-1217.961  0.00  0.00     0.180 HD
ENDBRANCH  47  48
BRANCH  47  50
ATOM     50  CB  GLU d   1    1223.044 353.671-1216.724  0.00  0.00     0.047 C 
BRANCH  50  51
ATOM     51  CG  GLU d   1    1223.519 355.156-1216.613  0.00  0.00     0.116 C 
BRANCH  51  52
ATOM     52  CD  GLU d   1    1223.095 355.960-1215.398  0.00  0.00     0.172 C 
ATOM     53  OE1 GLU d   1    1222.367 355.458-1214.520  0.00  0.00    -0.648 OA
ATOM     54  OE2 GLU d   1    1223.525 357.130-1215.326  0.00  0.00    -0.648 OA
ENDBRANCH  51  52
ENDBRANCH  50  51
ENDBRANCH  47  50
ENDBRANCH  44  47
ENDBRANCH  42  43
BRANCH  42  55
ATOM     55  CB  ASN d   2    1227.632 350.999-1216.071  0.00  0.00     0.137 C 
BRANCH  55  56
ATOM     56  CG  ASN d   2    1227.169 351.222-1214.628  0.00  0.00     0.217 C 
ATOM     57  ND2 ASN d   2    1227.763 352.137-1213.910  0.00  0.00    -0.370 N 
ATOM     58 21HD ASN d   2    1227.282 352.310-1213.023  0.00  0.00     0.159 HD
ATOM     59 22HD ASN d   2    1228.465 352.709-1214.379  0.00  0.00     0.159 HD
ATOM     60  OD1 ASN d   2    1226.248 350.589-1214.134  0.00  0.00    -0.274 OA
ENDBRANCH  55  56
ENDBRANCH  42  55
ENDBRANCH  37  42
ENDBRANCH  32  35
ENDBRANCH  30  31
BRANCH  30  61
ATOM     61  CB  GLU d   4    1224.150 353.135-1222.428  0.00  0.00     0.045 C 
BRANCH  61  62
ATOM     62  CG  GLU d   4    1223.602 354.138-1223.494  0.00  0.00     0.116 C 
BRANCH  62  63
ATOM     63  CD  GLU d   4    1222.175 354.635-1223.350  0.00  0.00     0.172 C 
ATOM     64  OE1 GLU d   4    1221.449 354.237-1222.419  0.00  0.00    -0.648 OA
ATOM     65  OE2 GLU d   4    1221.785 355.464-1224.198  0.00  0.00    -0.648 OA
ENDBRANCH  62  63
ENDBRANCH  61  62
ENDBRANCH  30  61
ENDBRANCH  27  30
ENDBRANCH  25  26
BRANCH  25  66
ATOM     66  CB  SER d   5    1227.746 356.184-1219.885  0.00  0.00     0.199 C 
BRANCH  66  67
ATOM     67  OG  SER d   5    1228.478 355.304-1219.025  0.00  0.00    -0.398 OA
ATOM     68  HG  SER d   5    1227.989 354.479-1218.974  0.00  0.00     0.209 HD
ENDBRANCH  66  67
ENDBRANCH  25  66
ENDBRANCH  22  25
ENDBRANCH  20  21
BRANCH  20  69
ATOM     69  CB  ILE d   6    1231.511 352.632-1221.535  0.00  0.00     0.013 C 
ATOM     70  CG2 ILE d   6    1232.952 352.331-1222.050  0.00  0.00     0.012 C 
BRANCH  69  71
ATOM     71  CG1 ILE d   6    1231.530 352.570-1219.974  0.00  0.00     0.002 C 
ATOM     72  CD1 ILE d   6    1231.800 351.181-1219.359  0.00  0.00     0.005 C 
ENDBRANCH  69  71
ENDBRANCH  20  69
ENDBRANCH  17  20
ENDBRANCH  15  16
BRANCH  15  73
ATOM     73  CB  LEU d   7    1228.650 352.371-1226.155  0.00  0.00     0.038 C 
BRANCH  73  74
ATOM     74  CG  LEU d   7    1228.577 350.892-1225.688  0.00  0.00    -0.020 C 
ATOM     75  CD1 LEU d   7    1227.387 350.186-1226.354  0.00  0.00     0.009 C 
ATOM     76  CD2 LEU d   7    1229.870 350.113-1225.980  0.00  0.00     0.009 C 
ENDBRANCH  73  74
ENDBRANCH  15  73
ENDBRANCH  12  15
ENDBRANCH  10  11
BRANCH  10  77
ATOM     77  CB  MET d   8    1227.800 357.643-1225.529  0.00  0.00     0.045 C 
BRANCH  77  78
ATOM     78  CG  MET d   8    1226.350 357.123-1225.630  0.00  0.00     0.076 C 
BRANCH  78  79
ATOM     79  SD  MET d   8    1225.216 358.342-1224.945  0.00  0.00    -0.173 SA
ATOM     80  CE  MET d   8    1223.746 357.311-1224.847  0.00  0.00     0.089 C 
ENDBRANCH  78  79
ENDBRANCH  77  78
ENDBRANCH  10  77
ENDBRANCH   7  10
ENDBRANCH   5   6
BRANCH   5  81
ATOM     81  CB  GLU d   9    1232.836 357.899-1223.681  0.00  0.00     0.045 C 
BRANCH  81  82
ATOM     82  CG  GLU d   9    1234.218 358.592-1223.452  0.00  0.00     0.116 C 
BRANCH  82  83
ATOM     83  CD  GLU d   9    1234.921 358.378-1222.124  0.00  0.00     0.172 C 
ATOM     84  OE1 GLU d   9    1234.400 357.687-1221.228  0.00  0.00    -0.648 OA
ATOM     85  OE2 GLU d   9    1236.039 358.917-1221.992  0.00  0.00    -0.648 OA
ENDBRANCH  82  83
ENDBRANCH  81  82
ENDBRANCH   5  81
ENDBRANCH   1   5
BRANCH   3  86
ATOM     86  CA  HIS d  10    1234.104 355.794-1227.373  0.00  0.00     0.182 C 
BRANCH  86  87
ATOM     87  C   HIS d  10    1233.736 356.360-1228.724  0.00  0.00     0.241 C 
ATOM     88  O   HIS d  10    1234.588 356.825-1229.496  0.00  0.00    -0.271 OA
ATOM     89  N   VAL d  11    1232.498 356.358-1229.086  0.00  0.00    -0.346 N 
ATOM     90  H   VAL d  11    1231.786 355.984-1228.476  0.00  0.00     0.163 HD
BRANCH  89  91
ATOM     91  CA  VAL d  11    1232.142 356.905-1230.393  0.00  0.00     0.180 C 
BRANCH  91  92
ATOM     92  C   VAL d  11    1232.606 358.336-1230.524  0.00  0.00     0.241 C 
ATOM     93  O   VAL d  11    1233.206 358.742-1231.527  0.00  0.00    -0.271 OA
ATOM     94  N   GLN d  12    1232.369 359.161-1229.561  0.00  0.00    -0.346 N 
ATOM     95  H   GLN d  12    1231.880 358.854-1228.732  0.00  0.00     0.163 HD
BRANCH  94  96
ATOM     96  CA  GLN d  12    1232.816 360.544-1229.688  0.00  0.00     0.177 C 
BRANCH  96  97
ATOM     97  C   GLN d  12    1234.306 360.613-1229.926  0.00  0.00     0.241 C 
ATOM     98  O   GLN d  12    1234.792 361.322-1230.804  0.00  0.00    -0.271 OA
ATOM     99  N   ARG d  13    1235.091 359.906-1229.186  0.00  0.00    -0.346 N 
ATOM    100  H   ARG d  13    1234.716 359.315-1228.458  0.00  0.00     0.163 HD
BRANCH  99 101
ATOM    101  CA  ARG d  13    1236.531 359.973-1229.417  0.00  0.00     0.176 C 
BRANCH 101 102
ATOM    102  C   ARG d  13    1236.867 359.603-1230.843  0.00  0.00     0.241 C 
ATOM    103  O   ARG d  13    1237.635 360.275-1231.526  0.00  0.00    -0.271 OA
ATOM    104  N   VAL d  14    1236.332 358.548-1231.357  0.00  0.00    -0.346 N 
ATOM    105  H   VAL d  14    1235.697 357.979-1230.816  0.00  0.00     0.163 HD
BRANCH 104 106
ATOM    106  CA  VAL d  14    1236.656 358.190-1232.735  0.00  0.00     0.180 C 
BRANCH 106 107
ATOM    107  C   VAL d  14    1236.325 359.320-1233.680  0.00  0.00     0.241 C 
ATOM    108  O   VAL d  14    1237.118 359.703-1234.550  0.00  0.00    -0.271 OA
ATOM    109  N   MET d  15    1235.180 359.905-1233.578  0.00  0.00    -0.346 N 
ATOM    110  H   MET d  15    1234.515 359.611-1232.876  0.00  0.00     0.163 HD
BRANCH 109 111
ATOM    111  CA  MET d  15    1234.859 360.998-1234.491  0.00  0.00     0.177 C 
BRANCH 111 112
ATOM    112  C   MET d  15    1235.888 362.099-1234.403  0.00  0.00     0.241 C 
ATOM    113  O   MET d  15    1236.391 362.610-1235.415  0.00  0.00    -0.271 OA
ATOM    114  N   ARG d  16    1236.257 362.519-1233.240  0.00  0.00    -0.347 N 
ATOM    115  H   ARG d  16    1235.862 362.119-1232.401  0.00  0.00     0.163 HD
BRANCH 114 116
ATOM    116  CA  ARG d  16    1237.253 363.584-1233.156  0.00  0.00     0.162 C 
BRANCH 116 117
ATOM    117  C   ARG d  16    1238.523 363.192-1233.872  0.00  0.00     0.219 C 
ATOM    118  O   ARG d  16    1238.638 362.116-1234.455  0.00  0.00    -0.287 OA
ENDBRANCH 116 117
BRANCH 116 119
ATOM    119  CB  ARG d  16    1237.522 363.901-1231.657  0.00  0.00     0.035 C 
BRANCH 119 120
ATOM    120  CG  ARG d  16    1238.346 365.190-1231.384  0.00  0.00     0.023 C 
BRANCH 120 121
ATOM    121  CD  ARG d  16    1238.596 365.409-1229.883  0.00  0.00     0.138 C 
BRANCH 121 122
ATOM    122  NE  ARG d  16    1239.371 366.668-1229.681  0.00  0.00    -0.227 N 
ATOM    123  CZ  ARG d  16    1239.762 367.150-1228.505  0.00  0.00     0.665 C 
ATOM    124  NH1 ARG d  16    1239.515 366.565-1227.367  0.00  0.00    -0.235 N 
ATOM    125  NH2 ARG d  16    1240.426 368.263-1228.486  0.00  0.00    -0.235 N 
ATOM    126 11HH ARG d  16    1238.990 365.692-1227.452  0.00  0.00     0.174 HD
ATOM    127 12HH ARG d  16    1239.849 367.000-1226.505  0.00  0.00     0.174 HD
ATOM    128 21HH ARG d  16    1240.611 368.707-1229.388  0.00  0.00     0.174 HD
ATOM    129 22HH ARG d  16    1240.716 368.618-1227.573  0.00  0.00     0.174 HD
ATOM    130  HE  ARG d  16    1239.649 367.250-1230.478  0.00  0.00     0.177 HD
ENDBRANCH 121 122
ENDBRANCH 120 121
ENDBRANCH 119 120
ENDBRANCH 116 119
ENDBRANCH 114 116
ENDBRANCH 111 112
BRANCH 111 131
ATOM    131  CB  MET d  15    1233.437 361.543-1234.181  0.00  0.00     0.045 C 
BRANCH 131 132
ATOM    132  CG  MET d  15    1232.276 360.544-1234.373  0.00  0.00     0.076 C 
BRANCH 132 133
ATOM    133  SD  MET d  15    1230.701 361.409-1234.258  0.00  0.00    -0.173 SA
ATOM    134  CE  MET d  15    1229.621 359.978-1234.122  0.00  0.00     0.089 C 
ENDBRANCH 132 133
ENDBRANCH 131 132
ENDBRANCH 111 131
ENDBRANCH 109 111
ENDBRANCH 106 107
BRANCH 106 135
ATOM    135  CB  VAL d  14    1235.885 356.872-1233.143  0.00  0.00     0.009 C 
ATOM    136  CG1 VAL d  14    1235.973 356.455-1234.636  0.00  0.00     0.012 C 
ATOM    137  CG2 VAL d  14    1236.318 355.620-1232.343  0.00  0.00     0.012 C 
ENDBRANCH 106 135
ENDBRANCH 104 106
ENDBRANCH 101 102
BRANCH 101 138
ATOM    138  CB  ARG d  13    1237.246 359.034-1228.404  0.00  0.00     0.036 C 
BRANCH 138 139
ATOM    139  CG  ARG d  13    1238.791 359.188-1228.323  0.00  0.00     0.023 C 
BRANCH 139 140
ATOM    140  CD  ARG d  13    1239.418 358.200-1227.326  0.00  0.00     0.138 C 
BRANCH 140 141
ATOM    141  NE  ARG d  13    1240.896 358.408-1227.276  0.00  0.00    -0.227 N 
ATOM    142  CZ  ARG d  13    1241.744 357.717-1226.522  0.00  0.00     0.665 C 
ATOM    143  NH1 ARG d  13    1241.380 356.751-1225.725  0.00  0.00    -0.235 N 
ATOM    144  NH2 ARG d  13    1243.004 358.017-1226.579  0.00  0.00    -0.235 N 
ATOM    145 11HH ARG d  13    1240.375 356.564-1225.728  0.00  0.00     0.174 HD
ATOM    146 12HH ARG d  13    1242.094 356.268-1225.177  0.00  0.00     0.174 HD
ATOM    147 21HH ARG d  13    1243.270 358.775-1227.209  0.00  0.00     0.174 HD
ATOM    148 22HH ARG d  13    1243.639 357.475-1225.991  0.00  0.00     0.174 HD
ATOM    149  HE  ARG d  13    1241.346 359.131-1227.847  0.00  0.00     0.177 HD
ENDBRANCH 140 141
ENDBRANCH 139 140
ENDBRANCH 138 139
ENDBRANCH 101 138
ENDBRANCH  99 101
ENDBRANCH  96  97
BRANCH  96 150
ATOM    150  CB  GLN d  12    1232.425 361.310-1228.404  0.00  0.00     0.044 C 
BRANCH 150 151
ATOM    151  CG  GLN d  12    1232.784 362.832-1228.372  0.00  0.00     0.105 C 
BRANCH 151 152
ATOM    152  CD  GLN d  12    1232.482 363.644-1227.106  0.00  0.00     0.215 C 
ATOM    153  NE2 GLN d  12    1231.915 363.067-1226.078  0.00  0.00    -0.370 N 
ATOM    154 21HE GLN d  12    1231.808 363.661-1225.254  0.00  0.00     0.159 HD
ATOM    155 22HE GLN d  12    1231.752 362.063-1226.182  0.00  0.00     0.159 HD
ATOM    156  OE1 GLN d  12    1232.783 364.826-1227.028  0.00  0.00    -0.274 OA
ENDBRANCH 151 152
ENDBRANCH 150 151
ENDBRANCH  96 150
ENDBRANCH  94  96
ENDBRANCH  91  92
BRANCH  91 157
ATOM    157  CB  VAL d  11    1230.581 356.797-1230.611  0.00  0.00     0.009 C 
ATOM    158  CG1 VAL d  11    1230.011 357.501-1231.874  0.00  0.00     0.012 C 
ATOM    159  CG2 VAL d  11    1230.057 355.343-1230.685  0.00  0.00     0.012 C 
ENDBRANCH  91 157
ENDBRANCH  89  91
ENDBRANCH  86  87
BRANCH  86 160
ATOM    160  CB  HIS d  10    1233.941 354.266-1227.369  0.00  0.00     0.095 C 
BRANCH 160 161
ATOM    161  CG  HIS d  10    1235.227 353.556-1227.062  0.00  0.00     0.053 A 
ATOM    162  CD2 HIS d  10    1235.609 353.220-1225.770  0.00  0.00     0.116 A 
ATOM    163  NE2 HIS d  10    1236.824 352.590-1225.837  0.00  0.00    -0.359 N 
ATOM    164  CE1 HIS d  10    1237.086 352.593-1227.172  0.00  0.00     0.207 A 
ATOM    165  2HE HIS d  10    1237.392 352.212-1225.064  0.00  0.00     0.166 HD
ATOM    166  ND1 HIS d  10    1236.179 353.151-1227.995  0.00  0.00    -0.247 NA
ENDBRANCH 160 161
ENDBRANCH  86 160
ENDBRANCH   3  86
TORSDOF 69
