REMARK WARNING: 32 MAX_TORS EXCEEDED!!!
REMARK  67 active torsions:
REMARK  status: ('A' for Active; 'I' for Inactive)
REMARK    1  A    between atoms: N_1  and  CA_2 
REMARK    2  A    between atoms: CA_2  and  C_3 
REMARK    3  A    between atoms: CA_2  and  CB_5 
REMARK       I    between atoms: C_3  and  N_11 
REMARK    4  A    between atoms: CB_5  and  CG_6 
REMARK    5  A    between atoms: CG_6  and  CD_7 
REMARK    6  A    between atoms: N_11  and  CA_12 
REMARK    7  A    between atoms: CA_12  and  C_13 
REMARK    8  A    between atoms: CA_12  and  CB_15 
REMARK       I    between atoms: C_13  and  N_22 
REMARK    9  A    between atoms: CB_15  and  CG_16 
REMARK       I    between atoms: CG_16  and  ND2_17 
REMARK   10  A    between atoms: CA_23  and  C_24 
REMARK       I    between atoms: C_24  and  N_29 
REMARK   11  A    between atoms: N_29  and  CA_30 
REMARK   12  A    between atoms: CA_30  and  C_31 
REMARK   13  A    between atoms: CA_30  and  CB_33 
REMARK       I    between atoms: C_31  and  N_39 
REMARK   14  A    between atoms: CB_33  and  CG_34 
REMARK   15  A    between atoms: CG_34  and  CD_35 
REMARK   16  A    between atoms: N_39  and  CA_40 
REMARK   17  A    between atoms: CA_40  and  C_41 
REMARK   18  A    between atoms: CA_40  and  CB_43 
REMARK       I    between atoms: C_41  and  N_47 
REMARK   19  A    between atoms: CB_43  and  OG_44 
REMARK   20  A    between atoms: N_47  and  CA_48 
REMARK   21  A    between atoms: CA_48  and  C_49 
REMARK   22  A    between atoms: CA_48  and  CB_51 
REMARK       I    between atoms: C_49  and  N_56 
REMARK   23  A    between atoms: CB_51  and  CG1_52 
REMARK   24  A    between atoms: N_56  and  CA_57 
REMARK   25  A    between atoms: CA_57  and  C_58 
REMARK   26  A    between atoms: CA_57  and  CB_60 
REMARK       I    between atoms: C_58  and  N_65 
REMARK   27  A    between atoms: CB_60  and  CG_61 
REMARK   28  A    between atoms: N_65  and  CA_66 
REMARK   29  A    between atoms: CA_66  and  C_67 
REMARK   30  A    between atoms: CA_66  and  CB_69 
REMARK       I    between atoms: C_67  and  N_74 
REMARK   31  A    between atoms: CB_69  and  CG_70 
REMARK   32  A    between atoms: N_74  and  CA_75 
REMARK   33  A    between atoms: CA_75  and  C_76 
REMARK   34  A    between atoms: CA_75  and  CB_78 
REMARK       I    between atoms: C_76  and  N_84 
REMARK   35  A    between atoms: CB_78  and  CG_79 
REMARK   36  A    between atoms: CG_79  and  CD_80 
REMARK   37  A    between atoms: N_84  and  CA_85 
REMARK   38  A    between atoms: CA_85  and  C_86 
REMARK   39  A    between atoms: CA_85  and  CB_88 
REMARK       I    between atoms: C_86  and  N_96 
REMARK   40  A    between atoms: CB_88  and  CG_89 
REMARK   41  A    between atoms: N_96  and  CA_97 
REMARK   42  A    between atoms: CA_97  and  C_98 
REMARK   43  A    between atoms: CA_97  and  CB_100 
REMARK       I    between atoms: C_98  and  N_104 
REMARK   44  A    between atoms: N_104  and  CA_105 
REMARK   45  A    between atoms: CA_105  and  C_106 
REMARK   46  A    between atoms: CA_105  and  CB_108 
REMARK       I    between atoms: C_106  and  N_116 
REMARK   47  A    between atoms: CB_108  and  CG_109 
REMARK   48  A    between atoms: CG_109  and  CD_110 
REMARK       I    between atoms: CD_110  and  NE2_111 
REMARK   49  A    between atoms: N_116  and  CA_117 
REMARK   50  A    between atoms: CA_117  and  C_118 
REMARK   51  A    between atoms: CA_117  and  CB_120 
REMARK       I    between atoms: C_118  and  N_133 
REMARK   52  A    between atoms: CB_120  and  CG_121 
REMARK   53  A    between atoms: CG_121  and  CD_122 
REMARK   54  A    between atoms: CD_122  and  NE_123 
REMARK       I    between atoms: NE_123  and  CZ_124 
REMARK       I    between atoms: CZ_124  and  NH1_125 
REMARK       I    between atoms: CZ_124  and  NH2_126 
REMARK   55  A    between atoms: N_133  and  CA_134 
REMARK   56  A    between atoms: CA_134  and  C_135 
REMARK   57  A    between atoms: CA_134  and  CB_137 
REMARK       I    between atoms: C_135  and  N_141 
REMARK   58  A    between atoms: N_141  and  CA_142 
REMARK   59  A    between atoms: CA_142  and  C_143 
REMARK   60  A    between atoms: CA_142  and  CB_145 
REMARK       I    between atoms: C_143  and  N_150 
REMARK   61  A    between atoms: CB_145  and  OG1_147 
REMARK   62  A    between atoms: N_150  and  CA_151 
REMARK   63  A    between atoms: CA_151  and  C_152 
REMARK   64  A    between atoms: CA_151  and  CB_154 
REMARK   65  A    between atoms: CB_154  and  CG_155 
REMARK   66  A    between atoms: CG_155  and  CD_156 
REMARK   67  A    between atoms: CD_156  and  NE_157 
REMARK       I    between atoms: NE_157  and  CZ_158 
REMARK       I    between atoms: CZ_158  and  NH1_159 
ROOT
ATOM      1  C   GLU d   9    2450.706 754.335-2550.424  0.00  0.00     0.241 C 
ATOM      2  O   GLU d   9    2451.370 755.089-2551.150  0.00  0.00    -0.271 OA
ATOM      3  N   HIS d  10    2450.802 753.060-2550.593  0.00  0.00    -0.346 N 
ATOM      4  H   HIS d  10    2450.271 752.425-2550.014  0.00  0.00     0.163 HD
ENDROOT
BRANCH   1   5
ATOM      5  CA  GLU d   9    2449.788 754.864-2549.348  0.00  0.00     0.177 C 
BRANCH   5   6
ATOM      6  N   GLU d   9    2448.485 754.207-2549.403  0.00  0.00    -0.346 N 
ATOM      7  C   ASP d   8    2447.805 754.256-2550.498  0.00  0.00     0.241 C 
ATOM      8  O   ASP d   8    2448.278 754.860-2551.473  0.00  0.00    -0.271 OA
ATOM      9  H   GLU d   9    2448.122 753.721-2548.595  0.00  0.00     0.163 HD
BRANCH   7  10
ATOM     10  CA  ASP d   8    2446.458 753.577-2550.554  0.00  0.00     0.186 C 
BRANCH  10  11
ATOM     11  N   ASP d   8    2446.528 752.228-2550.000  0.00  0.00    -0.346 N 
ATOM     12  C   LEU d   7    2447.365 751.386-2550.506  0.00  0.00     0.241 C 
ATOM     13  O   LEU d   7    2448.086 751.748-2551.449  0.00  0.00    -0.271 OA
ATOM     14  H   ASP d   8    2445.930 751.957-2549.233  0.00  0.00     0.163 HD
BRANCH  12  15
ATOM     15  CA  LEU d   7    2447.437 749.991-2549.933  0.00  0.00     0.177 C 
BRANCH  15  16
ATOM     16  N   LEU d   7    2447.492 750.027-2548.475  0.00  0.00    -0.346 N 
ATOM     17  C   ILE d   6    2448.438 750.691-2547.901  0.00  0.00     0.241 C 
ATOM     18  O   ILE d   6    2449.272 751.278-2548.605  0.00  0.00    -0.271 OA
ATOM     19  H   LEU d   7    2446.800 749.541-2547.924  0.00  0.00     0.163 HD
BRANCH  17  20
ATOM     20  CA  ILE d   6    2448.495 750.728-2546.394  0.00  0.00     0.180 C 
BRANCH  20  21
ATOM     21  N   ILE d   6    2447.182 751.024-2545.828  0.00  0.00    -0.346 N 
ATOM     22  C   SER d   5    2446.577 752.107-2546.182  0.00  0.00     0.243 C 
ATOM     23  O   SER d   5    2447.125 752.860-2546.987  0.00  0.00    -0.271 OA
ATOM     24  H   ILE d   6    2446.753 750.389-2545.169  0.00  0.00     0.163 HD
BRANCH  22  25
ATOM     25  CA  SER d   5    2445.219 752.413-2545.597  0.00  0.00     0.200 C 
BRANCH  25  26
ATOM     26  N   SER d   5    2444.349 751.242-2545.656  0.00  0.00    -0.344 N 
ATOM     27  C   GLU d   4    2444.122 750.689-2546.799  0.00  0.00     0.241 C 
ATOM     28  O   GLU d   4    2444.648 751.169-2547.813  0.00  0.00    -0.271 OA
ATOM     29  H   SER d   5    2443.931 750.870-2544.814  0.00  0.00     0.163 HD
BRANCH  27  30
ATOM     30  CA  GLU d   4    2443.222 749.479-2546.860  0.00  0.00     0.177 C 
BRANCH  30  31
ATOM     31  N   GLU d   4    2443.582 748.508-2545.831  0.00  0.00    -0.346 N 
ATOM     32  C   PRO d   3    2444.786 748.047-2545.798  0.00  0.00     0.241 C 
ATOM     33  O   PRO d   3    2445.610 748.430-2546.629  0.00  0.00    -0.271 OA
ATOM     34  H   GLU d   4    2442.897 748.201-2545.154  0.00  0.00     0.163 HD
BRANCH  32  35
ATOM     35  CA  PRO d   3    2445.184 747.024-2544.721  0.00  0.00     0.179 C 
ATOM     36  N   PRO d   3    2444.732 747.433-2543.399  0.00  0.00    -0.337 N 
ATOM     37  C   ASN d   2    2445.253 748.428-2542.765  0.00  0.00     0.243 C 
ATOM     38  CD  PRO d   3    2443.654 746.640-2542.851  0.00  0.00     0.127 C 
ATOM     39  O   ASN d   2    2446.168 749.058-2543.293  0.00  0.00    -0.271 OA
ATOM     40  CG  PRO d   3    2443.196 745.821-2544.061  0.00  0.00     0.022 C 
ATOM     41  CB  PRO d   3    2444.480 745.669-2544.890  0.00  0.00     0.037 C 
BRANCH  37  42
ATOM     42  CA  ASN d   2    2444.722 748.784-2541.396  0.00  0.00     0.185 C 
BRANCH  42  43
ATOM     43  N   ASN d   2    2443.263 748.822-2541.397  0.00  0.00    -0.346 N 
ATOM     44  C   GLU d   1    2442.658 749.608-2542.222  0.00  0.00     0.242 C 
ATOM     45  O   GLU d   1    2443.334 750.307-2542.990  0.00  0.00    -0.271 OA
ATOM     46  H   ASN d   2    2442.734 748.243-2540.760  0.00  0.00     0.163 HD
BRANCH  44  47
ATOM     47  CA  GLU d   1    2441.149 749.648-2542.222  0.00  0.00     0.191 C 
BRANCH  47  48
ATOM     48  N   GLU d   1    2440.590 748.299-2542.222  0.00  0.00    -0.326 NA
ATOM     49  H   GLU d   1    2441.217 747.420-2542.222  0.00  0.00     0.180 HD
ENDBRANCH  47  48
BRANCH  47  50
ATOM     50  CB  GLU d   1    2440.626 750.433-2540.985  0.00  0.00     0.047 C 
BRANCH  50  51
ATOM     51  CG  GLU d   1    2441.101 751.918-2540.874  0.00  0.00     0.116 C 
BRANCH  51  52
ATOM     52  CD  GLU d   1    2440.677 752.722-2539.659  0.00  0.00     0.172 C 
ATOM     53  OE1 GLU d   1    2439.949 752.220-2538.781  0.00  0.00    -0.648 OA
ATOM     54  OE2 GLU d   1    2441.107 753.892-2539.587  0.00  0.00    -0.648 OA
ENDBRANCH  51  52
ENDBRANCH  50  51
ENDBRANCH  47  50
ENDBRANCH  44  47
ENDBRANCH  42  43
BRANCH  42  55
ATOM     55  CB  ASN d   2    2445.214 747.760-2540.332  0.00  0.00     0.137 C 
BRANCH  55  56
ATOM     56  CG  ASN d   2    2444.750 747.984-2538.889  0.00  0.00     0.217 C 
ATOM     57  ND2 ASN d   2    2445.344 748.899-2538.170  0.00  0.00    -0.370 N 
ATOM     58 21HD ASN d   2    2444.863 749.073-2537.284  0.00  0.00     0.159 HD
ATOM     59 22HD ASN d   2    2446.046 749.471-2538.639  0.00  0.00     0.159 HD
ATOM     60  OD1 ASN d   2    2443.829 747.351-2538.395  0.00  0.00    -0.274 OA
ENDBRANCH  55  56
ENDBRANCH  42  55
ENDBRANCH  37  42
ENDBRANCH  32  35
ENDBRANCH  30  31
BRANCH  30  61
ATOM     61  CB  GLU d   4    2441.734 749.898-2546.691  0.00  0.00     0.045 C 
BRANCH  61  62
ATOM     62  CG  GLU d   4    2441.187 750.901-2547.756  0.00  0.00     0.116 C 
BRANCH  62  63
ATOM     63  CD  GLU d   4    2439.760 751.398-2547.613  0.00  0.00     0.172 C 
ATOM     64  OE1 GLU d   4    2439.033 751.000-2546.683  0.00  0.00    -0.648 OA
ATOM     65  OE2 GLU d   4    2439.371 752.228-2548.462  0.00  0.00    -0.648 OA
ENDBRANCH  62  63
ENDBRANCH  61  62
ENDBRANCH  30  61
ENDBRANCH  27  30
ENDBRANCH  25  26
BRANCH  25  66
ATOM     66  CB  SER d   5    2445.330 752.945-2544.146  0.00  0.00     0.199 C 
BRANCH  66  67
ATOM     67  OG  SER d   5    2446.061 752.065-2543.285  0.00  0.00    -0.398 OA
ATOM     68  HG  SER d   5    2445.572 751.241-2543.234  0.00  0.00     0.209 HD
ENDBRANCH  66  67
ENDBRANCH  25  66
ENDBRANCH  22  25
ENDBRANCH  20  21
BRANCH  20  69
ATOM     69  CB  ILE d   6    2449.094 749.392-2545.793  0.00  0.00     0.013 C 
ATOM     70  CG2 ILE d   6    2450.535 749.089-2546.308  0.00  0.00     0.012 C 
BRANCH  69  71
ATOM     71  CG1 ILE d   6    2449.113 749.329-2544.232  0.00  0.00     0.002 C 
ATOM     72  CD1 ILE d   6    2449.382 747.940-2543.617  0.00  0.00     0.005 C 
ENDBRANCH  69  71
ENDBRANCH  20  69
ENDBRANCH  17  20
ENDBRANCH  15  16
BRANCH  15  73
ATOM     73  CB  LEU d   7    2446.233 749.131-2550.414  0.00  0.00     0.038 C 
BRANCH  73  74
ATOM     74  CG  LEU d   7    2446.160 747.652-2549.947  0.00  0.00    -0.020 C 
ATOM     75  CD1 LEU d   7    2444.970 746.947-2550.613  0.00  0.00     0.009 C 
ATOM     76  CD2 LEU d   7    2447.454 746.872-2550.239  0.00  0.00     0.009 C 
ENDBRANCH  73  74
ENDBRANCH  15  73
ENDBRANCH  12  15
ENDBRANCH  10  11
BRANCH  10  77
ATOM     77  CB  ASP d   8    2445.380 754.417-2549.813  0.00  0.00     0.147 C 
BRANCH  77  78
ATOM     78  CG  ASP d   8    2445.162 755.838-2550.355  0.00  0.00     0.175 C 
ATOM     79  OD1 ASP d   8    2445.227 756.036-2551.586  0.00  0.00    -0.648 OA
ATOM     80  OD2 ASP d   8    2444.971 756.764-2549.540  0.00  0.00    -0.648 OA
ENDBRANCH  77  78
ENDBRANCH  10  77
ENDBRANCH   7  10
ENDBRANCH   5   6
BRANCH   5  81
ATOM     81  CB  GLU d   9    2450.422 754.656-2547.943  0.00  0.00     0.045 C 
BRANCH  81  82
ATOM     82  CG  GLU d   9    2451.805 755.348-2547.714  0.00  0.00     0.116 C 
BRANCH  82  83
ATOM     83  CD  GLU d   9    2452.507 755.135-2546.385  0.00  0.00     0.172 C 
ATOM     84  OE1 GLU d   9    2451.985 754.445-2545.489  0.00  0.00    -0.648 OA
ATOM     85  OE2 GLU d   9    2453.626 755.672-2546.254  0.00  0.00    -0.648 OA
ENDBRANCH  82  83
ENDBRANCH  81  82
ENDBRANCH   5  81
ENDBRANCH   1   5
BRANCH   3  86
ATOM     86  CA  HIS d  10    2451.689 752.547-2551.633  0.00  0.00     0.182 C 
BRANCH  86  87
ATOM     87  C   HIS d  10    2451.322 753.111-2552.984  0.00  0.00     0.241 C 
ATOM     88  O   HIS d  10    2452.175 753.575-2553.757  0.00  0.00    -0.271 OA
ATOM     89  N   VAL d  11    2450.084 753.111-2553.347  0.00  0.00    -0.346 N 
ATOM     90  H   VAL d  11    2449.371 752.739-2552.736  0.00  0.00     0.163 HD
BRANCH  89  91
ATOM     91  CA  VAL d  11    2449.729 753.656-2554.654  0.00  0.00     0.180 C 
BRANCH  91  92
ATOM     92  C   VAL d  11    2450.194 755.087-2554.788  0.00  0.00     0.241 C 
ATOM     93  O   VAL d  11    2450.795 755.491-2555.791  0.00  0.00    -0.271 OA
ATOM     94  N   GLN d  12    2449.958 755.913-2553.825  0.00  0.00    -0.346 N 
ATOM     95  H   GLN d  12    2449.469 755.607-2552.996  0.00  0.00     0.163 HD
BRANCH  94  96
ATOM     96  CA  GLN d  12    2450.407 757.296-2553.953  0.00  0.00     0.177 C 
BRANCH  96  97
ATOM     97  C   GLN d  12    2451.897 757.362-2554.192  0.00  0.00     0.241 C 
ATOM     98  O   GLN d  12    2452.384 758.070-2555.071  0.00  0.00    -0.271 OA
ATOM     99  N   ARG d  13    2452.682 756.655-2553.450  0.00  0.00    -0.346 N 
ATOM    100  H   ARG d  13    2452.305 756.066-2552.721  0.00  0.00     0.163 HD
BRANCH  99 101
ATOM    101  CA  ARG d  13    2454.122 756.720-2553.682  0.00  0.00     0.176 C 
BRANCH 101 102
ATOM    102  C   ARG d  13    2454.458 756.348-2555.106  0.00  0.00     0.241 C 
ATOM    103  O   ARG d  13    2455.226 757.019-2555.791  0.00  0.00    -0.271 OA
ATOM    104  N   VAL d  14    2453.921 755.293-2555.620  0.00  0.00    -0.346 N 
ATOM    105  H   VAL d  14    2453.286 754.725-2555.078  0.00  0.00     0.163 HD
BRANCH 104 106
ATOM    106  CA  VAL d  14    2454.245 754.933-2556.998  0.00  0.00     0.180 C 
BRANCH 106 107
ATOM    107  C   VAL d  14    2453.916 756.063-2557.944  0.00  0.00     0.241 C 
ATOM    108  O   VAL d  14    2454.708 756.444-2558.813  0.00  0.00    -0.271 OA
ATOM    109  N   THR d  15    2452.771 756.649-2557.842  0.00  0.00    -0.344 N 
ATOM    110  H   THR d  15    2452.106 756.357-2557.140  0.00  0.00     0.163 HD
BRANCH 109 111
ATOM    111  CA  THR d  15    2452.452 757.741-2558.756  0.00  0.00     0.205 C 
BRANCH 111 112
ATOM    112  C   THR d  15    2453.483 758.840-2558.668  0.00  0.00     0.243 C 
ATOM    113  O   THR d  15    2453.977 759.340-2559.659  0.00  0.00    -0.271 OA
ATOM    114  N   ARG d  16    2453.851 759.261-2557.506  0.00  0.00    -0.347 N 
ATOM    115  H   ARG d  16    2453.456 758.862-2556.667  0.00  0.00     0.163 HD
BRANCH 114 116
ATOM    116  CA  ARG d  16    2454.849 760.324-2557.422  0.00  0.00     0.162 C 
BRANCH 116 117
ATOM    117  C   ARG d  16    2456.120 759.930-2558.137  0.00  0.00     0.219 C 
ATOM    118  O   ARG d  16    2456.233 758.853-2558.718  0.00  0.00    -0.287 OA
ENDBRANCH 116 117
BRANCH 116 119
ATOM    119  CB  ARG d  16    2455.117 760.642-2555.923  0.00  0.00     0.035 C 
BRANCH 119 120
ATOM    120  CG  ARG d  16    2455.944 761.930-2555.650  0.00  0.00     0.023 C 
BRANCH 120 121
ATOM    121  CD  ARG d  16    2456.193 762.149-2554.148  0.00  0.00     0.138 C 
BRANCH 121 122
ATOM    122  NE  ARG d  16    2456.970 763.407-2553.947  0.00  0.00    -0.227 N 
ATOM    123  CZ  ARG d  16    2457.361 763.889-2552.771  0.00  0.00     0.665 C 
ATOM    124  NH1 ARG d  16    2457.112 763.305-2551.633  0.00  0.00    -0.235 N 
ATOM    125  NH2 ARG d  16    2458.026 765.001-2552.752  0.00  0.00    -0.235 N 
ATOM    126 11HH ARG d  16    2456.585 762.433-2551.718  0.00  0.00     0.174 HD
ATOM    127 12HH ARG d  16    2457.446 763.741-2550.772  0.00  0.00     0.174 HD
ATOM    128 21HH ARG d  16    2458.213 765.444-2553.654  0.00  0.00     0.174 HD
ATOM    129 22HH ARG d  16    2458.316 765.356-2551.840  0.00  0.00     0.174 HD
ATOM    130  HE  ARG d  16    2457.249 763.988-2554.744  0.00  0.00     0.177 HD
ENDBRANCH 121 122
ENDBRANCH 120 121
ENDBRANCH 119 120
ENDBRANCH 116 119
ENDBRANCH 114 116
ENDBRANCH 111 112
BRANCH 111 131
ATOM    131  CB  THR d  15    2451.019 758.302-2558.464  0.00  0.00     0.146 C 
ATOM    132  CG2 THR d  15    2450.548 759.473-2559.353  0.00  0.00     0.042 C 
BRANCH 131 133
ATOM    133  OG1 THR d  15    2450.038 757.291-2558.658  0.00  0.00    -0.393 OA
ATOM    134  1HG THR d  15    2449.199 757.679-2558.395  0.00  0.00     0.210 HD
ENDBRANCH 131 133
ENDBRANCH 111 131
ENDBRANCH 109 111
ENDBRANCH 106 107
BRANCH 106 135
ATOM    135  CB  VAL d  14    2453.472 753.616-2557.404  0.00  0.00     0.009 C 
ATOM    136  CG1 VAL d  14    2453.561 753.197-2558.897  0.00  0.00     0.012 C 
ATOM    137  CG2 VAL d  14    2453.904 752.364-2556.603  0.00  0.00     0.012 C 
ENDBRANCH 106 135
ENDBRANCH 104 106
ENDBRANCH 101 102
BRANCH 101 138
ATOM    138  CB  ARG d  13    2454.835 755.782-2552.667  0.00  0.00     0.036 C 
BRANCH 138 139
ATOM    139  CG  ARG d  13    2456.380 755.935-2552.587  0.00  0.00     0.023 C 
BRANCH 139 140
ATOM    140  CD  ARG d  13    2457.007 754.948-2551.589  0.00  0.00     0.138 C 
BRANCH 140 141
ATOM    141  NE  ARG d  13    2458.484 755.154-2551.539  0.00  0.00    -0.227 N 
ATOM    142  CZ  ARG d  13    2459.333 754.463-2550.783  0.00  0.00     0.665 C 
ATOM    143  NH1 ARG d  13    2458.968 753.500-2549.985  0.00  0.00    -0.235 N 
ATOM    144  NH2 ARG d  13    2460.592 754.762-2550.841  0.00  0.00    -0.235 N 
ATOM    145 11HH ARG d  13    2457.962 753.314-2549.988  0.00  0.00     0.174 HD
ATOM    146 12HH ARG d  13    2459.681 753.017-2549.436  0.00  0.00     0.174 HD
ATOM    147 21HH ARG d  13    2460.860 755.519-2551.472  0.00  0.00     0.174 HD
ATOM    148 22HH ARG d  13    2461.228 754.221-2550.252  0.00  0.00     0.174 HD
ATOM    149  HE  ARG d  13    2458.936 755.876-2552.110  0.00  0.00     0.177 HD
ENDBRANCH 140 141
ENDBRANCH 139 140
ENDBRANCH 138 139
ENDBRANCH 101 138
ENDBRANCH  99 101
ENDBRANCH  96  97
BRANCH  96 150
ATOM    150  CB  GLN d  12    2450.017 758.064-2552.671  0.00  0.00     0.044 C 
BRANCH 150 151
ATOM    151  CG  GLN d  12    2450.378 759.586-2552.641  0.00  0.00     0.105 C 
BRANCH 151 152
ATOM    152  CD  GLN d  12    2450.077 760.400-2551.376  0.00  0.00     0.215 C 
ATOM    153  NE2 GLN d  12    2449.510 759.824-2550.347  0.00  0.00    -0.370 N 
ATOM    154 21HE GLN d  12    2449.403 760.419-2549.524  0.00  0.00     0.159 HD
ATOM    155 22HE GLN d  12    2449.345 758.821-2550.450  0.00  0.00     0.159 HD
ATOM    156  OE1 GLN d  12    2450.379 761.581-2551.300  0.00  0.00    -0.274 OA
ENDBRANCH 151 152
ENDBRANCH 150 151
ENDBRANCH  96 150
ENDBRANCH  94  96
ENDBRANCH  91  92
BRANCH  91 157
ATOM    157  CB  VAL d  11    2448.168 753.550-2554.873  0.00  0.00     0.009 C 
ATOM    158  CG1 VAL d  11    2447.599 754.254-2556.136  0.00  0.00     0.012 C 
ATOM    159  CG2 VAL d  11    2447.643 752.097-2554.945  0.00  0.00     0.012 C 
ENDBRANCH  91 157
ENDBRANCH  89  91
ENDBRANCH  86  87
BRANCH  86 160
ATOM    160  CB  HIS d  10    2451.524 751.018-2551.627  0.00  0.00     0.095 C 
BRANCH 160 161
ATOM    161  CG  HIS d  10    2452.810 750.307-2551.319  0.00  0.00     0.053 A 
ATOM    162  CD2 HIS d  10    2453.191 749.973-2550.027  0.00  0.00     0.116 A 
ATOM    163  NE2 HIS d  10    2454.406 749.341-2550.094  0.00  0.00    -0.359 N 
ATOM    164  CE1 HIS d  10    2454.668 749.343-2551.429  0.00  0.00     0.207 A 
ATOM    165  2HE HIS d  10    2454.972 748.964-2549.320  0.00  0.00     0.166 HD
ATOM    166  ND1 HIS d  10    2453.761 749.901-2552.252  0.00  0.00    -0.247 NA
ENDBRANCH 160 161
ENDBRANCH  86 160
ENDBRANCH   3  86
TORSDOF 67
