REMARK WARNING: 32 MAX_TORS EXCEEDED!!!
REMARK  66 active torsions:
REMARK  status: ('A' for Active; 'I' for Inactive)
REMARK    1  A    between atoms: N_1  and  CA_2 
REMARK    2  A    between atoms: CA_2  and  C_3 
REMARK    3  A    between atoms: CA_2  and  CB_5 
REMARK       I    between atoms: C_3  and  N_11 
REMARK    4  A    between atoms: CB_5  and  CG_6 
REMARK    5  A    between atoms: CG_6  and  CD_7 
REMARK    6  A    between atoms: N_11  and  CA_12 
REMARK    7  A    between atoms: CA_12  and  C_13 
REMARK    8  A    between atoms: CA_12  and  CB_15 
REMARK       I    between atoms: C_13  and  N_22 
REMARK    9  A    between atoms: CB_15  and  CG_16 
REMARK       I    between atoms: CG_16  and  ND2_17 
REMARK   10  A    between atoms: CA_23  and  C_24 
REMARK       I    between atoms: C_24  and  N_29 
REMARK   11  A    between atoms: N_29  and  CA_30 
REMARK   12  A    between atoms: CA_30  and  C_31 
REMARK   13  A    between atoms: CA_30  and  CB_33 
REMARK       I    between atoms: C_31  and  N_39 
REMARK   14  A    between atoms: CB_33  and  CG_34 
REMARK   15  A    between atoms: CG_34  and  CD_35 
REMARK   16  A    between atoms: N_39  and  CA_40 
REMARK   17  A    between atoms: CA_40  and  C_41 
REMARK   18  A    between atoms: CA_40  and  CB_43 
REMARK       I    between atoms: C_41  and  N_47 
REMARK   19  A    between atoms: CB_43  and  OG_44 
REMARK   20  A    between atoms: N_47  and  CA_48 
REMARK   21  A    between atoms: CA_48  and  C_49 
REMARK   22  A    between atoms: CA_48  and  CB_51 
REMARK       I    between atoms: C_49  and  N_56 
REMARK   23  A    between atoms: CB_51  and  CG1_52 
REMARK   24  A    between atoms: N_56  and  CA_57 
REMARK   25  A    between atoms: CA_57  and  C_58 
REMARK   26  A    between atoms: CA_57  and  CB_60 
REMARK       I    between atoms: C_58  and  N_65 
REMARK   27  A    between atoms: CB_60  and  CG_61 
REMARK   28  A    between atoms: N_65  and  CA_66 
REMARK   29  A    between atoms: CA_66  and  C_67 
REMARK   30  A    between atoms: CA_66  and  CB_69 
REMARK       I    between atoms: C_67  and  N_74 
REMARK   31  A    between atoms: CB_69  and  CG_70 
REMARK   32  A    between atoms: N_74  and  CA_75 
REMARK   33  A    between atoms: CA_75  and  C_76 
REMARK   34  A    between atoms: CA_75  and  CB_78 
REMARK       I    between atoms: C_76  and  N_84 
REMARK   35  A    between atoms: CB_78  and  CG_79 
REMARK   36  A    between atoms: CG_79  and  CD_80 
REMARK   37  A    between atoms: N_84  and  CA_85 
REMARK   38  A    between atoms: CA_85  and  C_86 
REMARK   39  A    between atoms: CA_85  and  CB_88 
REMARK       I    between atoms: C_86  and  N_96 
REMARK   40  A    between atoms: CB_88  and  CG_89 
REMARK   41  A    between atoms: N_96  and  CA_97 
REMARK   42  A    between atoms: CA_97  and  C_98 
REMARK   43  A    between atoms: CA_97  and  CB_100 
REMARK       I    between atoms: C_98  and  N_104 
REMARK   44  A    between atoms: N_104  and  CA_105 
REMARK   45  A    between atoms: CA_105  and  C_106 
REMARK   46  A    between atoms: CA_105  and  CB_108 
REMARK       I    between atoms: C_106  and  N_116 
REMARK   47  A    between atoms: CB_108  and  CG_109 
REMARK   48  A    between atoms: CG_109  and  CD_110 
REMARK       I    between atoms: CD_110  and  NE2_111 
REMARK   49  A    between atoms: N_116  and  CA_117 
REMARK   50  A    between atoms: CA_117  and  C_118 
REMARK   51  A    between atoms: CA_117  and  CB_120 
REMARK       I    between atoms: C_118  and  N_125 
REMARK   52  A    between atoms: CB_120  and  CG_121 
REMARK   53  A    between atoms: N_125  and  CA_126 
REMARK   54  A    between atoms: CA_126  and  C_127 
REMARK   55  A    between atoms: CA_126  and  CB_129 
REMARK       I    between atoms: C_127  and  N_133 
REMARK   56  A    between atoms: N_133  and  CA_134 
REMARK   57  A    between atoms: CA_134  and  C_135 
REMARK   58  A    between atoms: CA_134  and  CB_137 
REMARK       I    between atoms: C_135  and  N_142 
REMARK   59  A    between atoms: CB_137  and  CG_138 
REMARK   60  A    between atoms: CG_138  and  SD_139 
REMARK   61  A    between atoms: N_142  and  CA_143 
REMARK   62  A    between atoms: CA_143  and  C_144 
REMARK   63  A    between atoms: CA_143  and  CB_146 
REMARK   64  A    between atoms: CB_146  and  CG_147 
REMARK   65  A    between atoms: CG_147  and  CD_148 
REMARK   66  A    between atoms: CD_148  and  NE_149 
REMARK       I    between atoms: NE_149  and  CZ_150 
REMARK       I    between atoms: CZ_150  and  NH1_151 
ROOT
ATOM      1  CA  GLU d   9    2066.104 630.081-2131.961  0.00  0.00     0.177 C 
ENDROOT
BRANCH   1   2
ATOM      2  N   GLU d   9    2064.801 629.424-2132.016  0.00  0.00    -0.346 N 
ATOM      3  C   ASP d   8    2064.121 629.473-2133.111  0.00  0.00     0.241 C 
ATOM      4  O   ASP d   8    2064.594 630.077-2134.086  0.00  0.00    -0.271 OA
ATOM      5  H   GLU d   9    2064.437 628.938-2131.208  0.00  0.00     0.163 HD
BRANCH   3   6
ATOM      6  CA  ASP d   8    2062.773 628.794-2133.167  0.00  0.00     0.186 C 
BRANCH   6   7
ATOM      7  N   ASP d   8    2062.843 627.445-2132.614  0.00  0.00    -0.346 N 
ATOM      8  C   LEU d   7    2063.680 626.604-2133.119  0.00  0.00     0.241 C 
ATOM      9  O   LEU d   7    2064.401 626.965-2134.062  0.00  0.00    -0.271 OA
ATOM     10  H   ASP d   8    2062.245 627.175-2131.846  0.00  0.00     0.163 HD
BRANCH   8  11
ATOM     11  CA  LEU d   7    2063.752 625.208-2132.546  0.00  0.00     0.177 C 
BRANCH  11  12
ATOM     12  N   LEU d   7    2063.807 625.245-2131.088  0.00  0.00    -0.346 N 
ATOM     13  C   ILE d   6    2064.753 625.908-2130.514  0.00  0.00     0.241 C 
ATOM     14  O   ILE d   6    2065.588 626.495-2131.218  0.00  0.00    -0.271 OA
ATOM     15  H   LEU d   7    2063.115 624.758-2130.537  0.00  0.00     0.163 HD
BRANCH  13  16
ATOM     16  CA  ILE d   6    2064.810 625.945-2129.007  0.00  0.00     0.180 C 
BRANCH  16  17
ATOM     17  N   ILE d   6    2063.497 626.241-2128.441  0.00  0.00    -0.346 N 
ATOM     18  C   SER d   5    2062.893 627.324-2128.795  0.00  0.00     0.243 C 
ATOM     19  O   SER d   5    2063.441 628.078-2129.600  0.00  0.00    -0.271 OA
ATOM     20  H   ILE d   6    2063.068 625.607-2127.782  0.00  0.00     0.163 HD
BRANCH  18  21
ATOM     21  CA  SER d   5    2061.534 627.630-2128.210  0.00  0.00     0.200 C 
BRANCH  21  22
ATOM     22  N   SER d   5    2060.664 626.459-2128.269  0.00  0.00    -0.344 N 
ATOM     23  C   GLU d   4    2060.437 625.906-2129.412  0.00  0.00     0.241 C 
ATOM     24  O   GLU d   4    2060.964 626.386-2130.426  0.00  0.00    -0.271 OA
ATOM     25  H   SER d   5    2060.247 626.088-2127.427  0.00  0.00     0.163 HD
BRANCH  23  26
ATOM     26  CA  GLU d   4    2059.538 624.696-2129.473  0.00  0.00     0.177 C 
BRANCH  26  27
ATOM     27  N   GLU d   4    2059.897 623.725-2128.444  0.00  0.00    -0.346 N 
ATOM     28  C   PRO d   3    2061.102 623.265-2128.411  0.00  0.00     0.241 C 
ATOM     29  O   PRO d   3    2061.925 623.648-2129.242  0.00  0.00    -0.271 OA
ATOM     30  H   GLU d   4    2059.212 623.418-2127.767  0.00  0.00     0.163 HD
BRANCH  28  31
ATOM     31  CA  PRO d   3    2061.500 622.241-2127.334  0.00  0.00     0.179 C 
ATOM     32  N   PRO d   3    2061.047 622.650-2126.012  0.00  0.00    -0.337 N 
ATOM     33  C   ASN d   2    2061.569 623.645-2125.378  0.00  0.00     0.243 C 
ATOM     34  CD  PRO d   3    2059.969 621.857-2125.464  0.00  0.00     0.127 C 
ATOM     35  O   ASN d   2    2062.484 624.275-2125.906  0.00  0.00    -0.271 OA
ATOM     36  CG  PRO d   3    2059.511 621.039-2126.674  0.00  0.00     0.022 C 
ATOM     37  CB  PRO d   3    2060.795 620.886-2127.503  0.00  0.00     0.037 C 
BRANCH  33  38
ATOM     38  CA  ASN d   2    2061.037 624.001-2124.010  0.00  0.00     0.185 C 
BRANCH  38  39
ATOM     39  N   ASN d   2    2059.578 624.040-2124.010  0.00  0.00    -0.346 N 
ATOM     40  C   GLU d   1    2058.974 624.826-2124.835  0.00  0.00     0.242 C 
ATOM     41  O   GLU d   1    2059.649 625.525-2125.604  0.00  0.00    -0.271 OA
ATOM     42  H   ASN d   2    2059.050 623.460-2123.373  0.00  0.00     0.163 HD
BRANCH  40  43
ATOM     43  CA  GLU d   1    2057.465 624.866-2124.835  0.00  0.00     0.191 C 
BRANCH  43  44
ATOM     44  N   GLU d   1    2056.906 623.517-2124.835  0.00  0.00    -0.326 NA
ATOM     45  H   GLU d   1    2057.532 622.638-2124.835  0.00  0.00     0.180 HD
ENDBRANCH  43  44
BRANCH  43  46
ATOM     46  CB  GLU d   1    2056.941 625.651-2123.598  0.00  0.00     0.047 C 
BRANCH  46  47
ATOM     47  CG  GLU d   1    2057.417 627.135-2123.487  0.00  0.00     0.116 C 
BRANCH  47  48
ATOM     48  CD  GLU d   1    2056.992 627.940-2122.272  0.00  0.00     0.172 C 
ATOM     49  OE1 GLU d   1    2056.264 627.438-2121.394  0.00  0.00    -0.648 OA
ATOM     50  OE2 GLU d   1    2057.423 629.109-2122.200  0.00  0.00    -0.648 OA
ENDBRANCH  47  48
ENDBRANCH  46  47
ENDBRANCH  43  46
ENDBRANCH  40  43
ENDBRANCH  38  39
BRANCH  38  51
ATOM     51  CB  ASN d   2    2061.529 622.978-2122.945  0.00  0.00     0.137 C 
BRANCH  51  52
ATOM     52  CG  ASN d   2    2061.066 623.202-2121.502  0.00  0.00     0.217 C 
ATOM     53  ND2 ASN d   2    2061.660 624.116-2120.783  0.00  0.00    -0.370 N 
ATOM     54 21HD ASN d   2    2061.179 624.290-2119.897  0.00  0.00     0.159 HD
ATOM     55 22HD ASN d   2    2062.362 624.688-2121.252  0.00  0.00     0.159 HD
ATOM     56  OD1 ASN d   2    2060.145 622.568-2121.008  0.00  0.00    -0.274 OA
ENDBRANCH  51  52
ENDBRANCH  38  51
ENDBRANCH  33  38
ENDBRANCH  28  31
ENDBRANCH  26  27
BRANCH  26  57
ATOM     57  CB  GLU d   4    2058.049 625.115-2129.304  0.00  0.00     0.045 C 
BRANCH  57  58
ATOM     58  CG  GLU d   4    2057.502 626.119-2130.369  0.00  0.00     0.116 C 
BRANCH  58  59
ATOM     59  CD  GLU d   4    2056.075 626.616-2130.226  0.00  0.00     0.172 C 
ATOM     60  OE1 GLU d   4    2055.349 626.217-2129.296  0.00  0.00    -0.648 OA
ATOM     61  OE2 GLU d   4    2055.687 627.445-2131.075  0.00  0.00    -0.648 OA
ENDBRANCH  58  59
ENDBRANCH  57  58
ENDBRANCH  26  57
ENDBRANCH  23  26
ENDBRANCH  21  22
BRANCH  21  62
ATOM     62  CB  SER d   5    2061.645 628.162-2126.759  0.00  0.00     0.199 C 
BRANCH  62  63
ATOM     63  OG  SER d   5    2062.376 627.283-2125.898  0.00  0.00    -0.398 OA
ATOM     64  HG  SER d   5    2061.887 626.458-2125.847  0.00  0.00     0.209 HD
ENDBRANCH  62  63
ENDBRANCH  21  62
ENDBRANCH  18  21
ENDBRANCH  16  17
BRANCH  16  65
ATOM     65  CB  ILE d   6    2065.409 624.609-2128.406  0.00  0.00     0.013 C 
ATOM     66  CG2 ILE d   6    2066.851 624.307-2128.921  0.00  0.00     0.012 C 
BRANCH  65  67
ATOM     67  CG1 ILE d   6    2065.428 624.547-2126.845  0.00  0.00     0.002 C 
ATOM     68  CD1 ILE d   6    2065.698 623.157-2126.230  0.00  0.00     0.005 C 
ENDBRANCH  65  67
ENDBRANCH  16  65
ENDBRANCH  13  16
ENDBRANCH  11  12
BRANCH  11  69
ATOM     69  CB  LEU d   7    2062.549 624.349-2133.027  0.00  0.00     0.038 C 
BRANCH  69  70
ATOM     70  CG  LEU d   7    2062.476 622.869-2132.560  0.00  0.00    -0.020 C 
ATOM     71  CD1 LEU d   7    2061.286 622.164-2133.226  0.00  0.00     0.009 C 
ATOM     72  CD2 LEU d   7    2063.769 622.090-2132.852  0.00  0.00     0.009 C 
ENDBRANCH  69  70
ENDBRANCH  11  69
ENDBRANCH   8  11
ENDBRANCH   6   7
BRANCH   6  73
ATOM     73  CB  ASP d   8    2061.696 629.634-2132.427  0.00  0.00     0.147 C 
BRANCH  73  74
ATOM     74  CG  ASP d   8    2061.478 631.055-2132.968  0.00  0.00     0.175 C 
ATOM     75  OD1 ASP d   8    2061.542 631.253-2134.199  0.00  0.00    -0.648 OA
ATOM     76  OD2 ASP d   8    2061.286 631.981-2132.153  0.00  0.00    -0.648 OA
ENDBRANCH  73  74
ENDBRANCH   6  73
ENDBRANCH   3   6
ENDBRANCH   1   2
BRANCH   1  77
ATOM     77  C   GLU d   9    2067.021 629.552-2133.037  0.00  0.00     0.241 C 
ATOM     78  O   GLU d   9    2067.685 630.306-2133.763  0.00  0.00    -0.271 OA
ATOM     79  N   HIS d  10    2067.117 628.277-2133.206  0.00  0.00    -0.346 N 
ATOM     80  H   HIS d  10    2066.586 627.642-2132.627  0.00  0.00     0.163 HD
BRANCH  79  81
ATOM     81  CA  HIS d  10    2068.004 627.764-2134.246  0.00  0.00     0.182 C 
BRANCH  81  82
ATOM     82  C   HIS d  10    2067.637 628.329-2135.597  0.00  0.00     0.241 C 
ATOM     83  O   HIS d  10    2068.490 628.793-2136.370  0.00  0.00    -0.271 OA
ATOM     84  N   VAL d  11    2066.400 628.328-2135.960  0.00  0.00    -0.346 N 
ATOM     85  H   VAL d  11    2065.687 627.956-2135.349  0.00  0.00     0.163 HD
BRANCH  84  86
ATOM     86  CA  VAL d  11    2066.044 628.874-2137.267  0.00  0.00     0.180 C 
BRANCH  86  87
ATOM     87  C   VAL d  11    2066.510 630.304-2137.401  0.00  0.00     0.241 C 
ATOM     88  O   VAL d  11    2067.111 630.708-2138.404  0.00  0.00    -0.271 OA
ATOM     89  N   GLN d  12    2066.273 631.130-2136.438  0.00  0.00    -0.346 N 
ATOM     90  H   GLN d  12    2065.785 630.825-2135.609  0.00  0.00     0.163 HD
BRANCH  89  91
ATOM     91  CA  GLN d  12    2066.723 632.513-2136.566  0.00  0.00     0.177 C 
BRANCH  91  92
ATOM     92  C   GLN d  12    2068.212 632.579-2136.805  0.00  0.00     0.241 C 
ATOM     93  O   GLN d  12    2068.700 633.287-2137.684  0.00  0.00    -0.271 OA
ATOM     94  N   LEU d  13    2068.997 631.872-2136.064  0.00  0.00    -0.346 N 
ATOM     95  H   LEU d  13    2068.621 631.283-2135.335  0.00  0.00     0.163 HD
BRANCH  94  96
ATOM     96  CA  LEU d  13    2070.437 631.937-2136.295  0.00  0.00     0.177 C 
BRANCH  96  97
ATOM     97  C   LEU d  13    2070.772 631.565-2137.720  0.00  0.00     0.241 C 
ATOM     98  O   LEU d  13    2071.548 632.242-2138.411  0.00  0.00    -0.271 OA
ATOM     99  N   VAL d  14    2070.235 630.511-2138.233  0.00  0.00    -0.346 N 
ATOM    100  H   VAL d  14    2069.600 629.943-2137.690  0.00  0.00     0.163 HD
BRANCH  99 101
ATOM    101  CA  VAL d  14    2070.559 630.150-2139.610  0.00  0.00     0.180 C 
BRANCH 101 102
ATOM    102  C   VAL d  14    2070.229 631.279-2140.557  0.00  0.00     0.241 C 
ATOM    103  O   VAL d  14    2071.022 631.659-2141.427  0.00  0.00    -0.271 OA
ATOM    104  N   MET d  15    2069.084 631.865-2140.455  0.00  0.00    -0.346 N 
ATOM    105  H   MET d  15    2068.420 631.573-2139.753  0.00  0.00     0.163 HD
BRANCH 104 106
ATOM    106  CA  MET d  15    2068.764 632.957-2141.370  0.00  0.00     0.177 C 
BRANCH 106 107
ATOM    107  C   MET d  15    2069.794 634.057-2141.284  0.00  0.00     0.241 C 
ATOM    108  O   MET d  15    2070.296 634.566-2142.298  0.00  0.00    -0.271 OA
ATOM    109  N   ARG d  16    2070.164 634.480-2140.123  0.00  0.00    -0.347 N 
ATOM    110  H   ARG d  16    2069.770 634.081-2139.282  0.00  0.00     0.163 HD
BRANCH 109 111
ATOM    111  CA  ARG d  16    2071.161 635.543-2140.041  0.00  0.00     0.162 C 
BRANCH 111 112
ATOM    112  C   ARG d  16    2072.431 635.149-2140.758  0.00  0.00     0.219 C 
ATOM    113  O   ARG d  16    2072.544 634.071-2141.338  0.00  0.00    -0.287 OA
ENDBRANCH 111 112
BRANCH 111 114
ATOM    114  CB  ARG d  16    2071.432 635.863-2138.544  0.00  0.00     0.035 C 
BRANCH 114 115
ATOM    115  CG  ARG d  16    2072.258 637.152-2138.273  0.00  0.00     0.023 C 
BRANCH 115 116
ATOM    116  CD  ARG d  16    2072.509 637.373-2136.773  0.00  0.00     0.138 C 
BRANCH 116 117
ATOM    117  NE  ARG d  16    2073.286 638.632-2136.574  0.00  0.00    -0.227 N 
ATOM    118  CZ  ARG d  16    2073.679 639.116-2135.400  0.00  0.00     0.665 C 
ATOM    119  NH1 ARG d  16    2073.432 638.533-2134.260  0.00  0.00    -0.235 N 
ATOM    120  NH2 ARG d  16    2074.343 640.228-2135.383  0.00  0.00    -0.235 N 
ATOM    121 11HH ARG d  16    2072.906 637.660-2134.343  0.00  0.00     0.174 HD
ATOM    122 12HH ARG d  16    2073.767 638.970-2133.400  0.00  0.00     0.174 HD
ATOM    123 21HH ARG d  16    2074.528 640.670-2136.286  0.00  0.00     0.174 HD
ATOM    124 22HH ARG d  16    2074.634 640.585-2134.472  0.00  0.00     0.174 HD
ATOM    125  HE  ARG d  16    2073.564 639.212-2137.372  0.00  0.00     0.177 HD
ENDBRANCH 116 117
ENDBRANCH 115 116
ENDBRANCH 114 115
ENDBRANCH 111 114
ENDBRANCH 109 111
ENDBRANCH 106 107
BRANCH 106 126
ATOM    126  CB  MET d  15    2067.343 633.504-2141.061  0.00  0.00     0.045 C 
BRANCH 126 127
ATOM    127  CG  MET d  15    2066.180 632.506-2141.250  0.00  0.00     0.076 C 
BRANCH 127 128
ATOM    128  SD  MET d  15    2064.607 633.372-2141.136  0.00  0.00    -0.173 SA
ATOM    129  CE  MET d  15    2063.525 631.943-2140.997  0.00  0.00     0.089 C 
ENDBRANCH 127 128
ENDBRANCH 126 127
ENDBRANCH 106 126
ENDBRANCH 104 106
ENDBRANCH 101 102
BRANCH 101 130
ATOM    130  CB  VAL d  14    2069.785 628.833-2140.016  0.00  0.00     0.009 C 
ATOM    131  CG1 VAL d  14    2069.873 628.413-2141.509  0.00  0.00     0.012 C 
ATOM    132  CG2 VAL d  14    2070.217 627.581-2139.214  0.00  0.00     0.012 C 
ENDBRANCH 101 130
ENDBRANCH  99 101
ENDBRANCH  96  97
BRANCH  96 133
ATOM    133  CB  LEU d  13    2071.194 631.023-2135.290  0.00  0.00     0.038 C 
BRANCH 133 134
ATOM    134  CG  LEU d  13    2070.993 631.284-2133.772  0.00  0.00    -0.020 C 
ATOM    135  CD1 LEU d  13    2071.904 630.358-2132.953  0.00  0.00     0.009 C 
ATOM    136  CD2 LEU d  13    2071.256 632.748-2133.381  0.00  0.00     0.009 C 
ENDBRANCH 133 134
ENDBRANCH  96 133
ENDBRANCH  94  96
ENDBRANCH  91  92
BRANCH  91 137
ATOM    137  CB  GLN d  12    2066.332 633.281-2135.284  0.00  0.00     0.044 C 
BRANCH 137 138
ATOM    138  CG  GLN d  12    2066.694 634.803-2135.254  0.00  0.00     0.105 C 
BRANCH 138 139
ATOM    139  CD  GLN d  12    2066.392 635.617-2133.990  0.00  0.00     0.215 C 
ATOM    140  NE2 GLN d  12    2065.825 635.042-2132.960  0.00  0.00    -0.370 N 
ATOM    141 21HE GLN d  12    2065.719 635.636-2132.137  0.00  0.00     0.159 HD
ATOM    142 22HE GLN d  12    2065.661 634.038-2133.063  0.00  0.00     0.159 HD
ATOM    143  OE1 GLN d  12    2066.695 636.798-2133.913  0.00  0.00    -0.274 OA
ENDBRANCH 138 139
ENDBRANCH 137 138
ENDBRANCH  91 137
ENDBRANCH  89  91
ENDBRANCH  86  87
BRANCH  86 144
ATOM    144  CB  VAL d  11    2064.483 628.768-2137.486  0.00  0.00     0.009 C 
ATOM    145  CG1 VAL d  11    2063.915 629.471-2138.749  0.00  0.00     0.012 C 
ATOM    146  CG2 VAL d  11    2063.958 627.314-2137.558  0.00  0.00     0.012 C 
ENDBRANCH  86 144
ENDBRANCH  84  86
ENDBRANCH  81  82
BRANCH  81 147
ATOM    147  CB  HIS d  10    2067.840 626.236-2134.240  0.00  0.00     0.095 C 
BRANCH 147 148
ATOM    148  CG  HIS d  10    2069.125 625.525-2133.932  0.00  0.00     0.053 A 
ATOM    149  CD2 HIS d  10    2069.507 625.190-2132.640  0.00  0.00     0.116 A 
ATOM    150  NE2 HIS d  10    2070.721 624.558-2132.707  0.00  0.00    -0.359 N 
ATOM    151  CE1 HIS d  10    2070.983 624.560-2134.042  0.00  0.00     0.207 A 
ATOM    152  2HE HIS d  10    2071.288 624.181-2131.933  0.00  0.00     0.166 HD
ATOM    153  ND1 HIS d  10    2070.077 625.118-2134.865  0.00  0.00    -0.247 NA
ENDBRANCH 147 148
ENDBRANCH  81 147
ENDBRANCH  79  81
ENDBRANCH   1  77
BRANCH   1 154
ATOM    154  CB  GLU d   9    2066.737 629.873-2130.556  0.00  0.00     0.045 C 
BRANCH 154 155
ATOM    155  CG  GLU d   9    2068.120 630.565-2130.327  0.00  0.00     0.116 C 
BRANCH 155 156
ATOM    156  CD  GLU d   9    2068.822 630.352-2128.999  0.00  0.00     0.172 C 
ATOM    157  OE1 GLU d   9    2068.301 629.662-2128.102  0.00  0.00    -0.648 OA
ATOM    158  OE2 GLU d   9    2069.942 630.890-2128.867  0.00  0.00    -0.648 OA
ENDBRANCH 155 156
ENDBRANCH 154 155
ENDBRANCH   1 154
TORSDOF 66
