REMARK WARNING: 32 MAX_TORS EXCEEDED!!!
REMARK  69 active torsions:
REMARK  status: ('A' for Active; 'I' for Inactive)
REMARK    1  A    between atoms: N_1  and  CA_2 
REMARK    2  A    between atoms: CA_2  and  C_3 
REMARK    3  A    between atoms: CA_2  and  CB_5 
REMARK       I    between atoms: C_3  and  N_11 
REMARK    4  A    between atoms: CB_5  and  CG_6 
REMARK    5  A    between atoms: CG_6  and  CD_7 
REMARK    6  A    between atoms: N_11  and  CA_12 
REMARK    7  A    between atoms: CA_12  and  C_13 
REMARK    8  A    between atoms: CA_12  and  CB_15 
REMARK       I    between atoms: C_13  and  N_22 
REMARK    9  A    between atoms: CB_15  and  CG_16 
REMARK       I    between atoms: CG_16  and  ND2_17 
REMARK   10  A    between atoms: CA_23  and  C_24 
REMARK       I    between atoms: C_24  and  N_29 
REMARK   11  A    between atoms: N_29  and  CA_30 
REMARK   12  A    between atoms: CA_30  and  C_31 
REMARK   13  A    between atoms: CA_30  and  CB_33 
REMARK       I    between atoms: C_31  and  N_39 
REMARK   14  A    between atoms: CB_33  and  CG_34 
REMARK   15  A    between atoms: CG_34  and  CD_35 
REMARK   16  A    between atoms: N_39  and  CA_40 
REMARK   17  A    between atoms: CA_40  and  C_41 
REMARK   18  A    between atoms: CA_40  and  CB_43 
REMARK       I    between atoms: C_41  and  N_47 
REMARK   19  A    between atoms: CB_43  and  OG_44 
REMARK   20  A    between atoms: N_47  and  CA_48 
REMARK   21  A    between atoms: CA_48  and  C_49 
REMARK   22  A    between atoms: CA_48  and  CB_51 
REMARK       I    between atoms: C_49  and  N_56 
REMARK   23  A    between atoms: CB_51  and  CG1_52 
REMARK   24  A    between atoms: N_56  and  CA_57 
REMARK   25  A    between atoms: CA_57  and  C_58 
REMARK   26  A    between atoms: CA_57  and  CB_60 
REMARK       I    between atoms: C_58  and  N_65 
REMARK   27  A    between atoms: CB_60  and  CG_61 
REMARK   28  A    between atoms: N_65  and  CA_66 
REMARK   29  A    between atoms: CA_66  and  C_67 
REMARK   30  A    between atoms: CA_66  and  CB_69 
REMARK       I    between atoms: C_67  and  N_74 
REMARK   31  A    between atoms: CB_69  and  CG_70 
REMARK   32  A    between atoms: N_74  and  CA_75 
REMARK   33  A    between atoms: CA_75  and  C_76 
REMARK   34  A    between atoms: CA_75  and  CB_78 
REMARK       I    between atoms: C_76  and  N_84 
REMARK   35  A    between atoms: CB_78  and  CG_79 
REMARK   36  A    between atoms: CG_79  and  CD_80 
REMARK   37  A    between atoms: N_84  and  CA_85 
REMARK   38  A    between atoms: CA_85  and  C_86 
REMARK   39  A    between atoms: CA_85  and  CB_88 
REMARK       I    between atoms: C_86  and  N_96 
REMARK   40  A    between atoms: CB_88  and  CG_89 
REMARK   41  A    between atoms: N_96  and  CA_97 
REMARK   42  A    between atoms: CA_97  and  C_98 
REMARK   43  A    between atoms: CA_97  and  CB_100 
REMARK       I    between atoms: C_98  and  N_104 
REMARK   44  A    between atoms: N_104  and  CA_105 
REMARK   45  A    between atoms: CA_105  and  C_106 
REMARK   46  A    between atoms: CA_105  and  CB_108 
REMARK       I    between atoms: C_106  and  N_116 
REMARK   47  A    between atoms: CB_108  and  CG_109 
REMARK   48  A    between atoms: CG_109  and  CD_110 
REMARK       I    between atoms: CD_110  and  NE2_111 
REMARK   49  A    between atoms: N_116  and  CA_117 
REMARK   50  A    between atoms: CA_117  and  C_118 
REMARK   51  A    between atoms: CA_117  and  CB_120 
REMARK       I    between atoms: C_118  and  N_133 
REMARK   52  A    between atoms: CB_120  and  CG_121 
REMARK   53  A    between atoms: CG_121  and  CD_122 
REMARK   54  A    between atoms: CD_122  and  NE_123 
REMARK       I    between atoms: NE_123  and  CZ_124 
REMARK       I    between atoms: CZ_124  and  NH1_125 
REMARK       I    between atoms: CZ_124  and  NH2_126 
REMARK   55  A    between atoms: N_133  and  CA_134 
REMARK   56  A    between atoms: CA_134  and  C_135 
REMARK   57  A    between atoms: CA_134  and  CB_137 
REMARK       I    between atoms: C_135  and  N_142 
REMARK   58  A    between atoms: CB_137  and  CG_138 
REMARK   59  A    between atoms: N_142  and  CA_143 
REMARK   60  A    between atoms: CA_143  and  C_144 
REMARK   61  A    between atoms: CA_143  and  CB_146 
REMARK       I    between atoms: C_144  and  N_151 
REMARK   62  A    between atoms: CB_146  and  CG_147 
REMARK   63  A    between atoms: CG_147  and  SD_148 
REMARK   64  A    between atoms: N_151  and  CA_152 
REMARK   65  A    between atoms: CA_152  and  C_153 
REMARK   66  A    between atoms: CA_152  and  CB_155 
REMARK   67  A    between atoms: CB_155  and  CG_156 
REMARK   68  A    between atoms: CG_156  and  CD_157 
REMARK   69  A    between atoms: CD_157  and  NE_158 
REMARK       I    between atoms: NE_158  and  CZ_159 
REMARK       I    between atoms: CZ_159  and  NH1_160 
ROOT
ATOM      1  C   GLU d   9    2310.135 709.230-2399.016  0.00  0.00     0.241 C 
ATOM      2  O   GLU d   9    2310.799 709.983-2399.742  0.00  0.00    -0.271 OA
ATOM      3  N   HIS d  10    2310.231 707.954-2399.185  0.00  0.00    -0.346 N 
ATOM      4  H   HIS d  10    2309.701 707.319-2398.606  0.00  0.00     0.163 HD
ENDROOT
BRANCH   3   5
ATOM      5  CA  HIS d  10    2311.119 707.442-2400.225  0.00  0.00     0.182 C 
BRANCH   5   6
ATOM      6  C   HIS d  10    2310.752 708.006-2401.577  0.00  0.00     0.241 C 
ATOM      7  O   HIS d  10    2311.604 708.470-2402.349  0.00  0.00    -0.271 OA
ATOM      8  N   VAL d  11    2309.514 708.006-2401.939  0.00  0.00    -0.346 N 
ATOM      9  H   VAL d  11    2308.801 707.633-2401.329  0.00  0.00     0.163 HD
BRANCH   8  10
ATOM     10  CA  VAL d  11    2309.159 708.551-2403.247  0.00  0.00     0.180 C 
BRANCH  10  11
ATOM     11  C   VAL d  11    2309.624 709.981-2403.380  0.00  0.00     0.241 C 
ATOM     12  O   VAL d  11    2310.225 710.386-2404.383  0.00  0.00    -0.271 OA
ATOM     13  N   GLN d  12    2309.388 710.808-2402.418  0.00  0.00    -0.346 N 
ATOM     14  H   GLN d  12    2308.899 710.502-2401.588  0.00  0.00     0.163 HD
BRANCH  13  15
ATOM     15  CA  GLN d  12    2309.837 712.190-2402.546  0.00  0.00     0.177 C 
BRANCH  15  16
ATOM     16  C   GLN d  12    2311.327 712.257-2402.784  0.00  0.00     0.241 C 
ATOM     17  O   GLN d  12    2311.814 712.964-2403.663  0.00  0.00    -0.271 OA
ATOM     18  N   ARG d  13    2312.111 711.550-2402.043  0.00  0.00    -0.346 N 
ATOM     19  H   ARG d  13    2311.735 710.961-2401.314  0.00  0.00     0.163 HD
BRANCH  18  20
ATOM     20  CA  ARG d  13    2313.552 711.615-2402.274  0.00  0.00     0.176 C 
BRANCH  20  21
ATOM     21  C   ARG d  13    2313.887 711.243-2403.699  0.00  0.00     0.241 C 
ATOM     22  O   ARG d  13    2314.656 711.914-2404.384  0.00  0.00    -0.271 OA
ATOM     23  N   ASP d  14    2313.351 710.188-2404.212  0.00  0.00    -0.346 N 
ATOM     24  H   ASP d  14    2312.716 709.620-2403.670  0.00  0.00     0.163 HD
BRANCH  23  25
ATOM     25  CA  ASP d  14    2313.675 709.828-2405.590  0.00  0.00     0.186 C 
BRANCH  25  26
ATOM     26  C   ASP d  14    2313.346 710.957-2406.537  0.00  0.00     0.241 C 
ATOM     27  O   ASP d  14    2314.142 711.337-2407.409  0.00  0.00    -0.271 OA
ATOM     28  N   MET d  15    2312.201 711.544-2406.436  0.00  0.00    -0.346 N 
ATOM     29  H   MET d  15    2311.536 711.252-2405.734  0.00  0.00     0.163 HD
BRANCH  28  30
ATOM     30  CA  MET d  15    2311.882 712.636-2407.351  0.00  0.00     0.177 C 
BRANCH  30  31
ATOM     31  C   MET d  15    2312.913 713.735-2407.264  0.00  0.00     0.241 C 
ATOM     32  O   MET d  15    2313.417 714.244-2408.277  0.00  0.00    -0.271 OA
ATOM     33  N   ARG d  16    2313.282 714.157-2406.102  0.00  0.00    -0.347 N 
ATOM     34  H   ARG d  16    2312.886 713.758-2405.263  0.00  0.00     0.163 HD
BRANCH  33  35
ATOM     35  CA  ARG d  16    2314.279 715.220-2406.020  0.00  0.00     0.162 C 
BRANCH  35  36
ATOM     36  C   ARG d  16    2315.550 714.825-2406.735  0.00  0.00     0.219 C 
ATOM     37  O   ARG d  16    2315.663 713.748-2407.315  0.00  0.00    -0.287 OA
ENDBRANCH  35  36
BRANCH  35  38
ATOM     38  CB  ARG d  16    2314.548 715.540-2404.521  0.00  0.00     0.035 C 
BRANCH  38  39
ATOM     39  CG  ARG d  16    2315.375 716.828-2404.250  0.00  0.00     0.023 C 
BRANCH  39  40
ATOM     40  CD  ARG d  16    2315.624 717.049-2402.749  0.00  0.00     0.138 C 
BRANCH  40  41
ATOM     41  NE  ARG d  16    2316.401 718.307-2402.549  0.00  0.00    -0.227 N 
ATOM     42  CZ  ARG d  16    2316.792 718.791-2401.374  0.00  0.00     0.665 C 
ATOM     43  NH1 ARG d  16    2316.544 718.208-2400.235  0.00  0.00    -0.235 N 
ATOM     44  NH2 ARG d  16    2317.457 719.903-2401.357  0.00  0.00    -0.235 N 
ATOM     45 11HH ARG d  16    2316.017 717.336-2400.319  0.00  0.00     0.174 HD
ATOM     46 12HH ARG d  16    2316.878 718.645-2399.374  0.00  0.00     0.174 HD
ATOM     47 21HH ARG d  16    2317.643 720.345-2402.259  0.00  0.00     0.174 HD
ATOM     48 22HH ARG d  16    2317.748 720.259-2400.445  0.00  0.00     0.174 HD
ATOM     49  HE  ARG d  16    2316.680 718.888-2403.347  0.00  0.00     0.177 HD
ENDBRANCH  40  41
ENDBRANCH  39  40
ENDBRANCH  38  39
ENDBRANCH  35  38
ENDBRANCH  33  35
ENDBRANCH  30  31
BRANCH  30  50
ATOM     50  CB  MET d  15    2310.461 713.183-2407.044  0.00  0.00     0.045 C 
BRANCH  50  51
ATOM     51  CG  MET d  15    2309.298 712.185-2407.235  0.00  0.00     0.076 C 
BRANCH  51  52
ATOM     52  SD  MET d  15    2307.725 713.053-2407.122  0.00  0.00    -0.173 SA
ATOM     53  CE  MET d  15    2306.643 711.624-2406.984  0.00  0.00     0.089 C 
ENDBRANCH  51  52
ENDBRANCH  50  51
ENDBRANCH  30  50
ENDBRANCH  28  30
ENDBRANCH  25  26
BRANCH  25  54
ATOM     54  CB  ASP d  14    2312.937 708.524-2406.002  0.00  0.00     0.147 C 
BRANCH  54  55
ATOM     55  CG  ASP d  14    2313.255 708.002-2407.411  0.00  0.00     0.175 C 
ATOM     56  OD1 ASP d  14    2314.418 708.107-2407.850  0.00  0.00    -0.648 OA
ATOM     57  OD2 ASP d  14    2312.325 707.526-2408.095  0.00  0.00    -0.648 OA
ENDBRANCH  54  55
ENDBRANCH  25  54
ENDBRANCH  23  25
ENDBRANCH  20  21
BRANCH  20  58
ATOM     58  CB  ARG d  13    2314.265 710.677-2401.260  0.00  0.00     0.036 C 
BRANCH  58  59
ATOM     59  CG  ARG d  13    2315.810 710.830-2401.179  0.00  0.00     0.023 C 
BRANCH  59  60
ATOM     60  CD  ARG d  13    2316.437 709.842-2400.181  0.00  0.00     0.138 C 
BRANCH  60  61
ATOM     61  NE  ARG d  13    2317.914 710.049-2400.131  0.00  0.00    -0.227 N 
ATOM     62  CZ  ARG d  13    2318.762 709.358-2399.375  0.00  0.00     0.665 C 
ATOM     63  NH1 ARG d  13    2318.397 708.394-2398.577  0.00  0.00    -0.235 N 
ATOM     64  NH2 ARG d  13    2320.022 709.656-2399.433  0.00  0.00    -0.235 N 
ATOM     65 11HH ARG d  13    2317.392 708.208-2398.580  0.00  0.00     0.174 HD
ATOM     66 12HH ARG d  13    2319.110 707.911-2398.028  0.00  0.00     0.174 HD
ATOM     67 21HH ARG d  13    2320.290 710.414-2400.065  0.00  0.00     0.174 HD
ATOM     68 22HH ARG d  13    2320.657 709.115-2398.844  0.00  0.00     0.174 HD
ATOM     69  HE  ARG d  13    2318.365 710.771-2400.702  0.00  0.00     0.177 HD
ENDBRANCH  60  61
ENDBRANCH  59  60
ENDBRANCH  58  59
ENDBRANCH  20  58
ENDBRANCH  18  20
ENDBRANCH  15  16
BRANCH  15  70
ATOM     70  CB  GLN d  12    2309.447 712.959-2401.263  0.00  0.00     0.044 C 
BRANCH  70  71
ATOM     71  CG  GLN d  12    2309.808 714.480-2401.233  0.00  0.00     0.105 C 
BRANCH  71  72
ATOM     72  CD  GLN d  12    2309.506 715.295-2399.969  0.00  0.00     0.215 C 
ATOM     73  NE2 GLN d  12    2308.939 714.719-2398.939  0.00  0.00    -0.370 N 
ATOM     74 21HE GLN d  12    2308.833 715.314-2398.116  0.00  0.00     0.159 HD
ATOM     75 22HE GLN d  12    2308.775 713.716-2399.042  0.00  0.00     0.159 HD
ATOM     76  OE1 GLN d  12    2309.809 716.475-2399.892  0.00  0.00    -0.274 OA
ENDBRANCH  71  72
ENDBRANCH  70  71
ENDBRANCH  15  70
ENDBRANCH  13  15
ENDBRANCH  10  11
BRANCH  10  77
ATOM     77  CB  VAL d  11    2307.597 708.445-2403.466  0.00  0.00     0.009 C 
ATOM     78  CG1 VAL d  11    2307.029 709.149-2404.729  0.00  0.00     0.012 C 
ATOM     79  CG2 VAL d  11    2307.072 706.991-2403.538  0.00  0.00     0.012 C 
ENDBRANCH  10  77
ENDBRANCH   8  10
ENDBRANCH   5   6
BRANCH   5  80
ATOM     80  CB  HIS d  10    2310.954 705.913-2400.220  0.00  0.00     0.095 C 
BRANCH  80  81
ATOM     81  CG  HIS d  10    2312.240 705.202-2399.912  0.00  0.00     0.053 A 
ATOM     82  CD2 HIS d  10    2312.621 704.868-2398.619  0.00  0.00     0.116 A 
ATOM     83  NE2 HIS d  10    2313.835 704.235-2398.686  0.00  0.00    -0.359 N 
ATOM     84  CE1 HIS d  10    2314.097 704.238-2400.021  0.00  0.00     0.207 A 
ATOM     85  2HE HIS d  10    2314.402 703.858-2397.913  0.00  0.00     0.166 HD
ATOM     86  ND1 HIS d  10    2313.191 704.796-2400.844  0.00  0.00    -0.247 NA
ENDBRANCH  80  81
ENDBRANCH   5  80
ENDBRANCH   3   5
BRANCH   1  87
ATOM     87  CA  GLU d   9    2309.218 709.758-2397.940  0.00  0.00     0.177 C 
BRANCH  87  88
ATOM     88  N   GLU d   9    2307.915 709.101-2397.995  0.00  0.00    -0.346 N 
ATOM     89  C   ASP d   8    2307.235 709.151-2399.090  0.00  0.00     0.241 C 
ATOM     90  O   ASP d   8    2307.708 709.755-2400.065  0.00  0.00    -0.271 OA
ATOM     91  H   GLU d   9    2307.551 708.615-2397.188  0.00  0.00     0.163 HD
BRANCH  89  92
ATOM     92  CA  ASP d   8    2305.888 708.472-2399.147  0.00  0.00     0.186 C 
BRANCH  92  93
ATOM     93  N   ASP d   8    2305.958 707.122-2398.593  0.00  0.00    -0.346 N 
ATOM     94  C   LEU d   7    2306.794 706.281-2399.099  0.00  0.00     0.241 C 
ATOM     95  O   LEU d   7    2307.515 706.643-2400.041  0.00  0.00    -0.271 OA
ATOM     96  H   ASP d   8    2305.360 706.852-2397.825  0.00  0.00     0.163 HD
BRANCH  94  97
ATOM     97  CA  LEU d   7    2306.866 704.886-2398.526  0.00  0.00     0.177 C 
BRANCH  97  98
ATOM     98  N   LEU d   7    2306.921 704.922-2397.067  0.00  0.00    -0.346 N 
ATOM     99  C   ILE d   6    2307.867 705.585-2396.494  0.00  0.00     0.241 C 
ATOM    100  O   ILE d   6    2308.702 706.172-2397.198  0.00  0.00    -0.271 OA
ATOM    101  H   LEU d   7    2306.229 704.435-2396.516  0.00  0.00     0.163 HD
BRANCH  99 102
ATOM    102  CA  ILE d   6    2307.925 705.623-2394.986  0.00  0.00     0.180 C 
BRANCH 102 103
ATOM    103  N   ILE d   6    2306.611 705.918-2394.420  0.00  0.00    -0.346 N 
ATOM    104  C   SER d   5    2306.007 707.002-2394.774  0.00  0.00     0.243 C 
ATOM    105  O   SER d   5    2306.555 707.755-2395.579  0.00  0.00    -0.271 OA
ATOM    106  H   ILE d   6    2306.182 705.284-2393.761  0.00  0.00     0.163 HD
BRANCH 104 107
ATOM    107  CA  SER d   5    2304.648 707.308-2394.189  0.00  0.00     0.200 C 
BRANCH 107 108
ATOM    108  N   SER d   5    2303.778 706.137-2394.248  0.00  0.00    -0.344 N 
ATOM    109  C   GLU d   4    2303.551 705.584-2395.391  0.00  0.00     0.241 C 
ATOM    110  O   GLU d   4    2304.078 706.063-2396.405  0.00  0.00    -0.271 OA
ATOM    111  H   SER d   5    2303.361 705.765-2393.406  0.00  0.00     0.163 HD
BRANCH 109 112
ATOM    112  CA  GLU d   4    2302.652 704.373-2395.453  0.00  0.00     0.177 C 
BRANCH 112 113
ATOM    113  N   GLU d   4    2303.011 703.402-2394.423  0.00  0.00    -0.346 N 
ATOM    114  C   PRO d   3    2304.216 702.942-2394.390  0.00  0.00     0.241 C 
ATOM    115  O   PRO d   3    2305.040 703.325-2395.221  0.00  0.00    -0.271 OA
ATOM    116  H   GLU d   4    2302.327 703.096-2393.746  0.00  0.00     0.163 HD
BRANCH 114 117
ATOM    117  CA  PRO d   3    2304.614 701.918-2393.313  0.00  0.00     0.179 C 
ATOM    118  N   PRO d   3    2304.162 702.328-2391.992  0.00  0.00    -0.337 N 
ATOM    119  C   ASN d   2    2304.683 703.323-2391.357  0.00  0.00     0.243 C 
ATOM    120  CD  PRO d   3    2303.083 701.535-2391.443  0.00  0.00     0.127 C 
ATOM    121  O   ASN d   2    2305.598 703.953-2391.885  0.00  0.00    -0.271 OA
ATOM    122  CG  PRO d   3    2302.626 700.716-2392.653  0.00  0.00     0.022 C 
ATOM    123  CB  PRO d   3    2303.909 700.564-2393.483  0.00  0.00     0.037 C 
BRANCH 119 124
ATOM    124  CA  ASN d   2    2304.152 703.678-2389.989  0.00  0.00     0.185 C 
BRANCH 124 125
ATOM    125  N   ASN d   2    2302.692 703.717-2389.989  0.00  0.00    -0.346 N 
ATOM    126  C   GLU d   1    2302.088 704.503-2390.814  0.00  0.00     0.242 C 
ATOM    127  O   GLU d   1    2302.764 705.202-2391.583  0.00  0.00    -0.271 OA
ATOM    128  H   ASN d   2    2302.164 703.138-2389.353  0.00  0.00     0.163 HD
BRANCH 126 129
ATOM    129  CA  GLU d   1    2300.579 704.543-2390.814  0.00  0.00     0.191 C 
BRANCH 129 130
ATOM    130  N   GLU d   1    2300.020 703.194-2390.814  0.00  0.00    -0.326 NA
ATOM    131  H   GLU d   1    2300.647 702.315-2390.814  0.00  0.00     0.180 HD
ENDBRANCH 129 130
BRANCH 129 132
ATOM    132  CB  GLU d   1    2300.056 705.328-2389.577  0.00  0.00     0.047 C 
BRANCH 132 133
ATOM    133  CG  GLU d   1    2300.531 706.813-2389.466  0.00  0.00     0.116 C 
BRANCH 133 134
ATOM    134  CD  GLU d   1    2300.107 707.617-2388.251  0.00  0.00     0.172 C 
ATOM    135  OE1 GLU d   1    2299.379 707.115-2387.373  0.00  0.00    -0.648 OA
ATOM    136  OE2 GLU d   1    2300.537 708.787-2388.179  0.00  0.00    -0.648 OA
ENDBRANCH 133 134
ENDBRANCH 132 133
ENDBRANCH 129 132
ENDBRANCH 126 129
ENDBRANCH 124 125
BRANCH 124 137
ATOM    137  CB  ASN d   2    2304.643 702.655-2388.924  0.00  0.00     0.137 C 
BRANCH 137 138
ATOM    138  CG  ASN d   2    2304.180 702.879-2387.481  0.00  0.00     0.217 C 
ATOM    139  ND2 ASN d   2    2304.774 703.794-2386.763  0.00  0.00    -0.370 N 
ATOM    140 21HD ASN d   2    2304.293 703.967-2385.876  0.00  0.00     0.159 HD
ATOM    141 22HD ASN d   2    2305.476 704.365-2387.232  0.00  0.00     0.159 HD
ATOM    142  OD1 ASN d   2    2303.259 702.246-2386.987  0.00  0.00    -0.274 OA
ENDBRANCH 137 138
ENDBRANCH 124 137
ENDBRANCH 119 124
ENDBRANCH 114 117
ENDBRANCH 112 113
BRANCH 112 143
ATOM    143  CB  GLU d   4    2301.164 704.792-2395.283  0.00  0.00     0.045 C 
BRANCH 143 144
ATOM    144  CG  GLU d   4    2300.616 705.796-2396.349  0.00  0.00     0.116 C 
BRANCH 144 145
ATOM    145  CD  GLU d   4    2299.190 706.293-2396.206  0.00  0.00     0.172 C 
ATOM    146  OE1 GLU d   4    2298.463 705.895-2395.275  0.00  0.00    -0.648 OA
ATOM    147  OE2 GLU d   4    2298.801 707.122-2397.054  0.00  0.00    -0.648 OA
ENDBRANCH 144 145
ENDBRANCH 143 144
ENDBRANCH 112 143
ENDBRANCH 109 112
ENDBRANCH 107 108
BRANCH 107 148
ATOM    148  CB  SER d   5    2304.760 707.840-2392.739  0.00  0.00     0.199 C 
BRANCH 148 149
ATOM    149  OG  SER d   5    2305.490 706.960-2391.877  0.00  0.00    -0.398 OA
ATOM    150  HG  SER d   5    2305.001 706.135-2391.827  0.00  0.00     0.209 HD
ENDBRANCH 148 149
ENDBRANCH 107 148
ENDBRANCH 104 107
ENDBRANCH 102 103
BRANCH 102 151
ATOM    151  CB  ILE d   6    2308.524 704.286-2394.385  0.00  0.00     0.013 C 
ATOM    152  CG2 ILE d   6    2309.965 703.984-2394.901  0.00  0.00     0.012 C 
BRANCH 151 153
ATOM    153  CG1 ILE d   6    2308.542 704.224-2392.825  0.00  0.00     0.002 C 
ATOM    154  CD1 ILE d   6    2308.812 702.835-2392.209  0.00  0.00     0.005 C 
ENDBRANCH 151 153
ENDBRANCH 102 151
ENDBRANCH  99 102
ENDBRANCH  97  98
BRANCH  97 155
ATOM    155  CB  LEU d   7    2305.663 704.026-2399.006  0.00  0.00     0.038 C 
BRANCH 155 156
ATOM    156  CG  LEU d   7    2305.590 702.547-2398.540  0.00  0.00    -0.020 C 
ATOM    157  CD1 LEU d   7    2304.400 701.841-2399.205  0.00  0.00     0.009 C 
ATOM    158  CD2 LEU d   7    2306.883 701.767-2398.831  0.00  0.00     0.009 C 
ENDBRANCH 155 156
ENDBRANCH  97 155
ENDBRANCH  94  97
ENDBRANCH  92  93
BRANCH  92 159
ATOM    159  CB  ASP d   8    2304.810 709.312-2398.406  0.00  0.00     0.147 C 
BRANCH 159 160
ATOM    160  CG  ASP d   8    2304.592 710.732-2398.947  0.00  0.00     0.175 C 
ATOM    161  OD1 ASP d   8    2304.656 710.930-2400.178  0.00  0.00    -0.648 OA
ATOM    162  OD2 ASP d   8    2304.401 711.659-2398.132  0.00  0.00    -0.648 OA
ENDBRANCH 159 160
ENDBRANCH  92 159
ENDBRANCH  89  92
ENDBRANCH  87  88
BRANCH  87 163
ATOM    163  CB  GLU d   9    2309.852 709.551-2396.535  0.00  0.00     0.045 C 
BRANCH 163 164
ATOM    164  CG  GLU d   9    2311.235 710.243-2396.306  0.00  0.00     0.116 C 
BRANCH 164 165
ATOM    165  CD  GLU d   9    2311.937 710.030-2394.978  0.00  0.00     0.172 C 
ATOM    166  OE1 GLU d   9    2311.415 709.339-2394.081  0.00  0.00    -0.648 OA
ATOM    167  OE2 GLU d   9    2313.056 710.567-2394.847  0.00  0.00    -0.648 OA
ENDBRANCH 164 165
ENDBRANCH 163 164
ENDBRANCH  87 163
ENDBRANCH   1  87
TORSDOF 69
