@<TRIPOS>MOLECULE
16-19
263 264 16              
SMALL
USER_CHARGES
@<TRIPOS>ATOM
1	   N	2641.320	809.041	-2763.295	N.3	1	GLU1	-0.516	
2	  CA	2641.879	810.390	-2763.295	C.3	1	GLU1	0.040	
3	   C	2643.388	810.350	-2763.295	C.2	1	GLU1	0.537	
4	   O	2644.063	811.049	-2764.063	O.2	1	GLU1	-0.582	
5	  CB	2641.355	811.175	-2762.058	C.3	1	GLU1	0.056	
6	  CG	2641.831	812.660	-2761.947	C.3	1	GLU1	0.014	
7	  CD	2641.406	813.464	-2760.732	C.2	1	GLU1	0.805	
8	 OE1	2640.678	812.962	-2759.854	O.co2	1	GLU1	-0.819	
9	 OE2	2641.837	814.634	-2760.660	O.co2	1	GLU1	-0.819	
10	   H	2641.947	808.162	-2763.295	 H	1	GLU1	0.294	
11	  HA	2641.552	810.908	-2764.215	 H	1	GLU1	0.111	
12	 2HB	2641.645	810.644	-2761.128	 H	1	GLU1	-0.017	
13	 3HB	2640.249	811.165	-2762.045	 H	1	GLU1	-0.017	
14	 2HG	2641.521	813.245	-2762.828	 H	1	GLU1	-0.043	
15	 3HG	2642.931	812.727	-2761.918	 H	1	GLU1	-0.043	
16	   N	2643.992	809.564	-2762.469	N.am	2	ASN2	-0.416	
17	  CA	2645.451	809.525	-2762.469	C.3	2	ASN2	0.014	
18	   C	2645.983	809.169	-2763.838	C.2	2	ASN2	0.597	
19	   O	2646.898	809.800	-2764.366	O.2	2	ASN2	-0.568	
20	  CB	2645.943	808.502	-2761.405	C.3	2	ASN2	-0.204	
21	  CG	2645.480	808.726	-2759.962	C.2	2	ASN2	0.713	
22	 ND2	2646.074	809.641	-2759.243	N.pl3	2	ASN2	-0.919	
23	 OD1	2644.559	808.092	-2759.468	O.2	2	ASN2	-0.593	
24	   H	2643.464	808.984	-2761.833	 H	2	ASN2	0.272	
25	  HA	2645.829	810.535	-2762.224	 H	2	ASN2	0.105	
26	 2HB	2647.047	808.443	-2761.408	 H	2	ASN2	0.080	
27	 3HB	2645.614	807.484	-2761.691	 H	2	ASN2	0.080	
28	1HD2	2645.593	809.814	-2758.357	 H	2	ASN2	0.420	
29	2HD2	2646.776	810.212	-2759.712	 H	2	ASN2	0.420	
30	   N	2645.461	808.174	-2764.472	N.am	3	PRO3	-0.255	
31	  CA	2645.914	807.765	-2765.793	C.3	3	PRO3	-0.027	
32	   C	2645.516	808.789	-2766.871	C.2	3	PRO3	0.590	
33	   O	2646.339	809.172	-2767.702	O.2	3	PRO3	-0.575	
34	  CB	2645.209	806.411	-2765.963	C.3	3	PRO3	-0.007	
35	  CG	2643.926	806.563	-2765.133	C.3	3	PRO3	0.019	
36	  CD	2644.383	807.382	-2763.923	C.3	3	PRO3	0.019	
37	  HA	2647.000	807.645	-2765.807	 H	3	PRO3	0.064	
38	 2HB	2645.832	805.629	-2765.522	 H	3	PRO3	0.025	
39	 3HB	2645.011	806.162	-2767.009	 H	3	PRO3	0.025	
40	 2HG	2643.498	805.601	-2764.842	 H	3	PRO3	0.021	
41	 3HG	2643.188	807.134	-2765.701	 H	3	PRO3	0.021	
42	 2HD	2644.772	806.732	-2763.136	 H	3	PRO3	0.039	
43	 3HD	2643.586	808.017	-2763.531	 H	3	PRO3	0.039	
44	   N	2644.311	809.249	-2766.903	N.am	4	GLU4	-0.516	
45	  CA	2643.952	810.220	-2767.933	C.3	4	GLU4	0.040	
46	   C	2644.851	811.431	-2767.872	C.2	4	GLU4	0.537	
47	   O	2645.378	811.910	-2768.886	O.2	4	GLU4	-0.582	
48	  CB	2642.463	810.639	-2767.763	C.3	4	GLU4	0.056	
49	  CG	2641.916	811.643	-2768.829	C.3	4	GLU4	0.014	
50	  CD	2640.490	812.140	-2768.686	C.2	4	GLU4	0.805	
51	 OE1	2639.763	811.742	-2767.756	O.co2	4	GLU4	-0.819	
52	 OE2	2640.101	812.969	-2769.535	O.co2	4	GLU4	-0.819	
53	   H	2643.626	808.943	-2766.227	 H	4	GLU4	0.294	
54	  HA	2644.083	809.750	-2768.924	 H	4	GLU4	0.111	
55	 2HB	2642.311	811.079	-2766.757	 H	4	GLU4	-0.017	
56	 3HB	2641.815	809.741	-2767.770	 H	4	GLU4	-0.017	
57	 2HG	2641.998	811.228	-2769.847	 H	4	GLU4	-0.043	
58	 3HG	2642.504	812.575	-2768.840	 H	4	GLU4	-0.043	
59	   N	2645.078	811.983	-2766.728	N.am	5	SER5	-0.416	
60	  CA	2645.948	813.154	-2766.669	C.3	5	SER5	-0.025	
61	   C	2647.307	812.848	-2767.255	C.2	5	SER5	0.597	
62	   O	2647.855	813.602	-2768.059	O.2	5	SER5	-0.568	
63	  CB	2646.059	813.687	-2765.219	C.3	5	SER5	0.212	
64	  OG	2646.790	812.807	-2764.358	O.3	5	SER5	-0.655	
65	   H	2644.661	811.612	-2765.887	 H	5	SER5	0.272	
66	  HA	2645.499	813.945	-2767.299	 H	5	SER5	0.084	
67	 2HB	2645.059	813.881	-2764.786	 H	5	SER5	0.035	
68	 3HB	2646.565	814.672	-2765.221	 H	5	SER5	0.035	
69	  HG	2646.301	811.982	-2764.307	 H	5	SER5	0.428	
70	   N	2647.911	811.765	-2766.900	N.am	6	ILE6	-0.416	
71	  CA	2649.224	811.470	-2767.466	C.3	6	ILE6	-0.060	
72	   C	2649.167	811.432	-2768.974	C.2	6	ILE6	0.597	
73	   O	2650.002	812.019	-2769.678	O.2	6	ILE6	-0.568	
74	  CB	2649.823	810.133	-2766.866	C.3	6	ILE6	0.130	
75	 CG1	2649.842	810.071	-2765.305	C.3	6	ILE6	-0.043	
76	 CG2	2651.265	809.831	-2767.381	C.3	6	ILE6	-0.320	
77	 CD1	2650.112	808.682	-2764.690	C.3	6	ILE6	-0.066	
78	   H	2647.482	811.131	-2766.242	 H	6	ILE6	0.272	
79	  HA	2649.899	812.304	-2767.198	 H	6	ILE6	0.087	
80	  HB	2649.165	809.307	-2767.210	 H	6	ILE6	0.019	
81	2HG1	2648.860	810.391	-2764.909	 H	6	ILE6	0.024	
82	3HG1	2650.558	810.813	-2764.900	 H	6	ILE6	0.024	
83	1HG2	2651.324	809.737	-2768.479	 H	6	ILE6	0.088	
84	2HG2	2651.987	810.613	-2767.078	 H	6	ILE6	0.088	
85	3HG2	2651.654	808.869	-2767.002	 H	6	ILE6	0.088	
86	1HD1	2649.383	807.928	-2765.045	 H	6	ILE6	0.019	
87	2HD1	2651.122	808.303	-2764.926	 H	6	ILE6	0.019	
88	3HD1	2650.035	808.712	-2763.587	 H	6	ILE6	0.019	
89	   N	2648.221	810.769	-2769.548	N.am	7	LEU7	-0.416	
90	  CA	2648.166	810.733	-2771.006	C.3	7	LEU7	-0.052	
91	   C	2648.094	812.128	-2771.579	C.2	7	LEU7	0.597	
92	   O	2648.815	812.490	-2772.521	O.2	7	LEU7	-0.568	
93	  CB	2646.963	809.873	-2771.487	C.3	7	LEU7	-0.110	
94	  CG	2646.890	808.393	-2771.020	C.3	7	LEU7	0.353	
95	 CD1	2645.700	807.688	-2771.685	C.3	7	LEU7	-0.412	
96	 CD2	2648.183	807.614	-2771.312	C.3	7	LEU7	-0.412	
97	   H	2647.529	810.282	-2768.996	 H	7	LEU7	0.272	
98	  HA	2649.108	810.292	-2771.381	 H	7	LEU7	0.092	
99	 2HB	2646.940	809.889	-2772.594	 H	7	LEU7	0.046	
100	 3HB	2646.023	810.376	-2771.183	 H	7	LEU7	0.046	
101	  HG	2646.720	808.385	-2769.923	 H	7	LEU7	-0.036	
102	1HD1	2644.742	808.197	-2771.463	 H	7	LEU7	0.100	
103	2HD1	2645.799	807.647	-2772.787	 H	7	LEU7	0.100	
104	3HD1	2645.592	806.647	-2771.329	 H	7	LEU7	0.100	
105	1HD2	2648.458	807.644	-2772.381	 H	7	LEU7	0.100	
106	2HD2	2649.036	808.025	-2770.740	 H	7	LEU7	0.100	
107	3HD2	2648.101	806.552	-2771.015	 H	7	LEU7	0.100	
108	   N	2647.257	812.969	-2771.073	N.am	8	ASP8	-0.516	
109	  CA	2647.188	814.318	-2771.627	C.3	8	ASP8	0.038	
110	   C	2648.535	814.997	-2771.571	C.2	8	ASP8	0.537	
111	   O	2649.008	815.602	-2772.546	O.2	8	ASP8	-0.582	
112	  CB	2646.110	815.158	-2770.886	C.3	8	ASP8	-0.030	
113	  CG	2645.892	816.579	-2771.427	C.2	8	ASP8	0.799	
114	 OD1	2645.956	816.777	-2772.658	O.co2	8	ASP8	-0.801	
115	 OD2	2645.700	817.505	-2770.613	O.co2	8	ASP8	-0.801	
116	   H	2646.659	812.699	-2770.305	 H	8	ASP8	0.294	
117	  HA	2646.905	814.240	-2772.694	 H	8	ASP8	0.088	
118	 2HB	2646.367	815.242	-2769.814	 H	8	ASP8	-0.012	
119	 3HB	2645.131	814.654	-2770.919	 H	8	ASP8	-0.012	
120	   N	2649.215	814.948	-2770.475	N.am	9	GLU9	-0.516	
121	  CA	2650.518	815.605	-2770.421	C.3	9	GLU9	0.040	
122	   C	2651.435	815.076	-2771.497	C.2	9	GLU9	0.537	
123	   O	2652.099	815.830	-2772.223	O.2	9	GLU9	-0.582	
124	  CB	2651.151	815.398	-2769.015	C.3	9	GLU9	0.056	
125	  CG	2652.534	816.089	-2768.787	C.3	9	GLU9	0.014	
126	  CD	2653.236	815.876	-2767.458	C.2	9	GLU9	0.805	
127	 OE1	2652.715	815.186	-2766.562	O.co2	9	GLU9	-0.819	
128	 OE2	2654.356	816.414	-2767.327	O.co2	9	GLU9	-0.819	
129	   H	2648.851	814.462	-2769.668	 H	9	GLU9	0.294	
130	  HA	2650.376	816.687	-2770.596	 H	9	GLU9	0.111	
131	 2HB	2651.264	814.313	-2768.812	 H	9	GLU9	-0.017	
132	 3HB	2650.455	815.752	-2768.231	 H	9	GLU9	-0.017	
133	 2HG	2652.463	817.180	-2768.927	 H	9	GLU9	-0.043	
134	 3HG	2653.281	815.744	-2769.521	 H	9	GLU9	-0.043	
135	   N	2651.531	813.801	-2771.665	N.am	10	HIS10	-0.416	
136	  CA	2652.418	813.289	-2772.706	C.3	10	HIS10	-0.058	
137	   C	2652.052	813.853	-2774.057	C.2	10	HIS10	0.597	
138	   O	2652.904	814.317	-2774.829	O.2	10	HIS10	-0.568	
139	  CB	2652.254	811.760	-2772.700	C.3	10	HIS10	-0.007	
140	  CG	2653.539	811.049	-2772.392	C.2	10	HIS10	0.187	
141	 CD2	2653.921	810.715	-2771.100	C.2	10	HIS10	-0.221	
142	 ND1	2654.491	810.642	-2773.325	N.2	10	HIS10	-0.543	
143	 CE1	2655.397	810.084	-2772.501	C.2	10	HIS10	0.163	
144	 NE2	2655.135	810.082	-2771.166	N.pl3	10	HIS10	-0.280	
145	   H	2651.000	813.166	-2771.086	 H	10	HIS10	0.272	
146	  HA	2653.438	813.646	-2772.481	 H	10	HIS10	0.136	
147	 2HB	2651.888	811.393	-2773.680	 H	10	HIS10	0.037	
148	 3HB	2651.498	811.424	-2771.959	 H	10	HIS10	0.037	
149	 2HD	2653.335	810.930	-2770.210	 H	10	HIS10	0.186	
150	 1HE	2656.288	809.663	-2772.949	 H	10	HIS10	0.144	
151	 2HE	2655.702	809.705	-2770.393	 H	10	HIS10	0.334	
152	   N	2650.814	813.852	-2774.420	N.am	11	VAL11	-0.416	
153	  CA	2650.458	814.398	-2775.727	C.3	11	VAL11	-0.087	
154	   C	2650.924	815.828	-2775.860	C.2	11	VAL11	0.597	
155	   O	2651.525	816.232	-2776.864	O.2	11	VAL11	-0.568	
156	  CB	2648.897	814.292	-2775.946	C.3	11	VAL11	0.299	
157	 CG1	2648.329	814.995	-2777.209	C.3	11	VAL11	-0.319	
158	 CG2	2648.372	812.838	-2776.018	C.3	11	VAL11	-0.319	
159	   H	2650.101	813.480	-2773.809	 H	11	VAL11	0.272	
160	  HA	2650.978	813.815	-2776.509	 H	11	VAL11	0.097	
161	  HB	2648.410	814.773	-2775.071	 H	11	VAL11	-0.030	
162	1HG1	2648.767	814.603	-2778.146	 H	11	VAL11	0.079	
163	2HG1	2647.230	814.889	-2777.291	 H	11	VAL11	0.079	
164	3HG1	2648.508	816.088	-2777.200	 H	11	VAL11	0.079	
165	1HG2	2648.662	812.251	-2775.127	 H	11	VAL11	0.079	
166	2HG2	2647.266	812.802	-2776.061	 H	11	VAL11	0.079	
167	3HG2	2648.753	812.296	-2776.904	 H	11	VAL11	0.079	
168	   N	2650.688	816.654	-2774.898	N.am	12	GLN12	-0.416	
169	  CA	2651.137	818.037	-2775.026	C.3	12	GLN12	-0.003	
170	   C	2652.626	818.104	-2775.264	C.2	12	GLN12	0.597	
171	   O	2653.114	818.811	-2776.144	O.2	12	GLN12	-0.568	
172	  CB	2650.746	818.805	-2773.744	C.3	12	GLN12	-0.004	
173	  CG	2651.108	820.327	-2773.714	C.3	12	GLN12	-0.064	
174	  CD	2650.806	821.141	-2772.449	C.2	12	GLN12	0.695	
175	 NE2	2650.239	820.566	-2771.420	N.pl3	12	GLN12	-0.941	
176	 OE1	2651.109	822.322	-2772.372	O.2	12	GLN12	-0.609	
177	   H	2650.199	816.349	-2774.069	 H	12	GLN12	0.272	
178	  HA	2650.637	818.493	-2775.901	 H	12	GLN12	0.085	
179	 2HB	2651.222	818.305	-2772.874	 H	12	GLN12	0.017	
180	 3HB	2649.656	818.699	-2773.580	 H	12	GLN12	0.017	
181	 2HG	2650.630	820.848	-2774.564	 H	12	GLN12	0.035	
182	 3HG	2652.191	820.469	-2773.880	 H	12	GLN12	0.035	
183	1HE2	2650.133	821.161	-2770.597	 H	12	GLN12	0.425	
184	2HE2	2650.075	819.562	-2771.523	 H	12	GLN12	0.425	
185	   N	2653.411	817.397	-2774.523	N.am	13	ARG13	-0.348	
186	  CA	2654.851	817.462	-2774.754	C.3	13	ARG13	-0.264	
187	   C	2655.187	817.089	-2776.179	C.2	13	ARG13	0.734	
188	   O	2655.956	817.761	-2776.864	O.2	13	ARG13	-0.589	
189	  CB	2655.564	816.524	-2773.740	C.3	13	ARG13	-0.001	
190	  CG	2657.110	816.676	-2773.660	C.3	13	ARG13	0.039	
191	  CD	2657.737	815.689	-2772.661	C.3	13	ARG13	0.049	
192	  NE	2659.214	815.896	-2772.611	N.pl3	13	ARG13	-0.530	
193	  CZ	2660.062	815.205	-2771.856	C.cat	13	ARG13	0.808	
194	 NH1	2659.697	814.241	-2771.058	N.pl3	13	ARG13	-0.863	
195	 NH2	2661.322	815.503	-2771.913	N.pl3	13	ARG13	-0.863	
196	   H	2653.035	816.808	-2773.794	 H	13	ARG13	0.275	
197	  HA	2655.176	818.508	-2774.597	 H	13	ARG13	0.156	
198	 2HB	2655.298	815.473	-2773.978	 H	13	ARG13	0.033	
199	 3HB	2655.140	816.691	-2772.729	 H	13	ARG13	0.033	
200	 2HG	2657.358	817.721	-2773.381	 H	13	ARG13	0.029	
201	 3HG	2657.560	816.519	-2774.661	 H	13	ARG13	0.029	
202	 2HD	2657.492	814.649	-2772.969	 H	13	ARG13	0.069	
203	 3HD	2657.281	815.836	-2771.659	 H	13	ARG13	0.069	
204	  HE	2659.665	816.618	-2773.183	 H	13	ARG13	0.346	
205	1HH1	2658.691	814.055	-2771.060	 H	13	ARG13	0.448	
206	2HH1	2660.410	813.758	-2770.509	 H	13	ARG13	0.448	
207	1HH2	2661.589	816.261	-2772.545	 H	13	ARG13	0.448	
208	2HH2	2661.957	814.962	-2771.325	 H	13	ARG13	0.448	
209	   N	2654.650	816.035	-2776.693	N.am	14	VAL14	-0.416	
210	  CA	2654.975	815.675	-2778.070	C.3	14	VAL14	-0.087	
211	   C	2654.645	816.804	-2779.016	C.2	14	VAL14	0.597	
212	   O	2655.438	817.185	-2779.886	O.2	14	VAL14	-0.568	
213	  CB	2654.202	814.358	-2778.476	C.3	14	VAL14	0.299	
214	 CG1	2654.291	813.938	-2779.970	C.3	14	VAL14	-0.319	
215	 CG2	2654.634	813.106	-2777.676	C.3	14	VAL14	-0.319	
216	   H	2654.015	815.467	-2776.150	 H	14	VAL14	0.272	
217	  HA	2656.063	815.497	-2778.145	 H	14	VAL14	0.097	
218	  HB	2653.126	814.529	-2778.260	 H	14	VAL14	-0.030	
219	1HG1	2655.332	813.761	-2780.299	 H	14	VAL14	0.079	
220	2HG1	2653.717	813.015	-2780.181	 H	14	VAL14	0.079	
221	3HG1	2653.862	814.700	-2780.648	 H	14	VAL14	0.079	
222	1HG2	2654.547	813.265	-2776.585	 H	14	VAL14	0.079	
223	2HG2	2653.997	812.229	-2777.907	 H	14	VAL14	0.079	
224	3HG2	2655.681	812.815	-2777.881	 H	14	VAL14	0.079	
225	   N	2653.500	817.390	-2778.915	N.am	15	MET15	-0.416	
226	  CA	2653.180	818.483	-2779.829	C.3	15	MET15	-0.024	
227	   C	2654.210	819.583	-2779.741	C.2	15	MET15	0.597	
228	   O	2654.712	820.093	-2780.754	O.2	15	MET15	-0.568	
229	  CB	2651.759	819.029	-2779.520	C.3	15	MET15	0.034	
230	  CG	2650.596	818.031	-2779.710	C.3	15	MET15	0.002	
231	  SD	2649.023	818.897	-2779.596	S.3	15	MET15	-0.274	
232	  CE	2647.942	817.468	-2779.459	C.3	15	MET15	-0.054	
233	   H	2652.835	817.098	-2778.213	 H	15	MET15	0.272	
234	  HA	2653.206	818.095	-2780.864	 H	15	MET15	0.088	
235	 2HB	2651.556	819.907	-2780.162	 H	15	MET15	0.024	
236	 3HB	2651.723	819.422	-2778.483	 H	15	MET15	0.024	
237	 2HG	2650.640	817.245	-2778.933	 H	15	MET15	0.044	
238	 3HG	2650.659	817.515	-2780.687	 H	15	MET15	0.044	
239	 1HE	2648.085	816.779	-2780.311	 H	15	MET15	0.068	
240	 2HE	2648.151	816.915	-2778.526	 H	15	MET15	0.068	
241	 3HE	2646.884	817.783	-2779.442	 H	15	MET15	0.068	
242	   N	2654.580	820.004	-2778.579	N.am	16	LYS16	-0.348	
243	  CA	2655.576	821.068	-2778.495	C.3	16	LYS16	-0.240	
244	   C	2656.847	820.677	-2779.211	C.2	16	LYS16	0.734	
245	   O	2656.971	819.582	-2779.778	O.2	16	LYS16	-0.589	
246	  CB	2655.857	821.396	-2777.004	C.3	16	LYS16	-0.009	
247	  CG	2656.850	822.569	-2776.807	C.3	16	LYS16	0.019	
248	  CD	2657.201	822.878	-2775.349	C.3	16	LYS16	-0.048	
249	  CE	2658.241	824.006	-2775.307	C.3	16	LYS16	-0.014	
250	  NZ	2658.454	824.425	-2773.911	N.4	16	LYS16	-0.385	
251	   H	2654.185	819.604	-2777.740	 H	16	LYS16	0.275	
252	  HA	2655.173	821.965	-2779.000	 H	16	LYS16	0.143	
253	 2HB	2656.238	820.490	-2776.488	 H	16	LYS16	0.036	
254	 3HB	2654.906	821.637	-2776.489	 H	16	LYS16	0.036	
255	 2HG	2656.453	823.478	-2777.300	 H	16	LYS16	0.010	
256	 3HG	2657.806	822.350	-2777.318	 H	16	LYS16	0.010	
257	 2HD	2657.603	821.968	-2774.858	 H	16	LYS16	0.062	
258	 3HD	2656.284	823.153	-2774.792	 H	16	LYS16	0.062	
259	 2HE	2657.911	824.877	-2775.910	 H	16	LYS16	0.113	
260	 3HE	2659.197	823.669	-2775.761	 H	16	LYS16	0.113	
261	 1HZ	2658.416	823.615	-2773.280	 H	16	LYS16	0.340	
262	 2HZ	2659.382	824.841	-2773.784	 H	16	LYS16	0.340	
263	 3HZ	2657.727	825.094	-2773.700	 H	16	LYS16	0.340	
@<TRIPOS>BOND
1 1 2 1
2 1 10 1
3 2 3 1
4 2 5 1
5 2 11 1
6 3 4 2
7 3 16 1
8 5 6 1
9 6 7 1
10 7 8 2
11 7 9 1
12 5 12 1
13 5 13 1
14 6 14 1
15 6 15 1
16 16 17 1
17 16 24 1
18 17 18 1
19 17 20 1
20 17 25 1
21 18 19 2
22 18 30 1
23 20 21 1
24 21 22 1
25 21 23 2
26 20 26 1
27 20 27 1
28 22 28 1
29 22 29 1
30 30 31 1
31 30 36 1
32 31 32 1
33 31 34 1
34 31 37 1
35 32 33 2
36 32 44 1
37 34 35 1
38 35 36 1
39 34 38 1
40 34 39 1
41 35 40 1
42 35 41 1
43 36 42 1
44 36 43 1
45 44 45 1
46 44 53 1
47 45 46 1
48 45 48 1
49 45 54 1
50 46 47 2
51 46 59 1
52 48 49 1
53 49 50 1
54 50 51 2
55 50 52 1
56 48 55 1
57 48 56 1
58 49 57 1
59 49 58 1
60 59 60 1
61 59 65 1
62 60 61 1
63 60 63 1
64 60 66 1
65 61 62 2
66 61 70 1
67 63 64 1
68 63 67 1
69 63 68 1
70 64 69 1
71 70 71 1
72 70 78 1
73 71 72 1
74 71 74 1
75 71 79 1
76 72 73 2
77 72 89 1
78 74 75 1
79 74 76 1
80 75 77 1
81 74 80 1
82 75 81 1
83 75 82 1
84 76 83 1
85 76 84 1
86 76 85 1
87 77 86 1
88 77 87 1
89 77 88 1
90 89 90 1
91 89 97 1
92 90 91 1
93 90 93 1
94 90 98 1
95 91 92 2
96 91 108 1
97 93 94 1
98 94 95 1
99 94 96 1
100 93 99 1
101 93 100 1
102 94 101 1
103 95 102 1
104 95 103 1
105 95 104 1
106 96 105 1
107 96 106 1
108 96 107 1
109 108 109 1
110 108 116 1
111 109 110 1
112 109 112 1
113 109 117 1
114 110 111 2
115 110 120 1
116 112 113 1
117 113 114 2
118 113 115 1
119 112 118 1
120 112 119 1
121 120 121 1
122 120 129 1
123 121 122 1
124 121 124 1
125 121 130 1
126 122 123 2
127 122 135 1
128 124 125 1
129 125 126 1
130 126 127 2
131 126 128 1
132 124 131 1
133 124 132 1
134 125 133 1
135 125 134 1
136 135 136 1
137 135 145 1
138 136 137 1
139 136 139 1
140 136 146 1
141 137 138 2
142 137 152 1
143 139 140 1
144 140 141 2
145 141 144 1
146 140 142 1
147 142 143 2
148 143 144 1
149 139 147 1
150 139 148 1
151 141 149 1
152 143 150 1
153 144 151 1
154 152 153 1
155 152 159 1
156 153 154 1
157 153 156 1
158 153 160 1
159 154 155 2
160 154 168 1
161 156 157 1
162 156 158 1
163 156 161 1
164 157 162 1
165 157 163 1
166 157 164 1
167 158 165 1
168 158 166 1
169 158 167 1
170 168 169 1
171 168 177 1
172 169 170 1
173 169 172 1
174 169 178 1
175 170 171 2
176 170 185 1
177 172 173 1
178 173 174 1
179 174 175 1
180 174 176 2
181 172 179 1
182 172 180 1
183 173 181 1
184 173 182 1
185 175 183 1
186 175 184 1
187 185 186 1
188 185 196 1
189 186 187 1
190 186 189 1
191 186 197 1
192 187 188 2
193 187 209 1
194 189 190 1
195 190 191 1
196 191 192 1
197 192 193 1
198 193 194 2
199 193 195 1
200 189 198 1
201 189 199 1
202 190 200 1
203 190 201 1
204 191 202 1
205 191 203 1
206 192 204 1
207 194 205 1
208 194 206 1
209 195 207 1
210 195 208 1
211 209 210 1
212 209 216 1
213 210 211 1
214 210 213 1
215 210 217 1
216 211 212 2
217 211 225 1
218 213 214 1
219 213 215 1
220 213 218 1
221 214 219 1
222 214 220 1
223 214 221 1
224 215 222 1
225 215 223 1
226 215 224 1
227 225 226 1
228 225 233 1
229 226 227 1
230 226 229 1
231 226 234 1
232 227 228 2
233 227 242 1
234 229 230 1
235 230 231 1
236 231 232 1
237 229 235 1
238 229 236 1
239 230 237 1
240 230 238 1
241 232 239 1
242 232 240 1
243 232 241 1
244 242 243 1
245 242 251 1
246 243 244 1
247 243 246 1
248 243 252 1
249 244 245 2
250 246 247 1
251 247 248 1
252 248 249 1
253 249 250 1
254 250 263 1
255 246 253 1
256 246 254 1
257 247 255 1
258 247 256 1
259 248 257 1
260 248 258 1
261 249 259 1
262 249 260 1
263 250 261 1
264 250 262 1
@<TRIPOS>SUBSTRUCTURE
1	GLU1	1	RESIDUE	1 ****	GLU
2	ASN2	16	RESIDUE	1 ****	ASN
3	PRO3	30	RESIDUE	1 ****	PRO
4	GLU4	44	RESIDUE	1 ****	GLU
5	SER5	59	RESIDUE	1 ****	SER
6	ILE6	70	RESIDUE	1 ****	ILE
7	LEU7	89	RESIDUE	1 ****	LEU
8	ASP8	108	RESIDUE	1 ****	ASP
9	GLU9	120	RESIDUE	1 ****	GLU
10	HIS10	135	RESIDUE	1 ****	HIS
11	VAL11	152	RESIDUE	1 ****	VAL
12	GLN12	168	RESIDUE	1 ****	GLN
13	ARG13	185	RESIDUE	1 ****	ARG
14	VAL14	209	RESIDUE	1 ****	VAL
15	MET15	225	RESIDUE	1 ****	MET
16	LYS16	242	RESIDUE	1 ****	LYS
