REMARK WARNING: 32 MAX_TORS EXCEEDED!!!
REMARK  69 active torsions:
REMARK  status: ('A' for Active; 'I' for Inactive)
REMARK    1  A    between atoms: N_1  and  CA_2 
REMARK    2  A    between atoms: CA_2  and  C_3 
REMARK    3  A    between atoms: CA_2  and  CB_5 
REMARK       I    between atoms: C_3  and  N_11 
REMARK    4  A    between atoms: CB_5  and  CG_6 
REMARK    5  A    between atoms: CG_6  and  CD_7 
REMARK    6  A    between atoms: N_11  and  CA_12 
REMARK    7  A    between atoms: CA_12  and  C_13 
REMARK    8  A    between atoms: CA_12  and  CB_15 
REMARK       I    between atoms: C_13  and  N_22 
REMARK    9  A    between atoms: CB_15  and  CG_16 
REMARK       I    between atoms: CG_16  and  ND2_17 
REMARK   10  A    between atoms: CA_23  and  C_24 
REMARK       I    between atoms: C_24  and  N_29 
REMARK   11  A    between atoms: N_29  and  CA_30 
REMARK   12  A    between atoms: CA_30  and  C_31 
REMARK   13  A    between atoms: CA_30  and  CB_33 
REMARK       I    between atoms: C_31  and  N_39 
REMARK   14  A    between atoms: CB_33  and  CG_34 
REMARK   15  A    between atoms: CG_34  and  CD_35 
REMARK   16  A    between atoms: N_39  and  CA_40 
REMARK   17  A    between atoms: CA_40  and  C_41 
REMARK   18  A    between atoms: CA_40  and  CB_43 
REMARK       I    between atoms: C_41  and  N_47 
REMARK   19  A    between atoms: CB_43  and  OG_44 
REMARK   20  A    between atoms: N_47  and  CA_48 
REMARK   21  A    between atoms: CA_48  and  C_49 
REMARK   22  A    between atoms: CA_48  and  CB_51 
REMARK       I    between atoms: C_49  and  N_56 
REMARK   23  A    between atoms: CB_51  and  CG1_52 
REMARK   24  A    between atoms: N_56  and  CA_57 
REMARK   25  A    between atoms: CA_57  and  C_58 
REMARK   26  A    between atoms: CA_57  and  CB_60 
REMARK       I    between atoms: C_58  and  N_65 
REMARK   27  A    between atoms: CB_60  and  CG_61 
REMARK   28  A    between atoms: N_65  and  CA_66 
REMARK   29  A    between atoms: CA_66  and  C_67 
REMARK   30  A    between atoms: CA_66  and  CB_69 
REMARK       I    between atoms: C_67  and  N_74 
REMARK   31  A    between atoms: CB_69  and  CG_70 
REMARK   32  A    between atoms: N_74  and  CA_75 
REMARK   33  A    between atoms: CA_75  and  C_76 
REMARK   34  A    between atoms: CA_75  and  CB_78 
REMARK       I    between atoms: C_76  and  N_84 
REMARK   35  A    between atoms: CB_78  and  CG_79 
REMARK   36  A    between atoms: CG_79  and  CD_80 
REMARK   37  A    between atoms: N_84  and  CA_85 
REMARK   38  A    between atoms: CA_85  and  C_86 
REMARK   39  A    between atoms: CA_85  and  CB_88 
REMARK       I    between atoms: C_86  and  N_96 
REMARK   40  A    between atoms: CB_88  and  CG_89 
REMARK   41  A    between atoms: N_96  and  CA_97 
REMARK   42  A    between atoms: CA_97  and  C_98 
REMARK   43  A    between atoms: CA_97  and  CB_100 
REMARK       I    between atoms: C_98  and  N_104 
REMARK   44  A    between atoms: CB_100  and  OG_101 
REMARK   45  A    between atoms: N_104  and  CA_105 
REMARK   46  A    between atoms: CA_105  and  C_106 
REMARK   47  A    between atoms: CA_105  and  CB_108 
REMARK       I    between atoms: C_106  and  N_116 
REMARK   48  A    between atoms: CB_108  and  CG_109 
REMARK   49  A    between atoms: CG_109  and  CD_110 
REMARK       I    between atoms: CD_110  and  NE2_111 
REMARK   50  A    between atoms: N_116  and  CA_117 
REMARK   51  A    between atoms: CA_117  and  C_118 
REMARK   52  A    between atoms: CA_117  and  CB_120 
REMARK       I    between atoms: C_118  and  N_133 
REMARK   53  A    between atoms: CB_120  and  CG_121 
REMARK   54  A    between atoms: CG_121  and  CD_122 
REMARK   55  A    between atoms: CD_122  and  NE_123 
REMARK       I    between atoms: NE_123  and  CZ_124 
REMARK       I    between atoms: CZ_124  and  NH1_125 
REMARK       I    between atoms: CZ_124  and  NH2_126 
REMARK   56  A    between atoms: N_133  and  CA_134 
REMARK   57  A    between atoms: CA_134  and  C_135 
REMARK   58  A    between atoms: CA_134  and  CB_137 
REMARK       I    between atoms: C_135  and  N_141 
REMARK   59  A    between atoms: N_141  and  CA_142 
REMARK   60  A    between atoms: CA_142  and  C_143 
REMARK   61  A    between atoms: CA_142  and  CB_145 
REMARK       I    between atoms: C_143  and  N_150 
REMARK   62  A    between atoms: CB_145  and  CG_146 
REMARK   63  A    between atoms: CG_146  and  SD_147 
REMARK   64  A    between atoms: N_150  and  CA_151 
REMARK   65  A    between atoms: CA_151  and  C_152 
REMARK   66  A    between atoms: CA_151  and  CB_154 
REMARK   67  A    between atoms: CB_154  and  CG_155 
REMARK   68  A    between atoms: CG_155  and  CD_156 
REMARK   69  A    between atoms: CD_156  and  NE_157 
REMARK       I    between atoms: NE_157  and  CZ_158 
REMARK       I    between atoms: CZ_158  and  NH1_159 
ROOT
ATOM      1  C   GLU d   9    1789.953 539.551-1830.618  0.00  0.00     0.241 C 
ATOM      2  O   GLU d   9    1790.617 540.306-1831.344  0.00  0.00    -0.271 OA
ATOM      3  N   HIS d  10    1790.051 538.276-1830.788  0.00  0.00    -0.346 N 
ATOM      4  H   HIS d  10    1789.520 537.640-1830.209  0.00  0.00     0.163 HD
ENDROOT
BRANCH   1   5
ATOM      5  CA  GLU d   9    1789.035 540.078-1829.542  0.00  0.00     0.177 C 
BRANCH   5   6
ATOM      6  N   GLU d   9    1787.733 539.420-1829.597  0.00  0.00    -0.346 N 
ATOM      7  C   ASP d   8    1787.053 539.470-1830.693  0.00  0.00     0.241 C 
ATOM      8  O   ASP d   8    1787.525 540.076-1831.667  0.00  0.00    -0.271 OA
ATOM      9  H   GLU d   9    1787.370 538.933-1828.790  0.00  0.00     0.163 HD
BRANCH   7  10
ATOM     10  CA  ASP d   8    1785.706 538.790-1830.750  0.00  0.00     0.186 C 
BRANCH  10  11
ATOM     11  N   ASP d   8    1785.777 537.440-1830.197  0.00  0.00    -0.346 N 
ATOM     12  C   LEU d   7    1786.615 536.600-1830.703  0.00  0.00     0.241 C 
ATOM     13  O   LEU d   7    1787.335 536.963-1831.645  0.00  0.00    -0.271 OA
ATOM     14  H   ASP d   8    1785.179 537.169-1829.429  0.00  0.00     0.163 HD
BRANCH  12  15
ATOM     15  CA  LEU d   7    1786.687 535.205-1830.131  0.00  0.00     0.177 C 
BRANCH  15  16
ATOM     16  N   LEU d   7    1786.742 535.241-1828.672  0.00  0.00    -0.346 N 
ATOM     17  C   ILE d   6    1787.688 535.904-1828.098  0.00  0.00     0.241 C 
ATOM     18  O   ILE d   6    1788.522 536.492-1828.802  0.00  0.00    -0.271 OA
ATOM     19  H   LEU d   7    1786.050 534.754-1828.121  0.00  0.00     0.163 HD
BRANCH  17  20
ATOM     20  CA  ILE d   6    1787.745 535.942-1826.590  0.00  0.00     0.180 C 
BRANCH  20  21
ATOM     21  N   ILE d   6    1786.432 536.237-1826.024  0.00  0.00    -0.346 N 
ATOM     22  C   SER d   5    1785.827 537.320-1826.379  0.00  0.00     0.243 C 
ATOM     23  O   SER d   5    1786.374 538.073-1827.184  0.00  0.00    -0.271 OA
ATOM     24  H   ILE d   6    1786.004 535.602-1825.365  0.00  0.00     0.163 HD
BRANCH  22  25
ATOM     25  CA  SER d   5    1784.468 537.625-1825.793  0.00  0.00     0.200 C 
BRANCH  25  26
ATOM     26  N   SER d   5    1783.599 536.454-1825.851  0.00  0.00    -0.344 N 
ATOM     27  C   GLU d   4    1783.371 535.901-1826.995  0.00  0.00     0.241 C 
ATOM     28  O   GLU d   4    1783.898 536.381-1828.009  0.00  0.00    -0.271 OA
ATOM     29  H   SER d   5    1783.182 536.082-1825.010  0.00  0.00     0.163 HD
BRANCH  27  30
ATOM     30  CA  GLU d   4    1782.472 534.690-1827.056  0.00  0.00     0.177 C 
BRANCH  30  31
ATOM     31  N   GLU d   4    1782.832 533.719-1826.026  0.00  0.00    -0.346 N 
ATOM     32  C   PRO d   3    1784.037 533.259-1825.994  0.00  0.00     0.241 C 
ATOM     33  O   PRO d   3    1784.860 533.642-1826.825  0.00  0.00    -0.271 OA
ATOM     34  H   GLU d   4    1782.148 533.412-1825.349  0.00  0.00     0.163 HD
BRANCH  32  35
ATOM     35  CA  PRO d   3    1784.435 532.236-1824.917  0.00  0.00     0.179 C 
ATOM     36  N   PRO d   3    1783.983 532.645-1823.595  0.00  0.00    -0.337 N 
ATOM     37  C   ASN d   2    1784.505 533.640-1822.961  0.00  0.00     0.243 C 
ATOM     38  CD  PRO d   3    1782.905 531.852-1823.046  0.00  0.00     0.127 C 
ATOM     39  O   ASN d   2    1785.419 534.270-1823.490  0.00  0.00    -0.271 OA
ATOM     40  CG  PRO d   3    1782.447 531.033-1824.256  0.00  0.00     0.022 C 
ATOM     41  CB  PRO d   3    1783.731 530.881-1825.086  0.00  0.00     0.037 C 
BRANCH  37  42
ATOM     42  CA  ASN d   2    1783.973 533.996-1821.593  0.00  0.00     0.185 C 
BRANCH  42  43
ATOM     43  N   ASN d   2    1782.514 534.034-1821.593  0.00  0.00    -0.346 N 
ATOM     44  C   GLU d   1    1781.909 534.820-1822.418  0.00  0.00     0.242 C 
ATOM     45  O   GLU d   1    1782.585 535.519-1823.186  0.00  0.00    -0.271 OA
ATOM     46  H   ASN d   2    1781.986 533.455-1820.956  0.00  0.00     0.163 HD
BRANCH  44  47
ATOM     47  CA  GLU d   1    1780.400 534.860-1822.418  0.00  0.00     0.191 C 
BRANCH  47  48
ATOM     48  N   GLU d   1    1779.841 533.511-1822.418  0.00  0.00    -0.326 NA
ATOM     49  H   GLU d   1    1780.468 532.632-1822.418  0.00  0.00     0.180 HD
ENDBRANCH  47  48
BRANCH  47  50
ATOM     50  CB  GLU d   1    1779.877 535.645-1821.181  0.00  0.00     0.047 C 
BRANCH  50  51
ATOM     51  CG  GLU d   1    1780.352 537.130-1821.070  0.00  0.00     0.116 C 
BRANCH  51  52
ATOM     52  CD  GLU d   1    1779.928 537.934-1819.855  0.00  0.00     0.172 C 
ATOM     53  OE1 GLU d   1    1779.200 537.432-1818.977  0.00  0.00    -0.648 OA
ATOM     54  OE2 GLU d   1    1780.358 539.104-1819.783  0.00  0.00    -0.648 OA
ENDBRANCH  51  52
ENDBRANCH  50  51
ENDBRANCH  47  50
ENDBRANCH  44  47
ENDBRANCH  42  43
BRANCH  42  55
ATOM     55  CB  ASN d   2    1784.465 532.972-1820.528  0.00  0.00     0.137 C 
BRANCH  55  56
ATOM     56  CG  ASN d   2    1784.002 533.196-1819.085  0.00  0.00     0.217 C 
ATOM     57  ND2 ASN d   2    1784.596 534.111-1818.367  0.00  0.00    -0.370 N 
ATOM     58 21HD ASN d   2    1784.116 534.284-1817.480  0.00  0.00     0.159 HD
ATOM     59 22HD ASN d   2    1785.298 534.683-1818.836  0.00  0.00     0.159 HD
ATOM     60  OD1 ASN d   2    1783.081 532.563-1818.591  0.00  0.00    -0.274 OA
ENDBRANCH  55  56
ENDBRANCH  42  55
ENDBRANCH  37  42
ENDBRANCH  32  35
ENDBRANCH  30  31
BRANCH  30  61
ATOM     61  CB  GLU d   4    1780.984 535.109-1826.885  0.00  0.00     0.045 C 
BRANCH  61  62
ATOM     62  CG  GLU d   4    1780.436 536.113-1827.951  0.00  0.00     0.116 C 
BRANCH  62  63
ATOM     63  CD  GLU d   4    1779.009 536.609-1827.807  0.00  0.00     0.172 C 
ATOM     64  OE1 GLU d   4    1778.283 536.211-1826.877  0.00  0.00    -0.648 OA
ATOM     65  OE2 GLU d   4    1778.620 537.439-1828.656  0.00  0.00    -0.648 OA
ENDBRANCH  62  63
ENDBRANCH  61  62
ENDBRANCH  30  61
ENDBRANCH  27  30
ENDBRANCH  25  26
BRANCH  25  66
ATOM     66  CB  SER d   5    1784.580 538.158-1824.342  0.00  0.00     0.199 C 
BRANCH  66  67
ATOM     67  OG  SER d   5    1785.311 537.278-1823.481  0.00  0.00    -0.398 OA
ATOM     68  HG  SER d   5    1784.823 536.453-1823.431  0.00  0.00     0.209 HD
ENDBRANCH  66  67
ENDBRANCH  25  66
ENDBRANCH  22  25
ENDBRANCH  20  21
BRANCH  20  69
ATOM     69  CB  ILE d   6    1788.345 534.606-1825.991  0.00  0.00     0.013 C 
ATOM     70  CG2 ILE d   6    1789.786 534.304-1826.506  0.00  0.00     0.012 C 
BRANCH  69  71
ATOM     71  CG1 ILE d   6    1788.365 534.544-1824.429  0.00  0.00     0.002 C 
ATOM     72  CD1 ILE d   6    1788.634 533.155-1823.815  0.00  0.00     0.005 C 
ENDBRANCH  69  71
ENDBRANCH  20  69
ENDBRANCH  17  20
ENDBRANCH  15  16
BRANCH  15  73
ATOM     73  CB  LEU d   7    1785.484 534.344-1830.611  0.00  0.00     0.038 C 
BRANCH  73  74
ATOM     74  CG  LEU d   7    1785.412 532.865-1830.144  0.00  0.00    -0.020 C 
ATOM     75  CD1 LEU d   7    1784.222 532.159-1830.810  0.00  0.00     0.009 C 
ATOM     76  CD2 LEU d   7    1786.705 532.086-1830.436  0.00  0.00     0.009 C 
ENDBRANCH  73  74
ENDBRANCH  15  73
ENDBRANCH  12  15
ENDBRANCH  10  11
BRANCH  10  77
ATOM     77  CB  ASP d   8    1784.628 539.629-1830.008  0.00  0.00     0.147 C 
BRANCH  77  78
ATOM     78  CG  ASP d   8    1784.409 541.049-1830.548  0.00  0.00     0.175 C 
ATOM     79  OD1 ASP d   8    1784.473 541.249-1831.779  0.00  0.00    -0.648 OA
ATOM     80  OD2 ASP d   8    1784.217 541.975-1829.733  0.00  0.00    -0.648 OA
ENDBRANCH  77  78
ENDBRANCH  10  77
ENDBRANCH   7  10
ENDBRANCH   5   6
BRANCH   5  81
ATOM     81  CB  GLU d   9    1789.669 539.871-1828.137  0.00  0.00     0.045 C 
BRANCH  81  82
ATOM     82  CG  GLU d   9    1791.051 540.564-1827.907  0.00  0.00     0.116 C 
BRANCH  82  83
ATOM     83  CD  GLU d   9    1791.753 540.350-1826.579  0.00  0.00     0.172 C 
ATOM     84  OE1 GLU d   9    1791.232 539.659-1825.683  0.00  0.00    -0.648 OA
ATOM     85  OE2 GLU d   9    1792.872 540.889-1826.448  0.00  0.00    -0.648 OA
ENDBRANCH  82  83
ENDBRANCH  81  82
ENDBRANCH   5  81
ENDBRANCH   1   5
BRANCH   3  86
ATOM     86  CA  HIS d  10    1790.939 537.765-1831.829  0.00  0.00     0.182 C 
BRANCH  86  87
ATOM     87  C   HIS d  10    1790.571 538.330-1833.179  0.00  0.00     0.241 C 
ATOM     88  O   HIS d  10    1791.423 538.795-1833.951  0.00  0.00    -0.271 OA
ATOM     89  N   SER d  11    1789.333 538.329-1833.542  0.00  0.00    -0.344 N 
ATOM     90  H   SER d  11    1788.620 537.955-1832.932  0.00  0.00     0.163 HD
BRANCH  89  91
ATOM     91  CA  SER d  11    1788.979 538.875-1834.849  0.00  0.00     0.200 C 
BRANCH  91  92
ATOM     92  C   SER d  11    1789.443 540.307-1834.980  0.00  0.00     0.243 C 
ATOM     93  O   SER d  11    1790.041 540.708-1835.979  0.00  0.00    -0.271 OA
ATOM     94  N   GLN d  12    1789.206 541.132-1834.018  0.00  0.00    -0.346 N 
ATOM     95  H   GLN d  12    1788.717 540.827-1833.189  0.00  0.00     0.163 HD
BRANCH  94  96
ATOM     96  CA  GLN d  12    1789.654 542.515-1834.146  0.00  0.00     0.177 C 
BRANCH  96  97
ATOM     97  C   GLN d  12    1791.144 542.583-1834.383  0.00  0.00     0.241 C 
ATOM     98  O   GLN d  12    1791.631 543.290-1835.262  0.00  0.00    -0.271 OA
ATOM     99  N   ARG d  13    1791.929 541.876-1833.642  0.00  0.00    -0.346 N 
ATOM    100  H   ARG d  13    1791.552 541.286-1832.914  0.00  0.00     0.163 HD
BRANCH  99 101
ATOM    101  CA  ARG d  13    1793.369 541.941-1833.873  0.00  0.00     0.176 C 
BRANCH 101 102
ATOM    102  C   ARG d  13    1793.705 541.570-1835.298  0.00  0.00     0.241 C 
ATOM    103  O   ARG d  13    1794.474 542.241-1835.982  0.00  0.00    -0.271 OA
ATOM    104  N   VAL d  14    1793.169 540.515-1835.812  0.00  0.00    -0.346 N 
ATOM    105  H   VAL d  14    1792.534 539.947-1835.270  0.00  0.00     0.163 HD
BRANCH 104 106
ATOM    106  CA  VAL d  14    1793.494 540.155-1837.189  0.00  0.00     0.180 C 
BRANCH 106 107
ATOM    107  C   VAL d  14    1793.164 541.285-1838.135  0.00  0.00     0.241 C 
ATOM    108  O   VAL d  14    1793.958 541.666-1839.005  0.00  0.00    -0.271 OA
ATOM    109  N   MET d  15    1792.020 541.871-1838.034  0.00  0.00    -0.346 N 
ATOM    110  H   MET d  15    1791.354 541.578-1837.332  0.00  0.00     0.163 HD
BRANCH 109 111
ATOM    111  CA  MET d  15    1791.700 542.964-1838.948  0.00  0.00     0.177 C 
BRANCH 111 112
ATOM    112  C   MET d  15    1792.730 544.063-1838.860  0.00  0.00     0.241 C 
ATOM    113  O   MET d  15    1793.233 544.574-1839.873  0.00  0.00    -0.271 OA
ATOM    114  N   ARG d  16    1793.099 544.484-1837.698  0.00  0.00    -0.347 N 
ATOM    115  H   ARG d  16    1792.704 544.085-1836.859  0.00  0.00     0.163 HD
BRANCH 114 116
ATOM    116  CA  ARG d  16    1794.095 545.548-1837.614  0.00  0.00     0.162 C 
BRANCH 116 117
ATOM    117  C   ARG d  16    1795.366 545.155-1838.330  0.00  0.00     0.219 C 
ATOM    118  O   ARG d  16    1795.480 544.078-1838.911  0.00  0.00    -0.287 OA
ENDBRANCH 116 117
BRANCH 116 119
ATOM    119  CB  ARG d  16    1794.364 545.866-1836.116  0.00  0.00     0.035 C 
BRANCH 119 120
ATOM    120  CG  ARG d  16    1795.190 547.155-1835.844  0.00  0.00     0.023 C 
BRANCH 120 121
ATOM    121  CD  ARG d  16    1795.439 547.375-1834.342  0.00  0.00     0.138 C 
BRANCH 121 122
ATOM    122  NE  ARG d  16    1796.216 548.634-1834.142  0.00  0.00    -0.227 N 
ATOM    123  CZ  ARG d  16    1796.607 549.116-1832.966  0.00  0.00     0.665 C 
ATOM    124  NH1 ARG d  16    1796.359 548.532-1831.828  0.00  0.00    -0.235 N 
ATOM    125  NH2 ARG d  16    1797.272 550.229-1832.948  0.00  0.00    -0.235 N 
ATOM    126 11HH ARG d  16    1795.833 547.659-1831.912  0.00  0.00     0.174 HD
ATOM    127 12HH ARG d  16    1796.694 548.968-1830.966  0.00  0.00     0.174 HD
ATOM    128 21HH ARG d  16    1797.457 550.671-1833.850  0.00  0.00     0.174 HD
ATOM    129 22HH ARG d  16    1797.562 550.584-1832.036  0.00  0.00     0.174 HD
ATOM    130  HE  ARG d  16    1796.495 549.214-1834.939  0.00  0.00     0.177 HD
ENDBRANCH 121 122
ENDBRANCH 120 121
ENDBRANCH 119 120
ENDBRANCH 116 119
ENDBRANCH 114 116
ENDBRANCH 111 112
BRANCH 111 131
ATOM    131  CB  MET d  15    1790.278 543.510-1838.639  0.00  0.00     0.045 C 
BRANCH 131 132
ATOM    132  CG  MET d  15    1789.116 542.512-1838.831  0.00  0.00     0.076 C 
BRANCH 132 133
ATOM    133  SD  MET d  15    1787.542 543.378-1838.717  0.00  0.00    -0.173 SA
ATOM    134  CE  MET d  15    1786.461 541.949-1838.581  0.00  0.00     0.089 C 
ENDBRANCH 132 133
ENDBRANCH 131 132
ENDBRANCH 111 131
ENDBRANCH 109 111
ENDBRANCH 106 107
BRANCH 106 135
ATOM    135  CB  VAL d  14    1792.721 538.838-1837.595  0.00  0.00     0.009 C 
ATOM    136  CG1 VAL d  14    1792.811 538.419-1839.089  0.00  0.00     0.012 C 
ATOM    137  CG2 VAL d  14    1793.153 537.586-1836.795  0.00  0.00     0.012 C 
ENDBRANCH 106 135
ENDBRANCH 104 106
ENDBRANCH 101 102
BRANCH 101 138
ATOM    138  CB  ARG d  13    1794.082 541.003-1832.859  0.00  0.00     0.036 C 
BRANCH 138 139
ATOM    139  CG  ARG d  13    1795.627 541.155-1832.777  0.00  0.00     0.023 C 
BRANCH 139 140
ATOM    140  CD  ARG d  13    1796.254 540.168-1831.779  0.00  0.00     0.138 C 
BRANCH 140 141
ATOM    141  NE  ARG d  13    1797.731 540.375-1831.729  0.00  0.00    -0.227 N 
ATOM    142  CZ  ARG d  13    1798.579 539.683-1830.973  0.00  0.00     0.665 C 
ATOM    143  NH1 ARG d  13    1798.213 538.719-1830.176  0.00  0.00    -0.235 N 
ATOM    144  NH2 ARG d  13    1799.838 539.982-1831.030  0.00  0.00    -0.235 N 
ATOM    145 11HH ARG d  13    1797.208 538.533-1830.179  0.00  0.00     0.174 HD
ATOM    146 12HH ARG d  13    1798.926 538.236-1829.627  0.00  0.00     0.174 HD
ATOM    147 21HH ARG d  13    1800.106 540.740-1831.661  0.00  0.00     0.174 HD
ATOM    148 22HH ARG d  13    1800.473 539.441-1830.441  0.00  0.00     0.174 HD
ATOM    149  HE  ARG d  13    1798.182 541.097-1832.300  0.00  0.00     0.177 HD
ENDBRANCH 140 141
ENDBRANCH 139 140
ENDBRANCH 138 139
ENDBRANCH 101 138
ENDBRANCH  99 101
ENDBRANCH  96  97
BRANCH  96 150
ATOM    150  CB  GLN d  12    1789.263 543.283-1832.863  0.00  0.00     0.044 C 
BRANCH 150 151
ATOM    151  CG  GLN d  12    1789.624 544.805-1832.833  0.00  0.00     0.105 C 
BRANCH 151 152
ATOM    152  CD  GLN d  12    1789.321 545.619-1831.568  0.00  0.00     0.215 C 
ATOM    153  NE2 GLN d  12    1788.754 545.043-1830.539  0.00  0.00    -0.370 N 
ATOM    154 21HE GLN d  12    1788.647 545.637-1829.716  0.00  0.00     0.159 HD
ATOM    155 22HE GLN d  12    1788.590 544.039-1830.642  0.00  0.00     0.159 HD
ATOM    156  OE1 GLN d  12    1789.623 546.800-1831.491  0.00  0.00    -0.274 OA
ENDBRANCH 151 152
ENDBRANCH 150 151
ENDBRANCH  96 150
ENDBRANCH  94  96
ENDBRANCH  91  92
BRANCH  91 157
ATOM    157  CB  SER d  11    1787.457 538.744-1835.107  0.00  0.00     0.199 C 
BRANCH 157 158
ATOM    158  OG  SER d  11    1786.674 539.604-1834.272  0.00  0.00    -0.398 OA
ATOM    159  HG  SER d  11    1786.820 539.332-1833.363  0.00  0.00     0.209 HD
ENDBRANCH 157 158
ENDBRANCH  91 157
ENDBRANCH  89  91
ENDBRANCH  86  87
BRANCH  86 160
ATOM    160  CB  HIS d  10    1790.775 536.236-1831.824  0.00  0.00     0.095 C 
BRANCH 160 161
ATOM    161  CG  HIS d  10    1792.061 535.527-1831.516  0.00  0.00     0.053 A 
ATOM    162  CD2 HIS d  10    1792.443 535.191-1830.224  0.00  0.00     0.116 A 
ATOM    163  NE2 HIS d  10    1793.658 534.560-1830.291  0.00  0.00    -0.359 N 
ATOM    164  CE1 HIS d  10    1793.920 534.564-1831.626  0.00  0.00     0.207 A 
ATOM    165  2HE HIS d  10    1794.225 534.183-1829.518  0.00  0.00     0.166 HD
ATOM    166  ND1 HIS d  10    1793.013 535.122-1832.449  0.00  0.00    -0.247 NA
ENDBRANCH 160 161
ENDBRANCH  86 160
ENDBRANCH   3  86
TORSDOF 69
