REMARK WARNING: 32 MAX_TORS EXCEEDED!!!
REMARK  68 active torsions:
REMARK  status: ('A' for Active; 'I' for Inactive)
REMARK    1  A    between atoms: N_1  and  CA_2 
REMARK    2  A    between atoms: CA_2  and  C_3 
REMARK    3  A    between atoms: CA_2  and  CB_5 
REMARK       I    between atoms: C_3  and  N_11 
REMARK    4  A    between atoms: CB_5  and  CG_6 
REMARK    5  A    between atoms: CG_6  and  CD_7 
REMARK    6  A    between atoms: N_11  and  CA_12 
REMARK    7  A    between atoms: CA_12  and  C_13 
REMARK    8  A    between atoms: CA_12  and  CB_15 
REMARK       I    between atoms: C_13  and  N_22 
REMARK    9  A    between atoms: CB_15  and  CG_16 
REMARK       I    between atoms: CG_16  and  ND2_17 
REMARK   10  A    between atoms: CA_23  and  C_24 
REMARK       I    between atoms: C_24  and  N_29 
REMARK   11  A    between atoms: N_29  and  CA_30 
REMARK   12  A    between atoms: CA_30  and  C_31 
REMARK   13  A    between atoms: CA_30  and  CB_33 
REMARK       I    between atoms: C_31  and  N_39 
REMARK   14  A    between atoms: CB_33  and  CG_34 
REMARK   15  A    between atoms: CG_34  and  CD_35 
REMARK   16  A    between atoms: N_39  and  CA_40 
REMARK   17  A    between atoms: CA_40  and  C_41 
REMARK   18  A    between atoms: CA_40  and  CB_43 
REMARK       I    between atoms: C_41  and  N_47 
REMARK   19  A    between atoms: CB_43  and  OG_44 
REMARK   20  A    between atoms: N_47  and  CA_48 
REMARK   21  A    between atoms: CA_48  and  C_49 
REMARK   22  A    between atoms: CA_48  and  CB_51 
REMARK       I    between atoms: C_49  and  N_56 
REMARK   23  A    between atoms: CB_51  and  CG1_52 
REMARK   24  A    between atoms: N_56  and  CA_57 
REMARK   25  A    between atoms: CA_57  and  C_58 
REMARK   26  A    between atoms: CA_57  and  CB_60 
REMARK       I    between atoms: C_58  and  N_65 
REMARK   27  A    between atoms: CB_60  and  CG_61 
REMARK   28  A    between atoms: N_65  and  CA_66 
REMARK   29  A    between atoms: CA_66  and  C_67 
REMARK   30  A    between atoms: CA_66  and  CB_69 
REMARK       I    between atoms: C_67  and  N_74 
REMARK   31  A    between atoms: CB_69  and  CG_70 
REMARK   32  A    between atoms: N_74  and  CA_75 
REMARK   33  A    between atoms: CA_75  and  C_76 
REMARK   34  A    between atoms: CA_75  and  CB_78 
REMARK       I    between atoms: C_76  and  N_84 
REMARK   35  A    between atoms: CB_78  and  CG_79 
REMARK   36  A    between atoms: CG_79  and  CD_80 
REMARK   37  A    between atoms: N_84  and  CA_85 
REMARK   38  A    between atoms: CA_85  and  C_86 
REMARK   39  A    between atoms: CA_85  and  CB_88 
REMARK       I    between atoms: C_86  and  N_96 
REMARK   40  A    between atoms: CB_88  and  CG_89 
REMARK   41  A    between atoms: N_96  and  CA_97 
REMARK   42  A    between atoms: CA_97  and  C_98 
REMARK   43  A    between atoms: CA_97  and  CB_100 
REMARK       I    between atoms: C_98  and  N_104 
REMARK   44  A    between atoms: N_104  and  CA_105 
REMARK   45  A    between atoms: CA_105  and  C_106 
REMARK   46  A    between atoms: CA_105  and  CB_108 
REMARK       I    between atoms: C_106  and  N_116 
REMARK   47  A    between atoms: CB_108  and  CG_109 
REMARK   48  A    between atoms: CG_109  and  CD_110 
REMARK       I    between atoms: CD_110  and  NE2_111 
REMARK   49  A    between atoms: N_116  and  CA_117 
REMARK   50  A    between atoms: CA_117  and  C_118 
REMARK   51  A    between atoms: CA_117  and  CB_120 
REMARK       I    between atoms: C_118  and  N_133 
REMARK   52  A    between atoms: CB_120  and  CG_121 
REMARK   53  A    between atoms: CG_121  and  CD_122 
REMARK   54  A    between atoms: CD_122  and  NE_123 
REMARK       I    between atoms: NE_123  and  CZ_124 
REMARK       I    between atoms: CZ_124  and  NH1_125 
REMARK       I    between atoms: CZ_124  and  NH2_126 
REMARK   55  A    between atoms: N_133  and  CA_134 
REMARK   56  A    between atoms: CA_134  and  C_135 
REMARK   57  A    between atoms: CA_134  and  CB_137 
REMARK       I    between atoms: C_135  and  N_141 
REMARK   58  A    between atoms: N_141  and  CA_142 
REMARK   59  A    between atoms: CA_142  and  C_143 
REMARK   60  A    between atoms: CA_142  and  CB_145 
REMARK       I    between atoms: C_143  and  N_150 
REMARK   61  A    between atoms: CB_145  and  CG_146 
REMARK   62  A    between atoms: CG_146  and  SD_147 
REMARK   63  A    between atoms: N_150  and  CA_151 
REMARK   64  A    between atoms: CA_151  and  C_152 
REMARK   65  A    between atoms: CA_151  and  CB_154 
REMARK   66  A    between atoms: CB_154  and  CG_155 
REMARK   67  A    between atoms: CG_155  and  CD_156 
REMARK   68  A    between atoms: CD_156  and  NE_157 
REMARK       I    between atoms: NE_157  and  CZ_158 
REMARK       I    between atoms: CZ_158  and  NH1_159 
ROOT
ATOM      1  C   GLU d   9    2659.639 817.653-2780.403  0.00  0.00     0.241 C 
ATOM      2  O   GLU d   9    2660.303 818.407-2781.129  0.00  0.00    -0.271 OA
ATOM      3  N   HIS d  10    2659.735 816.378-2780.572  0.00  0.00    -0.346 N 
ATOM      4  H   HIS d  10    2659.204 815.743-2779.993  0.00  0.00     0.163 HD
ENDROOT
BRANCH   1   5
ATOM      5  CA  GLU d   9    2658.722 818.182-2779.327  0.00  0.00     0.177 C 
BRANCH   5   6
ATOM      6  N   GLU d   9    2657.418 817.525-2779.382  0.00  0.00    -0.346 N 
ATOM      7  C   ASP d   8    2656.739 817.574-2780.477  0.00  0.00     0.241 C 
ATOM      8  O   ASP d   8    2657.211 818.178-2781.452  0.00  0.00    -0.271 OA
ATOM      9  H   GLU d   9    2657.055 817.039-2778.574  0.00  0.00     0.163 HD
BRANCH   7  10
ATOM     10  CA  ASP d   8    2655.391 816.895-2780.533  0.00  0.00     0.186 C 
BRANCH  10  11
ATOM     11  N   ASP d   8    2655.461 815.546-2779.979  0.00  0.00    -0.346 N 
ATOM     12  C   LEU d   7    2656.298 814.705-2780.485  0.00  0.00     0.241 C 
ATOM     13  O   LEU d   7    2657.019 815.066-2781.428  0.00  0.00    -0.271 OA
ATOM     14  H   ASP d   8    2654.863 815.276-2779.212  0.00  0.00     0.163 HD
BRANCH  12  15
ATOM     15  CA  LEU d   7    2656.370 813.309-2779.912  0.00  0.00     0.177 C 
BRANCH  15  16
ATOM     16  N   LEU d   7    2656.425 813.346-2778.454  0.00  0.00    -0.346 N 
ATOM     17  C   ILE d   6    2657.371 814.009-2777.880  0.00  0.00     0.241 C 
ATOM     18  O   ILE d   6    2658.206 814.596-2778.584  0.00  0.00    -0.271 OA
ATOM     19  H   LEU d   7    2655.733 812.859-2777.903  0.00  0.00     0.163 HD
BRANCH  17  20
ATOM     20  CA  ILE d   6    2657.428 814.046-2776.373  0.00  0.00     0.180 C 
BRANCH  20  21
ATOM     21  N   ILE d   6    2656.115 814.342-2775.807  0.00  0.00    -0.346 N 
ATOM     22  C   SER d   5    2655.511 815.425-2776.161  0.00  0.00     0.243 C 
ATOM     23  O   SER d   5    2656.059 816.178-2776.966  0.00  0.00    -0.271 OA
ATOM     24  H   ILE d   6    2655.686 813.708-2775.148  0.00  0.00     0.163 HD
BRANCH  22  25
ATOM     25  CA  SER d   5    2654.152 815.731-2775.576  0.00  0.00     0.200 C 
BRANCH  25  26
ATOM     26  N   SER d   5    2653.282 814.560-2775.635  0.00  0.00    -0.344 N 
ATOM     27  C   GLU d   4    2653.055 814.007-2776.778  0.00  0.00     0.241 C 
ATOM     28  O   GLU d   4    2653.582 814.487-2777.792  0.00  0.00    -0.271 OA
ATOM     29  H   SER d   5    2652.865 814.189-2774.793  0.00  0.00     0.163 HD
BRANCH  27  30
ATOM     30  CA  GLU d   4    2652.156 812.797-2776.839  0.00  0.00     0.177 C 
BRANCH  30  31
ATOM     31  N   GLU d   4    2652.515 811.826-2775.810  0.00  0.00    -0.346 N 
ATOM     32  C   PRO d   3    2653.720 811.365-2775.777  0.00  0.00     0.241 C 
ATOM     33  O   PRO d   3    2654.543 811.748-2776.608  0.00  0.00    -0.271 OA
ATOM     34  H   GLU d   4    2651.830 811.519-2775.133  0.00  0.00     0.163 HD
BRANCH  32  35
ATOM     35  CA  PRO d   3    2654.117 810.342-2774.700  0.00  0.00     0.179 C 
ATOM     36  N   PRO d   3    2653.665 810.751-2773.378  0.00  0.00    -0.337 N 
ATOM     37  C   ASN d   2    2654.187 811.746-2772.744  0.00  0.00     0.243 C 
ATOM     38  CD  PRO d   3    2652.587 809.958-2772.830  0.00  0.00     0.127 C 
ATOM     39  O   ASN d   2    2655.102 812.376-2773.272  0.00  0.00    -0.271 OA
ATOM     40  CG  PRO d   3    2652.129 809.140-2774.040  0.00  0.00     0.022 C 
ATOM     41  CB  PRO d   3    2653.413 808.987-2774.869  0.00  0.00     0.037 C 
BRANCH  37  42
ATOM     42  CA  ASN d   2    2653.655 812.102-2771.375  0.00  0.00     0.185 C 
BRANCH  42  43
ATOM     43  N   ASN d   2    2652.196 812.141-2771.376  0.00  0.00    -0.346 N 
ATOM     44  C   GLU d   1    2651.592 812.926-2772.201  0.00  0.00     0.242 C 
ATOM     45  O   GLU d   1    2652.267 813.625-2772.969  0.00  0.00    -0.271 OA
ATOM     46  H   ASN d   2    2651.668 811.561-2770.739  0.00  0.00     0.163 HD
BRANCH  44  47
ATOM     47  CA  GLU d   1    2650.083 812.966-2772.201  0.00  0.00     0.191 C 
BRANCH  47  48
ATOM     48  N   GLU d   1    2649.523 811.617-2772.201  0.00  0.00    -0.326 NA
ATOM     49  H   GLU d   1    2650.150 810.738-2772.201  0.00  0.00     0.180 HD
ENDBRANCH  47  48
BRANCH  47  50
ATOM     50  CB  GLU d   1    2649.559 813.751-2770.964  0.00  0.00     0.047 C 
BRANCH  50  51
ATOM     51  CG  GLU d   1    2650.034 815.236-2770.853  0.00  0.00     0.116 C 
BRANCH  51  52
ATOM     52  CD  GLU d   1    2649.610 816.040-2769.638  0.00  0.00     0.172 C 
ATOM     53  OE1 GLU d   1    2648.882 815.538-2768.760  0.00  0.00    -0.648 OA
ATOM     54  OE2 GLU d   1    2650.041 817.210-2769.566  0.00  0.00    -0.648 OA
ENDBRANCH  51  52
ENDBRANCH  50  51
ENDBRANCH  47  50
ENDBRANCH  44  47
ENDBRANCH  42  43
BRANCH  42  55
ATOM     55  CB  ASN d   2    2654.147 811.079-2770.311  0.00  0.00     0.137 C 
BRANCH  55  56
ATOM     56  CG  ASN d   2    2653.684 811.302-2768.868  0.00  0.00     0.217 C 
ATOM     57  ND2 ASN d   2    2654.278 812.217-2768.149  0.00  0.00    -0.370 N 
ATOM     58 21HD ASN d   2    2653.797 812.391-2767.263  0.00  0.00     0.159 HD
ATOM     59 22HD ASN d   2    2654.979 812.789-2768.618  0.00  0.00     0.159 HD
ATOM     60  OD1 ASN d   2    2652.762 810.669-2768.374  0.00  0.00    -0.274 OA
ENDBRANCH  55  56
ENDBRANCH  42  55
ENDBRANCH  37  42
ENDBRANCH  32  35
ENDBRANCH  30  31
BRANCH  30  61
ATOM     61  CB  GLU d   4    2650.667 813.216-2776.670  0.00  0.00     0.045 C 
BRANCH  61  62
ATOM     62  CG  GLU d   4    2650.120 814.220-2777.735  0.00  0.00     0.116 C 
BRANCH  62  63
ATOM     63  CD  GLU d   4    2648.693 814.717-2777.592  0.00  0.00     0.172 C 
ATOM     64  OE1 GLU d   4    2647.967 814.318-2776.662  0.00  0.00    -0.648 OA
ATOM     65  OE2 GLU d   4    2648.304 815.546-2778.441  0.00  0.00    -0.648 OA
ENDBRANCH  62  63
ENDBRANCH  61  62
ENDBRANCH  30  61
ENDBRANCH  27  30
ENDBRANCH  25  26
BRANCH  25  66
ATOM     66  CB  SER d   5    2654.263 816.263-2774.125  0.00  0.00     0.199 C 
BRANCH  66  67
ATOM     67  OG  SER d   5    2654.994 815.384-2773.264  0.00  0.00    -0.398 OA
ATOM     68  HG  SER d   5    2654.505 814.559-2773.213  0.00  0.00     0.209 HD
ENDBRANCH  66  67
ENDBRANCH  25  66
ENDBRANCH  22  25
ENDBRANCH  20  21
BRANCH  20  69
ATOM     69  CB  ILE d   6    2658.027 812.710-2775.772  0.00  0.00     0.013 C 
ATOM     70  CG2 ILE d   6    2659.469 812.408-2776.287  0.00  0.00     0.012 C 
BRANCH  69  71
ATOM     71  CG1 ILE d   6    2658.046 812.648-2774.211  0.00  0.00     0.002 C 
ATOM     72  CD1 ILE d   6    2658.316 811.258-2773.596  0.00  0.00     0.005 C 
ENDBRANCH  69  71
ENDBRANCH  20  69
ENDBRANCH  17  20
ENDBRANCH  15  16
BRANCH  15  73
ATOM     73  CB  LEU d   7    2655.167 812.450-2780.393  0.00  0.00     0.038 C 
BRANCH  73  74
ATOM     74  CG  LEU d   7    2655.094 810.970-2779.926  0.00  0.00    -0.020 C 
ATOM     75  CD1 LEU d   7    2653.904 810.265-2780.592  0.00  0.00     0.009 C 
ATOM     76  CD2 LEU d   7    2656.387 810.190-2780.218  0.00  0.00     0.009 C 
ENDBRANCH  73  74
ENDBRANCH  15  73
ENDBRANCH  12  15
ENDBRANCH  10  11
BRANCH  10  77
ATOM     77  CB  ASP d   8    2654.314 817.735-2779.792  0.00  0.00     0.147 C 
BRANCH  77  78
ATOM     78  CG  ASP d   8    2654.096 819.156-2780.334  0.00  0.00     0.175 C 
ATOM     79  OD1 ASP d   8    2654.160 819.354-2781.565  0.00  0.00    -0.648 OA
ATOM     80  OD2 ASP d   8    2653.904 820.082-2779.519  0.00  0.00    -0.648 OA
ENDBRANCH  77  78
ENDBRANCH  10  77
ENDBRANCH   7  10
ENDBRANCH   5   6
BRANCH   5  81
ATOM     81  CB  GLU d   9    2659.355 817.974-2777.922  0.00  0.00     0.045 C 
BRANCH  81  82
ATOM     82  CG  GLU d   9    2660.738 818.666-2777.693  0.00  0.00     0.116 C 
BRANCH  82  83
ATOM     83  CD  GLU d   9    2661.440 818.453-2776.365  0.00  0.00     0.172 C 
ATOM     84  OE1 GLU d   9    2660.918 817.763-2775.468  0.00  0.00    -0.648 OA
ATOM     85  OE2 GLU d   9    2662.560 818.991-2776.233  0.00  0.00    -0.648 OA
ENDBRANCH  82  83
ENDBRANCH  81  82
ENDBRANCH   5  81
ENDBRANCH   1   5
BRANCH   3  86
ATOM     86  CA  HIS d  10    2660.622 815.865-2781.612  0.00  0.00     0.182 C 
BRANCH  86  87
ATOM     87  C   HIS d  10    2660.255 816.430-2782.963  0.00  0.00     0.241 C 
ATOM     88  O   HIS d  10    2661.108 816.893-2783.736  0.00  0.00    -0.271 OA
ATOM     89  N   VAL d  11    2659.018 816.429-2783.326  0.00  0.00    -0.346 N 
ATOM     90  H   VAL d  11    2658.304 816.057-2782.715  0.00  0.00     0.163 HD
BRANCH  89  91
ATOM     91  CA  VAL d  11    2658.662 816.975-2784.633  0.00  0.00     0.180 C 
BRANCH  91  92
ATOM     92  C   VAL d  11    2659.128 818.405-2784.767  0.00  0.00     0.241 C 
ATOM     93  O   VAL d  11    2659.729 818.809-2785.770  0.00  0.00    -0.271 OA
ATOM     94  N   GLN d  12    2658.891 819.231-2783.804  0.00  0.00    -0.346 N 
ATOM     95  H   GLN d  12    2658.403 818.926-2782.975  0.00  0.00     0.163 HD
BRANCH  94  96
ATOM     96  CA  GLN d  12    2659.341 820.614-2783.932  0.00  0.00     0.177 C 
BRANCH  96  97
ATOM     97  C   GLN d  12    2660.830 820.680-2784.171  0.00  0.00     0.241 C 
ATOM     98  O   GLN d  12    2661.318 821.388-2785.050  0.00  0.00    -0.271 OA
ATOM     99  N   ARG d  13    2661.615 819.974-2783.429  0.00  0.00    -0.346 N 
ATOM    100  H   ARG d  13    2661.239 819.384-2782.700  0.00  0.00     0.163 HD
BRANCH  99 101
ATOM    101  CA  ARG d  13    2663.055 820.039-2783.661  0.00  0.00     0.176 C 
BRANCH 101 102
ATOM    102  C   ARG d  13    2663.391 819.666-2785.085  0.00  0.00     0.241 C 
ATOM    103  O   ARG d  13    2664.160 820.337-2785.770  0.00  0.00    -0.271 OA
ATOM    104  N   VAL d  14    2662.854 818.612-2785.599  0.00  0.00    -0.346 N 
ATOM    105  H   VAL d  14    2662.219 818.043-2785.057  0.00  0.00     0.163 HD
BRANCH 104 106
ATOM    106  CA  VAL d  14    2663.179 818.251-2786.977  0.00  0.00     0.180 C 
BRANCH 106 107
ATOM    107  C   VAL d  14    2662.849 819.381-2787.923  0.00  0.00     0.241 C 
ATOM    108  O   VAL d  14    2663.642 819.762-2788.792  0.00  0.00    -0.271 OA
ATOM    109  N   MET d  15    2661.704 819.967-2787.821  0.00  0.00    -0.346 N 
ATOM    110  H   MET d  15    2661.039 819.675-2787.119  0.00  0.00     0.163 HD
BRANCH 109 111
ATOM    111  CA  MET d  15    2661.384 821.060-2788.735  0.00  0.00     0.177 C 
BRANCH 111 112
ATOM    112  C   MET d  15    2662.414 822.160-2788.647  0.00  0.00     0.241 C 
ATOM    113  O   MET d  15    2662.917 822.670-2789.660  0.00  0.00    -0.271 OA
ATOM    114  N   ARG d  16    2662.783 822.581-2787.485  0.00  0.00    -0.347 N 
ATOM    115  H   ARG d  16    2662.389 822.181-2786.646  0.00  0.00     0.163 HD
BRANCH 114 116
ATOM    116  CA  ARG d  16    2663.780 823.645-2787.402  0.00  0.00     0.162 C 
BRANCH 116 117
ATOM    117  C   ARG d  16    2665.050 823.252-2788.119  0.00  0.00     0.219 C 
ATOM    118  O   ARG d  16    2665.164 822.175-2788.699  0.00  0.00    -0.287 OA
ENDBRANCH 116 117
BRANCH 116 119
ATOM    119  CB  ARG d  16    2664.049 823.963-2785.904  0.00  0.00     0.035 C 
BRANCH 119 120
ATOM    120  CG  ARG d  16    2664.875 825.252-2785.632  0.00  0.00     0.023 C 
BRANCH 120 121
ATOM    121  CD  ARG d  16    2665.124 825.472-2784.131  0.00  0.00     0.138 C 
BRANCH 121 122
ATOM    122  NE  ARG d  16    2665.900 826.731-2783.930  0.00  0.00    -0.227 N 
ATOM    123  CZ  ARG d  16    2666.292 827.214-2782.755  0.00  0.00     0.665 C 
ATOM    124  NH1 ARG d  16    2666.044 826.630-2781.616  0.00  0.00    -0.235 N 
ATOM    125  NH2 ARG d  16    2666.956 828.326-2782.737  0.00  0.00    -0.235 N 
ATOM    126 11HH ARG d  16    2665.519 825.757-2781.700  0.00  0.00     0.174 HD
ATOM    127 12HH ARG d  16    2666.379 827.066-2780.755  0.00  0.00     0.174 HD
ATOM    128 21HH ARG d  16    2667.141 828.769-2783.639  0.00  0.00     0.174 HD
ATOM    129 22HH ARG d  16    2667.246 828.682-2781.824  0.00  0.00     0.174 HD
ATOM    130  HE  ARG d  16    2666.179 827.312-2784.728  0.00  0.00     0.177 HD
ENDBRANCH 121 122
ENDBRANCH 120 121
ENDBRANCH 119 120
ENDBRANCH 116 119
ENDBRANCH 114 116
ENDBRANCH 111 112
BRANCH 111 131
ATOM    131  CB  MET d  15    2659.963 821.605-2788.426  0.00  0.00     0.045 C 
BRANCH 131 132
ATOM    132  CG  MET d  15    2658.800 820.607-2788.617  0.00  0.00     0.076 C 
BRANCH 132 133
ATOM    133  SD  MET d  15    2657.227 821.474-2788.502  0.00  0.00    -0.173 SA
ATOM    134  CE  MET d  15    2656.146 820.044-2788.365  0.00  0.00     0.089 C 
ENDBRANCH 132 133
ENDBRANCH 131 132
ENDBRANCH 111 131
ENDBRANCH 109 111
ENDBRANCH 106 107
BRANCH 106 135
ATOM    135  CB  VAL d  14    2662.406 816.934-2787.383  0.00  0.00     0.009 C 
ATOM    136  CG1 VAL d  14    2662.494 816.515-2788.876  0.00  0.00     0.012 C 
ATOM    137  CG2 VAL d  14    2662.837 815.682-2786.582  0.00  0.00     0.012 C 
ENDBRANCH 106 135
ENDBRANCH 104 106
ENDBRANCH 101 102
BRANCH 101 138
ATOM    138  CB  ARG d  13    2663.768 819.100-2782.646  0.00  0.00     0.036 C 
BRANCH 138 139
ATOM    139  CG  ARG d  13    2665.313 819.253-2782.566  0.00  0.00     0.023 C 
BRANCH 139 140
ATOM    140  CD  ARG d  13    2665.940 818.266-2781.568  0.00  0.00     0.138 C 
BRANCH 140 141
ATOM    141  NE  ARG d  13    2667.417 818.473-2781.518  0.00  0.00    -0.227 N 
ATOM    142  CZ  ARG d  13    2668.266 817.781-2780.762  0.00  0.00     0.665 C 
ATOM    143  NH1 ARG d  13    2667.901 816.818-2779.964  0.00  0.00    -0.235 N 
ATOM    144  NH2 ARG d  13    2669.525 818.080-2780.820  0.00  0.00    -0.235 N 
ATOM    145 11HH ARG d  13    2666.895 816.632-2779.967  0.00  0.00     0.174 HD
ATOM    146 12HH ARG d  13    2668.614 816.335-2779.415  0.00  0.00     0.174 HD
ATOM    147 21HH ARG d  13    2669.793 818.837-2781.451  0.00  0.00     0.174 HD
ATOM    148 22HH ARG d  13    2670.161 817.539-2780.231  0.00  0.00     0.174 HD
ATOM    149  HE  ARG d  13    2667.869 819.194-2782.089  0.00  0.00     0.177 HD
ENDBRANCH 140 141
ENDBRANCH 139 140
ENDBRANCH 138 139
ENDBRANCH 101 138
ENDBRANCH  99 101
ENDBRANCH  96  97
BRANCH  96 150
ATOM    150  CB  GLN d  12    2658.950 821.382-2782.650  0.00  0.00     0.044 C 
BRANCH 150 151
ATOM    151  CG  GLN d  12    2659.312 822.904-2782.620  0.00  0.00     0.105 C 
BRANCH 151 152
ATOM    152  CD  GLN d  12    2659.010 823.718-2781.355  0.00  0.00     0.215 C 
ATOM    153  NE2 GLN d  12    2658.443 823.143-2780.326  0.00  0.00    -0.370 N 
ATOM    154 21HE GLN d  12    2658.336 823.737-2779.503  0.00  0.00     0.159 HD
ATOM    155 22HE GLN d  12    2658.279 822.139-2780.429  0.00  0.00     0.159 HD
ATOM    156  OE1 GLN d  12    2659.312 824.899-2781.279  0.00  0.00    -0.274 OA
ENDBRANCH 151 152
ENDBRANCH 150 151
ENDBRANCH  96 150
ENDBRANCH  94  96
ENDBRANCH  91  92
BRANCH  91 157
ATOM    157  CB  VAL d  11    2657.101 816.869-2784.852  0.00  0.00     0.009 C 
ATOM    158  CG1 VAL d  11    2656.533 817.572-2786.115  0.00  0.00     0.012 C 
ATOM    159  CG2 VAL d  11    2656.576 815.415-2784.924  0.00  0.00     0.012 C 
ENDBRANCH  91 157
ENDBRANCH  89  91
ENDBRANCH  86  87
BRANCH  86 160
ATOM    160  CB  HIS d  10    2660.458 814.337-2781.606  0.00  0.00     0.095 C 
BRANCH 160 161
ATOM    161  CG  HIS d  10    2661.743 813.626-2781.298  0.00  0.00     0.053 A 
ATOM    162  CD2 HIS d  10    2662.125 813.291-2780.006  0.00  0.00     0.116 A 
ATOM    163  NE2 HIS d  10    2663.339 812.659-2780.073  0.00  0.00    -0.359 N 
ATOM    164  CE1 HIS d  10    2663.601 812.661-2781.408  0.00  0.00     0.207 A 
ATOM    165  2HE HIS d  10    2663.906 812.282-2779.299  0.00  0.00     0.166 HD
ATOM    166  ND1 HIS d  10    2662.695 813.219-2782.231  0.00  0.00    -0.247 NA
ENDBRANCH 160 161
ENDBRANCH  86 160
ENDBRANCH   3  86
TORSDOF 68
