@<TRIPOS>MOLECULE
6-16
263 264 16              
SMALL
USER_CHARGES
@<TRIPOS>ATOM
1	   N	984.071	271.645	-959.689	N.3	1	GLU1	-0.516	
2	  CA	984.630	272.994	-959.689	C.3	1	GLU1	0.040	
3	   C	986.139	272.954	-959.689	C.2	1	GLU1	0.537	
4	   O	986.814	273.653	-960.458	O.2	1	GLU1	-0.582	
5	  CB	984.107	273.779	-958.452	C.3	1	GLU1	0.056	
6	  CG	984.582	275.264	-958.341	C.3	1	GLU1	0.014	
7	  CD	984.158	276.068	-957.126	C.2	1	GLU1	0.805	
8	 OE1	983.430	275.566	-956.248	O.co2	1	GLU1	-0.819	
9	 OE2	984.588	277.238	-957.054	O.co2	1	GLU1	-0.819	
10	   H	984.698	270.766	-959.689	 H	1	GLU1	0.294	
11	  HA	984.304	273.512	-960.609	 H	1	GLU1	0.111	
12	 2HB	984.396	273.248	-957.522	 H	1	GLU1	-0.017	
13	 3HB	983.000	273.769	-958.439	 H	1	GLU1	-0.017	
14	 2HG	984.272	275.849	-959.222	 H	1	GLU1	-0.043	
15	 3HG	985.682	275.331	-958.312	 H	1	GLU1	-0.043	
16	   N	986.743	272.168	-958.864	N.am	2	ASN2	-0.416	
17	  CA	988.203	272.130	-958.864	C.3	2	ASN2	0.014	
18	   C	988.734	271.774	-960.233	C.2	2	ASN2	0.597	
19	   O	989.649	272.405	-960.762	O.2	2	ASN2	-0.568	
20	  CB	988.695	271.107	-957.800	C.3	2	ASN2	-0.204	
21	  CG	988.232	271.331	-956.357	C.2	2	ASN2	0.713	
22	 ND2	988.826	272.246	-955.638	N.pl3	2	ASN2	-0.919	
23	 OD1	987.311	270.697	-955.862	O.2	2	ASN2	-0.593	
24	   H	986.215	271.589	-958.228	 H	2	ASN2	0.272	
25	  HA	988.580	273.140	-958.619	 H	2	ASN2	0.105	
26	 2HB	989.799	271.048	-957.804	 H	2	ASN2	0.080	
27	 3HB	988.366	270.088	-958.086	 H	2	ASN2	0.080	
28	1HD2	988.345	272.419	-954.752	 H	2	ASN2	0.420	
29	2HD2	989.527	272.817	-956.108	 H	2	ASN2	0.420	
30	   N	988.212	270.779	-960.867	N.am	3	PRO3	-0.255	
31	  CA	988.664	270.370	-962.188	C.3	3	PRO3	-0.027	
32	   C	988.266	271.393	-963.265	C.2	3	PRO3	0.590	
33	   O	989.089	271.776	-964.097	O.2	3	PRO3	-0.575	
34	  CB	987.960	269.015	-962.358	C.3	3	PRO3	-0.007	
35	  CG	986.677	269.167	-961.528	C.3	3	PRO3	0.019	
36	  CD	987.134	269.986	-960.318	C.3	3	PRO3	0.019	
37	  HA	989.750	270.250	-962.202	 H	3	PRO3	0.064	
38	 2HB	988.583	268.234	-961.917	 H	3	PRO3	0.025	
39	 3HB	987.762	268.767	-963.403	 H	3	PRO3	0.025	
40	 2HG	986.249	268.205	-961.237	 H	3	PRO3	0.021	
41	 3HG	985.939	269.738	-962.095	 H	3	PRO3	0.021	
42	 2HD	987.524	269.336	-959.530	 H	3	PRO3	0.039	
43	 3HD	986.338	270.622	-959.925	 H	3	PRO3	0.039	
44	   N	987.061	271.853	-963.298	N.am	4	GLU4	-0.516	
45	  CA	986.701	272.824	-964.327	C.3	4	GLU4	0.040	
46	   C	987.600	274.035	-964.266	C.2	4	GLU4	0.537	
47	   O	988.127	274.515	-965.281	O.2	4	GLU4	-0.582	
48	  CB	985.213	273.243	-964.157	C.3	4	GLU4	0.056	
49	  CG	984.665	274.246	-965.223	C.3	4	GLU4	0.014	
50	  CD	983.238	274.743	-965.079	C.2	4	GLU4	0.805	
51	 OE1	982.512	274.344	-964.148	O.co2	4	GLU4	-0.819	
52	 OE2	982.848	275.572	-965.928	O.co2	4	GLU4	-0.819	
53	   H	986.377	271.546	-962.621	 H	4	GLU4	0.294	
54	  HA	986.833	272.354	-965.319	 H	4	GLU4	0.111	
55	 2HB	985.060	273.682	-963.150	 H	4	GLU4	-0.017	
56	 3HB	984.565	272.345	-964.163	 H	4	GLU4	-0.017	
57	 2HG	984.746	273.831	-966.241	 H	4	GLU4	-0.043	
58	 3HG	985.253	275.178	-965.234	 H	4	GLU4	-0.043	
59	   N	987.828	274.588	-963.123	N.am	5	SER5	-0.416	
60	  CA	988.697	275.759	-963.064	C.3	5	SER5	-0.025	
61	   C	990.056	275.454	-963.650	C.2	5	SER5	0.597	
62	   O	990.603	276.208	-964.455	O.2	5	SER5	-0.568	
63	  CB	988.808	276.292	-961.614	C.3	5	SER5	0.212	
64	  OG	989.540	275.412	-960.753	O.3	5	SER5	-0.655	
65	   H	987.410	274.216	-962.282	 H	5	SER5	0.272	
66	  HA	988.248	276.550	-963.694	 H	5	SER5	0.084	
67	 2HB	987.808	276.485	-961.181	 H	5	SER5	0.035	
68	 3HB	989.314	277.277	-961.616	 H	5	SER5	0.035	
69	  HG	989.051	274.587	-960.702	 H	5	SER5	0.428	
70	   N	990.661	274.371	-963.296	N.am	6	GLN6	-0.416	
71	  CA	991.974	274.076	-963.861	C.3	6	GLN6	-0.003	
72	   C	991.918	274.038	-965.370	C.2	6	GLN6	0.597	
73	   O	992.747	274.620	-966.067	O.2	6	GLN6	-0.568	
74	  CB	992.467	272.727	-963.291	C.3	6	GLN6	-0.004	
75	  CG	993.888	272.262	-963.750	C.3	6	GLN6	-0.064	
76	  CD	994.419	270.904	-963.274	C.2	6	GLN6	0.695	
77	 NE2	993.693	270.159	-962.480	N.pl3	6	GLN6	-0.941	
78	 OE1	995.507	270.488	-963.642	O.2	6	GLN6	-0.609	
79	   H	990.232	273.737	-962.637	 H	6	GLN6	0.272	
80	  HA	992.674	274.882	-963.573	 H	6	GLN6	0.085	
81	 2HB	991.728	271.942	-963.555	 H	6	GLN6	0.017	
82	 3HB	992.454	272.780	-962.185	 H	6	GLN6	0.017	
83	 2HG	994.642	273.025	-963.483	 H	6	GLN6	0.035	
84	 3HG	993.935	272.204	-964.853	 H	6	GLN6	0.035	
85	1HE2	994.091	269.244	-962.263	 H	6	GLN6	0.425	
86	2HE2	992.766	270.533	-962.266	 H	6	GLN6	0.425	
87	   N	990.973	273.374	-965.945	N.am	7	LEU7	-0.416	
88	  CA	990.920	273.338	-967.404	C.3	7	LEU7	-0.052	
89	   C	990.849	274.733	-967.976	C.2	7	LEU7	0.597	
90	   O	991.571	275.095	-968.917	O.2	7	LEU7	-0.568	
91	  CB	989.717	272.477	-967.885	C.3	7	LEU7	-0.110	
92	  CG	989.644	270.998	-967.419	C.3	7	LEU7	0.353	
93	 CD1	988.455	270.292	-968.086	C.3	7	LEU7	-0.412	
94	 CD2	990.938	270.219	-967.708	C.3	7	LEU7	-0.412	
95	   H	990.280	272.887	-965.394	 H	7	LEU7	0.272	
96	  HA	991.862	272.898	-967.776	 H	7	LEU7	0.092	
97	 2HB	989.696	272.493	-968.993	 H	7	LEU7	0.046	
98	 3HB	988.777	272.980	-967.583	 H	7	LEU7	0.046	
99	  HG	989.472	270.991	-966.322	 H	7	LEU7	-0.036	
100	1HD1	987.497	270.802	-967.865	 H	7	LEU7	0.100	
101	2HD1	988.555	270.252	-969.187	 H	7	LEU7	0.100	
102	3HD1	988.347	269.251	-967.730	 H	7	LEU7	0.100	
103	1HD2	991.214	270.249	-968.778	 H	7	LEU7	0.100	
104	2HD2	991.790	270.630	-967.136	 H	7	LEU7	0.100	
105	3HD2	990.856	269.156	-967.412	 H	7	LEU7	0.100	
106	   N	990.011	275.574	-967.471	N.am	8	ASP8	-0.516	
107	  CA	989.941	276.923	-968.025	C.3	8	ASP8	0.038	
108	   C	991.288	277.603	-967.966	C.2	8	ASP8	0.537	
109	   O	991.762	278.208	-968.940	O.2	8	ASP8	-0.582	
110	  CB	988.862	277.762	-967.285	C.3	8	ASP8	-0.030	
111	  CG	988.644	279.183	-967.826	C.2	8	ASP8	0.799	
112	 OD1	988.710	279.382	-969.057	O.co2	8	ASP8	-0.801	
113	 OD2	988.451	280.109	-967.011	O.co2	8	ASP8	-0.801	
114	   H	989.412	275.303	-966.705	 H	8	ASP8	0.294	
115	  HA	989.660	276.845	-969.092	 H	8	ASP8	0.088	
116	 2HB	989.118	277.846	-966.213	 H	8	ASP8	-0.012	
117	 3HB	987.883	277.257	-967.319	 H	8	ASP8	-0.012	
118	   N	991.966	277.553	-966.870	N.am	9	GLU9	-0.516	
119	  CA	993.269	278.211	-966.813	C.3	9	GLU9	0.040	
120	   C	994.188	277.683	-967.887	C.2	9	GLU9	0.537	
121	   O	994.853	278.437	-968.612	O.2	9	GLU9	-0.582	
122	  CB	993.900	278.003	-965.406	C.3	9	GLU9	0.056	
123	  CG	995.283	278.695	-965.175	C.3	9	GLU9	0.014	
124	  CD	995.982	278.482	-963.846	C.2	9	GLU9	0.805	
125	 OE1	995.460	277.792	-962.950	O.co2	9	GLU9	-0.819	
126	 OE2	997.101	279.020	-963.713	O.co2	9	GLU9	-0.819	
127	   H	991.602	277.067	-966.063	 H	9	GLU9	0.294	
128	  HA	993.127	279.292	-966.988	 H	9	GLU9	0.111	
129	 2HB	994.013	276.919	-965.203	 H	9	GLU9	-0.017	
130	 3HB	993.202	278.357	-964.623	 H	9	GLU9	-0.017	
131	 2HG	995.211	279.786	-965.315	 H	9	GLU9	-0.043	
132	 3HG	996.030	278.350	-965.908	 H	9	GLU9	-0.043	
133	   N	994.285	276.407	-968.056	N.am	10	HIS10	-0.416	
134	  CA	995.175	275.896	-969.095	C.3	10	HIS10	-0.058	
135	   C	994.810	276.460	-970.447	C.2	10	HIS10	0.597	
136	   O	995.663	276.925	-971.218	O.2	10	HIS10	-0.568	
137	  CB	995.011	274.367	-969.090	C.3	10	HIS10	-0.007	
138	  CG	996.296	273.657	-968.780	C.2	10	HIS10	0.187	
139	 CD2	996.675	273.322	-967.487	C.2	10	HIS10	-0.221	
140	 ND1	997.249	273.251	-969.712	N.2	10	HIS10	-0.543	
141	 CE1	998.155	272.693	-968.887	C.2	10	HIS10	0.163	
142	 NE2	997.890	272.690	-967.552	N.pl3	10	HIS10	-0.280	
143	   H	993.753	275.772	-967.478	 H	10	HIS10	0.272	
144	  HA	996.193	276.254	-968.869	 H	10	HIS10	0.136	
145	 2HB	994.647	274.000	-970.071	 H	10	HIS10	0.037	
146	 3HB	994.254	274.030	-968.352	 H	10	HIS10	0.037	
147	 2HD	996.088	273.537	-966.599	 H	10	HIS10	0.186	
148	 1HE	999.046	272.272	-969.333	 H	10	HIS10	0.144	
149	 2HE	998.456	272.313	-966.778	 H	10	HIS10	0.334	
150	   N	993.572	276.459	-970.812	N.am	11	VAL11	-0.416	
151	  CA	993.219	277.005	-972.119	C.3	11	VAL11	-0.087	
152	   C	993.684	278.436	-972.251	C.2	11	VAL11	0.597	
153	   O	994.286	278.841	-973.253	O.2	11	VAL11	-0.568	
154	  CB	991.658	276.898	-972.341	C.3	11	VAL11	0.299	
155	 CG1	991.091	277.602	-973.604	C.3	11	VAL11	-0.319	
156	 CG2	991.134	275.444	-972.415	C.3	11	VAL11	-0.319	
157	   H	992.859	276.086	-970.202	 H	11	VAL11	0.272	
158	  HA	993.740	276.423	-972.901	 H	11	VAL11	0.097	
159	  HB	991.169	277.379	-971.466	 H	11	VAL11	-0.030	
160	1HG1	991.531	277.210	-974.541	 H	11	VAL11	0.079	
161	2HG1	989.993	277.495	-973.688	 H	11	VAL11	0.079	
162	3HG1	991.269	278.695	-973.595	 H	11	VAL11	0.079	
163	1HG2	991.422	274.857	-971.523	 H	11	VAL11	0.079	
164	2HG2	990.028	275.407	-972.459	 H	11	VAL11	0.079	
165	3HG2	991.517	274.904	-973.301	 H	11	VAL11	0.079	
166	   N	993.445	279.262	-971.289	N.am	12	GLN12	-0.416	
167	  CA	993.893	280.645	-971.416	C.3	12	GLN12	-0.003	
168	   C	995.384	280.712	-971.651	C.2	12	GLN12	0.597	
169	   O	995.872	281.420	-972.529	O.2	12	GLN12	-0.568	
170	  CB	993.501	281.412	-970.134	C.3	12	GLN12	-0.004	
171	  CG	993.861	282.934	-970.102	C.3	12	GLN12	-0.064	
172	  CD	993.556	283.748	-968.838	C.2	12	GLN12	0.695	
173	 NE2	992.988	283.172	-967.810	N.pl3	12	GLN12	-0.941	
174	 OE1	993.858	284.929	-968.760	O.2	12	GLN12	-0.609	
175	   H	992.955	278.956	-970.461	 H	12	GLN12	0.272	
176	  HA	993.395	281.101	-972.292	 H	12	GLN12	0.085	
177	 2HB	993.975	280.912	-969.264	 H	12	GLN12	0.017	
178	 3HB	992.410	281.305	-969.972	 H	12	GLN12	0.017	
179	 2HG	993.384	283.455	-970.954	 H	12	GLN12	0.035	
180	 3HG	994.944	283.076	-970.267	 H	12	GLN12	0.035	
181	1HE2	992.879	283.766	-966.987	 H	12	GLN12	0.425	
182	2HE2	992.824	282.168	-967.914	 H	12	GLN12	0.425	
183	   N	996.167	280.006	-970.909	N.am	13	ARG13	-0.348	
184	  CA	997.608	280.071	-971.138	C.3	13	ARG13	-0.264	
185	   C	997.946	279.700	-972.562	C.2	13	ARG13	0.734	
186	   O	998.716	280.371	-973.245	O.2	13	ARG13	-0.589	
187	  CB	998.320	279.133	-970.123	C.3	13	ARG13	-0.001	
188	  CG	999.865	279.286	-970.039	C.3	13	ARG13	0.039	
189	  CD	1000.490	278.299	-969.040	C.3	13	ARG13	0.049	
190	  NE	1001.967	278.506	-968.988	N.pl3	13	ARG13	-0.530	
191	  CZ	1002.814	277.815	-968.231	C.cat	13	ARG13	0.808	
192	 NH1	1002.448	276.850	-967.434	N.pl3	13	ARG13	-0.863	
193	 NH2	1004.074	278.114	-968.286	N.pl3	13	ARG13	-0.863	
194	   H	995.790	279.416	-970.181	 H	13	ARG13	0.275	
195	  HA	997.932	281.118	-970.979	 H	13	ARG13	0.156	
196	 2HB	998.054	278.082	-970.362	 H	13	ARG13	0.033	
197	 3HB	997.893	279.300	-969.113	 H	13	ARG13	0.033	
198	 2HG	1000.112	280.331	-969.760	 H	13	ARG13	0.029	
199	 3HG	1000.317	279.130	-971.040	 H	13	ARG13	0.029	
200	 2HD	1000.246	277.258	-969.350	 H	13	ARG13	0.069	
201	 3HD	1000.032	278.444	-968.039	 H	13	ARG13	0.069	
202	  HE	1002.419	279.228	-969.558	 H	13	ARG13	0.346	
203	1HH1	1001.443	276.664	-967.439	 H	13	ARG13	0.448	
204	2HH1	1003.160	276.367	-966.884	 H	13	ARG13	0.448	
205	1HH2	1004.342	278.871	-968.917	 H	13	ARG13	0.448	
206	2HH2	1004.708	277.572	-967.697	 H	13	ARG13	0.448	
207	   N	997.411	278.645	-973.077	N.am	14	VAL14	-0.416	
208	  CA	997.738	278.286	-974.454	C.3	14	VAL14	-0.087	
209	   C	997.409	279.415	-975.401	C.2	14	VAL14	0.597	
210	   O	998.204	279.797	-976.269	O.2	14	VAL14	-0.568	
211	  CB	996.966	276.968	-974.862	C.3	14	VAL14	0.299	
212	 CG1	997.057	276.550	-976.355	C.3	14	VAL14	-0.319	
213	 CG2	997.397	275.716	-974.061	C.3	14	VAL14	-0.319	
214	   H	996.775	278.077	-972.536	 H	14	VAL14	0.272	
215	  HA	998.826	278.109	-974.527	 H	14	VAL14	0.097	
216	  HB	995.890	277.140	-974.648	 H	14	VAL14	-0.030	
217	1HG1	998.099	276.373	-976.683	 H	14	VAL14	0.079	
218	2HG1	996.485	275.627	-976.569	 H	14	VAL14	0.079	
219	3HG1	996.629	277.312	-977.034	 H	14	VAL14	0.079	
220	1HG2	997.308	275.875	-972.970	 H	14	VAL14	0.079	
221	2HG2	996.762	274.840	-974.294	 H	14	VAL14	0.079	
222	3HG2	998.445	275.426	-974.265	 H	14	VAL14	0.079	
223	   N	996.264	280.001	-975.301	N.am	15	MET15	-0.416	
224	  CA	995.945	281.094	-976.215	C.3	15	MET15	-0.024	
225	   C	996.975	282.194	-976.126	C.2	15	MET15	0.597	
226	   O	997.480	282.704	-977.138	O.2	15	MET15	-0.568	
227	  CB	994.523	281.640	-975.908	C.3	15	MET15	0.034	
228	  CG	993.362	280.641	-976.102	C.3	15	MET15	0.002	
229	  SD	991.788	281.508	-975.990	S.3	15	MET15	-0.274	
230	  CE	990.706	280.078	-975.855	C.3	15	MET15	-0.054	
231	   H	995.598	279.708	-974.600	 H	15	MET15	0.272	
232	  HA	995.973	280.706	-977.250	 H	15	MET15	0.088	
233	 2HB	994.322	282.518	-976.551	 H	15	MET15	0.024	
234	 3HB	994.486	282.032	-974.872	 H	15	MET15	0.024	
235	 2HG	993.403	279.856	-975.324	 H	15	MET15	0.044	
236	 3HG	993.426	280.126	-977.078	 H	15	MET15	0.044	
237	 1HE	990.851	279.389	-976.707	 H	15	MET15	0.068	
238	 2HE	990.914	279.525	-974.922	 H	15	MET15	0.068	
239	 3HE	989.648	280.393	-975.840	 H	15	MET15	0.068	
240	   N	997.342	282.615	-974.963	N.am	16	ARG16	-0.348	
241	  CA	998.339	283.679	-974.878	C.3	16	ARG16	-0.264	
242	   C	999.610	283.286	-975.592	C.2	16	ARG16	0.734	
243	   O	999.725	282.209	-976.173	O.2	16	ARG16	-0.589	
244	  CB	998.605	283.997	-973.379	C.3	16	ARG16	-0.001	
245	  CG	999.430	285.286	-973.105	C.3	16	ARG16	0.039	
246	  CD	999.677	285.505	-971.603	C.3	16	ARG16	0.049	
247	  NE	1000.453	286.764	-971.401	N.pl3	16	ARG16	-0.530	
248	  CZ	1000.843	287.247	-970.225	C.cat	16	ARG16	0.808	
249	 NH1	1000.593	286.662	-969.087	N.pl3	16	ARG16	-0.863	
250	 NH2	1001.507	288.359	-970.206	N.pl3	16	ARG16	-0.863	
251	   H	996.946	282.215	-974.124	 H	16	ARG16	0.275	
252	  HA	997.930	284.571	-975.388	 H	16	ARG16	0.156	
253	 2HB	999.101	283.121	-972.912	 H	16	ARG16	0.033	
254	 3HB	997.636	284.078	-972.847	 H	16	ARG16	0.033	
255	 2HG	998.900	286.157	-973.543	 H	16	ARG16	0.029	
256	 3HG	1000.404	285.233	-973.632	 H	16	ARG16	0.029	
257	 2HD	1000.225	284.631	-971.189	 H	16	ARG16	0.069	
258	 3HD	998.704	285.548	-971.070	 H	16	ARG16	0.069	
259	  HE	1000.733	287.345	-972.198	 H	16	ARG16	0.346	
260	1HH1	1000.068	285.789	-969.172	 H	16	ARG16	0.448	
261	2HH1	1000.926	287.098	-968.225	 H	16	ARG16	0.448	
262	1HH2	1001.693	288.802	-971.107	 H	16	ARG16	0.448	
263	2HH2	1001.795	288.714	-969.293	 H	16	ARG16	0.448	
@<TRIPOS>BOND
1 1 2 1
2 1 10 1
3 2 3 1
4 2 5 1
5 2 11 1
6 3 4 2
7 3 16 1
8 5 6 1
9 6 7 1
10 7 8 2
11 7 9 1
12 5 12 1
13 5 13 1
14 6 14 1
15 6 15 1
16 16 17 1
17 16 24 1
18 17 18 1
19 17 20 1
20 17 25 1
21 18 19 2
22 18 30 1
23 20 21 1
24 21 22 1
25 21 23 2
26 20 26 1
27 20 27 1
28 22 28 1
29 22 29 1
30 30 31 1
31 30 36 1
32 31 32 1
33 31 34 1
34 31 37 1
35 32 33 2
36 32 44 1
37 34 35 1
38 35 36 1
39 34 38 1
40 34 39 1
41 35 40 1
42 35 41 1
43 36 42 1
44 36 43 1
45 44 45 1
46 44 53 1
47 45 46 1
48 45 48 1
49 45 54 1
50 46 47 2
51 46 59 1
52 48 49 1
53 49 50 1
54 50 51 2
55 50 52 1
56 48 55 1
57 48 56 1
58 49 57 1
59 49 58 1
60 59 60 1
61 59 65 1
62 60 61 1
63 60 63 1
64 60 66 1
65 61 62 2
66 61 70 1
67 63 64 1
68 63 67 1
69 63 68 1
70 64 69 1
71 70 71 1
72 70 79 1
73 71 72 1
74 71 74 1
75 71 80 1
76 72 73 2
77 72 87 1
78 74 75 1
79 75 76 1
80 76 77 1
81 76 78 2
82 74 81 1
83 74 82 1
84 75 83 1
85 75 84 1
86 77 85 1
87 77 86 1
88 87 88 1
89 87 95 1
90 88 89 1
91 88 91 1
92 88 96 1
93 89 90 2
94 89 106 1
95 91 92 1
96 92 93 1
97 92 94 1
98 91 97 1
99 91 98 1
100 92 99 1
101 93 100 1
102 93 101 1
103 93 102 1
104 94 103 1
105 94 104 1
106 94 105 1
107 106 107 1
108 106 114 1
109 107 108 1
110 107 110 1
111 107 115 1
112 108 109 2
113 108 118 1
114 110 111 1
115 111 112 2
116 111 113 1
117 110 116 1
118 110 117 1
119 118 119 1
120 118 127 1
121 119 120 1
122 119 122 1
123 119 128 1
124 120 121 2
125 120 133 1
126 122 123 1
127 123 124 1
128 124 125 2
129 124 126 1
130 122 129 1
131 122 130 1
132 123 131 1
133 123 132 1
134 133 134 1
135 133 143 1
136 134 135 1
137 134 137 1
138 134 144 1
139 135 136 2
140 135 150 1
141 137 138 1
142 138 139 2
143 139 142 1
144 138 140 1
145 140 141 2
146 141 142 1
147 137 145 1
148 137 146 1
149 139 147 1
150 141 148 1
151 142 149 1
152 150 151 1
153 150 157 1
154 151 152 1
155 151 154 1
156 151 158 1
157 152 153 2
158 152 166 1
159 154 155 1
160 154 156 1
161 154 159 1
162 155 160 1
163 155 161 1
164 155 162 1
165 156 163 1
166 156 164 1
167 156 165 1
168 166 167 1
169 166 175 1
170 167 168 1
171 167 170 1
172 167 176 1
173 168 169 2
174 168 183 1
175 170 171 1
176 171 172 1
177 172 173 1
178 172 174 2
179 170 177 1
180 170 178 1
181 171 179 1
182 171 180 1
183 173 181 1
184 173 182 1
185 183 184 1
186 183 194 1
187 184 185 1
188 184 187 1
189 184 195 1
190 185 186 2
191 185 207 1
192 187 188 1
193 188 189 1
194 189 190 1
195 190 191 1
196 191 192 2
197 191 193 1
198 187 196 1
199 187 197 1
200 188 198 1
201 188 199 1
202 189 200 1
203 189 201 1
204 190 202 1
205 192 203 1
206 192 204 1
207 193 205 1
208 193 206 1
209 207 208 1
210 207 214 1
211 208 209 1
212 208 211 1
213 208 215 1
214 209 210 2
215 209 223 1
216 211 212 1
217 211 213 1
218 211 216 1
219 212 217 1
220 212 218 1
221 212 219 1
222 213 220 1
223 213 221 1
224 213 222 1
225 223 224 1
226 223 231 1
227 224 225 1
228 224 227 1
229 224 232 1
230 225 226 2
231 225 240 1
232 227 228 1
233 228 229 1
234 229 230 1
235 227 233 1
236 227 234 1
237 228 235 1
238 228 236 1
239 230 237 1
240 230 238 1
241 230 239 1
242 240 241 1
243 240 251 1
244 241 242 1
245 241 244 1
246 241 252 1
247 242 243 2
248 244 245 1
249 245 246 1
250 246 247 1
251 247 248 1
252 248 249 2
253 248 250 1
254 244 253 1
255 244 254 1
256 245 255 1
257 245 256 1
258 246 257 1
259 246 258 1
260 247 259 1
261 249 260 1
262 249 261 1
263 250 262 1
264 250 263 1
@<TRIPOS>SUBSTRUCTURE
1	GLU1	1	RESIDUE	1 ****	GLU
2	ASN2	16	RESIDUE	1 ****	ASN
3	PRO3	30	RESIDUE	1 ****	PRO
4	GLU4	44	RESIDUE	1 ****	GLU
5	SER5	59	RESIDUE	1 ****	SER
6	GLN6	70	RESIDUE	1 ****	GLN
7	LEU7	87	RESIDUE	1 ****	LEU
8	ASP8	106	RESIDUE	1 ****	ASP
9	GLU9	118	RESIDUE	1 ****	GLU
10	HIS10	133	RESIDUE	1 ****	HIS
11	VAL11	150	RESIDUE	1 ****	VAL
12	GLN12	166	RESIDUE	1 ****	GLN
13	ARG13	183	RESIDUE	1 ****	ARG
14	VAL14	207	RESIDUE	1 ****	VAL
15	MET15	223	RESIDUE	1 ****	MET
16	ARG16	240	RESIDUE	1 ****	ARG
