@<TRIPOS>MOLECULE
8-12
264 265 16              
SMALL
USER_CHARGES
@<TRIPOS>ATOM
1	   N	1279.307	370.260	-1280.255	N.3	1	GLU1	-0.516	
2	  CA	1279.866	371.609	-1280.255	C.3	1	GLU1	0.040	
3	   C	1281.375	371.569	-1280.255	C.2	1	GLU1	0.537	
4	   O	1282.051	372.268	-1281.023	O.2	1	GLU1	-0.582	
5	  CB	1279.343	372.394	-1279.018	C.3	1	GLU1	0.056	
6	  CG	1279.818	373.879	-1278.907	C.3	1	GLU1	0.014	
7	  CD	1279.394	374.683	-1277.692	C.2	1	GLU1	0.805	
8	 OE1	1278.666	374.181	-1276.814	O.co2	1	GLU1	-0.819	
9	 OE2	1279.824	375.853	-1277.620	O.co2	1	GLU1	-0.819	
10	   H	1279.934	369.381	-1280.255	 H	1	GLU1	0.294	
11	  HA	1279.540	372.127	-1281.175	 H	1	GLU1	0.111	
12	 2HB	1279.632	371.863	-1278.088	 H	1	GLU1	-0.017	
13	 3HB	1278.236	372.384	-1279.005	 H	1	GLU1	-0.017	
14	 2HG	1279.508	374.464	-1279.788	 H	1	GLU1	-0.043	
15	 3HG	1280.918	373.946	-1278.878	 H	1	GLU1	-0.043	
16	   N	1281.980	370.783	-1279.429	N.am	2	ASN2	-0.416	
17	  CA	1283.439	370.744	-1279.429	C.3	2	ASN2	0.014	
18	   C	1283.970	370.389	-1280.798	C.2	2	ASN2	0.597	
19	   O	1284.885	371.019	-1281.327	O.2	2	ASN2	-0.568	
20	  CB	1283.931	369.721	-1278.365	C.3	2	ASN2	-0.204	
21	  CG	1283.468	369.945	-1276.922	C.2	2	ASN2	0.713	
22	 ND2	1284.062	370.860	-1276.204	N.pl3	2	ASN2	-0.919	
23	 OD1	1282.547	369.311	-1276.428	O.2	2	ASN2	-0.593	
24	   H	1281.451	370.203	-1278.793	 H	2	ASN2	0.272	
25	  HA	1283.816	371.754	-1279.184	 H	2	ASN2	0.105	
26	 2HB	1285.035	369.662	-1278.369	 H	2	ASN2	0.080	
27	 3HB	1283.602	368.703	-1278.651	 H	2	ASN2	0.080	
28	1HD2	1283.582	371.033	-1275.317	 H	2	ASN2	0.420	
29	2HD2	1284.764	371.432	-1276.673	 H	2	ASN2	0.420	
30	   N	1283.449	369.394	-1281.432	N.am	3	PRO3	-0.255	
31	  CA	1283.900	368.984	-1282.754	C.3	3	PRO3	-0.027	
32	   C	1283.502	370.008	-1283.831	C.2	3	PRO3	0.590	
33	   O	1284.325	370.391	-1284.662	O.2	3	PRO3	-0.575	
34	  CB	1283.196	367.630	-1282.923	C.3	3	PRO3	-0.007	
35	  CG	1281.913	367.782	-1282.093	C.3	3	PRO3	0.019	
36	  CD	1282.371	368.600	-1280.883	C.3	3	PRO3	0.019	
37	  HA	1284.986	368.864	-1282.768	 H	3	PRO3	0.064	
38	 2HB	1283.819	366.848	-1282.482	 H	3	PRO3	0.025	
39	 3HB	1282.998	367.381	-1283.968	 H	3	PRO3	0.025	
40	 2HG	1281.485	366.819	-1281.802	 H	3	PRO3	0.021	
41	 3HG	1281.175	368.353	-1282.660	 H	3	PRO3	0.021	
42	 2HD	1282.760	367.951	-1280.095	 H	3	PRO3	0.039	
43	 3HD	1281.574	369.236	-1280.490	 H	3	PRO3	0.039	
44	   N	1282.297	370.468	-1283.863	N.am	4	GLU4	-0.516	
45	  CA	1281.938	371.439	-1284.892	C.3	4	GLU4	0.040	
46	   C	1282.836	372.650	-1284.831	C.2	4	GLU4	0.537	
47	   O	1283.363	373.130	-1285.846	O.2	4	GLU4	-0.582	
48	  CB	1280.449	371.857	-1284.722	C.3	4	GLU4	0.056	
49	  CG	1279.901	372.861	-1285.787	C.3	4	GLU4	0.014	
50	  CD	1278.474	373.358	-1285.644	C.2	4	GLU4	0.805	
51	 OE1	1277.748	372.959	-1284.713	O.co2	4	GLU4	-0.819	
52	 OE2	1278.084	374.187	-1286.492	O.co2	4	GLU4	-0.819	
53	   H	1281.613	370.161	-1283.186	 H	4	GLU4	0.294	
54	  HA	1282.068	370.968	-1285.884	 H	4	GLU4	0.111	
55	 2HB	1280.297	372.297	-1283.715	 H	4	GLU4	-0.017	
56	 3HB	1279.801	370.960	-1284.728	 H	4	GLU4	-0.017	
57	 2HG	1279.982	372.446	-1286.805	 H	4	GLU4	-0.043	
58	 3HG	1280.489	373.793	-1285.799	 H	4	GLU4	-0.043	
59	   N	1283.064	373.203	-1283.688	N.am	5	SER5	-0.416	
60	  CA	1283.933	374.374	-1283.630	C.3	5	SER5	-0.025	
61	   C	1285.292	374.069	-1284.216	C.2	5	SER5	0.597	
62	   O	1285.839	374.822	-1285.020	O.2	5	SER5	-0.568	
63	  CB	1284.045	374.906	-1282.179	C.3	5	SER5	0.212	
64	  OG	1284.777	374.027	-1281.318	O.3	5	SER5	-0.655	
65	   H	1282.647	372.831	-1282.847	 H	5	SER5	0.272	
66	  HA	1283.484	375.164	-1284.259	 H	5	SER5	0.084	
67	 2HB	1283.045	375.100	-1281.746	 H	5	SER5	0.035	
68	 3HB	1284.550	375.892	-1282.181	 H	5	SER5	0.035	
69	  HG	1284.288	373.202	-1281.268	 H	5	SER5	0.428	
70	   N	1285.897	372.986	-1283.862	N.am	6	ILE6	-0.416	
71	  CA	1287.210	372.691	-1284.428	C.3	6	ILE6	-0.060	
72	   C	1287.153	372.654	-1285.936	C.2	6	ILE6	0.597	
73	   O	1287.987	373.241	-1286.640	O.2	6	ILE6	-0.568	
74	  CB	1287.810	371.355	-1283.828	C.3	6	ILE6	0.130	
75	 CG1	1287.829	371.292	-1282.267	C.3	6	ILE6	-0.043	
76	 CG2	1289.251	371.053	-1284.344	C.3	6	ILE6	-0.320	
77	 CD1	1288.099	369.903	-1281.652	C.3	6	ILE6	-0.066	
78	   H	1285.469	372.351	-1283.203	 H	6	ILE6	0.272	
79	  HA	1287.884	373.525	-1284.160	 H	6	ILE6	0.087	
80	  HB	1287.152	370.529	-1284.172	 H	6	ILE6	0.019	
81	2HG1	1286.847	371.612	-1281.871	 H	6	ILE6	0.024	
82	3HG1	1288.545	372.034	-1281.862	 H	6	ILE6	0.024	
83	1HG2	1289.310	370.960	-1285.442	 H	6	ILE6	0.088	
84	2HG2	1289.973	371.836	-1284.042	 H	6	ILE6	0.088	
85	3HG2	1289.641	370.091	-1283.965	 H	6	ILE6	0.088	
86	1HD1	1287.371	369.149	-1282.007	 H	6	ILE6	0.019	
87	2HD1	1289.110	369.525	-1281.888	 H	6	ILE6	0.019	
88	3HD1	1288.023	369.933	-1280.550	 H	6	ILE6	0.019	
89	   N	1286.207	371.990	-1286.509	N.am	7	LEU7	-0.416	
90	  CA	1286.152	371.954	-1287.968	C.3	7	LEU7	-0.052	
91	   C	1286.079	373.350	-1288.540	C.2	7	LEU7	0.597	
92	   O	1286.800	373.713	-1289.482	O.2	7	LEU7	-0.568	
93	  CB	1284.949	371.094	-1288.448	C.3	7	LEU7	-0.110	
94	  CG	1284.876	369.615	-1287.982	C.3	7	LEU7	0.353	
95	 CD1	1283.686	368.909	-1288.648	C.3	7	LEU7	-0.412	
96	 CD2	1286.170	368.836	-1288.274	C.3	7	LEU7	-0.412	
97	   H	1285.515	371.503	-1285.958	 H	7	LEU7	0.272	
98	  HA	1287.094	371.514	-1288.342	 H	7	LEU7	0.092	
99	 2HB	1284.925	371.110	-1289.556	 H	7	LEU7	0.046	
100	 3HB	1284.009	371.597	-1288.144	 H	7	LEU7	0.046	
101	  HG	1284.706	369.606	-1286.885	 H	7	LEU7	-0.036	
102	1HD1	1282.729	369.418	-1288.425	 H	7	LEU7	0.100	
103	2HD1	1283.785	368.869	-1289.749	 H	7	LEU7	0.100	
104	3HD1	1283.579	367.868	-1288.292	 H	7	LEU7	0.100	
105	1HD2	1286.445	368.866	-1289.344	 H	7	LEU7	0.100	
106	2HD2	1287.023	369.247	-1287.703	 H	7	LEU7	0.100	
107	3HD2	1286.088	367.773	-1287.978	 H	7	LEU7	0.100	
108	   N	1285.242	374.190	-1288.034	N.am	8	CYS8	-0.416	
109	  CA	1285.171	375.540	-1288.586	C.3	8	CYS8	0.021	
110	   C	1286.519	376.220	-1288.528	C.2	8	CYS8	0.597	
111	   O	1286.991	376.825	-1289.501	O.2	8	CYS8	-0.568	
112	  CB	1284.083	376.324	-1287.827	C.3	8	CYS8	-0.123	
113	  SG	1283.818	377.945	-1288.580	S.3	8	CYS8	-0.312	
114	   H	1284.644	373.919	-1287.266	 H	8	CYS8	0.272	
115	  HA	1284.887	375.464	-1289.652	 H	8	CYS8	0.112	
116	 2HB	1284.348	376.455	-1286.758	 H	8	CYS8	0.111	
117	 3HB	1283.120	375.783	-1287.838	 H	8	CYS8	0.111	
118	  HG	1284.442	378.659	-1287.646	 H	8	CYS8	0.193	
119	   N	1287.198	376.169	-1287.433	N.am	9	GLU9	-0.516	
120	  CA	1288.501	376.826	-1287.377	C.3	9	GLU9	0.040	
121	   C	1289.419	376.299	-1288.453	C.2	9	GLU9	0.537	
122	   O	1290.083	377.054	-1289.178	O.2	9	GLU9	-0.582	
123	  CB	1289.135	376.618	-1285.972	C.3	9	GLU9	0.056	
124	  CG	1290.517	377.310	-1285.742	C.3	9	GLU9	0.014	
125	  CD	1291.219	377.096	-1284.414	C.2	9	GLU9	0.805	
126	 OE1	1290.697	376.404	-1283.518	O.co2	9	GLU9	-0.819	
127	 OE2	1292.338	377.633	-1284.282	O.co2	9	GLU9	-0.819	
128	   H	1286.835	375.682	-1286.626	 H	9	GLU9	0.294	
129	  HA	1288.359	377.908	-1287.552	 H	9	GLU9	0.111	
130	 2HB	1289.247	375.533	-1285.769	 H	9	GLU9	-0.017	
131	 3HB	1288.437	376.970	-1285.187	 H	9	GLU9	-0.017	
132	 2HG	1290.445	378.401	-1285.881	 H	9	GLU9	-0.043	
133	 3HG	1291.264	376.965	-1286.476	 H	9	GLU9	-0.043	
134	   N	1289.515	375.024	-1288.624	N.am	10	HIS10	-0.416	
135	  CA	1290.403	374.514	-1289.665	C.3	10	HIS10	-0.058	
136	   C	1290.036	375.080	-1291.015	C.2	10	HIS10	0.597	
137	   O	1290.889	375.545	-1291.787	O.2	10	HIS10	-0.568	
138	  CB	1290.238	372.985	-1289.661	C.3	10	HIS10	-0.007	
139	  CG	1291.524	372.274	-1289.354	C.2	10	HIS10	0.187	
140	 CD2	1291.905	371.937	-1288.062	C.2	10	HIS10	-0.221	
141	 ND1	1292.476	371.869	-1290.287	N.2	10	HIS10	-0.543	
142	 CE1	1293.382	371.310	-1289.464	C.2	10	HIS10	0.163	
143	 NE2	1293.119	371.306	-1288.129	N.pl3	10	HIS10	-0.280	
144	   H	1288.984	374.389	-1288.046	 H	10	HIS10	0.272	
145	  HA	1291.422	374.871	-1289.439	 H	10	HIS10	0.136	
146	 2HB	1289.873	372.619	-1290.642	 H	10	HIS10	0.037	
147	 3HB	1289.483	372.647	-1288.922	 H	10	HIS10	0.037	
148	 2HD	1291.319	372.152	-1287.172	 H	10	HIS10	0.186	
149	 1HE	1294.273	370.889	-1289.911	 H	10	HIS10	0.144	
150	 2HE	1293.686	370.927	-1287.356	 H	10	HIS10	0.334	
151	   N	1288.798	375.079	-1291.378	N.am	11	VAL11	-0.416	
152	  CA	1288.443	375.627	-1292.685	C.3	11	VAL11	-0.087	
153	   C	1288.908	377.057	-1292.816	C.2	11	VAL11	0.597	
154	   O	1289.509	377.463	-1293.818	O.2	11	VAL11	-0.568	
155	  CB	1286.882	375.521	-1292.904	C.3	11	VAL11	0.299	
156	 CG1	1286.314	376.226	-1294.166	C.3	11	VAL11	-0.319	
157	 CG2	1286.357	374.067	-1292.979	C.3	11	VAL11	-0.319	
158	   H	1288.085	374.706	-1290.768	 H	11	VAL11	0.272	
159	  HA	1288.963	375.045	-1293.468	 H	11	VAL11	0.097	
160	  HB	1286.395	376.000	-1292.028	 H	11	VAL11	-0.030	
161	1HG1	1286.752	375.835	-1295.104	 H	11	VAL11	0.079	
162	2HG1	1285.215	376.119	-1294.248	 H	11	VAL11	0.079	
163	3HG1	1286.492	377.318	-1294.156	 H	11	VAL11	0.079	
164	1HG2	1286.647	373.479	-1292.089	 H	11	VAL11	0.079	
165	2HG2	1285.251	374.030	-1293.021	 H	11	VAL11	0.079	
166	3HG2	1286.739	373.527	-1293.866	 H	11	VAL11	0.079	
167	   N	1288.671	377.882	-1291.852	N.am	12	GLN12	-0.416	
168	  CA	1289.120	379.265	-1291.978	C.3	12	GLN12	-0.003	
169	   C	1290.610	379.332	-1292.216	C.2	12	GLN12	0.597	
170	   O	1291.097	380.041	-1293.093	O.2	12	GLN12	-0.568	
171	  CB	1288.730	380.031	-1290.694	C.3	12	GLN12	-0.004	
172	  CG	1289.090	381.553	-1290.661	C.3	12	GLN12	-0.064	
173	  CD	1288.788	382.365	-1289.396	C.2	12	GLN12	0.695	
174	 NE2	1288.221	381.788	-1288.367	N.pl3	12	GLN12	-0.941	
175	 OE1	1289.090	383.546	-1289.317	O.2	12	GLN12	-0.609	
176	   H	1288.182	377.575	-1291.023	 H	12	GLN12	0.272	
177	  HA	1288.621	379.722	-1292.852	 H	12	GLN12	0.085	
178	 2HB	1289.206	379.530	-1289.825	 H	12	GLN12	0.017	
179	 3HB	1287.639	379.924	-1290.531	 H	12	GLN12	0.017	
180	 2HG	1288.613	382.075	-1291.511	 H	12	GLN12	0.035	
181	 3HG	1290.174	381.695	-1290.827	 H	12	GLN12	0.035	
182	1HE2	1288.114	382.381	-1287.543	 H	12	GLN12	0.425	
183	2HE2	1288.057	380.784	-1288.472	 H	12	GLN12	0.425	
184	   N	1291.395	378.624	-1291.476	N.am	13	ARG13	-0.348	
185	  CA	1292.835	378.690	-1291.706	C.3	13	ARG13	-0.264	
186	   C	1293.171	378.320	-1293.132	C.2	13	ARG13	0.734	
187	   O	1293.939	378.992	-1293.815	O.2	13	ARG13	-0.589	
188	  CB	1293.548	377.750	-1290.694	C.3	13	ARG13	-0.001	
189	  CG	1295.093	377.902	-1290.612	C.3	13	ARG13	0.039	
190	  CD	1295.720	376.913	-1289.616	C.3	13	ARG13	0.049	
191	  NE	1297.197	377.120	-1289.565	N.pl3	13	ARG13	-0.530	
192	  CZ	1298.045	376.427	-1288.811	C.cat	13	ARG13	0.808	
193	 NH1	1297.680	375.462	-1288.015	N.pl3	13	ARG13	-0.863	
194	 NH2	1299.304	376.726	-1288.868	N.pl3	13	ARG13	-0.863	
195	   H	1291.018	378.034	-1290.748	 H	13	ARG13	0.275	
196	  HA	1293.159	379.736	-1291.547	 H	13	ARG13	0.156	
197	 2HB	1293.281	376.700	-1290.934	 H	13	ARG13	0.033	
198	 3HB	1293.123	377.915	-1289.683	 H	13	ARG13	0.033	
199	 2HG	1295.341	378.947	-1290.332	 H	13	ARG13	0.029	
200	 3HG	1295.543	377.747	-1291.614	 H	13	ARG13	0.029	
201	 2HD	1295.475	375.874	-1289.926	 H	13	ARG13	0.069	
202	 3HD	1295.263	377.058	-1288.613	 H	13	ARG13	0.069	
203	  HE	1297.648	377.843	-1290.135	 H	13	ARG13	0.346	
204	1HH1	1296.674	375.276	-1288.018	 H	13	ARG13	0.448	
205	2HH1	1298.393	374.978	-1287.467	 H	13	ARG13	0.448	
206	1HH2	1299.572	377.485	-1289.498	 H	13	ARG13	0.448	
207	2HH2	1299.940	376.184	-1288.280	 H	13	ARG13	0.448	
208	   N	1292.634	377.266	-1293.647	N.am	14	VAL14	-0.416	
209	  CA	1292.958	376.909	-1295.025	C.3	14	VAL14	-0.087	
210	   C	1292.628	378.040	-1295.969	C.2	14	VAL14	0.597	
211	   O	1293.422	378.422	-1296.839	O.2	14	VAL14	-0.568	
212	  CB	1292.186	375.592	-1295.433	C.3	14	VAL14	0.299	
213	 CG1	1292.274	375.175	-1296.927	C.3	14	VAL14	-0.319	
214	 CG2	1292.617	374.339	-1294.634	C.3	14	VAL14	-0.319	
215	   H	1291.999	376.697	-1293.106	 H	14	VAL14	0.272	
216	  HA	1294.047	376.732	-1295.100	 H	14	VAL14	0.097	
217	  HB	1291.109	375.763	-1295.217	 H	14	VAL14	-0.030	
218	1HG1	1293.315	374.998	-1297.256	 H	14	VAL14	0.079	
219	2HG1	1291.701	374.253	-1297.141	 H	14	VAL14	0.079	
220	3HG1	1291.845	375.938	-1297.605	 H	14	VAL14	0.079	
221	1HG2	1292.531	374.496	-1293.544	 H	14	VAL14	0.079	
222	2HG2	1291.981	373.463	-1294.867	 H	14	VAL14	0.079	
223	3HG2	1293.665	374.049	-1294.841	 H	14	VAL14	0.079	
224	   N	1291.484	378.626	-1295.867	N.am	15	MET15	-0.416	
225	  CA	1291.163	379.720	-1296.779	C.3	15	MET15	-0.024	
226	   C	1292.194	380.819	-1296.690	C.2	15	MET15	0.597	
227	   O	1292.697	381.331	-1297.703	O.2	15	MET15	-0.568	
228	  CB	1289.742	380.265	-1296.469	C.3	15	MET15	0.034	
229	  CG	1288.580	379.268	-1296.662	C.3	15	MET15	0.002	
230	  SD	1287.006	380.134	-1296.546	S.3	15	MET15	-0.274	
231	  CE	1285.925	378.705	-1296.411	C.3	15	MET15	-0.054	
232	   H	1290.819	378.332	-1295.165	 H	15	MET15	0.272	
233	  HA	1291.189	379.334	-1297.815	 H	15	MET15	0.088	
234	 2HB	1289.540	381.145	-1297.110	 H	15	MET15	0.024	
235	 3HB	1289.707	380.657	-1295.432	 H	15	MET15	0.024	
236	 2HG	1288.623	378.481	-1295.885	 H	15	MET15	0.044	
237	 3HG	1288.643	378.754	-1297.639	 H	15	MET15	0.044	
238	 1HE	1286.068	378.017	-1297.264	 H	15	MET15	0.068	
239	 2HE	1286.134	378.151	-1295.479	 H	15	MET15	0.068	
240	 3HE	1284.867	379.020	-1296.394	 H	15	MET15	0.068	
241	   N	1292.563	381.239	-1295.528	N.am	16	ARG16	-0.348	
242	  CA	1293.560	382.302	-1295.443	C.3	16	ARG16	-0.264	
243	   C	1294.830	381.910	-1296.160	C.2	16	ARG16	0.734	
244	   O	1294.944	380.834	-1296.743	O.2	16	ARG16	-0.589	
245	  CB	1293.829	382.618	-1293.945	C.3	16	ARG16	-0.001	
246	  CG	1294.655	383.907	-1293.671	C.3	16	ARG16	0.039	
247	  CD	1294.905	384.125	-1292.169	C.3	16	ARG16	0.049	
248	  NE	1295.682	385.383	-1291.967	N.pl3	16	ARG16	-0.530	
249	  CZ	1296.073	385.864	-1290.791	C.cat	16	ARG16	0.808	
250	 NH1	1295.826	385.279	-1289.653	N.pl3	16	ARG16	-0.863	
251	 NH2	1296.738	386.976	-1290.771	N.pl3	16	ARG16	-0.863	
252	   H	1292.168	380.838	-1294.689	 H	16	ARG16	0.275	
253	  HA	1293.151	383.195	-1295.952	 H	16	ARG16	0.156	
254	 2HB	1294.326	381.742	-1293.479	 H	16	ARG16	0.033	
255	 3HB	1292.861	382.699	-1293.411	 H	16	ARG16	0.033	
256	 2HG	1294.125	384.778	-1294.107	 H	16	ARG16	0.029	
257	 3HG	1295.629	383.854	-1294.200	 H	16	ARG16	0.029	
258	 2HD	1295.454	383.249	-1291.757	 H	16	ARG16	0.069	
259	 3HD	1293.932	384.167	-1291.634	 H	16	ARG16	0.069	
260	  HE	1295.960	385.965	-1292.764	 H	16	ARG16	0.346	
261	1HH1	1295.300	384.406	-1289.738	 H	16	ARG16	0.448	
262	2HH1	1296.161	385.713	-1288.792	 H	16	ARG16	0.448	
263	1HH2	1296.923	387.420	-1291.673	 H	16	ARG16	0.448	
264	2HH2	1297.028	387.330	-1289.859	 H	16	ARG16	0.448	
@<TRIPOS>BOND
1 1 2 1
2 1 10 1
3 2 3 1
4 2 5 1
5 2 11 1
6 3 4 2
7 3 16 1
8 5 6 1
9 6 7 1
10 7 8 2
11 7 9 1
12 5 12 1
13 5 13 1
14 6 14 1
15 6 15 1
16 16 17 1
17 16 24 1
18 17 18 1
19 17 20 1
20 17 25 1
21 18 19 2
22 18 30 1
23 20 21 1
24 21 22 1
25 21 23 2
26 20 26 1
27 20 27 1
28 22 28 1
29 22 29 1
30 30 31 1
31 30 36 1
32 31 32 1
33 31 34 1
34 31 37 1
35 32 33 2
36 32 44 1
37 34 35 1
38 35 36 1
39 34 38 1
40 34 39 1
41 35 40 1
42 35 41 1
43 36 42 1
44 36 43 1
45 44 45 1
46 44 53 1
47 45 46 1
48 45 48 1
49 45 54 1
50 46 47 2
51 46 59 1
52 48 49 1
53 49 50 1
54 50 51 2
55 50 52 1
56 48 55 1
57 48 56 1
58 49 57 1
59 49 58 1
60 59 60 1
61 59 65 1
62 60 61 1
63 60 63 1
64 60 66 1
65 61 62 2
66 61 70 1
67 63 64 1
68 63 67 1
69 63 68 1
70 64 69 1
71 70 71 1
72 70 78 1
73 71 72 1
74 71 74 1
75 71 79 1
76 72 73 2
77 72 89 1
78 74 75 1
79 74 76 1
80 75 77 1
81 74 80 1
82 75 81 1
83 75 82 1
84 76 83 1
85 76 84 1
86 76 85 1
87 77 86 1
88 77 87 1
89 77 88 1
90 89 90 1
91 89 97 1
92 90 91 1
93 90 93 1
94 90 98 1
95 91 92 2
96 91 108 1
97 93 94 1
98 94 95 1
99 94 96 1
100 93 99 1
101 93 100 1
102 94 101 1
103 95 102 1
104 95 103 1
105 95 104 1
106 96 105 1
107 96 106 1
108 96 107 1
109 108 109 1
110 108 114 1
111 109 110 1
112 109 112 1
113 109 115 1
114 110 111 2
115 110 119 1
116 112 113 1
117 112 116 1
118 112 117 1
119 113 118 1
120 119 120 1
121 119 128 1
122 120 121 1
123 120 123 1
124 120 129 1
125 121 122 2
126 121 134 1
127 123 124 1
128 124 125 1
129 125 126 2
130 125 127 1
131 123 130 1
132 123 131 1
133 124 132 1
134 124 133 1
135 134 135 1
136 134 144 1
137 135 136 1
138 135 138 1
139 135 145 1
140 136 137 2
141 136 151 1
142 138 139 1
143 139 140 2
144 140 143 1
145 139 141 1
146 141 142 2
147 142 143 1
148 138 146 1
149 138 147 1
150 140 148 1
151 142 149 1
152 143 150 1
153 151 152 1
154 151 158 1
155 152 153 1
156 152 155 1
157 152 159 1
158 153 154 2
159 153 167 1
160 155 156 1
161 155 157 1
162 155 160 1
163 156 161 1
164 156 162 1
165 156 163 1
166 157 164 1
167 157 165 1
168 157 166 1
169 167 168 1
170 167 176 1
171 168 169 1
172 168 171 1
173 168 177 1
174 169 170 2
175 169 184 1
176 171 172 1
177 172 173 1
178 173 174 1
179 173 175 2
180 171 178 1
181 171 179 1
182 172 180 1
183 172 181 1
184 174 182 1
185 174 183 1
186 184 185 1
187 184 195 1
188 185 186 1
189 185 188 1
190 185 196 1
191 186 187 2
192 186 208 1
193 188 189 1
194 189 190 1
195 190 191 1
196 191 192 1
197 192 193 2
198 192 194 1
199 188 197 1
200 188 198 1
201 189 199 1
202 189 200 1
203 190 201 1
204 190 202 1
205 191 203 1
206 193 204 1
207 193 205 1
208 194 206 1
209 194 207 1
210 208 209 1
211 208 215 1
212 209 210 1
213 209 212 1
214 209 216 1
215 210 211 2
216 210 224 1
217 212 213 1
218 212 214 1
219 212 217 1
220 213 218 1
221 213 219 1
222 213 220 1
223 214 221 1
224 214 222 1
225 214 223 1
226 224 225 1
227 224 232 1
228 225 226 1
229 225 228 1
230 225 233 1
231 226 227 2
232 226 241 1
233 228 229 1
234 229 230 1
235 230 231 1
236 228 234 1
237 228 235 1
238 229 236 1
239 229 237 1
240 231 238 1
241 231 239 1
242 231 240 1
243 241 242 1
244 241 252 1
245 242 243 1
246 242 245 1
247 242 253 1
248 243 244 2
249 245 246 1
250 246 247 1
251 247 248 1
252 248 249 1
253 249 250 2
254 249 251 1
255 245 254 1
256 245 255 1
257 246 256 1
258 246 257 1
259 247 258 1
260 247 259 1
261 248 260 1
262 250 261 1
263 250 262 1
264 251 263 1
265 251 264 1
@<TRIPOS>SUBSTRUCTURE
1	GLU1	1	RESIDUE	1 ****	GLU
2	ASN2	16	RESIDUE	1 ****	ASN
3	PRO3	30	RESIDUE	1 ****	PRO
4	GLU4	44	RESIDUE	1 ****	GLU
5	SER5	59	RESIDUE	1 ****	SER
6	ILE6	70	RESIDUE	1 ****	ILE
7	LEU7	89	RESIDUE	1 ****	LEU
8	CYS8	108	RESIDUE	1 ****	CYS
9	GLU9	119	RESIDUE	1 ****	GLU
10	HIS10	134	RESIDUE	1 ****	HIS
11	VAL11	151	RESIDUE	1 ****	VAL
12	GLN12	167	RESIDUE	1 ****	GLN
13	ARG13	184	RESIDUE	1 ****	ARG
14	VAL14	208	RESIDUE	1 ****	VAL
15	MET15	224	RESIDUE	1 ****	MET
16	ARG16	241	RESIDUE	1 ****	ARG
