REMARK WARNING: 32 MAX_TORS EXCEEDED!!!
REMARK  66 active torsions:
REMARK  status: ('A' for Active; 'I' for Inactive)
REMARK    1  A    between atoms: N_1  and  CA_2 
REMARK    2  A    between atoms: CA_2  and  C_3 
REMARK    3  A    between atoms: CA_2  and  CB_5 
REMARK       I    between atoms: C_3  and  N_11 
REMARK    4  A    between atoms: CB_5  and  CG_6 
REMARK    5  A    between atoms: CG_6  and  CD_7 
REMARK    6  A    between atoms: N_11  and  CA_12 
REMARK    7  A    between atoms: CA_12  and  C_13 
REMARK    8  A    between atoms: CA_12  and  CB_15 
REMARK       I    between atoms: C_13  and  N_22 
REMARK    9  A    between atoms: CB_15  and  CG_16 
REMARK       I    between atoms: CG_16  and  ND2_17 
REMARK   10  A    between atoms: CA_23  and  C_24 
REMARK       I    between atoms: C_24  and  N_29 
REMARK   11  A    between atoms: N_29  and  CA_30 
REMARK   12  A    between atoms: CA_30  and  C_31 
REMARK   13  A    between atoms: CA_30  and  CB_33 
REMARK       I    between atoms: C_31  and  N_39 
REMARK   14  A    between atoms: CB_33  and  CG_34 
REMARK   15  A    between atoms: CG_34  and  CD_35 
REMARK   16  A    between atoms: N_39  and  CA_40 
REMARK   17  A    between atoms: CA_40  and  C_41 
REMARK   18  A    between atoms: CA_40  and  CB_43 
REMARK       I    between atoms: C_41  and  N_47 
REMARK   19  A    between atoms: CB_43  and  OG_44 
REMARK   20  A    between atoms: N_47  and  CA_48 
REMARK   21  A    between atoms: CA_48  and  C_49 
REMARK   22  A    between atoms: CA_48  and  CB_51 
REMARK       I    between atoms: C_49  and  N_56 
REMARK   23  A    between atoms: CB_51  and  CG1_52 
REMARK   24  A    between atoms: N_56  and  CA_57 
REMARK   25  A    between atoms: CA_57  and  C_58 
REMARK   26  A    between atoms: CA_57  and  CB_60 
REMARK       I    between atoms: C_58  and  N_65 
REMARK   27  A    between atoms: CB_60  and  CG_61 
REMARK   28  A    between atoms: N_65  and  CA_66 
REMARK   29  A    between atoms: CA_66  and  C_67 
REMARK   30  A    between atoms: CA_66  and  CB_69 
REMARK       I    between atoms: C_67  and  N_74 
REMARK   31  A    between atoms: CB_69  and  CG_70 
REMARK   32  A    between atoms: N_74  and  CA_75 
REMARK   33  A    between atoms: CA_75  and  C_76 
REMARK   34  A    between atoms: CA_75  and  CB_78 
REMARK       I    between atoms: C_76  and  N_84 
REMARK   35  A    between atoms: CB_78  and  CG_79 
REMARK   36  A    between atoms: CG_79  and  CD_80 
REMARK   37  A    between atoms: N_84  and  CA_85 
REMARK   38  A    between atoms: CA_85  and  C_86 
REMARK   39  A    between atoms: CA_85  and  CB_88 
REMARK       I    between atoms: C_86  and  N_96 
REMARK   40  A    between atoms: CB_88  and  CG_89 
REMARK   41  A    between atoms: N_96  and  CA_97 
REMARK   42  A    between atoms: CA_97  and  C_98 
REMARK   43  A    between atoms: CA_97  and  CB_100 
REMARK       I    between atoms: C_98  and  N_104 
REMARK   44  A    between atoms: N_104  and  CA_105 
REMARK   45  A    between atoms: CA_105  and  C_106 
REMARK   46  A    between atoms: CA_105  and  CB_108 
REMARK       I    between atoms: C_106  and  N_116 
REMARK   47  A    between atoms: CB_108  and  CG_109 
REMARK   48  A    between atoms: CG_109  and  CD_110 
REMARK       I    between atoms: CD_110  and  NE2_111 
REMARK   49  A    between atoms: N_116  and  CA_117 
REMARK   50  A    between atoms: CA_117  and  C_118 
REMARK   51  A    between atoms: CA_117  and  CB_120 
REMARK       I    between atoms: C_118  and  N_133 
REMARK   52  A    between atoms: CB_120  and  CG_121 
REMARK   53  A    between atoms: CG_121  and  CD_122 
REMARK   54  A    between atoms: CD_122  and  NE_123 
REMARK       I    between atoms: NE_123  and  CZ_124 
REMARK       I    between atoms: CZ_124  and  NH1_125 
REMARK   55  A    between atoms: N_133  and  CA_134 
REMARK   56  A    between atoms: CA_134  and  C_135 
REMARK   57  A    between atoms: CA_134  and  CB_137 
REMARK       I    between atoms: C_135  and  N_141 
REMARK   58  A    between atoms: N_141  and  CA_142 
REMARK   59  A    between atoms: CA_142  and  C_143 
REMARK   60  A    between atoms: CA_142  and  CB_145 
REMARK       I    between atoms: C_143  and  N_150 
REMARK   61  A    between atoms: CB_145  and  CG_146 
REMARK   62  A    between atoms: CG_146  and  SD_147 
REMARK   63  A    between atoms: N_150  and  CA_151 
REMARK   64  A    between atoms: CA_151  and  C_152 
REMARK   65  A    between atoms: CA_151  and  CB_154 
REMARK   66  A    between atoms: CB_154  and  CG_155 
ROOT
ATOM      1  C   GLU d   9    2579.999 794.384-2692.194  0.00  0.00     0.241 C 
ATOM      2  O   GLU d   9    2580.663 795.138-2692.920  0.00  0.00    -0.271 OA
ATOM      3  N   HIS d  10    2580.095 793.109-2692.363  0.00  0.00    -0.346 N 
ATOM      4  H   HIS d  10    2579.564 792.474-2691.784  0.00  0.00     0.163 HD
ENDROOT
BRANCH   1   5
ATOM      5  CA  GLU d   9    2579.082 794.913-2691.118  0.00  0.00     0.177 C 
BRANCH   5   6
ATOM      6  N   GLU d   9    2577.778 794.256-2691.173  0.00  0.00    -0.346 N 
ATOM      7  C   ASP d   8    2577.098 794.305-2692.268  0.00  0.00     0.241 C 
ATOM      8  O   ASP d   8    2577.571 794.910-2693.243  0.00  0.00    -0.271 OA
ATOM      9  H   GLU d   9    2577.415 793.770-2690.366  0.00  0.00     0.163 HD
BRANCH   7  10
ATOM     10  CA  ASP d   8    2575.751 793.626-2692.325  0.00  0.00     0.186 C 
BRANCH  10  11
ATOM     11  N   ASP d   8    2575.821 792.277-2691.771  0.00  0.00    -0.346 N 
ATOM     12  C   LEU d   7    2576.658 791.436-2692.277  0.00  0.00     0.241 C 
ATOM     13  O   LEU d   7    2577.379 791.798-2693.219  0.00  0.00    -0.271 OA
ATOM     14  H   ASP d   8    2575.223 792.007-2691.003  0.00  0.00     0.163 HD
BRANCH  12  15
ATOM     15  CA  LEU d   7    2576.730 790.041-2691.704  0.00  0.00     0.177 C 
BRANCH  15  16
ATOM     16  N   LEU d   7    2576.785 790.077-2690.245  0.00  0.00    -0.346 N 
ATOM     17  C   ILE d   6    2577.731 790.740-2689.672  0.00  0.00     0.241 C 
ATOM     18  O   ILE d   6    2578.566 791.327-2690.376  0.00  0.00    -0.271 OA
ATOM     19  H   LEU d   7    2576.093 789.590-2689.694  0.00  0.00     0.163 HD
BRANCH  17  20
ATOM     20  CA  ILE d   6    2577.788 790.778-2688.164  0.00  0.00     0.180 C 
BRANCH  20  21
ATOM     21  N   ILE d   6    2576.475 791.073-2687.598  0.00  0.00    -0.346 N 
ATOM     22  C   SER d   5    2575.871 792.156-2687.952  0.00  0.00     0.243 C 
ATOM     23  O   SER d   5    2576.418 792.910-2688.757  0.00  0.00    -0.271 OA
ATOM     24  H   ILE d   6    2576.046 790.439-2686.939  0.00  0.00     0.163 HD
BRANCH  22  25
ATOM     25  CA  SER d   5    2574.512 792.462-2687.367  0.00  0.00     0.200 C 
BRANCH  25  26
ATOM     26  N   SER d   5    2573.642 791.291-2687.426  0.00  0.00    -0.344 N 
ATOM     27  C   GLU d   4    2573.415 790.739-2688.569  0.00  0.00     0.241 C 
ATOM     28  O   GLU d   4    2573.942 791.218-2689.583  0.00  0.00    -0.271 OA
ATOM     29  H   SER d   5    2573.224 790.920-2686.585  0.00  0.00     0.163 HD
BRANCH  27  30
ATOM     30  CA  GLU d   4    2572.516 789.528-2688.631  0.00  0.00     0.177 C 
BRANCH  30  31
ATOM     31  N   GLU d   4    2572.875 788.557-2687.601  0.00  0.00    -0.346 N 
ATOM     32  C   PRO d   3    2574.080 788.097-2687.568  0.00  0.00     0.241 C 
ATOM     33  O   PRO d   3    2574.903 788.480-2688.400  0.00  0.00    -0.271 OA
ATOM     34  H   GLU d   4    2572.190 788.250-2686.925  0.00  0.00     0.163 HD
BRANCH  32  35
ATOM     35  CA  PRO d   3    2574.477 787.073-2686.491  0.00  0.00     0.179 C 
ATOM     36  N   PRO d   3    2574.025 787.482-2685.170  0.00  0.00    -0.337 N 
ATOM     37  C   ASN d   2    2574.547 788.477-2684.536  0.00  0.00     0.243 C 
ATOM     38  CD  PRO d   3    2572.947 786.690-2684.621  0.00  0.00     0.127 C 
ATOM     39  O   ASN d   2    2575.462 789.108-2685.064  0.00  0.00    -0.271 OA
ATOM     40  CG  PRO d   3    2572.489 785.871-2685.831  0.00  0.00     0.022 C 
ATOM     41  CB  PRO d   3    2573.773 785.719-2686.661  0.00  0.00     0.037 C 
BRANCH  37  42
ATOM     42  CA  ASN d   2    2574.015 788.833-2683.167  0.00  0.00     0.185 C 
BRANCH  42  43
ATOM     43  N   ASN d   2    2572.556 788.872-2683.167  0.00  0.00    -0.346 N 
ATOM     44  C   GLU d   1    2571.951 789.658-2683.992  0.00  0.00     0.242 C 
ATOM     45  O   GLU d   1    2572.627 790.357-2684.761  0.00  0.00    -0.271 OA
ATOM     46  H   ASN d   2    2572.028 788.292-2682.531  0.00  0.00     0.163 HD
BRANCH  44  47
ATOM     47  CA  GLU d   1    2570.442 789.698-2683.992  0.00  0.00     0.191 C 
BRANCH  47  48
ATOM     48  N   GLU d   1    2569.883 788.349-2683.992  0.00  0.00    -0.326 NA
ATOM     49  H   GLU d   1    2570.510 787.470-2683.992  0.00  0.00     0.180 HD
ENDBRANCH  47  48
BRANCH  47  50
ATOM     50  CB  GLU d   1    2569.919 790.483-2682.756  0.00  0.00     0.047 C 
BRANCH  50  51
ATOM     51  CG  GLU d   1    2570.394 791.968-2682.645  0.00  0.00     0.116 C 
BRANCH  51  52
ATOM     52  CD  GLU d   1    2569.970 792.772-2681.429  0.00  0.00     0.172 C 
ATOM     53  OE1 GLU d   1    2569.242 792.270-2680.552  0.00  0.00    -0.648 OA
ATOM     54  OE2 GLU d   1    2570.400 793.942-2681.357  0.00  0.00    -0.648 OA
ENDBRANCH  51  52
ENDBRANCH  50  51
ENDBRANCH  47  50
ENDBRANCH  44  47
ENDBRANCH  42  43
BRANCH  42  55
ATOM     55  CB  ASN d   2    2574.507 787.810-2682.103  0.00  0.00     0.137 C 
BRANCH  55  56
ATOM     56  CG  ASN d   2    2574.043 788.034-2680.659  0.00  0.00     0.217 C 
ATOM     57  ND2 ASN d   2    2574.637 788.948-2679.941  0.00  0.00    -0.370 N 
ATOM     58 21HD ASN d   2    2574.156 789.122-2679.054  0.00  0.00     0.159 HD
ATOM     59 22HD ASN d   2    2575.339 789.520-2680.410  0.00  0.00     0.159 HD
ATOM     60  OD1 ASN d   2    2573.122 787.400-2680.165  0.00  0.00    -0.274 OA
ENDBRANCH  55  56
ENDBRANCH  42  55
ENDBRANCH  37  42
ENDBRANCH  32  35
ENDBRANCH  30  31
BRANCH  30  61
ATOM     61  CB  GLU d   4    2571.027 789.947-2688.461  0.00  0.00     0.045 C 
BRANCH  61  62
ATOM     62  CG  GLU d   4    2570.480 790.951-2689.527  0.00  0.00     0.116 C 
BRANCH  62  63
ATOM     63  CD  GLU d   4    2569.053 791.448-2689.384  0.00  0.00     0.172 C 
ATOM     64  OE1 GLU d   4    2568.326 791.050-2688.453  0.00  0.00    -0.648 OA
ATOM     65  OE2 GLU d   4    2568.664 792.277-2690.232  0.00  0.00    -0.648 OA
ENDBRANCH  62  63
ENDBRANCH  61  62
ENDBRANCH  30  61
ENDBRANCH  27  30
ENDBRANCH  25  26
BRANCH  25  66
ATOM     66  CB  SER d   5    2574.623 792.994-2685.917  0.00  0.00     0.199 C 
BRANCH  66  67
ATOM     67  OG  SER d   5    2575.354 792.115-2685.056  0.00  0.00    -0.398 OA
ATOM     68  HG  SER d   5    2574.865 791.290-2685.005  0.00  0.00     0.209 HD
ENDBRANCH  66  67
ENDBRANCH  25  66
ENDBRANCH  22  25
ENDBRANCH  20  21
BRANCH  20  69
ATOM     69  CB  ILE d   6    2578.387 789.441-2687.564  0.00  0.00     0.013 C 
ATOM     70  CG2 ILE d   6    2579.828 789.139-2688.079  0.00  0.00     0.012 C 
BRANCH  69  71
ATOM     71  CG1 ILE d   6    2578.406 789.379-2686.003  0.00  0.00     0.002 C 
ATOM     72  CD1 ILE d   6    2578.676 787.990-2685.388  0.00  0.00     0.005 C 
ENDBRANCH  69  71
ENDBRANCH  20  69
ENDBRANCH  17  20
ENDBRANCH  15  16
BRANCH  15  73
ATOM     73  CB  LEU d   7    2575.527 789.181-2692.184  0.00  0.00     0.038 C 
BRANCH  73  74
ATOM     74  CG  LEU d   7    2575.453 787.701-2691.718  0.00  0.00    -0.020 C 
ATOM     75  CD1 LEU d   7    2574.263 786.996-2692.383  0.00  0.00     0.009 C 
ATOM     76  CD2 LEU d   7    2576.747 786.922-2692.009  0.00  0.00     0.009 C 
ENDBRANCH  73  74
ENDBRANCH  15  73
ENDBRANCH  12  15
ENDBRANCH  10  11
BRANCH  10  77
ATOM     77  CB  ASP d   8    2574.674 794.466-2691.584  0.00  0.00     0.147 C 
BRANCH  77  78
ATOM     78  CG  ASP d   8    2574.456 795.887-2692.125  0.00  0.00     0.175 C 
ATOM     79  OD1 ASP d   8    2574.520 796.085-2693.356  0.00  0.00    -0.648 OA
ATOM     80  OD2 ASP d   8    2574.264 796.813-2691.311  0.00  0.00    -0.648 OA
ENDBRANCH  77  78
ENDBRANCH  10  77
ENDBRANCH   7  10
ENDBRANCH   5   6
BRANCH   5  81
ATOM     81  CB  GLU d   9    2579.715 794.705-2689.713  0.00  0.00     0.045 C 
BRANCH  81  82
ATOM     82  CG  GLU d   9    2581.098 795.397-2689.484  0.00  0.00     0.116 C 
BRANCH  82  83
ATOM     83  CD  GLU d   9    2581.800 795.184-2688.156  0.00  0.00     0.172 C 
ATOM     84  OE1 GLU d   9    2581.278 794.494-2687.259  0.00  0.00    -0.648 OA
ATOM     85  OE2 GLU d   9    2582.919 795.722-2688.025  0.00  0.00    -0.648 OA
ENDBRANCH  82  83
ENDBRANCH  81  82
ENDBRANCH   5  81
ENDBRANCH   1   5
BRANCH   3  86
ATOM     86  CA  HIS d  10    2580.982 792.597-2693.404  0.00  0.00     0.182 C 
BRANCH  86  87
ATOM     87  C   HIS d  10    2580.615 793.161-2694.755  0.00  0.00     0.241 C 
ATOM     88  O   HIS d  10    2581.468 793.625-2695.527  0.00  0.00    -0.271 OA
ATOM     89  N   VAL d  11    2579.377 793.160-2695.118  0.00  0.00    -0.346 N 
ATOM     90  H   VAL d  11    2578.664 792.788-2694.507  0.00  0.00     0.163 HD
BRANCH  89  91
ATOM     91  CA  VAL d  11    2579.022 793.706-2696.425  0.00  0.00     0.180 C 
BRANCH  91  92
ATOM     92  C   VAL d  11    2579.488 795.136-2696.558  0.00  0.00     0.241 C 
ATOM     93  O   VAL d  11    2580.089 795.540-2697.561  0.00  0.00    -0.271 OA
ATOM     94  N   GLN d  12    2579.251 795.962-2695.596  0.00  0.00    -0.346 N 
ATOM     95  H   GLN d  12    2578.762 795.657-2694.767  0.00  0.00     0.163 HD
BRANCH  94  96
ATOM     96  CA  GLN d  12    2579.700 797.345-2695.724  0.00  0.00     0.177 C 
BRANCH  96  97
ATOM     97  C   GLN d  12    2581.190 797.411-2695.962  0.00  0.00     0.241 C 
ATOM     98  O   GLN d  12    2581.677 798.119-2696.841  0.00  0.00    -0.271 OA
ATOM     99  N   ARG d  13    2581.975 796.705-2695.221  0.00  0.00    -0.346 N 
ATOM    100  H   ARG d  13    2581.598 796.115-2694.492  0.00  0.00     0.163 HD
BRANCH  99 101
ATOM    101  CA  ARG d  13    2583.415 796.770-2695.452  0.00  0.00     0.176 C 
BRANCH 101 102
ATOM    102  C   ARG d  13    2583.751 796.397-2696.877  0.00  0.00     0.241 C 
ATOM    103  O   ARG d  13    2584.520 797.069-2697.562  0.00  0.00    -0.271 OA
ATOM    104  N   VAL d  14    2583.214 795.343-2697.391  0.00  0.00    -0.346 N 
ATOM    105  H   VAL d  14    2582.579 794.775-2696.848  0.00  0.00     0.163 HD
BRANCH 104 106
ATOM    106  CA  VAL d  14    2583.539 794.982-2698.768  0.00  0.00     0.180 C 
BRANCH 106 107
ATOM    107  C   VAL d  14    2583.209 796.112-2699.714  0.00  0.00     0.241 C 
ATOM    108  O   VAL d  14    2584.002 796.493-2700.584  0.00  0.00    -0.271 OA
ATOM    109  N   MET d  15    2582.064 796.698-2699.612  0.00  0.00    -0.346 N 
ATOM    110  H   MET d  15    2581.399 796.406-2698.911  0.00  0.00     0.163 HD
BRANCH 109 111
ATOM    111  CA  MET d  15    2581.744 797.791-2700.526  0.00  0.00     0.177 C 
BRANCH 111 112
ATOM    112  C   MET d  15    2582.774 798.891-2700.439  0.00  0.00     0.241 C 
ATOM    113  O   MET d  15    2583.276 799.401-2701.452  0.00  0.00    -0.271 OA
ATOM    114  N   TRP d  16    2583.143 799.312-2699.277  0.00  0.00    -0.347 N 
ATOM    115  H   TRP d  16    2582.749 798.912-2698.438  0.00  0.00     0.163 HD
BRANCH 114 116
ATOM    116  CA  TRP d  16    2584.140 800.375-2699.193  0.00  0.00     0.167 C 
BRANCH 116 117
ATOM    117  C   TRP d  16    2585.411 799.984-2699.909  0.00  0.00     0.219 C 
ATOM    118  O   TRP d  16    2585.533 798.898-2700.471  0.00  0.00    -0.287 OA
ENDBRANCH 116 117
BRANCH 116 119
ATOM    119  CB  TRP d  16    2584.447 800.667-2697.697  0.00  0.00     0.074 C 
BRANCH 119 120
ATOM    120  CG  TRP d  16    2583.277 801.259-2696.906  0.00  0.00    -0.028 A 
ATOM    121  CD2 TRP d  16    2582.820 802.560-2696.900  0.00  0.00    -0.002 A 
ATOM    122  CE3 TRP d  16    2583.292 803.726-2697.555  0.00  0.00     0.014 A 
ATOM    123  CE2 TRP d  16    2581.661 802.610-2696.085  0.00  0.00     0.042 A 
ATOM    124  CZ3 TRP d  16    2582.598 804.921-2697.363  0.00  0.00     0.001 A 
ATOM    125  CH2 TRP d  16    2581.456 804.974-2696.552  0.00  0.00     0.002 A 
ATOM    126  CZ2 TRP d  16    2580.972 803.830-2695.912  0.00  0.00     0.030 A 
ATOM    127  NE1 TRP d  16    2581.368 801.356-2695.570  0.00  0.00    -0.365 N 
ATOM    128  CD1 TRP d  16    2582.382 800.531-2696.095  0.00  0.00     0.096 A 
ATOM    129  1HE TRP d  16    2580.569 801.087-2694.986  0.00  0.00     0.165 HD
ENDBRANCH 119 120
ENDBRANCH 116 119
ENDBRANCH 114 116
ENDBRANCH 111 112
BRANCH 111 130
ATOM    130  CB  MET d  15    2580.323 798.336-2700.217  0.00  0.00     0.045 C 
BRANCH 130 131
ATOM    131  CG  MET d  15    2579.160 797.339-2700.408  0.00  0.00     0.076 C 
BRANCH 131 132
ATOM    132  SD  MET d  15    2577.586 798.205-2700.294  0.00  0.00    -0.173 SA
ATOM    133  CE  MET d  15    2576.505 796.775-2700.156  0.00  0.00     0.089 C 
ENDBRANCH 131 132
ENDBRANCH 130 131
ENDBRANCH 111 130
ENDBRANCH 109 111
ENDBRANCH 106 107
BRANCH 106 134
ATOM    134  CB  VAL d  14    2582.766 793.665-2699.174  0.00  0.00     0.009 C 
ATOM    135  CG1 VAL d  14    2582.854 793.246-2700.667  0.00  0.00     0.012 C 
ATOM    136  CG2 VAL d  14    2583.197 792.413-2698.373  0.00  0.00     0.012 C 
ENDBRANCH 106 134
ENDBRANCH 104 106
ENDBRANCH 101 102
BRANCH 101 137
ATOM    137  CB  ARG d  13    2584.128 795.831-2694.438  0.00  0.00     0.036 C 
BRANCH 137 138
ATOM    138  CG  ARG d  13    2585.673 795.984-2694.357  0.00  0.00     0.023 C 
BRANCH 138 139
ATOM    139  CD  ARG d  13    2586.300 794.997-2693.359  0.00  0.00     0.138 C 
BRANCH 139 140
ATOM    140  NE  ARG d  13    2587.777 795.204-2693.309  0.00  0.00    -0.227 N 
ATOM    141  CZ  ARG d  13    2588.626 794.513-2692.554  0.00  0.00     0.665 C 
ATOM    142  NH1 ARG d  13    2588.261 793.549-2691.755  0.00  0.00    -0.235 N 
ATOM    143  NH2 ARG d  13    2589.885 794.811-2692.611  0.00  0.00    -0.235 N 
ATOM    144 11HH ARG d  13    2587.255 793.363-2691.758  0.00  0.00     0.174 HD
ATOM    145 12HH ARG d  13    2588.974 793.066-2691.207  0.00  0.00     0.174 HD
ATOM    146 21HH ARG d  13    2590.153 795.569-2693.243  0.00  0.00     0.174 HD
ATOM    147 22HH ARG d  13    2590.521 794.270-2692.022  0.00  0.00     0.174 HD
ATOM    148  HE  ARG d  13    2588.229 795.926-2693.881  0.00  0.00     0.177 HD
ENDBRANCH 139 140
ENDBRANCH 138 139
ENDBRANCH 137 138
ENDBRANCH 101 137
ENDBRANCH  99 101
ENDBRANCH  96  97
BRANCH  96 149
ATOM    149  CB  GLN d  12    2579.310 798.113-2694.442  0.00  0.00     0.044 C 
BRANCH 149 150
ATOM    150  CG  GLN d  12    2579.671 799.635-2694.411  0.00  0.00     0.105 C 
BRANCH 150 151
ATOM    151  CD  GLN d  12    2579.370 800.449-2693.147  0.00  0.00     0.215 C 
ATOM    152  NE2 GLN d  12    2578.803 799.874-2692.118  0.00  0.00    -0.370 N 
ATOM    153 21HE GLN d  12    2578.696 800.469-2691.294  0.00  0.00     0.159 HD
ATOM    154 22HE GLN d  12    2578.638 798.870-2692.220  0.00  0.00     0.159 HD
ATOM    155  OE1 GLN d  12    2579.672 801.630-2693.070  0.00  0.00    -0.274 OA
ENDBRANCH 150 151
ENDBRANCH 149 150
ENDBRANCH  96 149
ENDBRANCH  94  96
ENDBRANCH  91  92
BRANCH  91 156
ATOM    156  CB  VAL d  11    2577.461 793.600-2696.644  0.00  0.00     0.009 C 
ATOM    157  CG1 VAL d  11    2576.893 794.303-2697.907  0.00  0.00     0.012 C 
ATOM    158  CG2 VAL d  11    2576.936 792.146-2696.716  0.00  0.00     0.012 C 
ENDBRANCH  91 156
ENDBRANCH  89  91
ENDBRANCH  86  87
BRANCH  86 159
ATOM    159  CB  HIS d  10    2580.818 791.068-2693.398  0.00  0.00     0.095 C 
BRANCH 159 160
ATOM    160  CG  HIS d  10    2582.103 790.357-2693.090  0.00  0.00     0.053 A 
ATOM    161  CD2 HIS d  10    2582.484 790.022-2691.797  0.00  0.00     0.116 A 
ATOM    162  NE2 HIS d  10    2583.699 789.390-2691.864  0.00  0.00    -0.359 N 
ATOM    163  CE1 HIS d  10    2583.961 789.392-2693.199  0.00  0.00     0.207 A 
ATOM    164  2HE HIS d  10    2584.266 789.013-2691.091  0.00  0.00     0.166 HD
ATOM    165  ND1 HIS d  10    2583.054 789.950-2694.022  0.00  0.00    -0.247 NA
ENDBRANCH 159 160
ENDBRANCH  86 159
ENDBRANCH   3  86
TORSDOF 66
