@<TRIPOS>MOLECULE
2-9
272 274 16              
SMALL
USER_CHARGES
@<TRIPOS>ATOM
1	   N	239.853	44.773	-213.989	N.3	1	GLU1	-0.516	
2	  CA	240.412	46.122	-213.989	C.3	1	GLU1	0.040	
3	   C	241.921	46.082	-213.989	C.2	1	GLU1	0.537	
4	   O	242.597	46.782	-214.758	O.2	1	GLU1	-0.582	
5	  CB	239.889	46.907	-212.752	C.3	1	GLU1	0.056	
6	  CG	240.364	48.392	-212.641	C.3	1	GLU1	0.014	
7	  CD	239.940	49.196	-211.426	C.2	1	GLU1	0.805	
8	 OE1	239.212	48.694	-210.548	O.co2	1	GLU1	-0.819	
9	 OE2	240.370	50.366	-211.354	O.co2	1	GLU1	-0.819	
10	   H	240.480	43.894	-213.989	 H	1	GLU1	0.294	
11	  HA	240.086	46.640	-214.909	 H	1	GLU1	0.111	
12	 2HB	240.178	46.376	-211.822	 H	1	GLU1	-0.017	
13	 3HB	238.782	46.897	-212.739	 H	1	GLU1	-0.017	
14	 2HG	240.054	48.977	-213.522	 H	1	GLU1	-0.043	
15	 3HG	241.464	48.459	-212.612	 H	1	GLU1	-0.043	
16	   N	242.525	45.297	-213.164	N.am	2	TYR2	-0.416	
17	  CA	243.985	45.258	-213.164	C.3	2	TYR2	-0.001	
18	   C	244.517	44.903	-214.532	C.2	2	TYR2	0.597	
19	   O	245.434	45.535	-215.061	O.2	2	TYR2	-0.568	
20	  CB	244.512	44.197	-212.154	C.3	2	TYR2	-0.015	
21	  CG	244.158	44.417	-210.678	C.2	2	TYR2	-0.001	
22	 CD1	244.856	45.353	-209.909	C.2	2	TYR2	-0.191	
23	 CD2	243.120	43.682	-210.096	C.2	2	TYR2	-0.191	
24	 CE1	244.515	45.553	-208.574	C.2	2	TYR2	-0.234	
25	 CE2	242.781	43.884	-208.762	C.2	2	TYR2	-0.234	
26	  CZ	243.479	44.820	-208.001	C.2	2	TYR2	0.323	
27	  OH	243.146	45.022	-206.692	O.3	2	TYR2	-0.558	
28	   H	241.997	44.717	-212.528	 H	2	TYR2	0.272	
29	  HA	244.371	46.260	-212.899	 H	2	TYR2	0.088	
30	 2HB	245.616	44.132	-212.225	 H	2	TYR2	0.030	
31	 3HB	244.174	43.189	-212.470	 H	2	TYR2	0.030	
32	 1HD	245.658	45.931	-210.346	 H	2	TYR2	0.170	
33	 2HD	242.567	42.962	-210.684	 H	2	TYR2	0.170	
34	 1HE	245.049	46.280	-207.980	 H	2	TYR2	0.166	
35	 2HE	241.974	43.315	-208.326	 H	2	TYR2	0.166	
36	  HH	242.417	44.439	-206.471	 H	2	TYR2	0.399	
37	   N	243.995	43.908	-215.166	N.am	3	PRO3	-0.255	
38	  CA	244.448	43.498	-216.487	C.3	3	PRO3	-0.027	
39	   C	244.050	44.522	-217.564	C.2	3	PRO3	0.590	
40	   O	244.874	44.905	-218.395	O.2	3	PRO3	-0.575	
41	  CB	243.744	42.144	-216.657	C.3	3	PRO3	-0.007	
42	  CG	242.460	42.296	-215.827	C.3	3	PRO3	0.019	
43	  CD	242.917	43.114	-214.617	C.3	3	PRO3	0.019	
44	  HA	245.534	43.378	-216.500	 H	3	PRO3	0.064	
45	 2HB	244.366	41.362	-216.216	 H	3	PRO3	0.025	
46	 3HB	243.546	41.895	-217.702	 H	3	PRO3	0.025	
47	 2HG	242.032	41.334	-215.537	 H	3	PRO3	0.021	
48	 3HG	241.723	42.867	-216.395	 H	3	PRO3	0.021	
49	 2HD	243.306	42.465	-213.830	 H	3	PRO3	0.039	
50	 3HD	242.120	43.750	-214.225	 H	3	PRO3	0.039	
51	   N	242.846	44.982	-217.597	N.am	4	GLU4	-0.516	
52	  CA	242.486	45.953	-218.627	C.3	4	GLU4	0.040	
53	   C	243.385	47.164	-218.565	C.2	4	GLU4	0.537	
54	   O	243.912	47.644	-219.580	O.2	4	GLU4	-0.582	
55	  CB	240.998	46.371	-218.457	C.3	4	GLU4	0.056	
56	  CG	240.450	47.375	-219.523	C.3	4	GLU4	0.014	
57	  CD	239.023	47.871	-219.381	C.2	4	GLU4	0.805	
58	 OE1	238.297	47.473	-218.450	O.co2	4	GLU4	-0.819	
59	 OE2	238.634	48.701	-220.229	O.co2	4	GLU4	-0.819	
60	   H	242.161	44.675	-216.921	 H	4	GLU4	0.294	
61	  HA	242.618	45.482	-219.618	 H	4	GLU4	0.111	
62	 2HB	240.845	46.811	-217.451	 H	4	GLU4	-0.017	
63	 3HB	240.350	45.473	-218.464	 H	4	GLU4	-0.017	
64	 2HG	240.532	46.960	-220.541	 H	4	GLU4	-0.043	
65	 3HG	241.038	48.307	-219.534	 H	4	GLU4	-0.043	
66	   N	243.612	47.717	-217.422	N.am	5	SER5	-0.416	
67	  CA	244.481	48.888	-217.363	C.3	5	SER5	-0.025	
68	   C	245.840	48.583	-217.948	C.2	5	SER5	0.597	
69	   O	246.388	49.336	-218.753	O.2	5	SER5	-0.568	
70	  CB	244.592	49.420	-215.913	C.3	5	SER5	0.212	
71	  OG	245.323	48.541	-215.051	O.3	5	SER5	-0.655	
72	   H	243.194	47.345	-216.581	 H	5	SER5	0.272	
73	  HA	244.032	49.678	-217.993	 H	5	SER5	0.084	
74	 2HB	243.592	49.614	-215.480	 H	5	SER5	0.035	
75	 3HB	245.097	50.406	-215.915	 H	5	SER5	0.035	
76	  HG	244.835	47.716	-215.001	 H	5	SER5	0.428	
77	   N	246.445	47.500	-217.594	N.am	6	ILE6	-0.416	
78	  CA	247.759	47.205	-218.159	C.3	6	ILE6	-0.060	
79	   C	247.702	47.167	-219.667	C.2	6	ILE6	0.597	
80	   O	248.537	47.755	-220.370	O.2	6	ILE6	-0.568	
81	  CB	248.358	45.869	-217.559	C.3	6	ILE6	0.130	
82	 CG1	248.377	45.807	-215.998	C.3	6	ILE6	-0.043	
83	 CG2	249.800	45.567	-218.073	C.3	6	ILE6	-0.320	
84	 CD1	248.647	44.418	-215.383	C.3	6	ILE6	-0.066	
85	   H	246.017	46.865	-216.935	 H	6	ILE6	0.272	
86	  HA	248.432	48.039	-217.891	 H	6	ILE6	0.087	
87	  HB	247.701	45.043	-217.903	 H	6	ILE6	0.019	
88	2HG1	247.394	46.126	-215.603	 H	6	ILE6	0.024	
89	3HG1	249.092	46.549	-215.593	 H	6	ILE6	0.024	
90	1HG2	249.859	45.474	-219.172	 H	6	ILE6	0.088	
91	2HG2	250.522	46.350	-217.771	 H	6	ILE6	0.088	
92	3HG2	250.190	44.605	-217.694	 H	6	ILE6	0.088	
93	1HD1	247.919	43.663	-215.738	 H	6	ILE6	0.019	
94	2HD1	249.657	44.039	-215.618	 H	6	ILE6	0.019	
95	3HD1	248.570	44.447	-214.280	 H	6	ILE6	0.019	
96	   N	246.757	46.504	-220.241	N.am	7	LEU7	-0.416	
97	  CA	246.703	46.468	-221.700	C.3	7	LEU7	-0.052	
98	   C	246.631	47.863	-222.272	C.2	7	LEU7	0.597	
99	   O	247.352	48.226	-223.214	O.2	7	LEU7	-0.568	
100	  CB	245.500	45.607	-222.181	C.3	7	LEU7	-0.110	
101	  CG	245.427	44.128	-221.714	C.3	7	LEU7	0.353	
102	 CD1	244.238	43.422	-222.381	C.3	7	LEU7	-0.412	
103	 CD2	246.721	43.349	-222.005	C.3	7	LEU7	-0.412	
104	   H	246.065	46.017	-219.690	 H	7	LEU7	0.272	
105	  HA	247.645	46.028	-222.074	 H	7	LEU7	0.092	
106	 2HB	245.477	45.623	-223.288	 H	7	LEU7	0.046	
107	 3HB	244.560	46.110	-221.877	 H	7	LEU7	0.046	
108	  HG	245.257	44.120	-220.617	 H	7	LEU7	-0.036	
109	1HD1	243.281	43.931	-222.159	 H	7	LEU7	0.100	
110	2HD1	244.338	43.382	-223.482	 H	7	LEU7	0.100	
111	3HD1	244.131	42.381	-222.025	 H	7	LEU7	0.100	
112	1HD2	246.997	43.379	-223.075	 H	7	LEU7	0.100	
113	2HD2	247.574	43.761	-221.434	 H	7	LEU7	0.100	
114	3HD2	246.640	42.287	-221.709	 H	7	LEU7	0.100	
115	   N	245.793	48.704	-221.766	N.am	8	ASP8	-0.516	
116	  CA	245.723	50.053	-222.319	C.3	8	ASP8	0.038	
117	   C	247.069	50.733	-222.261	C.2	8	ASP8	0.537	
118	   O	247.542	51.339	-223.236	O.2	8	ASP8	-0.582	
119	  CB	244.644	50.892	-221.578	C.3	8	ASP8	-0.030	
120	  CG	244.425	52.313	-222.119	C.2	8	ASP8	0.799	
121	 OD1	244.490	52.512	-223.349	O.co2	8	ASP8	-0.801	
122	 OD2	244.232	53.238	-221.303	O.co2	8	ASP8	-0.801	
123	   H	245.195	48.432	-220.999	 H	8	ASP8	0.294	
124	  HA	245.440	49.975	-223.387	 H	8	ASP8	0.088	
125	 2HB	244.900	50.975	-220.506	 H	8	ASP8	-0.012	
126	 3HB	243.665	50.387	-221.612	 H	8	ASP8	-0.012	
127	   N	247.748	50.683	-221.166	N.am	9	GLU9	-0.516	
128	  CA	249.051	51.341	-221.110	C.3	9	GLU9	0.040	
129	   C	249.969	50.814	-222.185	C.2	9	GLU9	0.537	
130	   O	250.634	51.569	-222.910	O.2	9	GLU9	-0.582	
131	  CB	249.683	51.133	-219.704	C.3	9	GLU9	0.056	
132	  CG	251.066	51.826	-219.474	C.3	9	GLU9	0.014	
133	  CD	251.767	51.613	-218.145	C.2	9	GLU9	0.805	
134	 OE1	251.245	50.922	-217.249	O.co2	9	GLU9	-0.819	
135	 OE2	252.886	52.151	-218.012	O.co2	9	GLU9	-0.819	
136	   H	247.384	50.197	-220.359	 H	9	GLU9	0.294	
137	  HA	248.908	52.423	-221.285	 H	9	GLU9	0.111	
138	 2HB	249.796	50.049	-219.501	 H	9	GLU9	-0.017	
139	 3HB	248.986	51.487	-218.920	 H	9	GLU9	-0.017	
140	 2HG	250.994	52.917	-219.613	 H	9	GLU9	-0.043	
141	 3HG	251.813	51.481	-220.207	 H	9	GLU9	-0.043	
142	   N	250.066	49.539	-222.355	N.am	10	HIS10	-0.416	
143	  CA	250.955	49.028	-223.395	C.3	10	HIS10	-0.058	
144	   C	250.589	49.593	-224.746	C.2	10	HIS10	0.597	
145	   O	251.442	50.058	-225.517	O.2	10	HIS10	-0.568	
146	  CB	250.792	47.499	-223.390	C.3	10	HIS10	-0.007	
147	  CG	252.077	46.789	-223.081	C.2	10	HIS10	0.187	
148	 CD2	252.458	46.454	-221.789	C.2	10	HIS10	-0.221	
149	 ND1	253.030	46.384	-224.013	N.2	10	HIS10	-0.543	
150	 CE1	253.936	45.826	-223.190	C.2	10	HIS10	0.163	
151	 NE2	253.673	45.823	-221.855	N.pl3	10	HIS10	-0.280	
152	   H	249.535	48.903	-221.777	 H	10	HIS10	0.272	
153	  HA	251.974	49.386	-223.169	 H	10	HIS10	0.136	
154	 2HB	250.427	47.132	-224.370	 H	10	HIS10	0.037	
155	 3HB	250.036	47.161	-222.651	 H	10	HIS10	0.037	
156	 2HD	251.871	46.668	-220.900	 H	10	HIS10	0.186	
157	 1HE	254.828	45.405	-223.636	 H	10	HIS10	0.144	
158	 2HE	254.239	45.445	-221.081	 H	10	HIS10	0.334	
159	   N	249.351	49.591	-225.110	N.am	11	VAL11	-0.416	
160	  CA	248.997	50.137	-226.416	C.3	11	VAL11	-0.087	
161	   C	249.461	51.568	-226.548	C.2	11	VAL11	0.597	
162	   O	250.062	51.974	-227.551	O.2	11	VAL11	-0.568	
163	  CB	247.436	50.030	-226.637	C.3	11	VAL11	0.299	
164	 CG1	246.868	50.734	-227.900	C.3	11	VAL11	-0.319	
165	 CG2	246.912	48.576	-226.711	C.3	11	VAL11	-0.319	
166	   H	248.638	49.218	-224.499	 H	11	VAL11	0.272	
167	  HA	249.517	49.555	-227.199	 H	11	VAL11	0.097	
168	  HB	246.948	50.510	-225.762	 H	11	VAL11	-0.030	
169	1HG1	247.307	50.343	-228.837	 H	11	VAL11	0.079	
170	2HG1	245.769	50.627	-227.982	 H	11	VAL11	0.079	
171	3HG1	247.045	51.827	-227.890	 H	11	VAL11	0.079	
172	1HG2	247.201	47.989	-225.820	 H	11	VAL11	0.079	
173	2HG2	245.806	48.539	-226.754	 H	11	VAL11	0.079	
174	3HG2	247.294	48.036	-227.597	 H	11	VAL11	0.079	
175	   N	249.223	52.394	-225.586	N.am	12	GLN12	-0.416	
176	  CA	249.671	53.777	-225.713	C.3	12	GLN12	-0.003	
177	   C	251.161	53.845	-225.950	C.2	12	GLN12	0.597	
178	   O	251.648	54.553	-226.828	O.2	12	GLN12	-0.568	
179	  CB	249.279	54.544	-224.430	C.3	12	GLN12	-0.004	
180	  CG	249.639	56.066	-224.398	C.3	12	GLN12	-0.064	
181	  CD	249.335	56.879	-223.134	C.2	12	GLN12	0.695	
182	 NE2	248.768	56.302	-222.105	N.pl3	12	GLN12	-0.941	
183	 OE1	249.637	58.060	-223.056	O.2	12	GLN12	-0.609	
184	   H	248.734	52.087	-224.757	 H	12	GLN12	0.272	
185	  HA	249.172	54.233	-226.588	 H	12	GLN12	0.085	
186	 2HB	249.755	54.044	-223.561	 H	12	GLN12	0.017	
187	 3HB	248.189	54.436	-224.267	 H	12	GLN12	0.017	
188	 2HG	249.162	56.587	-225.249	 H	12	GLN12	0.035	
189	 3HG	250.722	56.208	-224.563	 H	12	GLN12	0.035	
190	1HE2	248.660	56.896	-221.282	 H	12	GLN12	0.425	
191	2HE2	248.605	55.299	-222.209	 H	12	GLN12	0.425	
192	   N	251.945	53.138	-225.208	N.am	13	ARG13	-0.348	
193	  CA	253.386	53.204	-225.438	C.3	13	ARG13	-0.264	
194	   C	253.723	52.833	-226.863	C.2	13	ARG13	0.734	
195	   O	254.492	53.505	-227.547	O.2	13	ARG13	-0.589	
196	  CB	254.099	52.265	-224.424	C.3	13	ARG13	-0.001	
197	  CG	255.644	52.419	-224.342	C.3	13	ARG13	0.039	
198	  CD	256.270	51.431	-223.344	C.3	13	ARG13	0.049	
199	  NE	257.747	51.639	-223.293	N.pl3	13	ARG13	-0.530	
200	  CZ	258.595	50.948	-222.537	C.cat	13	ARG13	0.808	
201	 NH1	258.230	49.983	-221.740	N.pl3	13	ARG13	-0.863	
202	 NH2	259.855	51.247	-222.593	N.pl3	13	ARG13	-0.863	
203	   H	251.569	52.548	-224.480	 H	13	ARG13	0.275	
204	  HA	253.710	54.250	-225.279	 H	13	ARG13	0.156	
205	 2HB	253.833	51.215	-224.664	 H	13	ARG13	0.033	
206	 3HB	253.673	52.432	-223.414	 H	13	ARG13	0.033	
207	 2HG	255.891	53.464	-224.062	 H	13	ARG13	0.029	
208	 3HG	256.095	52.263	-225.343	 H	13	ARG13	0.029	
209	 2HD	256.027	50.391	-223.654	 H	13	ARG13	0.069	
210	 3HD	255.813	51.577	-222.342	 H	13	ARG13	0.069	
211	  HE	258.199	52.362	-223.863	 H	13	ARG13	0.346	
212	1HH1	257.225	49.796	-221.744	 H	13	ARG13	0.448	
213	2HH1	258.943	49.500	-221.191	 H	13	ARG13	0.448	
214	1HH2	260.122	52.005	-223.224	 H	13	ARG13	0.448	
215	2HH2	260.490	50.706	-222.004	 H	13	ARG13	0.448	
216	   N	253.187	51.779	-227.378	N.am	14	VAL14	-0.416	
217	  CA	253.513	51.420	-228.755	C.3	14	VAL14	-0.087	
218	   C	253.183	52.550	-229.701	C.2	14	VAL14	0.597	
219	   O	253.977	52.932	-230.570	O.2	14	VAL14	-0.568	
220	  CB	252.742	50.103	-229.163	C.3	14	VAL14	0.299	
221	 CG1	252.832	49.685	-230.657	C.3	14	VAL14	-0.319	
222	 CG2	253.173	48.850	-228.363	C.3	14	VAL14	-0.319	
223	   H	252.552	51.210	-226.837	 H	14	VAL14	0.272	
224	  HA	254.602	51.244	-228.830	 H	14	VAL14	0.097	
225	  HB	251.665	50.273	-228.948	 H	14	VAL14	-0.030	
226	1HG1	253.873	49.508	-230.985	 H	14	VAL14	0.079	
227	2HG1	252.259	48.761	-230.870	 H	14	VAL14	0.079	
228	3HG1	252.403	50.447	-231.335	 H	14	VAL14	0.079	
229	1HG2	253.086	49.009	-227.272	 H	14	VAL14	0.079	
230	2HG2	252.538	47.974	-228.596	 H	14	VAL14	0.079	
231	3HG2	254.221	48.561	-228.568	 H	14	VAL14	0.079	
232	   N	252.038	53.135	-229.600	N.am	15	MET15	-0.416	
233	  CA	251.718	54.228	-230.513	C.3	15	MET15	-0.024	
234	   C	252.748	55.328	-230.425	C.2	15	MET15	0.597	
235	   O	253.251	55.840	-231.437	O.2	15	MET15	-0.568	
236	  CB	250.296	54.773	-230.205	C.3	15	MET15	0.034	
237	  CG	249.135	53.775	-230.398	C.3	15	MET15	0.002	
238	  SD	247.561	54.640	-230.284	S.3	15	MET15	-0.274	
239	  CE	246.480	53.210	-230.149	C.3	15	MET15	-0.054	
240	   H	251.373	52.842	-228.899	 H	15	MET15	0.272	
241	  HA	251.745	53.841	-231.549	 H	15	MET15	0.088	
242	 2HB	250.094	55.652	-230.847	 H	15	MET15	0.024	
243	 3HB	250.260	55.166	-229.169	 H	15	MET15	0.024	
244	 2HG	249.178	52.989	-229.620	 H	15	MET15	0.044	
245	 3HG	249.198	53.260	-231.374	 H	15	MET15	0.044	
246	 1HE	246.624	52.522	-231.001	 H	15	MET15	0.068	
247	 2HE	246.689	52.658	-229.216	 H	15	MET15	0.068	
248	 3HE	245.422	53.525	-230.133	 H	15	MET15	0.068	
249	   N	253.116	55.749	-229.262	N.am	16	ARG16	-0.348	
250	  CA	254.112	56.814	-229.178	C.3	16	ARG16	-0.264	
251	   C	255.383	56.421	-229.893	C.2	16	ARG16	0.734	
252	   O	255.498	55.345	-230.475	O.2	16	ARG16	-0.589	
253	  CB	254.380	57.131	-227.679	C.3	16	ARG16	-0.001	
254	  CG	255.205	58.420	-227.406	C.3	16	ARG16	0.039	
255	  CD	255.453	58.640	-225.904	C.3	16	ARG16	0.049	
256	  NE	256.229	59.899	-225.702	N.pl3	16	ARG16	-0.530	
257	  CZ	256.619	60.381	-224.526	C.cat	16	ARG16	0.808	
258	 NH1	256.371	59.796	-223.388	N.pl3	16	ARG16	-0.863	
259	 NH2	257.283	61.494	-224.507	N.pl3	16	ARG16	-0.863	
260	   H	252.721	55.349	-228.423	 H	16	ARG16	0.275	
261	  HA	253.703	57.706	-229.688	 H	16	ARG16	0.156	
262	 2HB	254.877	56.255	-227.213	 H	16	ARG16	0.033	
263	 3HB	253.411	57.212	-227.146	 H	16	ARG16	0.033	
264	 2HG	254.674	59.291	-227.843	 H	16	ARG16	0.029	
265	 3HG	256.178	58.368	-227.934	 H	16	ARG16	0.029	
266	 2HD	256.002	57.765	-225.491	 H	16	ARG16	0.069	
267	 3HD	254.480	58.682	-225.369	 H	16	ARG16	0.069	
268	  HE	256.508	60.480	-226.499	 H	16	ARG16	0.346	
269	1HH1	255.846	58.923	-223.473	 H	16	ARG16	0.448	
270	2HH1	256.705	60.232	-222.527	 H	16	ARG16	0.448	
271	1HH2	257.469	61.937	-225.409	 H	16	ARG16	0.448	
272	2HH2	257.572	61.849	-223.595	 H	16	ARG16	0.448	
@<TRIPOS>BOND
1 1 2 1
2 1 10 1
3 2 3 1
4 2 5 1
5 2 11 1
6 3 4 2
7 3 16 1
8 5 6 1
9 6 7 1
10 7 8 2
11 7 9 1
12 5 12 1
13 5 13 1
14 6 14 1
15 6 15 1
16 16 17 1
17 16 28 1
18 17 18 1
19 17 20 1
20 17 29 1
21 18 19 2
22 18 37 1
23 20 21 1
24 21 22 2
25 21 23 1
26 23 25 2
27 22 24 1
28 25 26 1
29 24 26 2
30 26 27 1
31 20 30 1
32 20 31 1
33 22 32 1
34 23 33 1
35 24 34 1
36 25 35 1
37 27 36 1
38 37 38 1
39 37 43 1
40 38 39 1
41 38 41 1
42 38 44 1
43 39 40 2
44 39 51 1
45 41 42 1
46 42 43 1
47 41 45 1
48 41 46 1
49 42 47 1
50 42 48 1
51 43 49 1
52 43 50 1
53 51 52 1
54 51 60 1
55 52 53 1
56 52 55 1
57 52 61 1
58 53 54 2
59 53 66 1
60 55 56 1
61 56 57 1
62 57 58 2
63 57 59 1
64 55 62 1
65 55 63 1
66 56 64 1
67 56 65 1
68 66 67 1
69 66 72 1
70 67 68 1
71 67 70 1
72 67 73 1
73 68 69 2
74 68 77 1
75 70 71 1
76 70 74 1
77 70 75 1
78 71 76 1
79 77 78 1
80 77 85 1
81 78 79 1
82 78 81 1
83 78 86 1
84 79 80 2
85 79 96 1
86 81 82 1
87 81 83 1
88 82 84 1
89 81 87 1
90 82 88 1
91 82 89 1
92 83 90 1
93 83 91 1
94 83 92 1
95 84 93 1
96 84 94 1
97 84 95 1
98 96 97 1
99 96 104 1
100 97 98 1
101 97 100 1
102 97 105 1
103 98 99 2
104 98 115 1
105 100 101 1
106 101 102 1
107 101 103 1
108 100 106 1
109 100 107 1
110 101 108 1
111 102 109 1
112 102 110 1
113 102 111 1
114 103 112 1
115 103 113 1
116 103 114 1
117 115 116 1
118 115 123 1
119 116 117 1
120 116 119 1
121 116 124 1
122 117 118 2
123 117 127 1
124 119 120 1
125 120 121 2
126 120 122 1
127 119 125 1
128 119 126 1
129 127 128 1
130 127 136 1
131 128 129 1
132 128 131 1
133 128 137 1
134 129 130 2
135 129 142 1
136 131 132 1
137 132 133 1
138 133 134 2
139 133 135 1
140 131 138 1
141 131 139 1
142 132 140 1
143 132 141 1
144 142 143 1
145 142 152 1
146 143 144 1
147 143 146 1
148 143 153 1
149 144 145 2
150 144 159 1
151 146 147 1
152 147 148 2
153 148 151 1
154 147 149 1
155 149 150 2
156 150 151 1
157 146 154 1
158 146 155 1
159 148 156 1
160 150 157 1
161 151 158 1
162 159 160 1
163 159 166 1
164 160 161 1
165 160 163 1
166 160 167 1
167 161 162 2
168 161 175 1
169 163 164 1
170 163 165 1
171 163 168 1
172 164 169 1
173 164 170 1
174 164 171 1
175 165 172 1
176 165 173 1
177 165 174 1
178 175 176 1
179 175 184 1
180 176 177 1
181 176 179 1
182 176 185 1
183 177 178 2
184 177 192 1
185 179 180 1
186 180 181 1
187 181 182 1
188 181 183 2
189 179 186 1
190 179 187 1
191 180 188 1
192 180 189 1
193 182 190 1
194 182 191 1
195 192 193 1
196 192 203 1
197 193 194 1
198 193 196 1
199 193 204 1
200 194 195 2
201 194 216 1
202 196 197 1
203 197 198 1
204 198 199 1
205 199 200 1
206 200 201 2
207 200 202 1
208 196 205 1
209 196 206 1
210 197 207 1
211 197 208 1
212 198 209 1
213 198 210 1
214 199 211 1
215 201 212 1
216 201 213 1
217 202 214 1
218 202 215 1
219 216 217 1
220 216 223 1
221 217 218 1
222 217 220 1
223 217 224 1
224 218 219 2
225 218 232 1
226 220 221 1
227 220 222 1
228 220 225 1
229 221 226 1
230 221 227 1
231 221 228 1
232 222 229 1
233 222 230 1
234 222 231 1
235 232 233 1
236 232 240 1
237 233 234 1
238 233 236 1
239 233 241 1
240 234 235 2
241 234 249 1
242 236 237 1
243 237 238 1
244 238 239 1
245 236 242 1
246 236 243 1
247 237 244 1
248 237 245 1
249 239 246 1
250 239 247 1
251 239 248 1
252 249 250 1
253 249 260 1
254 250 251 1
255 250 253 1
256 250 261 1
257 251 252 2
258 253 254 1
259 254 255 1
260 255 256 1
261 256 257 1
262 257 258 2
263 257 259 1
264 253 262 1
265 253 263 1
266 254 264 1
267 254 265 1
268 255 266 1
269 255 267 1
270 256 268 1
271 258 269 1
272 258 270 1
273 259 271 1
274 259 272 1
@<TRIPOS>SUBSTRUCTURE
1	GLU1	1	RESIDUE	1 ****	GLU
2	TYR2	16	RESIDUE	1 ****	TYR
3	PRO3	37	RESIDUE	1 ****	PRO
4	GLU4	51	RESIDUE	1 ****	GLU
5	SER5	66	RESIDUE	1 ****	SER
6	ILE6	77	RESIDUE	1 ****	ILE
7	LEU7	96	RESIDUE	1 ****	LEU
8	ASP8	115	RESIDUE	1 ****	ASP
9	GLU9	127	RESIDUE	1 ****	GLU
10	HIS10	142	RESIDUE	1 ****	HIS
11	VAL11	159	RESIDUE	1 ****	VAL
12	GLN12	175	RESIDUE	1 ****	GLN
13	ARG13	192	RESIDUE	1 ****	ARG
14	VAL14	216	RESIDUE	1 ****	VAL
15	MET15	232	RESIDUE	1 ****	MET
16	ARG16	249	RESIDUE	1 ****	ARG
