REMARK WARNING: 32 MAX_TORS EXCEEDED!!!
REMARK  67 active torsions:
REMARK  status: ('A' for Active; 'I' for Inactive)
REMARK    1  A    between atoms: N_1  and  CA_2 
REMARK    2  A    between atoms: CA_2  and  C_3 
REMARK    3  A    between atoms: CA_2  and  CB_5 
REMARK       I    between atoms: C_3  and  N_11 
REMARK    4  A    between atoms: CB_5  and  CG_6 
REMARK    5  A    between atoms: CG_6  and  CD_7 
REMARK    6  A    between atoms: N_11  and  CA_12 
REMARK    7  A    between atoms: CA_12  and  C_13 
REMARK    8  A    between atoms: CA_12  and  CB_15 
REMARK       I    between atoms: C_13  and  N_22 
REMARK    9  A    between atoms: CB_15  and  CG_16 
REMARK       I    between atoms: CG_16  and  ND2_17 
REMARK   10  A    between atoms: CA_23  and  C_24 
REMARK       I    between atoms: C_24  and  N_29 
REMARK   11  A    between atoms: N_29  and  CA_30 
REMARK   12  A    between atoms: CA_30  and  C_31 
REMARK   13  A    between atoms: CA_30  and  CB_33 
REMARK       I    between atoms: C_31  and  N_39 
REMARK   14  A    between atoms: CB_33  and  CG_34 
REMARK   15  A    between atoms: CG_34  and  CD_35 
REMARK   16  A    between atoms: N_39  and  CA_40 
REMARK   17  A    between atoms: CA_40  and  C_41 
REMARK   18  A    between atoms: CA_40  and  CB_43 
REMARK       I    between atoms: C_41  and  N_47 
REMARK   19  A    between atoms: CB_43  and  OG_44 
REMARK   20  A    between atoms: N_47  and  CA_48 
REMARK   21  A    between atoms: CA_48  and  C_49 
REMARK   22  A    between atoms: CA_48  and  CB_51 
REMARK       I    between atoms: C_49  and  N_56 
REMARK   23  A    between atoms: CB_51  and  CG1_52 
REMARK   24  A    between atoms: N_56  and  CA_57 
REMARK   25  A    between atoms: CA_57  and  C_58 
REMARK   26  A    between atoms: CA_57  and  CB_60 
REMARK       I    between atoms: C_58  and  N_65 
REMARK   27  A    between atoms: CB_60  and  CG_61 
REMARK   28  A    between atoms: N_65  and  CA_66 
REMARK   29  A    between atoms: CA_66  and  C_67 
REMARK   30  A    between atoms: CA_66  and  CB_69 
REMARK       I    between atoms: C_67  and  N_74 
REMARK   31  A    between atoms: CB_69  and  CG_70 
REMARK   32  A    between atoms: N_74  and  CA_75 
REMARK   33  A    between atoms: CA_75  and  C_76 
REMARK   34  A    between atoms: CA_75  and  CB_78 
REMARK       I    between atoms: C_76  and  N_84 
REMARK   35  A    between atoms: CB_78  and  CG_79 
REMARK   36  A    between atoms: CG_79  and  CD_80 
REMARK   37  A    between atoms: N_84  and  CA_85 
REMARK   38  A    between atoms: CA_85  and  C_86 
REMARK   39  A    between atoms: CA_85  and  CB_88 
REMARK       I    between atoms: C_86  and  N_96 
REMARK   40  A    between atoms: CB_88  and  CG_89 
REMARK   41  A    between atoms: N_96  and  CA_97 
REMARK   42  A    between atoms: CA_97  and  C_98 
REMARK   43  A    between atoms: CA_97  and  CB_100 
REMARK       I    between atoms: C_98  and  N_104 
REMARK   44  A    between atoms: N_104  and  CA_105 
REMARK   45  A    between atoms: CA_105  and  C_106 
REMARK   46  A    between atoms: CA_105  and  CB_108 
REMARK       I    between atoms: C_106  and  N_116 
REMARK   47  A    between atoms: CB_108  and  CG_109 
REMARK   48  A    between atoms: CG_109  and  CD_110 
REMARK       I    between atoms: CD_110  and  NE2_111 
REMARK   49  A    between atoms: N_116  and  CA_117 
REMARK   50  A    between atoms: CA_117  and  C_118 
REMARK   51  A    between atoms: CA_117  and  CB_120 
REMARK       I    between atoms: C_118  and  N_133 
REMARK   52  A    between atoms: CB_120  and  CG_121 
REMARK   53  A    between atoms: CG_121  and  CD_122 
REMARK   54  A    between atoms: CD_122  and  NE_123 
REMARK       I    between atoms: NE_123  and  CZ_124 
REMARK       I    between atoms: CZ_124  and  NH1_125 
REMARK   55  A    between atoms: N_133  and  CA_134 
REMARK   56  A    between atoms: CA_134  and  C_135 
REMARK   57  A    between atoms: CA_134  and  CB_137 
REMARK       I    between atoms: C_135  and  N_141 
REMARK   58  A    between atoms: N_141  and  CA_142 
REMARK   59  A    between atoms: CA_142  and  C_143 
REMARK   60  A    between atoms: CA_142  and  CB_145 
REMARK       I    between atoms: C_143  and  N_150 
REMARK   61  A    between atoms: CB_145  and  CG_146 
REMARK   62  A    between atoms: CG_146  and  SD_147 
REMARK   63  A    between atoms: N_150  and  CA_151 
REMARK   64  A    between atoms: CA_151  and  C_152 
REMARK   65  A    between atoms: CA_151  and  CB_154 
REMARK   66  A    between atoms: CB_154  and  CG_155 
REMARK   67  A    between atoms: CG_155  and  CD_156 
REMARK       I    between atoms: CD_156  and  NE2_157 
ROOT
ATOM      1  CA  GLU d   9    2626.622 808.763-2744.014  0.00  0.00     0.177 C 
ENDROOT
BRANCH   1   2
ATOM      2  N   GLU d   9    2625.318 808.106-2744.069  0.00  0.00    -0.346 N 
ATOM      3  C   ASP d   8    2624.638 808.155-2745.164  0.00  0.00     0.241 C 
ATOM      4  O   ASP d   8    2625.111 808.760-2746.139  0.00  0.00    -0.271 OA
ATOM      5  H   GLU d   9    2624.955 807.620-2743.262  0.00  0.00     0.163 HD
BRANCH   3   6
ATOM      6  CA  ASP d   8    2623.291 807.476-2745.221  0.00  0.00     0.186 C 
BRANCH   6   7
ATOM      7  N   ASP d   8    2623.361 806.127-2744.667  0.00  0.00    -0.346 N 
ATOM      8  C   LEU d   7    2624.198 805.286-2745.173  0.00  0.00     0.241 C 
ATOM      9  O   LEU d   7    2624.919 805.648-2746.115  0.00  0.00    -0.271 OA
ATOM     10  H   ASP d   8    2622.763 805.857-2743.899  0.00  0.00     0.163 HD
BRANCH   8  11
ATOM     11  CA  LEU d   7    2624.270 803.891-2744.600  0.00  0.00     0.177 C 
BRANCH  11  12
ATOM     12  N   LEU d   7    2624.325 803.927-2743.141  0.00  0.00    -0.346 N 
ATOM     13  C   ILE d   6    2625.271 804.590-2742.568  0.00  0.00     0.241 C 
ATOM     14  O   ILE d   6    2626.106 805.177-2743.272  0.00  0.00    -0.271 OA
ATOM     15  H   LEU d   7    2623.633 803.440-2742.590  0.00  0.00     0.163 HD
BRANCH  13  16
ATOM     16  CA  ILE d   6    2625.328 804.628-2741.060  0.00  0.00     0.180 C 
BRANCH  16  17
ATOM     17  N   ILE d   6    2624.015 804.923-2740.494  0.00  0.00    -0.346 N 
ATOM     18  C   SER d   5    2623.411 806.006-2740.848  0.00  0.00     0.243 C 
ATOM     19  O   SER d   5    2623.958 806.760-2741.653  0.00  0.00    -0.271 OA
ATOM     20  H   ILE d   6    2623.586 804.289-2739.835  0.00  0.00     0.163 HD
BRANCH  18  21
ATOM     21  CA  SER d   5    2622.052 806.312-2740.263  0.00  0.00     0.200 C 
BRANCH  21  22
ATOM     22  N   SER d   5    2621.182 805.141-2740.322  0.00  0.00    -0.344 N 
ATOM     23  C   GLU d   4    2620.955 804.589-2741.465  0.00  0.00     0.241 C 
ATOM     24  O   GLU d   4    2621.482 805.068-2742.479  0.00  0.00    -0.271 OA
ATOM     25  H   SER d   5    2620.764 804.770-2739.481  0.00  0.00     0.163 HD
BRANCH  23  26
ATOM     26  CA  GLU d   4    2620.056 803.378-2741.527  0.00  0.00     0.177 C 
BRANCH  26  27
ATOM     27  N   GLU d   4    2620.415 802.407-2740.497  0.00  0.00    -0.346 N 
ATOM     28  C   PRO d   3    2621.620 801.947-2740.464  0.00  0.00     0.241 C 
ATOM     29  O   PRO d   3    2622.443 802.330-2741.296  0.00  0.00    -0.271 OA
ATOM     30  H   GLU d   4    2619.730 802.100-2739.821  0.00  0.00     0.163 HD
BRANCH  28  31
ATOM     31  CA  PRO d   3    2622.017 800.923-2739.387  0.00  0.00     0.179 C 
ATOM     32  N   PRO d   3    2621.565 801.332-2738.066  0.00  0.00    -0.337 N 
ATOM     33  C   ASN d   2    2622.087 802.327-2737.432  0.00  0.00     0.243 C 
ATOM     34  CD  PRO d   3    2620.487 800.540-2737.517  0.00  0.00     0.127 C 
ATOM     35  O   ASN d   2    2623.002 802.958-2737.960  0.00  0.00    -0.271 OA
ATOM     36  CG  PRO d   3    2620.029 799.721-2738.727  0.00  0.00     0.022 C 
ATOM     37  CB  PRO d   3    2621.313 799.569-2739.557  0.00  0.00     0.037 C 
BRANCH  33  38
ATOM     38  CA  ASN d   2    2621.555 802.683-2736.063  0.00  0.00     0.185 C 
BRANCH  38  39
ATOM     39  N   ASN d   2    2620.096 802.722-2736.063  0.00  0.00    -0.346 N 
ATOM     40  C   GLU d   1    2619.491 803.508-2736.888  0.00  0.00     0.242 C 
ATOM     41  O   GLU d   1    2620.167 804.207-2737.657  0.00  0.00    -0.271 OA
ATOM     42  H   ASN d   2    2619.568 802.142-2735.427  0.00  0.00     0.163 HD
BRANCH  40  43
ATOM     43  CA  GLU d   1    2617.982 803.548-2736.888  0.00  0.00     0.191 C 
BRANCH  43  44
ATOM     44  N   GLU d   1    2617.423 802.199-2736.888  0.00  0.00    -0.326 NA
ATOM     45  H   GLU d   1    2618.050 801.320-2736.888  0.00  0.00     0.180 HD
ENDBRANCH  43  44
BRANCH  43  46
ATOM     46  CB  GLU d   1    2617.459 804.333-2735.652  0.00  0.00     0.047 C 
BRANCH  46  47
ATOM     47  CG  GLU d   1    2617.934 805.818-2735.541  0.00  0.00     0.116 C 
BRANCH  47  48
ATOM     48  CD  GLU d   1    2617.510 806.622-2734.325  0.00  0.00     0.172 C 
ATOM     49  OE1 GLU d   1    2616.782 806.120-2733.448  0.00  0.00    -0.648 OA
ATOM     50  OE2 GLU d   1    2617.940 807.792-2734.253  0.00  0.00    -0.648 OA
ENDBRANCH  47  48
ENDBRANCH  46  47
ENDBRANCH  43  46
ENDBRANCH  40  43
ENDBRANCH  38  39
BRANCH  38  51
ATOM     51  CB  ASN d   2    2622.047 801.660-2734.999  0.00  0.00     0.137 C 
BRANCH  51  52
ATOM     52  CG  ASN d   2    2621.583 801.884-2733.555  0.00  0.00     0.217 C 
ATOM     53  ND2 ASN d   2    2622.177 802.799-2732.837  0.00  0.00    -0.370 N 
ATOM     54 21HD ASN d   2    2621.697 802.972-2731.950  0.00  0.00     0.159 HD
ATOM     55 22HD ASN d   2    2622.879 803.370-2733.306  0.00  0.00     0.159 HD
ATOM     56  OD1 ASN d   2    2620.662 801.250-2733.061  0.00  0.00    -0.274 OA
ENDBRANCH  51  52
ENDBRANCH  38  51
ENDBRANCH  33  38
ENDBRANCH  28  31
ENDBRANCH  26  27
BRANCH  26  57
ATOM     57  CB  GLU d   4    2618.567 803.797-2741.357  0.00  0.00     0.045 C 
BRANCH  57  58
ATOM     58  CG  GLU d   4    2618.020 804.801-2742.423  0.00  0.00     0.116 C 
BRANCH  58  59
ATOM     59  CD  GLU d   4    2616.593 805.298-2742.280  0.00  0.00     0.172 C 
ATOM     60  OE1 GLU d   4    2615.866 804.900-2741.349  0.00  0.00    -0.648 OA
ATOM     61  OE2 GLU d   4    2616.204 806.127-2743.128  0.00  0.00    -0.648 OA
ENDBRANCH  58  59
ENDBRANCH  57  58
ENDBRANCH  26  57
ENDBRANCH  23  26
ENDBRANCH  21  22
BRANCH  21  62
ATOM     62  CB  SER d   5    2622.163 806.844-2738.813  0.00  0.00     0.199 C 
BRANCH  62  63
ATOM     63  OG  SER d   5    2622.894 805.965-2737.952  0.00  0.00    -0.398 OA
ATOM     64  HG  SER d   5    2622.405 805.140-2737.901  0.00  0.00     0.209 HD
ENDBRANCH  62  63
ENDBRANCH  21  62
ENDBRANCH  18  21
ENDBRANCH  16  17
BRANCH  16  65
ATOM     65  CB  ILE d   6    2625.927 803.291-2740.460  0.00  0.00     0.013 C 
ATOM     66  CG2 ILE d   6    2627.368 802.989-2740.975  0.00  0.00     0.012 C 
BRANCH  65  67
ATOM     67  CG1 ILE d   6    2625.946 803.229-2738.899  0.00  0.00     0.002 C 
ATOM     68  CD1 ILE d   6    2626.216 801.840-2738.284  0.00  0.00     0.005 C 
ENDBRANCH  65  67
ENDBRANCH  16  65
ENDBRANCH  13  16
ENDBRANCH  11  12
BRANCH  11  69
ATOM     69  CB  LEU d   7    2623.067 803.031-2745.080  0.00  0.00     0.038 C 
BRANCH  69  70
ATOM     70  CG  LEU d   7    2622.993 801.551-2744.614  0.00  0.00    -0.020 C 
ATOM     71  CD1 LEU d   7    2621.803 800.846-2745.279  0.00  0.00     0.009 C 
ATOM     72  CD2 LEU d   7    2624.287 800.772-2744.905  0.00  0.00     0.009 C 
ENDBRANCH  69  70
ENDBRANCH  11  69
ENDBRANCH   8  11
ENDBRANCH   6   7
BRANCH   6  73
ATOM     73  CB  ASP d   8    2622.214 808.316-2744.480  0.00  0.00     0.147 C 
BRANCH  73  74
ATOM     74  CG  ASP d   8    2621.996 809.737-2745.021  0.00  0.00     0.175 C 
ATOM     75  OD1 ASP d   8    2622.060 809.935-2746.252  0.00  0.00    -0.648 OA
ATOM     76  OD2 ASP d   8    2621.804 810.663-2744.207  0.00  0.00    -0.648 OA
ENDBRANCH  73  74
ENDBRANCH   6  73
ENDBRANCH   3   6
ENDBRANCH   1   2
BRANCH   1  77
ATOM     77  C   GLU d   9    2627.539 808.234-2745.090  0.00  0.00     0.241 C 
ATOM     78  O   GLU d   9    2628.203 808.988-2745.816  0.00  0.00    -0.271 OA
ATOM     79  N   HIS d  10    2627.635 806.959-2745.259  0.00  0.00    -0.346 N 
ATOM     80  H   HIS d  10    2627.104 806.324-2744.680  0.00  0.00     0.163 HD
BRANCH  79  81
ATOM     81  CA  HIS d  10    2628.522 806.447-2746.300  0.00  0.00     0.182 C 
BRANCH  81  82
ATOM     82  C   HIS d  10    2628.155 807.011-2747.651  0.00  0.00     0.241 C 
ATOM     83  O   HIS d  10    2629.008 807.475-2748.423  0.00  0.00    -0.271 OA
ATOM     84  N   VAL d  11    2626.917 807.010-2748.014  0.00  0.00    -0.346 N 
ATOM     85  H   VAL d  11    2626.204 806.638-2747.403  0.00  0.00     0.163 HD
BRANCH  84  86
ATOM     86  CA  VAL d  11    2626.562 807.556-2749.321  0.00  0.00     0.180 C 
BRANCH  86  87
ATOM     87  C   VAL d  11    2627.028 808.986-2749.454  0.00  0.00     0.241 C 
ATOM     88  O   VAL d  11    2627.629 809.390-2750.457  0.00  0.00    -0.271 OA
ATOM     89  N   GLN d  12    2626.791 809.812-2748.492  0.00  0.00    -0.346 N 
ATOM     90  H   GLN d  12    2626.302 809.507-2747.663  0.00  0.00     0.163 HD
BRANCH  89  91
ATOM     91  CA  GLN d  12    2627.240 811.195-2748.620  0.00  0.00     0.177 C 
BRANCH  91  92
ATOM     92  C   GLN d  12    2628.730 811.261-2748.858  0.00  0.00     0.241 C 
ATOM     93  O   GLN d  12    2629.218 811.969-2749.737  0.00  0.00    -0.271 OA
ATOM     94  N   ARG d  13    2629.515 810.555-2748.117  0.00  0.00    -0.346 N 
ATOM     95  H   ARG d  13    2629.138 809.966-2747.388  0.00  0.00     0.163 HD
BRANCH  94  96
ATOM     96  CA  ARG d  13    2630.955 810.620-2748.348  0.00  0.00     0.176 C 
BRANCH  96  97
ATOM     97  C   ARG d  13    2631.291 810.247-2749.773  0.00  0.00     0.241 C 
ATOM     98  O   ARG d  13    2632.060 810.919-2750.458  0.00  0.00    -0.271 OA
ATOM     99  N   VAL d  14    2630.754 809.193-2750.287  0.00  0.00    -0.346 N 
ATOM    100  H   VAL d  14    2630.119 808.625-2749.744  0.00  0.00     0.163 HD
BRANCH  99 101
ATOM    101  CA  VAL d  14    2631.079 808.833-2751.664  0.00  0.00     0.180 C 
BRANCH 101 102
ATOM    102  C   VAL d  14    2630.749 809.962-2752.610  0.00  0.00     0.241 C 
ATOM    103  O   VAL d  14    2631.542 810.343-2753.480  0.00  0.00    -0.271 OA
ATOM    104  N   MET d  15    2629.604 810.548-2752.508  0.00  0.00    -0.346 N 
ATOM    105  H   MET d  15    2628.939 810.256-2751.807  0.00  0.00     0.163 HD
BRANCH 104 106
ATOM    106  CA  MET d  15    2629.284 811.641-2753.422  0.00  0.00     0.177 C 
BRANCH 106 107
ATOM    107  C   MET d  15    2630.314 812.741-2753.335  0.00  0.00     0.241 C 
ATOM    108  O   MET d  15    2630.816 813.251-2754.348  0.00  0.00    -0.271 OA
ATOM    109  N   GLN d  16    2630.683 813.162-2752.173  0.00  0.00    -0.347 N 
ATOM    110  H   GLN d  16    2630.289 812.762-2751.334  0.00  0.00     0.163 HD
BRANCH 109 111
ATOM    111  CA  GLN d  16    2631.679 814.225-2752.089  0.00  0.00     0.163 C 
BRANCH 111 112
ATOM    112  C   GLN d  16    2632.951 813.836-2752.805  0.00  0.00     0.219 C 
ATOM    113  O   GLN d  16    2633.074 812.750-2753.367  0.00  0.00    -0.287 OA
ENDBRANCH 111 112
BRANCH 111 114
ATOM    114  CB  GLN d  16    2631.954 814.531-2750.599  0.00  0.00     0.043 C 
BRANCH 114 115
ATOM    115  CG  GLN d  16    2632.969 815.684-2750.306  0.00  0.00     0.105 C 
BRANCH 115 116
ATOM    116  CD  GLN d  16    2633.338 816.003-2748.852  0.00  0.00     0.215 C 
ATOM    117  NE2 GLN d  16    2632.792 815.325-2747.875  0.00  0.00    -0.370 N 
ATOM    118 21HE GLN d  16    2633.139 815.555-2746.942  0.00  0.00     0.159 HD
ATOM    119 22HE GLN d  16    2632.170 814.570-2748.168  0.00  0.00     0.159 HD
ATOM    120  OE1 GLN d  16    2634.156 816.869-2748.584  0.00  0.00    -0.274 OA
ENDBRANCH 115 116
ENDBRANCH 114 115
ENDBRANCH 111 114
ENDBRANCH 109 111
ENDBRANCH 106 107
BRANCH 106 121
ATOM    121  CB  MET d  15    2627.863 812.187-2753.113  0.00  0.00     0.045 C 
BRANCH 121 122
ATOM    122  CG  MET d  15    2626.700 811.189-2753.304  0.00  0.00     0.076 C 
BRANCH 122 123
ATOM    123  SD  MET d  15    2625.126 812.055-2753.190  0.00  0.00    -0.173 SA
ATOM    124  CE  MET d  15    2624.045 810.626-2753.052  0.00  0.00     0.089 C 
ENDBRANCH 122 123
ENDBRANCH 121 122
ENDBRANCH 106 121
ENDBRANCH 104 106
ENDBRANCH 101 102
BRANCH 101 125
ATOM    125  CB  VAL d  14    2630.306 807.516-2752.070  0.00  0.00     0.009 C 
ATOM    126  CG1 VAL d  14    2630.394 807.096-2753.563  0.00  0.00     0.012 C 
ATOM    127  CG2 VAL d  14    2630.737 806.264-2751.269  0.00  0.00     0.012 C 
ENDBRANCH 101 125
ENDBRANCH  99 101
ENDBRANCH  96  97
BRANCH  96 128
ATOM    128  CB  ARG d  13    2631.668 809.682-2747.334  0.00  0.00     0.036 C 
BRANCH 128 129
ATOM    129  CG  ARG d  13    2633.213 809.834-2747.253  0.00  0.00     0.023 C 
BRANCH 129 130
ATOM    130  CD  ARG d  13    2633.840 808.847-2746.255  0.00  0.00     0.138 C 
BRANCH 130 131
ATOM    131  NE  ARG d  13    2635.317 809.054-2746.205  0.00  0.00    -0.227 N 
ATOM    132  CZ  ARG d  13    2636.166 808.363-2745.450  0.00  0.00     0.665 C 
ATOM    133  NH1 ARG d  13    2635.801 807.399-2744.651  0.00  0.00    -0.235 N 
ATOM    134  NH2 ARG d  13    2637.425 808.661-2745.507  0.00  0.00    -0.235 N 
ATOM    135 11HH ARG d  13    2634.795 807.213-2744.654  0.00  0.00     0.174 HD
ATOM    136 12HH ARG d  13    2636.514 806.916-2744.103  0.00  0.00     0.174 HD
ATOM    137 21HH ARG d  13    2637.693 809.419-2746.139  0.00  0.00     0.174 HD
ATOM    138 22HH ARG d  13    2638.061 808.120-2744.918  0.00  0.00     0.174 HD
ATOM    139  HE  ARG d  13    2635.769 809.776-2746.777  0.00  0.00     0.177 HD
ENDBRANCH 130 131
ENDBRANCH 129 130
ENDBRANCH 128 129
ENDBRANCH  96 128
ENDBRANCH  94  96
ENDBRANCH  91  92
BRANCH  91 140
ATOM    140  CB  GLN d  12    2626.850 811.963-2747.338  0.00  0.00     0.044 C 
BRANCH 140 141
ATOM    141  CG  GLN d  12    2627.211 813.485-2747.307  0.00  0.00     0.105 C 
BRANCH 141 142
ATOM    142  CD  GLN d  12    2626.910 814.299-2746.043  0.00  0.00     0.215 C 
ATOM    143  NE2 GLN d  12    2626.343 813.724-2745.014  0.00  0.00    -0.370 N 
ATOM    144 21HE GLN d  12    2626.236 814.319-2744.190  0.00  0.00     0.159 HD
ATOM    145 22HE GLN d  12    2626.178 812.720-2745.116  0.00  0.00     0.159 HD
ATOM    146  OE1 GLN d  12    2627.212 815.480-2745.966  0.00  0.00    -0.274 OA
ENDBRANCH 141 142
ENDBRANCH 140 141
ENDBRANCH  91 140
ENDBRANCH  89  91
ENDBRANCH  86  87
BRANCH  86 147
ATOM    147  CB  VAL d  11    2625.001 807.450-2749.540  0.00  0.00     0.009 C 
ATOM    148  CG1 VAL d  11    2624.433 808.153-2750.803  0.00  0.00     0.012 C 
ATOM    149  CG2 VAL d  11    2624.476 805.996-2749.612  0.00  0.00     0.012 C 
ENDBRANCH  86 147
ENDBRANCH  84  86
ENDBRANCH  81  82
BRANCH  81 150
ATOM    150  CB  HIS d  10    2628.358 804.918-2746.294  0.00  0.00     0.095 C 
BRANCH 150 151
ATOM    151  CG  HIS d  10    2629.643 804.207-2745.986  0.00  0.00     0.053 A 
ATOM    152  CD2 HIS d  10    2630.024 803.873-2744.693  0.00  0.00     0.116 A 
ATOM    153  NE2 HIS d  10    2631.239 803.240-2744.760  0.00  0.00    -0.359 N 
ATOM    154  CE1 HIS d  10    2631.501 803.242-2746.095  0.00  0.00     0.207 A 
ATOM    155  2HE HIS d  10    2631.806 802.863-2743.987  0.00  0.00     0.166 HD
ATOM    156  ND1 HIS d  10    2630.594 803.800-2746.918  0.00  0.00    -0.247 NA
ENDBRANCH 150 151
ENDBRANCH  81 150
ENDBRANCH  79  81
ENDBRANCH   1  77
BRANCH   1 157
ATOM    157  CB  GLU d   9    2627.255 808.555-2742.609  0.00  0.00     0.045 C 
BRANCH 157 158
ATOM    158  CG  GLU d   9    2628.638 809.247-2742.380  0.00  0.00     0.116 C 
BRANCH 158 159
ATOM    159  CD  GLU d   9    2629.340 809.034-2741.052  0.00  0.00     0.172 C 
ATOM    160  OE1 GLU d   9    2628.818 808.344-2740.155  0.00  0.00    -0.648 OA
ATOM    161  OE2 GLU d   9    2630.459 809.572-2740.921  0.00  0.00    -0.648 OA
ENDBRANCH 158 159
ENDBRANCH 157 158
ENDBRANCH   1 157
TORSDOF 67
