@<TRIPOS>MOLECULE
15-6
267 268 16              
SMALL
USER_CHARGES
@<TRIPOS>ATOM
1	   N	2374.414	726.827	-2470.672	N.3	1	GLU1	-0.516	
2	  CA	2374.973	728.176	-2470.672	C.3	1	GLU1	0.040	
3	   C	2376.482	728.136	-2470.672	C.2	1	GLU1	0.537	
4	   O	2377.158	728.835	-2471.441	O.2	1	GLU1	-0.582	
5	  CB	2374.450	728.961	-2469.436	C.3	1	GLU1	0.056	
6	  CG	2374.925	730.446	-2469.324	C.3	1	GLU1	0.014	
7	  CD	2374.501	731.250	-2468.109	C.2	1	GLU1	0.805	
8	 OE1	2373.773	730.748	-2467.231	O.co2	1	GLU1	-0.819	
9	 OE2	2374.931	732.420	-2468.037	O.co2	1	GLU1	-0.819	
10	   H	2375.041	725.948	-2470.672	 H	1	GLU1	0.294	
11	  HA	2374.647	728.694	-2471.593	 H	1	GLU1	0.111	
12	 2HB	2374.739	728.430	-2468.505	 H	1	GLU1	-0.017	
13	 3HB	2373.343	728.951	-2469.422	 H	1	GLU1	-0.017	
14	 2HG	2374.615	731.031	-2470.205	 H	1	GLU1	-0.043	
15	 3HG	2376.025	730.513	-2469.295	 H	1	GLU1	-0.043	
16	   N	2377.087	727.350	-2469.847	N.am	2	ASN2	-0.416	
17	  CA	2378.546	727.311	-2469.847	C.3	2	ASN2	0.014	
18	   C	2379.078	726.955	-2471.216	C.2	2	ASN2	0.597	
19	   O	2379.993	727.586	-2471.744	O.2	2	ASN2	-0.568	
20	  CB	2379.038	726.288	-2468.782	C.3	2	ASN2	-0.204	
21	  CG	2378.574	726.512	-2467.339	C.2	2	ASN2	0.713	
22	 ND2	2379.168	727.426	-2466.621	N.pl3	2	ASN2	-0.919	
23	 OD1	2377.653	725.878	-2466.845	O.2	2	ASN2	-0.593	
24	   H	2376.559	726.770	-2469.211	 H	2	ASN2	0.272	
25	  HA	2378.924	728.320	-2469.602	 H	2	ASN2	0.105	
26	 2HB	2380.142	726.229	-2468.786	 H	2	ASN2	0.080	
27	 3HB	2378.709	725.269	-2469.068	 H	2	ASN2	0.080	
28	1HD2	2378.688	727.600	-2465.735	 H	2	ASN2	0.420	
29	2HD2	2379.870	727.998	-2467.090	 H	2	ASN2	0.420	
30	   N	2378.556	725.960	-2471.850	N.am	3	PRO3	-0.255	
31	  CA	2379.008	725.551	-2473.171	C.3	3	PRO3	-0.027	
32	   C	2378.611	726.575	-2474.248	C.2	3	PRO3	0.590	
33	   O	2379.434	726.958	-2475.080	O.2	3	PRO3	-0.575	
34	  CB	2378.304	724.196	-2473.341	C.3	3	PRO3	-0.007	
35	  CG	2377.020	724.349	-2472.511	C.3	3	PRO3	0.019	
36	  CD	2377.478	725.167	-2471.301	C.3	3	PRO3	0.019	
37	  HA	2380.094	725.431	-2473.185	 H	3	PRO3	0.064	
38	 2HB	2378.927	723.415	-2472.900	 H	3	PRO3	0.025	
39	 3HB	2378.106	723.948	-2474.386	 H	3	PRO3	0.025	
40	 2HG	2376.593	723.387	-2472.220	 H	3	PRO3	0.021	
41	 3HG	2376.283	724.920	-2473.079	 H	3	PRO3	0.021	
42	 2HD	2377.867	724.518	-2470.514	 H	3	PRO3	0.039	
43	 3HD	2376.681	725.803	-2470.908	 H	3	PRO3	0.039	
44	   N	2377.406	727.035	-2474.281	N.am	4	GLU4	-0.516	
45	  CA	2377.047	728.006	-2475.311	C.3	4	GLU4	0.040	
46	   C	2377.946	729.217	-2475.249	C.2	4	GLU4	0.537	
47	   O	2378.473	729.696	-2476.263	O.2	4	GLU4	-0.582	
48	  CB	2375.558	728.425	-2475.141	C.3	4	GLU4	0.056	
49	  CG	2375.011	729.429	-2476.207	C.3	4	GLU4	0.014	
50	  CD	2373.584	729.926	-2476.064	C.2	4	GLU4	0.805	
51	 OE1	2372.857	729.528	-2475.133	O.co2	4	GLU4	-0.819	
52	 OE2	2373.195	730.755	-2476.912	O.co2	4	GLU4	-0.819	
53	   H	2376.721	726.728	-2473.604	 H	4	GLU4	0.294	
54	  HA	2377.178	727.535	-2476.302	 H	4	GLU4	0.111	
55	 2HB	2375.405	728.865	-2474.135	 H	4	GLU4	-0.017	
56	 3HB	2374.910	727.527	-2475.147	 H	4	GLU4	-0.017	
57	 2HG	2375.093	729.014	-2477.225	 H	4	GLU4	-0.043	
58	 3HG	2375.599	730.361	-2476.218	 H	4	GLU4	-0.043	
59	   N	2378.173	729.769	-2474.106	N.am	5	SER5	-0.416	
60	  CA	2379.043	730.940	-2474.047	C.3	5	SER5	-0.025	
61	   C	2380.402	730.634	-2474.632	C.2	5	SER5	0.597	
62	   O	2380.949	731.388	-2475.437	O.2	5	SER5	-0.568	
63	  CB	2379.154	731.472	-2472.597	C.3	5	SER5	0.212	
64	  OG	2379.885	730.593	-2471.736	O.3	5	SER5	-0.655	
65	   H	2377.755	729.398	-2473.265	 H	5	SER5	0.272	
66	  HA	2378.594	731.731	-2474.676	 H	5	SER5	0.084	
67	 2HB	2378.154	731.667	-2472.164	 H	5	SER5	0.035	
68	 3HB	2379.659	732.458	-2472.599	 H	5	SER5	0.035	
69	  HG	2379.396	729.768	-2471.685	 H	5	SER5	0.428	
70	   N	2381.006	729.551	-2474.278	N.am	6	ILE6	-0.416	
71	  CA	2382.319	729.255	-2474.844	C.3	6	ILE6	-0.060	
72	   C	2382.262	729.218	-2476.352	C.2	6	ILE6	0.597	
73	   O	2383.097	729.805	-2477.056	O.2	6	ILE6	-0.568	
74	  CB	2382.918	727.919	-2474.244	C.3	6	ILE6	0.130	
75	 CG1	2382.937	727.857	-2472.683	C.3	6	ILE6	-0.043	
76	 CG2	2384.359	727.617	-2474.759	C.3	6	ILE6	-0.320	
77	 CD1	2383.207	726.468	-2472.068	C.3	6	ILE6	-0.066	
78	   H	2380.577	728.917	-2473.619	 H	6	ILE6	0.272	
79	  HA	2382.993	730.089	-2474.576	 H	6	ILE6	0.087	
80	  HB	2382.260	727.093	-2474.588	 H	6	ILE6	0.019	
81	2HG1	2381.955	728.177	-2472.287	 H	6	ILE6	0.024	
82	3HG1	2383.653	728.599	-2472.278	 H	6	ILE6	0.024	
83	1HG2	2384.418	727.523	-2475.857	 H	6	ILE6	0.088	
84	2HG2	2385.082	728.399	-2474.456	 H	6	ILE6	0.088	
85	3HG2	2384.749	726.655	-2474.380	 H	6	ILE6	0.088	
86	1HD1	2382.478	725.714	-2472.423	 H	6	ILE6	0.019	
87	2HD1	2384.217	726.089	-2472.303	 H	6	ILE6	0.019	
88	3HD1	2383.130	726.498	-2470.965	 H	6	ILE6	0.019	
89	   N	2381.316	728.555	-2476.925	N.am	7	LEU7	-0.416	
90	  CA	2381.261	728.518	-2478.384	C.3	7	LEU7	-0.052	
91	   C	2381.189	729.914	-2478.957	C.2	7	LEU7	0.597	
92	   O	2381.910	730.276	-2479.899	O.2	7	LEU7	-0.568	
93	  CB	2380.058	727.659	-2478.864	C.3	7	LEU7	-0.110	
94	  CG	2379.984	726.179	-2478.398	C.3	7	LEU7	0.353	
95	 CD1	2378.794	725.474	-2479.063	C.3	7	LEU7	-0.412	
96	 CD2	2381.278	725.400	-2478.689	C.3	7	LEU7	-0.412	
97	   H	2380.624	728.068	-2476.374	 H	7	LEU7	0.272	
98	  HA	2382.203	728.078	-2478.758	 H	7	LEU7	0.092	
99	 2HB	2380.034	727.674	-2479.972	 H	7	LEU7	0.046	
100	 3HB	2379.118	728.161	-2478.560	 H	7	LEU7	0.046	
101	  HG	2379.814	726.171	-2477.301	 H	7	LEU7	-0.036	
102	1HD1	2377.837	725.983	-2478.841	 H	7	LEU7	0.100	
103	2HD1	2378.894	725.433	-2480.165	 H	7	LEU7	0.100	
104	3HD1	2378.687	724.433	-2478.707	 H	7	LEU7	0.100	
105	1HD2	2381.553	725.430	-2479.759	 H	7	LEU7	0.100	
106	2HD2	2382.131	725.811	-2478.118	 H	7	LEU7	0.100	
107	3HD2	2381.196	724.337	-2478.393	 H	7	LEU7	0.100	
108	   N	2380.352	730.755	-2478.451	N.am	8	ASP8	-0.516	
109	  CA	2380.282	732.104	-2479.005	C.3	8	ASP8	0.038	
110	   C	2381.629	732.783	-2478.948	C.2	8	ASP8	0.537	
111	   O	2382.102	733.388	-2479.923	O.2	8	ASP8	-0.582	
112	  CB	2379.205	732.944	-2478.264	C.3	8	ASP8	-0.030	
113	  CG	2378.987	734.365	-2478.805	C.2	8	ASP8	0.799	
114	 OD1	2379.051	734.563	-2480.036	O.co2	8	ASP8	-0.801	
115	 OD2	2378.795	735.291	-2477.990	O.co2	8	ASP8	-0.801	
116	   H	2379.754	730.485	-2477.683	 H	8	ASP8	0.294	
117	  HA	2379.999	732.026	-2480.072	 H	8	ASP8	0.088	
118	 2HB	2379.462	733.028	-2477.192	 H	8	ASP8	-0.012	
119	 3HB	2378.225	732.440	-2478.297	 H	8	ASP8	-0.012	
120	   N	2382.309	732.734	-2477.853	N.am	9	GLU9	-0.516	
121	  CA	2383.613	733.391	-2477.798	C.3	9	GLU9	0.040	
122	   C	2384.530	732.862	-2478.874	C.2	9	GLU9	0.537	
123	   O	2385.194	733.616	-2479.600	O.2	9	GLU9	-0.582	
124	  CB	2384.246	733.183	-2476.393	C.3	9	GLU9	0.056	
125	  CG	2385.629	733.875	-2476.164	C.3	9	GLU9	0.014	
126	  CD	2386.331	733.662	-2474.836	C.2	9	GLU9	0.805	
127	 OE1	2385.809	732.972	-2473.939	O.co2	9	GLU9	-0.819	
128	 OE2	2387.450	734.200	-2474.705	O.co2	9	GLU9	-0.819	
129	   H	2381.946	732.248	-2477.046	 H	9	GLU9	0.294	
130	  HA	2383.471	734.473	-2477.974	 H	9	GLU9	0.111	
131	 2HB	2384.358	732.099	-2476.189	 H	9	GLU9	-0.017	
132	 3HB	2383.549	733.538	-2475.609	 H	9	GLU9	-0.017	
133	 2HG	2385.557	734.966	-2476.304	 H	9	GLU9	-0.043	
134	 3HG	2386.375	733.530	-2476.898	 H	9	GLU9	-0.043	
135	   N	2384.626	731.587	-2479.043	N.am	10	HIS10	-0.416	
136	  CA	2385.513	731.075	-2480.083	C.3	10	HIS10	-0.058	
137	   C	2385.146	731.639	-2481.435	C.2	10	HIS10	0.597	
138	   O	2385.999	732.103	-2482.207	O.2	10	HIS10	-0.568	
139	  CB	2385.349	729.546	-2480.078	C.3	10	HIS10	-0.007	
140	  CG	2386.634	728.835	-2479.770	C.2	10	HIS10	0.187	
141	 CD2	2387.015	728.500	-2478.477	C.2	10	HIS10	-0.221	
142	 ND1	2387.585	728.428	-2480.702	N.2	10	HIS10	-0.543	
143	 CE1	2388.492	727.870	-2479.879	C.2	10	HIS10	0.163	
144	 NE2	2388.230	727.868	-2478.544	N.pl3	10	HIS10	-0.280	
145	   H	2384.095	730.952	-2478.464	 H	10	HIS10	0.272	
146	  HA	2386.533	731.432	-2479.859	 H	10	HIS10	0.136	
147	 2HB	2384.983	729.178	-2481.057	 H	10	HIS10	0.037	
148	 3HB	2384.593	729.209	-2479.337	 H	10	HIS10	0.037	
149	 2HD	2386.430	728.716	-2477.588	 H	10	HIS10	0.186	
150	 1HE	2389.383	727.448	-2480.326	 H	10	HIS10	0.144	
151	 2HE	2388.797	727.491	-2477.771	 H	10	HIS10	0.334	
152	   N	2383.908	731.638	-2481.798	N.am	11	VAL11	-0.416	
153	  CA	2383.553	732.184	-2483.105	C.3	11	VAL11	-0.087	
154	   C	2384.019	733.614	-2483.238	C.2	11	VAL11	0.597	
155	   O	2384.620	734.018	-2484.241	O.2	11	VAL11	-0.568	
156	  CB	2381.992	732.078	-2483.324	C.3	11	VAL11	0.299	
157	 CG1	2381.424	732.781	-2484.587	C.3	11	VAL11	-0.319	
158	 CG2	2381.467	730.624	-2483.396	C.3	11	VAL11	-0.319	
159	   H	2383.195	731.266	-2481.187	 H	11	VAL11	0.272	
160	  HA	2384.073	731.601	-2483.887	 H	11	VAL11	0.097	
161	  HB	2381.505	732.559	-2482.449	 H	11	VAL11	-0.030	
162	1HG1	2381.862	732.389	-2485.524	 H	11	VAL11	0.079	
163	2HG1	2380.324	732.674	-2484.669	 H	11	VAL11	0.079	
164	3HG1	2381.602	733.874	-2484.578	 H	11	VAL11	0.079	
165	1HG2	2381.756	730.037	-2482.505	 H	11	VAL11	0.079	
166	2HG2	2380.361	730.587	-2483.438	 H	11	VAL11	0.079	
167	3HG2	2381.848	730.082	-2484.282	 H	11	VAL11	0.079	
168	   N	2383.782	734.440	-2482.276	N.am	12	GLN12	-0.416	
169	  CA	2384.231	735.823	-2482.404	C.3	12	GLN12	-0.003	
170	   C	2385.721	735.889	-2482.642	C.2	12	GLN12	0.597	
171	   O	2386.208	736.597	-2483.521	O.2	12	GLN12	-0.568	
172	  CB	2383.841	736.591	-2481.122	C.3	12	GLN12	-0.004	
173	  CG	2384.202	738.113	-2481.091	C.3	12	GLN12	-0.064	
174	  CD	2383.901	738.927	-2479.827	C.2	12	GLN12	0.695	
175	 NE2	2383.334	738.352	-2478.798	N.pl3	12	GLN12	-0.941	
176	 OE1	2384.203	740.108	-2479.750	O.2	12	GLN12	-0.609	
177	   H	2383.293	734.135	-2481.447	 H	12	GLN12	0.272	
178	  HA	2383.732	736.279	-2483.279	 H	12	GLN12	0.085	
179	 2HB	2384.317	736.091	-2480.252	 H	12	GLN12	0.017	
180	 3HB	2382.751	736.485	-2480.958	 H	12	GLN12	0.017	
181	 2HG	2383.725	738.634	-2481.942	 H	12	GLN12	0.035	
182	 3HG	2385.286	738.254	-2481.257	 H	12	GLN12	0.035	
183	1HE2	2383.227	738.947	-2477.974	 H	12	GLN12	0.425	
184	2HE2	2383.169	737.348	-2478.900	 H	12	GLN12	0.425	
185	   N	2386.506	735.183	-2481.901	N.am	13	ARG13	-0.348	
186	  CA	2387.946	735.248	-2482.132	C.3	13	ARG13	-0.264	
187	   C	2388.282	734.875	-2483.557	C.2	13	ARG13	0.734	
188	   O	2389.051	735.547	-2484.242	O.2	13	ARG13	-0.589	
189	  CB	2388.659	734.309	-2481.118	C.3	13	ARG13	-0.001	
190	  CG	2390.204	734.462	-2481.037	C.3	13	ARG13	0.039	
191	  CD	2390.831	733.475	-2480.039	C.3	13	ARG13	0.049	
192	  NE	2392.308	733.682	-2479.989	N.pl3	13	ARG13	-0.530	
193	  CZ	2393.157	732.991	-2479.234	C.cat	13	ARG13	0.808	
194	 NH1	2392.792	732.027	-2478.435	N.pl3	13	ARG13	-0.863	
195	 NH2	2394.416	733.289	-2479.291	N.pl3	13	ARG13	-0.863	
196	   H	2386.129	734.593	-2481.172	 H	13	ARG13	0.275	
197	  HA	2388.271	736.294	-2481.975	 H	13	ARG13	0.156	
198	 2HB	2388.393	733.259	-2481.356	 H	13	ARG13	0.033	
199	 3HB	2388.234	734.477	-2480.107	 H	13	ARG13	0.033	
200	 2HG	2390.453	735.507	-2480.759	 H	13	ARG13	0.029	
201	 3HG	2390.655	734.305	-2482.039	 H	13	ARG13	0.029	
202	 2HD	2390.586	732.435	-2480.347	 H	13	ARG13	0.069	
203	 3HD	2390.375	733.622	-2479.036	 H	13	ARG13	0.069	
204	  HE	2392.760	734.404	-2480.561	 H	13	ARG13	0.346	
205	1HH1	2391.786	731.841	-2478.438	 H	13	ARG13	0.448	
206	2HH1	2393.505	731.544	-2477.886	 H	13	ARG13	0.448	
207	1HH2	2394.684	734.047	-2479.923	 H	13	ARG13	0.448	
208	2HH2	2395.052	732.748	-2478.702	 H	13	ARG13	0.448	
209	   N	2387.745	733.821	-2484.071	N.am	14	VAL14	-0.416	
210	  CA	2388.070	733.460	-2485.448	C.3	14	VAL14	-0.087	
211	   C	2387.740	734.590	-2486.394	C.2	14	VAL14	0.597	
212	   O	2388.533	734.971	-2487.264	O.2	14	VAL14	-0.568	
213	  CB	2387.297	732.143	-2485.854	C.3	14	VAL14	0.299	
214	 CG1	2387.385	731.724	-2487.347	C.3	14	VAL14	-0.319	
215	 CG2	2387.728	730.891	-2485.053	C.3	14	VAL14	-0.319	
216	   H	2387.110	733.253	-2483.528	 H	14	VAL14	0.272	
217	  HA	2389.158	733.283	-2485.523	 H	14	VAL14	0.097	
218	  HB	2386.220	732.315	-2485.638	 H	14	VAL14	-0.030	
219	1HG1	2388.427	731.547	-2487.676	 H	14	VAL14	0.079	
220	2HG1	2386.812	730.801	-2487.559	 H	14	VAL14	0.079	
221	3HG1	2386.956	732.486	-2488.026	 H	14	VAL14	0.079	
222	1HG2	2387.641	731.051	-2483.962	 H	14	VAL14	0.079	
223	2HG2	2387.092	730.015	-2485.284	 H	14	VAL14	0.079	
224	3HG2	2388.776	730.601	-2485.259	 H	14	VAL14	0.079	
225	   N	2386.595	735.176	-2486.292	N.am	15	ILE15	-0.416	
226	  CA	2386.276	736.269	-2487.207	C.3	15	ILE15	-0.060	
227	   C	2387.308	737.367	-2487.119	C.2	15	ILE15	0.597	
228	   O	2387.812	737.877	-2488.130	O.2	15	ILE15	-0.568	
229	  CB	2384.811	736.816	-2486.961	C.3	15	ILE15	0.130	
230	 CG1	2383.698	735.720	-2486.963	C.3	15	ILE15	-0.043	
231	 CG2	2384.401	737.926	-2487.979	C.3	15	ILE15	-0.320	
232	 CD1	2382.323	736.157	-2486.416	C.3	15	ILE15	-0.066	
233	   H	2385.930	734.884	-2485.590	 H	15	ILE15	0.272	
234	  HA	2386.330	735.870	-2488.236	 H	15	ILE15	0.087	
235	  HB	2384.808	737.273	-2485.949	 H	15	ILE15	0.019	
236	2HG1	2384.016	734.868	-2486.334	 H	15	ILE15	0.024	
237	3HG1	2383.585	735.289	-2487.977	 H	15	ILE15	0.024	
238	1HG2	2385.073	738.802	-2487.961	 H	15	ILE15	0.088	
239	2HG2	2384.381	737.549	-2489.020	 H	15	ILE15	0.088	
240	3HG2	2383.400	738.342	-2487.767	 H	15	ILE15	0.088	
241	1HD1	2382.399	736.554	-2485.385	 H	15	ILE15	0.019	
242	2HD1	2381.848	736.938	-2487.037	 H	15	ILE15	0.019	
243	3HD1	2381.617	735.307	-2486.384	 H	15	ILE15	0.019	
244	   N	2387.676	737.788	-2485.956	N.am	16	ARG16	-0.348	
245	  CA	2388.675	738.850	-2485.871	C.3	16	ARG16	-0.264	
246	   C	2389.945	738.455	-2486.586	C.2	16	ARG16	0.734	
247	   O	2390.058	737.378	-2487.168	O.2	16	ARG16	-0.589	
248	  CB	2388.943	739.167	-2484.373	C.3	16	ARG16	-0.001	
249	  CG	2389.770	740.455	-2484.099	C.3	16	ARG16	0.039	
250	  CD	2390.019	740.673	-2482.597	C.3	16	ARG16	0.049	
251	  NE	2390.796	741.931	-2482.396	N.pl3	16	ARG16	-0.530	
252	  CZ	2391.188	742.413	-2481.219	C.cat	16	ARG16	0.808	
253	 NH1	2390.938	741.829	-2480.081	N.pl3	16	ARG16	-0.863	
254	 NH2	2391.854	743.524	-2481.200	N.pl3	16	ARG16	-0.863	
255	   H	2387.280	737.388	-2485.117	 H	16	ARG16	0.275	
256	  HA	2388.268	739.743	-2486.381	 H	16	ARG16	0.156	
257	 2HB	2389.438	738.290	-2483.906	 H	16	ARG16	0.033	
258	 3HB	2387.974	739.250	-2483.840	 H	16	ARG16	0.033	
259	 2HG	2389.241	741.326	-2484.536	 H	16	ARG16	0.029	
260	 3HG	2390.744	740.400	-2484.627	 H	16	ARG16	0.029	
261	 2HD	2390.566	739.798	-2482.184	 H	16	ARG16	0.069	
262	 3HD	2389.045	740.718	-2482.063	 H	16	ARG16	0.069	
263	  HE	2391.077	742.512	-2483.192	 H	16	ARG16	0.346	
264	1HH1	2390.411	740.957	-2480.167	 H	16	ARG16	0.448	
265	2HH1	2391.272	742.264	-2479.220	 H	16	ARG16	0.448	
266	1HH2	2392.040	743.967	-2482.102	 H	16	ARG16	0.448	
267	2HH2	2392.144	743.879	-2480.288	 H	16	ARG16	0.448	
@<TRIPOS>BOND
1 1 2 1
2 1 10 1
3 2 3 1
4 2 5 1
5 2 11 1
6 3 4 2
7 3 16 1
8 5 6 1
9 6 7 1
10 7 8 2
11 7 9 1
12 5 12 1
13 5 13 1
14 6 14 1
15 6 15 1
16 16 17 1
17 16 24 1
18 17 18 1
19 17 20 1
20 17 25 1
21 18 19 2
22 18 30 1
23 20 21 1
24 21 22 1
25 21 23 2
26 20 26 1
27 20 27 1
28 22 28 1
29 22 29 1
30 30 31 1
31 30 36 1
32 31 32 1
33 31 34 1
34 31 37 1
35 32 33 2
36 32 44 1
37 34 35 1
38 35 36 1
39 34 38 1
40 34 39 1
41 35 40 1
42 35 41 1
43 36 42 1
44 36 43 1
45 44 45 1
46 44 53 1
47 45 46 1
48 45 48 1
49 45 54 1
50 46 47 2
51 46 59 1
52 48 49 1
53 49 50 1
54 50 51 2
55 50 52 1
56 48 55 1
57 48 56 1
58 49 57 1
59 49 58 1
60 59 60 1
61 59 65 1
62 60 61 1
63 60 63 1
64 60 66 1
65 61 62 2
66 61 70 1
67 63 64 1
68 63 67 1
69 63 68 1
70 64 69 1
71 70 71 1
72 70 78 1
73 71 72 1
74 71 74 1
75 71 79 1
76 72 73 2
77 72 89 1
78 74 75 1
79 74 76 1
80 75 77 1
81 74 80 1
82 75 81 1
83 75 82 1
84 76 83 1
85 76 84 1
86 76 85 1
87 77 86 1
88 77 87 1
89 77 88 1
90 89 90 1
91 89 97 1
92 90 91 1
93 90 93 1
94 90 98 1
95 91 92 2
96 91 108 1
97 93 94 1
98 94 95 1
99 94 96 1
100 93 99 1
101 93 100 1
102 94 101 1
103 95 102 1
104 95 103 1
105 95 104 1
106 96 105 1
107 96 106 1
108 96 107 1
109 108 109 1
110 108 116 1
111 109 110 1
112 109 112 1
113 109 117 1
114 110 111 2
115 110 120 1
116 112 113 1
117 113 114 2
118 113 115 1
119 112 118 1
120 112 119 1
121 120 121 1
122 120 129 1
123 121 122 1
124 121 124 1
125 121 130 1
126 122 123 2
127 122 135 1
128 124 125 1
129 125 126 1
130 126 127 2
131 126 128 1
132 124 131 1
133 124 132 1
134 125 133 1
135 125 134 1
136 135 136 1
137 135 145 1
138 136 137 1
139 136 139 1
140 136 146 1
141 137 138 2
142 137 152 1
143 139 140 1
144 140 141 2
145 141 144 1
146 140 142 1
147 142 143 2
148 143 144 1
149 139 147 1
150 139 148 1
151 141 149 1
152 143 150 1
153 144 151 1
154 152 153 1
155 152 159 1
156 153 154 1
157 153 156 1
158 153 160 1
159 154 155 2
160 154 168 1
161 156 157 1
162 156 158 1
163 156 161 1
164 157 162 1
165 157 163 1
166 157 164 1
167 158 165 1
168 158 166 1
169 158 167 1
170 168 169 1
171 168 177 1
172 169 170 1
173 169 172 1
174 169 178 1
175 170 171 2
176 170 185 1
177 172 173 1
178 173 174 1
179 174 175 1
180 174 176 2
181 172 179 1
182 172 180 1
183 173 181 1
184 173 182 1
185 175 183 1
186 175 184 1
187 185 186 1
188 185 196 1
189 186 187 1
190 186 189 1
191 186 197 1
192 187 188 2
193 187 209 1
194 189 190 1
195 190 191 1
196 191 192 1
197 192 193 1
198 193 194 2
199 193 195 1
200 189 198 1
201 189 199 1
202 190 200 1
203 190 201 1
204 191 202 1
205 191 203 1
206 192 204 1
207 194 205 1
208 194 206 1
209 195 207 1
210 195 208 1
211 209 210 1
212 209 216 1
213 210 211 1
214 210 213 1
215 210 217 1
216 211 212 2
217 211 225 1
218 213 214 1
219 213 215 1
220 213 218 1
221 214 219 1
222 214 220 1
223 214 221 1
224 215 222 1
225 215 223 1
226 215 224 1
227 225 226 1
228 225 233 1
229 226 227 1
230 226 229 1
231 226 234 1
232 227 228 2
233 227 244 1
234 229 230 1
235 229 231 1
236 230 232 1
237 229 235 1
238 230 236 1
239 230 237 1
240 231 238 1
241 231 239 1
242 231 240 1
243 232 241 1
244 232 242 1
245 232 243 1
246 244 245 1
247 244 255 1
248 245 246 1
249 245 248 1
250 245 256 1
251 246 247 2
252 248 249 1
253 249 250 1
254 250 251 1
255 251 252 1
256 252 253 2
257 252 254 1
258 248 257 1
259 248 258 1
260 249 259 1
261 249 260 1
262 250 261 1
263 250 262 1
264 251 263 1
265 253 264 1
266 253 265 1
267 254 266 1
268 254 267 1
@<TRIPOS>SUBSTRUCTURE
1	GLU1	1	RESIDUE	1 ****	GLU
2	ASN2	16	RESIDUE	1 ****	ASN
3	PRO3	30	RESIDUE	1 ****	PRO
4	GLU4	44	RESIDUE	1 ****	GLU
5	SER5	59	RESIDUE	1 ****	SER
6	ILE6	70	RESIDUE	1 ****	ILE
7	LEU7	89	RESIDUE	1 ****	LEU
8	ASP8	108	RESIDUE	1 ****	ASP
9	GLU9	120	RESIDUE	1 ****	GLU
10	HIS10	135	RESIDUE	1 ****	HIS
11	VAL11	152	RESIDUE	1 ****	VAL
12	GLN12	168	RESIDUE	1 ****	GLN
13	ARG13	185	RESIDUE	1 ****	ARG
14	VAL14	209	RESIDUE	1 ****	VAL
15	ILE15	225	RESIDUE	1 ****	ILE
16	ARG16	244	RESIDUE	1 ****	ARG
