@<TRIPOS>MOLECULE
15-3
255 256 16              
SMALL
USER_CHARGES
@<TRIPOS>ATOM
1	   N	2349.582	718.943	-2444.316	N.3	1	GLU1	-0.516	
2	  CA	2350.141	720.292	-2444.316	C.3	1	GLU1	0.040	
3	   C	2351.650	720.252	-2444.316	C.2	1	GLU1	0.537	
4	   O	2352.325	720.951	-2445.085	O.2	1	GLU1	-0.582	
5	  CB	2349.617	721.077	-2443.079	C.3	1	GLU1	0.056	
6	  CG	2350.093	722.562	-2442.968	C.3	1	GLU1	0.014	
7	  CD	2349.668	723.366	-2441.753	C.2	1	GLU1	0.805	
8	 OE1	2348.940	722.864	-2440.875	O.co2	1	GLU1	-0.819	
9	 OE2	2350.099	724.536	-2441.681	O.co2	1	GLU1	-0.819	
10	   H	2350.208	718.064	-2444.316	 H	1	GLU1	0.294	
11	  HA	2349.814	720.810	-2445.236	 H	1	GLU1	0.111	
12	 2HB	2349.906	720.546	-2442.149	 H	1	GLU1	-0.017	
13	 3HB	2348.510	721.067	-2443.066	 H	1	GLU1	-0.017	
14	 2HG	2349.782	723.147	-2443.849	 H	1	GLU1	-0.043	
15	 3HG	2351.193	722.629	-2442.939	 H	1	GLU1	-0.043	
16	   N	2352.254	719.466	-2443.491	N.am	2	ASN2	-0.416	
17	  CA	2353.713	719.427	-2443.491	C.3	2	ASN2	0.014	
18	   C	2354.245	719.072	-2444.859	C.2	2	ASN2	0.597	
19	   O	2355.160	719.702	-2445.387	O.2	2	ASN2	-0.568	
20	  CB	2354.205	718.404	-2442.426	C.3	2	ASN2	-0.204	
21	  CG	2353.742	718.628	-2440.983	C.2	2	ASN2	0.713	
22	 ND2	2354.336	719.543	-2440.265	N.pl3	2	ASN2	-0.919	
23	 OD1	2352.821	717.995	-2440.489	O.2	2	ASN2	-0.593	
24	   H	2351.726	718.887	-2442.854	 H	2	ASN2	0.272	
25	  HA	2354.091	720.437	-2443.245	 H	2	ASN2	0.105	
26	 2HB	2355.309	718.345	-2442.429	 H	2	ASN2	0.080	
27	 3HB	2353.876	717.386	-2442.712	 H	2	ASN2	0.080	
28	1HD2	2353.855	719.716	-2439.378	 H	2	ASN2	0.420	
29	2HD2	2355.038	720.114	-2440.734	 H	2	ASN2	0.420	
30	   N	2353.723	718.077	-2445.494	N.am	3	PRO3	-0.255	
31	  CA	2354.176	717.667	-2446.815	C.3	3	PRO3	-0.027	
32	   C	2353.778	718.691	-2447.892	C.2	3	PRO3	0.590	
33	   O	2354.601	719.074	-2448.723	O.2	3	PRO3	-0.575	
34	  CB	2353.471	716.313	-2446.985	C.3	3	PRO3	-0.007	
35	  CG	2352.188	716.465	-2446.155	C.3	3	PRO3	0.019	
36	  CD	2352.645	717.284	-2444.945	C.3	3	PRO3	0.019	
37	  HA	2355.261	717.547	-2446.828	 H	3	PRO3	0.064	
38	 2HB	2354.094	715.532	-2446.544	 H	3	PRO3	0.025	
39	 3HB	2353.273	716.064	-2448.030	 H	3	PRO3	0.025	
40	 2HG	2351.760	715.503	-2445.864	 H	3	PRO3	0.021	
41	 3HG	2351.450	717.036	-2446.722	 H	3	PRO3	0.021	
42	 2HD	2353.034	716.634	-2444.157	 H	3	PRO3	0.039	
43	 3HD	2351.848	717.920	-2444.552	 H	3	PRO3	0.039	
44	   N	2352.573	719.151	-2447.925	N.am	4	GLU4	-0.516	
45	  CA	2352.214	720.122	-2448.955	C.3	4	GLU4	0.040	
46	   C	2353.113	721.333	-2448.893	C.2	4	GLU4	0.537	
47	   O	2353.640	721.812	-2449.907	O.2	4	GLU4	-0.582	
48	  CB	2350.725	720.541	-2448.785	C.3	4	GLU4	0.056	
49	  CG	2350.178	721.545	-2449.851	C.3	4	GLU4	0.014	
50	  CD	2348.751	722.042	-2449.708	C.2	4	GLU4	0.805	
51	 OE1	2348.025	721.644	-2448.777	O.co2	4	GLU4	-0.819	
52	 OE2	2348.363	722.871	-2450.556	O.co2	4	GLU4	-0.819	
53	   H	2351.888	718.845	-2447.248	 H	4	GLU4	0.294	
54	  HA	2352.345	719.652	-2449.946	 H	4	GLU4	0.111	
55	 2HB	2350.573	720.981	-2447.778	 H	4	GLU4	-0.017	
56	 3HB	2350.077	719.644	-2448.791	 H	4	GLU4	-0.017	
57	 2HG	2350.260	721.130	-2450.869	 H	4	GLU4	-0.043	
58	 3HG	2350.766	722.477	-2449.862	 H	4	GLU4	-0.043	
59	   N	2353.340	721.886	-2447.750	N.am	5	SER5	-0.416	
60	  CA	2354.210	723.057	-2447.691	C.3	5	SER5	-0.025	
61	   C	2355.569	722.751	-2448.276	C.2	5	SER5	0.597	
62	   O	2356.117	723.504	-2449.081	O.2	5	SER5	-0.568	
63	  CB	2354.321	723.589	-2446.240	C.3	5	SER5	0.212	
64	  OG	2355.052	722.709	-2445.379	O.3	5	SER5	-0.655	
65	   H	2352.923	721.514	-2446.908	 H	5	SER5	0.272	
66	  HA	2353.761	723.847	-2448.320	 H	5	SER5	0.084	
67	 2HB	2353.321	723.783	-2445.807	 H	5	SER5	0.035	
68	 3HB	2354.827	724.574	-2446.242	 H	5	SER5	0.035	
69	  HG	2354.563	721.884	-2445.329	 H	5	SER5	0.428	
70	   N	2356.173	721.667	-2447.922	N.am	6	ILE6	-0.416	
71	  CA	2357.486	721.372	-2448.488	C.3	6	ILE6	-0.060	
72	   C	2357.429	721.334	-2449.996	C.2	6	ILE6	0.597	
73	   O	2358.264	721.922	-2450.699	O.2	6	ILE6	-0.568	
74	  CB	2358.085	720.036	-2447.887	C.3	6	ILE6	0.130	
75	 CG1	2358.104	719.973	-2446.327	C.3	6	ILE6	-0.043	
76	 CG2	2359.527	719.733	-2448.403	C.3	6	ILE6	-0.320	
77	 CD1	2358.374	718.584	-2445.711	C.3	6	ILE6	-0.066	
78	   H	2355.744	721.033	-2447.263	 H	6	ILE6	0.272	
79	  HA	2358.161	722.206	-2448.220	 H	6	ILE6	0.087	
80	  HB	2357.427	719.210	-2448.232	 H	6	ILE6	0.019	
81	2HG1	2357.122	720.293	-2445.931	 H	6	ILE6	0.024	
82	3HG1	2358.820	720.715	-2445.922	 H	6	ILE6	0.024	
83	1HG2	2359.586	719.640	-2449.501	 H	6	ILE6	0.088	
84	2HG2	2360.249	720.515	-2448.100	 H	6	ILE6	0.088	
85	3HG2	2359.916	718.771	-2448.024	 H	6	ILE6	0.088	
86	1HD1	2357.645	717.830	-2446.066	 H	6	ILE6	0.019	
87	2HD1	2359.384	718.205	-2445.947	 H	6	ILE6	0.019	
88	3HD1	2358.297	718.614	-2444.609	 H	6	ILE6	0.019	
89	   N	2356.483	720.671	-2450.569	N.am	7	LEU7	-0.416	
90	  CA	2356.428	720.635	-2452.028	C.3	7	LEU7	-0.052	
91	   C	2356.356	722.030	-2452.601	C.2	7	LEU7	0.597	
92	   O	2357.077	722.392	-2453.543	O.2	7	LEU7	-0.568	
93	  CB	2355.225	719.775	-2452.508	C.3	7	LEU7	-0.110	
94	  CG	2355.152	718.296	-2452.042	C.3	7	LEU7	0.353	
95	 CD1	2353.962	717.590	-2452.707	C.3	7	LEU7	-0.412	
96	 CD2	2356.445	717.516	-2452.333	C.3	7	LEU7	-0.412	
97	   H	2355.791	720.184	-2450.018	 H	7	LEU7	0.272	
98	  HA	2357.370	720.195	-2452.402	 H	7	LEU7	0.092	
99	 2HB	2355.202	719.791	-2453.616	 H	7	LEU7	0.046	
100	 3HB	2354.285	720.278	-2452.204	 H	7	LEU7	0.046	
101	  HG	2354.982	718.288	-2450.944	 H	7	LEU7	-0.036	
102	1HD1	2353.004	718.099	-2452.484	 H	7	LEU7	0.100	
103	2HD1	2354.061	717.550	-2453.808	 H	7	LEU7	0.100	
104	3HD1	2353.854	716.549	-2452.351	 H	7	LEU7	0.100	
105	1HD2	2356.720	717.546	-2453.403	 H	7	LEU7	0.100	
106	2HD2	2357.298	717.927	-2451.761	 H	7	LEU7	0.100	
107	3HD2	2356.363	716.454	-2452.037	 H	7	LEU7	0.100	
108	   N	2355.519	722.871	-2452.095	N.am	8	ASP8	-0.516	
109	  CA	2355.449	724.221	-2452.649	C.3	8	ASP8	0.038	
110	   C	2356.797	724.900	-2452.592	C.2	8	ASP8	0.537	
111	   O	2357.270	725.504	-2453.567	O.2	8	ASP8	-0.582	
112	  CB	2354.372	725.061	-2451.908	C.3	8	ASP8	-0.030	
113	  CG	2354.154	726.481	-2452.449	C.2	8	ASP8	0.799	
114	 OD1	2354.218	726.679	-2453.680	O.co2	8	ASP8	-0.801	
115	 OD2	2353.962	727.408	-2451.634	O.co2	8	ASP8	-0.801	
116	   H	2354.921	722.601	-2451.327	 H	8	ASP8	0.294	
117	  HA	2355.167	724.142	-2453.716	 H	8	ASP8	0.088	
118	 2HB	2354.629	725.144	-2450.836	 H	8	ASP8	-0.012	
119	 3HB	2353.393	724.556	-2451.940	 H	8	ASP8	-0.012	
120	   N	2357.477	724.850	-2451.497	N.am	9	GLU9	-0.516	
121	  CA	2358.780	725.507	-2451.442	C.3	9	GLU9	0.040	
122	   C	2359.697	724.979	-2452.518	C.2	9	GLU9	0.537	
123	   O	2360.361	725.732	-2453.244	O.2	9	GLU9	-0.582	
124	  CB	2359.413	725.300	-2450.037	C.3	9	GLU9	0.056	
125	  CG	2360.796	725.992	-2449.808	C.3	9	GLU9	0.014	
126	  CD	2361.498	725.779	-2448.480	C.2	9	GLU9	0.805	
127	 OE1	2360.977	725.088	-2447.583	O.co2	9	GLU9	-0.819	
128	 OE2	2362.618	726.316	-2448.349	O.co2	9	GLU9	-0.819	
129	   H	2357.113	724.364	-2450.689	 H	9	GLU9	0.294	
130	  HA	2358.638	726.589	-2451.618	 H	9	GLU9	0.111	
131	 2HB	2359.526	724.215	-2449.833	 H	9	GLU9	-0.017	
132	 3HB	2358.717	725.654	-2449.252	 H	9	GLU9	-0.017	
133	 2HG	2360.725	727.082	-2449.948	 H	9	GLU9	-0.043	
134	 3HG	2361.543	725.646	-2450.542	 H	9	GLU9	-0.043	
135	   N	2359.793	723.703	-2452.687	N.am	10	HIS10	-0.416	
136	  CA	2360.680	723.191	-2453.727	C.3	10	HIS10	-0.058	
137	   C	2360.313	723.755	-2455.079	C.2	10	HIS10	0.597	
138	   O	2361.166	724.219	-2455.851	O.2	10	HIS10	-0.568	
139	  CB	2360.516	721.662	-2453.722	C.3	10	HIS10	-0.007	
140	  CG	2361.801	720.951	-2453.414	C.2	10	HIS10	0.187	
141	 CD2	2362.183	720.617	-2452.121	C.2	10	HIS10	-0.221	
142	 ND1	2362.753	720.545	-2454.346	N.2	10	HIS10	-0.543	
143	 CE1	2363.659	719.987	-2453.523	C.2	10	HIS10	0.163	
144	 NE2	2363.397	719.984	-2452.188	N.pl3	10	HIS10	-0.280	
145	   H	2359.262	723.068	-2452.108	 H	10	HIS10	0.272	
146	  HA	2361.700	723.548	-2453.503	 H	10	HIS10	0.136	
147	 2HB	2360.150	721.295	-2454.701	 H	10	HIS10	0.037	
148	 3HB	2359.760	721.326	-2452.981	 H	10	HIS10	0.037	
149	 2HD	2361.597	720.833	-2451.232	 H	10	HIS10	0.186	
150	 1HE	2364.550	719.565	-2453.970	 H	10	HIS10	0.144	
151	 2HE	2363.964	719.607	-2451.415	 H	10	HIS10	0.334	
152	   N	2359.076	723.755	-2455.441	N.am	11	VAL11	-0.416	
153	  CA	2358.720	724.300	-2456.749	C.3	11	VAL11	-0.087	
154	   C	2359.186	725.730	-2456.882	C.2	11	VAL11	0.597	
155	   O	2359.787	726.135	-2457.885	O.2	11	VAL11	-0.568	
156	  CB	2357.159	724.194	-2456.968	C.3	11	VAL11	0.299	
157	 CG1	2356.591	724.898	-2458.230	C.3	11	VAL11	-0.319	
158	 CG2	2356.634	722.740	-2457.040	C.3	11	VAL11	-0.319	
159	   H	2358.363	723.383	-2454.831	 H	11	VAL11	0.272	
160	  HA	2359.240	723.717	-2457.531	 H	11	VAL11	0.097	
161	  HB	2356.672	724.675	-2456.093	 H	11	VAL11	-0.030	
162	1HG1	2357.029	724.505	-2459.167	 H	11	VAL11	0.079	
163	2HG1	2355.492	724.791	-2458.312	 H	11	VAL11	0.079	
164	3HG1	2356.770	725.990	-2458.222	 H	11	VAL11	0.079	
165	1HG2	2356.924	722.153	-2456.149	 H	11	VAL11	0.079	
166	2HG2	2355.528	722.704	-2457.082	 H	11	VAL11	0.079	
167	3HG2	2357.015	722.199	-2457.926	 H	11	VAL11	0.079	
168	   N	2358.949	726.557	-2455.920	N.am	12	GLN12	-0.416	
169	  CA	2359.399	727.939	-2456.048	C.3	12	GLN12	-0.003	
170	   C	2360.888	728.006	-2456.286	C.2	12	GLN12	0.597	
171	   O	2361.376	728.713	-2457.165	O.2	12	GLN12	-0.568	
172	  CB	2359.008	728.708	-2454.765	C.3	12	GLN12	-0.004	
173	  CG	2359.370	730.229	-2454.735	C.3	12	GLN12	-0.064	
174	  CD	2359.068	731.044	-2453.471	C.2	12	GLN12	0.695	
175	 NE2	2358.501	730.468	-2452.441	N.pl3	12	GLN12	-0.941	
176	 OE1	2359.371	732.224	-2453.394	O.2	12	GLN12	-0.609	
177	   H	2358.461	726.251	-2455.090	 H	12	GLN12	0.272	
178	  HA	2358.899	728.395	-2456.923	 H	12	GLN12	0.085	
179	 2HB	2359.484	728.208	-2453.896	 H	12	GLN12	0.017	
180	 3HB	2357.918	728.601	-2454.602	 H	12	GLN12	0.017	
181	 2HG	2358.892	730.750	-2455.586	 H	12	GLN12	0.035	
182	 3HG	2360.453	730.371	-2454.901	 H	12	GLN12	0.035	
183	1HE2	2358.395	731.063	-2451.618	 H	12	GLN12	0.425	
184	2HE2	2358.337	729.465	-2452.544	 H	12	GLN12	0.425	
185	   N	2361.673	727.299	-2455.545	N.am	13	ARG13	-0.348	
186	  CA	2363.113	727.364	-2455.776	C.3	13	ARG13	-0.264	
187	   C	2363.449	726.992	-2457.201	C.2	13	ARG13	0.734	
188	   O	2364.218	727.663	-2457.885	O.2	13	ARG13	-0.589	
189	  CB	2363.826	726.426	-2454.761	C.3	13	ARG13	-0.001	
190	  CG	2365.372	726.579	-2454.681	C.3	13	ARG13	0.039	
191	  CD	2365.999	725.591	-2453.683	C.3	13	ARG13	0.049	
192	  NE	2367.476	725.798	-2453.633	N.pl3	13	ARG13	-0.530	
193	  CZ	2368.324	725.107	-2452.877	C.cat	13	ARG13	0.808	
194	 NH1	2367.959	724.143	-2452.079	N.pl3	13	ARG13	-0.863	
195	 NH2	2369.583	725.406	-2452.935	N.pl3	13	ARG13	-0.863	
196	   H	2361.297	726.710	-2454.816	 H	13	ARG13	0.275	
197	  HA	2363.438	728.410	-2455.618	 H	13	ARG13	0.156	
198	 2HB	2363.560	725.375	-2455.000	 H	13	ARG13	0.033	
199	 3HB	2363.402	726.593	-2453.751	 H	13	ARG13	0.033	
200	 2HG	2365.620	727.624	-2454.403	 H	13	ARG13	0.029	
201	 3HG	2365.822	726.422	-2455.683	 H	13	ARG13	0.029	
202	 2HD	2365.754	724.551	-2453.991	 H	13	ARG13	0.069	
203	 3HD	2365.543	725.738	-2452.680	 H	13	ARG13	0.069	
204	  HE	2367.927	726.520	-2454.204	 H	13	ARG13	0.346	
205	1HH1	2366.953	723.957	-2452.082	 H	13	ARG13	0.448	
206	2HH1	2368.672	723.660	-2451.530	 H	13	ARG13	0.448	
207	1HH2	2369.851	726.163	-2453.567	 H	13	ARG13	0.448	
208	2HH2	2370.219	724.864	-2452.346	 H	13	ARG13	0.448	
209	   N	2362.912	725.937	-2457.714	N.am	14	VAL14	-0.416	
210	  CA	2363.237	725.577	-2459.092	C.3	14	VAL14	-0.087	
211	   C	2362.907	726.707	-2460.038	C.2	14	VAL14	0.597	
212	   O	2363.700	727.087	-2460.908	O.2	14	VAL14	-0.568	
213	  CB	2362.464	724.260	-2459.498	C.3	14	VAL14	0.299	
214	 CG1	2362.552	723.841	-2460.991	C.3	14	VAL14	-0.319	
215	 CG2	2362.896	723.008	-2458.697	C.3	14	VAL14	-0.319	
216	   H	2362.277	725.369	-2457.172	 H	14	VAL14	0.272	
217	  HA	2364.325	725.399	-2459.167	 H	14	VAL14	0.097	
218	  HB	2361.388	724.431	-2459.281	 H	14	VAL14	-0.030	
219	1HG1	2363.594	723.663	-2461.320	 H	14	VAL14	0.079	
220	2HG1	2361.979	722.917	-2461.203	 H	14	VAL14	0.079	
221	3HG1	2362.124	724.603	-2461.669	 H	14	VAL14	0.079	
222	1HG2	2362.809	723.167	-2457.606	 H	14	VAL14	0.079	
223	2HG2	2362.259	722.132	-2458.928	 H	14	VAL14	0.079	
224	3HG2	2363.943	722.717	-2458.903	 H	14	VAL14	0.079	
225	   N	2361.762	727.293	-2459.936	N.am	15	GLY15	-0.416	
226	  CA	2361.443	728.385	-2460.850	C.3	15	GLY15	-0.025	
227	   C	2362.474	729.484	-2460.762	C.2	15	GLY15	0.597	
228	   O	2362.976	729.992	-2461.768	O.2	15	GLY15	-0.568	
229	   H	2361.097	727.000	-2459.234	 H	15	GLY15	0.272	
230	 3HA	2360.501	728.770	-2460.588	 H	15	GLY15	0.070	
231	  HA	2361.446	727.998	-2461.886	 H	15	GLY15	0.070	
232	   N	2362.842	729.904	-2459.599	N.am	16	ARG16	-0.348	
233	  CA	2363.840	730.967	-2459.514	C.3	16	ARG16	-0.264	
234	   C	2365.110	730.573	-2460.229	C.2	16	ARG16	0.734	
235	   O	2365.224	729.497	-2460.812	O.2	16	ARG16	-0.589	
236	  CB	2364.107	731.284	-2458.016	C.3	16	ARG16	-0.001	
237	  CG	2364.934	732.572	-2457.742	C.3	16	ARG16	0.039	
238	  CD	2365.182	732.791	-2456.240	C.3	16	ARG16	0.049	
239	  NE	2365.959	734.049	-2456.038	N.pl3	16	ARG16	-0.530	
240	  CZ	2366.350	734.531	-2454.862	C.cat	16	ARG16	0.808	
241	 NH1	2366.101	733.946	-2453.724	N.pl3	16	ARG16	-0.863	
242	 NH2	2367.015	735.643	-2454.843	N.pl3	16	ARG16	-0.863	
243	   H	2362.446	729.504	-2458.760	 H	16	ARG16	0.275	
244	  HA	2363.431	731.861	-2460.024	 H	16	ARG16	0.156	
245	 2HB	2364.603	730.408	-2457.549	 H	16	ARG16	0.033	
246	 3HB	2363.138	731.366	-2457.483	 H	16	ARG16	0.033	
247	 2HG	2364.404	733.444	-2458.179	 H	16	ARG16	0.029	
248	 3HG	2365.907	732.519	-2458.270	 H	16	ARG16	0.029	
249	 2HD	2365.730	731.916	-2455.827	 H	16	ARG16	0.069	
250	 3HD	2364.209	732.834	-2455.706	 H	16	ARG16	0.069	
251	  HE	2366.239	734.630	-2456.835	 H	16	ARG16	0.346	
252	1HH1	2365.574	733.074	-2453.809	 H	16	ARG16	0.448	
253	2HH1	2366.435	734.381	-2452.862	 H	16	ARG16	0.448	
254	1HH2	2367.201	736.086	-2455.744	 H	16	ARG16	0.448	
255	2HH2	2367.304	735.997	-2453.930	 H	16	ARG16	0.448	
@<TRIPOS>BOND
1 1 2 1
2 1 10 1
3 2 3 1
4 2 5 1
5 2 11 1
6 3 4 2
7 3 16 1
8 5 6 1
9 6 7 1
10 7 8 2
11 7 9 1
12 5 12 1
13 5 13 1
14 6 14 1
15 6 15 1
16 16 17 1
17 16 24 1
18 17 18 1
19 17 20 1
20 17 25 1
21 18 19 2
22 18 30 1
23 20 21 1
24 21 22 1
25 21 23 2
26 20 26 1
27 20 27 1
28 22 28 1
29 22 29 1
30 30 31 1
31 30 36 1
32 31 32 1
33 31 34 1
34 31 37 1
35 32 33 2
36 32 44 1
37 34 35 1
38 35 36 1
39 34 38 1
40 34 39 1
41 35 40 1
42 35 41 1
43 36 42 1
44 36 43 1
45 44 45 1
46 44 53 1
47 45 46 1
48 45 48 1
49 45 54 1
50 46 47 2
51 46 59 1
52 48 49 1
53 49 50 1
54 50 51 2
55 50 52 1
56 48 55 1
57 48 56 1
58 49 57 1
59 49 58 1
60 59 60 1
61 59 65 1
62 60 61 1
63 60 63 1
64 60 66 1
65 61 62 2
66 61 70 1
67 63 64 1
68 63 67 1
69 63 68 1
70 64 69 1
71 70 71 1
72 70 78 1
73 71 72 1
74 71 74 1
75 71 79 1
76 72 73 2
77 72 89 1
78 74 75 1
79 74 76 1
80 75 77 1
81 74 80 1
82 75 81 1
83 75 82 1
84 76 83 1
85 76 84 1
86 76 85 1
87 77 86 1
88 77 87 1
89 77 88 1
90 89 90 1
91 89 97 1
92 90 91 1
93 90 93 1
94 90 98 1
95 91 92 2
96 91 108 1
97 93 94 1
98 94 95 1
99 94 96 1
100 93 99 1
101 93 100 1
102 94 101 1
103 95 102 1
104 95 103 1
105 95 104 1
106 96 105 1
107 96 106 1
108 96 107 1
109 108 109 1
110 108 116 1
111 109 110 1
112 109 112 1
113 109 117 1
114 110 111 2
115 110 120 1
116 112 113 1
117 113 114 2
118 113 115 1
119 112 118 1
120 112 119 1
121 120 121 1
122 120 129 1
123 121 122 1
124 121 124 1
125 121 130 1
126 122 123 2
127 122 135 1
128 124 125 1
129 125 126 1
130 126 127 2
131 126 128 1
132 124 131 1
133 124 132 1
134 125 133 1
135 125 134 1
136 135 136 1
137 135 145 1
138 136 137 1
139 136 139 1
140 136 146 1
141 137 138 2
142 137 152 1
143 139 140 1
144 140 141 2
145 141 144 1
146 140 142 1
147 142 143 2
148 143 144 1
149 139 147 1
150 139 148 1
151 141 149 1
152 143 150 1
153 144 151 1
154 152 153 1
155 152 159 1
156 153 154 1
157 153 156 1
158 153 160 1
159 154 155 2
160 154 168 1
161 156 157 1
162 156 158 1
163 156 161 1
164 157 162 1
165 157 163 1
166 157 164 1
167 158 165 1
168 158 166 1
169 158 167 1
170 168 169 1
171 168 177 1
172 169 170 1
173 169 172 1
174 169 178 1
175 170 171 2
176 170 185 1
177 172 173 1
178 173 174 1
179 174 175 1
180 174 176 2
181 172 179 1
182 172 180 1
183 173 181 1
184 173 182 1
185 175 183 1
186 175 184 1
187 185 186 1
188 185 196 1
189 186 187 1
190 186 189 1
191 186 197 1
192 187 188 2
193 187 209 1
194 189 190 1
195 190 191 1
196 191 192 1
197 192 193 1
198 193 194 2
199 193 195 1
200 189 198 1
201 189 199 1
202 190 200 1
203 190 201 1
204 191 202 1
205 191 203 1
206 192 204 1
207 194 205 1
208 194 206 1
209 195 207 1
210 195 208 1
211 209 210 1
212 209 216 1
213 210 211 1
214 210 213 1
215 210 217 1
216 211 212 2
217 211 225 1
218 213 214 1
219 213 215 1
220 213 218 1
221 214 219 1
222 214 220 1
223 214 221 1
224 215 222 1
225 215 223 1
226 215 224 1
227 225 226 1
228 225 229 1
229 226 227 1
230 226 230 1
231 226 231 1
232 227 228 2
233 227 232 1
234 232 233 1
235 232 243 1
236 233 234 1
237 233 236 1
238 233 244 1
239 234 235 2
240 236 237 1
241 237 238 1
242 238 239 1
243 239 240 1
244 240 241 2
245 240 242 1
246 236 245 1
247 236 246 1
248 237 247 1
249 237 248 1
250 238 249 1
251 238 250 1
252 239 251 1
253 241 252 1
254 241 253 1
255 242 254 1
256 242 255 1
@<TRIPOS>SUBSTRUCTURE
1	GLU1	1	RESIDUE	1 ****	GLU
2	ASN2	16	RESIDUE	1 ****	ASN
3	PRO3	30	RESIDUE	1 ****	PRO
4	GLU4	44	RESIDUE	1 ****	GLU
5	SER5	59	RESIDUE	1 ****	SER
6	ILE6	70	RESIDUE	1 ****	ILE
7	LEU7	89	RESIDUE	1 ****	LEU
8	ASP8	108	RESIDUE	1 ****	ASP
9	GLU9	120	RESIDUE	1 ****	GLU
10	HIS10	135	RESIDUE	1 ****	HIS
11	VAL11	152	RESIDUE	1 ****	VAL
12	GLN12	168	RESIDUE	1 ****	GLN
13	ARG13	185	RESIDUE	1 ****	ARG
14	VAL14	209	RESIDUE	1 ****	VAL
15	GLY15	225	RESIDUE	1 ****	GLY
16	ARG16	232	RESIDUE	1 ****	ARG
