REMARK WARNING: 32 MAX_TORS EXCEEDED!!!
REMARK  68 active torsions:
REMARK  status: ('A' for Active; 'I' for Inactive)
REMARK    1  A    between atoms: N_1  and  CA_2 
REMARK    2  A    between atoms: CA_2  and  C_3 
REMARK    3  A    between atoms: CA_2  and  CB_5 
REMARK       I    between atoms: C_3  and  N_11 
REMARK    4  A    between atoms: CB_5  and  CG_6 
REMARK    5  A    between atoms: CG_6  and  CD_7 
REMARK    6  A    between atoms: N_11  and  CA_12 
REMARK    7  A    between atoms: CA_12  and  C_13 
REMARK    8  A    between atoms: CA_12  and  CB_15 
REMARK       I    between atoms: C_13  and  N_22 
REMARK    9  A    between atoms: CB_15  and  CG_16 
REMARK       I    between atoms: CG_16  and  ND2_17 
REMARK   10  A    between atoms: CA_23  and  C_24 
REMARK       I    between atoms: C_24  and  N_29 
REMARK   11  A    between atoms: N_29  and  CA_30 
REMARK   12  A    between atoms: CA_30  and  C_31 
REMARK   13  A    between atoms: CA_30  and  CB_33 
REMARK       I    between atoms: C_31  and  N_39 
REMARK   14  A    between atoms: CB_33  and  CG_34 
REMARK   15  A    between atoms: CG_34  and  CD_35 
REMARK   16  A    between atoms: N_39  and  CA_40 
REMARK   17  A    between atoms: CA_40  and  C_41 
REMARK   18  A    between atoms: CA_40  and  CB_43 
REMARK       I    between atoms: C_41  and  N_47 
REMARK   19  A    between atoms: CB_43  and  OG_44 
REMARK   20  A    between atoms: N_47  and  CA_48 
REMARK   21  A    between atoms: CA_48  and  C_49 
REMARK   22  A    between atoms: CA_48  and  CB_51 
REMARK       I    between atoms: C_49  and  N_56 
REMARK   23  A    between atoms: CB_51  and  CG1_52 
REMARK   24  A    between atoms: N_56  and  CA_57 
REMARK   25  A    between atoms: CA_57  and  C_58 
REMARK   26  A    between atoms: CA_57  and  CB_60 
REMARK       I    between atoms: C_58  and  N_64 
REMARK   27  A    between atoms: CB_60  and  SG_61 
REMARK   28  A    between atoms: N_64  and  CA_65 
REMARK   29  A    between atoms: CA_65  and  C_66 
REMARK   30  A    between atoms: CA_65  and  CB_68 
REMARK       I    between atoms: C_66  and  N_73 
REMARK   31  A    between atoms: CB_68  and  CG_69 
REMARK   32  A    between atoms: N_73  and  CA_74 
REMARK   33  A    between atoms: CA_74  and  C_75 
REMARK   34  A    between atoms: CA_74  and  CB_77 
REMARK       I    between atoms: C_75  and  N_83 
REMARK   35  A    between atoms: CB_77  and  CG_78 
REMARK   36  A    between atoms: CG_78  and  CD_79 
REMARK   37  A    between atoms: N_83  and  CA_84 
REMARK   38  A    between atoms: CA_84  and  C_85 
REMARK   39  A    between atoms: CA_84  and  CB_87 
REMARK       I    between atoms: C_85  and  N_95 
REMARK   40  A    between atoms: CB_87  and  CG_88 
REMARK   41  A    between atoms: N_95  and  CA_96 
REMARK   42  A    between atoms: CA_96  and  C_97 
REMARK   43  A    between atoms: CA_96  and  CB_99 
REMARK       I    between atoms: C_97  and  N_103 
REMARK   44  A    between atoms: N_103  and  CA_104 
REMARK   45  A    between atoms: CA_104  and  C_105 
REMARK   46  A    between atoms: CA_104  and  CB_107 
REMARK       I    between atoms: C_105  and  N_115 
REMARK   47  A    between atoms: CB_107  and  CG_108 
REMARK   48  A    between atoms: CG_108  and  CD_109 
REMARK       I    between atoms: CD_109  and  NE2_110 
REMARK   49  A    between atoms: N_115  and  CA_116 
REMARK   50  A    between atoms: CA_116  and  C_117 
REMARK   51  A    between atoms: CA_116  and  CB_119 
REMARK       I    between atoms: C_117  and  N_132 
REMARK   52  A    between atoms: CB_119  and  CG_120 
REMARK   53  A    between atoms: CG_120  and  CD_121 
REMARK   54  A    between atoms: CD_121  and  NE_122 
REMARK       I    between atoms: NE_122  and  CZ_123 
REMARK       I    between atoms: CZ_123  and  NH1_124 
REMARK       I    between atoms: CZ_123  and  NH2_125 
REMARK   55  A    between atoms: N_132  and  CA_133 
REMARK   56  A    between atoms: CA_133  and  C_134 
REMARK   57  A    between atoms: CA_133  and  CB_136 
REMARK       I    between atoms: C_134  and  N_140 
REMARK   58  A    between atoms: N_140  and  CA_141 
REMARK   59  A    between atoms: CA_141  and  C_142 
REMARK   60  A    between atoms: CA_141  and  CB_144 
REMARK       I    between atoms: C_142  and  N_149 
REMARK   61  A    between atoms: CB_144  and  CG_145 
REMARK   62  A    between atoms: CG_145  and  SD_146 
REMARK   63  A    between atoms: N_149  and  CA_150 
REMARK   64  A    between atoms: CA_150  and  C_151 
REMARK   65  A    between atoms: CA_150  and  CB_153 
REMARK   66  A    between atoms: CB_153  and  CG_154 
REMARK   67  A    between atoms: CG_154  and  CD_155 
REMARK   68  A    between atoms: CD_155  and  NE_156 
REMARK       I    between atoms: NE_156  and  CZ_157 
REMARK       I    between atoms: CZ_157  and  NH1_158 
ROOT
ATOM      1  C   GLU d   9    1125.695 321.357-1110.849  0.00  0.00     0.241 C 
ATOM      2  O   GLU d   9    1126.358 322.111-1111.575  0.00  0.00    -0.271 OA
ATOM      3  N   HIS d  10    1125.792 320.082-1111.017  0.00  0.00    -0.346 N 
ATOM      4  H   HIS d  10    1125.261 319.447-1110.438  0.00  0.00     0.163 HD
ENDROOT
BRANCH   3   5
ATOM      5  CA  HIS d  10    1126.679 319.569-1112.058  0.00  0.00     0.182 C 
BRANCH   5   6
ATOM      6  C   HIS d  10    1126.312 320.133-1113.409  0.00  0.00     0.241 C 
ATOM      7  O   HIS d  10    1127.164 320.597-1114.182  0.00  0.00    -0.271 OA
ATOM      8  N   VAL d  11    1125.073 320.131-1113.771  0.00  0.00    -0.346 N 
ATOM      9  H   VAL d  11    1124.361 319.758-1113.160  0.00  0.00     0.163 HD
BRANCH   8  10
ATOM     10  CA  VAL d  11    1124.718 320.675-1115.079  0.00  0.00     0.180 C 
BRANCH  10  11
ATOM     11  C   VAL d  11    1125.182 322.106-1115.212  0.00  0.00     0.241 C 
ATOM     12  O   VAL d  11    1125.782 322.511-1116.216  0.00  0.00    -0.271 OA
ATOM     13  N   GLN d  12    1124.944 322.933-1114.251  0.00  0.00    -0.346 N 
ATOM     14  H   GLN d  12    1124.456 322.627-1113.421  0.00  0.00     0.163 HD
BRANCH  13  15
ATOM     15  CA  GLN d  12    1125.392 324.316-1114.379  0.00  0.00     0.177 C 
BRANCH  15  16
ATOM     16  C   GLN d  12    1126.882 324.384-1114.618  0.00  0.00     0.241 C 
ATOM     17  O   GLN d  12    1127.368 325.091-1115.497  0.00  0.00    -0.271 OA
ATOM     18  N   ARG d  13    1127.667 323.678-1113.877  0.00  0.00    -0.346 N 
ATOM     19  H   ARG d  13    1127.292 323.089-1113.147  0.00  0.00     0.163 HD
BRANCH  18  20
ATOM     20  CA  ARG d  13    1129.108 323.744-1114.108  0.00  0.00     0.176 C 
BRANCH  20  21
ATOM     21  C   ARG d  13    1129.443 323.372-1115.533  0.00  0.00     0.241 C 
ATOM     22  O   ARG d  13    1130.211 324.043-1116.218  0.00  0.00    -0.271 OA
ATOM     23  N   VAL d  14    1128.907 322.316-1116.046  0.00  0.00    -0.346 N 
ATOM     24  H   VAL d  14    1128.273 321.748-1115.503  0.00  0.00     0.163 HD
BRANCH  23  25
ATOM     25  CA  VAL d  14    1129.232 321.956-1117.423  0.00  0.00     0.180 C 
BRANCH  25  26
ATOM     26  C   VAL d  14    1128.901 323.085-1118.370  0.00  0.00     0.241 C 
ATOM     27  O   VAL d  14    1129.693 323.466-1119.240  0.00  0.00    -0.271 OA
ATOM     28  N   MET d  15    1127.755 323.670-1118.268  0.00  0.00    -0.346 N 
ATOM     29  H   MET d  15    1127.091 323.378-1117.566  0.00  0.00     0.163 HD
BRANCH  28  30
ATOM     30  CA  MET d  15    1127.434 324.762-1119.183  0.00  0.00     0.177 C 
BRANCH  30  31
ATOM     31  C   MET d  15    1128.463 325.863-1119.096  0.00  0.00     0.241 C 
ATOM     32  O   MET d  15    1128.965 326.373-1120.110  0.00  0.00    -0.271 OA
ATOM     33  N   ARG d  16    1128.832 326.285-1117.935  0.00  0.00    -0.347 N 
ATOM     34  H   ARG d  16    1128.438 325.885-1117.095  0.00  0.00     0.163 HD
BRANCH  33  35
ATOM     35  CA  ARG d  16    1129.828 327.350-1117.852  0.00  0.00     0.162 C 
BRANCH  35  36
ATOM     36  C   ARG d  16    1131.099 326.957-1118.569  0.00  0.00     0.219 C 
ATOM     37  O   ARG d  16    1131.213 325.880-1119.150  0.00  0.00    -0.287 OA
ENDBRANCH  35  36
BRANCH  35  38
ATOM     38  CB  ARG d  16    1130.097 327.669-1116.354  0.00  0.00     0.035 C 
BRANCH  38  39
ATOM     39  CG  ARG d  16    1130.922 328.959-1116.083  0.00  0.00     0.023 C 
BRANCH  39  40
ATOM     40  CD  ARG d  16    1131.172 329.180-1114.582  0.00  0.00     0.138 C 
BRANCH  40  41
ATOM     41  NE  ARG d  16    1131.947 330.440-1114.383  0.00  0.00    -0.227 N 
ATOM     42  CZ  ARG d  16    1132.339 330.923-1113.208  0.00  0.00     0.665 C 
ATOM     43  NH1 ARG d  16    1132.092 330.340-1112.069  0.00  0.00    -0.235 N 
ATOM     44  NH2 ARG d  16    1133.002 332.037-1113.191  0.00  0.00    -0.235 N 
ATOM     45 11HH ARG d  16    1131.567 329.466-1112.152  0.00  0.00     0.174 HD
ATOM     46 12HH ARG d  16    1132.427 330.776-1111.208  0.00  0.00     0.174 HD
ATOM     47 21HH ARG d  16    1133.187 332.479-1114.093  0.00  0.00     0.174 HD
ATOM     48 22HH ARG d  16    1133.292 332.393-1112.279  0.00  0.00     0.174 HD
ATOM     49  HE  ARG d  16    1132.225 331.020-1115.181  0.00  0.00     0.177 HD
ENDBRANCH  40  41
ENDBRANCH  39  40
ENDBRANCH  38  39
ENDBRANCH  35  38
ENDBRANCH  33  35
ENDBRANCH  30  31
BRANCH  30  50
ATOM     50  CB  MET d  15    1126.012 325.307-1118.874  0.00  0.00     0.045 C 
BRANCH  50  51
ATOM     51  CG  MET d  15    1124.851 324.308-1119.064  0.00  0.00     0.076 C 
BRANCH  51  52
ATOM     52  SD  MET d  15    1123.276 325.173-1118.950  0.00  0.00    -0.173 SA
ATOM     53  CE  MET d  15    1122.196 323.742-1118.812  0.00  0.00     0.089 C 
ENDBRANCH  51  52
ENDBRANCH  50  51
ENDBRANCH  30  50
ENDBRANCH  28  30
ENDBRANCH  25  26
BRANCH  25  54
ATOM     54  CB  VAL d  14    1128.460 320.638-1117.829  0.00  0.00     0.009 C 
ATOM     55  CG1 VAL d  14    1128.549 320.219-1119.322  0.00  0.00     0.012 C 
ATOM     56  CG2 VAL d  14    1128.893 319.387-1117.028  0.00  0.00     0.012 C 
ENDBRANCH  25  54
ENDBRANCH  23  25
ENDBRANCH  20  21
BRANCH  20  57
ATOM     57  CB  ARG d  13    1129.822 322.807-1113.094  0.00  0.00     0.036 C 
BRANCH  57  58
ATOM     58  CG  ARG d  13    1131.367 322.961-1113.014  0.00  0.00     0.023 C 
BRANCH  58  59
ATOM     59  CD  ARG d  13    1131.995 321.975-1112.015  0.00  0.00     0.138 C 
BRANCH  59  60
ATOM     60  NE  ARG d  13    1133.472 322.183-1111.966  0.00  0.00    -0.227 N 
ATOM     61  CZ  ARG d  13    1134.321 321.493-1111.210  0.00  0.00     0.665 C 
ATOM     62  NH1 ARG d  13    1133.957 320.529-1110.412  0.00  0.00    -0.235 N 
ATOM     63  NH2 ARG d  13    1135.580 321.792-1111.268  0.00  0.00    -0.235 N 
ATOM     64 11HH ARG d  13    1132.952 320.342-1110.414  0.00  0.00     0.174 HD
ATOM     65 12HH ARG d  13    1134.671 320.047-1109.863  0.00  0.00     0.174 HD
ATOM     66 21HH ARG d  13    1135.847 322.550-1111.900  0.00  0.00     0.174 HD
ATOM     67 22HH ARG d  13    1136.216 321.252-1110.679  0.00  0.00     0.174 HD
ATOM     68  HE  ARG d  13    1133.923 322.905-1112.537  0.00  0.00     0.177 HD
ENDBRANCH  59  60
ENDBRANCH  58  59
ENDBRANCH  57  58
ENDBRANCH  20  57
ENDBRANCH  18  20
ENDBRANCH  15  16
BRANCH  15  69
ATOM     69  CB  GLN d  12    1125.002 325.084-1113.097  0.00  0.00     0.044 C 
BRANCH  69  70
ATOM     70  CG  GLN d  12    1125.361 326.606-1113.067  0.00  0.00     0.105 C 
BRANCH  70  71
ATOM     71  CD  GLN d  12    1125.059 327.420-1111.802  0.00  0.00     0.215 C 
ATOM     72  NE2 GLN d  12    1124.493 326.844-1110.773  0.00  0.00    -0.370 N 
ATOM     73 21HE GLN d  12    1124.386 327.439-1109.950  0.00  0.00     0.159 HD
ATOM     74 22HE GLN d  12    1124.330 325.840-1110.875  0.00  0.00     0.159 HD
ATOM     75  OE1 GLN d  12    1125.360 328.601-1111.726  0.00  0.00    -0.274 OA
ENDBRANCH  70  71
ENDBRANCH  69  70
ENDBRANCH  15  69
ENDBRANCH  13  15
ENDBRANCH  10  11
BRANCH  10  76
ATOM     76  CB  VAL d  11    1123.156 320.568-1115.297  0.00  0.00     0.009 C 
ATOM     77  CG1 VAL d  11    1122.587 321.271-1116.560  0.00  0.00     0.012 C 
ATOM     78  CG2 VAL d  11    1122.632 319.114-1115.369  0.00  0.00     0.012 C 
ENDBRANCH  10  76
ENDBRANCH   8  10
ENDBRANCH   5   6
BRANCH   5  79
ATOM     79  CB  HIS d  10    1126.516 318.040-1112.051  0.00  0.00     0.095 C 
BRANCH  79  80
ATOM     80  CG  HIS d  10    1127.802 317.331-1111.743  0.00  0.00     0.053 A 
ATOM     81  CD2 HIS d  10    1128.184 316.997-1110.450  0.00  0.00     0.116 A 
ATOM     82  NE2 HIS d  10    1129.399 316.366-1110.517  0.00  0.00    -0.359 N 
ATOM     83  CE1 HIS d  10    1129.661 316.368-1111.852  0.00  0.00     0.207 A 
ATOM     84  2HE HIS d  10    1129.966 315.990-1109.744  0.00  0.00     0.166 HD
ATOM     85  ND1 HIS d  10    1128.754 316.925-1112.676  0.00  0.00    -0.247 NA
ENDBRANCH  79  80
ENDBRANCH   5  79
ENDBRANCH   3   5
BRANCH   1  86
ATOM     86  CA  GLU d   9    1124.777 321.885-1109.773  0.00  0.00     0.177 C 
BRANCH  86  87
ATOM     87  N   GLU d   9    1123.475 321.227-1109.827  0.00  0.00    -0.346 N 
ATOM     88  C   ASP d   8    1122.794 321.276-1110.922  0.00  0.00     0.241 C 
ATOM     89  O   ASP d   8    1123.267 321.880-1111.897  0.00  0.00    -0.271 OA
ATOM     90  H   GLU d   9    1123.112 320.742-1109.019  0.00  0.00     0.163 HD
BRANCH  88  91
ATOM     91  CA  ASP d   8    1121.448 320.596-1110.978  0.00  0.00     0.186 C 
BRANCH  91  92
ATOM     92  N   ASP d   8    1121.519 319.247-1110.423  0.00  0.00    -0.345 N 
ATOM     93  C   CYS d   7    1122.356 318.406-1110.929  0.00  0.00     0.241 C 
ATOM     94  O   CYS d   7    1123.076 318.767-1111.871  0.00  0.00    -0.271 OA
ATOM     95  H   ASP d   8    1120.922 318.976-1109.655  0.00  0.00     0.163 HD
BRANCH  93  96
ATOM     96  CA  CYS d   7    1122.429 317.010-1110.355  0.00  0.00     0.185 C 
BRANCH  96  97
ATOM     97  N   CYS d   7    1122.485 317.047-1108.896  0.00  0.00    -0.345 N 
ATOM     98  C   ILE d   6    1123.431 317.710-1108.323  0.00  0.00     0.241 C 
ATOM     99  O   ILE d   6    1124.266 318.298-1109.027  0.00  0.00    -0.271 OA
ATOM    100  H   CYS d   7    1121.793 316.560-1108.345  0.00  0.00     0.163 HD
BRANCH  98 101
ATOM    101  CA  ILE d   6    1123.488 317.748-1106.815  0.00  0.00     0.180 C 
BRANCH 101 102
ATOM    102  N   ILE d   6    1122.175 318.042-1106.249  0.00  0.00    -0.346 N 
ATOM    103  C   SER d   5    1121.570 319.125-1106.603  0.00  0.00     0.243 C 
ATOM    104  O   SER d   5    1122.117 319.879-1107.407  0.00  0.00    -0.271 OA
ATOM    105  H   ILE d   6    1121.747 317.408-1105.590  0.00  0.00     0.163 HD
BRANCH 103 106
ATOM    106  CA  SER d   5    1120.211 319.431-1106.017  0.00  0.00     0.200 C 
BRANCH 106 107
ATOM    107  N   SER d   5    1119.342 318.260-1106.075  0.00  0.00    -0.344 N 
ATOM    108  C   GLU d   4    1119.115 317.707-1107.218  0.00  0.00     0.241 C 
ATOM    109  O   GLU d   4    1119.641 318.186-1108.233  0.00  0.00    -0.271 OA
ATOM    110  H   SER d   5    1118.925 317.888-1105.234  0.00  0.00     0.163 HD
BRANCH 108 111
ATOM    111  CA  GLU d   4    1118.216 316.496-1107.279  0.00  0.00     0.177 C 
BRANCH 111 112
ATOM    112  N   GLU d   4    1118.575 315.525-1106.250  0.00  0.00    -0.346 N 
ATOM    113  C   PRO d   3    1119.780 315.064-1106.218  0.00  0.00     0.241 C 
ATOM    114  O   PRO d   3    1120.603 315.448-1107.049  0.00  0.00    -0.271 OA
ATOM    115  H   GLU d   4    1117.891 315.218-1105.573  0.00  0.00     0.163 HD
BRANCH 113 116
ATOM    116  CA  PRO d   3    1120.178 314.041-1105.141  0.00  0.00     0.179 C 
ATOM    117  N   PRO d   3    1119.727 314.450-1103.819  0.00  0.00    -0.337 N 
ATOM    118  C   ASN d   2    1120.248 315.445-1103.185  0.00  0.00     0.243 C 
ATOM    119  CD  PRO d   3    1118.649 313.657-1103.270  0.00  0.00     0.127 C 
ATOM    120  O   ASN d   2    1121.163 316.076-1103.714  0.00  0.00    -0.271 OA
ATOM    121  CG  PRO d   3    1118.191 312.839-1104.480  0.00  0.00     0.022 C 
ATOM    122  CB  PRO d   3    1119.474 312.686-1105.310  0.00  0.00     0.037 C 
BRANCH 118 123
ATOM    123  CA  ASN d   2    1119.717 315.801-1101.816  0.00  0.00     0.185 C 
BRANCH 123 124
ATOM    124  N   ASN d   2    1118.258 315.840-1101.816  0.00  0.00    -0.346 N 
ATOM    125  C   GLU d   1    1117.653 316.625-1102.642  0.00  0.00     0.242 C 
ATOM    126  O   GLU d   1    1118.329 317.324-1103.410  0.00  0.00    -0.271 OA
ATOM    127  H   ASN d   2    1117.729 315.260-1101.180  0.00  0.00     0.163 HD
BRANCH 125 128
ATOM    128  CA  GLU d   1    1116.144 316.665-1102.642  0.00  0.00     0.191 C 
BRANCH 128 129
ATOM    129  N   GLU d   1    1115.585 315.316-1102.642  0.00  0.00    -0.326 NA
ATOM    130  H   GLU d   1    1116.212 314.437-1102.642  0.00  0.00     0.180 HD
ENDBRANCH 128 129
BRANCH 128 131
ATOM    131  CB  GLU d   1    1115.621 317.450-1101.405  0.00  0.00     0.047 C 
BRANCH 131 132
ATOM    132  CG  GLU d   1    1116.096 318.935-1101.294  0.00  0.00     0.116 C 
BRANCH 132 133
ATOM    133  CD  GLU d   1    1115.672 319.739-1100.078  0.00  0.00     0.172 C 
ATOM    134  OE1 GLU d   1    1114.944 319.237-1099.201  0.00  0.00    -0.648 OA
ATOM    135  OE2 GLU d   1    1116.102 320.909-1100.007  0.00  0.00    -0.648 OA
ENDBRANCH 132 133
ENDBRANCH 131 132
ENDBRANCH 128 131
ENDBRANCH 125 128
ENDBRANCH 123 124
BRANCH 123 136
ATOM    136  CB  ASN d   2    1120.209 314.778-1100.752  0.00  0.00     0.137 C 
BRANCH 136 137
ATOM    137  CG  ASN d   2    1119.746 315.002-1099.309  0.00  0.00     0.217 C 
ATOM    138  ND2 ASN d   2    1120.340 315.917-1098.591  0.00  0.00    -0.370 N 
ATOM    139 21HD ASN d   2    1119.860 316.090-1097.704  0.00  0.00     0.159 HD
ATOM    140 22HD ASN d   2    1121.042 316.488-1099.060  0.00  0.00     0.159 HD
ATOM    141  OD1 ASN d   2    1118.825 314.368-1098.815  0.00  0.00    -0.274 OA
ENDBRANCH 136 137
ENDBRANCH 123 136
ENDBRANCH 118 123
ENDBRANCH 113 116
ENDBRANCH 111 112
BRANCH 111 142
ATOM    142  CB  GLU d   4    1116.727 316.914-1107.109  0.00  0.00     0.045 C 
BRANCH 142 143
ATOM    143  CG  GLU d   4    1116.179 317.918-1108.174  0.00  0.00     0.116 C 
BRANCH 143 144
ATOM    144  CD  GLU d   4    1114.752 318.414-1108.031  0.00  0.00     0.172 C 
ATOM    145  OE1 GLU d   4    1114.026 318.016-1107.100  0.00  0.00    -0.648 OA
ATOM    146  OE2 GLU d   4    1114.362 319.244-1108.879  0.00  0.00    -0.648 OA
ENDBRANCH 143 144
ENDBRANCH 142 143
ENDBRANCH 111 142
ENDBRANCH 108 111
ENDBRANCH 106 107
BRANCH 106 147
ATOM    147  CB  SER d   5    1120.323 319.963-1104.566  0.00  0.00     0.199 C 
BRANCH 147 148
ATOM    148  OG  SER d   5    1121.055 319.084-1103.705  0.00  0.00    -0.398 OA
ATOM    149  HG  SER d   5    1120.566 318.259-1103.655  0.00  0.00     0.209 HD
ENDBRANCH 147 148
ENDBRANCH 106 147
ENDBRANCH 103 106
ENDBRANCH 101 102
BRANCH 101 150
ATOM    150  CB  ILE d   6    1124.088 316.411-1106.215  0.00  0.00     0.013 C 
ATOM    151  CG2 ILE d   6    1125.529 316.110-1106.731  0.00  0.00     0.012 C 
BRANCH 150 152
ATOM    152  CG1 ILE d   6    1124.108 316.349-1104.654  0.00  0.00     0.002 C 
ATOM    153  CD1 ILE d   6    1124.378 314.960-1104.039  0.00  0.00     0.005 C 
ENDBRANCH 150 152
ENDBRANCH 101 150
ENDBRANCH  98 101
ENDBRANCH  96  97
BRANCH  96 154
ATOM    154  CB  CYS d   7    1121.232 316.136-1110.778  0.00  0.00     0.105 C 
BRANCH 154 155
ATOM    155  SG  CYS d   7    1121.212 315.902-1112.570  0.00  0.00    -0.180 SA
ATOM    156  HG  CYS d   7    1120.205 316.732-1112.828  0.00  0.00     0.101 HD
ENDBRANCH 154 155
ENDBRANCH  96 154
ENDBRANCH  93  96
ENDBRANCH  91  92
BRANCH  91 157
ATOM    157  CB  ASP d   8    1120.370 321.435-1110.236  0.00  0.00     0.147 C 
BRANCH 157 158
ATOM    158  CG  ASP d   8    1120.151 322.855-1110.778  0.00  0.00     0.175 C 
ATOM    159  OD1 ASP d   8    1120.214 323.053-1112.009  0.00  0.00    -0.648 OA
ATOM    160  OD2 ASP d   8    1119.958 323.782-1109.963  0.00  0.00    -0.648 OA
ENDBRANCH 157 158
ENDBRANCH  91 157
ENDBRANCH  88  91
ENDBRANCH  86  87
BRANCH  86 161
ATOM    161  CB  GLU d   9    1125.412 321.679-1108.368  0.00  0.00     0.045 C 
BRANCH 161 162
ATOM    162  CG  GLU d   9    1126.794 322.372-1108.140  0.00  0.00     0.116 C 
BRANCH 162 163
ATOM    163  CD  GLU d   9    1127.497 322.161-1106.812  0.00  0.00     0.172 C 
ATOM    164  OE1 GLU d   9    1126.976 321.470-1105.915  0.00  0.00    -0.648 OA
ATOM    165  OE2 GLU d   9    1128.616 322.699-1106.681  0.00  0.00    -0.648 OA
ENDBRANCH 162 163
ENDBRANCH 161 162
ENDBRANCH  86 161
ENDBRANCH   1  86
TORSDOF 68
