@<TRIPOS>MOLECULE
5-19
276 277 16              
SMALL
USER_CHARGES
@<TRIPOS>ATOM
1	   N	844.270	225.909	-807.758	N.3	1	GLU1	-0.516	
2	  CA	844.829	227.258	-807.758	C.3	1	GLU1	0.040	
3	   C	846.338	227.218	-807.758	C.2	1	GLU1	0.537	
4	   O	847.013	227.917	-808.527	O.2	1	GLU1	-0.582	
5	  CB	844.306	228.043	-806.521	C.3	1	GLU1	0.056	
6	  CG	844.781	229.528	-806.410	C.3	1	GLU1	0.014	
7	  CD	844.357	230.332	-805.195	C.2	1	GLU1	0.805	
8	 OE1	843.629	229.830	-804.317	O.co2	1	GLU1	-0.819	
9	 OE2	844.787	231.502	-805.123	O.co2	1	GLU1	-0.819	
10	   H	844.897	225.030	-807.758	 H	1	GLU1	0.294	
11	  HA	844.503	227.776	-808.678	 H	1	GLU1	0.111	
12	 2HB	844.595	227.512	-805.591	 H	1	GLU1	-0.017	
13	 3HB	843.199	228.033	-806.508	 H	1	GLU1	-0.017	
14	 2HG	844.471	230.113	-807.291	 H	1	GLU1	-0.043	
15	 3HG	845.881	229.595	-806.381	 H	1	GLU1	-0.043	
16	   N	846.942	226.432	-806.933	N.am	2	ASN2	-0.416	
17	  CA	848.402	226.393	-806.933	C.3	2	ASN2	0.014	
18	   C	848.933	226.038	-808.302	C.2	2	ASN2	0.597	
19	   O	849.848	226.668	-808.831	O.2	2	ASN2	-0.568	
20	  CB	848.894	225.370	-805.869	C.3	2	ASN2	-0.204	
21	  CG	848.431	225.594	-804.426	C.2	2	ASN2	0.713	
22	 ND2	849.025	226.509	-803.707	N.pl3	2	ASN2	-0.919	
23	 OD1	847.510	224.960	-803.931	O.2	2	ASN2	-0.593	
24	   H	846.414	225.852	-806.297	 H	2	ASN2	0.272	
25	  HA	848.779	227.403	-806.688	 H	2	ASN2	0.105	
26	 2HB	849.998	225.311	-805.873	 H	2	ASN2	0.080	
27	 3HB	848.565	224.352	-806.155	 H	2	ASN2	0.080	
28	1HD2	848.544	226.682	-802.821	 H	2	ASN2	0.420	
29	2HD2	849.727	227.081	-804.177	 H	2	ASN2	0.420	
30	   N	848.411	225.043	-808.936	N.am	3	PRO3	-0.255	
31	  CA	848.863	224.633	-810.258	C.3	3	PRO3	-0.027	
32	   C	848.465	225.657	-811.334	C.2	3	PRO3	0.590	
33	   O	849.289	226.040	-812.166	O.2	3	PRO3	-0.575	
34	  CB	848.160	223.279	-810.427	C.3	3	PRO3	-0.007	
35	  CG	846.876	223.431	-809.597	C.3	3	PRO3	0.019	
36	  CD	847.333	224.249	-808.387	C.3	3	PRO3	0.019	
37	  HA	849.949	224.514	-810.271	 H	3	PRO3	0.064	
38	 2HB	848.782	222.497	-809.986	 H	3	PRO3	0.025	
39	 3HB	847.961	223.030	-811.472	 H	3	PRO3	0.025	
40	 2HG	846.449	222.468	-809.306	 H	3	PRO3	0.021	
41	 3HG	846.138	224.001	-810.164	 H	3	PRO3	0.021	
42	 2HD	847.723	223.600	-807.599	 H	3	PRO3	0.039	
43	 3HD	846.537	224.885	-807.994	 H	3	PRO3	0.039	
44	   N	847.260	226.117	-811.367	N.am	4	GLU4	-0.516	
45	  CA	846.901	227.088	-812.396	C.3	4	GLU4	0.040	
46	   C	847.799	228.299	-812.335	C.2	4	GLU4	0.537	
47	   O	848.326	228.778	-813.350	O.2	4	GLU4	-0.582	
48	  CB	845.412	227.506	-812.226	C.3	4	GLU4	0.056	
49	  CG	844.864	228.510	-813.292	C.3	4	GLU4	0.014	
50	  CD	843.437	229.006	-813.148	C.2	4	GLU4	0.805	
51	 OE1	842.711	228.607	-812.218	O.co2	4	GLU4	-0.819	
52	 OE2	843.047	229.835	-813.997	O.co2	4	GLU4	-0.819	
53	   H	846.576	225.810	-810.690	 H	4	GLU4	0.294	
54	  HA	847.032	226.617	-813.388	 H	4	GLU4	0.111	
55	 2HB	845.259	227.946	-811.220	 H	4	GLU4	-0.017	
56	 3HB	844.764	226.608	-812.233	 H	4	GLU4	-0.017	
57	 2HG	844.945	228.095	-814.310	 H	4	GLU4	-0.043	
58	 3HG	845.452	229.442	-813.303	 H	4	GLU4	-0.043	
59	   N	848.027	228.852	-811.192	N.am	5	LYS5	-0.348	
60	  CA	848.896	230.024	-811.132	C.3	5	LYS5	-0.240	
61	   C	850.255	229.719	-811.717	C.2	5	LYS5	0.734	
62	   O	850.807	230.479	-812.526	O.2	5	LYS5	-0.589	
63	  CB	849.019	230.501	-809.660	C.3	5	LYS5	-0.009	
64	  CG	849.863	231.789	-809.498	C.3	5	LYS5	0.019	
65	  CD	850.061	232.253	-808.052	C.3	5	LYS5	-0.048	
66	  CE	850.970	233.489	-808.037	C.3	5	LYS5	-0.014	
67	  NZ	851.023	234.041	-806.672	N.4	5	LYS5	-0.385	
68	   H	847.609	228.480	-810.351	 H	5	LYS5	0.275	
69	  HA	848.443	230.826	-811.744	 H	5	LYS5	0.143	
70	 2HB	849.449	229.688	-809.039	 H	5	LYS5	0.036	
71	 3HB	848.009	230.675	-809.238	 H	5	LYS5	0.036	
72	 2HG	849.415	232.605	-810.098	 H	5	LYS5	0.010	
73	 3HG	850.875	231.638	-809.917	 H	5	LYS5	0.010	
74	 2HD	850.515	231.437	-807.454	 H	5	LYS5	0.062	
75	 3HD	849.078	232.468	-807.590	 H	5	LYS5	0.062	
76	 2HE	850.600	234.267	-808.737	 H	5	LYS5	0.113	
77	 3HE	851.990	233.225	-808.388	 H	5	LYS5	0.113	
78	 1HZ	851.020	233.286	-805.976	 H	5	LYS5	0.340	
79	 2HZ	851.889	234.568	-806.516	 H	5	LYS5	0.340	
80	 3HZ	850.216	234.640	-806.575	 H	5	LYS5	0.340	
81	   N	850.860	228.636	-811.363	N.am	6	ILE6	-0.416	
82	  CA	852.174	228.343	-811.928	C.3	6	ILE6	-0.060	
83	   C	852.118	228.306	-813.436	C.2	6	ILE6	0.597	
84	   O	852.953	228.895	-814.139	O.2	6	ILE6	-0.568	
85	  CB	852.774	227.006	-811.328	C.3	6	ILE6	0.130	
86	 CG1	852.792	226.943	-809.767	C.3	6	ILE6	-0.043	
87	 CG2	854.216	226.705	-811.843	C.3	6	ILE6	-0.320	
88	 CD1	853.062	225.553	-809.153	C.3	6	ILE6	-0.066	
89	   H	850.431	228.001	-810.705	 H	6	ILE6	0.272	
90	  HA	852.847	229.177	-811.659	 H	6	ILE6	0.087	
91	  HB	852.117	226.180	-811.674	 H	6	ILE6	0.019	
92	2HG1	851.809	227.262	-809.372	 H	6	ILE6	0.024	
93	3HG1	853.507	227.685	-809.362	 H	6	ILE6	0.024	
94	1HG2	854.276	226.613	-812.941	 H	6	ILE6	0.088	
95	2HG2	854.937	227.488	-811.539	 H	6	ILE6	0.088	
96	3HG2	854.606	225.743	-811.464	 H	6	ILE6	0.088	
97	1HD1	852.334	224.799	-809.509	 H	6	ILE6	0.019	
98	2HD1	854.073	225.175	-809.388	 H	6	ILE6	0.019	
99	3HD1	852.984	225.582	-808.051	 H	6	ILE6	0.019	
100	   N	851.173	227.642	-814.011	N.am	7	LEU7	-0.416	
101	  CA	851.120	227.607	-815.470	C.3	7	LEU7	-0.052	
102	   C	851.047	229.003	-816.041	C.2	7	LEU7	0.597	
103	   O	851.768	229.367	-816.982	O.2	7	LEU7	-0.568	
104	  CB	849.917	226.747	-815.952	C.3	7	LEU7	-0.110	
105	  CG	849.845	225.267	-815.487	C.3	7	LEU7	0.353	
106	 CD1	848.656	224.561	-816.154	C.3	7	LEU7	-0.412	
107	 CD2	851.139	224.489	-815.777	C.3	7	LEU7	-0.412	
108	   H	850.481	227.155	-813.461	 H	7	LEU7	0.272	
109	  HA	852.062	227.168	-815.843	 H	7	LEU7	0.092	
110	 2HB	849.895	226.764	-817.059	 H	7	LEU7	0.046	
111	 3HB	848.977	227.249	-815.648	 H	7	LEU7	0.046	
112	  HG	849.674	225.258	-814.389	 H	7	LEU7	-0.036	
113	1HD1	847.698	225.070	-815.932	 H	7	LEU7	0.100	
114	2HD1	848.756	224.522	-817.255	 H	7	LEU7	0.100	
115	3HD1	848.549	223.520	-815.799	 H	7	LEU7	0.100	
116	1HD2	851.415	224.520	-816.847	 H	7	LEU7	0.100	
117	2HD2	851.992	224.900	-815.205	 H	7	LEU7	0.100	
118	3HD2	851.058	223.426	-815.482	 H	7	LEU7	0.100	
119	   N	850.209	229.843	-815.535	N.am	8	ASP8	-0.516	
120	  CA	850.138	231.193	-816.087	C.3	8	ASP8	0.038	
121	   C	851.485	231.873	-816.028	C.2	8	ASP8	0.537	
122	   O	851.958	232.480	-817.002	O.2	8	ASP8	-0.582	
123	  CB	849.059	232.031	-815.346	C.3	8	ASP8	-0.030	
124	  CG	848.840	233.452	-815.886	C.2	8	ASP8	0.799	
125	 OD1	848.905	233.652	-817.116	O.co2	8	ASP8	-0.801	
126	 OD2	848.647	234.377	-815.070	O.co2	8	ASP8	-0.801	
127	   H	849.610	229.571	-814.768	 H	8	ASP8	0.294	
128	  HA	849.857	231.116	-817.155	 H	8	ASP8	0.088	
129	 2HB	849.315	232.113	-814.274	 H	8	ASP8	-0.012	
130	 3HB	848.080	231.525	-815.380	 H	8	ASP8	-0.012	
131	   N	852.163	231.823	-814.932	N.am	9	GLU9	-0.516	
132	  CA	853.465	232.481	-814.875	C.3	9	GLU9	0.040	
133	   C	854.385	231.955	-815.950	C.2	9	GLU9	0.537	
134	   O	855.049	232.710	-816.674	O.2	9	GLU9	-0.582	
135	  CB	854.098	232.273	-813.469	C.3	9	GLU9	0.056	
136	  CG	855.480	232.965	-813.237	C.3	9	GLU9	0.014	
137	  CD	856.180	232.751	-811.909	C.2	9	GLU9	0.805	
138	 OE1	855.658	232.059	-811.013	O.co2	9	GLU9	-0.819	
139	 OE2	857.299	233.290	-811.775	O.co2	9	GLU9	-0.819	
140	   H	851.799	231.336	-814.126	 H	9	GLU9	0.294	
141	  HA	853.323	233.563	-815.049	 H	9	GLU9	0.111	
142	 2HB	854.211	231.188	-813.266	 H	9	GLU9	-0.017	
143	 3HB	853.400	232.625	-812.685	 H	9	GLU9	-0.017	
144	 2HG	855.407	234.056	-813.376	 H	9	GLU9	-0.043	
145	 3HG	856.227	232.621	-813.971	 H	9	GLU9	-0.043	
146	   N	854.482	230.680	-816.121	N.am	10	HIS10	-0.416	
147	  CA	855.372	230.170	-817.160	C.3	10	HIS10	-0.058	
148	   C	855.006	230.736	-818.511	C.2	10	HIS10	0.597	
149	   O	855.859	231.201	-819.282	O.2	10	HIS10	-0.568	
150	  CB	855.209	228.641	-817.157	C.3	10	HIS10	-0.007	
151	  CG	856.494	227.931	-816.848	C.2	10	HIS10	0.187	
152	 CD2	856.874	227.595	-815.555	C.2	10	HIS10	-0.221	
153	 ND1	857.448	227.527	-817.780	N.2	10	HIS10	-0.543	
154	 CE1	858.354	226.968	-816.956	C.2	10	HIS10	0.163	
155	 NE2	858.089	226.964	-815.621	N.pl3	10	HIS10	-0.280	
156	   H	853.951	230.044	-815.543	 H	10	HIS10	0.272	
157	  HA	856.390	230.528	-816.934	 H	10	HIS10	0.136	
158	 2HB	854.845	228.275	-818.138	 H	10	HIS10	0.037	
159	 3HB	854.452	228.303	-816.418	 H	10	HIS10	0.037	
160	 2HD	856.287	227.809	-814.667	 H	10	HIS10	0.186	
161	 1HE	859.245	226.548	-817.402	 H	10	HIS10	0.144	
162	 2HE	858.655	226.586	-814.847	 H	10	HIS10	0.334	
163	   N	853.769	230.734	-818.876	N.am	11	VAL11	-0.416	
164	  CA	853.415	231.281	-820.183	C.3	11	VAL11	-0.087	
165	   C	853.879	232.713	-820.313	C.2	11	VAL11	0.597	
166	   O	854.481	233.119	-821.315	O.2	11	VAL11	-0.568	
167	  CB	851.854	231.174	-820.404	C.3	11	VAL11	0.299	
168	 CG1	851.287	231.879	-821.667	C.3	11	VAL11	-0.319	
169	 CG2	851.330	229.720	-820.479	C.3	11	VAL11	-0.319	
170	   H	853.055	230.361	-818.266	 H	11	VAL11	0.272	
171	  HA	853.936	230.700	-820.965	 H	11	VAL11	0.097	
172	  HB	851.365	231.653	-819.529	 H	11	VAL11	-0.030	
173	1HG1	851.727	231.489	-822.604	 H	11	VAL11	0.079	
174	2HG1	850.188	231.772	-821.750	 H	11	VAL11	0.079	
175	3HG1	851.464	232.972	-821.656	 H	11	VAL11	0.079	
176	1HG2	851.619	229.132	-819.589	 H	11	VAL11	0.079	
177	2HG2	850.224	229.683	-820.523	 H	11	VAL11	0.079	
178	3HG2	851.713	229.180	-821.366	 H	11	VAL11	0.079	
179	   N	853.640	233.537	-819.350	N.am	12	GLN12	-0.416	
180	  CA	854.088	234.920	-819.476	C.3	12	GLN12	-0.003	
181	   C	855.578	234.989	-819.712	C.2	12	GLN12	0.597	
182	   O	856.066	235.698	-820.589	O.2	12	GLN12	-0.568	
183	  CB	853.695	235.686	-818.193	C.3	12	GLN12	-0.004	
184	  CG	854.055	237.208	-818.160	C.3	12	GLN12	-0.064	
185	  CD	853.751	238.020	-816.894	C.2	12	GLN12	0.695	
186	 NE2	853.182	237.443	-815.867	N.pl3	12	GLN12	-0.941	
187	 OE1	854.052	239.202	-816.815	O.2	12	GLN12	-0.609	
188	   H	853.151	233.230	-818.522	 H	12	GLN12	0.272	
189	  HA	853.590	235.377	-820.351	 H	12	GLN12	0.085	
190	 2HB	854.171	235.186	-817.323	 H	12	GLN12	0.017	
191	 3HB	852.605	235.578	-818.031	 H	12	GLN12	0.017	
192	 2HG	853.578	237.730	-819.010	 H	12	GLN12	0.035	
193	 3HG	855.139	237.351	-818.324	 H	12	GLN12	0.035	
194	1HE2	853.074	238.036	-815.043	 H	12	GLN12	0.425	
195	2HE2	853.020	236.439	-815.971	 H	12	GLN12	0.425	
196	   N	856.363	234.282	-818.970	N.am	13	ARG13	-0.348	
197	  CA	857.803	234.348	-819.199	C.3	13	ARG13	-0.264	
198	   C	858.141	233.978	-820.624	C.2	13	ARG13	0.734	
199	   O	858.910	234.651	-821.307	O.2	13	ARG13	-0.589	
200	  CB	858.516	233.409	-818.185	C.3	13	ARG13	-0.001	
201	  CG	860.060	233.563	-818.103	C.3	13	ARG13	0.039	
202	  CD	860.687	232.574	-817.105	C.3	13	ARG13	0.049	
203	  NE	862.164	232.782	-817.053	N.pl3	13	ARG13	-0.530	
204	  CZ	863.011	232.090	-816.297	C.cat	13	ARG13	0.808	
205	 NH1	862.646	231.125	-815.501	N.pl3	13	ARG13	-0.863	
206	 NH2	864.271	232.390	-816.352	N.pl3	13	ARG13	-0.863	
207	   H	855.986	233.691	-818.243	 H	13	ARG13	0.275	
208	  HA	858.127	235.394	-819.040	 H	13	ARG13	0.156	
209	 2HB	858.250	232.358	-818.426	 H	13	ARG13	0.033	
210	 3HB	858.089	233.574	-817.175	 H	13	ARG13	0.033	
211	 2HG	860.308	234.607	-817.822	 H	13	ARG13	0.029	
212	 3HG	860.512	233.408	-819.104	 H	13	ARG13	0.029	
213	 2HD	860.443	231.534	-817.415	 H	13	ARG13	0.069	
214	 3HD	860.229	232.719	-816.103	 H	13	ARG13	0.069	
215	  HE	862.615	233.505	-817.622	 H	13	ARG13	0.346	
216	1HH1	861.640	230.938	-815.505	 H	13	ARG13	0.448	
217	2HH1	863.358	230.642	-814.952	 H	13	ARG13	0.448	
218	1HH2	864.539	233.149	-816.982	 H	13	ARG13	0.448	
219	2HH2	864.905	231.848	-815.763	 H	13	ARG13	0.448	
220	   N	857.606	232.924	-821.141	N.am	14	VAL14	-0.416	
221	  CA	857.933	232.566	-822.518	C.3	14	VAL14	-0.087	
222	   C	857.603	233.697	-823.463	C.2	14	VAL14	0.597	
223	   O	858.398	234.080	-824.331	O.2	14	VAL14	-0.568	
224	  CB	857.162	231.249	-822.927	C.3	14	VAL14	0.299	
225	 CG1	857.253	230.832	-824.421	C.3	14	VAL14	-0.319	
226	 CG2	857.593	229.996	-822.127	C.3	14	VAL14	-0.319	
227	   H	856.971	232.355	-820.600	 H	14	VAL14	0.272	
228	  HA	859.021	232.390	-822.592	 H	14	VAL14	0.097	
229	  HB	856.085	231.420	-822.712	 H	14	VAL14	-0.030	
230	1HG1	858.294	230.656	-824.749	 H	14	VAL14	0.079	
231	2HG1	856.681	229.909	-824.635	 H	14	VAL14	0.079	
232	3HG1	856.824	231.595	-825.099	 H	14	VAL14	0.079	
233	1HG2	857.505	230.154	-821.037	 H	14	VAL14	0.079	
234	2HG2	856.958	229.120	-822.361	 H	14	VAL14	0.079	
235	3HG2	858.641	229.707	-822.332	 H	14	VAL14	0.079	
236	   N	856.458	234.282	-823.362	N.am	15	MET15	-0.416	
237	  CA	856.138	235.376	-824.275	C.3	15	MET15	-0.024	
238	   C	857.168	236.476	-824.185	C.2	15	MET15	0.597	
239	   O	857.672	236.988	-825.197	O.2	15	MET15	-0.568	
240	  CB	854.716	235.920	-823.967	C.3	15	MET15	0.034	
241	  CG	853.555	234.922	-824.161	C.3	15	MET15	0.002	
242	  SD	851.981	235.787	-824.048	S.3	15	MET15	-0.274	
243	  CE	850.900	234.357	-823.914	C.3	15	MET15	-0.054	
244	   H	855.793	233.988	-822.661	 H	15	MET15	0.272	
245	  HA	856.166	234.989	-825.311	 H	15	MET15	0.088	
246	 2HB	854.514	236.800	-824.609	 H	15	MET15	0.024	
247	 3HB	854.679	236.312	-822.931	 H	15	MET15	0.024	
248	 2HG	853.597	234.135	-823.384	 H	15	MET15	0.044	
249	 3HG	853.619	234.408	-825.138	 H	15	MET15	0.044	
250	 1HE	851.045	233.669	-824.767	 H	15	MET15	0.068	
251	 2HE	851.108	233.803	-822.982	 H	15	MET15	0.068	
252	 3HE	849.842	234.671	-823.898	 H	15	MET15	0.068	
253	   N	857.535	236.896	-823.022	N.am	16	ARG16	-0.348	
254	  CA	858.531	237.960	-822.936	C.3	16	ARG16	-0.264	
255	   C	859.803	237.569	-823.651	C.2	16	ARG16	0.734	
256	   O	859.918	236.493	-824.233	O.2	16	ARG16	-0.589	
257	  CB	858.798	238.277	-821.437	C.3	16	ARG16	-0.001	
258	  CG	859.622	239.566	-821.162	C.3	16	ARG16	0.039	
259	  CD	859.870	239.784	-819.660	C.3	16	ARG16	0.049	
260	  NE	860.646	241.043	-819.457	N.pl3	16	ARG16	-0.530	
261	  CZ	861.035	241.524	-818.280	C.cat	16	ARG16	0.808	
262	 NH1	860.786	240.939	-817.143	N.pl3	16	ARG16	-0.863	
263	 NH2	861.699	242.637	-818.260	N.pl3	16	ARG16	-0.863	
264	   H	857.140	236.495	-822.184	 H	16	ARG16	0.275	
265	  HA	858.122	238.853	-823.445	 H	16	ARG16	0.156	
266	 2HB	859.295	237.401	-820.971	 H	16	ARG16	0.033	
267	 3HB	857.829	238.357	-820.904	 H	16	ARG16	0.033	
268	 2HG	859.092	240.437	-821.599	 H	16	ARG16	0.029	
269	 3HG	860.597	239.514	-821.690	 H	16	ARG16	0.029	
270	 2HD	860.419	238.909	-819.247	 H	16	ARG16	0.069	
271	 3HD	858.897	239.826	-819.126	 H	16	ARG16	0.069	
272	  HE	860.925	241.625	-820.253	 H	16	ARG16	0.346	
273	1HH1	860.261	240.066	-817.229	 H	16	ARG16	0.448	
274	2HH1	861.120	241.374	-816.281	 H	16	ARG16	0.448	
275	1HH2	861.885	243.081	-819.161	 H	16	ARG16	0.448	
276	2HH2	861.988	242.991	-817.347	 H	16	ARG16	0.448	
@<TRIPOS>BOND
1 1 2 1
2 1 10 1
3 2 3 1
4 2 5 1
5 2 11 1
6 3 4 2
7 3 16 1
8 5 6 1
9 6 7 1
10 7 8 2
11 7 9 1
12 5 12 1
13 5 13 1
14 6 14 1
15 6 15 1
16 16 17 1
17 16 24 1
18 17 18 1
19 17 20 1
20 17 25 1
21 18 19 2
22 18 30 1
23 20 21 1
24 21 22 1
25 21 23 2
26 20 26 1
27 20 27 1
28 22 28 1
29 22 29 1
30 30 31 1
31 30 36 1
32 31 32 1
33 31 34 1
34 31 37 1
35 32 33 2
36 32 44 1
37 34 35 1
38 35 36 1
39 34 38 1
40 34 39 1
41 35 40 1
42 35 41 1
43 36 42 1
44 36 43 1
45 44 45 1
46 44 53 1
47 45 46 1
48 45 48 1
49 45 54 1
50 46 47 2
51 46 59 1
52 48 49 1
53 49 50 1
54 50 51 2
55 50 52 1
56 48 55 1
57 48 56 1
58 49 57 1
59 49 58 1
60 59 60 1
61 59 68 1
62 60 61 1
63 60 63 1
64 60 69 1
65 61 62 2
66 61 81 1
67 63 64 1
68 64 65 1
69 65 66 1
70 66 67 1
71 67 80 1
72 63 70 1
73 63 71 1
74 64 72 1
75 64 73 1
76 65 74 1
77 65 75 1
78 66 76 1
79 66 77 1
80 67 78 1
81 67 79 1
82 81 82 1
83 81 89 1
84 82 83 1
85 82 85 1
86 82 90 1
87 83 84 2
88 83 100 1
89 85 86 1
90 85 87 1
91 86 88 1
92 85 91 1
93 86 92 1
94 86 93 1
95 87 94 1
96 87 95 1
97 87 96 1
98 88 97 1
99 88 98 1
100 88 99 1
101 100 101 1
102 100 108 1
103 101 102 1
104 101 104 1
105 101 109 1
106 102 103 2
107 102 119 1
108 104 105 1
109 105 106 1
110 105 107 1
111 104 110 1
112 104 111 1
113 105 112 1
114 106 113 1
115 106 114 1
116 106 115 1
117 107 116 1
118 107 117 1
119 107 118 1
120 119 120 1
121 119 127 1
122 120 121 1
123 120 123 1
124 120 128 1
125 121 122 2
126 121 131 1
127 123 124 1
128 124 125 2
129 124 126 1
130 123 129 1
131 123 130 1
132 131 132 1
133 131 140 1
134 132 133 1
135 132 135 1
136 132 141 1
137 133 134 2
138 133 146 1
139 135 136 1
140 136 137 1
141 137 138 2
142 137 139 1
143 135 142 1
144 135 143 1
145 136 144 1
146 136 145 1
147 146 147 1
148 146 156 1
149 147 148 1
150 147 150 1
151 147 157 1
152 148 149 2
153 148 163 1
154 150 151 1
155 151 152 2
156 152 155 1
157 151 153 1
158 153 154 2
159 154 155 1
160 150 158 1
161 150 159 1
162 152 160 1
163 154 161 1
164 155 162 1
165 163 164 1
166 163 170 1
167 164 165 1
168 164 167 1
169 164 171 1
170 165 166 2
171 165 179 1
172 167 168 1
173 167 169 1
174 167 172 1
175 168 173 1
176 168 174 1
177 168 175 1
178 169 176 1
179 169 177 1
180 169 178 1
181 179 180 1
182 179 188 1
183 180 181 1
184 180 183 1
185 180 189 1
186 181 182 2
187 181 196 1
188 183 184 1
189 184 185 1
190 185 186 1
191 185 187 2
192 183 190 1
193 183 191 1
194 184 192 1
195 184 193 1
196 186 194 1
197 186 195 1
198 196 197 1
199 196 207 1
200 197 198 1
201 197 200 1
202 197 208 1
203 198 199 2
204 198 220 1
205 200 201 1
206 201 202 1
207 202 203 1
208 203 204 1
209 204 205 2
210 204 206 1
211 200 209 1
212 200 210 1
213 201 211 1
214 201 212 1
215 202 213 1
216 202 214 1
217 203 215 1
218 205 216 1
219 205 217 1
220 206 218 1
221 206 219 1
222 220 221 1
223 220 227 1
224 221 222 1
225 221 224 1
226 221 228 1
227 222 223 2
228 222 236 1
229 224 225 1
230 224 226 1
231 224 229 1
232 225 230 1
233 225 231 1
234 225 232 1
235 226 233 1
236 226 234 1
237 226 235 1
238 236 237 1
239 236 244 1
240 237 238 1
241 237 240 1
242 237 245 1
243 238 239 2
244 238 253 1
245 240 241 1
246 241 242 1
247 242 243 1
248 240 246 1
249 240 247 1
250 241 248 1
251 241 249 1
252 243 250 1
253 243 251 1
254 243 252 1
255 253 254 1
256 253 264 1
257 254 255 1
258 254 257 1
259 254 265 1
260 255 256 2
261 257 258 1
262 258 259 1
263 259 260 1
264 260 261 1
265 261 262 2
266 261 263 1
267 257 266 1
268 257 267 1
269 258 268 1
270 258 269 1
271 259 270 1
272 259 271 1
273 260 272 1
274 262 273 1
275 262 274 1
276 263 275 1
277 263 276 1
@<TRIPOS>SUBSTRUCTURE
1	GLU1	1	RESIDUE	1 ****	GLU
2	ASN2	16	RESIDUE	1 ****	ASN
3	PRO3	30	RESIDUE	1 ****	PRO
4	GLU4	44	RESIDUE	1 ****	GLU
5	LYS5	59	RESIDUE	1 ****	LYS
6	ILE6	81	RESIDUE	1 ****	ILE
7	LEU7	100	RESIDUE	1 ****	LEU
8	ASP8	119	RESIDUE	1 ****	ASP
9	GLU9	131	RESIDUE	1 ****	GLU
10	HIS10	146	RESIDUE	1 ****	HIS
11	VAL11	163	RESIDUE	1 ****	VAL
12	GLN12	179	RESIDUE	1 ****	GLN
13	ARG13	196	RESIDUE	1 ****	ARG
14	VAL14	220	RESIDUE	1 ****	VAL
15	MET15	236	RESIDUE	1 ****	MET
16	ARG16	253	RESIDUE	1 ****	ARG
