@<TRIPOS>MOLECULE
5-8
274 276 16              
SMALL
USER_CHARGES
@<TRIPOS>ATOM
1	   N	754.666	196.057	-711.361	N.3	1	GLU1	-0.516	
2	  CA	755.225	197.406	-711.361	C.3	1	GLU1	0.040	
3	   C	756.734	197.366	-711.361	C.2	1	GLU1	0.537	
4	   O	757.410	198.065	-712.130	O.2	1	GLU1	-0.582	
5	  CB	754.702	198.191	-710.124	C.3	1	GLU1	0.056	
6	  CG	755.177	199.676	-710.013	C.3	1	GLU1	0.014	
7	  CD	754.753	200.480	-708.798	C.2	1	GLU1	0.805	
8	 OE1	754.025	199.978	-707.920	O.co2	1	GLU1	-0.819	
9	 OE2	755.183	201.650	-708.726	O.co2	1	GLU1	-0.819	
10	   H	755.293	195.178	-711.361	 H	1	GLU1	0.294	
11	  HA	754.899	197.924	-712.281	 H	1	GLU1	0.111	
12	 2HB	754.991	197.660	-709.194	 H	1	GLU1	-0.017	
13	 3HB	753.595	198.181	-710.111	 H	1	GLU1	-0.017	
14	 2HG	754.867	200.261	-710.894	 H	1	GLU1	-0.043	
15	 3HG	756.277	199.743	-709.984	 H	1	GLU1	-0.043	
16	   N	757.338	196.580	-710.536	N.am	2	ASN2	-0.416	
17	  CA	758.798	196.542	-710.536	C.3	2	ASN2	0.014	
18	   C	759.329	196.186	-711.905	C.2	2	ASN2	0.597	
19	   O	760.244	196.817	-712.433	O.2	2	ASN2	-0.568	
20	  CB	759.290	195.519	-709.472	C.3	2	ASN2	-0.204	
21	  CG	758.827	195.743	-708.028	C.2	2	ASN2	0.713	
22	 ND2	759.421	196.658	-707.310	N.pl3	2	ASN2	-0.919	
23	 OD1	757.906	195.109	-707.534	O.2	2	ASN2	-0.593	
24	   H	756.810	196.001	-709.899	 H	2	ASN2	0.272	
25	  HA	759.175	197.552	-710.291	 H	2	ASN2	0.105	
26	 2HB	760.394	195.460	-709.475	 H	2	ASN2	0.080	
27	 3HB	758.961	194.500	-709.757	 H	2	ASN2	0.080	
28	1HD2	758.940	196.831	-706.424	 H	2	ASN2	0.420	
29	2HD2	760.123	197.229	-707.779	 H	2	ASN2	0.420	
30	   N	758.808	195.191	-712.539	N.am	3	PRO3	-0.255	
31	  CA	759.260	194.782	-713.860	C.3	3	PRO3	-0.027	
32	   C	758.861	195.805	-714.937	C.2	3	PRO3	0.590	
33	   O	759.685	196.189	-715.769	O.2	3	PRO3	-0.575	
34	  CB	758.556	193.427	-714.030	C.3	3	PRO3	-0.007	
35	  CG	757.272	193.579	-713.200	C.3	3	PRO3	0.019	
36	  CD	757.730	194.398	-711.990	C.3	3	PRO3	0.019	
37	  HA	760.346	194.662	-713.874	 H	3	PRO3	0.064	
38	 2HB	759.179	192.646	-713.589	 H	3	PRO3	0.025	
39	 3HB	758.358	193.179	-715.075	 H	3	PRO3	0.025	
40	 2HG	756.845	192.617	-712.909	 H	3	PRO3	0.021	
41	 3HG	756.535	194.150	-713.767	 H	3	PRO3	0.021	
42	 2HD	758.119	193.748	-711.202	 H	3	PRO3	0.039	
43	 3HD	756.933	195.034	-711.597	 H	3	PRO3	0.039	
44	   N	757.657	196.265	-714.970	N.am	4	GLU4	-0.516	
45	  CA	757.297	197.236	-715.999	C.3	4	GLU4	0.040	
46	   C	758.196	198.447	-715.938	C.2	4	GLU4	0.537	
47	   O	758.722	198.927	-716.953	O.2	4	GLU4	-0.582	
48	  CB	755.808	197.655	-715.829	C.3	4	GLU4	0.056	
49	  CG	755.260	198.658	-716.895	C.3	4	GLU4	0.014	
50	  CD	753.833	199.155	-716.751	C.2	4	GLU4	0.805	
51	 OE1	753.107	198.756	-715.820	O.co2	4	GLU4	-0.819	
52	 OE2	753.444	199.984	-717.600	O.co2	4	GLU4	-0.819	
53	   H	756.972	195.958	-714.293	 H	4	GLU4	0.294	
54	  HA	757.428	196.766	-716.990	 H	4	GLU4	0.111	
55	 2HB	755.656	198.094	-714.822	 H	4	GLU4	-0.017	
56	 3HB	755.161	196.757	-715.835	 H	4	GLU4	-0.017	
57	 2HG	755.342	198.243	-717.912	 H	4	GLU4	-0.043	
58	 3HG	755.848	199.591	-716.906	 H	4	GLU4	-0.043	
59	   N	758.423	199.000	-714.795	N.am	5	PHE5	-0.416	
60	  CA	759.292	200.172	-714.735	C.3	5	PHE5	-0.002	
61	   C	760.651	199.869	-715.320	C.2	5	PHE5	0.597	
62	   O	761.211	200.643	-716.144	O.2	5	PHE5	-0.568	
63	  CB	759.471	200.630	-713.256	C.3	5	PHE5	-0.034	
64	  CG	758.188	200.984	-712.489	C.2	5	PHE5	0.012	
65	 CD1	757.494	199.981	-711.802	C.2	5	PHE5	-0.126	
66	 CD2	757.671	202.281	-712.519	C.2	5	PHE5	-0.126	
67	 CE1	756.289	200.268	-711.171	C.2	5	PHE5	-0.170	
68	 CE2	756.470	202.571	-711.877	C.2	5	PHE5	-0.170	
69	  CZ	755.778	201.564	-711.206	C.2	5	PHE5	-0.107	
70	   H	758.005	198.628	-713.954	 H	5	PHE5	0.272	
71	  HA	758.837	200.987	-715.330	 H	5	PHE5	0.098	
72	 2HB	760.151	201.504	-713.222	 H	5	PHE5	0.030	
73	 3HB	760.024	199.852	-712.690	 H	5	PHE5	0.030	
74	 1HD	757.869	198.966	-711.798	 H	5	PHE5	0.133	
75	 2HD	758.191	203.063	-713.056	 H	5	PHE5	0.133	
76	 1HE	755.746	199.480	-710.670	 H	5	PHE5	0.143	
77	 2HE	756.070	203.574	-711.909	 H	5	PHE5	0.143	
78	  HZ	754.840	201.783	-710.720	 H	5	PHE5	0.130	
79	   N	761.257	198.786	-714.966	N.am	6	ILE6	-0.416	
80	  CA	762.571	198.494	-715.532	C.3	6	ILE6	-0.060	
81	   C	762.515	198.457	-717.040	C.2	6	ILE6	0.597	
82	   O	763.349	199.047	-717.743	O.2	6	ILE6	-0.568	
83	  CB	763.172	197.158	-714.933	C.3	6	ILE6	0.130	
84	 CG1	763.191	197.094	-713.372	C.3	6	ILE6	-0.043	
85	 CG2	764.614	196.859	-715.448	C.3	6	ILE6	-0.320	
86	 CD1	763.463	195.705	-712.758	C.3	6	ILE6	-0.066	
87	   H	760.829	198.150	-714.308	 H	6	ILE6	0.272	
88	  HA	763.244	199.329	-715.263	 H	6	ILE6	0.087	
89	  HB	762.516	196.331	-715.278	 H	6	ILE6	0.019	
90	2HG1	762.208	197.412	-712.977	 H	6	ILE6	0.024	
91	3HG1	763.905	197.837	-712.966	 H	6	ILE6	0.024	
92	1HG2	764.674	196.766	-716.546	 H	6	ILE6	0.088	
93	2HG2	765.335	197.642	-715.144	 H	6	ILE6	0.088	
94	3HG2	765.006	195.897	-715.070	 H	6	ILE6	0.088	
95	1HD1	762.736	194.950	-713.114	 H	6	ILE6	0.019	
96	2HD1	764.474	195.328	-712.994	 H	6	ILE6	0.019	
97	3HD1	763.386	195.734	-711.656	 H	6	ILE6	0.019	
98	   N	761.570	197.793	-717.615	N.am	7	LEU7	-0.416	
99	  CA	761.516	197.758	-719.074	C.3	7	LEU7	-0.052	
100	   C	761.442	199.154	-719.645	C.2	7	LEU7	0.597	
101	   O	762.163	199.519	-720.586	O.2	7	LEU7	-0.568	
102	  CB	760.315	196.897	-719.556	C.3	7	LEU7	-0.110	
103	  CG	760.244	195.417	-719.090	C.3	7	LEU7	0.353	
104	 CD1	759.056	194.710	-719.758	C.3	7	LEU7	-0.412	
105	 CD2	761.539	194.640	-719.382	C.3	7	LEU7	-0.412	
106	   H	760.879	197.304	-717.065	 H	7	LEU7	0.272	
107	  HA	762.459	197.320	-719.448	 H	7	LEU7	0.092	
108	 2HB	760.292	196.914	-720.663	 H	7	LEU7	0.046	
109	 3HB	759.374	197.398	-719.252	 H	7	LEU7	0.046	
110	  HG	760.074	195.407	-717.993	 H	7	LEU7	-0.036	
111	1HD1	758.098	195.217	-719.535	 H	7	LEU7	0.100	
112	2HD1	759.156	194.670	-720.859	 H	7	LEU7	0.100	
113	3HD1	758.950	193.668	-719.403	 H	7	LEU7	0.100	
114	1HD2	761.815	194.672	-720.452	 H	7	LEU7	0.100	
115	2HD2	762.391	195.052	-718.810	 H	7	LEU7	0.100	
116	3HD2	761.459	193.577	-719.087	 H	7	LEU7	0.100	
117	   N	760.603	199.993	-719.138	N.am	8	ASP8	-0.516	
118	  CA	760.531	201.343	-719.690	C.3	8	ASP8	0.038	
119	   C	761.877	202.025	-719.632	C.2	8	ASP8	0.537	
120	   O	762.349	202.632	-720.605	O.2	8	ASP8	-0.582	
121	  CB	759.451	202.179	-718.949	C.3	8	ASP8	-0.030	
122	  CG	759.231	203.600	-719.488	C.2	8	ASP8	0.799	
123	 OD1	759.295	203.801	-720.718	O.co2	8	ASP8	-0.801	
124	 OD2	759.037	204.525	-718.672	O.co2	8	ASP8	-0.801	
125	   H	760.005	199.720	-718.371	 H	8	ASP8	0.294	
126	  HA	760.249	201.265	-720.758	 H	8	ASP8	0.088	
127	 2HB	759.708	202.262	-717.876	 H	8	ASP8	-0.012	
128	 3HB	758.473	201.673	-718.983	 H	8	ASP8	-0.012	
129	   N	762.556	201.975	-718.536	N.am	9	GLU9	-0.516	
130	  CA	763.858	202.634	-718.479	C.3	9	GLU9	0.040	
131	   C	764.777	202.109	-719.555	C.2	9	GLU9	0.537	
132	   O	765.441	202.865	-720.279	O.2	9	GLU9	-0.582	
133	  CB	764.491	202.426	-717.073	C.3	9	GLU9	0.056	
134	  CG	765.872	203.120	-716.842	C.3	9	GLU9	0.014	
135	  CD	766.573	202.907	-715.514	C.2	9	GLU9	0.805	
136	 OE1	766.052	202.214	-714.619	O.co2	9	GLU9	-0.819	
137	 OE2	767.692	203.446	-715.381	O.co2	9	GLU9	-0.819	
138	   H	762.193	201.487	-717.729	 H	9	GLU9	0.294	
139	  HA	763.714	203.716	-718.653	 H	9	GLU9	0.111	
140	 2HB	764.605	201.341	-716.871	 H	9	GLU9	-0.017	
141	 3HB	763.793	202.777	-716.289	 H	9	GLU9	-0.017	
142	 2HG	765.799	204.211	-716.981	 H	9	GLU9	-0.043	
143	 3HG	766.620	202.777	-717.576	 H	9	GLU9	-0.043	
144	   N	764.876	200.834	-719.726	N.am	10	HIS10	-0.416	
145	  CA	765.765	200.325	-720.766	C.3	10	HIS10	-0.058	
146	   C	765.398	200.891	-722.117	C.2	10	HIS10	0.597	
147	   O	766.251	201.358	-722.887	O.2	10	HIS10	-0.568	
148	  CB	765.604	198.796	-720.763	C.3	10	HIS10	-0.007	
149	  CG	766.890	198.088	-720.455	C.2	10	HIS10	0.187	
150	 CD2	767.271	197.752	-719.162	C.2	10	HIS10	-0.221	
151	 ND1	767.843	197.684	-721.387	N.2	10	HIS10	-0.543	
152	 CE1	768.750	197.127	-720.564	C.2	10	HIS10	0.163	
153	 NE2	768.486	197.122	-719.229	N.pl3	10	HIS10	-0.280	
154	   H	764.345	200.197	-719.148	 H	10	HIS10	0.272	
155	  HA	766.784	200.684	-720.540	 H	10	HIS10	0.136	
156	 2HB	765.240	198.430	-721.744	 H	10	HIS10	0.037	
157	 3HB	764.848	198.457	-720.024	 H	10	HIS10	0.037	
158	 2HD	766.684	197.965	-718.273	 H	10	HIS10	0.186	
159	 1HE	769.642	196.708	-721.011	 H	10	HIS10	0.144	
160	 2HE	769.053	196.745	-718.456	 H	10	HIS10	0.334	
161	   N	764.161	200.888	-722.481	N.am	11	VAL11	-0.416	
162	  CA	763.806	201.435	-723.787	C.3	11	VAL11	-0.087	
163	   C	764.268	202.867	-723.918	C.2	11	VAL11	0.597	
164	   O	764.869	203.274	-724.919	O.2	11	VAL11	-0.568	
165	  CB	762.245	201.327	-724.008	C.3	11	VAL11	0.299	
166	 CG1	761.676	202.031	-725.270	C.3	11	VAL11	-0.319	
167	 CG2	761.723	199.872	-724.083	C.3	11	VAL11	-0.319	
168	   H	763.448	200.514	-721.871	 H	11	VAL11	0.272	
169	  HA	764.327	200.855	-724.570	 H	11	VAL11	0.097	
170	  HB	761.756	201.805	-723.132	 H	11	VAL11	-0.030	
171	1HG1	762.116	201.641	-726.207	 H	11	VAL11	0.079	
172	2HG1	760.578	201.922	-725.353	 H	11	VAL11	0.079	
173	3HG1	761.852	203.124	-725.259	 H	11	VAL11	0.079	
174	1HG2	762.013	199.284	-723.193	 H	11	VAL11	0.079	
175	2HG2	760.617	199.833	-724.126	 H	11	VAL11	0.079	
176	3HG2	762.106	199.333	-724.970	 H	11	VAL11	0.079	
177	   N	764.029	203.691	-722.954	N.am	12	GLN12	-0.416	
178	  CA	764.476	205.075	-723.080	C.3	12	GLN12	-0.003	
179	   C	765.966	205.145	-723.316	C.2	12	GLN12	0.597	
180	   O	766.452	205.855	-724.193	O.2	12	GLN12	-0.568	
181	  CB	764.083	205.840	-721.796	C.3	12	GLN12	-0.004	
182	  CG	764.440	207.363	-721.763	C.3	12	GLN12	-0.064	
183	  CD	764.136	208.174	-720.497	C.2	12	GLN12	0.695	
184	 NE2	763.569	207.595	-719.470	N.pl3	12	GLN12	-0.941	
185	 OE1	764.436	209.355	-720.418	O.2	12	GLN12	-0.609	
186	   H	763.540	203.383	-722.126	 H	12	GLN12	0.272	
187	  HA	763.976	205.531	-723.954	 H	12	GLN12	0.085	
188	 2HB	764.559	205.340	-720.927	 H	12	GLN12	0.017	
189	 3HB	762.992	205.731	-721.634	 H	12	GLN12	0.017	
190	 2HG	763.963	207.884	-722.613	 H	12	GLN12	0.035	
191	 3HG	765.524	207.506	-721.928	 H	12	GLN12	0.035	
192	1HE2	763.460	208.189	-718.645	 H	12	GLN12	0.425	
193	2HE2	763.407	206.592	-719.574	 H	12	GLN12	0.425	
194	   N	766.751	204.438	-722.575	N.am	13	ARG13	-0.348	
195	  CA	768.191	204.507	-722.805	C.3	13	ARG13	-0.264	
196	   C	768.529	204.137	-724.230	C.2	13	ARG13	0.734	
197	   O	769.297	204.811	-724.913	O.2	13	ARG13	-0.589	
198	  CB	768.905	203.568	-721.791	C.3	13	ARG13	-0.001	
199	  CG	770.450	203.723	-721.709	C.3	13	ARG13	0.039	
200	  CD	771.077	202.735	-720.712	C.3	13	ARG13	0.049	
201	  NE	772.554	202.945	-720.660	N.pl3	13	ARG13	-0.530	
202	  CZ	773.403	202.254	-719.905	C.cat	13	ARG13	0.808	
203	 NH1	773.038	201.288	-719.109	N.pl3	13	ARG13	-0.863	
204	 NH2	774.662	202.555	-719.960	N.pl3	13	ARG13	-0.863	
205	   H	766.375	203.847	-721.848	 H	13	ARG13	0.275	
206	  HA	768.514	205.553	-722.645	 H	13	ARG13	0.156	
207	 2HB	768.641	202.517	-722.032	 H	13	ARG13	0.033	
208	 3HB	768.479	203.732	-720.781	 H	13	ARG13	0.033	
209	 2HG	770.696	204.768	-721.428	 H	13	ARG13	0.029	
210	 3HG	770.901	203.569	-722.710	 H	13	ARG13	0.029	
211	 2HD	770.835	201.695	-721.022	 H	13	ARG13	0.069	
212	 3HD	770.620	202.879	-719.709	 H	13	ARG13	0.069	
213	  HE	773.005	203.668	-721.229	 H	13	ARG13	0.346	
214	1HH1	772.033	201.100	-719.113	 H	13	ARG13	0.448	
215	2HH1	773.752	200.805	-718.560	 H	13	ARG13	0.448	
216	1HH2	774.928	203.314	-720.590	 H	13	ARG13	0.448	
217	2HH2	775.297	202.014	-719.372	 H	13	ARG13	0.448	
218	   N	767.995	203.083	-724.746	N.am	14	VAL14	-0.416	
219	  CA	768.321	202.725	-726.124	C.3	14	VAL14	-0.087	
220	   C	767.990	203.856	-727.068	C.2	14	VAL14	0.597	
221	   O	768.784	204.239	-727.937	O.2	14	VAL14	-0.568	
222	  CB	767.551	201.408	-726.532	C.3	14	VAL14	0.299	
223	 CG1	767.642	200.991	-728.026	C.3	14	VAL14	-0.319	
224	 CG2	767.984	200.155	-725.733	C.3	14	VAL14	-0.319	
225	   H	767.360	202.513	-724.205	 H	14	VAL14	0.272	
226	  HA	769.410	202.550	-726.198	 H	14	VAL14	0.097	
227	  HB	766.474	201.577	-726.317	 H	14	VAL14	-0.030	
228	1HG1	768.684	200.816	-728.355	 H	14	VAL14	0.079	
229	2HG1	767.071	200.067	-728.241	 H	14	VAL14	0.079	
230	3HG1	767.212	201.753	-728.704	 H	14	VAL14	0.079	
231	1HG2	767.896	200.312	-724.643	 H	14	VAL14	0.079	
232	2HG2	767.350	199.278	-725.967	 H	14	VAL14	0.079	
233	3HG2	769.033	199.867	-725.938	 H	14	VAL14	0.079	
234	   N	766.844	204.440	-726.967	N.am	15	MET15	-0.416	
235	  CA	766.523	205.533	-727.880	C.3	15	MET15	-0.024	
236	   C	767.552	206.634	-727.790	C.2	15	MET15	0.597	
237	   O	768.054	207.147	-728.802	O.2	15	MET15	-0.568	
238	  CB	765.101	206.076	-727.571	C.3	15	MET15	0.034	
239	  CG	763.940	205.077	-727.765	C.3	15	MET15	0.002	
240	  SD	762.365	205.940	-727.651	S.3	15	MET15	-0.274	
241	  CE	761.286	204.509	-727.516	C.3	15	MET15	-0.054	
242	   H	766.180	204.145	-726.266	 H	15	MET15	0.272	
243	  HA	766.550	205.147	-728.916	 H	15	MET15	0.088	
244	 2HB	764.897	206.955	-728.212	 H	15	MET15	0.024	
245	 3HB	765.064	206.468	-726.534	 H	15	MET15	0.024	
246	 2HG	763.984	204.290	-726.988	 H	15	MET15	0.044	
247	 3HG	764.005	204.563	-728.741	 H	15	MET15	0.044	
248	 1HE	761.431	203.822	-728.369	 H	15	MET15	0.068	
249	 2HE	761.495	203.955	-726.584	 H	15	MET15	0.068	
250	 3HE	760.228	204.822	-727.500	 H	15	MET15	0.068	
251	   N	767.919	207.055	-726.627	N.am	16	ARG16	-0.348	
252	  CA	768.914	208.120	-726.542	C.3	16	ARG16	-0.264	
253	   C	770.185	207.730	-727.257	C.2	16	ARG16	0.734	
254	   O	770.301	206.654	-727.840	O.2	16	ARG16	-0.589	
255	  CB	769.181	208.437	-725.043	C.3	16	ARG16	-0.001	
256	  CG	770.004	209.727	-724.768	C.3	16	ARG16	0.039	
257	  CD	770.252	209.945	-723.266	C.3	16	ARG16	0.049	
258	  NE	771.026	211.205	-723.063	N.pl3	16	ARG16	-0.530	
259	  CZ	771.416	211.687	-721.887	C.cat	16	ARG16	0.808	
260	 NH1	771.168	211.101	-720.749	N.pl3	16	ARG16	-0.863	
261	 NH2	772.078	212.800	-721.867	N.pl3	16	ARG16	-0.863	
262	   H	767.524	206.654	-725.789	 H	16	ARG16	0.275	
263	  HA	768.504	209.013	-727.051	 H	16	ARG16	0.156	
264	 2HB	769.679	207.561	-724.577	 H	16	ARG16	0.033	
265	 3HB	768.212	208.516	-724.510	 H	16	ARG16	0.033	
266	 2HG	769.473	210.598	-725.205	 H	16	ARG16	0.029	
267	 3HG	770.978	209.676	-725.296	 H	16	ARG16	0.029	
268	 2HD	770.802	209.071	-722.853	 H	16	ARG16	0.069	
269	 3HD	769.279	209.986	-722.732	 H	16	ARG16	0.069	
270	  HE	771.305	211.787	-723.860	 H	16	ARG16	0.346	
271	1HH1	770.644	210.227	-720.835	 H	16	ARG16	0.448	
272	2HH1	771.502	211.536	-719.888	 H	16	ARG16	0.448	
273	1HH2	772.264	213.245	-722.768	 H	16	ARG16	0.448	
274	2HH2	772.367	213.155	-720.954	 H	16	ARG16	0.448	
@<TRIPOS>BOND
1 1 2 1
2 1 10 1
3 2 3 1
4 2 5 1
5 2 11 1
6 3 4 2
7 3 16 1
8 5 6 1
9 6 7 1
10 7 8 2
11 7 9 1
12 5 12 1
13 5 13 1
14 6 14 1
15 6 15 1
16 16 17 1
17 16 24 1
18 17 18 1
19 17 20 1
20 17 25 1
21 18 19 2
22 18 30 1
23 20 21 1
24 21 22 1
25 21 23 2
26 20 26 1
27 20 27 1
28 22 28 1
29 22 29 1
30 30 31 1
31 30 36 1
32 31 32 1
33 31 34 1
34 31 37 1
35 32 33 2
36 32 44 1
37 34 35 1
38 35 36 1
39 34 38 1
40 34 39 1
41 35 40 1
42 35 41 1
43 36 42 1
44 36 43 1
45 44 45 1
46 44 53 1
47 45 46 1
48 45 48 1
49 45 54 1
50 46 47 2
51 46 59 1
52 48 49 1
53 49 50 1
54 50 51 2
55 50 52 1
56 48 55 1
57 48 56 1
58 49 57 1
59 49 58 1
60 59 60 1
61 59 70 1
62 60 61 1
63 60 63 1
64 60 71 1
65 61 62 2
66 61 79 1
67 63 64 1
68 64 65 2
69 64 66 1
70 66 68 2
71 65 67 1
72 68 69 1
73 67 69 2
74 63 72 1
75 63 73 1
76 65 74 1
77 66 75 1
78 67 76 1
79 68 77 1
80 69 78 1
81 79 80 1
82 79 87 1
83 80 81 1
84 80 83 1
85 80 88 1
86 81 82 2
87 81 98 1
88 83 84 1
89 83 85 1
90 84 86 1
91 83 89 1
92 84 90 1
93 84 91 1
94 85 92 1
95 85 93 1
96 85 94 1
97 86 95 1
98 86 96 1
99 86 97 1
100 98 99 1
101 98 106 1
102 99 100 1
103 99 102 1
104 99 107 1
105 100 101 2
106 100 117 1
107 102 103 1
108 103 104 1
109 103 105 1
110 102 108 1
111 102 109 1
112 103 110 1
113 104 111 1
114 104 112 1
115 104 113 1
116 105 114 1
117 105 115 1
118 105 116 1
119 117 118 1
120 117 125 1
121 118 119 1
122 118 121 1
123 118 126 1
124 119 120 2
125 119 129 1
126 121 122 1
127 122 123 2
128 122 124 1
129 121 127 1
130 121 128 1
131 129 130 1
132 129 138 1
133 130 131 1
134 130 133 1
135 130 139 1
136 131 132 2
137 131 144 1
138 133 134 1
139 134 135 1
140 135 136 2
141 135 137 1
142 133 140 1
143 133 141 1
144 134 142 1
145 134 143 1
146 144 145 1
147 144 154 1
148 145 146 1
149 145 148 1
150 145 155 1
151 146 147 2
152 146 161 1
153 148 149 1
154 149 150 2
155 150 153 1
156 149 151 1
157 151 152 2
158 152 153 1
159 148 156 1
160 148 157 1
161 150 158 1
162 152 159 1
163 153 160 1
164 161 162 1
165 161 168 1
166 162 163 1
167 162 165 1
168 162 169 1
169 163 164 2
170 163 177 1
171 165 166 1
172 165 167 1
173 165 170 1
174 166 171 1
175 166 172 1
176 166 173 1
177 167 174 1
178 167 175 1
179 167 176 1
180 177 178 1
181 177 186 1
182 178 179 1
183 178 181 1
184 178 187 1
185 179 180 2
186 179 194 1
187 181 182 1
188 182 183 1
189 183 184 1
190 183 185 2
191 181 188 1
192 181 189 1
193 182 190 1
194 182 191 1
195 184 192 1
196 184 193 1
197 194 195 1
198 194 205 1
199 195 196 1
200 195 198 1
201 195 206 1
202 196 197 2
203 196 218 1
204 198 199 1
205 199 200 1
206 200 201 1
207 201 202 1
208 202 203 2
209 202 204 1
210 198 207 1
211 198 208 1
212 199 209 1
213 199 210 1
214 200 211 1
215 200 212 1
216 201 213 1
217 203 214 1
218 203 215 1
219 204 216 1
220 204 217 1
221 218 219 1
222 218 225 1
223 219 220 1
224 219 222 1
225 219 226 1
226 220 221 2
227 220 234 1
228 222 223 1
229 222 224 1
230 222 227 1
231 223 228 1
232 223 229 1
233 223 230 1
234 224 231 1
235 224 232 1
236 224 233 1
237 234 235 1
238 234 242 1
239 235 236 1
240 235 238 1
241 235 243 1
242 236 237 2
243 236 251 1
244 238 239 1
245 239 240 1
246 240 241 1
247 238 244 1
248 238 245 1
249 239 246 1
250 239 247 1
251 241 248 1
252 241 249 1
253 241 250 1
254 251 252 1
255 251 262 1
256 252 253 1
257 252 255 1
258 252 263 1
259 253 254 2
260 255 256 1
261 256 257 1
262 257 258 1
263 258 259 1
264 259 260 2
265 259 261 1
266 255 264 1
267 255 265 1
268 256 266 1
269 256 267 1
270 257 268 1
271 257 269 1
272 258 270 1
273 260 271 1
274 260 272 1
275 261 273 1
276 261 274 1
@<TRIPOS>SUBSTRUCTURE
1	GLU1	1	RESIDUE	1 ****	GLU
2	ASN2	16	RESIDUE	1 ****	ASN
3	PRO3	30	RESIDUE	1 ****	PRO
4	GLU4	44	RESIDUE	1 ****	GLU
5	PHE5	59	RESIDUE	1 ****	PHE
6	ILE6	79	RESIDUE	1 ****	ILE
7	LEU7	98	RESIDUE	1 ****	LEU
8	ASP8	117	RESIDUE	1 ****	ASP
9	GLU9	129	RESIDUE	1 ****	GLU
10	HIS10	144	RESIDUE	1 ****	HIS
11	VAL11	161	RESIDUE	1 ****	VAL
12	GLN12	177	RESIDUE	1 ****	GLN
13	ARG13	194	RESIDUE	1 ****	ARG
14	VAL14	218	RESIDUE	1 ****	VAL
15	MET15	234	RESIDUE	1 ****	MET
16	ARG16	251	RESIDUE	1 ****	ARG
