REMARK WARNING: 32 MAX_TORS EXCEEDED!!!
REMARK  67 active torsions:
REMARK  status: ('A' for Active; 'I' for Inactive)
REMARK    1  A    between atoms: N_1  and  CA_2 
REMARK    2  A    between atoms: CA_2  and  C_3 
REMARK    3  A    between atoms: CA_2  and  CB_5 
REMARK       I    between atoms: C_3  and  N_11 
REMARK    4  A    between atoms: CB_5  and  CG_6 
REMARK    5  A    between atoms: CG_6  and  CD_7 
REMARK    6  A    between atoms: N_11  and  CA_12 
REMARK    7  A    between atoms: CA_12  and  C_13 
REMARK    8  A    between atoms: CA_12  and  CB_15 
REMARK       I    between atoms: C_13  and  N_22 
REMARK    9  A    between atoms: CB_15  and  CG_16 
REMARK       I    between atoms: CG_16  and  ND2_17 
REMARK   10  A    between atoms: CA_23  and  C_24 
REMARK       I    between atoms: C_24  and  N_29 
REMARK   11  A    between atoms: N_29  and  CA_30 
REMARK   12  A    between atoms: CA_30  and  C_31 
REMARK   13  A    between atoms: CA_30  and  CB_33 
REMARK       I    between atoms: C_31  and  N_39 
REMARK   14  A    between atoms: CB_33  and  CG_34 
REMARK   15  A    between atoms: CG_34  and  CD_35 
REMARK   16  A    between atoms: N_39  and  CA_40 
REMARK   17  A    between atoms: CA_40  and  C_41 
REMARK   18  A    between atoms: CA_40  and  CB_43 
REMARK       I    between atoms: C_41  and  N_47 
REMARK   19  A    between atoms: CB_43  and  OG_44 
REMARK   20  A    between atoms: N_47  and  CA_48 
REMARK   21  A    between atoms: CA_48  and  C_49 
REMARK   22  A    between atoms: CA_48  and  CB_51 
REMARK       I    between atoms: C_49  and  N_56 
REMARK   23  A    between atoms: CB_51  and  CG1_52 
REMARK   24  A    between atoms: N_56  and  CA_57 
REMARK   25  A    between atoms: CA_57  and  C_58 
REMARK   26  A    between atoms: CA_57  and  CB_60 
REMARK       I    between atoms: C_58  and  N_65 
REMARK   27  A    between atoms: CB_60  and  CG_61 
REMARK   28  A    between atoms: N_65  and  CA_66 
REMARK   29  A    between atoms: CA_66  and  C_67 
REMARK   30  A    between atoms: CA_66  and  CB_69 
REMARK       I    between atoms: C_67  and  N_74 
REMARK   31  A    between atoms: CB_69  and  CG_70 
REMARK   32  A    between atoms: N_74  and  CA_75 
REMARK   33  A    between atoms: CA_75  and  C_76 
REMARK   34  A    between atoms: CA_75  and  CB_78 
REMARK       I    between atoms: C_76  and  N_84 
REMARK   35  A    between atoms: CB_78  and  CG_79 
REMARK   36  A    between atoms: CG_79  and  CD_80 
REMARK   37  A    between atoms: N_84  and  CA_85 
REMARK   38  A    between atoms: CA_85  and  C_86 
REMARK   39  A    between atoms: CA_85  and  CB_88 
REMARK       I    between atoms: C_86  and  N_96 
REMARK   40  A    between atoms: CB_88  and  CG_89 
REMARK   41  A    between atoms: N_96  and  CA_97 
REMARK   42  A    between atoms: CA_97  and  C_98 
REMARK   43  A    between atoms: CA_97  and  CB_100 
REMARK       I    between atoms: C_98  and  N_104 
REMARK   44  A    between atoms: N_104  and  CA_105 
REMARK   45  A    between atoms: CA_105  and  C_106 
REMARK   46  A    between atoms: CA_105  and  CB_108 
REMARK       I    between atoms: C_106  and  N_116 
REMARK   47  A    between atoms: CB_108  and  CG_109 
REMARK   48  A    between atoms: N_116  and  CA_117 
REMARK   49  A    between atoms: CA_117  and  C_118 
REMARK   50  A    between atoms: CA_117  and  CB_120 
REMARK       I    between atoms: C_118  and  N_133 
REMARK   51  A    between atoms: CB_120  and  CG_121 
REMARK   52  A    between atoms: CG_121  and  CD_122 
REMARK   53  A    between atoms: CD_122  and  NE_123 
REMARK       I    between atoms: NE_123  and  CZ_124 
REMARK       I    between atoms: CZ_124  and  NH1_125 
REMARK       I    between atoms: CZ_124  and  NH2_126 
REMARK   54  A    between atoms: N_133  and  CA_134 
REMARK   55  A    between atoms: CA_134  and  C_135 
REMARK   56  A    between atoms: CA_134  and  CB_137 
REMARK       I    between atoms: C_135  and  N_141 
REMARK   57  A    between atoms: N_141  and  CA_142 
REMARK   58  A    between atoms: CA_142  and  C_143 
REMARK   59  A    between atoms: CA_142  and  CB_145 
REMARK       I    between atoms: C_143  and  N_150 
REMARK   60  A    between atoms: CB_145  and  CG_146 
REMARK   61  A    between atoms: CG_146  and  SD_147 
REMARK   62  A    between atoms: N_150  and  CA_151 
REMARK   63  A    between atoms: CA_151  and  C_152 
REMARK   64  A    between atoms: CA_151  and  CB_154 
REMARK   65  A    between atoms: CB_154  and  CG_155 
REMARK   66  A    between atoms: CG_155  and  CD_156 
REMARK   67  A    between atoms: CD_156  and  NE_157 
REMARK       I    between atoms: NE_157  and  CZ_158 
REMARK       I    between atoms: CZ_158  and  NH1_159 
ROOT
ATOM      1  C   GLU d   9    1937.605 587.446-1990.862  0.00  0.00     0.241 C 
ATOM      2  O   GLU d   9    1938.268 588.201-1991.587  0.00  0.00    -0.271 OA
ATOM      3  N   HIS d  10    1937.702 586.171-1991.031  0.00  0.00    -0.346 N 
ATOM      4  H   HIS d  10    1937.172 585.535-1990.453  0.00  0.00     0.163 HD
ENDROOT
BRANCH   1   5
ATOM      5  CA  GLU d   9    1936.687 587.973-1989.786  0.00  0.00     0.177 C 
BRANCH   5   6
ATOM      6  N   GLU d   9    1935.384 587.315-1989.841  0.00  0.00    -0.346 N 
ATOM      7  C   ASP d   8    1934.704 587.365-1990.936  0.00  0.00     0.241 C 
ATOM      8  O   ASP d   8    1935.177 587.971-1991.911  0.00  0.00    -0.271 OA
ATOM      9  H   GLU d   9    1935.021 586.828-1989.034  0.00  0.00     0.163 HD
BRANCH   7  10
ATOM     10  CA  ASP d   8    1933.358 586.685-1990.993  0.00  0.00     0.186 C 
BRANCH  10  11
ATOM     11  N   ASP d   8    1933.429 585.335-1990.440  0.00  0.00    -0.346 N 
ATOM     12  C   LEU d   7    1934.266 584.495-1990.947  0.00  0.00     0.241 C 
ATOM     13  O   LEU d   7    1934.987 584.858-1991.888  0.00  0.00    -0.271 OA
ATOM     14  H   ASP d   8    1932.831 585.064-1989.673  0.00  0.00     0.163 HD
BRANCH  12  15
ATOM     15  CA  LEU d   7    1934.339 583.100-1990.374  0.00  0.00     0.177 C 
BRANCH  15  16
ATOM     16  N   LEU d   7    1934.394 583.136-1988.916  0.00  0.00    -0.346 N 
ATOM     17  C   ILE d   6    1935.339 583.799-1988.342  0.00  0.00     0.241 C 
ATOM     18  O   ILE d   6    1936.174 584.387-1989.046  0.00  0.00    -0.271 OA
ATOM     19  H   LEU d   7    1933.702 582.649-1988.364  0.00  0.00     0.163 HD
BRANCH  17  20
ATOM     20  CA  ILE d   6    1935.397 583.837-1986.834  0.00  0.00     0.180 C 
BRANCH  20  21
ATOM     21  N   ILE d   6    1934.083 584.132-1986.268  0.00  0.00    -0.346 N 
ATOM     22  C   SER d   5    1933.479 585.215-1986.622  0.00  0.00     0.243 C 
ATOM     23  O   SER d   5    1934.026 585.968-1987.427  0.00  0.00    -0.271 OA
ATOM     24  H   ILE d   6    1933.655 583.497-1985.609  0.00  0.00     0.163 HD
BRANCH  22  25
ATOM     25  CA  SER d   5    1932.120 585.520-1986.036  0.00  0.00     0.200 C 
BRANCH  25  26
ATOM     26  N   SER d   5    1931.250 584.349-1986.095  0.00  0.00    -0.344 N 
ATOM     27  C   GLU d   4    1931.023 583.796-1987.238  0.00  0.00     0.241 C 
ATOM     28  O   GLU d   4    1931.549 584.276-1988.253  0.00  0.00    -0.271 OA
ATOM     29  H   SER d   5    1930.833 583.977-1985.253  0.00  0.00     0.163 HD
BRANCH  27  30
ATOM     30  CA  GLU d   4    1930.124 582.585-1987.299  0.00  0.00     0.177 C 
BRANCH  30  31
ATOM     31  N   GLU d   4    1930.484 581.614-1986.270  0.00  0.00    -0.346 N 
ATOM     32  C   PRO d   3    1931.688 581.154-1986.237  0.00  0.00     0.241 C 
ATOM     33  O   PRO d   3    1932.512 581.537-1987.069  0.00  0.00    -0.271 OA
ATOM     34  H   GLU d   4    1929.799 581.307-1985.593  0.00  0.00     0.163 HD
BRANCH  32  35
ATOM     35  CA  PRO d   3    1932.086 580.131-1985.160  0.00  0.00     0.179 C 
ATOM     36  N   PRO d   3    1931.635 580.540-1983.839  0.00  0.00    -0.337 N 
ATOM     37  C   ASN d   2    1932.156 581.535-1983.205  0.00  0.00     0.243 C 
ATOM     38  CD  PRO d   3    1930.557 579.747-1983.290  0.00  0.00     0.127 C 
ATOM     39  O   ASN d   2    1933.071 582.165-1983.734  0.00  0.00    -0.271 OA
ATOM     40  CG  PRO d   3    1930.099 578.928-1984.500  0.00  0.00     0.022 C 
ATOM     41  CB  PRO d   3    1931.382 578.776-1985.330  0.00  0.00     0.037 C 
BRANCH  37  42
ATOM     42  CA  ASN d   2    1931.625 581.891-1981.836  0.00  0.00     0.185 C 
BRANCH  42  43
ATOM     43  N   ASN d   2    1930.166 581.929-1981.836  0.00  0.00    -0.346 N 
ATOM     44  C   GLU d   1    1929.561 582.715-1982.661  0.00  0.00     0.242 C 
ATOM     45  O   GLU d   1    1930.237 583.414-1983.430  0.00  0.00    -0.271 OA
ATOM     46  H   ASN d   2    1929.637 581.350-1981.200  0.00  0.00     0.163 HD
BRANCH  44  47
ATOM     47  CA  GLU d   1    1928.052 582.755-1982.661  0.00  0.00     0.191 C 
BRANCH  47  48
ATOM     48  N   GLU d   1    1927.493 581.406-1982.661  0.00  0.00    -0.326 NA
ATOM     49  H   GLU d   1    1928.120 580.527-1982.661  0.00  0.00     0.180 HD
ENDBRANCH  47  48
BRANCH  47  50
ATOM     50  CB  GLU d   1    1927.529 583.540-1981.424  0.00  0.00     0.047 C 
BRANCH  50  51
ATOM     51  CG  GLU d   1    1928.004 585.025-1981.313  0.00  0.00     0.116 C 
BRANCH  51  52
ATOM     52  CD  GLU d   1    1927.580 585.829-1980.098  0.00  0.00     0.172 C 
ATOM     53  OE1 GLU d   1    1926.852 585.327-1979.220  0.00  0.00    -0.648 OA
ATOM     54  OE2 GLU d   1    1928.010 586.999-1980.026  0.00  0.00    -0.648 OA
ENDBRANCH  51  52
ENDBRANCH  50  51
ENDBRANCH  47  50
ENDBRANCH  44  47
ENDBRANCH  42  43
BRANCH  42  55
ATOM     55  CB  ASN d   2    1932.117 580.867-1980.772  0.00  0.00     0.137 C 
BRANCH  55  56
ATOM     56  CG  ASN d   2    1931.654 581.091-1979.328  0.00  0.00     0.217 C 
ATOM     57  ND2 ASN d   2    1932.248 582.006-1978.610  0.00  0.00    -0.370 N 
ATOM     58 21HD ASN d   2    1931.767 582.179-1977.724  0.00  0.00     0.159 HD
ATOM     59 22HD ASN d   2    1932.950 582.578-1979.079  0.00  0.00     0.159 HD
ATOM     60  OD1 ASN d   2    1930.733 580.458-1978.834  0.00  0.00    -0.274 OA
ENDBRANCH  55  56
ENDBRANCH  42  55
ENDBRANCH  37  42
ENDBRANCH  32  35
ENDBRANCH  30  31
BRANCH  30  61
ATOM     61  CB  GLU d   4    1928.635 583.004-1987.129  0.00  0.00     0.045 C 
BRANCH  61  62
ATOM     62  CG  GLU d   4    1928.087 584.008-1988.195  0.00  0.00     0.116 C 
BRANCH  62  63
ATOM     63  CD  GLU d   4    1926.661 584.505-1988.051  0.00  0.00     0.172 C 
ATOM     64  OE1 GLU d   4    1925.934 584.106-1987.120  0.00  0.00    -0.648 OA
ATOM     65  OE2 GLU d   4    1926.271 585.334-1988.899  0.00  0.00    -0.648 OA
ENDBRANCH  62  63
ENDBRANCH  61  62
ENDBRANCH  30  61
ENDBRANCH  27  30
ENDBRANCH  25  26
BRANCH  25  66
ATOM     66  CB  SER d   5    1932.231 586.053-1984.586  0.00  0.00     0.199 C 
BRANCH  66  67
ATOM     67  OG  SER d   5    1932.963 585.173-1983.725  0.00  0.00    -0.398 OA
ATOM     68  HG  SER d   5    1932.474 584.348-1983.674  0.00  0.00     0.209 HD
ENDBRANCH  66  67
ENDBRANCH  25  66
ENDBRANCH  22  25
ENDBRANCH  20  21
BRANCH  20  69
ATOM     69  CB  ILE d   6    1935.996 582.501-1986.234  0.00  0.00     0.013 C 
ATOM     70  CG2 ILE d   6    1937.438 582.199-1986.749  0.00  0.00     0.012 C 
BRANCH  69  71
ATOM     71  CG1 ILE d   6    1936.016 582.439-1984.673  0.00  0.00     0.002 C 
ATOM     72  CD1 ILE d   6    1936.286 581.050-1984.058  0.00  0.00     0.005 C 
ENDBRANCH  69  71
ENDBRANCH  20  69
ENDBRANCH  17  20
ENDBRANCH  15  16
BRANCH  15  73
ATOM     73  CB  LEU d   7    1933.136 582.239-1990.854  0.00  0.00     0.038 C 
BRANCH  73  74
ATOM     74  CG  LEU d   7    1933.063 580.760-1990.388  0.00  0.00    -0.020 C 
ATOM     75  CD1 LEU d   7    1931.873 580.054-1991.053  0.00  0.00     0.009 C 
ATOM     76  CD2 LEU d   7    1934.357 579.981-1990.679  0.00  0.00     0.009 C 
ENDBRANCH  73  74
ENDBRANCH  15  73
ENDBRANCH  12  15
ENDBRANCH  10  11
BRANCH  10  77
ATOM     77  CB  ASP d   8    1932.280 587.524-1990.252  0.00  0.00     0.147 C 
BRANCH  77  78
ATOM     78  CG  ASP d   8    1932.061 588.944-1990.792  0.00  0.00     0.175 C 
ATOM     79  OD1 ASP d   8    1932.125 589.144-1992.022  0.00  0.00    -0.648 OA
ATOM     80  OD2 ASP d   8    1931.868 589.870-1989.976  0.00  0.00    -0.648 OA
ENDBRANCH  77  78
ENDBRANCH  10  77
ENDBRANCH   7  10
ENDBRANCH   5   6
BRANCH   5  81
ATOM     81  CB  GLU d   9    1937.321 587.766-1988.380  0.00  0.00     0.045 C 
BRANCH  81  82
ATOM     82  CG  GLU d   9    1938.703 588.459-1988.151  0.00  0.00     0.116 C 
BRANCH  82  83
ATOM     83  CD  GLU d   9    1939.405 588.245-1986.823  0.00  0.00     0.172 C 
ATOM     84  OE1 GLU d   9    1938.884 587.554-1985.927  0.00  0.00    -0.648 OA
ATOM     85  OE2 GLU d   9    1940.524 588.784-1986.691  0.00  0.00    -0.648 OA
ENDBRANCH  82  83
ENDBRANCH  81  82
ENDBRANCH   5  81
ENDBRANCH   1   5
BRANCH   3  86
ATOM     86  CA  HIS d  10    1938.590 585.660-1992.072  0.00  0.00     0.182 C 
BRANCH  86  87
ATOM     87  C   HIS d  10    1938.223 586.225-1993.423  0.00  0.00     0.241 C 
ATOM     88  O   HIS d  10    1939.075 586.690-1994.195  0.00  0.00    -0.271 OA
ATOM     89  N   VAL d  11    1936.985 586.224-1993.786  0.00  0.00    -0.346 N 
ATOM     90  H   VAL d  11    1936.272 585.850-1993.175  0.00  0.00     0.163 HD
BRANCH  89  91
ATOM     91  CA  VAL d  11    1936.629 586.770-1995.092  0.00  0.00     0.180 C 
BRANCH  91  92
ATOM     92  C   VAL d  11    1937.093 588.201-1995.225  0.00  0.00     0.241 C 
ATOM     93  O   VAL d  11    1937.693 588.606-1996.228  0.00  0.00    -0.271 OA
ATOM     94  N   HIS d  12    1936.855 589.026-1994.262  0.00  0.00    -0.346 N 
ATOM     95  H   HIS d  12    1936.367 588.719-1993.433  0.00  0.00     0.163 HD
BRANCH  94  96
ATOM     96  CA  HIS d  12    1937.303 590.410-1994.389  0.00  0.00     0.182 C 
BRANCH  96  97
ATOM     97  C   HIS d  12    1938.792 590.478-1994.627  0.00  0.00     0.241 C 
ATOM     98  O   HIS d  12    1939.284 591.193-1995.513  0.00  0.00    -0.271 OA
ATOM     99  N   ARG d  13    1939.577 589.771-1993.886  0.00  0.00    -0.346 N 
ATOM    100  H   ARG d  13    1939.201 589.181-1993.158  0.00  0.00     0.163 HD
BRANCH  99 101
ATOM    101  CA  ARG d  13    1941.017 589.838-1994.117  0.00  0.00     0.176 C 
BRANCH 101 102
ATOM    102  C   ARG d  13    1941.354 589.467-1995.542  0.00  0.00     0.241 C 
ATOM    103  O   ARG d  13    1942.122 590.139-1996.226  0.00  0.00    -0.271 OA
ATOM    104  N   VAL d  14    1940.818 588.412-1996.057  0.00  0.00    -0.346 N 
ATOM    105  H   VAL d  14    1940.183 587.844-1995.515  0.00  0.00     0.163 HD
BRANCH 104 106
ATOM    106  CA  VAL d  14    1941.142 588.053-1997.435  0.00  0.00     0.180 C 
BRANCH 106 107
ATOM    107  C   VAL d  14    1940.812 589.183-1998.380  0.00  0.00     0.241 C 
ATOM    108  O   VAL d  14    1941.605 589.565-1999.250  0.00  0.00    -0.271 OA
ATOM    109  N   MET d  15    1939.667 589.769-1998.278  0.00  0.00    -0.346 N 
ATOM    110  H   MET d  15    1939.002 589.476-1997.577  0.00  0.00     0.163 HD
BRANCH 109 111
ATOM    111  CA  MET d  15    1939.347 590.862-1999.192  0.00  0.00     0.177 C 
BRANCH 111 112
ATOM    112  C   MET d  15    1940.377 591.962-1999.104  0.00  0.00     0.241 C 
ATOM    113  O   MET d  15    1940.879 592.473-2000.116  0.00  0.00    -0.271 OA
ATOM    114  N   ARG d  16    1940.745 592.383-1997.941  0.00  0.00    -0.347 N 
ATOM    115  H   ARG d  16    1940.351 591.983-1997.102  0.00  0.00     0.163 HD
BRANCH 114 116
ATOM    116  CA  ARG d  16    1941.742 593.447-1997.858  0.00  0.00     0.162 C 
BRANCH 116 117
ATOM    117  C   ARG d  16    1943.012 593.054-1998.574  0.00  0.00     0.219 C 
ATOM    118  O   ARG d  16    1943.126 591.978-1999.156  0.00  0.00    -0.287 OA
ENDBRANCH 116 117
BRANCH 116 119
ATOM    119  CB  ARG d  16    1942.011 593.764-1996.359  0.00  0.00     0.035 C 
BRANCH 119 120
ATOM    120  CG  ARG d  16    1942.836 595.054-1996.086  0.00  0.00     0.023 C 
BRANCH 120 121
ATOM    121  CD  ARG d  16    1943.085 595.273-1994.585  0.00  0.00     0.138 C 
BRANCH 121 122
ATOM    122  NE  ARG d  16    1943.861 596.532-1994.384  0.00  0.00    -0.227 N 
ATOM    123  CZ  ARG d  16    1944.253 597.014-1993.208  0.00  0.00     0.665 C 
ATOM    124  NH1 ARG d  16    1944.005 596.430-1992.070  0.00  0.00    -0.235 N 
ATOM    125  NH2 ARG d  16    1944.917 598.127-1993.190  0.00  0.00    -0.235 N 
ATOM    126 11HH ARG d  16    1943.480 595.556-1992.154  0.00  0.00     0.174 HD
ATOM    127 12HH ARG d  16    1944.340 596.865-1991.209  0.00  0.00     0.174 HD
ATOM    128 21HH ARG d  16    1945.102 598.570-1994.091  0.00  0.00     0.174 HD
ATOM    129 22HH ARG d  16    1945.207 598.482-1992.277  0.00  0.00     0.174 HD
ATOM    130  HE  ARG d  16    1944.140 597.113-1995.181  0.00  0.00     0.177 HD
ENDBRANCH 121 122
ENDBRANCH 120 121
ENDBRANCH 119 120
ENDBRANCH 116 119
ENDBRANCH 114 116
ENDBRANCH 111 112
BRANCH 111 131
ATOM    131  CB  MET d  15    1937.925 591.407-1998.882  0.00  0.00     0.045 C 
BRANCH 131 132
ATOM    132  CG  MET d  15    1936.763 590.409-1999.074  0.00  0.00     0.076 C 
BRANCH 132 133
ATOM    133  SD  MET d  15    1935.189 591.275-1998.960  0.00  0.00    -0.173 SA
ATOM    134  CE  MET d  15    1934.108 589.845-1998.823  0.00  0.00     0.089 C 
ENDBRANCH 132 133
ENDBRANCH 131 132
ENDBRANCH 111 131
ENDBRANCH 109 111
ENDBRANCH 106 107
BRANCH 106 135
ATOM    135  CB  VAL d  14    1940.370 586.736-1997.842  0.00  0.00     0.009 C 
ATOM    136  CG1 VAL d  14    1940.459 586.318-1999.335  0.00  0.00     0.012 C 
ATOM    137  CG2 VAL d  14    1940.802 585.484-1997.042  0.00  0.00     0.012 C 
ENDBRANCH 106 135
ENDBRANCH 104 106
ENDBRANCH 101 102
BRANCH 101 138
ATOM    138  CB  ARG d  13    1941.731 588.898-1993.104  0.00  0.00     0.036 C 
BRANCH 138 139
ATOM    139  CG  ARG d  13    1943.276 589.052-1993.022  0.00  0.00     0.023 C 
BRANCH 139 140
ATOM    140  CD  ARG d  13    1943.903 588.064-1992.025  0.00  0.00     0.138 C 
BRANCH 140 141
ATOM    141  NE  ARG d  13    1945.380 588.271-1991.975  0.00  0.00    -0.227 N 
ATOM    142  CZ  ARG d  13    1946.228 587.580-1991.220  0.00  0.00     0.665 C 
ATOM    143  NH1 ARG d  13    1945.863 586.615-1990.423  0.00  0.00    -0.235 N 
ATOM    144  NH2 ARG d  13    1947.488 587.879-1991.276  0.00  0.00    -0.235 N 
ATOM    145 11HH ARG d  13    1944.858 586.429-1990.426  0.00  0.00     0.174 HD
ATOM    146 12HH ARG d  13    1946.577 586.132-1989.874  0.00  0.00     0.174 HD
ATOM    147 21HH ARG d  13    1947.755 588.637-1991.907  0.00  0.00     0.174 HD
ATOM    148 22HH ARG d  13    1948.123 587.338-1990.688  0.00  0.00     0.174 HD
ATOM    149  HE  ARG d  13    1945.831 588.994-1992.545  0.00  0.00     0.177 HD
ENDBRANCH 140 141
ENDBRANCH 139 140
ENDBRANCH 138 139
ENDBRANCH 101 138
ENDBRANCH  99 101
ENDBRANCH  96  97
BRANCH  96 150
ATOM    150  CB  HIS d  12    1936.939 591.105-1993.066  0.00  0.00     0.095 C 
BRANCH 150 151
ATOM    151  CG  HIS d  12    1935.989 592.249-1993.266  0.00  0.00     0.053 A 
ATOM    152  CD2 HIS d  12    1934.610 592.096-1993.220  0.00  0.00     0.116 A 
ATOM    153  NE2 HIS d  12    1934.040 593.323-1993.443  0.00  0.00    -0.359 N 
ATOM    154  CE1 HIS d  12    1935.124 594.128-1993.608  0.00  0.00     0.207 A 
ATOM    155  2HE HIS d  12    1933.039 593.566-1993.476  0.00  0.00     0.166 HD
ATOM    156  ND1 HIS d  12    1936.346 593.573-1993.516  0.00  0.00    -0.247 NA
ENDBRANCH 150 151
ENDBRANCH  96 150
ENDBRANCH  94  96
ENDBRANCH  91  92
BRANCH  91 157
ATOM    157  CB  VAL d  11    1935.068 586.662-1995.311  0.00  0.00     0.009 C 
ATOM    158  CG1 VAL d  11    1934.499 587.366-1996.574  0.00  0.00     0.012 C 
ATOM    159  CG2 VAL d  11    1934.544 585.208-1995.385  0.00  0.00     0.012 C 
ENDBRANCH  91 157
ENDBRANCH  89  91
ENDBRANCH  86  87
BRANCH  86 160
ATOM    160  CB  HIS d  10    1938.427 584.131-1992.068  0.00  0.00     0.095 C 
BRANCH 160 161
ATOM    161  CG  HIS d  10    1939.713 583.422-1991.760  0.00  0.00     0.053 A 
ATOM    162  CD2 HIS d  10    1940.094 583.086-1990.467  0.00  0.00     0.116 A 
ATOM    163  NE2 HIS d  10    1941.309 582.455-1990.534  0.00  0.00    -0.359 N 
ATOM    164  CE1 HIS d  10    1941.572 582.459-1991.870  0.00  0.00     0.207 A 
ATOM    165  2HE HIS d  10    1941.877 582.078-1989.761  0.00  0.00     0.166 HD
ATOM    166  ND1 HIS d  10    1940.665 583.017-1992.693  0.00  0.00    -0.247 NA
ENDBRANCH 160 161
ENDBRANCH  86 160
ENDBRANCH   3  86
TORSDOF 67
