@<TRIPOS>MOLECULE
3-9
272 273 16              
SMALL
USER_CHARGES
@<TRIPOS>ATOM
1	   N	415.795	95.476	-381.856	N.3	1	GLU1	-0.516	
2	  CA	416.354	96.825	-381.856	C.3	1	GLU1	0.040	
3	   C	417.863	96.785	-381.856	C.2	1	GLU1	0.537	
4	   O	418.539	97.484	-382.624	O.2	1	GLU1	-0.582	
5	  CB	415.831	97.610	-380.619	C.3	1	GLU1	0.056	
6	  CG	416.306	99.095	-380.508	C.3	1	GLU1	0.014	
7	  CD	415.882	99.899	-379.293	C.2	1	GLU1	0.805	
8	 OE1	415.154	99.397	-378.415	O.co2	1	GLU1	-0.819	
9	 OE2	416.312	101.069	-379.221	O.co2	1	GLU1	-0.819	
10	   H	416.422	94.597	-381.856	 H	1	GLU1	0.294	
11	  HA	416.028	97.343	-382.776	 H	1	GLU1	0.111	
12	 2HB	416.120	97.079	-379.689	 H	1	GLU1	-0.017	
13	 3HB	414.724	97.600	-380.606	 H	1	GLU1	-0.017	
14	 2HG	415.996	99.680	-381.389	 H	1	GLU1	-0.043	
15	 3HG	417.406	99.162	-380.479	 H	1	GLU1	-0.043	
16	   N	418.468	95.999	-381.030	N.am	2	ASN2	-0.416	
17	  CA	419.927	95.960	-381.031	C.3	2	ASN2	0.014	
18	   C	420.458	95.605	-382.399	C.2	2	ASN2	0.597	
19	   O	421.373	96.235	-382.928	O.2	2	ASN2	-0.568	
20	  CB	420.419	94.937	-379.966	C.3	2	ASN2	-0.204	
21	  CG	419.956	95.161	-378.523	C.2	2	ASN2	0.713	
22	 ND2	420.551	96.076	-377.805	N.pl3	2	ASN2	-0.919	
23	 OD1	419.036	94.527	-378.029	O.2	2	ASN2	-0.593	
24	   H	417.940	95.419	-380.394	 H	2	ASN2	0.272	
25	  HA	420.305	96.970	-380.785	 H	2	ASN2	0.105	
26	 2HB	421.524	94.878	-379.970	 H	2	ASN2	0.080	
27	 3HB	420.090	93.919	-380.252	 H	2	ASN2	0.080	
28	1HD2	420.070	96.249	-376.918	 H	2	ASN2	0.420	
29	2HD2	421.252	96.648	-378.274	 H	2	ASN2	0.420	
30	   N	419.937	94.610	-383.033	N.am	3	TYR3	-0.416	
31	  CA	420.450	94.266	-384.356	C.3	3	TYR3	-0.001	
32	   C	420.356	95.444	-385.295	C.2	3	TYR3	0.597	
33	   O	421.301	95.787	-386.012	O.2	3	TYR3	-0.568	
34	  CB	419.641	93.091	-384.978	C.3	3	TYR3	-0.015	
35	  CG	419.672	91.757	-384.222	C.2	3	TYR3	-0.001	
36	 CD1	420.782	90.911	-384.315	C.2	3	TYR3	-0.191	
37	 CD2	418.587	91.385	-383.423	C.2	3	TYR3	-0.191	
38	 CE1	420.805	89.710	-383.612	C.2	3	TYR3	-0.234	
39	 CE2	418.612	90.184	-382.722	C.2	3	TYR3	-0.234	
40	  CZ	419.722	89.347	-382.816	C.2	3	TYR3	0.323	
41	  OH	419.750	88.168	-382.126	O.3	3	TYR3	-0.558	
42	   H	419.185	94.076	-382.621	 H	3	TYR3	0.272	
43	  HA	421.517	93.987	-384.266	 H	3	TYR3	0.088	
44	 2HB	419.997	92.897	-386.009	 H	3	TYR3	0.030	
45	 3HB	418.587	93.408	-385.125	 H	3	TYR3	0.030	
46	 1HD	421.631	91.188	-384.925	 H	3	TYR3	0.170	
47	 2HD	417.727	92.035	-383.337	 H	3	TYR3	0.170	
48	 1HE	421.664	89.058	-383.677	 H	3	TYR3	0.166	
49	 2HE	417.770	89.911	-382.104	 H	3	TYR3	0.166	
50	  HH	418.930	88.084	-381.635	 H	3	TYR3	0.399	
51	   N	419.255	96.113	-385.351	N.am	4	GLU4	-0.516	
52	  CA	419.163	97.253	-386.259	C.3	4	GLU4	0.040	
53	   C	420.243	98.266	-385.966	C.2	4	GLU4	0.537	
54	   O	420.937	98.765	-386.863	O.2	4	GLU4	-0.582	
55	  CB	417.757	97.907	-386.141	C.3	4	GLU4	0.056	
56	  CG	417.490	99.117	-387.094	C.3	4	GLU4	0.014	
57	  CD	416.160	99.840	-386.987	C.2	4	GLU4	0.805	
58	 OE1	415.292	99.466	-386.175	O.co2	4	GLU4	-0.819	
59	 OE2	415.998	100.824	-387.738	O.co2	4	GLU4	-0.819	
60	   H	418.467	95.853	-384.775	 H	4	GLU4	0.294	
61	  HA	419.308	96.893	-387.294	 H	4	GLU4	0.111	
62	 2HB	417.585	98.239	-385.097	 H	4	GLU4	-0.017	
63	 3HB	416.971	97.148	-386.319	 H	4	GLU4	-0.017	
64	 2HG	417.598	98.823	-388.151	 H	4	GLU4	-0.043	
65	 3HG	418.225	99.923	-386.933	 H	4	GLU4	-0.043	
66	   N	420.450	98.623	-384.744	N.am	5	SER5	-0.416	
67	  CA	421.494	99.603	-384.460	C.3	5	SER5	-0.025	
68	   C	422.832	99.134	-384.983	C.2	5	SER5	0.597	
69	   O	423.573	99.871	-385.634	O.2	5	SER5	-0.568	
70	  CB	421.555	99.923	-382.946	C.3	5	SER5	0.212	
71	  OG	422.042	98.827	-382.164	O.3	5	SER5	-0.655	
72	   H	419.898	98.231	-383.994	 H	5	SER5	0.272	
73	  HA	421.246	100.533	-385.005	 H	5	SER5	0.084	
74	 2HB	420.565	100.238	-382.564	 H	5	SER5	0.035	
75	 3HB	422.216	100.795	-382.775	 H	5	SER5	0.035	
76	  HG	421.419	98.103	-382.264	 H	5	SER5	0.428	
77	   N	423.210	97.925	-384.739	N.am	6	ILE6	-0.416	
78	  CA	424.503	97.471	-385.244	C.3	6	ILE6	-0.060	
79	   C	424.584	97.632	-386.743	C.2	6	ILE6	0.597	
80	   O	425.569	98.143	-387.296	O.2	6	ILE6	-0.568	
81	  CB	424.809	95.985	-384.793	C.3	6	ILE6	0.130	
82	 CG1	424.668	95.728	-383.259	C.3	6	ILE6	-0.043	
83	 CG2	426.222	95.496	-385.240	C.3	6	ILE6	-0.320	
84	 CD1	424.641	94.248	-382.824	C.3	6	ILE6	-0.066	
85	   H	422.620	97.301	-384.208	 H	6	ILE6	0.272	
86	  HA	425.278	98.132	-384.815	 H	6	ILE6	0.087	
87	  HB	424.058	95.340	-385.295	 H	6	ILE6	0.019	
88	2HG1	423.721	96.167	-382.895	 H	6	ILE6	0.024	
89	3HG1	425.457	96.274	-382.704	 H	6	ILE6	0.024	
90	1HG2	426.369	95.531	-386.333	 H	6	ILE6	0.088	
91	2HG2	427.033	96.093	-384.780	 H	6	ILE6	0.088	
92	3HG2	426.406	94.441	-384.971	 H	6	ILE6	0.088	
93	1HD1	423.834	93.686	-383.332	 H	6	ILE6	0.019	
94	2HD1	425.591	93.726	-383.037	 H	6	ILE6	0.019	
95	3HD1	424.466	94.154	-381.737	 H	6	ILE6	0.019	
96	   N	423.600	97.225	-387.470	N.am	7	LEU7	-0.416	
97	  CA	423.679	97.380	-388.920	C.3	7	LEU7	-0.052	
98	   C	423.897	98.826	-389.297	C.2	7	LEU7	0.597	
99	   O	424.755	99.167	-390.125	O.2	7	LEU7	-0.568	
100	  CB	422.400	96.815	-389.601	C.3	7	LEU7	-0.110	
101	  CG	422.035	95.327	-389.350	C.3	7	LEU7	0.353	
102	 CD1	420.813	94.934	-390.192	C.3	7	LEU7	-0.412	
103	 CD2	423.202	94.371	-389.652	C.3	7	LEU7	-0.412	
104	   H	422.786	96.805	-387.043	 H	7	LEU7	0.272	
105	  HA	424.565	96.828	-389.282	 H	7	LEU7	0.092	
106	 2HB	422.486	96.972	-390.694	 H	7	LEU7	0.046	
107	 3HB	421.533	97.437	-389.299	 H	7	LEU7	0.046	
108	  HG	421.763	95.214	-388.280	 H	7	LEU7	-0.036	
109	1HD1	419.938	95.575	-389.971	 H	7	LEU7	0.100	
110	2HD1	421.009	95.013	-391.278	 H	7	LEU7	0.100	
111	3HD1	420.499	93.893	-389.992	 H	7	LEU7	0.100	
112	1HD2	423.579	94.483	-390.685	 H	7	LEU7	0.100	
113	2HD2	424.053	94.549	-388.969	 H	7	LEU7	0.100	
114	3HD2	422.915	93.312	-389.513	 H	7	LEU7	0.100	
115	   N	423.169	99.733	-388.741	N.am	8	ASP8	-0.516	
116	  CA	423.379	101.132	-389.105	C.3	8	ASP8	0.038	
117	   C	424.809	101.547	-388.857	C.2	8	ASP8	0.537	
118	   O	425.468	102.173	-389.701	O.2	8	ASP8	-0.582	
119	  CB	422.391	102.052	-388.335	C.3	8	ASP8	-0.030	
120	  CG	422.467	103.545	-388.687	C.2	8	ASP8	0.799	
121	 OD1	422.681	103.880	-389.870	O.co2	8	ASP8	-0.801	
122	 OD2	422.356	104.382	-387.767	O.co2	8	ASP8	-0.801	
123	   H	422.463	99.481	-388.064	 H	8	ASP8	0.294	
124	  HA	423.190	101.238	-390.191	 H	8	ASP8	0.088	
125	 2HB	422.555	101.954	-387.246	 H	8	ASP8	-0.012	
126	 3HB	421.349	101.738	-388.508	 H	8	ASP8	-0.012	
127	   N	425.363	101.241	-387.733	N.am	9	GLU9	-0.516	
128	  CA	426.746	101.642	-387.492	C.3	9	GLU9	0.040	
129	   C	427.661	101.096	-388.561	C.2	9	GLU9	0.537	
130	   O	428.509	101.803	-389.125	O.2	9	GLU9	-0.582	
131	  CB	427.198	101.152	-386.087	C.3	9	GLU9	0.056	
132	  CG	428.649	101.551	-385.664	C.3	9	GLU9	0.014	
133	  CD	429.175	101.053	-384.331	C.2	9	GLU9	0.805	
134	 OE1	428.461	100.361	-383.579	O.co2	9	GLU9	-0.819	
135	 OE2	430.351	101.361	-384.045	O.co2	9	GLU9	-0.819	
136	   H	424.848	100.731	-387.029	 H	9	GLU9	0.294	
137	  HA	426.805	102.745	-387.526	 H	9	GLU9	0.111	
138	 2HB	427.108	100.048	-386.029	 H	9	GLU9	-0.017	
139	 3HB	426.499	101.524	-385.314	 H	9	GLU9	-0.017	
140	 2HG	428.775	102.646	-385.656	 H	9	GLU9	-0.043	
141	 3HG	429.394	101.172	-386.383	 H	9	GLU9	-0.043	
142	   N	427.558	99.855	-388.899	N.am	10	HIS10	-0.416	
143	  CA	428.443	99.326	-389.933	C.3	10	HIS10	-0.058	
144	   C	428.307	100.110	-391.216	C.2	10	HIS10	0.597	
145	   O	429.296	100.507	-391.851	O.2	10	HIS10	-0.568	
146	  CB	428.025	97.862	-390.152	C.3	10	HIS10	-0.007	
147	  CG	429.137	96.901	-389.853	C.2	10	HIS10	0.187	
148	 CD2	429.331	96.345	-388.595	C.2	10	HIS10	-0.221	
149	 ND1	430.092	96.450	-390.761	N.2	10	HIS10	-0.543	
150	 CE1	430.809	95.640	-389.960	C.2	10	HIS10	0.163	
151	 NE2	430.423	95.519	-388.661	N.pl3	10	HIS10	-0.280	
152	   H	426.875	99.258	-388.454	 H	10	HIS10	0.272	
153	  HA	429.481	99.464	-389.587	 H	10	HIS10	0.136	
154	 2HB	427.699	97.691	-391.197	 H	10	HIS10	0.037	
155	 3HB	427.156	97.577	-389.523	 H	10	HIS10	0.037	
156	 2HD	428.707	96.550	-387.730	 H	10	HIS10	0.186	
157	 1HE	431.656	95.125	-390.395	 H	10	HIS10	0.144	
158	 2HE	430.842	94.953	-387.908	 H	10	HIS10	0.334	
159	   N	427.127	100.376	-391.664	N.am	11	VAL11	-0.416	
160	  CA	426.996	101.135	-392.905	C.3	11	VAL11	-0.087	
161	   C	427.704	102.464	-392.803	C.2	11	VAL11	0.597	
162	   O	428.458	102.876	-393.694	O.2	11	VAL11	-0.568	
163	  CB	425.467	101.337	-393.250	C.3	11	VAL11	0.299	
164	 CG1	425.148	102.283	-394.440	C.3	11	VAL11	-0.319	
165	 CG2	424.715	100.021	-393.562	C.3	11	VAL11	-0.319	
166	   H	426.307	100.064	-391.165	 H	11	VAL11	0.272	
167	  HA	427.483	100.570	-393.721	 H	11	VAL11	0.097	
168	  HB	424.986	101.785	-392.354	 H	11	VAL11	-0.030	
169	1HG1	425.603	101.938	-395.388	 H	11	VAL11	0.079	
170	2HG1	424.060	102.385	-394.616	 H	11	VAL11	0.079	
171	3HG1	425.506	103.316	-394.266	 H	11	VAL11	0.079	
172	1HG2	424.816	99.286	-392.743	 H	11	VAL11	0.079	
173	2HG2	423.628	100.189	-393.689	 H	11	VAL11	0.079	
174	3HG2	425.084	99.535	-394.485	 H	11	VAL11	0.079	
175	   N	427.518	103.193	-391.755	N.am	12	GLN12	-0.416	
176	  CA	428.203	104.478	-391.656	C.3	12	GLN12	-0.003	
177	   C	429.699	104.306	-391.774	C.2	12	GLN12	0.597	
178	   O	430.380	105.019	-392.507	O.2	12	GLN12	-0.568	
179	  CB	427.825	105.138	-390.311	C.3	12	GLN12	-0.004	
180	  CG	428.431	106.555	-390.043	C.3	12	GLN12	-0.064	
181	  CD	428.150	107.246	-388.703	C.2	12	GLN12	0.695	
182	 NE2	427.398	106.658	-387.808	N.pl3	12	GLN12	-0.941	
183	 OE1	428.637	108.335	-388.440	O.2	12	GLN12	-0.609	
184	   H	426.908	102.879	-391.014	 H	12	GLN12	0.272	
185	  HA	427.873	105.121	-392.493	 H	12	GLN12	0.085	
186	 2HB	428.125	104.457	-389.488	 H	12	GLN12	0.017	
187	 3HB	426.722	105.208	-390.244	 H	12	GLN12	0.017	
188	 2HG	428.132	107.254	-390.846	 H	12	GLN12	0.035	
189	 3HG	429.534	106.520	-390.108	 H	12	GLN12	0.035	
190	1HE2	427.314	107.155	-386.920	 H	12	GLN12	0.425	
191	2HE2	427.079	105.720	-388.061	 H	12	GLN12	0.425	
192	   N	430.279	103.384	-391.083	N.am	13	ARG13	-0.348	
193	  CA	431.725	103.219	-391.197	C.3	13	ARG13	-0.264	
194	   C	432.129	102.973	-392.632	C.2	13	ARG13	0.734	
195	   O	433.061	103.576	-393.158	O.2	13	ARG13	-0.589	
196	  CB	432.170	102.049	-390.274	C.3	13	ARG13	-0.001	
197	  CG	433.704	101.912	-390.061	C.3	13	ARG13	0.039	
198	  CD	434.058	100.712	-389.167	C.3	13	ARG13	0.049	
199	  NE	435.537	100.643	-388.981	N.pl3	13	ARG13	-0.530	
200	  CZ	436.180	99.722	-388.270	C.cat	13	ARG13	0.808	
201	 NH1	435.584	98.747	-387.643	N.pl3	13	ARG13	-0.863	
202	 NH2	437.472	99.795	-388.193	N.pl3	13	ARG13	-0.863	
203	   H	429.741	102.785	-390.473	 H	13	ARG13	0.275	
204	  HA	432.204	104.162	-390.872	 H	13	ARG13	0.156	
205	 2HB	431.755	101.101	-390.676	 H	13	ARG13	0.033	
206	 3HB	431.684	102.162	-389.284	 H	13	ARG13	0.033	
207	 2HG	434.096	102.852	-389.622	 H	13	ARG13	0.029	
208	 3HG	434.216	101.803	-391.039	 H	13	ARG13	0.029	
209	 2HD	433.673	99.779	-389.635	 H	13	ARG13	0.069	
210	 3HD	433.538	100.811	-388.190	 H	13	ARG13	0.069	
211	  HE	436.156	101.338	-389.412	 H	13	ARG13	0.346	
212	1HH1	434.567	98.746	-387.745	 H	13	ARG13	0.448	
213	2HH1	436.150	98.080	-387.116	 H	13	ARG13	0.448	
214	1HH2	437.922	100.565	-388.692	 H	13	ARG13	0.448	
215	2HH2	437.948	99.080	-387.641	 H	13	ARG13	0.448	
216	   N	431.475	102.104	-393.325	N.am	14	VAL14	-0.416	
217	  CA	431.865	101.866	-394.712	C.3	14	VAL14	-0.087	
218	   C	431.822	103.145	-395.513	C.2	14	VAL14	0.597	
219	   O	432.748	103.483	-396.261	O.2	14	VAL14	-0.568	
220	  CB	430.925	100.769	-395.353	C.3	14	VAL14	0.299	
221	 CG1	431.085	100.530	-396.880	C.3	14	VAL14	-0.319	
222	 CG2	431.062	99.370	-394.705	C.3	14	VAL14	-0.319	
223	   H	430.705	101.595	-392.915	 H	14	VAL14	0.272	
224	  HA	432.911	101.508	-394.731	 H	14	VAL14	0.097	
225	  HB	429.877	101.102	-395.194	 H	14	VAL14	-0.030	
226	1HG1	432.109	100.212	-397.153	 H	14	VAL14	0.079	
227	2HG1	430.389	99.758	-397.259	 H	14	VAL14	0.079	
228	3HG1	430.857	101.435	-397.475	 H	14	VAL14	0.079	
229	1HG2	430.899	99.405	-393.612	 H	14	VAL14	0.079	
230	2HG2	430.313	98.658	-395.102	 H	14	VAL14	0.079	
231	3HG2	432.061	98.925	-394.872	 H	14	VAL14	0.079	
232	   N	430.787	103.909	-395.414	N.am	15	MET15	-0.416	
233	  CA	430.744	105.147	-396.188	C.3	15	MET15	-0.024	
234	   C	431.931	106.024	-395.874	C.2	15	MET15	0.597	
235	   O	432.607	106.558	-396.767	O.2	15	MET15	-0.568	
236	  CB	429.412	105.895	-395.910	C.3	15	MET15	0.034	
237	  CG	428.122	105.153	-396.323	C.3	15	MET15	0.002	
238	  SD	426.712	106.267	-396.204	S.3	15	MET15	-0.274	
239	  CE	425.398	105.048	-396.346	C.3	15	MET15	-0.054	
240	   H	430.019	103.656	-394.810	 H	15	MET15	0.272	
241	  HA	430.803	104.892	-397.263	 H	15	MET15	0.088	
242	 2HB	429.422	106.869	-396.437	 H	15	MET15	0.024	
243	 3HB	429.343	106.156	-394.835	 H	15	MET15	0.024	
244	 2HG	427.958	104.282	-395.660	 H	15	MET15	0.044	
245	 3HG	428.191	104.760	-397.354	 H	15	MET15	0.044	
246	 1HE	425.505	104.456	-397.273	 H	15	MET15	0.068	
247	 2HE	425.422	104.355	-395.486	 H	15	MET15	0.068	
248	 3HE	424.412	105.543	-396.362	 H	15	MET15	0.068	
249	   N	432.252	106.225	-394.641	N.am	16	ARG16	-0.348	
250	  CA	433.401	107.074	-394.338	C.3	16	ARG16	-0.264	
251	   C	434.650	106.552	-395.008	C.2	16	ARG16	0.734	
252	   O	434.637	105.553	-395.723	O.2	16	ARG16	-0.589	
253	  CB	433.575	107.151	-392.794	C.3	16	ARG16	-0.001	
254	  CG	434.575	108.227	-392.286	C.3	16	ARG16	0.039	
255	  CD	434.713	108.210	-390.755	C.3	16	ARG16	0.049	
256	  NE	435.667	109.275	-390.325	N.pl3	16	ARG16	-0.530	
257	  CZ	436.019	109.529	-389.069	C.cat	16	ARG16	0.808	
258	 NH1	435.569	108.862	-388.043	N.pl3	16	ARG16	-0.863	
259	 NH2	436.856	110.494	-388.848	N.pl3	16	ARG16	-0.863	
260	   H	431.718	105.801	-393.896	 H	16	ARG16	0.275	
261	  HA	433.198	108.082	-394.747	 H	16	ARG16	0.156	
262	 2HB	433.870	106.149	-392.420	 H	16	ARG16	0.033	
263	 3HB	432.587	107.337	-392.326	 H	16	ARG16	0.033	
264	 2HG	434.243	109.226	-392.636	 H	16	ARG16	0.029	
265	 3HG	435.572	108.066	-392.745	 H	16	ARG16	0.029	
266	 2HD	435.065	107.207	-390.428	 H	16	ARG16	0.069	
267	 3HD	433.714	108.359	-390.291	 H	16	ARG16	0.069	
268	  HE	436.114	109.891	-391.012	 H	16	ARG16	0.346	
269	1HH1	434.915	108.115	-388.286	 H	16	ARG16	0.448	
270	2HH1	435.888	109.120	-387.108	 H	16	ARG16	0.448	
271	1HH2	437.198	111.005	-389.664	 H	16	ARG16	0.448	
272	2HH2	437.113	110.675	-387.876	 H	16	ARG16	0.448	
@<TRIPOS>BOND
1 1 2 1
2 1 10 1
3 2 3 1
4 2 5 1
5 2 11 1
6 3 4 2
7 3 16 1
8 5 6 1
9 6 7 1
10 7 8 2
11 7 9 1
12 5 12 1
13 5 13 1
14 6 14 1
15 6 15 1
16 16 17 1
17 16 24 1
18 17 18 1
19 17 20 1
20 17 25 1
21 18 19 2
22 18 30 1
23 20 21 1
24 21 22 1
25 21 23 2
26 20 26 1
27 20 27 1
28 22 28 1
29 22 29 1
30 30 31 1
31 30 42 1
32 31 32 1
33 31 34 1
34 31 43 1
35 32 33 2
36 32 51 1
37 34 35 1
38 35 36 2
39 35 37 1
40 37 39 2
41 36 38 1
42 39 40 1
43 38 40 2
44 40 41 1
45 34 44 1
46 34 45 1
47 36 46 1
48 37 47 1
49 38 48 1
50 39 49 1
51 41 50 1
52 51 52 1
53 51 60 1
54 52 53 1
55 52 55 1
56 52 61 1
57 53 54 2
58 53 66 1
59 55 56 1
60 56 57 1
61 57 58 2
62 57 59 1
63 55 62 1
64 55 63 1
65 56 64 1
66 56 65 1
67 66 67 1
68 66 72 1
69 67 68 1
70 67 70 1
71 67 73 1
72 68 69 2
73 68 77 1
74 70 71 1
75 70 74 1
76 70 75 1
77 71 76 1
78 77 78 1
79 77 85 1
80 78 79 1
81 78 81 1
82 78 86 1
83 79 80 2
84 79 96 1
85 81 82 1
86 81 83 1
87 82 84 1
88 81 87 1
89 82 88 1
90 82 89 1
91 83 90 1
92 83 91 1
93 83 92 1
94 84 93 1
95 84 94 1
96 84 95 1
97 96 97 1
98 96 104 1
99 97 98 1
100 97 100 1
101 97 105 1
102 98 99 2
103 98 115 1
104 100 101 1
105 101 102 1
106 101 103 1
107 100 106 1
108 100 107 1
109 101 108 1
110 102 109 1
111 102 110 1
112 102 111 1
113 103 112 1
114 103 113 1
115 103 114 1
116 115 116 1
117 115 123 1
118 116 117 1
119 116 119 1
120 116 124 1
121 117 118 2
122 117 127 1
123 119 120 1
124 120 121 2
125 120 122 1
126 119 125 1
127 119 126 1
128 127 128 1
129 127 136 1
130 128 129 1
131 128 131 1
132 128 137 1
133 129 130 2
134 129 142 1
135 131 132 1
136 132 133 1
137 133 134 2
138 133 135 1
139 131 138 1
140 131 139 1
141 132 140 1
142 132 141 1
143 142 143 1
144 142 152 1
145 143 144 1
146 143 146 1
147 143 153 1
148 144 145 2
149 144 159 1
150 146 147 1
151 147 148 2
152 148 151 1
153 147 149 1
154 149 150 2
155 150 151 1
156 146 154 1
157 146 155 1
158 148 156 1
159 150 157 1
160 151 158 1
161 159 160 1
162 159 166 1
163 160 161 1
164 160 163 1
165 160 167 1
166 161 162 2
167 161 175 1
168 163 164 1
169 163 165 1
170 163 168 1
171 164 169 1
172 164 170 1
173 164 171 1
174 165 172 1
175 165 173 1
176 165 174 1
177 175 176 1
178 175 184 1
179 176 177 1
180 176 179 1
181 176 185 1
182 177 178 2
183 177 192 1
184 179 180 1
185 180 181 1
186 181 182 1
187 181 183 2
188 179 186 1
189 179 187 1
190 180 188 1
191 180 189 1
192 182 190 1
193 182 191 1
194 192 193 1
195 192 203 1
196 193 194 1
197 193 196 1
198 193 204 1
199 194 195 2
200 194 216 1
201 196 197 1
202 197 198 1
203 198 199 1
204 199 200 1
205 200 201 2
206 200 202 1
207 196 205 1
208 196 206 1
209 197 207 1
210 197 208 1
211 198 209 1
212 198 210 1
213 199 211 1
214 201 212 1
215 201 213 1
216 202 214 1
217 202 215 1
218 216 217 1
219 216 223 1
220 217 218 1
221 217 220 1
222 217 224 1
223 218 219 2
224 218 232 1
225 220 221 1
226 220 222 1
227 220 225 1
228 221 226 1
229 221 227 1
230 221 228 1
231 222 229 1
232 222 230 1
233 222 231 1
234 232 233 1
235 232 240 1
236 233 234 1
237 233 236 1
238 233 241 1
239 234 235 2
240 234 249 1
241 236 237 1
242 237 238 1
243 238 239 1
244 236 242 1
245 236 243 1
246 237 244 1
247 237 245 1
248 239 246 1
249 239 247 1
250 239 248 1
251 249 250 1
252 249 260 1
253 250 251 1
254 250 253 1
255 250 261 1
256 251 252 2
257 253 254 1
258 254 255 1
259 255 256 1
260 256 257 1
261 257 258 2
262 257 259 1
263 253 262 1
264 253 263 1
265 254 264 1
266 254 265 1
267 255 266 1
268 255 267 1
269 256 268 1
270 258 269 1
271 258 270 1
272 259 271 1
273 259 272 1
@<TRIPOS>SUBSTRUCTURE
1	GLU1	1	RESIDUE	1 ****	GLU
2	ASN2	16	RESIDUE	1 ****	ASN
3	TYR3	30	RESIDUE	1 ****	TYR
4	GLU4	51	RESIDUE	1 ****	GLU
5	SER5	66	RESIDUE	1 ****	SER
6	ILE6	77	RESIDUE	1 ****	ILE
7	LEU7	96	RESIDUE	1 ****	LEU
8	ASP8	115	RESIDUE	1 ****	ASP
9	GLU9	127	RESIDUE	1 ****	GLU
10	HIS10	142	RESIDUE	1 ****	HIS
11	VAL11	159	RESIDUE	1 ****	VAL
12	GLN12	175	RESIDUE	1 ****	GLN
13	ARG13	192	RESIDUE	1 ****	ARG
14	VAL14	216	RESIDUE	1 ****	VAL
15	MET15	232	RESIDUE	1 ****	MET
16	ARG16	249	RESIDUE	1 ****	ARG
