REMARK WARNING: 32 MAX_TORS EXCEEDED!!!
REMARK  66 active torsions:
REMARK  status: ('A' for Active; 'I' for Inactive)
REMARK    1  A    between atoms: N_1  and  CA_2 
REMARK    2  A    between atoms: CA_2  and  C_3 
REMARK    3  A    between atoms: CA_2  and  CB_5 
REMARK       I    between atoms: C_3  and  N_11 
REMARK    4  A    between atoms: CB_5  and  CG_6 
REMARK    5  A    between atoms: CG_6  and  CD_7 
REMARK    6  A    between atoms: N_11  and  CA_12 
REMARK    7  A    between atoms: CA_12  and  C_13 
REMARK    8  A    between atoms: CA_12  and  CB_15 
REMARK       I    between atoms: C_13  and  N_22 
REMARK    9  A    between atoms: CB_15  and  CG_16 
REMARK       I    between atoms: CG_16  and  ND2_17 
REMARK   10  A    between atoms: CA_23  and  C_24 
REMARK       I    between atoms: C_24  and  N_29 
REMARK   11  A    between atoms: N_29  and  CA_30 
REMARK   12  A    between atoms: CA_30  and  C_31 
REMARK   13  A    between atoms: CA_30  and  CB_33 
REMARK       I    between atoms: C_31  and  N_39 
REMARK   14  A    between atoms: CB_33  and  CG_34 
REMARK   15  A    between atoms: CG_34  and  CD_35 
REMARK   16  A    between atoms: N_39  and  CA_40 
REMARK   17  A    between atoms: CA_40  and  C_41 
REMARK   18  A    between atoms: CA_40  and  CB_43 
REMARK       I    between atoms: C_41  and  N_47 
REMARK   19  A    between atoms: CB_43  and  OG_44 
REMARK   20  A    between atoms: N_47  and  CA_48 
REMARK   21  A    between atoms: CA_48  and  C_49 
REMARK   22  A    between atoms: CA_48  and  CB_51 
REMARK       I    between atoms: C_49  and  N_56 
REMARK   23  A    between atoms: CB_51  and  CG1_52 
REMARK   24  A    between atoms: N_56  and  CA_57 
REMARK   25  A    between atoms: CA_57  and  C_58 
REMARK   26  A    between atoms: CA_57  and  CB_60 
REMARK       I    between atoms: C_58  and  N_65 
REMARK   27  A    between atoms: CB_60  and  CG_61 
REMARK   28  A    between atoms: N_65  and  CA_66 
REMARK   29  A    between atoms: CA_66  and  C_67 
REMARK   30  A    between atoms: CA_66  and  CB_69 
REMARK       I    between atoms: C_67  and  N_74 
REMARK   31  A    between atoms: CB_69  and  CG_70 
REMARK   32  A    between atoms: N_74  and  CA_75 
REMARK   33  A    between atoms: CA_75  and  C_76 
REMARK   34  A    between atoms: CA_75  and  CB_78 
REMARK       I    between atoms: C_76  and  N_84 
REMARK   35  A    between atoms: CB_78  and  CG_79 
REMARK   36  A    between atoms: CG_79  and  CD_80 
REMARK   37  A    between atoms: N_84  and  CA_85 
REMARK   38  A    between atoms: CA_85  and  C_86 
REMARK   39  A    between atoms: CA_85  and  CB_88 
REMARK       I    between atoms: C_86  and  N_96 
REMARK   40  A    between atoms: CB_88  and  CG_89 
REMARK   41  A    between atoms: N_96  and  CA_97 
REMARK   42  A    between atoms: CA_97  and  C_98 
REMARK   43  A    between atoms: CA_97  and  CB_100 
REMARK       I    between atoms: C_98  and  N_104 
REMARK   44  A    between atoms: N_104  and  CA_105 
REMARK   45  A    between atoms: CA_105  and  C_106 
REMARK   46  A    between atoms: CA_105  and  CB_108 
REMARK       I    between atoms: C_106  and  N_116 
REMARK   47  A    between atoms: CB_108  and  CG_109 
REMARK   48  A    between atoms: CG_109  and  CD_110 
REMARK       I    between atoms: CD_110  and  NE2_111 
REMARK   49  A    between atoms: N_116  and  CA_117 
REMARK   50  A    between atoms: CA_117  and  C_118 
REMARK   51  A    between atoms: CA_117  and  CB_120 
REMARK       I    between atoms: C_118  and  N_133 
REMARK   52  A    between atoms: CB_120  and  CG_121 
REMARK   53  A    between atoms: CG_121  and  CD_122 
REMARK   54  A    between atoms: CD_122  and  NE_123 
REMARK       I    between atoms: NE_123  and  CZ_124 
REMARK       I    between atoms: CZ_124  and  NH1_125 
REMARK   55  A    between atoms: N_133  and  CA_134 
REMARK   56  A    between atoms: CA_134  and  C_135 
REMARK   57  A    between atoms: CA_134  and  CB_137 
REMARK       I    between atoms: C_135  and  N_141 
REMARK   58  A    between atoms: N_141  and  CA_142 
REMARK   59  A    between atoms: CA_142  and  C_143 
REMARK   60  A    between atoms: CA_142  and  CB_145 
REMARK       I    between atoms: C_143  and  N_150 
REMARK   61  A    between atoms: CB_145  and  CG_146 
REMARK   62  A    between atoms: CG_146  and  SD_147 
REMARK   63  A    between atoms: N_150  and  CA_151 
REMARK   64  A    between atoms: CA_151  and  C_152 
REMARK   65  A    between atoms: CA_151  and  CB_154 
REMARK   66  A    between atoms: CB_154  and  OG1_156 
ROOT
ATOM      1  CA  GLU d   9    2610.786 804.252-2726.418  0.00  0.00     0.177 C 
ENDROOT
BRANCH   1   2
ATOM      2  N   GLU d   9    2609.483 803.595-2726.473  0.00  0.00    -0.346 N 
ATOM      3  C   ASP d   8    2608.803 803.645-2727.568  0.00  0.00     0.241 C 
ATOM      4  O   ASP d   8    2609.276 804.249-2728.543  0.00  0.00    -0.271 OA
ATOM      5  H   GLU d   9    2609.120 803.109-2725.666  0.00  0.00     0.163 HD
BRANCH   3   6
ATOM      6  CA  ASP d   8    2607.456 802.965-2727.625  0.00  0.00     0.186 C 
BRANCH   6   7
ATOM      7  N   ASP d   8    2607.526 801.616-2727.071  0.00  0.00    -0.346 N 
ATOM      8  C   LEU d   7    2608.363 800.775-2727.577  0.00  0.00     0.241 C 
ATOM      9  O   LEU d   7    2609.084 801.137-2728.519  0.00  0.00    -0.271 OA
ATOM     10  H   ASP d   8    2606.928 801.346-2726.303  0.00  0.00     0.163 HD
BRANCH   8  11
ATOM     11  CA  LEU d   7    2608.435 799.380-2727.004  0.00  0.00     0.177 C 
BRANCH  11  12
ATOM     12  N   LEU d   7    2608.490 799.416-2725.545  0.00  0.00    -0.346 N 
ATOM     13  C   ILE d   6    2609.436 800.079-2724.972  0.00  0.00     0.241 C 
ATOM     14  O   ILE d   6    2610.271 800.666-2725.676  0.00  0.00    -0.271 OA
ATOM     15  H   LEU d   7    2607.798 798.929-2724.994  0.00  0.00     0.163 HD
BRANCH  13  16
ATOM     16  CA  ILE d   6    2609.493 800.117-2723.464  0.00  0.00     0.180 C 
BRANCH  16  17
ATOM     17  N   ILE d   6    2608.180 800.412-2722.898  0.00  0.00    -0.346 N 
ATOM     18  C   SER d   5    2607.575 801.495-2723.252  0.00  0.00     0.243 C 
ATOM     19  O   SER d   5    2608.123 802.249-2724.057  0.00  0.00    -0.271 OA
ATOM     20  H   ILE d   6    2607.751 799.778-2722.239  0.00  0.00     0.163 HD
BRANCH  18  21
ATOM     21  CA  SER d   5    2606.217 801.802-2722.667  0.00  0.00     0.200 C 
BRANCH  21  22
ATOM     22  N   SER d   5    2605.347 800.630-2722.726  0.00  0.00    -0.344 N 
ATOM     23  C   GLU d   4    2605.120 800.078-2723.869  0.00  0.00     0.241 C 
ATOM     24  O   GLU d   4    2605.646 800.557-2724.883  0.00  0.00    -0.271 OA
ATOM     25  H   SER d   5    2604.929 800.259-2721.885  0.00  0.00     0.163 HD
BRANCH  23  26
ATOM     26  CA  GLU d   4    2604.220 798.867-2723.931  0.00  0.00     0.177 C 
BRANCH  26  27
ATOM     27  N   GLU d   4    2604.580 797.896-2722.901  0.00  0.00    -0.346 N 
ATOM     28  C   PRO d   3    2605.784 797.436-2722.868  0.00  0.00     0.241 C 
ATOM     29  O   PRO d   3    2606.608 797.819-2723.699  0.00  0.00    -0.271 OA
ATOM     30  H   GLU d   4    2603.895 797.590-2722.224  0.00  0.00     0.163 HD
BRANCH  28  31
ATOM     31  CA  PRO d   3    2606.182 796.412-2721.791  0.00  0.00     0.179 C 
ATOM     32  N   PRO d   3    2605.730 796.822-2720.470  0.00  0.00    -0.337 N 
ATOM     33  C   ASN d   2    2606.251 797.816-2719.835  0.00  0.00     0.243 C 
ATOM     34  CD  PRO d   3    2604.652 796.029-2719.921  0.00  0.00     0.127 C 
ATOM     35  O   ASN d   2    2607.167 798.447-2720.364  0.00  0.00    -0.271 OA
ATOM     36  CG  PRO d   3    2604.194 795.210-2721.131  0.00  0.00     0.022 C 
ATOM     37  CB  PRO d   3    2605.478 795.058-2721.961  0.00  0.00     0.037 C 
BRANCH  33  38
ATOM     38  CA  ASN d   2    2605.720 798.172-2718.467  0.00  0.00     0.185 C 
BRANCH  38  39
ATOM     39  N   ASN d   2    2604.261 798.211-2718.467  0.00  0.00    -0.346 N 
ATOM     40  C   GLU d   1    2603.656 798.997-2719.292  0.00  0.00     0.242 C 
ATOM     41  O   GLU d   1    2604.332 799.696-2720.061  0.00  0.00    -0.271 OA
ATOM     42  H   ASN d   2    2603.732 797.631-2717.831  0.00  0.00     0.163 HD
BRANCH  40  43
ATOM     43  CA  GLU d   1    2602.147 799.037-2719.292  0.00  0.00     0.191 C 
BRANCH  43  44
ATOM     44  N   GLU d   1    2601.588 797.688-2719.292  0.00  0.00    -0.326 NA
ATOM     45  H   GLU d   1    2602.215 796.809-2719.292  0.00  0.00     0.180 HD
ENDBRANCH  43  44
BRANCH  43  46
ATOM     46  CB  GLU d   1    2601.624 799.822-2718.055  0.00  0.00     0.047 C 
BRANCH  46  47
ATOM     47  CG  GLU d   1    2602.099 801.307-2717.944  0.00  0.00     0.116 C 
BRANCH  47  48
ATOM     48  CD  GLU d   1    2601.675 802.111-2716.729  0.00  0.00     0.172 C 
ATOM     49  OE1 GLU d   1    2600.947 801.609-2715.851  0.00  0.00    -0.648 OA
ATOM     50  OE2 GLU d   1    2602.105 803.281-2716.657  0.00  0.00    -0.648 OA
ENDBRANCH  47  48
ENDBRANCH  46  47
ENDBRANCH  43  46
ENDBRANCH  40  43
ENDBRANCH  38  39
BRANCH  38  51
ATOM     51  CB  ASN d   2    2606.212 797.149-2717.402  0.00  0.00     0.137 C 
BRANCH  51  52
ATOM     52  CG  ASN d   2    2605.748 797.373-2715.959  0.00  0.00     0.217 C 
ATOM     53  ND2 ASN d   2    2606.342 798.288-2715.241  0.00  0.00    -0.370 N 
ATOM     54 21HD ASN d   2    2605.861 798.461-2714.354  0.00  0.00     0.159 HD
ATOM     55 22HD ASN d   2    2607.044 798.859-2715.710  0.00  0.00     0.159 HD
ATOM     56  OD1 ASN d   2    2604.827 796.739-2715.465  0.00  0.00    -0.274 OA
ENDBRANCH  51  52
ENDBRANCH  38  51
ENDBRANCH  33  38
ENDBRANCH  28  31
ENDBRANCH  26  27
BRANCH  26  57
ATOM     57  CB  GLU d   4    2602.732 799.286-2723.761  0.00  0.00     0.045 C 
BRANCH  57  58
ATOM     58  CG  GLU d   4    2602.185 800.290-2724.827  0.00  0.00     0.116 C 
BRANCH  58  59
ATOM     59  CD  GLU d   4    2600.758 800.787-2724.684  0.00  0.00     0.172 C 
ATOM     60  OE1 GLU d   4    2600.031 800.389-2723.753  0.00  0.00    -0.648 OA
ATOM     61  OE2 GLU d   4    2600.369 801.616-2725.532  0.00  0.00    -0.648 OA
ENDBRANCH  58  59
ENDBRANCH  57  58
ENDBRANCH  26  57
ENDBRANCH  23  26
ENDBRANCH  21  22
BRANCH  21  62
ATOM     62  CB  SER d   5    2606.328 802.334-2721.217  0.00  0.00     0.199 C 
BRANCH  62  63
ATOM     63  OG  SER d   5    2607.059 801.454-2720.355  0.00  0.00    -0.398 OA
ATOM     64  HG  SER d   5    2606.570 800.629-2720.305  0.00  0.00     0.209 HD
ENDBRANCH  62  63
ENDBRANCH  21  62
ENDBRANCH  18  21
ENDBRANCH  16  17
BRANCH  16  65
ATOM     65  CB  ILE d   6    2610.092 798.780-2722.864  0.00  0.00     0.013 C 
ATOM     66  CG2 ILE d   6    2611.533 798.478-2723.379  0.00  0.00     0.012 C 
BRANCH  65  67
ATOM     67  CG1 ILE d   6    2610.111 798.718-2721.303  0.00  0.00     0.002 C 
ATOM     68  CD1 ILE d   6    2610.380 797.329-2720.688  0.00  0.00     0.005 C 
ENDBRANCH  65  67
ENDBRANCH  16  65
ENDBRANCH  13  16
ENDBRANCH  11  12
BRANCH  11  69
ATOM     69  CB  LEU d   7    2607.231 798.520-2727.484  0.00  0.00     0.038 C 
BRANCH  69  70
ATOM     70  CG  LEU d   7    2607.158 797.040-2727.018  0.00  0.00    -0.020 C 
ATOM     71  CD1 LEU d   7    2605.968 796.335-2727.683  0.00  0.00     0.009 C 
ATOM     72  CD2 LEU d   7    2608.452 796.261-2727.309  0.00  0.00     0.009 C 
ENDBRANCH  69  70
ENDBRANCH  11  69
ENDBRANCH   8  11
ENDBRANCH   6   7
BRANCH   6  73
ATOM     73  CB  ASP d   8    2606.378 803.805-2726.884  0.00  0.00     0.147 C 
BRANCH  73  74
ATOM     74  CG  ASP d   8    2606.160 805.226-2727.425  0.00  0.00     0.175 C 
ATOM     75  OD1 ASP d   8    2606.225 805.424-2728.656  0.00  0.00    -0.648 OA
ATOM     76  OD2 ASP d   8    2605.969 806.152-2726.610  0.00  0.00    -0.648 OA
ENDBRANCH  73  74
ENDBRANCH   6  73
ENDBRANCH   3   6
ENDBRANCH   1   2
BRANCH   1  77
ATOM     77  C   GLU d   9    2611.704 803.723-2727.494  0.00  0.00     0.241 C 
ATOM     78  O   GLU d   9    2612.368 804.477-2728.220  0.00  0.00    -0.271 OA
ATOM     79  N   HIS d  10    2611.800 802.448-2727.663  0.00  0.00    -0.346 N 
ATOM     80  H   HIS d  10    2611.269 801.813-2727.084  0.00  0.00     0.163 HD
BRANCH  79  81
ATOM     81  CA  HIS d  10    2612.687 801.936-2728.703  0.00  0.00     0.182 C 
BRANCH  81  82
ATOM     82  C   HIS d  10    2612.320 802.500-2730.055  0.00  0.00     0.241 C 
ATOM     83  O   HIS d  10    2613.173 802.964-2730.827  0.00  0.00    -0.271 OA
ATOM     84  N   VAL d  11    2611.082 802.499-2730.417  0.00  0.00    -0.346 N 
ATOM     85  H   VAL d  11    2610.369 802.127-2729.807  0.00  0.00     0.163 HD
BRANCH  84  86
ATOM     86  CA  VAL d  11    2610.727 803.045-2731.725  0.00  0.00     0.180 C 
BRANCH  86  87
ATOM     87  C   VAL d  11    2611.192 804.475-2731.858  0.00  0.00     0.241 C 
ATOM     88  O   VAL d  11    2611.793 804.880-2732.861  0.00  0.00    -0.271 OA
ATOM     89  N   GLN d  12    2610.956 805.301-2730.896  0.00  0.00    -0.346 N 
ATOM     90  H   GLN d  12    2610.467 804.996-2730.066  0.00  0.00     0.163 HD
BRANCH  89  91
ATOM     91  CA  GLN d  12    2611.405 806.684-2731.024  0.00  0.00     0.177 C 
BRANCH  91  92
ATOM     92  C   GLN d  12    2612.895 806.751-2731.262  0.00  0.00     0.241 C 
ATOM     93  O   GLN d  12    2613.382 807.458-2732.141  0.00  0.00    -0.271 OA
ATOM     94  N   ARG d  13    2613.680 806.044-2730.521  0.00  0.00    -0.346 N 
ATOM     95  H   ARG d  13    2613.303 805.455-2729.792  0.00  0.00     0.163 HD
BRANCH  94  96
ATOM     96  CA  ARG d  13    2615.120 806.109-2730.752  0.00  0.00     0.176 C 
BRANCH  96  97
ATOM     97  C   ARG d  13    2615.456 805.737-2732.177  0.00  0.00     0.241 C 
ATOM     98  O   ARG d  13    2616.224 806.408-2732.862  0.00  0.00    -0.271 OA
ATOM     99  N   VAL d  14    2614.919 804.682-2732.690  0.00  0.00    -0.346 N 
ATOM    100  H   VAL d  14    2614.284 804.114-2732.148  0.00  0.00     0.163 HD
BRANCH  99 101
ATOM    101  CA  VAL d  14    2615.243 804.322-2734.068  0.00  0.00     0.180 C 
BRANCH 101 102
ATOM    102  C   VAL d  14    2614.914 805.451-2735.014  0.00  0.00     0.241 C 
ATOM    103  O   VAL d  14    2615.707 805.832-2735.884  0.00  0.00    -0.271 OA
ATOM    104  N   MET d  15    2613.769 806.037-2734.912  0.00  0.00    -0.346 N 
ATOM    105  H   MET d  15    2613.104 805.745-2734.210  0.00  0.00     0.163 HD
BRANCH 104 106
ATOM    106  CA  MET d  15    2613.448 807.130-2735.826  0.00  0.00     0.177 C 
BRANCH 106 107
ATOM    107  C   MET d  15    2614.479 808.230-2735.739  0.00  0.00     0.241 C 
ATOM    108  O   MET d  15    2614.981 808.740-2736.752  0.00  0.00    -0.271 OA
ATOM    109  N   THR d  16    2614.848 808.651-2734.577  0.00  0.00    -0.345 N 
ATOM    110  H   THR d  16    2614.454 808.251-2733.737  0.00  0.00     0.163 HD
BRANCH 109 111
ATOM    111  CA  THR d  16    2615.844 809.714-2734.494  0.00  0.00     0.190 C 
BRANCH 111 112
ATOM    112  C   THR d  16    2617.115 809.323-2735.209  0.00  0.00     0.222 C 
ATOM    113  O   THR d  16    2617.236 808.250-2735.765  0.00  0.00    -0.287 OA
ENDBRANCH 111 112
BRANCH 111 114
ATOM    114  CB  THR d  16    2616.140 810.075-2732.998  0.00  0.00     0.144 C 
ATOM    115  CG2 THR d  16    2617.187 811.183-2732.756  0.00  0.00     0.042 C 
BRANCH 114 116
ATOM    116  OG1 THR d  16    2614.963 810.551-2732.357  0.00  0.00    -0.393 OA
ATOM    117  1HG THR d  16    2615.197 810.684-2731.435  0.00  0.00     0.210 HD
ENDBRANCH 114 116
ENDBRANCH 111 114
ENDBRANCH 109 111
ENDBRANCH 106 107
BRANCH 106 118
ATOM    118  CB  MET d  15    2612.027 807.676-2735.517  0.00  0.00     0.045 C 
BRANCH 118 119
ATOM    119  CG  MET d  15    2610.865 806.678-2735.708  0.00  0.00     0.076 C 
BRANCH 119 120
ATOM    120  SD  MET d  15    2609.291 807.544-2735.594  0.00  0.00    -0.173 SA
ATOM    121  CE  MET d  15    2608.210 806.115-2735.456  0.00  0.00     0.089 C 
ENDBRANCH 119 120
ENDBRANCH 118 119
ENDBRANCH 106 118
ENDBRANCH 104 106
ENDBRANCH 101 102
BRANCH 101 122
ATOM    122  CB  VAL d  14    2614.470 803.005-2734.474  0.00  0.00     0.009 C 
ATOM    123  CG1 VAL d  14    2614.559 802.585-2735.967  0.00  0.00     0.012 C 
ATOM    124  CG2 VAL d  14    2614.902 801.753-2733.673  0.00  0.00     0.012 C 
ENDBRANCH 101 122
ENDBRANCH  99 101
ENDBRANCH  96  97
BRANCH  96 125
ATOM    125  CB  ARG d  13    2615.833 805.171-2729.738  0.00  0.00     0.036 C 
BRANCH 125 126
ATOM    126  CG  ARG d  13    2617.378 805.323-2729.657  0.00  0.00     0.023 C 
BRANCH 126 127
ATOM    127  CD  ARG d  13    2618.005 804.336-2728.659  0.00  0.00     0.138 C 
BRANCH 127 128
ATOM    128  NE  ARG d  13    2619.482 804.543-2728.609  0.00  0.00    -0.227 N 
ATOM    129  CZ  ARG d  13    2620.331 803.852-2727.854  0.00  0.00     0.665 C 
ATOM    130  NH1 ARG d  13    2619.966 802.888-2727.055  0.00  0.00    -0.235 N 
ATOM    131  NH2 ARG d  13    2621.590 804.150-2727.911  0.00  0.00    -0.235 N 
ATOM    132 11HH ARG d  13    2618.960 802.702-2727.058  0.00  0.00     0.174 HD
ATOM    133 12HH ARG d  13    2620.679 802.405-2726.506  0.00  0.00     0.174 HD
ATOM    134 21HH ARG d  13    2621.858 804.908-2728.543  0.00  0.00     0.174 HD
ATOM    135 22HH ARG d  13    2622.226 803.609-2727.322  0.00  0.00     0.174 HD
ATOM    136  HE  ARG d  13    2619.934 805.265-2729.180  0.00  0.00     0.177 HD
ENDBRANCH 127 128
ENDBRANCH 126 127
ENDBRANCH 125 126
ENDBRANCH  96 125
ENDBRANCH  94  96
ENDBRANCH  91  92
BRANCH  91 137
ATOM    137  CB  GLN d  12    2611.015 807.453-2729.741  0.00  0.00     0.044 C 
BRANCH 137 138
ATOM    138  CG  GLN d  12    2611.376 808.974-2729.711  0.00  0.00     0.105 C 
BRANCH 138 139
ATOM    139  CD  GLN d  12    2611.075 809.788-2728.447  0.00  0.00     0.215 C 
ATOM    140  NE2 GLN d  12    2610.508 809.213-2727.417  0.00  0.00    -0.370 N 
ATOM    141 21HE GLN d  12    2610.401 809.808-2726.594  0.00  0.00     0.159 HD
ATOM    142 22HE GLN d  12    2610.343 808.209-2727.520  0.00  0.00     0.159 HD
ATOM    143  OE1 GLN d  12    2611.377 810.969-2728.370  0.00  0.00    -0.274 OA
ENDBRANCH 138 139
ENDBRANCH 137 138
ENDBRANCH  91 137
ENDBRANCH  89  91
ENDBRANCH  86  87
BRANCH  86 144
ATOM    144  CB  VAL d  11    2609.166 802.939-2731.944  0.00  0.00     0.009 C 
ATOM    145  CG1 VAL d  11    2608.597 803.642-2733.207  0.00  0.00     0.012 C 
ATOM    146  CG2 VAL d  11    2608.641 801.485-2732.016  0.00  0.00     0.012 C 
ENDBRANCH  86 144
ENDBRANCH  84  86
ENDBRANCH  81  82
BRANCH  81 147
ATOM    147  CB  HIS d  10    2612.522 800.407-2728.698  0.00  0.00     0.095 C 
BRANCH 147 148
ATOM    148  CG  HIS d  10    2613.808 799.696-2728.390  0.00  0.00     0.053 A 
ATOM    149  CD2 HIS d  10    2614.189 799.362-2727.097  0.00  0.00     0.116 A 
ATOM    150  NE2 HIS d  10    2615.404 798.729-2727.164  0.00  0.00    -0.359 N 
ATOM    151  CE1 HIS d  10    2615.666 798.731-2728.499  0.00  0.00     0.207 A 
ATOM    152  2HE HIS d  10    2615.970 798.352-2726.391  0.00  0.00     0.166 HD
ATOM    153  ND1 HIS d  10    2614.759 799.289-2729.322  0.00  0.00    -0.247 NA
ENDBRANCH 147 148
ENDBRANCH  81 147
ENDBRANCH  79  81
ENDBRANCH   1  77
BRANCH   1 154
ATOM    154  CB  GLU d   9    2611.420 804.045-2725.013  0.00  0.00     0.045 C 
BRANCH 154 155
ATOM    155  CG  GLU d   9    2612.803 804.737-2724.784  0.00  0.00     0.116 C 
BRANCH 155 156
ATOM    156  CD  GLU d   9    2613.505 804.523-2723.456  0.00  0.00     0.172 C 
ATOM    157  OE1 GLU d   9    2612.983 803.833-2722.559  0.00  0.00    -0.648 OA
ATOM    158  OE2 GLU d   9    2614.624 805.061-2723.325  0.00  0.00    -0.648 OA
ENDBRANCH 155 156
ENDBRANCH 154 155
ENDBRANCH   1 154
TORSDOF 66
