@<TRIPOS>MOLECULE
9-13
261 262 16              
SMALL
USER_CHARGES
@<TRIPOS>ATOM
1	   N	1451.587	426.696	-1466.331	N.3	1	GLU1	-0.516	
2	  CA	1452.146	428.045	-1466.331	C.3	1	GLU1	0.040	
3	   C	1453.655	428.005	-1466.331	C.2	1	GLU1	0.537	
4	   O	1454.331	428.704	-1467.099	O.2	1	GLU1	-0.582	
5	  CB	1451.623	428.830	-1465.094	C.3	1	GLU1	0.056	
6	  CG	1452.098	430.315	-1464.983	C.3	1	GLU1	0.014	
7	  CD	1451.674	431.119	-1463.767	C.2	1	GLU1	0.805	
8	 OE1	1450.946	430.617	-1462.890	O.co2	1	GLU1	-0.819	
9	 OE2	1452.104	432.289	-1463.696	O.co2	1	GLU1	-0.819	
10	   H	1452.214	425.817	-1466.331	 H	1	GLU1	0.294	
11	  HA	1451.820	428.563	-1467.250	 H	1	GLU1	0.111	
12	 2HB	1451.912	428.299	-1464.164	 H	1	GLU1	-0.017	
13	 3HB	1450.516	428.820	-1465.081	 H	1	GLU1	-0.017	
14	 2HG	1451.788	430.900	-1465.864	 H	1	GLU1	-0.043	
15	 3HG	1453.198	430.382	-1464.953	 H	1	GLU1	-0.043	
16	   N	1454.260	427.219	-1465.505	N.am	2	ASN2	-0.416	
17	  CA	1455.719	427.180	-1465.505	C.3	2	ASN2	0.014	
18	   C	1456.250	426.825	-1466.874	C.2	2	ASN2	0.597	
19	   O	1457.165	427.455	-1467.403	O.2	2	ASN2	-0.568	
20	  CB	1456.211	426.157	-1464.441	C.3	2	ASN2	-0.204	
21	  CG	1455.748	426.381	-1462.998	C.2	2	ASN2	0.713	
22	 ND2	1456.342	427.296	-1462.280	N.pl3	2	ASN2	-0.919	
23	 OD1	1454.827	425.747	-1462.504	O.2	2	ASN2	-0.593	
24	   H	1453.732	426.639	-1464.869	 H	2	ASN2	0.272	
25	  HA	1456.096	428.190	-1465.260	 H	2	ASN2	0.105	
26	 2HB	1457.316	426.098	-1464.445	 H	2	ASN2	0.080	
27	 3HB	1455.882	425.139	-1464.727	 H	2	ASN2	0.080	
28	1HD2	1455.862	427.469	-1461.393	 H	2	ASN2	0.420	
29	2HD2	1457.044	427.868	-1462.749	 H	2	ASN2	0.420	
30	   N	1455.729	425.830	-1467.508	N.am	3	PRO3	-0.255	
31	  CA	1456.180	425.420	-1468.830	C.3	3	PRO3	-0.027	
32	   C	1455.782	426.444	-1469.907	C.2	3	PRO3	0.590	
33	   O	1456.605	426.827	-1470.738	O.2	3	PRO3	-0.575	
34	  CB	1455.476	424.066	-1468.999	C.3	3	PRO3	-0.007	
35	  CG	1454.193	424.218	-1468.169	C.3	3	PRO3	0.019	
36	  CD	1454.651	425.036	-1466.959	C.3	3	PRO3	0.019	
37	  HA	1457.266	425.301	-1468.844	 H	3	PRO3	0.064	
38	 2HB	1456.099	423.284	-1468.558	 H	3	PRO3	0.025	
39	 3HB	1455.278	423.817	-1470.044	 H	3	PRO3	0.025	
40	 2HG	1453.766	423.256	-1467.878	 H	3	PRO3	0.021	
41	 3HG	1453.455	424.789	-1468.736	 H	3	PRO3	0.021	
42	 2HD	1455.040	424.387	-1466.171	 H	3	PRO3	0.039	
43	 3HD	1453.854	425.672	-1466.566	 H	3	PRO3	0.039	
44	   N	1454.578	426.904	-1469.939	N.am	4	GLU4	-0.516	
45	  CA	1454.218	427.875	-1470.968	C.3	4	GLU4	0.040	
46	   C	1455.117	429.086	-1470.907	C.2	4	GLU4	0.537	
47	   O	1455.643	429.566	-1471.922	O.2	4	GLU4	-0.582	
48	  CB	1452.729	428.294	-1470.798	C.3	4	GLU4	0.056	
49	  CG	1452.181	429.297	-1471.863	C.3	4	GLU4	0.014	
50	  CD	1450.754	429.794	-1471.719	C.2	4	GLU4	0.805	
51	 OE1	1450.028	429.395	-1470.789	O.co2	4	GLU4	-0.819	
52	 OE2	1450.365	430.623	-1472.568	O.co2	4	GLU4	-0.819	
53	   H	1453.893	426.597	-1469.262	 H	4	GLU4	0.294	
54	  HA	1454.349	427.404	-1471.960	 H	4	GLU4	0.111	
55	 2HB	1452.577	428.733	-1469.791	 H	4	GLU4	-0.017	
56	 3HB	1452.081	427.396	-1470.804	 H	4	GLU4	-0.017	
57	 2HG	1452.262	428.882	-1472.881	 H	4	GLU4	-0.043	
58	 3HG	1452.769	430.230	-1471.875	 H	4	GLU4	-0.043	
59	   N	1455.344	429.639	-1469.764	N.am	5	SER5	-0.416	
60	  CA	1456.214	430.810	-1469.706	C.3	5	SER5	-0.025	
61	   C	1457.572	430.505	-1470.292	C.2	5	SER5	0.597	
62	   O	1458.119	431.258	-1471.096	O.2	5	SER5	-0.568	
63	  CB	1456.325	431.342	-1468.255	C.3	5	SER5	0.212	
64	  OG	1457.057	430.463	-1467.394	O.3	5	SER5	-0.655	
65	   H	1454.927	429.267	-1468.923	 H	5	SER5	0.272	
66	  HA	1455.764	431.600	-1470.335	 H	5	SER5	0.084	
67	 2HB	1455.325	431.536	-1467.822	 H	5	SER5	0.035	
68	 3HB	1456.830	432.328	-1468.257	 H	5	SER5	0.035	
69	  HG	1456.568	429.638	-1467.344	 H	5	SER5	0.428	
70	   N	1458.177	429.422	-1469.938	N.am	6	ILE6	-0.416	
71	  CA	1459.490	429.127	-1470.504	C.3	6	ILE6	-0.060	
72	   C	1459.433	429.090	-1472.012	C.2	6	ILE6	0.597	
73	   O	1460.268	429.678	-1472.716	O.2	6	ILE6	-0.568	
74	  CB	1460.090	427.791	-1469.904	C.3	6	ILE6	0.130	
75	 CG1	1460.110	427.729	-1468.343	C.3	6	ILE6	-0.043	
76	 CG2	1461.531	427.489	-1470.420	C.3	6	ILE6	-0.320	
77	 CD1	1460.380	426.339	-1467.728	C.3	6	ILE6	-0.066	
78	   H	1457.749	428.787	-1469.279	 H	6	ILE6	0.272	
79	  HA	1460.164	429.961	-1470.236	 H	6	ILE6	0.087	
80	  HB	1459.432	426.965	-1470.248	 H	6	ILE6	0.019	
81	2HG1	1459.127	428.048	-1467.947	 H	6	ILE6	0.024	
82	3HG1	1460.825	428.470	-1467.938	 H	6	ILE6	0.024	
83	1HG2	1461.590	427.396	-1471.518	 H	6	ILE6	0.088	
84	2HG2	1462.253	428.272	-1470.117	 H	6	ILE6	0.088	
85	3HG2	1461.922	426.527	-1470.041	 H	6	ILE6	0.088	
86	1HD1	1459.652	425.585	-1468.083	 H	6	ILE6	0.019	
87	2HD1	1461.390	425.961	-1467.964	 H	6	ILE6	0.019	
88	3HD1	1460.304	426.369	-1466.626	 H	6	ILE6	0.019	
89	   N	1458.487	428.426	-1472.585	N.am	7	LEU7	-0.416	
90	  CA	1458.432	428.390	-1474.044	C.3	7	LEU7	-0.052	
91	   C	1458.359	429.786	-1474.616	C.2	7	LEU7	0.597	
92	   O	1459.080	430.149	-1475.558	O.2	7	LEU7	-0.568	
93	  CB	1457.229	427.530	-1474.524	C.3	7	LEU7	-0.110	
94	  CG	1457.156	426.051	-1474.058	C.3	7	LEU7	0.353	
95	 CD1	1455.966	425.345	-1474.724	C.3	7	LEU7	-0.412	
96	 CD2	1458.450	425.272	-1474.350	C.3	7	LEU7	-0.412	
97	   H	1457.795	427.939	-1472.034	 H	7	LEU7	0.272	
98	  HA	1459.374	427.951	-1474.418	 H	7	LEU7	0.092	
99	 2HB	1457.205	427.546	-1475.632	 H	7	LEU7	0.046	
100	 3HB	1456.289	428.033	-1474.220	 H	7	LEU7	0.046	
101	  HG	1456.987	426.042	-1472.961	 H	7	LEU7	-0.036	
102	1HD1	1455.009	425.854	-1474.501	 H	7	LEU7	0.100	
103	2HD1	1456.065	425.305	-1475.825	 H	7	LEU7	0.100	
104	3HD1	1455.859	424.304	-1474.368	 H	7	LEU7	0.100	
105	1HD2	1458.725	425.302	-1475.420	 H	7	LEU7	0.100	
106	2HD2	1459.303	425.683	-1473.779	 H	7	LEU7	0.100	
107	3HD2	1458.368	424.209	-1474.054	 H	7	LEU7	0.100	
108	   N	1457.522	430.626	-1474.109	N.am	8	ASP8	-0.516	
109	  CA	1457.452	431.976	-1474.662	C.3	8	ASP8	0.038	
110	   C	1458.798	432.656	-1474.605	C.2	8	ASP8	0.537	
111	   O	1459.271	433.261	-1475.579	O.2	8	ASP8	-0.582	
112	  CB	1456.374	432.815	-1473.920	C.3	8	ASP8	-0.030	
113	  CG	1456.155	434.236	-1474.461	C.2	8	ASP8	0.799	
114	 OD1	1456.219	434.435	-1475.691	O.co2	8	ASP8	-0.801	
115	 OD2	1455.962	435.161	-1473.645	O.co2	8	ASP8	-0.801	
116	   H	1456.924	430.355	-1473.342	 H	8	ASP8	0.294	
117	  HA	1457.169	431.898	-1475.729	 H	8	ASP8	0.088	
118	 2HB	1456.631	432.898	-1472.849	 H	8	ASP8	-0.012	
119	 3HB	1455.394	432.310	-1473.953	 H	8	ASP8	-0.012	
120	   N	1459.478	432.606	-1473.510	N.am	9	SER9	-0.416	
121	  CA	1460.780	433.264	-1473.455	C.3	9	SER9	-0.025	
122	   C	1461.698	432.736	-1474.533	C.2	9	SER9	0.597	
123	   O	1462.357	433.486	-1475.253	O.2	9	SER9	-0.568	
124	  CB	1461.412	433.121	-1472.048	C.3	9	SER9	0.212	
125	  OG	1461.814	431.779	-1471.752	O.3	9	SER9	-0.655	
126	   H	1459.115	432.119	-1472.703	 H	9	SER9	0.272	
127	  HA	1460.628	434.339	-1473.663	 H	9	SER9	0.084	
128	 2HB	1460.723	433.482	-1471.261	 H	9	SER9	0.035	
129	 3HB	1462.301	433.776	-1471.971	 H	9	SER9	0.035	
130	  HG	1461.022	431.236	-1471.750	 H	9	SER9	0.428	
131	   N	1461.796	431.460	-1474.703	N.am	10	HIS10	-0.416	
132	  CA	1462.683	430.950	-1475.744	C.3	10	HIS10	-0.058	
133	   C	1462.315	431.514	-1477.095	C.2	10	HIS10	0.597	
134	   O	1463.166	431.980	-1477.867	O.2	10	HIS10	-0.568	
135	  CB	1462.520	429.421	-1475.739	C.3	10	HIS10	-0.007	
136	  CG	1463.806	428.711	-1475.432	C.2	10	HIS10	0.187	
137	 CD2	1464.189	428.376	-1474.140	C.2	10	HIS10	-0.221	
138	 ND1	1464.758	428.306	-1476.365	N.2	10	HIS10	-0.543	
139	 CE1	1465.666	427.749	-1475.543	C.2	10	HIS10	0.163	
140	 NE2	1465.404	427.746	-1474.208	N.pl3	10	HIS10	-0.280	
141	   H	1461.266	430.825	-1474.124	 H	10	HIS10	0.272	
142	  HA	1463.702	431.308	-1475.520	 H	10	HIS10	0.136	
143	 2HB	1462.154	429.054	-1476.719	 H	10	HIS10	0.037	
144	 3HB	1461.765	429.083	-1474.998	 H	10	HIS10	0.037	
145	 2HD	1463.604	428.591	-1473.250	 H	10	HIS10	0.186	
146	 1HE	1466.556	427.329	-1475.991	 H	10	HIS10	0.144	
147	 2HE	1465.972	427.369	-1473.435	 H	10	HIS10	0.334	
148	   N	1461.076	431.513	-1477.457	N.am	11	VAL11	-0.416	
149	  CA	1460.720	432.059	-1478.763	C.3	11	VAL11	-0.087	
150	   C	1461.183	433.490	-1478.896	C.2	11	VAL11	0.597	
151	   O	1461.783	433.895	-1479.899	O.2	11	VAL11	-0.568	
152	  CB	1459.159	431.951	-1478.981	C.3	11	VAL11	0.299	
153	 CG1	1458.588	432.655	-1480.244	C.3	11	VAL11	-0.319	
154	 CG2	1458.635	430.497	-1479.054	C.3	11	VAL11	-0.319	
155	   H	1460.364	431.139	-1476.845	 H	11	VAL11	0.272	
156	  HA	1461.239	431.477	-1479.546	 H	11	VAL11	0.097	
157	  HB	1458.671	432.431	-1478.106	 H	11	VAL11	-0.030	
158	1HG1	1459.027	432.264	-1481.181	 H	11	VAL11	0.079	
159	2HG1	1457.490	432.547	-1480.325	 H	11	VAL11	0.079	
160	3HG1	1458.766	433.747	-1480.234	 H	11	VAL11	0.079	
161	1HG2	1458.926	429.909	-1478.164	 H	11	VAL11	0.079	
162	2HG2	1457.529	430.459	-1479.096	 H	11	VAL11	0.079	
163	3HG2	1459.016	429.956	-1479.941	 H	11	VAL11	0.079	
164	   N	1460.946	434.315	-1477.933	N.am	12	GLN12	-0.416	
165	  CA	1461.393	435.699	-1478.060	C.3	12	GLN12	-0.003	
166	   C	1462.883	435.767	-1478.299	C.2	12	GLN12	0.597	
167	   O	1463.369	436.476	-1479.178	O.2	12	GLN12	-0.568	
168	  CB	1461.003	436.466	-1476.777	C.3	12	GLN12	-0.004	
169	  CG	1461.362	437.988	-1476.746	C.3	12	GLN12	-0.064	
170	  CD	1461.060	438.801	-1475.481	C.2	12	GLN12	0.695	
171	 NE2	1460.494	438.224	-1474.452	N.pl3	12	GLN12	-0.941	
172	 OE1	1461.361	439.982	-1475.403	O.2	12	GLN12	-0.609	
173	   H	1460.458	434.009	-1477.104	 H	12	GLN12	0.272	
174	  HA	1460.893	436.155	-1478.935	 H	12	GLN12	0.085	
175	 2HB	1461.480	435.966	-1475.908	 H	12	GLN12	0.017	
176	 3HB	1459.913	436.357	-1476.613	 H	12	GLN12	0.017	
177	 2HG	1460.883	438.508	-1477.596	 H	12	GLN12	0.035	
178	 3HG	1462.445	438.131	-1476.912	 H	12	GLN12	0.035	
179	1HE2	1460.387	438.818	-1473.628	 H	12	GLN12	0.425	
180	2HE2	1460.331	437.220	-1474.555	 H	12	GLN12	0.425	
181	   N	1463.669	435.061	-1477.559	N.am	13	ARG13	-0.348	
182	  CA	1465.109	435.128	-1477.791	C.3	13	ARG13	-0.264	
183	   C	1465.444	434.757	-1479.216	C.2	13	ARG13	0.734	
184	   O	1466.212	435.429	-1479.901	O.2	13	ARG13	-0.589	
185	  CB	1465.824	434.189	-1476.777	C.3	13	ARG13	-0.001	
186	  CG	1467.369	434.344	-1476.698	C.3	13	ARG13	0.039	
187	  CD	1467.997	433.356	-1475.700	C.3	13	ARG13	0.049	
188	  NE	1469.474	433.565	-1475.651	N.pl3	13	ARG13	-0.530	
189	  CZ	1470.323	432.874	-1474.896	C.cat	13	ARG13	0.808	
190	 NH1	1469.959	431.909	-1474.099	N.pl3	13	ARG13	-0.863	
191	 NH2	1471.582	433.174	-1474.954	N.pl3	13	ARG13	-0.863	
192	   H	1463.294	434.471	-1476.830	 H	13	ARG13	0.275	
193	  HA	1465.432	436.174	-1477.632	 H	13	ARG13	0.156	
194	 2HB	1465.558	433.139	-1477.017	 H	13	ARG13	0.033	
195	 3HB	1465.399	434.355	-1475.766	 H	13	ARG13	0.033	
196	 2HG	1467.616	435.388	-1476.418	 H	13	ARG13	0.029	
197	 3HG	1467.819	434.188	-1477.699	 H	13	ARG13	0.029	
198	 2HD	1467.753	432.316	-1476.009	 H	13	ARG13	0.069	
199	 3HD	1467.541	433.502	-1474.698	 H	13	ARG13	0.069	
200	  HE	1469.924	434.287	-1476.222	 H	13	ARG13	0.346	
201	1HH1	1468.954	431.722	-1474.101	 H	13	ARG13	0.448	
202	2HH1	1470.673	431.426	-1473.551	 H	13	ARG13	0.448	
203	1HH2	1471.849	433.932	-1475.585	 H	13	ARG13	0.448	
204	2HH2	1472.218	432.633	-1474.366	 H	13	ARG13	0.448	
205	   N	1464.909	433.702	-1479.730	N.am	14	VAL14	-0.416	
206	  CA	1465.233	433.343	-1481.108	C.3	14	VAL14	-0.087	
207	   C	1464.902	434.473	-1482.053	C.2	14	VAL14	0.597	
208	   O	1465.694	434.855	-1482.923	O.2	14	VAL14	-0.568	
209	  CB	1464.462	432.025	-1481.515	C.3	14	VAL14	0.299	
210	 CG1	1464.551	431.608	-1483.008	C.3	14	VAL14	-0.319	
211	 CG2	1464.895	430.774	-1480.715	C.3	14	VAL14	-0.319	
212	   H	1464.275	433.133	-1479.188	 H	14	VAL14	0.272	
213	  HA	1466.322	433.167	-1481.183	 H	14	VAL14	0.097	
214	  HB	1463.386	432.196	-1481.298	 H	14	VAL14	-0.030	
215	1HG1	1465.592	431.431	-1483.338	 H	14	VAL14	0.079	
216	2HG1	1463.979	430.684	-1483.221	 H	14	VAL14	0.079	
217	3HG1	1464.121	432.369	-1483.686	 H	14	VAL14	0.079	
218	1HG2	1464.809	430.932	-1479.624	 H	14	VAL14	0.079	
219	2HG2	1464.260	429.897	-1480.947	 H	14	VAL14	0.079	
220	3HG2	1465.943	430.484	-1480.921	 H	14	VAL14	0.079	
221	   N	1463.757	435.058	-1481.951	N.am	15	MET15	-0.416	
222	  CA	1463.435	436.151	-1482.864	C.3	15	MET15	-0.024	
223	   C	1464.464	437.251	-1482.776	C.2	15	MET15	0.597	
224	   O	1464.966	437.763	-1483.789	O.2	15	MET15	-0.568	
225	  CB	1462.013	436.695	-1482.554	C.3	15	MET15	0.034	
226	  CG	1460.852	435.696	-1482.745	C.3	15	MET15	0.002	
227	  SD	1459.277	436.560	-1482.630	S.3	15	MET15	-0.274	
228	  CE	1458.198	435.129	-1482.493	C.3	15	MET15	-0.054	
229	   H	1463.092	434.764	-1481.249	 H	15	MET15	0.272	
230	  HA	1463.460	435.763	-1483.900	 H	15	MET15	0.088	
231	 2HB	1461.810	437.573	-1483.196	 H	15	MET15	0.024	
232	 3HB	1461.978	437.087	-1481.518	 H	15	MET15	0.024	
233	 2HG	1460.896	434.910	-1481.968	 H	15	MET15	0.044	
234	 3HG	1460.915	435.181	-1483.722	 H	15	MET15	0.044	
235	 1HE	1458.341	434.441	-1483.346	 H	15	MET15	0.068	
236	 2HE	1458.408	434.577	-1481.560	 H	15	MET15	0.068	
237	 3HE	1457.140	435.444	-1482.476	 H	15	MET15	0.068	
238	   N	1464.833	437.672	-1481.614	N.am	16	ARG16	-0.348	
239	  CA	1465.829	438.737	-1481.531	C.3	16	ARG16	-0.264	
240	   C	1467.099	438.346	-1482.248	C.2	16	ARG16	0.734	
241	   O	1467.214	437.270	-1482.830	O.2	16	ARG16	-0.589	
242	  CB	1466.098	439.055	-1480.032	C.3	16	ARG16	-0.001	
243	  CG	1466.922	440.345	-1479.760	C.3	16	ARG16	0.039	
244	  CD	1467.173	440.564	-1478.259	C.3	16	ARG16	0.049	
245	  NE	1467.948	441.823	-1478.058	N.pl3	16	ARG16	-0.530	
246	  CZ	1468.339	442.306	-1476.882	C.cat	16	ARG16	0.808	
247	 NH1	1468.093	441.721	-1475.744	N.pl3	16	ARG16	-0.863	
248	 NH2	1469.002	443.419	-1476.864	N.pl3	16	ARG16	-0.863	
249	   H	1464.439	437.272	-1480.775	 H	16	ARG16	0.275	
250	  HA	1465.419	439.630	-1482.040	 H	16	ARG16	0.156	
251	 2HB	1466.596	438.179	-1479.567	 H	16	ARG16	0.033	
252	 3HB	1465.130	439.135	-1479.498	 H	16	ARG16	0.033	
253	 2HG	1466.391	441.215	-1480.196	 H	16	ARG16	0.029	
254	 3HG	1467.896	440.293	-1480.289	 H	16	ARG16	0.029	
255	 2HD	1467.723	439.689	-1477.846	 H	16	ARG16	0.069	
256	 3HD	1466.200	440.605	-1477.723	 H	16	ARG16	0.069	
257	  HE	1468.225	442.405	-1478.855	 H	16	ARG16	0.346	
258	1HH1	1467.568	440.847	-1475.828	 H	16	ARG16	0.448	
259	2HH1	1468.427	442.156	-1474.883	 H	16	ARG16	0.448	
260	1HH2	1469.187	443.862	-1477.765	 H	16	ARG16	0.448	
261	2HH2	1469.292	443.774	-1475.951	 H	16	ARG16	0.448	
@<TRIPOS>BOND
1 1 2 1
2 1 10 1
3 2 3 1
4 2 5 1
5 2 11 1
6 3 4 2
7 3 16 1
8 5 6 1
9 6 7 1
10 7 8 2
11 7 9 1
12 5 12 1
13 5 13 1
14 6 14 1
15 6 15 1
16 16 17 1
17 16 24 1
18 17 18 1
19 17 20 1
20 17 25 1
21 18 19 2
22 18 30 1
23 20 21 1
24 21 22 1
25 21 23 2
26 20 26 1
27 20 27 1
28 22 28 1
29 22 29 1
30 30 31 1
31 30 36 1
32 31 32 1
33 31 34 1
34 31 37 1
35 32 33 2
36 32 44 1
37 34 35 1
38 35 36 1
39 34 38 1
40 34 39 1
41 35 40 1
42 35 41 1
43 36 42 1
44 36 43 1
45 44 45 1
46 44 53 1
47 45 46 1
48 45 48 1
49 45 54 1
50 46 47 2
51 46 59 1
52 48 49 1
53 49 50 1
54 50 51 2
55 50 52 1
56 48 55 1
57 48 56 1
58 49 57 1
59 49 58 1
60 59 60 1
61 59 65 1
62 60 61 1
63 60 63 1
64 60 66 1
65 61 62 2
66 61 70 1
67 63 64 1
68 63 67 1
69 63 68 1
70 64 69 1
71 70 71 1
72 70 78 1
73 71 72 1
74 71 74 1
75 71 79 1
76 72 73 2
77 72 89 1
78 74 75 1
79 74 76 1
80 75 77 1
81 74 80 1
82 75 81 1
83 75 82 1
84 76 83 1
85 76 84 1
86 76 85 1
87 77 86 1
88 77 87 1
89 77 88 1
90 89 90 1
91 89 97 1
92 90 91 1
93 90 93 1
94 90 98 1
95 91 92 2
96 91 108 1
97 93 94 1
98 94 95 1
99 94 96 1
100 93 99 1
101 93 100 1
102 94 101 1
103 95 102 1
104 95 103 1
105 95 104 1
106 96 105 1
107 96 106 1
108 96 107 1
109 108 109 1
110 108 116 1
111 109 110 1
112 109 112 1
113 109 117 1
114 110 111 2
115 110 120 1
116 112 113 1
117 113 114 2
118 113 115 1
119 112 118 1
120 112 119 1
121 120 121 1
122 120 126 1
123 121 122 1
124 121 124 1
125 121 127 1
126 122 123 2
127 122 131 1
128 124 125 1
129 124 128 1
130 124 129 1
131 125 130 1
132 131 132 1
133 131 141 1
134 132 133 1
135 132 135 1
136 132 142 1
137 133 134 2
138 133 148 1
139 135 136 1
140 136 137 2
141 137 140 1
142 136 138 1
143 138 139 2
144 139 140 1
145 135 143 1
146 135 144 1
147 137 145 1
148 139 146 1
149 140 147 1
150 148 149 1
151 148 155 1
152 149 150 1
153 149 152 1
154 149 156 1
155 150 151 2
156 150 164 1
157 152 153 1
158 152 154 1
159 152 157 1
160 153 158 1
161 153 159 1
162 153 160 1
163 154 161 1
164 154 162 1
165 154 163 1
166 164 165 1
167 164 173 1
168 165 166 1
169 165 168 1
170 165 174 1
171 166 167 2
172 166 181 1
173 168 169 1
174 169 170 1
175 170 171 1
176 170 172 2
177 168 175 1
178 168 176 1
179 169 177 1
180 169 178 1
181 171 179 1
182 171 180 1
183 181 182 1
184 181 192 1
185 182 183 1
186 182 185 1
187 182 193 1
188 183 184 2
189 183 205 1
190 185 186 1
191 186 187 1
192 187 188 1
193 188 189 1
194 189 190 2
195 189 191 1
196 185 194 1
197 185 195 1
198 186 196 1
199 186 197 1
200 187 198 1
201 187 199 1
202 188 200 1
203 190 201 1
204 190 202 1
205 191 203 1
206 191 204 1
207 205 206 1
208 205 212 1
209 206 207 1
210 206 209 1
211 206 213 1
212 207 208 2
213 207 221 1
214 209 210 1
215 209 211 1
216 209 214 1
217 210 215 1
218 210 216 1
219 210 217 1
220 211 218 1
221 211 219 1
222 211 220 1
223 221 222 1
224 221 229 1
225 222 223 1
226 222 225 1
227 222 230 1
228 223 224 2
229 223 238 1
230 225 226 1
231 226 227 1
232 227 228 1
233 225 231 1
234 225 232 1
235 226 233 1
236 226 234 1
237 228 235 1
238 228 236 1
239 228 237 1
240 238 239 1
241 238 249 1
242 239 240 1
243 239 242 1
244 239 250 1
245 240 241 2
246 242 243 1
247 243 244 1
248 244 245 1
249 245 246 1
250 246 247 2
251 246 248 1
252 242 251 1
253 242 252 1
254 243 253 1
255 243 254 1
256 244 255 1
257 244 256 1
258 245 257 1
259 247 258 1
260 247 259 1
261 248 260 1
262 248 261 1
@<TRIPOS>SUBSTRUCTURE
1	GLU1	1	RESIDUE	1 ****	GLU
2	ASN2	16	RESIDUE	1 ****	ASN
3	PRO3	30	RESIDUE	1 ****	PRO
4	GLU4	44	RESIDUE	1 ****	GLU
5	SER5	59	RESIDUE	1 ****	SER
6	ILE6	70	RESIDUE	1 ****	ILE
7	LEU7	89	RESIDUE	1 ****	LEU
8	ASP8	108	RESIDUE	1 ****	ASP
9	SER9	120	RESIDUE	1 ****	SER
10	HIS10	131	RESIDUE	1 ****	HIS
11	VAL11	148	RESIDUE	1 ****	VAL
12	GLN12	164	RESIDUE	1 ****	GLN
13	ARG13	181	RESIDUE	1 ****	ARG
14	VAL14	205	RESIDUE	1 ****	VAL
15	MET15	221	RESIDUE	1 ****	MET
16	ARG16	238	RESIDUE	1 ****	ARG
