@<TRIPOS>MOLECULE
16-7
260 261 16              
SMALL
USER_CHARGES
@<TRIPOS>ATOM
1	   N	2545.946	780.989	-2657.356	N.3	1	GLU1	-0.516	
2	  CA	2546.505	782.338	-2657.356	C.3	1	GLU1	0.040	
3	   C	2548.014	782.298	-2657.356	C.2	1	GLU1	0.537	
4	   O	2548.690	782.997	-2658.125	O.2	1	GLU1	-0.582	
5	  CB	2545.982	783.123	-2656.119	C.3	1	GLU1	0.056	
6	  CG	2546.457	784.608	-2656.008	C.3	1	GLU1	0.014	
7	  CD	2546.033	785.412	-2654.793	C.2	1	GLU1	0.805	
8	 OE1	2545.305	784.910	-2653.915	O.co2	1	GLU1	-0.819	
9	 OE2	2546.463	786.582	-2654.721	O.co2	1	GLU1	-0.819	
10	   H	2546.573	780.110	-2657.356	 H	1	GLU1	0.294	
11	  HA	2546.179	782.856	-2658.276	 H	1	GLU1	0.111	
12	 2HB	2546.271	782.592	-2655.189	 H	1	GLU1	-0.017	
13	 3HB	2544.875	783.113	-2656.106	 H	1	GLU1	-0.017	
14	 2HG	2546.147	785.193	-2656.889	 H	1	GLU1	-0.043	
15	 3HG	2547.557	784.675	-2655.979	 H	1	GLU1	-0.043	
16	   N	2548.618	781.512	-2656.531	N.am	2	ASN2	-0.416	
17	  CA	2550.078	781.473	-2656.531	C.3	2	ASN2	0.014	
18	   C	2550.609	781.117	-2657.899	C.2	2	ASN2	0.597	
19	   O	2551.524	781.747	-2658.427	O.2	2	ASN2	-0.568	
20	  CB	2550.569	780.450	-2655.466	C.3	2	ASN2	-0.204	
21	  CG	2550.106	780.674	-2654.023	C.2	2	ASN2	0.713	
22	 ND2	2550.700	781.588	-2653.305	N.pl3	2	ASN2	-0.919	
23	 OD1	2549.185	780.040	-2653.529	O.2	2	ASN2	-0.593	
24	   H	2548.090	780.932	-2655.895	 H	2	ASN2	0.272	
25	  HA	2550.455	782.482	-2656.285	 H	2	ASN2	0.105	
26	 2HB	2551.674	780.391	-2655.469	 H	2	ASN2	0.080	
27	 3HB	2550.240	779.431	-2655.752	 H	2	ASN2	0.080	
28	1HD2	2550.219	781.762	-2652.418	 H	2	ASN2	0.420	
29	2HD2	2551.402	782.160	-2653.774	 H	2	ASN2	0.420	
30	   N	2550.088	780.122	-2658.534	N.am	3	PRO3	-0.255	
31	  CA	2550.540	779.713	-2659.855	C.3	3	PRO3	-0.027	
32	   C	2550.142	780.737	-2660.932	C.2	3	PRO3	0.590	
33	   O	2550.966	781.120	-2661.763	O.2	3	PRO3	-0.575	
34	  CB	2549.835	778.358	-2660.025	C.3	3	PRO3	-0.007	
35	  CG	2548.552	778.511	-2659.195	C.3	3	PRO3	0.019	
36	  CD	2549.009	779.329	-2657.985	C.3	3	PRO3	0.019	
37	  HA	2551.626	779.593	-2659.868	 H	3	PRO3	0.064	
38	 2HB	2550.458	777.577	-2659.584	 H	3	PRO3	0.025	
39	 3HB	2549.637	778.110	-2661.070	 H	3	PRO3	0.025	
40	 2HG	2548.124	777.549	-2658.904	 H	3	PRO3	0.021	
41	 3HG	2547.815	779.082	-2659.762	 H	3	PRO3	0.021	
42	 2HD	2549.398	778.680	-2657.198	 H	3	PRO3	0.039	
43	 3HD	2548.213	779.965	-2657.592	 H	3	PRO3	0.039	
44	   N	2548.937	781.197	-2660.965	N.am	4	GLU4	-0.516	
45	  CA	2548.578	782.168	-2661.995	C.3	4	GLU4	0.040	
46	   C	2549.477	783.379	-2661.933	C.2	4	GLU4	0.537	
47	   O	2550.004	783.858	-2662.947	O.2	4	GLU4	-0.582	
48	  CB	2547.090	782.587	-2661.825	C.3	4	GLU4	0.056	
49	  CG	2546.542	783.591	-2662.891	C.3	4	GLU4	0.014	
50	  CD	2545.116	784.088	-2662.748	C.2	4	GLU4	0.805	
51	 OE1	2544.389	783.690	-2661.817	O.co2	4	GLU4	-0.819	
52	 OE2	2544.727	784.917	-2663.596	O.co2	4	GLU4	-0.819	
53	   H	2548.253	780.890	-2660.288	 H	4	GLU4	0.294	
54	  HA	2548.710	781.697	-2662.986	 H	4	GLU4	0.111	
55	 2HB	2546.937	783.027	-2660.818	 H	4	GLU4	-0.017	
56	 3HB	2546.442	781.689	-2661.831	 H	4	GLU4	-0.017	
57	 2HG	2546.624	783.176	-2663.909	 H	4	GLU4	-0.043	
58	 3HG	2547.131	784.523	-2662.902	 H	4	GLU4	-0.043	
59	   N	2549.704	783.931	-2660.790	N.am	5	SER5	-0.416	
60	  CA	2550.574	785.102	-2660.731	C.3	5	SER5	-0.025	
61	   C	2551.933	784.796	-2661.316	C.2	5	SER5	0.597	
62	   O	2552.481	785.550	-2662.121	O.2	5	SER5	-0.568	
63	  CB	2550.686	785.634	-2659.281	C.3	5	SER5	0.212	
64	  OG	2551.417	784.755	-2658.419	O.3	5	SER5	-0.655	
65	   H	2549.287	783.560	-2659.948	 H	5	SER5	0.272	
66	  HA	2550.125	785.893	-2661.360	 H	5	SER5	0.084	
67	 2HB	2549.686	785.828	-2658.847	 H	5	SER5	0.035	
68	 3HB	2551.191	786.620	-2659.282	 H	5	SER5	0.035	
69	  HG	2550.927	783.930	-2658.369	 H	5	SER5	0.428	
70	   N	2552.537	783.713	-2660.962	N.am	6	ILE6	-0.416	
71	  CA	2553.851	783.417	-2661.528	C.3	6	ILE6	-0.060	
72	   C	2553.793	783.380	-2663.036	C.2	6	ILE6	0.597	
73	   O	2554.628	783.967	-2663.740	O.2	6	ILE6	-0.568	
74	  CB	2554.450	782.081	-2660.927	C.3	6	ILE6	0.130	
75	 CG1	2554.469	782.019	-2659.367	C.3	6	ILE6	-0.043	
76	 CG2	2555.891	781.779	-2661.443	C.3	6	ILE6	-0.320	
77	 CD1	2554.738	780.630	-2658.751	C.3	6	ILE6	-0.066	
78	   H	2552.108	783.079	-2660.303	 H	6	ILE6	0.272	
79	  HA	2554.525	784.251	-2661.260	 H	6	ILE6	0.087	
80	  HB	2553.792	781.255	-2661.272	 H	6	ILE6	0.019	
81	2HG1	2553.487	782.339	-2658.971	 H	6	ILE6	0.024	
82	3HG1	2555.185	782.761	-2658.962	 H	6	ILE6	0.024	
83	1HG2	2555.950	781.685	-2662.541	 H	6	ILE6	0.088	
84	2HG2	2556.613	782.561	-2661.140	 H	6	ILE6	0.088	
85	3HG2	2556.281	780.817	-2661.064	 H	6	ILE6	0.088	
86	1HD1	2554.009	779.876	-2659.106	 H	6	ILE6	0.019	
87	2HD1	2555.748	780.251	-2658.987	 H	6	ILE6	0.019	
88	3HD1	2554.661	780.660	-2657.649	 H	6	ILE6	0.019	
89	   N	2552.847	782.717	-2663.609	N.am	7	LEU7	-0.416	
90	  CA	2552.792	782.680	-2665.068	C.3	7	LEU7	-0.052	
91	   C	2552.720	784.076	-2665.641	C.2	7	LEU7	0.597	
92	   O	2553.441	784.438	-2666.583	O.2	7	LEU7	-0.568	
93	  CB	2551.589	781.821	-2665.548	C.3	7	LEU7	-0.110	
94	  CG	2551.516	780.341	-2665.082	C.3	7	LEU7	0.353	
95	 CD1	2550.326	779.636	-2665.747	C.3	7	LEU7	-0.412	
96	 CD2	2552.809	779.562	-2665.373	C.3	7	LEU7	-0.412	
97	   H	2552.155	782.230	-2663.058	 H	7	LEU7	0.272	
98	  HA	2553.734	782.240	-2665.442	 H	7	LEU7	0.092	
99	 2HB	2551.566	781.836	-2666.656	 H	7	LEU7	0.046	
100	 3HB	2550.649	782.323	-2665.244	 H	7	LEU7	0.046	
101	  HG	2551.346	780.333	-2663.984	 H	7	LEU7	-0.036	
102	1HD1	2549.369	780.145	-2665.524	 H	7	LEU7	0.100	
103	2HD1	2550.425	779.595	-2666.848	 H	7	LEU7	0.100	
104	3HD1	2550.219	778.595	-2665.391	 H	7	LEU7	0.100	
105	1HD2	2553.084	779.592	-2666.443	 H	7	LEU7	0.100	
106	2HD2	2553.663	779.973	-2664.802	 H	7	LEU7	0.100	
107	3HD2	2552.728	778.499	-2665.077	 H	7	LEU7	0.100	
108	   N	2551.884	784.917	-2665.135	N.am	8	ASP8	-0.516	
109	  CA	2551.814	786.266	-2665.689	C.3	8	ASP8	0.038	
110	   C	2553.161	786.945	-2665.632	C.2	8	ASP8	0.537	
111	   O	2553.634	787.549	-2666.607	O.2	8	ASP8	-0.582	
112	  CB	2550.736	787.106	-2664.948	C.3	8	ASP8	-0.030	
113	  CG	2550.518	788.527	-2665.489	C.2	8	ASP8	0.799	
114	 OD1	2550.583	788.725	-2666.720	O.co2	8	ASP8	-0.801	
115	 OD2	2550.327	789.453	-2664.674	O.co2	8	ASP8	-0.801	
116	   H	2551.286	784.647	-2664.367	 H	8	ASP8	0.294	
117	  HA	2551.531	786.188	-2666.756	 H	8	ASP8	0.088	
118	 2HB	2550.993	787.190	-2663.876	 H	8	ASP8	-0.012	
119	 3HB	2549.757	786.602	-2664.980	 H	8	ASP8	-0.012	
120	   N	2553.841	786.896	-2664.537	N.am	9	GLU9	-0.516	
121	  CA	2555.144	787.553	-2664.482	C.3	9	GLU9	0.040	
122	   C	2556.062	787.024	-2665.558	C.2	9	GLU9	0.537	
123	   O	2556.725	787.778	-2666.284	O.2	9	GLU9	-0.582	
124	  CB	2555.778	787.345	-2663.077	C.3	9	GLU9	0.056	
125	  CG	2557.161	788.037	-2662.848	C.3	9	GLU9	0.014	
126	  CD	2557.863	787.824	-2661.520	C.2	9	GLU9	0.805	
127	 OE1	2557.341	787.134	-2660.623	O.co2	9	GLU9	-0.819	
128	 OE2	2558.982	788.362	-2661.389	O.co2	9	GLU9	-0.819	
129	   H	2553.477	786.410	-2663.729	 H	9	GLU9	0.294	
130	  HA	2555.002	788.635	-2664.658	 H	9	GLU9	0.111	
131	 2HB	2555.890	786.261	-2662.873	 H	9	GLU9	-0.017	
132	 3HB	2555.081	787.700	-2662.292	 H	9	GLU9	-0.017	
133	 2HG	2557.089	789.128	-2662.988	 H	9	GLU9	-0.043	
134	 3HG	2557.907	787.692	-2663.582	 H	9	GLU9	-0.043	
135	   N	2556.157	785.749	-2665.727	N.am	10	HIS10	-0.416	
136	  CA	2557.045	785.237	-2666.767	C.3	10	HIS10	-0.058	
137	   C	2556.678	785.801	-2668.119	C.2	10	HIS10	0.597	
138	   O	2557.531	786.265	-2668.891	O.2	10	HIS10	-0.568	
139	  CB	2556.880	783.708	-2666.762	C.3	10	HIS10	-0.007	
140	  CG	2558.166	782.997	-2666.454	C.2	10	HIS10	0.187	
141	 CD2	2558.547	782.662	-2665.161	C.2	10	HIS10	-0.221	
142	 ND1	2559.117	782.590	-2667.386	N.2	10	HIS10	-0.543	
143	 CE1	2560.023	782.032	-2666.563	C.2	10	HIS10	0.163	
144	 NE2	2559.761	782.030	-2665.228	N.pl3	10	HIS10	-0.280	
145	   H	2555.627	785.114	-2665.148	 H	10	HIS10	0.272	
146	  HA	2558.064	785.594	-2666.543	 H	10	HIS10	0.136	
147	 2HB	2556.514	783.340	-2667.741	 H	10	HIS10	0.037	
148	 3HB	2556.125	783.371	-2666.021	 H	10	HIS10	0.037	
149	 2HD	2557.962	782.878	-2664.272	 H	10	HIS10	0.186	
150	 1HE	2560.914	781.610	-2667.010	 H	10	HIS10	0.144	
151	 2HE	2560.328	781.653	-2664.455	 H	10	HIS10	0.334	
152	   N	2555.440	785.800	-2668.481	N.am	11	VAL11	-0.416	
153	  CA	2555.085	786.346	-2669.789	C.3	11	VAL11	-0.087	
154	   C	2555.550	787.776	-2669.922	C.2	11	VAL11	0.597	
155	   O	2556.151	788.180	-2670.925	O.2	11	VAL11	-0.568	
156	  CB	2553.523	786.240	-2670.008	C.3	11	VAL11	0.299	
157	 CG1	2552.955	786.943	-2671.271	C.3	11	VAL11	-0.319	
158	 CG2	2552.998	784.786	-2670.080	C.3	11	VAL11	-0.319	
159	   H	2554.727	785.428	-2667.871	 H	11	VAL11	0.272	
160	  HA	2555.604	785.763	-2670.571	 H	11	VAL11	0.097	
161	  HB	2553.036	786.721	-2669.133	 H	11	VAL11	-0.030	
162	1HG1	2553.393	786.551	-2672.208	 H	11	VAL11	0.079	
163	2HG1	2551.856	786.836	-2671.353	 H	11	VAL11	0.079	
164	3HG1	2553.134	788.036	-2671.262	 H	11	VAL11	0.079	
165	1HG2	2553.288	784.199	-2669.189	 H	11	VAL11	0.079	
166	2HG2	2551.892	784.749	-2670.122	 H	11	VAL11	0.079	
167	3HG2	2553.380	784.244	-2670.966	 H	11	VAL11	0.079	
168	   N	2555.314	788.602	-2668.960	N.am	12	GLN12	-0.416	
169	  CA	2555.763	789.985	-2669.088	C.3	12	GLN12	-0.003	
170	   C	2557.253	790.051	-2669.326	C.2	12	GLN12	0.597	
171	   O	2557.740	790.759	-2670.205	O.2	12	GLN12	-0.568	
172	  CB	2555.373	790.753	-2667.805	C.3	12	GLN12	-0.004	
173	  CG	2555.734	792.275	-2667.775	C.3	12	GLN12	-0.064	
174	  CD	2555.432	793.089	-2666.511	C.2	12	GLN12	0.695	
175	 NE2	2554.865	792.514	-2665.481	N.pl3	12	GLN12	-0.941	
176	 OE1	2555.735	794.270	-2666.434	O.2	12	GLN12	-0.609	
177	   H	2554.825	788.297	-2668.130	 H	12	GLN12	0.272	
178	  HA	2555.263	790.441	-2669.963	 H	12	GLN12	0.085	
179	 2HB	2555.849	790.253	-2666.936	 H	12	GLN12	0.017	
180	 3HB	2554.282	790.647	-2667.642	 H	12	GLN12	0.017	
181	 2HG	2555.257	792.796	-2668.626	 H	12	GLN12	0.035	
182	 3HG	2556.817	792.416	-2667.941	 H	12	GLN12	0.035	
183	1HE2	2554.759	793.109	-2664.658	 H	12	GLN12	0.425	
184	2HE2	2554.701	791.510	-2665.584	 H	12	GLN12	0.425	
185	   N	2558.037	789.345	-2668.585	N.am	13	ARG13	-0.348	
186	  CA	2559.478	789.410	-2668.816	C.3	13	ARG13	-0.264	
187	   C	2559.813	789.037	-2670.241	C.2	13	ARG13	0.734	
188	   O	2560.582	789.708	-2670.926	O.2	13	ARG13	-0.589	
189	  CB	2560.191	788.471	-2667.802	C.3	13	ARG13	-0.001	
190	  CG	2561.736	788.624	-2667.721	C.3	13	ARG13	0.039	
191	  CD	2562.363	787.637	-2666.723	C.3	13	ARG13	0.049	
192	  NE	2563.840	787.844	-2666.673	N.pl3	13	ARG13	-0.530	
193	  CZ	2564.688	787.153	-2665.917	C.cat	13	ARG13	0.808	
194	 NH1	2564.323	786.189	-2665.119	N.pl3	13	ARG13	-0.863	
195	 NH2	2565.948	787.451	-2665.975	N.pl3	13	ARG13	-0.863	
196	   H	2557.661	788.755	-2667.856	 H	13	ARG13	0.275	
197	  HA	2559.802	790.456	-2668.658	 H	13	ARG13	0.156	
198	 2HB	2559.924	787.421	-2668.040	 H	13	ARG13	0.033	
199	 3HB	2559.766	788.639	-2666.791	 H	13	ARG13	0.033	
200	 2HG	2561.984	789.669	-2667.443	 H	13	ARG13	0.029	
201	 3HG	2562.186	788.467	-2668.723	 H	13	ARG13	0.029	
202	 2HD	2562.118	786.597	-2667.031	 H	13	ARG13	0.069	
203	 3HD	2561.907	787.784	-2665.720	 H	13	ARG13	0.069	
204	  HE	2564.291	788.565	-2667.244	 H	13	ARG13	0.346	
205	1HH1	2563.318	786.003	-2665.122	 H	13	ARG13	0.448	
206	2HH1	2565.036	785.706	-2664.570	 H	13	ARG13	0.448	
207	1HH2	2566.216	788.209	-2666.607	 H	13	ARG13	0.448	
208	2HH2	2566.583	786.910	-2665.386	 H	13	ARG13	0.448	
209	   N	2559.277	787.983	-2670.754	N.am	14	VAL14	-0.416	
210	  CA	2559.601	787.622	-2672.132	C.3	14	VAL14	-0.087	
211	   C	2559.271	788.752	-2673.078	C.2	14	VAL14	0.597	
212	   O	2560.064	789.133	-2673.948	O.2	14	VAL14	-0.568	
213	  CB	2558.828	786.305	-2672.538	C.3	14	VAL14	0.299	
214	 CG1	2558.917	785.886	-2674.031	C.3	14	VAL14	-0.319	
215	 CG2	2559.260	785.053	-2671.737	C.3	14	VAL14	-0.319	
216	   H	2558.642	787.414	-2670.212	 H	14	VAL14	0.272	
217	  HA	2560.689	787.445	-2672.207	 H	14	VAL14	0.097	
218	  HB	2557.752	786.477	-2672.322	 H	14	VAL14	-0.030	
219	1HG1	2559.958	785.709	-2674.360	 H	14	VAL14	0.079	
220	2HG1	2558.344	784.963	-2674.243	 H	14	VAL14	0.079	
221	3HG1	2558.488	786.648	-2674.709	 H	14	VAL14	0.079	
222	1HG2	2559.173	785.213	-2670.646	 H	14	VAL14	0.079	
223	2HG2	2558.624	784.177	-2671.968	 H	14	VAL14	0.079	
224	3HG2	2560.307	784.763	-2671.943	 H	14	VAL14	0.079	
225	   N	2558.127	789.338	-2672.976	N.am	15	MET15	-0.416	
226	  CA	2557.806	790.431	-2673.890	C.3	15	MET15	-0.024	
227	   C	2558.837	791.531	-2673.803	C.2	15	MET15	0.597	
228	   O	2559.339	792.041	-2674.816	O.2	15	MET15	-0.568	
229	  CB	2556.385	790.976	-2673.581	C.3	15	MET15	0.034	
230	  CG	2555.223	789.979	-2673.772	C.3	15	MET15	0.002	
231	  SD	2553.649	790.845	-2673.658	S.3	15	MET15	-0.274	
232	  CE	2552.568	789.415	-2673.520	C.3	15	MET15	-0.054	
233	   H	2557.462	789.046	-2672.274	 H	15	MET15	0.272	
234	  HA	2557.832	790.043	-2674.926	 H	15	MET15	0.088	
235	 2HB	2556.183	791.855	-2674.223	 H	15	MET15	0.024	
236	 3HB	2556.350	791.370	-2672.545	 H	15	MET15	0.024	
237	 2HG	2555.266	789.193	-2672.994	 H	15	MET15	0.044	
238	 3HG	2555.285	789.463	-2674.748	 H	15	MET15	0.044	
239	 1HE	2552.711	788.727	-2674.373	 H	15	MET15	0.068	
240	 2HE	2552.777	788.863	-2672.587	 H	15	MET15	0.068	
241	 3HE	2551.510	789.731	-2673.504	 H	15	MET15	0.068	
242	   N	2559.206	791.952	-2672.641	N.am	16	LEU16	-0.416	
243	  CA	2560.202	793.016	-2672.558	C.3	16	LEU16	-0.052	
244	   C	2561.472	792.623	-2673.274	C.2	16	LEU16	0.597	
245	   O	2561.596	791.527	-2673.841	O.2	16	LEU16	-0.568	
246	  CB	2560.491	793.379	-2671.073	C.3	16	LEU16	-0.110	
247	  CG	2559.301	793.839	-2670.189	C.3	16	LEU16	0.353	
248	 CD1	2559.805	794.256	-2668.800	C.3	16	LEU16	-0.412	
249	 CD2	2558.504	794.994	-2670.819	C.3	16	LEU16	-0.412	
250	   H	2558.811	791.552	-2671.801	 H	16	LEU16	0.272	
251	  HA	2559.811	793.904	-2673.086	 H	16	LEU16	0.092	
252	 2HB	2561.267	794.170	-2671.050	 H	16	LEU16	0.046	
253	 3HB	2560.968	792.508	-2670.581	 H	16	LEU16	0.046	
254	  HG	2558.615	792.977	-2670.057	 H	16	LEU16	-0.036	
255	1HD1	2560.349	793.435	-2668.296	 H	16	LEU16	0.100	
256	2HD1	2560.493	795.122	-2668.846	 H	16	LEU16	0.100	
257	3HD1	2558.971	794.538	-2668.132	 H	16	LEU16	0.100	
258	1HD2	2559.143	795.866	-2671.051	 H	16	LEU16	0.100	
259	2HD2	2558.021	794.680	-2671.763	 H	16	LEU16	0.100	
260	3HD2	2557.688	795.342	-2670.159	 H	16	LEU16	0.100	
@<TRIPOS>BOND
1 1 2 1
2 1 10 1
3 2 3 1
4 2 5 1
5 2 11 1
6 3 4 2
7 3 16 1
8 5 6 1
9 6 7 1
10 7 8 2
11 7 9 1
12 5 12 1
13 5 13 1
14 6 14 1
15 6 15 1
16 16 17 1
17 16 24 1
18 17 18 1
19 17 20 1
20 17 25 1
21 18 19 2
22 18 30 1
23 20 21 1
24 21 22 1
25 21 23 2
26 20 26 1
27 20 27 1
28 22 28 1
29 22 29 1
30 30 31 1
31 30 36 1
32 31 32 1
33 31 34 1
34 31 37 1
35 32 33 2
36 32 44 1
37 34 35 1
38 35 36 1
39 34 38 1
40 34 39 1
41 35 40 1
42 35 41 1
43 36 42 1
44 36 43 1
45 44 45 1
46 44 53 1
47 45 46 1
48 45 48 1
49 45 54 1
50 46 47 2
51 46 59 1
52 48 49 1
53 49 50 1
54 50 51 2
55 50 52 1
56 48 55 1
57 48 56 1
58 49 57 1
59 49 58 1
60 59 60 1
61 59 65 1
62 60 61 1
63 60 63 1
64 60 66 1
65 61 62 2
66 61 70 1
67 63 64 1
68 63 67 1
69 63 68 1
70 64 69 1
71 70 71 1
72 70 78 1
73 71 72 1
74 71 74 1
75 71 79 1
76 72 73 2
77 72 89 1
78 74 75 1
79 74 76 1
80 75 77 1
81 74 80 1
82 75 81 1
83 75 82 1
84 76 83 1
85 76 84 1
86 76 85 1
87 77 86 1
88 77 87 1
89 77 88 1
90 89 90 1
91 89 97 1
92 90 91 1
93 90 93 1
94 90 98 1
95 91 92 2
96 91 108 1
97 93 94 1
98 94 95 1
99 94 96 1
100 93 99 1
101 93 100 1
102 94 101 1
103 95 102 1
104 95 103 1
105 95 104 1
106 96 105 1
107 96 106 1
108 96 107 1
109 108 109 1
110 108 116 1
111 109 110 1
112 109 112 1
113 109 117 1
114 110 111 2
115 110 120 1
116 112 113 1
117 113 114 2
118 113 115 1
119 112 118 1
120 112 119 1
121 120 121 1
122 120 129 1
123 121 122 1
124 121 124 1
125 121 130 1
126 122 123 2
127 122 135 1
128 124 125 1
129 125 126 1
130 126 127 2
131 126 128 1
132 124 131 1
133 124 132 1
134 125 133 1
135 125 134 1
136 135 136 1
137 135 145 1
138 136 137 1
139 136 139 1
140 136 146 1
141 137 138 2
142 137 152 1
143 139 140 1
144 140 141 2
145 141 144 1
146 140 142 1
147 142 143 2
148 143 144 1
149 139 147 1
150 139 148 1
151 141 149 1
152 143 150 1
153 144 151 1
154 152 153 1
155 152 159 1
156 153 154 1
157 153 156 1
158 153 160 1
159 154 155 2
160 154 168 1
161 156 157 1
162 156 158 1
163 156 161 1
164 157 162 1
165 157 163 1
166 157 164 1
167 158 165 1
168 158 166 1
169 158 167 1
170 168 169 1
171 168 177 1
172 169 170 1
173 169 172 1
174 169 178 1
175 170 171 2
176 170 185 1
177 172 173 1
178 173 174 1
179 174 175 1
180 174 176 2
181 172 179 1
182 172 180 1
183 173 181 1
184 173 182 1
185 175 183 1
186 175 184 1
187 185 186 1
188 185 196 1
189 186 187 1
190 186 189 1
191 186 197 1
192 187 188 2
193 187 209 1
194 189 190 1
195 190 191 1
196 191 192 1
197 192 193 1
198 193 194 2
199 193 195 1
200 189 198 1
201 189 199 1
202 190 200 1
203 190 201 1
204 191 202 1
205 191 203 1
206 192 204 1
207 194 205 1
208 194 206 1
209 195 207 1
210 195 208 1
211 209 210 1
212 209 216 1
213 210 211 1
214 210 213 1
215 210 217 1
216 211 212 2
217 211 225 1
218 213 214 1
219 213 215 1
220 213 218 1
221 214 219 1
222 214 220 1
223 214 221 1
224 215 222 1
225 215 223 1
226 215 224 1
227 225 226 1
228 225 233 1
229 226 227 1
230 226 229 1
231 226 234 1
232 227 228 2
233 227 242 1
234 229 230 1
235 230 231 1
236 231 232 1
237 229 235 1
238 229 236 1
239 230 237 1
240 230 238 1
241 232 239 1
242 232 240 1
243 232 241 1
244 242 243 1
245 242 250 1
246 243 244 1
247 243 246 1
248 243 251 1
249 244 245 2
250 246 247 1
251 247 248 1
252 247 249 1
253 246 252 1
254 246 253 1
255 247 254 1
256 248 255 1
257 248 256 1
258 248 257 1
259 249 258 1
260 249 259 1
261 249 260 1
@<TRIPOS>SUBSTRUCTURE
1	GLU1	1	RESIDUE	1 ****	GLU
2	ASN2	16	RESIDUE	1 ****	ASN
3	PRO3	30	RESIDUE	1 ****	PRO
4	GLU4	44	RESIDUE	1 ****	GLU
5	SER5	59	RESIDUE	1 ****	SER
6	ILE6	70	RESIDUE	1 ****	ILE
7	LEU7	89	RESIDUE	1 ****	LEU
8	ASP8	108	RESIDUE	1 ****	ASP
9	GLU9	120	RESIDUE	1 ****	GLU
10	HIS10	135	RESIDUE	1 ****	HIS
11	VAL11	152	RESIDUE	1 ****	VAL
12	GLN12	168	RESIDUE	1 ****	GLN
13	ARG13	185	RESIDUE	1 ****	ARG
14	VAL14	209	RESIDUE	1 ****	VAL
15	MET15	225	RESIDUE	1 ****	MET
16	LEU16	242	RESIDUE	1 ****	LEU
