@<TRIPOS>MOLECULE
1-9
271 273 16              
SMALL
USER_CHARGES
@<TRIPOS>ATOM
1	   N	70.682	15.909	-48.888	N.3	1	TYR1	-0.416	
2	  CA	72.107	16.026	-49.184	C.3	1	TYR1	-0.001	
3	   C	72.936	15.318	-48.140	C.2	1	TYR1	0.597	
4	   O	73.858	14.557	-48.443	O.2	1	TYR1	-0.568	
5	  CB	72.547	17.519	-49.215	C.3	1	TYR1	-0.015	
6	  CG	71.885	18.410	-50.273	C.2	1	TYR1	-0.001	
7	 CD1	72.302	18.362	-51.607	C.2	1	TYR1	-0.191	
8	 CD2	70.848	19.272	-49.905	C.2	1	TYR1	-0.191	
9	 CE1	71.683	19.165	-52.561	C.2	1	TYR1	-0.234	
10	 CE2	70.231	20.074	-50.860	C.2	1	TYR1	-0.234	
11	  CZ	70.649	20.020	-52.188	C.2	1	TYR1	0.323	
12	  OH	70.043	20.804	-53.128	O.3	1	TYR1	-0.558	
13	   H	70.319	15.375	-48.022	 H	1	TYR1	0.272	
14	  HA	72.311	15.549	-50.161	 H	1	TYR1	0.088	
15	 2HB	73.643	17.581	-49.366	 H	1	TYR1	0.030	
16	 3HB	72.400	17.966	-48.210	 H	1	TYR1	0.030	
17	 1HD	73.100	17.697	-51.907	 H	1	TYR1	0.170	
18	 2HD	70.511	19.311	-48.878	 H	1	TYR1	0.170	
19	 1HE	71.999	19.125	-53.593	 H	1	TYR1	0.166	
20	 2HE	69.427	20.731	-50.564	 H	1	TYR1	0.166	
21	  HH	69.359	21.321	-52.697	 H	1	TYR1	0.399	
22	   N	72.672	15.515	-46.892	N.am	2	ASN2	-0.416	
23	  CA	73.474	14.830	-45.883	C.3	2	ASN2	0.014	
24	   C	73.428	13.333	-46.080	C.2	2	ASN2	0.597	
25	   O	74.445	12.641	-46.059	O.2	2	ASN2	-0.568	
26	  CB	72.962	15.215	-44.465	C.3	2	ASN2	-0.204	
27	  CG	72.942	16.706	-44.115	C.2	2	ASN2	0.713	
28	 ND2	74.061	17.291	-43.784	N.pl3	2	ASN2	-0.919	
29	 OD1	71.917	17.371	-44.157	O.2	2	ASN2	-0.593	
30	   H	71.922	16.134	-46.619	 H	2	ASN2	0.272	
31	  HA	74.528	15.144	-46.001	 H	2	ASN2	0.105	
32	 2HB	73.544	14.685	-43.688	 H	2	ASN2	0.080	
33	 3HB	71.927	14.842	-44.332	 H	2	ASN2	0.080	
34	1HD2	73.966	18.308	-43.720	 H	2	ASN2	0.420	
35	2HD2	74.911	16.731	-43.846	 H	2	ASN2	0.420	
36	   N	72.288	12.763	-46.277	N.am	3	PRO3	-0.255	
37	  CA	72.154	11.328	-46.476	C.3	3	PRO3	-0.027	
38	   C	72.720	10.890	-47.837	C.2	3	PRO3	0.590	
39	   O	73.469	9.916	-47.918	O.2	3	PRO3	-0.575	
40	  CB	70.635	11.133	-46.366	C.3	3	PRO3	-0.007	
41	  CG	70.061	12.467	-46.867	C.3	3	PRO3	0.019	
42	  CD	71.045	13.503	-46.316	C.3	3	PRO3	0.019	
43	  HA	72.676	10.781	-45.686	 H	3	PRO3	0.064	
44	 2HB	70.369	10.999	-45.316	 H	3	PRO3	0.025	
45	 3HB	70.273	10.275	-46.938	 H	3	PRO3	0.025	
46	 2HG	69.041	12.642	-46.519	 H	3	PRO3	0.021	
47	 3HG	70.084	12.489	-47.958	 H	3	PRO3	0.021	
48	 2HD	70.768	13.805	-45.303	 H	3	PRO3	0.039	
49	 3HD	71.128	14.379	-46.963	 H	3	PRO3	0.039	
50	   N	72.408	11.547	-48.902	N.am	4	GLU4	-0.516	
51	  CA	72.954	11.116	-50.186	C.3	4	GLU4	0.040	
52	   C	74.463	11.090	-50.150	C.2	4	GLU4	0.537	
53	   O	75.114	10.126	-50.578	O.2	4	GLU4	-0.582	
54	  CB	72.454	12.064	-51.314	C.3	4	GLU4	0.056	
55	  CG	72.919	11.699	-52.761	C.3	4	GLU4	0.014	
56	  CD	72.517	12.617	-53.901	C.2	4	GLU4	0.805	
57	 OE1	71.815	13.625	-53.693	O.co2	4	GLU4	-0.819	
58	 OE2	72.938	12.313	-55.036	O.co2	4	GLU4	-0.819	
59	   H	71.794	12.347	-48.849	 H	4	GLU4	0.294	
60	  HA	72.602	10.090	-50.394	 H	4	GLU4	0.111	
61	 2HB	72.770	13.104	-51.096	 H	4	GLU4	-0.017	
62	 3HB	71.348	12.108	-51.307	 H	4	GLU4	-0.017	
63	 2HG	72.582	10.689	-53.045	 H	4	GLU4	-0.043	
64	 3HG	74.018	11.677	-52.835	 H	4	GLU4	-0.043	
65	   N	75.095	12.101	-49.658	N.am	5	SER5	-0.416	
66	  CA	76.554	12.075	-49.623	C.3	5	SER5	-0.025	
67	   C	77.055	10.869	-48.863	C.2	5	SER5	0.597	
68	   O	77.951	10.149	-49.301	O.2	5	SER5	-0.568	
69	  CB	77.115	13.393	-49.034	C.3	5	SER5	0.212	
70	  OG	76.849	13.536	-47.634	O.3	5	SER5	-0.655	
71	   H	74.587	12.899	-49.302	 H	5	SER5	0.272	
72	  HA	76.918	11.973	-50.661	 H	5	SER5	0.084	
73	 2HB	76.721	14.274	-49.576	 H	5	SER5	0.035	
74	 3HB	78.212	13.432	-49.186	 H	5	SER5	0.035	
75	  HG	75.896	13.574	-47.525	 H	5	SER5	0.428	
76	   N	76.528	10.587	-47.720	N.am	6	ILE6	-0.416	
77	  CA	77.013	9.421	-46.986	C.3	6	ILE6	-0.060	
78	   C	76.885	8.167	-47.816	C.2	6	ILE6	0.597	
79	   O	77.814	7.353	-47.923	O.2	6	ILE6	-0.568	
80	  CB	76.286	9.278	-45.587	C.3	6	ILE6	0.130	
81	 CG1	76.312	10.566	-44.704	C.3	6	ILE6	-0.043	
82	 CG2	76.840	8.094	-44.735	C.3	6	ILE6	-0.320	
83	 CD1	75.354	10.572	-43.494	C.3	6	ILE6	-0.066	
84	   H	75.791	11.163	-47.338	 H	6	ILE6	0.272	
85	  HA	78.093	9.568	-46.802	 H	6	ILE6	0.087	
86	  HB	75.218	9.062	-45.805	 H	6	ILE6	0.019	
87	2HG1	76.029	11.442	-45.317	 H	6	ILE6	0.024	
88	3HG1	77.346	10.783	-44.372	 H	6	ILE6	0.024	
89	1HG2	76.750	7.116	-45.239	 H	6	ILE6	0.088	
90	2HG2	77.907	8.233	-44.475	 H	6	ILE6	0.088	
91	3HG2	76.290	7.965	-43.785	 H	6	ILE6	0.088	
92	1HD1	74.304	10.400	-43.801	 H	6	ILE6	0.019	
93	2HD1	75.611	9.801	-42.746	 H	6	ILE6	0.019	
94	3HD1	75.381	11.544	-42.968	 H	6	ILE6	0.019	
95	   N	75.777	7.936	-48.434	N.am	7	LEU7	-0.416	
96	  CA	75.654	6.723	-49.237	C.3	7	LEU7	-0.052	
97	   C	76.732	6.663	-50.293	C.2	7	LEU7	0.597	
98	   O	77.401	5.638	-50.492	O.2	7	LEU7	-0.568	
99	  CB	74.241	6.635	-49.881	C.3	7	LEU7	-0.110	
100	  CG	73.007	6.649	-48.939	C.3	7	LEU7	0.353	
101	 CD1	71.720	6.442	-49.750	C.3	7	LEU7	-0.412	
102	 CD2	73.095	5.590	-47.828	C.3	7	LEU7	-0.412	
103	   H	75.005	8.585	-48.363	 H	7	LEU7	0.272	
104	  HA	75.816	5.851	-48.579	 H	7	LEU7	0.092	
105	 2HB	74.194	5.717	-50.500	 H	7	LEU7	0.046	
106	 3HB	74.129	7.465	-50.607	 H	7	LEU7	0.046	
107	  HG	72.950	7.649	-48.460	 H	7	LEU7	-0.036	
108	1HD1	71.600	7.213	-50.535	 H	7	LEU7	0.100	
109	2HD1	71.697	5.457	-50.255	 H	7	LEU7	0.100	
110	3HD1	70.821	6.501	-49.110	 H	7	LEU7	0.100	
111	1HD2	73.232	4.570	-48.231	 H	7	LEU7	0.100	
112	2HD2	73.944	5.791	-47.148	 H	7	LEU7	0.100	
113	3HD2	72.191	5.581	-47.192	 H	7	LEU7	0.100	
114	   N	76.964	7.711	-51.010	N.am	8	ASP8	-0.516	
115	  CA	78.006	7.653	-52.031	C.3	8	ASP8	0.038	
116	   C	79.335	7.269	-51.427	C.2	8	ASP8	0.537	
117	   O	80.060	6.398	-51.933	O.2	8	ASP8	-0.582	
118	  CB	78.109	9.009	-52.783	C.3	8	ASP8	-0.030	
119	  CG	79.126	9.051	-53.934	C.2	8	ASP8	0.799	
120	 OD1	79.273	8.040	-54.652	O.co2	8	ASP8	-0.801	
121	 OD2	79.809	10.084	-54.089	O.co2	8	ASP8	-0.801	
122	   H	76.433	8.557	-50.867	 H	8	ASP8	0.294	
123	  HA	77.736	6.863	-52.757	 H	8	ASP8	0.088	
124	 2HB	78.370	9.816	-52.074	 H	8	ASP8	-0.012	
125	 3HB	77.134	9.293	-53.212	 H	8	ASP8	-0.012	
126	   N	79.729	7.863	-50.352	N.am	9	GLU9	-0.516	
127	  CA	81.015	7.492	-49.768	C.3	9	GLU9	0.040	
128	   C	81.062	6.015	-49.459	C.2	9	GLU9	0.537	
129	   O	82.029	5.307	-49.776	O.2	9	GLU9	-0.582	
130	  CB	81.266	8.325	-48.478	C.3	9	GLU9	0.056	
131	  CG	82.633	8.072	-47.764	C.3	9	GLU9	0.014	
132	  CD	82.916	8.807	-46.467	C.2	9	GLU9	0.805	
133	 OE1	82.089	9.610	-45.992	O.co2	9	GLU9	-0.819	
134	 OE2	84.002	8.551	-45.906	O.co2	9	GLU9	-0.819	
135	   H	79.157	8.575	-49.921	 H	9	GLU9	0.294	
136	  HA	81.813	7.711	-50.500	 H	9	GLU9	0.111	
137	 2HB	80.450	8.142	-47.749	 H	9	GLU9	-0.017	
138	 3HB	81.190	9.405	-48.706	 H	9	GLU9	-0.017	
139	 2HG	83.480	8.292	-48.434	 H	9	GLU9	-0.043	
140	 3HG	82.746	7.013	-47.479	 H	9	GLU9	-0.043	
141	   N	80.065	5.472	-48.846	N.am	10	HIS10	-0.416	
142	  CA	80.109	4.043	-48.547	C.3	10	HIS10	-0.058	
143	   C	80.305	3.232	-49.805	C.2	10	HIS10	0.597	
144	   O	81.141	2.318	-49.874	O.2	10	HIS10	-0.568	
145	  CB	78.763	3.697	-47.890	C.3	10	HIS10	-0.007	
146	  CG	78.929	3.165	-46.496	C.2	10	HIS10	0.187	
147	 CD2	78.926	3.984	-45.375	C.2	10	HIS10	-0.221	
148	 ND1	79.101	1.827	-46.149	N.2	10	HIS10	-0.543	
149	 CE1	79.196	1.946	-44.812	C.2	10	HIS10	0.163	
150	 NE2	79.100	3.191	-44.271	N.pl3	10	HIS10	-0.280	
151	   H	79.265	6.027	-48.577	 H	10	HIS10	0.272	
152	  HA	80.994	3.862	-47.914	 H	10	HIS10	0.136	
153	 2HB	78.212	2.938	-48.481	 H	10	HIS10	0.037	
154	 3HB	78.086	4.575	-47.836	 H	10	HIS10	0.037	
155	 2HD	78.805	5.064	-45.402	 H	10	HIS10	0.186	
156	 1HE	79.341	1.041	-44.237	 H	10	HIS10	0.144	
157	 2HE	79.147	3.476	-43.282	 H	10	HIS10	0.334	
158	   N	79.582	3.498	-50.839	N.am	11	VAL11	-0.416	
159	  CA	79.771	2.713	-52.056	C.3	11	VAL11	-0.087	
160	   C	81.203	2.786	-52.529	C.2	11	VAL11	0.597	
161	   O	81.836	1.777	-52.863	O.2	11	VAL11	-0.568	
162	  CB	78.782	3.220	-53.180	C.3	11	VAL11	0.299	
163	 CG1	78.981	2.615	-54.597	C.3	11	VAL11	-0.319	
164	 CG2	77.288	2.995	-52.847	C.3	11	VAL11	-0.319	
165	   H	78.894	4.237	-50.808	 H	11	VAL11	0.272	
166	  HA	79.558	1.652	-51.833	 H	11	VAL11	0.097	
167	  HB	78.934	4.316	-53.280	 H	11	VAL11	-0.030	
168	1HG1	78.871	1.514	-54.607	 H	11	VAL11	0.079	
169	2HG1	78.261	3.024	-55.333	 H	11	VAL11	0.079	
170	3HG1	79.978	2.845	-55.018	 H	11	VAL11	0.079	
171	1HG2	77.010	3.448	-51.877	 H	11	VAL11	0.079	
172	2HG2	76.623	3.459	-53.601	 H	11	VAL11	0.079	
173	3HG2	77.025	1.922	-52.794	 H	11	VAL11	0.079	
174	   N	81.785	3.936	-52.586	N.am	12	GLN12	-0.416	
175	  CA	83.169	4.007	-53.043	C.3	12	GLN12	-0.003	
176	   C	84.066	3.138	-52.193	C.2	12	GLN12	0.597	
177	   O	84.888	2.371	-52.690	O.2	12	GLN12	-0.568	
178	  CB	83.629	5.482	-53.002	C.3	12	GLN12	-0.004	
179	  CG	85.083	5.766	-53.504	C.3	12	GLN12	-0.064	
180	  CD	85.630	7.197	-53.436	C.2	12	GLN12	0.695	
181	 NE2	84.877	8.165	-52.979	N.pl3	12	GLN12	-0.941	
182	 OE1	86.774	7.453	-53.781	O.2	12	GLN12	-0.609	
183	   H	81.290	4.775	-52.318	 H	12	GLN12	0.272	
184	  HA	83.221	3.628	-54.080	 H	12	GLN12	0.085	
185	 2HB	83.528	5.855	-51.962	 H	12	GLN12	0.017	
186	 3HB	82.925	6.093	-53.600	 H	12	GLN12	0.017	
187	 2HG	85.201	5.415	-54.546	 H	12	GLN12	0.035	
188	 3HG	85.812	5.166	-52.929	 H	12	GLN12	0.035	
189	1HE2	85.338	9.074	-52.907	 H	12	GLN12	0.425	
190	2HE2	83.957	7.874	-52.643	 H	12	GLN12	0.425	
191	   N	83.967	3.203	-50.909	N.am	13	ARG13	-0.348	
192	  CA	84.834	2.362	-50.089	C.3	13	ARG13	-0.264	
193	   C	84.662	0.903	-50.441	C.2	13	ARG13	0.734	
194	   O	85.622	0.159	-50.624	O.2	13	ARG13	-0.589	
195	  CB	84.515	2.625	-48.590	C.3	13	ARG13	-0.001	
196	  CG	85.527	2.022	-47.575	C.3	13	ARG13	0.039	
197	  CD	85.118	2.298	-46.118	C.3	13	ARG13	0.049	
198	  NE	86.134	1.716	-45.193	N.pl3	13	ARG13	-0.530	
199	  CZ	86.084	1.768	-43.865	C.cat	13	ARG13	0.808	
200	 NH1	85.119	2.339	-43.201	N.pl3	13	ARG13	-0.863	
201	 NH2	87.046	1.222	-43.191	N.pl3	13	ARG13	-0.863	
202	   H	83.299	3.826	-50.477	 H	13	ARG13	0.275	
203	  HA	85.883	2.637	-50.307	 H	13	ARG13	0.156	
204	 2HB	83.492	2.254	-48.373	 H	13	ARG13	0.033	
205	 3HB	84.451	3.719	-48.418	 H	13	ARG13	0.033	
206	 2HG	86.536	2.434	-47.779	 H	13	ARG13	0.029	
207	 3HG	85.614	0.927	-47.729	 H	13	ARG13	0.029	
208	 2HD	84.113	1.861	-45.929	 H	13	ARG13	0.069	
209	 3HD	85.019	3.394	-45.962	 H	13	ARG13	0.069	
210	  HE	86.960	1.229	-45.555	 H	13	ARG13	0.346	
211	1HH1	84.391	2.749	-43.792	 H	13	ARG13	0.448	
212	2HH1	85.153	2.337	-42.181	 H	13	ARG13	0.448	
213	1HH2	87.794	0.778	-43.729	 H	13	ARG13	0.448	
214	2HH2	86.991	1.274	-42.173	 H	13	ARG13	0.448	
215	   N	83.469	0.424	-50.553	N.am	14	VAL14	-0.416	
216	  CA	83.303	-0.987	-50.893	C.3	14	VAL14	-0.087	
217	   C	84.000	-1.316	-52.192	C.2	14	VAL14	0.597	
218	   O	84.730	-2.308	-52.312	O.2	14	VAL14	-0.568	
219	  CB	81.765	-1.340	-50.976	C.3	14	VAL14	0.299	
220	 CG1	81.410	-2.755	-51.510	C.3	14	VAL14	-0.319	
221	 CG2	81.019	-1.214	-49.626	C.3	14	VAL14	-0.319	
222	   H	82.663	1.015	-50.408	 H	14	VAL14	0.272	
223	  HA	83.777	-1.601	-50.107	 H	14	VAL14	0.097	
224	  HB	81.299	-0.613	-51.676	 H	14	VAL14	-0.030	
225	1HG1	81.846	-3.562	-50.891	 H	14	VAL14	0.079	
226	2HG1	80.317	-2.927	-51.550	 H	14	VAL14	0.079	
227	3HG1	81.761	-2.916	-52.547	 H	14	VAL14	0.079	
228	1HG2	81.145	-0.211	-49.178	 H	14	VAL14	0.079	
229	2HG2	79.928	-1.360	-49.743	 H	14	VAL14	0.079	
230	3HG2	81.372	-1.952	-48.881	 H	14	VAL14	0.079	
231	   N	83.830	-0.538	-53.207	N.am	15	MET15	-0.416	
232	  CA	84.504	-0.855	-54.463	C.3	15	MET15	-0.024	
233	   C	85.998	-0.950	-54.267	C.2	15	MET15	0.597	
234	   O	86.661	-1.893	-54.727	O.2	15	MET15	-0.568	
235	  CB	84.152	0.213	-55.534	C.3	15	MET15	0.034	
236	  CG	82.662	0.310	-55.925	C.3	15	MET15	0.002	
237	  SD	82.477	1.374	-57.365	S.3	15	MET15	-0.274	
238	  CE	80.693	1.590	-57.309	C.3	15	MET15	-0.054	
239	   H	83.240	0.278	-53.134	 H	15	MET15	0.272	
240	  HA	84.158	-1.847	-54.808	 H	15	MET15	0.088	
241	 2HB	84.729	0.011	-56.456	 H	15	MET15	0.024	
242	 3HB	84.497	1.212	-55.197	 H	15	MET15	0.024	
243	 2HG	82.075	0.726	-55.085	 H	15	MET15	0.044	
244	 3HG	82.234	-0.685	-56.150	 H	15	MET15	0.044	
245	 1HE	80.175	0.614	-57.326	 H	15	MET15	0.068	
246	 2HE	80.399	2.125	-56.389	 H	15	MET15	0.068	
247	 3HE	80.347	2.180	-58.176	 H	15	MET15	0.068	
248	   N	86.603	-0.024	-53.603	N.am	16	ARG16	-0.348	
249	  CA	88.048	-0.118	-53.415	C.3	16	ARG16	-0.264	
250	   C	88.422	-1.417	-52.741	C.2	16	ARG16	0.734	
251	   O	87.580	-2.259	-52.438	O.2	16	ARG16	-0.589	
252	  CB	88.525	1.109	-52.586	C.3	16	ARG16	-0.001	
253	  CG	90.064	1.317	-52.525	C.3	16	ARG16	0.039	
254	  CD	90.450	2.527	-51.659	C.3	16	ARG16	0.049	
255	  NE	91.934	2.688	-51.654	N.pl3	16	ARG16	-0.530	
256	  CZ	92.602	3.632	-50.999	C.cat	16	ARG16	0.808	
257	 NH1	92.030	4.542	-50.262	N.pl3	16	ARG16	-0.863	
258	 NH2	93.894	3.651	-51.095	N.pl3	16	ARG16	-0.863	
259	   H	86.085	0.753	-53.219	 H	16	ARG16	0.275	
260	  HA	88.524	-0.109	-54.414	 H	16	ARG16	0.156	
261	 2HB	88.111	1.028	-51.560	 H	16	ARG16	0.033	
262	 3HB	88.060	2.028	-52.997	 H	16	ARG16	0.033	
263	 2HG	90.457	1.436	-53.556	 H	16	ARG16	0.029	
264	 3HG	90.555	0.407	-52.123	 H	16	ARG16	0.029	
265	 2HD	90.064	2.378	-50.626	 H	16	ARG16	0.069	
266	 3HD	89.952	3.438	-52.052	 H	16	ARG16	0.069	
267	  HE	92.536	2.050	-52.185	 H	16	ARG16	0.346	
268	1HH1	91.011	4.471	-50.227	 H	16	ARG16	0.448	
269	2HH1	92.614	5.235	-49.790	 H	16	ARG16	0.448	
270	1HH2	94.326	2.930	-51.676	 H	16	ARG16	0.448	
271	2HH2	94.390	4.385	-50.586	 H	16	ARG16	0.448	
@<TRIPOS>BOND
1 1 2 1
2 1 13 1
3 2 3 1
4 2 5 1
5 2 14 1
6 3 4 2
7 3 22 1
8 5 6 1
9 6 7 2
10 6 8 1
11 8 10 2
12 7 9 1
13 10 11 1
14 9 11 2
15 11 12 1
16 5 15 1
17 5 16 1
18 7 17 1
19 8 18 1
20 9 19 1
21 10 20 1
22 12 21 1
23 22 23 1
24 22 30 1
25 23 24 1
26 23 26 1
27 23 31 1
28 24 25 2
29 24 36 1
30 26 27 1
31 27 28 1
32 27 29 2
33 26 32 1
34 26 33 1
35 28 34 1
36 28 35 1
37 36 37 1
38 36 42 1
39 37 38 1
40 37 40 1
41 37 43 1
42 38 39 2
43 38 50 1
44 40 41 1
45 41 42 1
46 40 44 1
47 40 45 1
48 41 46 1
49 41 47 1
50 42 48 1
51 42 49 1
52 50 51 1
53 50 59 1
54 51 52 1
55 51 54 1
56 51 60 1
57 52 53 2
58 52 65 1
59 54 55 1
60 55 56 1
61 56 57 2
62 56 58 1
63 54 61 1
64 54 62 1
65 55 63 1
66 55 64 1
67 65 66 1
68 65 71 1
69 66 67 1
70 66 69 1
71 66 72 1
72 67 68 2
73 67 76 1
74 69 70 1
75 69 73 1
76 69 74 1
77 70 75 1
78 76 77 1
79 76 84 1
80 77 78 1
81 77 80 1
82 77 85 1
83 78 79 2
84 78 95 1
85 80 81 1
86 80 82 1
87 81 83 1
88 80 86 1
89 81 87 1
90 81 88 1
91 82 89 1
92 82 90 1
93 82 91 1
94 83 92 1
95 83 93 1
96 83 94 1
97 95 96 1
98 95 103 1
99 96 97 1
100 96 99 1
101 96 104 1
102 97 98 2
103 97 114 1
104 99 100 1
105 100 101 1
106 100 102 1
107 99 105 1
108 99 106 1
109 100 107 1
110 101 108 1
111 101 109 1
112 101 110 1
113 102 111 1
114 102 112 1
115 102 113 1
116 114 115 1
117 114 122 1
118 115 116 1
119 115 118 1
120 115 123 1
121 116 117 2
122 116 126 1
123 118 119 1
124 119 120 2
125 119 121 1
126 118 124 1
127 118 125 1
128 126 127 1
129 126 135 1
130 127 128 1
131 127 130 1
132 127 136 1
133 128 129 2
134 128 141 1
135 130 131 1
136 131 132 1
137 132 133 2
138 132 134 1
139 130 137 1
140 130 138 1
141 131 139 1
142 131 140 1
143 141 142 1
144 141 151 1
145 142 143 1
146 142 145 1
147 142 152 1
148 143 144 2
149 143 158 1
150 145 146 1
151 146 147 2
152 147 150 1
153 146 148 1
154 148 149 2
155 149 150 1
156 145 153 1
157 145 154 1
158 147 155 1
159 149 156 1
160 150 157 1
161 158 159 1
162 158 165 1
163 159 160 1
164 159 162 1
165 159 166 1
166 160 161 2
167 160 174 1
168 162 163 1
169 162 164 1
170 162 167 1
171 163 168 1
172 163 169 1
173 163 170 1
174 164 171 1
175 164 172 1
176 164 173 1
177 174 175 1
178 174 183 1
179 175 176 1
180 175 178 1
181 175 184 1
182 176 177 2
183 176 191 1
184 178 179 1
185 179 180 1
186 180 181 1
187 180 182 2
188 178 185 1
189 178 186 1
190 179 187 1
191 179 188 1
192 181 189 1
193 181 190 1
194 191 192 1
195 191 202 1
196 192 193 1
197 192 195 1
198 192 203 1
199 193 194 2
200 193 215 1
201 195 196 1
202 196 197 1
203 197 198 1
204 198 199 1
205 199 200 2
206 199 201 1
207 195 204 1
208 195 205 1
209 196 206 1
210 196 207 1
211 197 208 1
212 197 209 1
213 198 210 1
214 200 211 1
215 200 212 1
216 201 213 1
217 201 214 1
218 215 216 1
219 215 222 1
220 216 217 1
221 216 219 1
222 216 223 1
223 217 218 2
224 217 231 1
225 219 220 1
226 219 221 1
227 219 224 1
228 220 225 1
229 220 226 1
230 220 227 1
231 221 228 1
232 221 229 1
233 221 230 1
234 231 232 1
235 231 239 1
236 232 233 1
237 232 235 1
238 232 240 1
239 233 234 2
240 233 248 1
241 235 236 1
242 236 237 1
243 237 238 1
244 235 241 1
245 235 242 1
246 236 243 1
247 236 244 1
248 238 245 1
249 238 246 1
250 238 247 1
251 248 249 1
252 248 259 1
253 249 250 1
254 249 252 1
255 249 260 1
256 250 251 2
257 252 253 1
258 253 254 1
259 254 255 1
260 255 256 1
261 256 257 2
262 256 258 1
263 252 261 1
264 252 262 1
265 253 263 1
266 253 264 1
267 254 265 1
268 254 266 1
269 255 267 1
270 257 268 1
271 257 269 1
272 258 270 1
273 258 271 1
@<TRIPOS>SUBSTRUCTURE
1	TYR1	1	RESIDUE	1 ****	TYR
2	ASN2	22	RESIDUE	1 ****	ASN
3	PRO3	36	RESIDUE	1 ****	PRO
4	GLU4	50	RESIDUE	1 ****	GLU
5	SER5	65	RESIDUE	1 ****	SER
6	ILE6	76	RESIDUE	1 ****	ILE
7	LEU7	95	RESIDUE	1 ****	LEU
8	ASP8	114	RESIDUE	1 ****	ASP
9	GLU9	126	RESIDUE	1 ****	GLU
10	HIS10	141	RESIDUE	1 ****	HIS
11	VAL11	158	RESIDUE	1 ****	VAL
12	GLN12	174	RESIDUE	1 ****	GLN
13	ARG13	191	RESIDUE	1 ****	ARG
14	VAL14	215	RESIDUE	1 ****	VAL
15	MET15	231	RESIDUE	1 ****	MET
16	ARG16	248	RESIDUE	1 ****	ARG
