@<TRIPOS>MOLECULE
10-16
265 265 16              
SMALL
USER_CHARGES
@<TRIPOS>ATOM
1	   N	1640.226	488.443	-1670.912	N.3	1	GLU1	-0.516	
2	  CA	1640.785	489.792	-1670.912	C.3	1	GLU1	0.040	
3	   C	1642.294	489.752	-1670.912	C.2	1	GLU1	0.537	
4	   O	1642.970	490.451	-1671.681	O.2	1	GLU1	-0.582	
5	  CB	1640.262	490.577	-1669.675	C.3	1	GLU1	0.056	
6	  CG	1640.737	492.062	-1669.564	C.3	1	GLU1	0.014	
7	  CD	1640.313	492.866	-1668.349	C.2	1	GLU1	0.805	
8	 OE1	1639.585	492.364	-1667.471	O.co2	1	GLU1	-0.819	
9	 OE2	1640.743	494.036	-1668.277	O.co2	1	GLU1	-0.819	
10	   H	1640.853	487.564	-1670.912	 H	1	GLU1	0.294	
11	  HA	1640.459	490.310	-1671.832	 H	1	GLU1	0.111	
12	 2HB	1640.551	490.046	-1668.745	 H	1	GLU1	-0.017	
13	 3HB	1639.155	490.567	-1669.662	 H	1	GLU1	-0.017	
14	 2HG	1640.427	492.647	-1670.445	 H	1	GLU1	-0.043	
15	 3HG	1641.837	492.129	-1669.535	 H	1	GLU1	-0.043	
16	   N	1642.898	488.967	-1670.087	N.am	2	ASN2	-0.416	
17	  CA	1644.358	488.928	-1670.087	C.3	2	ASN2	0.014	
18	   C	1644.889	488.572	-1671.456	C.2	2	ASN2	0.597	
19	   O	1645.803	489.203	-1671.985	O.2	2	ASN2	-0.568	
20	  CB	1644.850	487.905	-1669.023	C.3	2	ASN2	-0.204	
21	  CG	1644.387	488.129	-1667.579	C.2	2	ASN2	0.713	
22	 ND2	1644.981	489.044	-1666.861	N.pl3	2	ASN2	-0.919	
23	 OD1	1643.466	487.495	-1667.085	O.2	2	ASN2	-0.593	
24	   H	1642.370	488.387	-1669.451	 H	2	ASN2	0.272	
25	  HA	1644.735	489.938	-1669.842	 H	2	ASN2	0.105	
26	 2HB	1645.954	487.846	-1669.026	 H	2	ASN2	0.080	
27	 3HB	1644.521	486.887	-1669.309	 H	2	ASN2	0.080	
28	1HD2	1644.500	489.217	-1665.975	 H	2	ASN2	0.420	
29	2HD2	1645.682	489.615	-1667.331	 H	2	ASN2	0.420	
30	   N	1644.367	487.577	-1672.090	N.am	3	PRO3	-0.255	
31	  CA	1644.819	487.168	-1673.411	C.3	3	PRO3	-0.027	
32	   C	1644.421	488.191	-1674.488	C.2	3	PRO3	0.590	
33	   O	1645.244	488.575	-1675.320	O.2	3	PRO3	-0.575	
34	  CB	1644.115	485.813	-1673.581	C.3	3	PRO3	-0.007	
35	  CG	1642.832	485.965	-1672.751	C.3	3	PRO3	0.019	
36	  CD	1643.289	486.784	-1671.541	C.3	3	PRO3	0.019	
37	  HA	1645.905	487.048	-1673.425	 H	3	PRO3	0.064	
38	 2HB	1644.738	485.032	-1673.140	 H	3	PRO3	0.025	
39	 3HB	1643.917	485.565	-1674.626	 H	3	PRO3	0.025	
40	 2HG	1642.404	485.003	-1672.459	 H	3	PRO3	0.021	
41	 3HG	1642.094	486.536	-1673.318	 H	3	PRO3	0.021	
42	 2HD	1643.679	486.135	-1670.753	 H	3	PRO3	0.039	
43	 3HD	1642.493	487.420	-1671.148	 H	3	PRO3	0.039	
44	   N	1643.216	488.651	-1674.521	N.am	4	GLU4	-0.516	
45	  CA	1642.856	489.623	-1675.550	C.3	4	GLU4	0.040	
46	   C	1643.755	490.834	-1675.489	C.2	4	GLU4	0.537	
47	   O	1644.281	491.313	-1676.504	O.2	4	GLU4	-0.582	
48	  CB	1641.368	490.041	-1675.380	C.3	4	GLU4	0.056	
49	  CG	1640.819	491.045	-1676.445	C.3	4	GLU4	0.014	
50	  CD	1639.393	491.541	-1676.301	C.2	4	GLU4	0.805	
51	 OE1	1638.667	491.143	-1675.370	O.co2	4	GLU4	-0.819	
52	 OE2	1639.003	492.371	-1677.150	O.co2	4	GLU4	-0.819	
53	   H	1642.532	488.345	-1673.844	 H	4	GLU4	0.294	
54	  HA	1642.987	489.152	-1676.541	 H	4	GLU4	0.111	
55	 2HB	1641.215	490.481	-1674.373	 H	4	GLU4	-0.017	
56	 3HB	1640.720	489.143	-1675.386	 H	4	GLU4	-0.017	
57	 2HG	1640.901	490.630	-1677.463	 H	4	GLU4	-0.043	
58	 3HG	1641.407	491.977	-1676.456	 H	4	GLU4	-0.043	
59	   N	1643.983	491.387	-1674.346	N.am	5	SER5	-0.416	
60	  CA	1644.852	492.558	-1674.287	C.3	5	SER5	-0.025	
61	   C	1646.211	492.252	-1674.873	C.2	5	SER5	0.597	
62	   O	1646.758	493.006	-1675.678	O.2	5	SER5	-0.568	
63	  CB	1644.964	493.090	-1672.837	C.3	5	SER5	0.212	
64	  OG	1645.696	492.211	-1671.976	O.3	5	SER5	-0.655	
65	   H	1643.566	491.015	-1673.504	 H	5	SER5	0.272	
66	  HA	1644.403	493.348	-1674.916	 H	5	SER5	0.084	
67	 2HB	1643.964	493.284	-1672.403	 H	5	SER5	0.035	
68	 3HB	1645.469	494.076	-1672.839	 H	5	SER5	0.035	
69	  HG	1645.207	491.386	-1671.925	 H	5	SER5	0.428	
70	   N	1646.816	491.169	-1674.519	N.am	6	ILE6	-0.416	
71	  CA	1648.129	490.875	-1675.086	C.3	6	ILE6	-0.060	
72	   C	1648.071	490.837	-1676.594	C.2	6	ILE6	0.597	
73	   O	1648.906	491.425	-1677.297	O.2	6	ILE6	-0.568	
74	  CB	1648.729	489.538	-1674.486	C.3	6	ILE6	0.130	
75	 CG1	1648.748	489.476	-1672.925	C.3	6	ILE6	-0.043	
76	 CG2	1650.170	489.237	-1675.001	C.3	6	ILE6	-0.320	
77	 CD1	1649.018	488.087	-1672.310	C.3	6	ILE6	-0.066	
78	   H	1646.387	490.535	-1673.860	 H	6	ILE6	0.272	
79	  HA	1648.803	491.709	-1674.818	 H	6	ILE6	0.087	
80	  HB	1648.071	488.712	-1674.830	 H	6	ILE6	0.019	
81	2HG1	1647.766	489.796	-1672.529	 H	6	ILE6	0.024	
82	3HG1	1649.464	490.218	-1672.520	 H	6	ILE6	0.024	
83	1HG2	1650.229	489.144	-1676.100	 H	6	ILE6	0.088	
84	2HG2	1650.892	490.019	-1674.699	 H	6	ILE6	0.088	
85	3HG2	1650.560	488.275	-1674.623	 H	6	ILE6	0.088	
86	1HD1	1648.290	487.333	-1672.665	 H	6	ILE6	0.019	
87	2HD1	1650.029	487.708	-1672.546	 H	6	ILE6	0.019	
88	3HD1	1648.942	488.117	-1671.208	 H	6	ILE6	0.019	
89	   N	1647.125	490.174	-1677.167	N.am	7	LEU7	-0.416	
90	  CA	1647.070	490.138	-1678.626	C.3	7	LEU7	-0.052	
91	   C	1646.998	491.533	-1679.198	C.2	7	LEU7	0.597	
92	   O	1647.718	491.896	-1680.140	O.2	7	LEU7	-0.568	
93	  CB	1645.867	489.278	-1679.106	C.3	7	LEU7	-0.110	
94	  CG	1645.795	487.798	-1678.640	C.3	7	LEU7	0.353	
95	 CD1	1644.605	487.093	-1679.305	C.3	7	LEU7	-0.412	
96	 CD2	1647.088	487.019	-1678.932	C.3	7	LEU7	-0.412	
97	   H	1646.434	489.687	-1676.616	 H	7	LEU7	0.272	
98	  HA	1648.012	489.698	-1679.000	 H	7	LEU7	0.092	
99	 2HB	1645.844	489.294	-1680.214	 H	7	LEU7	0.046	
100	 3HB	1644.928	489.781	-1678.802	 H	7	LEU7	0.046	
101	  HG	1645.625	487.790	-1677.543	 H	7	LEU7	-0.036	
102	1HD1	1643.648	487.602	-1679.083	 H	7	LEU7	0.100	
103	2HD1	1644.704	487.052	-1680.406	 H	7	LEU7	0.100	
104	3HD1	1644.498	486.051	-1678.949	 H	7	LEU7	0.100	
105	1HD2	1647.363	487.050	-1680.001	 H	7	LEU7	0.100	
106	2HD2	1647.942	487.431	-1678.360	 H	7	LEU7	0.100	
107	3HD2	1647.007	485.957	-1678.636	 H	7	LEU7	0.100	
108	   N	1646.161	492.374	-1678.691	N.am	8	ASP8	-0.516	
109	  CA	1646.090	493.724	-1679.244	C.3	8	ASP8	0.038	
110	   C	1647.437	494.403	-1679.187	C.2	8	ASP8	0.537	
111	   O	1647.909	495.009	-1680.161	O.2	8	ASP8	-0.582	
112	  CB	1645.012	494.562	-1678.502	C.3	8	ASP8	-0.030	
113	  CG	1644.793	495.983	-1679.042	C.2	8	ASP8	0.799	
114	 OD1	1644.857	496.183	-1680.273	O.co2	8	ASP8	-0.801	
115	 OD2	1644.601	496.909	-1678.227	O.co2	8	ASP8	-0.801	
116	   H	1645.563	492.103	-1677.924	 H	8	ASP8	0.294	
117	  HA	1645.807	493.646	-1680.311	 H	8	ASP8	0.088	
118	 2HB	1645.269	494.645	-1677.430	 H	8	ASP8	-0.012	
119	 3HB	1644.033	494.057	-1678.535	 H	8	ASP8	-0.012	
120	   N	1648.117	494.353	-1678.092	N.am	9	GLU9	-0.516	
121	  CA	1649.419	495.011	-1678.036	C.3	9	GLU9	0.040	
122	   C	1650.337	494.484	-1679.113	C.2	9	GLU9	0.537	
123	   O	1651.001	495.239	-1679.838	O.2	9	GLU9	-0.582	
124	  CB	1650.053	494.803	-1676.631	C.3	9	GLU9	0.056	
125	  CG	1651.435	495.495	-1676.401	C.3	9	GLU9	0.014	
126	  CD	1652.138	495.282	-1675.073	C.2	9	GLU9	0.805	
127	 OE1	1651.616	494.590	-1674.177	O.co2	9	GLU9	-0.819	
128	 OE2	1653.257	495.819	-1674.942	O.co2	9	GLU9	-0.819	
129	   H	1647.753	493.867	-1677.285	 H	9	GLU9	0.294	
130	  HA	1649.277	496.093	-1678.211	 H	9	GLU9	0.111	
131	 2HB	1650.166	493.718	-1676.428	 H	9	GLU9	-0.017	
132	 3HB	1649.356	495.156	-1675.847	 H	9	GLU9	-0.017	
133	 2HG	1651.364	496.586	-1676.541	 H	9	GLU9	-0.043	
134	 3HG	1652.182	495.150	-1677.136	 H	9	GLU9	-0.043	
135	   N	1650.434	493.209	-1679.283	N.am	10	GLN10	-0.416	
136	  CA	1651.321	492.699	-1680.323	C.3	10	GLN10	-0.003	
137	   C	1650.954	493.264	-1681.674	C.2	10	GLN10	0.597	
138	   O	1651.800	493.725	-1682.438	O.2	10	GLN10	-0.568	
139	  CB	1651.242	491.156	-1680.329	C.3	10	GLN10	-0.004	
140	  CG	1652.166	490.420	-1681.355	C.3	10	GLN10	-0.064	
141	  CD	1652.096	488.892	-1681.460	C.2	10	GLN10	0.695	
142	 NE2	1651.284	488.218	-1680.687	N.pl3	10	GLN10	-0.941	
143	 OE1	1652.773	488.285	-1682.276	O.2	10	GLN10	-0.609	
144	   H	1649.903	492.573	-1678.705	 H	10	GLN10	0.272	
145	  HA	1652.355	493.019	-1680.096	 H	10	GLN10	0.085	
146	 2HB	1650.189	490.857	-1680.515	 H	10	GLN10	0.017	
147	 3HB	1651.476	490.781	-1679.313	 H	10	GLN10	0.017	
148	 2HG	1653.223	490.693	-1681.177	 H	10	GLN10	0.035	
149	 3HG	1651.960	490.777	-1682.381	 H	10	GLN10	0.035	
150	1HE2	1651.251	487.213	-1680.865	 H	10	GLN10	0.425	
151	2HE2	1650.697	488.790	-1680.076	 H	10	GLN10	0.425	
152	   N	1649.716	493.264	-1682.038	N.am	11	VAL11	-0.416	
153	  CA	1649.362	493.811	-1683.344	C.3	11	VAL11	-0.087	
154	   C	1649.827	495.241	-1683.476	C.2	11	VAL11	0.597	
155	   O	1650.428	495.647	-1684.478	O.2	11	VAL11	-0.568	
156	  CB	1647.801	493.704	-1683.565	C.3	11	VAL11	0.299	
157	 CG1	1647.233	494.409	-1684.827	C.3	11	VAL11	-0.319	
158	 CG2	1647.276	492.250	-1683.640	C.3	11	VAL11	-0.319	
159	   H	1649.003	492.890	-1681.428	 H	11	VAL11	0.272	
160	  HA	1649.882	493.229	-1684.127	 H	11	VAL11	0.097	
161	  HB	1647.313	494.184	-1682.689	 H	11	VAL11	-0.030	
162	1HG1	1647.672	494.018	-1685.764	 H	11	VAL11	0.079	
163	2HG1	1646.134	494.302	-1684.910	 H	11	VAL11	0.079	
164	3HG1	1647.411	495.501	-1684.817	 H	11	VAL11	0.079	
165	1HG2	1647.566	491.662	-1682.749	 H	11	VAL11	0.079	
166	2HG2	1646.171	492.213	-1683.683	 H	11	VAL11	0.079	
167	3HG2	1647.659	491.710	-1684.526	 H	11	VAL11	0.079	
168	   N	1649.589	496.066	-1682.513	N.am	12	GLN12	-0.416	
169	  CA	1650.037	497.450	-1682.639	C.3	12	GLN12	-0.003	
170	   C	1651.528	497.517	-1682.876	C.2	12	GLN12	0.597	
171	   O	1652.015	498.226	-1683.754	O.2	12	GLN12	-0.568	
172	  CB	1649.646	498.216	-1681.356	C.3	12	GLN12	-0.004	
173	  CG	1650.006	499.738	-1681.324	C.3	12	GLN12	-0.064	
174	  CD	1649.703	500.551	-1680.059	C.2	12	GLN12	0.695	
175	 NE2	1649.136	499.974	-1679.030	N.pl3	12	GLN12	-0.941	
176	 OE1	1650.005	501.732	-1679.980	O.2	12	GLN12	-0.609	
177	   H	1649.100	495.760	-1681.684	 H	12	GLN12	0.272	
178	  HA	1649.539	497.906	-1683.514	 H	12	GLN12	0.085	
179	 2HB	1650.122	497.715	-1680.487	 H	12	GLN12	0.017	
180	 3HB	1648.556	498.109	-1681.193	 H	12	GLN12	0.017	
181	 2HG	1649.529	500.259	-1682.174	 H	12	GLN12	0.035	
182	 3HG	1651.090	499.880	-1681.489	 H	12	GLN12	0.035	
183	1HE2	1649.028	500.568	-1678.207	 H	12	GLN12	0.425	
184	2HE2	1648.972	498.970	-1679.135	 H	12	GLN12	0.425	
185	   N	1652.312	496.810	-1682.135	N.am	13	ARG13	-0.348	
186	  CA	1653.752	496.876	-1682.365	C.3	13	ARG13	-0.264	
187	   C	1654.089	496.505	-1683.790	C.2	13	ARG13	0.734	
188	   O	1654.858	497.177	-1684.474	O.2	13	ARG13	-0.589	
189	  CB	1654.465	495.936	-1681.352	C.3	13	ARG13	-0.001	
190	  CG	1656.010	496.089	-1681.270	C.3	13	ARG13	0.039	
191	  CD	1656.636	495.101	-1680.272	C.3	13	ARG13	0.049	
192	  NE	1658.114	495.308	-1680.221	N.pl3	13	ARG13	-0.530	
193	  CZ	1658.961	494.616	-1679.466	C.cat	13	ARG13	0.808	
194	 NH1	1658.596	493.651	-1678.669	N.pl3	13	ARG13	-0.863	
195	 NH2	1660.221	494.915	-1679.522	N.pl3	13	ARG13	-0.863	
196	   H	1651.935	496.219	-1681.407	 H	13	ARG13	0.275	
197	  HA	1654.077	497.921	-1682.206	 H	13	ARG13	0.156	
198	 2HB	1654.199	494.885	-1681.592	 H	13	ARG13	0.033	
199	 3HB	1654.039	496.102	-1680.341	 H	13	ARG13	0.033	
200	 2HG	1656.258	497.133	-1680.990	 H	13	ARG13	0.029	
201	 3HG	1656.461	495.934	-1682.271	 H	13	ARG13	0.029	
202	 2HD	1656.392	494.061	-1680.582	 H	13	ARG13	0.069	
203	 3HD	1656.180	495.246	-1679.270	 H	13	ARG13	0.069	
204	  HE	1658.565	496.030	-1680.791	 H	13	ARG13	0.346	
205	1HH1	1657.590	493.465	-1678.673	 H	13	ARG13	0.448	
206	2HH1	1659.309	493.167	-1678.120	 H	13	ARG13	0.448	
207	1HH2	1660.489	495.673	-1680.152	 H	13	ARG13	0.448	
208	2HH2	1660.856	494.373	-1678.933	 H	13	ARG13	0.448	
209	   N	1653.553	495.451	-1684.305	N.am	14	VAL14	-0.416	
210	  CA	1653.878	495.092	-1685.683	C.3	14	VAL14	-0.087	
211	   C	1653.549	496.223	-1686.628	C.2	14	VAL14	0.597	
212	   O	1654.343	496.605	-1687.497	O.2	14	VAL14	-0.568	
213	  CB	1653.106	493.776	-1686.091	C.3	14	VAL14	0.299	
214	 CG1	1653.196	493.358	-1687.585	C.3	14	VAL14	-0.319	
215	 CG2	1653.538	492.523	-1685.292	C.3	14	VAL14	-0.319	
216	   H	1652.918	494.882	-1683.764	 H	14	VAL14	0.272	
217	  HA	1654.967	494.916	-1685.758	 H	14	VAL14	0.097	
218	  HB	1652.030	493.947	-1685.875	 H	14	VAL14	-0.030	
219	1HG1	1654.237	493.181	-1687.913	 H	14	VAL14	0.079	
220	2HG1	1652.623	492.435	-1687.798	 H	14	VAL14	0.079	
221	3HG1	1652.767	494.121	-1688.263	 H	14	VAL14	0.079	
222	1HG2	1653.450	492.681	-1684.201	 H	14	VAL14	0.079	
223	2HG2	1652.902	491.647	-1685.525	 H	14	VAL14	0.079	
224	3HG2	1654.585	492.233	-1685.497	 H	14	VAL14	0.079	
225	   N	1652.404	496.809	-1686.526	N.am	15	MET15	-0.416	
226	  CA	1652.084	497.902	-1687.440	C.3	15	MET15	-0.024	
227	   C	1653.115	499.002	-1687.350	C.2	15	MET15	0.597	
228	   O	1653.618	499.514	-1688.362	O.2	15	MET15	-0.568	
229	  CB	1650.663	498.448	-1687.131	C.3	15	MET15	0.034	
230	  CG	1649.501	497.450	-1687.324	C.3	15	MET15	0.002	
231	  SD	1647.927	498.317	-1687.210	S.3	15	MET15	-0.274	
232	  CE	1646.845	496.887	-1687.075	C.3	15	MET15	-0.054	
233	   H	1651.739	496.516	-1685.825	 H	15	MET15	0.272	
234	  HA	1652.110	497.516	-1688.475	 H	15	MET15	0.088	
235	 2HB	1650.461	499.327	-1687.773	 H	15	MET15	0.024	
236	 3HB	1650.627	498.840	-1686.094	 H	15	MET15	0.024	
237	 2HG	1649.543	496.664	-1686.547	 H	15	MET15	0.044	
238	 3HG	1649.564	496.936	-1688.301	 H	15	MET15	0.044	
239	 1HE	1646.989	496.199	-1687.928	 H	15	MET15	0.068	
240	 2HE	1647.054	496.333	-1686.142	 H	15	MET15	0.068	
241	 3HE	1645.788	497.202	-1687.059	 H	15	MET15	0.068	
242	   N	1653.483	499.422	-1686.188	N.am	16	ARG16	-0.348	
243	  CA	1654.480	500.485	-1686.102	C.3	16	ARG16	-0.264	
244	   C	1655.750	500.093	-1686.818	C.2	16	ARG16	0.734	
245	   O	1655.864	499.017	-1687.401	O.2	16	ARG16	-0.589	
246	  CB	1654.748	500.802	-1684.604	C.3	16	ARG16	-0.001	
247	  CG	1655.573	502.091	-1684.329	C.3	16	ARG16	0.039	
248	  CD	1655.822	502.308	-1682.828	C.3	16	ARG16	0.049	
249	  NE	1656.599	503.567	-1682.625	N.pl3	16	ARG16	-0.530	
250	  CZ	1656.990	504.048	-1681.449	C.cat	16	ARG16	0.808	
251	 NH1	1656.741	503.463	-1680.311	N.pl3	16	ARG16	-0.863	
252	 NH2	1657.654	505.161	-1681.429	N.pl3	16	ARG16	-0.863	
253	   H	1653.088	499.021	-1685.349	 H	16	ARG16	0.275	
254	  HA	1654.071	501.379	-1686.612	 H	16	ARG16	0.156	
255	 2HB	1655.245	499.926	-1684.138	 H	16	ARG16	0.033	
256	 3HB	1653.779	500.883	-1684.070	 H	16	ARG16	0.033	
257	 2HG	1655.043	502.962	-1684.766	 H	16	ARG16	0.029	
258	 3HG	1656.547	502.038	-1684.858	 H	16	ARG16	0.029	
259	 2HD	1656.371	501.433	-1682.415	 H	16	ARG16	0.069	
260	 3HD	1654.849	502.351	-1682.293	 H	16	ARG16	0.069	
261	  HE	1656.878	504.149	-1683.422	 H	16	ARG16	0.346	
262	1HH1	1656.215	502.590	-1680.397	 H	16	ARG16	0.448	
263	2HH1	1657.075	503.898	-1679.449	 H	16	ARG16	0.448	
264	1HH2	1657.840	505.604	-1682.331	 H	16	ARG16	0.448	
265	2HH2	1657.944	505.515	-1680.516	 H	16	ARG16	0.448	
@<TRIPOS>BOND
1 1 2 1
2 1 10 1
3 2 3 1
4 2 5 1
5 2 11 1
6 3 4 2
7 3 16 1
8 5 6 1
9 6 7 1
10 7 8 2
11 7 9 1
12 5 12 1
13 5 13 1
14 6 14 1
15 6 15 1
16 16 17 1
17 16 24 1
18 17 18 1
19 17 20 1
20 17 25 1
21 18 19 2
22 18 30 1
23 20 21 1
24 21 22 1
25 21 23 2
26 20 26 1
27 20 27 1
28 22 28 1
29 22 29 1
30 30 31 1
31 30 36 1
32 31 32 1
33 31 34 1
34 31 37 1
35 32 33 2
36 32 44 1
37 34 35 1
38 35 36 1
39 34 38 1
40 34 39 1
41 35 40 1
42 35 41 1
43 36 42 1
44 36 43 1
45 44 45 1
46 44 53 1
47 45 46 1
48 45 48 1
49 45 54 1
50 46 47 2
51 46 59 1
52 48 49 1
53 49 50 1
54 50 51 2
55 50 52 1
56 48 55 1
57 48 56 1
58 49 57 1
59 49 58 1
60 59 60 1
61 59 65 1
62 60 61 1
63 60 63 1
64 60 66 1
65 61 62 2
66 61 70 1
67 63 64 1
68 63 67 1
69 63 68 1
70 64 69 1
71 70 71 1
72 70 78 1
73 71 72 1
74 71 74 1
75 71 79 1
76 72 73 2
77 72 89 1
78 74 75 1
79 74 76 1
80 75 77 1
81 74 80 1
82 75 81 1
83 75 82 1
84 76 83 1
85 76 84 1
86 76 85 1
87 77 86 1
88 77 87 1
89 77 88 1
90 89 90 1
91 89 97 1
92 90 91 1
93 90 93 1
94 90 98 1
95 91 92 2
96 91 108 1
97 93 94 1
98 94 95 1
99 94 96 1
100 93 99 1
101 93 100 1
102 94 101 1
103 95 102 1
104 95 103 1
105 95 104 1
106 96 105 1
107 96 106 1
108 96 107 1
109 108 109 1
110 108 116 1
111 109 110 1
112 109 112 1
113 109 117 1
114 110 111 2
115 110 120 1
116 112 113 1
117 113 114 2
118 113 115 1
119 112 118 1
120 112 119 1
121 120 121 1
122 120 129 1
123 121 122 1
124 121 124 1
125 121 130 1
126 122 123 2
127 122 135 1
128 124 125 1
129 125 126 1
130 126 127 2
131 126 128 1
132 124 131 1
133 124 132 1
134 125 133 1
135 125 134 1
136 135 136 1
137 135 144 1
138 136 137 1
139 136 139 1
140 136 145 1
141 137 138 2
142 137 152 1
143 139 140 1
144 140 141 1
145 141 142 1
146 141 143 2
147 139 146 1
148 139 147 1
149 140 148 1
150 140 149 1
151 142 150 1
152 142 151 1
153 152 153 1
154 152 159 1
155 153 154 1
156 153 156 1
157 153 160 1
158 154 155 2
159 154 168 1
160 156 157 1
161 156 158 1
162 156 161 1
163 157 162 1
164 157 163 1
165 157 164 1
166 158 165 1
167 158 166 1
168 158 167 1
169 168 169 1
170 168 177 1
171 169 170 1
172 169 172 1
173 169 178 1
174 170 171 2
175 170 185 1
176 172 173 1
177 173 174 1
178 174 175 1
179 174 176 2
180 172 179 1
181 172 180 1
182 173 181 1
183 173 182 1
184 175 183 1
185 175 184 1
186 185 186 1
187 185 196 1
188 186 187 1
189 186 189 1
190 186 197 1
191 187 188 2
192 187 209 1
193 189 190 1
194 190 191 1
195 191 192 1
196 192 193 1
197 193 194 2
198 193 195 1
199 189 198 1
200 189 199 1
201 190 200 1
202 190 201 1
203 191 202 1
204 191 203 1
205 192 204 1
206 194 205 1
207 194 206 1
208 195 207 1
209 195 208 1
210 209 210 1
211 209 216 1
212 210 211 1
213 210 213 1
214 210 217 1
215 211 212 2
216 211 225 1
217 213 214 1
218 213 215 1
219 213 218 1
220 214 219 1
221 214 220 1
222 214 221 1
223 215 222 1
224 215 223 1
225 215 224 1
226 225 226 1
227 225 233 1
228 226 227 1
229 226 229 1
230 226 234 1
231 227 228 2
232 227 242 1
233 229 230 1
234 230 231 1
235 231 232 1
236 229 235 1
237 229 236 1
238 230 237 1
239 230 238 1
240 232 239 1
241 232 240 1
242 232 241 1
243 242 243 1
244 242 253 1
245 243 244 1
246 243 246 1
247 243 254 1
248 244 245 2
249 246 247 1
250 247 248 1
251 248 249 1
252 249 250 1
253 250 251 2
254 250 252 1
255 246 255 1
256 246 256 1
257 247 257 1
258 247 258 1
259 248 259 1
260 248 260 1
261 249 261 1
262 251 262 1
263 251 263 1
264 252 264 1
265 252 265 1
@<TRIPOS>SUBSTRUCTURE
1	GLU1	1	RESIDUE	1 ****	GLU
2	ASN2	16	RESIDUE	1 ****	ASN
3	PRO3	30	RESIDUE	1 ****	PRO
4	GLU4	44	RESIDUE	1 ****	GLU
5	SER5	59	RESIDUE	1 ****	SER
6	ILE6	70	RESIDUE	1 ****	ILE
7	LEU7	89	RESIDUE	1 ****	LEU
8	ASP8	108	RESIDUE	1 ****	ASP
9	GLU9	120	RESIDUE	1 ****	GLU
10	GLN10	135	RESIDUE	1 ****	GLN
11	VAL11	152	RESIDUE	1 ****	VAL
12	GLN12	168	RESIDUE	1 ****	GLN
13	ARG13	185	RESIDUE	1 ****	ARG
14	VAL14	209	RESIDUE	1 ****	VAL
15	MET15	225	RESIDUE	1 ****	MET
16	ARG16	242	RESIDUE	1 ****	ARG
