@<TRIPOS>MOLECULE
7-5
263 264 16              
SMALL
USER_CHARGES
@<TRIPOS>ATOM
1	   N	1057.873	296.855	-1040.334	N.3	1	GLU1	-0.516	
2	  CA	1058.432	298.204	-1040.334	C.3	1	GLU1	0.040	
3	   C	1059.941	298.164	-1040.334	C.2	1	GLU1	0.537	
4	   O	1060.617	298.863	-1041.103	O.2	1	GLU1	-0.582	
5	  CB	1057.909	298.989	-1039.097	C.3	1	GLU1	0.056	
6	  CG	1058.384	300.474	-1038.986	C.3	1	GLU1	0.014	
7	  CD	1057.960	301.278	-1037.771	C.2	1	GLU1	0.805	
8	 OE1	1057.232	300.776	-1036.893	O.co2	1	GLU1	-0.819	
9	 OE2	1058.390	302.448	-1037.699	O.co2	1	GLU1	-0.819	
10	   H	1058.500	295.976	-1040.334	 H	1	GLU1	0.294	
11	  HA	1058.106	298.722	-1041.254	 H	1	GLU1	0.111	
12	 2HB	1058.198	298.458	-1038.167	 H	1	GLU1	-0.017	
13	 3HB	1056.802	298.979	-1039.084	 H	1	GLU1	-0.017	
14	 2HG	1058.074	301.059	-1039.867	 H	1	GLU1	-0.043	
15	 3HG	1059.484	300.541	-1038.957	 H	1	GLU1	-0.043	
16	   N	1060.545	297.378	-1039.509	N.am	2	ASN2	-0.416	
17	  CA	1062.005	297.339	-1039.509	C.3	2	ASN2	0.014	
18	   C	1062.536	296.984	-1040.878	C.2	2	ASN2	0.597	
19	   O	1063.451	297.614	-1041.406	O.2	2	ASN2	-0.568	
20	  CB	1062.497	296.316	-1038.445	C.3	2	ASN2	-0.204	
21	  CG	1062.034	296.540	-1037.001	C.2	2	ASN2	0.713	
22	 ND2	1062.628	297.455	-1036.283	N.pl3	2	ASN2	-0.919	
23	 OD1	1061.113	295.906	-1036.507	O.2	2	ASN2	-0.593	
24	   H	1060.017	296.798	-1038.872	 H	2	ASN2	0.272	
25	  HA	1062.382	298.349	-1039.264	 H	2	ASN2	0.105	
26	 2HB	1063.601	296.257	-1038.448	 H	2	ASN2	0.080	
27	 3HB	1062.168	295.298	-1038.730	 H	2	ASN2	0.080	
28	1HD2	1062.147	297.628	-1035.397	 H	2	ASN2	0.420	
29	2HD2	1063.330	298.027	-1036.752	 H	2	ASN2	0.420	
30	   N	1062.014	295.989	-1041.512	N.am	3	PRO3	-0.255	
31	  CA	1062.466	295.579	-1042.833	C.3	3	PRO3	-0.027	
32	   C	1062.068	296.603	-1043.910	C.2	3	PRO3	0.590	
33	   O	1062.891	296.986	-1044.742	O.2	3	PRO3	-0.575	
34	  CB	1061.762	294.225	-1043.003	C.3	3	PRO3	-0.007	
35	  CG	1060.479	294.377	-1042.172	C.3	3	PRO3	0.019	
36	  CD	1060.936	295.195	-1040.963	C.3	3	PRO3	0.019	
37	  HA	1063.552	295.459	-1042.847	 H	3	PRO3	0.064	
38	 2HB	1062.385	293.443	-1042.562	 H	3	PRO3	0.025	
39	 3HB	1061.564	293.976	-1044.048	 H	3	PRO3	0.025	
40	 2HG	1060.051	293.414	-1041.881	 H	3	PRO3	0.021	
41	 3HG	1059.741	294.948	-1042.740	 H	3	PRO3	0.021	
42	 2HD	1061.326	294.546	-1040.175	 H	3	PRO3	0.039	
43	 3HD	1060.140	295.831	-1040.569	 H	3	PRO3	0.039	
44	   N	1060.863	297.063	-1043.942	N.am	4	GLU4	-0.516	
45	  CA	1060.503	298.034	-1044.972	C.3	4	GLU4	0.040	
46	   C	1061.402	299.245	-1044.911	C.2	4	GLU4	0.537	
47	   O	1061.928	299.725	-1045.925	O.2	4	GLU4	-0.582	
48	  CB	1059.015	298.452	-1044.801	C.3	4	GLU4	0.056	
49	  CG	1058.466	299.456	-1045.867	C.3	4	GLU4	0.014	
50	  CD	1057.040	299.953	-1045.723	C.2	4	GLU4	0.805	
51	 OE1	1056.314	299.554	-1044.792	O.co2	4	GLU4	-0.819	
52	 OE2	1056.650	300.782	-1046.571	O.co2	4	GLU4	-0.819	
53	   H	1060.179	296.756	-1043.266	 H	4	GLU4	0.294	
54	  HA	1060.634	297.563	-1045.963	 H	4	GLU4	0.111	
55	 2HB	1058.862	298.892	-1043.795	 H	4	GLU4	-0.017	
56	 3HB	1058.367	297.555	-1044.807	 H	4	GLU4	-0.017	
57	 2HG	1058.548	299.041	-1046.885	 H	4	GLU4	-0.043	
58	 3HG	1059.054	300.388	-1045.878	 H	4	GLU4	-0.043	
59	   N	1061.630	299.798	-1043.768	N.am	5	SER5	-0.416	
60	  CA	1062.499	300.969	-1043.709	C.3	5	SER5	-0.025	
61	   C	1063.858	300.664	-1044.295	C.2	5	SER5	0.597	
62	   O	1064.405	301.417	-1045.100	O.2	5	SER5	-0.568	
63	  CB	1062.611	301.501	-1042.259	C.3	5	SER5	0.212	
64	  OG	1063.343	300.622	-1041.398	O.3	5	SER5	-0.655	
65	   H	1061.213	299.426	-1042.926	 H	5	SER5	0.272	
66	  HA	1062.050	301.759	-1044.338	 H	5	SER5	0.084	
67	 2HB	1061.611	301.695	-1041.825	 H	5	SER5	0.035	
68	 3HB	1063.116	302.487	-1042.261	 H	5	SER5	0.035	
69	  HG	1062.854	299.797	-1041.347	 H	5	SER5	0.428	
70	   N	1064.463	299.581	-1043.941	N.am	6	ILE6	-0.416	
71	  CA	1065.776	299.286	-1044.507	C.3	6	ILE6	-0.060	
72	   C	1065.719	299.249	-1046.015	C.2	6	ILE6	0.597	
73	   O	1066.553	299.836	-1046.719	O.2	6	ILE6	-0.568	
74	  CB	1066.376	297.950	-1043.908	C.3	6	ILE6	0.130	
75	 CG1	1066.395	297.887	-1042.347	C.3	6	ILE6	-0.043	
76	 CG2	1067.817	297.648	-1044.423	C.3	6	ILE6	-0.320	
77	 CD1	1066.665	296.498	-1041.732	C.3	6	ILE6	-0.066	
78	   H	1064.034	298.946	-1043.282	 H	6	ILE6	0.272	
79	  HA	1066.450	300.120	-1044.240	 H	6	ILE6	0.087	
80	  HB	1065.718	297.124	-1044.252	 H	6	ILE6	0.019	
81	2HG1	1065.413	298.207	-1041.951	 H	6	ILE6	0.024	
82	3HG1	1067.111	298.629	-1041.942	 H	6	ILE6	0.024	
83	1HG2	1067.876	297.555	-1045.521	 H	6	ILE6	0.088	
84	2HG2	1068.539	298.431	-1044.121	 H	6	ILE6	0.088	
85	3HG2	1068.207	296.686	-1044.045	 H	6	ILE6	0.088	
86	1HD1	1065.937	295.744	-1042.087	 H	6	ILE6	0.019	
87	2HD1	1067.676	296.120	-1041.968	 H	6	ILE6	0.019	
88	3HD1	1066.589	296.528	-1040.629	 H	6	ILE6	0.019	
89	   N	1064.773	298.585	-1046.589	N.am	7	MET7	-0.416	
90	  CA	1064.717	298.549	-1048.047	C.3	7	MET7	-0.024	
91	   C	1064.644	299.942	-1048.622	C.2	7	MET7	0.597	
92	   O	1065.364	300.302	-1049.566	O.2	7	MET7	-0.568	
93	  CB	1063.503	297.695	-1048.507	C.3	7	MET7	0.034	
94	  CG	1063.531	296.206	-1048.098	C.3	7	MET7	0.002	
95	  SD	1062.219	295.314	-1048.948	S.3	7	MET7	-0.274	
96	  CE	1062.270	293.792	-1047.993	C.3	7	MET7	-0.054	
97	   H	1064.081	298.098	-1046.037	 H	7	MET7	0.272	
98	  HA	1065.650	298.090	-1048.425	 H	7	MET7	0.088	
99	 2HB	1063.421	297.739	-1049.610	 H	7	MET7	0.024	
100	 3HB	1062.562	298.148	-1048.135	 H	7	MET7	0.024	
101	 2HG	1063.391	296.111	-1047.005	 H	7	MET7	0.044	
102	 3HG	1064.504	295.738	-1048.336	 H	7	MET7	0.044	
103	 1HE	1063.282	293.349	-1048.008	 H	7	MET7	0.068	
104	 2HE	1061.991	293.988	-1046.943	 H	7	MET7	0.068	
105	 3HE	1061.561	293.053	-1048.405	 H	7	MET7	0.068	
106	   N	1063.807	300.785	-1048.117	N.am	8	ASP8	-0.516	
107	  CA	1063.737	302.133	-1048.673	C.3	8	ASP8	0.038	
108	   C	1065.083	302.812	-1048.619	C.2	8	ASP8	0.537	
109	   O	1065.556	303.415	-1049.595	O.2	8	ASP8	-0.582	
110	  CB	1062.659	302.974	-1047.933	C.3	8	ASP8	-0.030	
111	  CG	1062.440	304.393	-1048.477	C.2	8	ASP8	0.799	
112	 OD1	1062.504	304.590	-1049.708	O.co2	8	ASP8	-0.801	
113	 OD2	1062.249	305.321	-1047.663	O.co2	8	ASP8	-0.801	
114	   H	1063.209	300.515	-1047.349	 H	8	ASP8	0.294	
115	  HA	1063.453	302.053	-1049.740	 H	8	ASP8	0.088	
116	 2HB	1062.917	303.059	-1046.861	 H	8	ASP8	-0.012	
117	 3HB	1061.680	302.469	-1047.964	 H	8	ASP8	-0.012	
118	   N	1065.764	302.765	-1047.524	N.am	9	GLU9	-0.516	
119	  CA	1067.067	303.422	-1047.471	C.3	9	GLU9	0.040	
120	   C	1067.984	302.892	-1048.547	C.2	9	GLU9	0.537	
121	   O	1068.647	303.645	-1049.275	O.2	9	GLU9	-0.582	
122	  CB	1067.702	303.218	-1046.066	C.3	9	GLU9	0.056	
123	  CG	1069.084	303.910	-1045.839	C.3	9	GLU9	0.014	
124	  CD	1069.787	303.700	-1044.511	C.2	9	GLU9	0.805	
125	 OE1	1069.267	303.011	-1043.613	O.co2	9	GLU9	-0.819	
126	 OE2	1070.907	304.238	-1044.382	O.co2	9	GLU9	-0.819	
127	   H	1065.401	302.280	-1046.715	 H	9	GLU9	0.294	
128	  HA	1066.925	304.504	-1047.649	 H	9	GLU9	0.111	
129	 2HB	1067.815	302.134	-1045.860	 H	9	GLU9	-0.017	
130	 3HB	1067.005	303.573	-1045.282	 H	9	GLU9	-0.017	
131	 2HG	1069.013	305.001	-1045.981	 H	9	GLU9	-0.043	
132	 3HG	1069.831	303.564	-1046.573	 H	9	GLU9	-0.043	
133	   N	1068.080	301.617	-1048.714	N.am	10	HIS10	-0.416	
134	  CA	1068.967	301.103	-1049.754	C.3	10	HIS10	-0.058	
135	   C	1068.599	301.664	-1051.106	C.2	10	HIS10	0.597	
136	   O	1069.451	302.127	-1051.879	O.2	10	HIS10	-0.568	
137	  CB	1068.802	299.574	-1049.745	C.3	10	HIS10	-0.007	
138	  CG	1070.088	298.864	-1049.437	C.2	10	HIS10	0.187	
139	 CD2	1070.470	298.531	-1048.144	C.2	10	HIS10	-0.221	
140	 ND1	1071.039	298.456	-1050.369	N.2	10	HIS10	-0.543	
141	 CE1	1071.946	297.899	-1049.546	C.2	10	HIS10	0.163	
142	 NE2	1071.685	297.899	-1048.210	N.pl3	10	HIS10	-0.280	
143	   H	1067.550	300.983	-1048.133	 H	10	HIS10	0.272	
144	  HA	1069.986	301.460	-1049.530	 H	10	HIS10	0.136	
145	 2HB	1068.436	299.205	-1050.724	 H	10	HIS10	0.037	
146	 3HB	1068.047	299.239	-1049.004	 H	10	HIS10	0.037	
147	 2HD	1069.885	298.749	-1047.255	 H	10	HIS10	0.186	
148	 1HE	1072.837	297.477	-1049.992	 H	10	HIS10	0.144	
149	 2HE	1072.252	297.523	-1047.437	 H	10	HIS10	0.334	
150	   N	1067.361	301.663	-1051.468	N.am	11	VAL11	-0.416	
151	  CA	1067.005	302.206	-1052.775	C.3	11	VAL11	-0.087	
152	   C	1067.470	303.636	-1052.911	C.2	11	VAL11	0.597	
153	   O	1068.070	304.039	-1053.916	O.2	11	VAL11	-0.568	
154	  CB	1065.443	302.099	-1052.994	C.3	11	VAL11	0.299	
155	 CG1	1064.874	302.800	-1054.257	C.3	11	VAL11	-0.319	
156	 CG2	1064.918	300.645	-1053.063	C.3	11	VAL11	-0.319	
157	   H	1066.648	301.291	-1050.856	 H	11	VAL11	0.272	
158	  HA	1067.524	301.622	-1053.557	 H	11	VAL11	0.097	
159	  HB	1064.957	302.581	-1052.119	 H	11	VAL11	-0.030	
160	1HG1	1065.312	302.407	-1055.194	 H	11	VAL11	0.079	
161	2HG1	1063.775	302.693	-1054.338	 H	11	VAL11	0.079	
162	3HG1	1065.052	303.893	-1054.251	 H	11	VAL11	0.079	
163	1HG2	1065.209	300.060	-1052.171	 H	11	VAL11	0.079	
164	2HG2	1063.813	300.608	-1053.105	 H	11	VAL11	0.079	
165	3HG2	1065.300	300.102	-1053.949	 H	11	VAL11	0.079	
166	   N	1067.233	304.464	-1051.951	N.am	12	GLN12	-0.416	
167	  CA	1067.682	305.847	-1052.081	C.3	12	GLN12	-0.003	
168	   C	1069.172	305.913	-1052.320	C.2	12	GLN12	0.597	
169	   O	1069.659	306.619	-1053.201	O.2	12	GLN12	-0.568	
170	  CB	1067.292	306.617	-1050.800	C.3	12	GLN12	-0.004	
171	  CG	1067.653	308.139	-1050.773	C.3	12	GLN12	-0.064	
172	  CD	1067.352	308.956	-1049.510	C.2	12	GLN12	0.695	
173	 NE2	1066.785	308.382	-1048.479	N.pl3	12	GLN12	-0.941	
174	 OE1	1067.654	310.137	-1049.436	O.2	12	GLN12	-0.609	
175	   H	1066.745	304.160	-1051.121	 H	12	GLN12	0.272	
176	  HA	1067.182	306.301	-1052.957	 H	12	GLN12	0.085	
177	 2HB	1067.769	306.119	-1049.930	 H	12	GLN12	0.017	
178	 3HB	1066.202	306.511	-1050.636	 H	12	GLN12	0.017	
179	 2HG	1067.175	308.658	-1051.625	 H	12	GLN12	0.035	
180	 3HG	1068.737	308.280	-1050.940	 H	12	GLN12	0.035	
181	1HE2	1066.679	308.978	-1047.657	 H	12	GLN12	0.425	
182	2HE2	1066.621	307.378	-1048.580	 H	12	GLN12	0.425	
183	   N	1069.957	305.207	-1051.578	N.am	13	ARG13	-0.348	
184	  CA	1071.397	305.272	-1051.810	C.3	13	ARG13	-0.264	
185	   C	1071.732	304.897	-1053.234	C.2	13	ARG13	0.734	
186	   O	1072.500	305.567	-1053.921	O.2	13	ARG13	-0.589	
187	  CB	1072.110	304.335	-1050.794	C.3	13	ARG13	-0.001	
188	  CG	1073.656	304.488	-1050.715	C.3	13	ARG13	0.039	
189	  CD	1074.283	303.502	-1049.715	C.3	13	ARG13	0.049	
190	  NE	1075.760	303.709	-1049.666	N.pl3	13	ARG13	-0.530	
191	  CZ	1076.608	303.019	-1048.909	C.cat	13	ARG13	0.808	
192	 NH1	1076.243	302.057	-1048.109	N.pl3	13	ARG13	-0.863	
193	 NH2	1077.868	303.317	-1048.968	N.pl3	13	ARG13	-0.863	
194	   H	1069.581	304.620	-1050.848	 H	13	ARG13	0.275	
195	  HA	1071.722	306.318	-1051.655	 H	13	ARG13	0.156	
196	 2HB	1071.844	303.284	-1051.031	 H	13	ARG13	0.033	
197	 3HB	1071.686	304.505	-1049.784	 H	13	ARG13	0.033	
198	 2HG	1073.904	305.533	-1050.438	 H	13	ARG13	0.029	
199	 3HG	1074.105	304.329	-1051.716	 H	13	ARG13	0.029	
200	 2HD	1074.038	302.462	-1050.021	 H	13	ARG13	0.069	
201	 3HD	1073.827	303.651	-1048.712	 H	13	ARG13	0.069	
202	  HE	1076.211	304.430	-1050.239	 H	13	ARG13	0.346	
203	1HH1	1075.238	301.871	-1048.112	 H	13	ARG13	0.448	
204	2HH1	1076.956	301.575	-1047.560	 H	13	ARG13	0.448	
205	1HH2	1078.135	304.073	-1049.601	 H	13	ARG13	0.448	
206	2HH2	1078.503	302.777	-1048.378	 H	13	ARG13	0.448	
207	   N	1071.195	303.842	-1053.746	N.am	14	VAL14	-0.416	
208	  CA	1071.519	303.479	-1055.123	C.3	14	VAL14	-0.087	
209	   C	1071.189	304.606	-1056.071	C.2	14	VAL14	0.597	
210	   O	1071.982	304.985	-1056.942	O.2	14	VAL14	-0.568	
211	  CB	1070.746	302.161	-1055.526	C.3	14	VAL14	0.299	
212	 CG1	1070.834	301.739	-1057.018	C.3	14	VAL14	-0.319	
213	 CG2	1071.178	300.910	-1054.723	C.3	14	VAL14	-0.319	
214	   H	1070.560	303.274	-1053.202	 H	14	VAL14	0.272	
215	  HA	1072.607	303.301	-1055.198	 H	14	VAL14	0.097	
216	  HB	1069.670	302.333	-1055.310	 H	14	VAL14	-0.030	
217	1HG1	1071.875	301.561	-1057.348	 H	14	VAL14	0.079	
218	2HG1	1070.260	300.815	-1057.229	 H	14	VAL14	0.079	
219	3HG1	1070.404	302.500	-1057.698	 H	14	VAL14	0.079	
220	1HG2	1071.091	301.072	-1053.633	 H	14	VAL14	0.079	
221	2HG2	1070.541	300.034	-1054.952	 H	14	VAL14	0.079	
222	3HG2	1072.225	300.620	-1054.928	 H	14	VAL14	0.079	
223	   N	1070.044	305.193	-1055.970	N.am	15	MET15	-0.416	
224	  CA	1069.724	306.284	-1056.887	C.3	15	MET15	-0.024	
225	   C	1070.755	307.383	-1056.802	C.2	15	MET15	0.597	
226	   O	1071.257	307.891	-1057.817	O.2	15	MET15	-0.568	
227	  CB	1068.303	306.831	-1056.578	C.3	15	MET15	0.034	
228	  CG	1067.141	305.833	-1056.767	C.3	15	MET15	0.002	
229	  SD	1065.567	306.700	-1056.654	S.3	15	MET15	-0.274	
230	  CE	1064.485	305.271	-1056.513	C.3	15	MET15	-0.054	
231	   H	1069.380	304.902	-1055.268	 H	15	MET15	0.272	
232	  HA	1069.749	305.894	-1057.921	 H	15	MET15	0.088	
233	 2HB	1068.101	307.708	-1057.223	 H	15	MET15	0.024	
234	 3HB	1068.268	307.226	-1055.543	 H	15	MET15	0.024	
235	 2HG	1067.184	305.049	-1055.987	 H	15	MET15	0.044	
236	 3HG	1067.203	305.315	-1057.742	 H	15	MET15	0.044	
237	 1HE	1064.628	304.581	-1057.363	 H	15	MET15	0.068	
238	 2HE	1064.695	304.721	-1055.579	 H	15	MET15	0.068	
239	 3HE	1063.428	305.587	-1056.496	 H	15	MET15	0.068	
240	   N	1071.125	307.807	-1055.641	N.am	16	ARG16	-0.348	
241	  CA	1072.122	308.871	-1055.561	C.3	16	ARG16	-0.264	
242	   C	1073.392	308.476	-1056.277	C.2	16	ARG16	0.734	
243	   O	1073.505	307.398	-1056.856	O.2	16	ARG16	-0.589	
244	  CB	1072.392	309.193	-1054.064	C.3	16	ARG16	-0.001	
245	  CG	1073.218	310.482	-1053.795	C.3	16	ARG16	0.039	
246	  CD	1073.469	310.705	-1052.295	C.3	16	ARG16	0.049	
247	  NE	1074.245	311.964	-1052.097	N.pl3	16	ARG16	-0.530	
248	  CZ	1074.638	312.450	-1050.923	C.cat	16	ARG16	0.808	
249	 NH1	1074.391	311.868	-1049.783	N.pl3	16	ARG16	-0.863	
250	 NH2	1075.302	313.562	-1050.908	N.pl3	16	ARG16	-0.863	
251	   H	1070.730	307.409	-1054.801	 H	16	ARG16	0.275	
252	  HA	1071.713	309.762	-1056.073	 H	16	ARG16	0.156	
253	 2HB	1072.889	308.318	-1053.596	 H	16	ARG16	0.033	
254	 3HB	1071.424	309.275	-1053.530	 H	16	ARG16	0.033	
255	 2HG	1072.688	311.352	-1054.234	 H	16	ARG16	0.029	
256	 3HG	1074.191	310.427	-1054.325	 H	16	ARG16	0.029	
257	 2HD	1074.017	309.831	-1051.879	 H	16	ARG16	0.069	
258	 3HD	1072.496	310.750	-1051.759	 H	16	ARG16	0.069	
259	  HE	1074.524	312.543	-1052.896	 H	16	ARG16	0.346	
260	1HH1	1073.865	310.995	-1049.865	 H	16	ARG16	0.448	
261	2HH1	1074.726	312.306	-1048.923	 H	16	ARG16	0.448	
262	1HH2	1075.487	314.003	-1051.811	 H	16	ARG16	0.448	
263	2HH2	1075.593	313.919	-1049.997	 H	16	ARG16	0.448	
@<TRIPOS>BOND
1 1 2 1
2 1 10 1
3 2 3 1
4 2 5 1
5 2 11 1
6 3 4 2
7 3 16 1
8 5 6 1
9 6 7 1
10 7 8 2
11 7 9 1
12 5 12 1
13 5 13 1
14 6 14 1
15 6 15 1
16 16 17 1
17 16 24 1
18 17 18 1
19 17 20 1
20 17 25 1
21 18 19 2
22 18 30 1
23 20 21 1
24 21 22 1
25 21 23 2
26 20 26 1
27 20 27 1
28 22 28 1
29 22 29 1
30 30 31 1
31 30 36 1
32 31 32 1
33 31 34 1
34 31 37 1
35 32 33 2
36 32 44 1
37 34 35 1
38 35 36 1
39 34 38 1
40 34 39 1
41 35 40 1
42 35 41 1
43 36 42 1
44 36 43 1
45 44 45 1
46 44 53 1
47 45 46 1
48 45 48 1
49 45 54 1
50 46 47 2
51 46 59 1
52 48 49 1
53 49 50 1
54 50 51 2
55 50 52 1
56 48 55 1
57 48 56 1
58 49 57 1
59 49 58 1
60 59 60 1
61 59 65 1
62 60 61 1
63 60 63 1
64 60 66 1
65 61 62 2
66 61 70 1
67 63 64 1
68 63 67 1
69 63 68 1
70 64 69 1
71 70 71 1
72 70 78 1
73 71 72 1
74 71 74 1
75 71 79 1
76 72 73 2
77 72 89 1
78 74 75 1
79 74 76 1
80 75 77 1
81 74 80 1
82 75 81 1
83 75 82 1
84 76 83 1
85 76 84 1
86 76 85 1
87 77 86 1
88 77 87 1
89 77 88 1
90 89 90 1
91 89 97 1
92 90 91 1
93 90 93 1
94 90 98 1
95 91 92 2
96 91 106 1
97 93 94 1
98 94 95 1
99 95 96 1
100 93 99 1
101 93 100 1
102 94 101 1
103 94 102 1
104 96 103 1
105 96 104 1
106 96 105 1
107 106 107 1
108 106 114 1
109 107 108 1
110 107 110 1
111 107 115 1
112 108 109 2
113 108 118 1
114 110 111 1
115 111 112 2
116 111 113 1
117 110 116 1
118 110 117 1
119 118 119 1
120 118 127 1
121 119 120 1
122 119 122 1
123 119 128 1
124 120 121 2
125 120 133 1
126 122 123 1
127 123 124 1
128 124 125 2
129 124 126 1
130 122 129 1
131 122 130 1
132 123 131 1
133 123 132 1
134 133 134 1
135 133 143 1
136 134 135 1
137 134 137 1
138 134 144 1
139 135 136 2
140 135 150 1
141 137 138 1
142 138 139 2
143 139 142 1
144 138 140 1
145 140 141 2
146 141 142 1
147 137 145 1
148 137 146 1
149 139 147 1
150 141 148 1
151 142 149 1
152 150 151 1
153 150 157 1
154 151 152 1
155 151 154 1
156 151 158 1
157 152 153 2
158 152 166 1
159 154 155 1
160 154 156 1
161 154 159 1
162 155 160 1
163 155 161 1
164 155 162 1
165 156 163 1
166 156 164 1
167 156 165 1
168 166 167 1
169 166 175 1
170 167 168 1
171 167 170 1
172 167 176 1
173 168 169 2
174 168 183 1
175 170 171 1
176 171 172 1
177 172 173 1
178 172 174 2
179 170 177 1
180 170 178 1
181 171 179 1
182 171 180 1
183 173 181 1
184 173 182 1
185 183 184 1
186 183 194 1
187 184 185 1
188 184 187 1
189 184 195 1
190 185 186 2
191 185 207 1
192 187 188 1
193 188 189 1
194 189 190 1
195 190 191 1
196 191 192 2
197 191 193 1
198 187 196 1
199 187 197 1
200 188 198 1
201 188 199 1
202 189 200 1
203 189 201 1
204 190 202 1
205 192 203 1
206 192 204 1
207 193 205 1
208 193 206 1
209 207 208 1
210 207 214 1
211 208 209 1
212 208 211 1
213 208 215 1
214 209 210 2
215 209 223 1
216 211 212 1
217 211 213 1
218 211 216 1
219 212 217 1
220 212 218 1
221 212 219 1
222 213 220 1
223 213 221 1
224 213 222 1
225 223 224 1
226 223 231 1
227 224 225 1
228 224 227 1
229 224 232 1
230 225 226 2
231 225 240 1
232 227 228 1
233 228 229 1
234 229 230 1
235 227 233 1
236 227 234 1
237 228 235 1
238 228 236 1
239 230 237 1
240 230 238 1
241 230 239 1
242 240 241 1
243 240 251 1
244 241 242 1
245 241 244 1
246 241 252 1
247 242 243 2
248 244 245 1
249 245 246 1
250 246 247 1
251 247 248 1
252 248 249 2
253 248 250 1
254 244 253 1
255 244 254 1
256 245 255 1
257 245 256 1
258 246 257 1
259 246 258 1
260 247 259 1
261 249 260 1
262 249 261 1
263 250 262 1
264 250 263 1
@<TRIPOS>SUBSTRUCTURE
1	GLU1	1	RESIDUE	1 ****	GLU
2	ASN2	16	RESIDUE	1 ****	ASN
3	PRO3	30	RESIDUE	1 ****	PRO
4	GLU4	44	RESIDUE	1 ****	GLU
5	SER5	59	RESIDUE	1 ****	SER
6	ILE6	70	RESIDUE	1 ****	ILE
7	MET7	89	RESIDUE	1 ****	MET
8	ASP8	106	RESIDUE	1 ****	ASP
9	GLU9	118	RESIDUE	1 ****	GLU
10	HIS10	133	RESIDUE	1 ****	HIS
11	VAL11	150	RESIDUE	1 ****	VAL
12	GLN12	166	RESIDUE	1 ****	GLN
13	ARG13	183	RESIDUE	1 ****	ARG
14	VAL14	207	RESIDUE	1 ****	VAL
15	MET15	223	RESIDUE	1 ****	MET
16	ARG16	240	RESIDUE	1 ****	ARG
