@<TRIPOS>MOLECULE
6-17
258 259 16              
SMALL
USER_CHARGES
@<TRIPOS>ATOM
1	   N	992.344	274.328	-968.662	N.3	1	GLU1	-0.516	
2	  CA	992.903	275.677	-968.662	C.3	1	GLU1	0.040	
3	   C	994.412	275.637	-968.662	C.2	1	GLU1	0.537	
4	   O	995.088	276.336	-969.430	O.2	1	GLU1	-0.582	
5	  CB	992.380	276.461	-967.425	C.3	1	GLU1	0.056	
6	  CG	992.855	277.947	-967.314	C.3	1	GLU1	0.014	
7	  CD	992.431	278.750	-966.099	C.2	1	GLU1	0.805	
8	 OE1	991.703	278.249	-965.221	O.co2	1	GLU1	-0.819	
9	 OE2	992.861	279.921	-966.027	O.co2	1	GLU1	-0.819	
10	   H	992.971	273.448	-968.662	 H	1	GLU1	0.294	
11	  HA	992.577	276.194	-969.582	 H	1	GLU1	0.111	
12	 2HB	992.669	275.931	-966.495	 H	1	GLU1	-0.017	
13	 3HB	991.273	276.452	-967.412	 H	1	GLU1	-0.017	
14	 2HG	992.545	278.531	-968.195	 H	1	GLU1	-0.043	
15	 3HG	993.955	278.013	-967.285	 H	1	GLU1	-0.043	
16	   N	995.017	274.851	-967.836	N.am	2	ASN2	-0.416	
17	  CA	996.476	274.812	-967.836	C.3	2	ASN2	0.014	
18	   C	997.007	274.457	-969.205	C.2	2	ASN2	0.597	
19	   O	997.922	275.087	-969.734	O.2	2	ASN2	-0.568	
20	  CB	996.968	273.789	-966.772	C.3	2	ASN2	-0.204	
21	  CG	996.505	274.013	-965.329	C.2	2	ASN2	0.713	
22	 ND2	997.099	274.928	-964.611	N.pl3	2	ASN2	-0.919	
23	 OD1	995.584	273.379	-964.835	O.2	2	ASN2	-0.593	
24	   H	994.488	274.271	-967.200	 H	2	ASN2	0.272	
25	  HA	996.853	275.822	-967.591	 H	2	ASN2	0.105	
26	 2HB	998.072	273.730	-966.776	 H	2	ASN2	0.080	
27	 3HB	996.639	272.771	-967.058	 H	2	ASN2	0.080	
28	1HD2	996.618	275.101	-963.724	 H	2	ASN2	0.420	
29	2HD2	997.801	275.499	-965.080	 H	2	ASN2	0.420	
30	   N	996.486	273.461	-969.839	N.am	3	PRO3	-0.255	
31	  CA	996.938	273.052	-971.161	C.3	3	PRO3	-0.027	
32	   C	996.539	274.076	-972.238	C.2	3	PRO3	0.590	
33	   O	997.363	274.459	-973.069	O.2	3	PRO3	-0.575	
34	  CB	996.233	271.697	-971.330	C.3	3	PRO3	-0.007	
35	  CG	994.950	271.850	-970.500	C.3	3	PRO3	0.019	
36	  CD	995.408	272.668	-969.290	C.3	3	PRO3	0.019	
37	  HA	998.023	272.932	-971.174	 H	3	PRO3	0.064	
38	 2HB	996.856	270.916	-970.889	 H	3	PRO3	0.025	
39	 3HB	996.035	271.449	-972.375	 H	3	PRO3	0.025	
40	 2HG	994.523	270.887	-970.209	 H	3	PRO3	0.021	
41	 3HG	994.213	272.420	-971.067	 H	3	PRO3	0.021	
42	 2HD	995.797	272.019	-968.503	 H	3	PRO3	0.039	
43	 3HD	994.611	273.304	-968.897	 H	3	PRO3	0.039	
44	   N	995.335	274.535	-972.270	N.am	4	GLU4	-0.516	
45	  CA	994.975	275.506	-973.300	C.3	4	GLU4	0.040	
46	   C	995.874	276.718	-973.238	C.2	4	GLU4	0.537	
47	   O	996.400	277.197	-974.253	O.2	4	GLU4	-0.582	
48	  CB	993.486	275.925	-973.129	C.3	4	GLU4	0.056	
49	  CG	992.938	276.928	-974.195	C.3	4	GLU4	0.014	
50	  CD	991.511	277.425	-974.051	C.2	4	GLU4	0.805	
51	 OE1	990.785	277.027	-973.120	O.co2	4	GLU4	-0.819	
52	 OE2	991.122	278.254	-974.900	O.co2	4	GLU4	-0.819	
53	   H	994.651	274.229	-971.593	 H	4	GLU4	0.294	
54	  HA	995.106	275.036	-974.291	 H	4	GLU4	0.111	
55	 2HB	993.334	276.365	-972.122	 H	4	GLU4	-0.017	
56	 3HB	992.839	275.027	-973.135	 H	4	GLU4	-0.017	
57	 2HG	993.020	276.514	-975.213	 H	4	GLU4	-0.043	
58	 3HG	993.526	277.861	-974.206	 H	4	GLU4	-0.043	
59	   N	996.101	277.270	-972.095	N.am	5	SER5	-0.416	
60	  CA	996.970	278.442	-972.037	C.3	5	SER5	-0.025	
61	   C	998.329	278.136	-972.622	C.2	5	SER5	0.597	
62	   O	998.876	278.890	-973.427	O.2	5	SER5	-0.568	
63	  CB	997.082	278.974	-970.586	C.3	5	SER5	0.212	
64	  OG	997.813	278.095	-969.725	O.3	5	SER5	-0.655	
65	   H	995.684	276.899	-971.254	 H	5	SER5	0.272	
66	  HA	996.521	279.232	-972.666	 H	5	SER5	0.084	
67	 2HB	996.082	279.168	-970.153	 H	5	SER5	0.035	
68	 3HB	997.587	279.960	-970.588	 H	5	SER5	0.035	
69	  HG	997.325	277.270	-969.674	 H	5	SER5	0.428	
70	   N	998.934	277.053	-972.268	N.am	6	ASP6	-0.516	
71	  CA	1000.248	276.759	-972.834	C.3	6	ASP6	0.038	
72	   C	1000.191	276.720	-974.342	C.2	6	ASP6	0.537	
73	   O	1001.027	277.308	-975.046	O.2	6	ASP6	-0.582	
74	  CB	1000.800	275.422	-972.264	C.3	6	ASP6	-0.030	
75	  CG	1002.212	275.038	-972.732	C.2	6	ASP6	0.799	
76	 OD1	1003.066	275.935	-972.886	O.co2	6	ASP6	-0.801	
77	 OD2	1002.451	273.839	-972.987	O.co2	6	ASP6	-0.801	
78	   H	998.506	276.419	-971.609	 H	6	ASP6	0.294	
79	  HA	1000.937	277.577	-972.552	 H	6	ASP6	0.088	
80	 2HB	1000.121	274.590	-972.526	 H	6	ASP6	-0.012	
81	 3HB	1000.828	275.448	-971.163	 H	6	ASP6	-0.012	
82	   N	999.246	276.057	-974.916	N.am	7	LEU7	-0.416	
83	  CA	999.192	276.020	-976.375	C.3	7	LEU7	-0.052	
84	   C	999.120	277.415	-976.947	C.2	7	LEU7	0.597	
85	   O	999.842	277.778	-977.889	O.2	7	LEU7	-0.568	
86	  CB	997.989	275.160	-976.856	C.3	7	LEU7	-0.110	
87	  CG	997.916	273.681	-976.389	C.3	7	LEU7	0.353	
88	 CD1	996.726	272.975	-977.055	C.3	7	LEU7	-0.412	
89	 CD2	999.210	272.902	-976.679	C.3	7	LEU7	-0.412	
90	   H	998.553	275.570	-974.365	 H	7	LEU7	0.272	
91	  HA	1000.134	275.580	-976.748	 H	7	LEU7	0.092	
92	 2HB	997.967	275.176	-977.963	 H	7	LEU7	0.046	
93	 3HB	997.049	275.663	-976.552	 H	7	LEU7	0.046	
94	  HG	997.745	273.673	-975.292	 H	7	LEU7	-0.036	
95	1HD1	995.769	273.484	-976.833	 H	7	LEU7	0.100	
96	2HD1	996.826	272.934	-978.156	 H	7	LEU7	0.100	
97	3HD1	996.619	271.934	-976.699	 H	7	LEU7	0.100	
98	1HD2	999.486	272.931	-977.749	 H	7	LEU7	0.100	
99	2HD2	1000.063	273.313	-976.107	 H	7	LEU7	0.100	
100	3HD2	999.128	271.839	-976.383	 H	7	LEU7	0.100	
101	   N	998.283	278.256	-976.442	N.am	8	ASP8	-0.516	
102	  CA	998.213	279.606	-976.996	C.3	8	ASP8	0.038	
103	   C	999.559	280.285	-976.938	C.2	8	ASP8	0.537	
104	   O	1000.033	280.890	-977.912	O.2	8	ASP8	-0.582	
105	  CB	997.134	280.445	-976.255	C.3	8	ASP8	-0.030	
106	  CG	996.916	281.866	-976.796	C.2	8	ASP8	0.799	
107	 OD1	996.981	282.064	-978.026	O.co2	8	ASP8	-0.801	
108	 OD2	996.723	282.792	-975.981	O.co2	8	ASP8	-0.801	
109	   H	997.684	277.985	-975.675	 H	8	ASP8	0.294	
110	  HA	997.931	279.528	-978.063	 H	8	ASP8	0.088	
111	 2HB	997.391	280.528	-975.183	 H	8	ASP8	-0.012	
112	 3HB	996.155	279.940	-976.288	 H	8	ASP8	-0.012	
113	   N	1000.238	280.236	-975.842	N.am	9	GLU9	-0.516	
114	  CA	1001.541	280.893	-975.786	C.3	9	GLU9	0.040	
115	   C	1002.460	280.365	-976.861	C.2	9	GLU9	0.537	
116	   O	1003.125	281.119	-977.586	O.2	9	GLU9	-0.582	
117	  CB	1002.174	280.686	-974.380	C.3	9	GLU9	0.056	
118	  CG	1003.556	281.378	-974.150	C.3	9	GLU9	0.014	
119	  CD	1004.257	281.165	-972.821	C.2	9	GLU9	0.805	
120	 OE1	1003.735	280.474	-971.925	O.co2	9	GLU9	-0.819	
121	 OE2	1005.376	281.703	-972.689	O.co2	9	GLU9	-0.819	
122	   H	999.875	279.750	-975.035	 H	9	GLU9	0.294	
123	  HA	1001.399	281.975	-975.961	 H	9	GLU9	0.111	
124	 2HB	1002.286	279.601	-974.176	 H	9	GLU9	-0.017	
125	 3HB	1001.476	281.039	-973.596	 H	9	GLU9	-0.017	
126	 2HG	1003.485	282.469	-974.290	 H	9	GLU9	-0.043	
127	 3HG	1004.303	281.033	-974.883	 H	9	GLU9	-0.043	
128	   N	1002.557	279.090	-977.030	N.am	10	HIS10	-0.416	
129	  CA	1003.445	278.578	-978.070	C.3	10	HIS10	-0.058	
130	   C	1003.079	279.143	-979.421	C.2	10	HIS10	0.597	
131	   O	1003.932	279.607	-980.192	O.2	10	HIS10	-0.568	
132	  CB	1003.281	277.049	-978.065	C.3	10	HIS10	-0.007	
133	  CG	1004.566	276.339	-977.755	C.2	10	HIS10	0.187	
134	 CD2	1004.946	276.004	-976.462	C.2	10	HIS10	-0.221	
135	 ND1	1005.519	275.933	-978.687	N.2	10	HIS10	-0.543	
136	 CE1	1006.425	275.375	-977.863	C.2	10	HIS10	0.163	
137	 NE2	1006.161	275.372	-976.528	N.pl3	10	HIS10	-0.280	
138	   H	1002.025	278.455	-976.452	 H	10	HIS10	0.272	
139	  HA	1004.464	278.936	-977.844	 H	10	HIS10	0.136	
140	 2HB	1002.917	276.682	-979.045	 H	10	HIS10	0.037	
141	 3HB	1002.525	276.713	-977.325	 H	10	HIS10	0.037	
142	 2HD	1004.360	276.219	-975.574	 H	10	HIS10	0.186	
143	 1HE	1007.316	274.954	-978.309	 H	10	HIS10	0.144	
144	 2HE	1006.727	274.995	-975.754	 H	10	HIS10	0.334	
145	   N	1001.842	279.142	-979.785	N.am	11	VAL11	-0.416	
146	  CA	1001.488	279.688	-981.092	C.3	11	VAL11	-0.087	
147	   C	1001.952	281.118	-981.224	C.2	11	VAL11	0.597	
148	   O	1002.554	281.523	-982.227	O.2	11	VAL11	-0.568	
149	  CB	999.927	279.581	-981.313	C.3	11	VAL11	0.299	
150	 CG1	999.359	280.285	-982.576	C.3	11	VAL11	-0.319	
151	 CG2	999.402	278.127	-981.386	C.3	11	VAL11	-0.319	
152	   H	1001.128	278.769	-979.175	 H	11	VAL11	0.272	
153	  HA	1002.008	279.105	-981.874	 H	11	VAL11	0.097	
154	  HB	999.438	280.061	-980.438	 H	11	VAL11	-0.030	
155	1HG1	999.798	279.893	-983.513	 H	11	VAL11	0.079	
156	2HG1	998.260	280.178	-982.659	 H	11	VAL11	0.079	
157	3HG1	999.537	281.377	-982.567	 H	11	VAL11	0.079	
158	1HG2	999.691	277.540	-980.495	 H	11	VAL11	0.079	
159	2HG2	998.296	278.090	-981.429	 H	11	VAL11	0.079	
160	3HG2	999.784	277.586	-982.272	 H	11	VAL11	0.079	
161	   N	1001.715	281.944	-980.262	N.am	12	GLN12	-0.416	
162	  CA	1002.163	283.327	-980.389	C.3	12	GLN12	-0.003	
163	   C	1003.654	283.394	-980.626	C.2	12	GLN12	0.597	
164	   O	1004.142	284.102	-981.504	O.2	12	GLN12	-0.568	
165	  CB	1001.772	284.095	-979.107	C.3	12	GLN12	-0.004	
166	  CG	1002.132	285.617	-979.076	C.3	12	GLN12	-0.064	
167	  CD	1001.829	286.430	-977.812	C.2	12	GLN12	0.695	
168	 NE2	1001.261	285.854	-976.783	N.pl3	12	GLN12	-0.941	
169	 OE1	1002.131	287.611	-977.734	O.2	12	GLN12	-0.609	
170	   H	1001.225	281.638	-979.433	 H	12	GLN12	0.272	
171	  HA	1001.665	283.783	-981.265	 H	12	GLN12	0.085	
172	 2HB	1002.247	283.595	-978.237	 H	12	GLN12	0.017	
173	 3HB	1000.681	283.988	-978.945	 H	12	GLN12	0.017	
174	 2HG	1001.655	286.137	-979.927	 H	12	GLN12	0.035	
175	 3HG	1003.216	285.759	-979.241	 H	12	GLN12	0.035	
176	1HE2	1001.153	286.449	-975.960	 H	12	GLN12	0.425	
177	2HE2	1001.097	284.851	-976.886	 H	12	GLN12	0.425	
178	   N	1004.437	282.687	-979.885	N.am	13	ARG13	-0.348	
179	  CA	1005.878	282.753	-980.114	C.3	13	ARG13	-0.264	
180	   C	1006.215	282.381	-981.539	C.2	13	ARG13	0.734	
181	   O	1006.985	283.053	-982.222	O.2	13	ARG13	-0.589	
182	  CB	1006.590	281.814	-979.099	C.3	13	ARG13	-0.001	
183	  CG	1008.135	281.967	-979.017	C.3	13	ARG13	0.039	
184	  CD	1008.761	280.979	-978.019	C.3	13	ARG13	0.049	
185	  NE	1010.238	281.186	-977.967	N.pl3	13	ARG13	-0.530	
186	  CZ	1011.085	280.494	-977.211	C.cat	13	ARG13	0.808	
187	 NH1	1010.720	279.530	-976.414	N.pl3	13	ARG13	-0.863	
188	 NH2	1012.345	280.793	-977.267	N.pl3	13	ARG13	-0.863	
189	   H	1004.060	282.098	-979.156	 H	13	ARG13	0.275	
190	  HA	1006.202	283.799	-979.955	 H	13	ARG13	0.156	
191	 2HB	1006.324	280.763	-979.339	 H	13	ARG13	0.033	
192	 3HB	1006.164	281.981	-978.089	 H	13	ARG13	0.033	
193	 2HG	1008.383	283.011	-978.738	 H	13	ARG13	0.029	
194	 3HG	1008.587	281.811	-980.018	 H	13	ARG13	0.029	
195	 2HD	1008.517	279.939	-978.328	 H	13	ARG13	0.069	
196	 3HD	1008.304	281.125	-977.017	 H	13	ARG13	0.069	
197	  HE	1010.690	281.908	-978.537	 H	13	ARG13	0.346	
198	1HH1	1009.714	279.344	-976.418	 H	13	ARG13	0.448	
199	2HH1	1011.432	279.047	-975.865	 H	13	ARG13	0.448	
200	1HH2	1012.613	281.551	-977.898	 H	13	ARG13	0.448	
201	2HH2	1012.980	280.252	-976.677	 H	13	ARG13	0.448	
202	   N	1005.679	281.327	-982.054	N.am	14	VAL14	-0.416	
203	  CA	1006.005	280.968	-983.431	C.3	14	VAL14	-0.087	
204	   C	1005.676	282.098	-984.377	C.2	14	VAL14	0.597	
205	   O	1006.471	282.479	-985.245	O.2	14	VAL14	-0.568	
206	  CB	1005.233	279.651	-983.838	C.3	14	VAL14	0.299	
207	 CG1	1005.324	279.232	-985.332	C.3	14	VAL14	-0.319	
208	 CG2	1005.664	278.398	-983.038	C.3	14	VAL14	-0.319	
209	   H	1005.044	280.758	-981.512	 H	14	VAL14	0.272	
210	  HA	1007.094	280.791	-983.505	 H	14	VAL14	0.097	
211	  HB	1004.157	279.822	-983.623	 H	14	VAL14	-0.030	
212	1HG1	1006.365	279.055	-985.660	 H	14	VAL14	0.079	
213	2HG1	1004.751	278.309	-985.545	 H	14	VAL14	0.079	
214	3HG1	1004.895	279.995	-986.010	 H	14	VAL14	0.079	
215	1HG2	1005.576	278.557	-981.947	 H	14	VAL14	0.079	
216	2HG2	1005.028	277.522	-983.271	 H	14	VAL14	0.079	
217	3HG2	1006.712	278.108	-983.242	 H	14	VAL14	0.079	
218	   N	1004.532	282.684	-984.276	N.am	15	MET15	-0.416	
219	  CA	1004.212	283.777	-985.190	C.3	15	MET15	-0.024	
220	   C	1005.243	284.876	-985.101	C.2	15	MET15	0.597	
221	   O	1005.746	285.387	-986.113	O.2	15	MET15	-0.568	
222	  CB	1002.791	284.322	-984.882	C.3	15	MET15	0.034	
223	  CG	1001.629	283.324	-985.075	C.3	15	MET15	0.002	
224	  SD	1000.055	284.191	-984.962	S.3	15	MET15	-0.274	
225	  CE	998.973	282.761	-984.826	C.3	15	MET15	-0.054	
226	   H	1003.866	282.391	-983.575	 H	15	MET15	0.272	
227	  HA	1004.239	283.389	-986.225	 H	15	MET15	0.088	
228	 2HB	1002.589	285.201	-985.524	 H	15	MET15	0.024	
229	 3HB	1002.754	284.715	-983.845	 H	15	MET15	0.024	
230	 2HG	1001.671	282.539	-984.297	 H	15	MET15	0.044	
231	 3HG	1001.692	282.809	-986.051	 H	15	MET15	0.044	
232	 1HE	999.118	282.073	-985.678	 H	15	MET15	0.068	
233	 2HE	999.182	282.208	-983.893	 H	15	MET15	0.068	
234	 3HE	997.916	283.076	-984.810	 H	15	MET15	0.068	
235	   N	1005.610	285.297	-983.938	N.am	16	ARG16	-0.348	
236	  CA	1006.607	286.361	-983.854	C.3	16	ARG16	-0.264	
237	   C	1007.878	285.968	-984.569	C.2	16	ARG16	0.734	
238	   O	1007.992	284.892	-985.150	O.2	16	ARG16	-0.589	
239	  CB	1006.875	286.679	-982.355	C.3	16	ARG16	-0.001	
240	  CG	1007.700	287.968	-982.082	C.3	16	ARG16	0.039	
241	  CD	1007.948	288.187	-980.580	C.3	16	ARG16	0.049	
242	  NE	1008.724	289.446	-980.378	N.pl3	16	ARG16	-0.530	
243	  CZ	1009.115	289.928	-979.203	C.cat	16	ARG16	0.808	
244	 NH1	1008.866	289.344	-978.064	N.pl3	16	ARG16	-0.863	
245	 NH2	1009.779	291.041	-979.183	N.pl3	16	ARG16	-0.863	
246	   H	1005.215	284.897	-983.099	 H	16	ARG16	0.275	
247	  HA	1006.198	287.254	-984.364	 H	16	ARG16	0.156	
248	 2HB	1007.371	285.803	-981.888	 H	16	ARG16	0.033	
249	 3HB	1005.906	286.760	-981.822	 H	16	ARG16	0.033	
250	 2HG	1007.170	288.839	-982.519	 H	16	ARG16	0.029	
251	 3HG	1008.674	287.915	-982.610	 H	16	ARG16	0.029	
252	 2HD	1008.497	287.312	-980.166	 H	16	ARG16	0.069	
253	 3HD	1006.975	288.230	-980.046	 H	16	ARG16	0.069	
254	  HE	1009.004	290.027	-981.175	 H	16	ARG16	0.346	
255	1HH1	1008.340	288.471	-978.149	 H	16	ARG16	0.448	
256	2HH1	1009.200	289.779	-977.203	 H	16	ARG16	0.448	
257	1HH2	1009.965	291.484	-980.085	 H	16	ARG16	0.448	
258	2HH2	1010.069	291.396	-978.271	 H	16	ARG16	0.448	
@<TRIPOS>BOND
1 1 2 1
2 1 10 1
3 2 3 1
4 2 5 1
5 2 11 1
6 3 4 2
7 3 16 1
8 5 6 1
9 6 7 1
10 7 8 2
11 7 9 1
12 5 12 1
13 5 13 1
14 6 14 1
15 6 15 1
16 16 17 1
17 16 24 1
18 17 18 1
19 17 20 1
20 17 25 1
21 18 19 2
22 18 30 1
23 20 21 1
24 21 22 1
25 21 23 2
26 20 26 1
27 20 27 1
28 22 28 1
29 22 29 1
30 30 31 1
31 30 36 1
32 31 32 1
33 31 34 1
34 31 37 1
35 32 33 2
36 32 44 1
37 34 35 1
38 35 36 1
39 34 38 1
40 34 39 1
41 35 40 1
42 35 41 1
43 36 42 1
44 36 43 1
45 44 45 1
46 44 53 1
47 45 46 1
48 45 48 1
49 45 54 1
50 46 47 2
51 46 59 1
52 48 49 1
53 49 50 1
54 50 51 2
55 50 52 1
56 48 55 1
57 48 56 1
58 49 57 1
59 49 58 1
60 59 60 1
61 59 65 1
62 60 61 1
63 60 63 1
64 60 66 1
65 61 62 2
66 61 70 1
67 63 64 1
68 63 67 1
69 63 68 1
70 64 69 1
71 70 71 1
72 70 78 1
73 71 72 1
74 71 74 1
75 71 79 1
76 72 73 2
77 72 82 1
78 74 75 1
79 75 76 2
80 75 77 1
81 74 80 1
82 74 81 1
83 82 83 1
84 82 90 1
85 83 84 1
86 83 86 1
87 83 91 1
88 84 85 2
89 84 101 1
90 86 87 1
91 87 88 1
92 87 89 1
93 86 92 1
94 86 93 1
95 87 94 1
96 88 95 1
97 88 96 1
98 88 97 1
99 89 98 1
100 89 99 1
101 89 100 1
102 101 102 1
103 101 109 1
104 102 103 1
105 102 105 1
106 102 110 1
107 103 104 2
108 103 113 1
109 105 106 1
110 106 107 2
111 106 108 1
112 105 111 1
113 105 112 1
114 113 114 1
115 113 122 1
116 114 115 1
117 114 117 1
118 114 123 1
119 115 116 2
120 115 128 1
121 117 118 1
122 118 119 1
123 119 120 2
124 119 121 1
125 117 124 1
126 117 125 1
127 118 126 1
128 118 127 1
129 128 129 1
130 128 138 1
131 129 130 1
132 129 132 1
133 129 139 1
134 130 131 2
135 130 145 1
136 132 133 1
137 133 134 2
138 134 137 1
139 133 135 1
140 135 136 2
141 136 137 1
142 132 140 1
143 132 141 1
144 134 142 1
145 136 143 1
146 137 144 1
147 145 146 1
148 145 152 1
149 146 147 1
150 146 149 1
151 146 153 1
152 147 148 2
153 147 161 1
154 149 150 1
155 149 151 1
156 149 154 1
157 150 155 1
158 150 156 1
159 150 157 1
160 151 158 1
161 151 159 1
162 151 160 1
163 161 162 1
164 161 170 1
165 162 163 1
166 162 165 1
167 162 171 1
168 163 164 2
169 163 178 1
170 165 166 1
171 166 167 1
172 167 168 1
173 167 169 2
174 165 172 1
175 165 173 1
176 166 174 1
177 166 175 1
178 168 176 1
179 168 177 1
180 178 179 1
181 178 189 1
182 179 180 1
183 179 182 1
184 179 190 1
185 180 181 2
186 180 202 1
187 182 183 1
188 183 184 1
189 184 185 1
190 185 186 1
191 186 187 2
192 186 188 1
193 182 191 1
194 182 192 1
195 183 193 1
196 183 194 1
197 184 195 1
198 184 196 1
199 185 197 1
200 187 198 1
201 187 199 1
202 188 200 1
203 188 201 1
204 202 203 1
205 202 209 1
206 203 204 1
207 203 206 1
208 203 210 1
209 204 205 2
210 204 218 1
211 206 207 1
212 206 208 1
213 206 211 1
214 207 212 1
215 207 213 1
216 207 214 1
217 208 215 1
218 208 216 1
219 208 217 1
220 218 219 1
221 218 226 1
222 219 220 1
223 219 222 1
224 219 227 1
225 220 221 2
226 220 235 1
227 222 223 1
228 223 224 1
229 224 225 1
230 222 228 1
231 222 229 1
232 223 230 1
233 223 231 1
234 225 232 1
235 225 233 1
236 225 234 1
237 235 236 1
238 235 246 1
239 236 237 1
240 236 239 1
241 236 247 1
242 237 238 2
243 239 240 1
244 240 241 1
245 241 242 1
246 242 243 1
247 243 244 2
248 243 245 1
249 239 248 1
250 239 249 1
251 240 250 1
252 240 251 1
253 241 252 1
254 241 253 1
255 242 254 1
256 244 255 1
257 244 256 1
258 245 257 1
259 245 258 1
@<TRIPOS>SUBSTRUCTURE
1	GLU1	1	RESIDUE	1 ****	GLU
2	ASN2	16	RESIDUE	1 ****	ASN
3	PRO3	30	RESIDUE	1 ****	PRO
4	GLU4	44	RESIDUE	1 ****	GLU
5	SER5	59	RESIDUE	1 ****	SER
6	ASP6	70	RESIDUE	1 ****	ASP
7	LEU7	82	RESIDUE	1 ****	LEU
8	ASP8	101	RESIDUE	1 ****	ASP
9	GLU9	113	RESIDUE	1 ****	GLU
10	HIS10	128	RESIDUE	1 ****	HIS
11	VAL11	145	RESIDUE	1 ****	VAL
12	GLN12	161	RESIDUE	1 ****	GLN
13	ARG13	178	RESIDUE	1 ****	ARG
14	VAL14	202	RESIDUE	1 ****	VAL
15	MET15	218	RESIDUE	1 ****	MET
16	ARG16	235	RESIDUE	1 ****	ARG
