REMARK WARNING: 32 MAX_TORS EXCEEDED!!!
REMARK  67 active torsions:
REMARK  status: ('A' for Active; 'I' for Inactive)
REMARK    1  A    between atoms: N_1  and  CA_2 
REMARK    2  A    between atoms: CA_2  and  C_3 
REMARK    3  A    between atoms: CA_2  and  CB_5 
REMARK       I    between atoms: C_3  and  N_11 
REMARK    4  A    between atoms: CB_5  and  CG_6 
REMARK    5  A    between atoms: CG_6  and  CD_7 
REMARK    6  A    between atoms: N_11  and  CA_12 
REMARK    7  A    between atoms: CA_12  and  C_13 
REMARK    8  A    between atoms: CA_12  and  CB_15 
REMARK       I    between atoms: C_13  and  N_22 
REMARK    9  A    between atoms: CB_15  and  CG_16 
REMARK       I    between atoms: CG_16  and  ND2_17 
REMARK   10  A    between atoms: CA_23  and  C_24 
REMARK       I    between atoms: C_24  and  N_29 
REMARK   11  A    between atoms: N_29  and  CA_30 
REMARK   12  A    between atoms: CA_30  and  C_31 
REMARK   13  A    between atoms: CA_30  and  CB_33 
REMARK       I    between atoms: C_31  and  N_39 
REMARK   14  A    between atoms: CB_33  and  CG_34 
REMARK   15  A    between atoms: CG_34  and  CD_35 
REMARK   16  A    between atoms: N_39  and  CA_40 
REMARK   17  A    between atoms: CA_40  and  C_41 
REMARK   18  A    between atoms: CA_40  and  CB_43 
REMARK       I    between atoms: C_41  and  N_47 
REMARK   19  A    between atoms: CB_43  and  OG_44 
REMARK   20  A    between atoms: N_47  and  CA_48 
REMARK   21  A    between atoms: CA_48  and  C_49 
REMARK   22  A    between atoms: CA_48  and  CB_51 
REMARK       I    between atoms: C_49  and  N_56 
REMARK   23  A    between atoms: CB_51  and  CG1_52 
REMARK   24  A    between atoms: N_56  and  CA_57 
REMARK   25  A    between atoms: CA_57  and  C_58 
REMARK   26  A    between atoms: CA_57  and  CB_60 
REMARK       I    between atoms: C_58  and  N_65 
REMARK   27  A    between atoms: CB_60  and  CG_61 
REMARK   28  A    between atoms: N_65  and  CA_66 
REMARK   29  A    between atoms: CA_66  and  C_67 
REMARK   30  A    between atoms: CA_66  and  CB_69 
REMARK       I    between atoms: C_67  and  N_74 
REMARK   31  A    between atoms: CB_69  and  CG_70 
REMARK   32  A    between atoms: N_74  and  CA_75 
REMARK   33  A    between atoms: CA_75  and  C_76 
REMARK   34  A    between atoms: CA_75  and  CB_78 
REMARK       I    between atoms: C_76  and  N_84 
REMARK   35  A    between atoms: CB_78  and  CG_79 
REMARK   36  A    between atoms: CG_79  and  CD_80 
REMARK   37  A    between atoms: N_84  and  CA_85 
REMARK   38  A    between atoms: CA_85  and  C_86 
REMARK   39  A    between atoms: CA_85  and  CB_88 
REMARK       I    between atoms: C_86  and  N_96 
REMARK   40  A    between atoms: CB_88  and  CG_89 
REMARK   41  A    between atoms: N_96  and  CA_97 
REMARK   42  A    between atoms: CA_97  and  C_98 
REMARK   43  A    between atoms: CA_97  and  CB_100 
REMARK       I    between atoms: C_98  and  N_104 
REMARK   44  A    between atoms: N_104  and  CA_105 
REMARK   45  A    between atoms: CA_105  and  C_106 
REMARK   46  A    between atoms: CA_105  and  CB_108 
REMARK       I    between atoms: C_106  and  N_112 
REMARK   47  A    between atoms: CB_108  and  SG_109 
REMARK   48  A    between atoms: N_112  and  CA_113 
REMARK   49  A    between atoms: CA_113  and  C_114 
REMARK   50  A    between atoms: CA_113  and  CB_116 
REMARK       I    between atoms: C_114  and  N_129 
REMARK   51  A    between atoms: CB_116  and  CG_117 
REMARK   52  A    between atoms: CG_117  and  CD_118 
REMARK   53  A    between atoms: CD_118  and  NE_119 
REMARK       I    between atoms: NE_119  and  CZ_120 
REMARK       I    between atoms: CZ_120  and  NH1_121 
REMARK       I    between atoms: CZ_120  and  NH2_122 
REMARK   54  A    between atoms: N_129  and  CA_130 
REMARK   55  A    between atoms: CA_130  and  C_131 
REMARK   56  A    between atoms: CA_130  and  CB_133 
REMARK       I    between atoms: C_131  and  N_137 
REMARK   57  A    between atoms: N_137  and  CA_138 
REMARK   58  A    between atoms: CA_138  and  C_139 
REMARK   59  A    between atoms: CA_138  and  CB_141 
REMARK       I    between atoms: C_139  and  N_146 
REMARK   60  A    between atoms: CB_141  and  CG_142 
REMARK   61  A    between atoms: CG_142  and  SD_143 
REMARK   62  A    between atoms: N_146  and  CA_147 
REMARK   63  A    between atoms: CA_147  and  C_148 
REMARK   64  A    between atoms: CA_147  and  CB_150 
REMARK   65  A    between atoms: CB_150  and  CG_151 
REMARK   66  A    between atoms: CG_151  and  CD_152 
REMARK   67  A    between atoms: CD_152  and  NE_153 
REMARK       I    between atoms: NE_153  and  CZ_154 
REMARK       I    between atoms: CZ_154  and  NH1_155 
ROOT
ATOM      1  CA  GLU d   9    1944.875 590.649-1998.729  0.00  0.00     0.177 C 
ENDROOT
BRANCH   1   2
ATOM      2  N   GLU d   9    1943.573 589.991-1998.784  0.00  0.00    -0.346 N 
ATOM      3  C   ASP d   8    1942.893 590.041-1999.879  0.00  0.00     0.241 C 
ATOM      4  O   ASP d   8    1943.365 590.647-2000.854  0.00  0.00    -0.271 OA
ATOM      5  H   GLU d   9    1943.210 589.505-1997.977  0.00  0.00     0.163 HD
BRANCH   3   6
ATOM      6  CA  ASP d   8    1941.546 589.361-1999.937  0.00  0.00     0.186 C 
BRANCH   6   7
ATOM      7  N   ASP d   8    1941.617 588.011-1999.384  0.00  0.00    -0.346 N 
ATOM      8  C   LEU d   7    1942.454 587.171-1999.890  0.00  0.00     0.241 C 
ATOM      9  O   LEU d   7    1943.175 587.534-2000.832  0.00  0.00    -0.271 OA
ATOM     10  H   ASP d   8    1941.019 587.740-1998.616  0.00  0.00     0.163 HD
BRANCH   8  11
ATOM     11  CA  LEU d   7    1942.527 585.776-1999.318  0.00  0.00     0.177 C 
BRANCH  11  12
ATOM     12  N   LEU d   7    1942.582 585.812-1997.859  0.00  0.00    -0.346 N 
ATOM     13  C   ILE d   6    1943.528 586.475-1997.285  0.00  0.00     0.241 C 
ATOM     14  O   ILE d   6    1944.362 587.063-1997.989  0.00  0.00    -0.271 OA
ATOM     15  H   LEU d   7    1941.890 585.325-1997.308  0.00  0.00     0.163 HD
BRANCH  13  16
ATOM     16  CA  ILE d   6    1943.585 586.513-1995.777  0.00  0.00     0.180 C 
BRANCH  16  17
ATOM     17  N   ILE d   6    1942.272 586.808-1995.211  0.00  0.00    -0.346 N 
ATOM     18  C   SER d   5    1941.667 587.891-1995.565  0.00  0.00     0.243 C 
ATOM     19  O   SER d   5    1942.214 588.644-1996.370  0.00  0.00    -0.271 OA
ATOM     20  H   ILE d   6    1941.844 586.173-1994.552  0.00  0.00     0.163 HD
BRANCH  18  21
ATOM     21  CA  SER d   5    1940.308 588.196-1994.980  0.00  0.00     0.200 C 
BRANCH  21  22
ATOM     22  N   SER d   5    1939.439 587.025-1995.038  0.00  0.00    -0.344 N 
ATOM     23  C   GLU d   4    1939.211 586.472-1996.181  0.00  0.00     0.241 C 
ATOM     24  O   GLU d   4    1939.738 586.952-1997.196  0.00  0.00    -0.271 OA
ATOM     25  H   SER d   5    1939.022 586.653-1994.197  0.00  0.00     0.163 HD
BRANCH  23  26
ATOM     26  CA  GLU d   4    1938.312 585.261-1996.243  0.00  0.00     0.177 C 
BRANCH  26  27
ATOM     27  N   GLU d   4    1938.672 584.290-1995.213  0.00  0.00    -0.346 N 
ATOM     28  C   PRO d   3    1939.877 583.830-1995.181  0.00  0.00     0.241 C 
ATOM     29  O   PRO d   3    1940.700 584.213-1996.012  0.00  0.00    -0.271 OA
ATOM     30  H   GLU d   4    1937.988 583.983-1994.536  0.00  0.00     0.163 HD
BRANCH  28  31
ATOM     31  CA  PRO d   3    1940.275 582.807-1994.104  0.00  0.00     0.179 C 
ATOM     32  N   PRO d   3    1939.823 583.216-1992.782  0.00  0.00    -0.337 N 
ATOM     33  C   ASN d   2    1940.344 584.211-1992.148  0.00  0.00     0.243 C 
ATOM     34  CD  PRO d   3    1938.745 582.423-1992.233  0.00  0.00     0.127 C 
ATOM     35  O   ASN d   2    1941.259 584.841-1992.677  0.00  0.00    -0.271 OA
ATOM     36  CG  PRO d   3    1938.287 581.604-1993.443  0.00  0.00     0.022 C 
ATOM     37  CB  PRO d   3    1939.571 581.452-1994.273  0.00  0.00     0.037 C 
BRANCH  33  38
ATOM     38  CA  ASN d   2    1939.813 584.567-1990.780  0.00  0.00     0.185 C 
BRANCH  38  39
ATOM     39  N   ASN d   2    1938.354 584.605-1990.780  0.00  0.00    -0.346 N 
ATOM     40  C   GLU d   1    1937.749 585.391-1991.605  0.00  0.00     0.242 C 
ATOM     41  O   GLU d   1    1938.425 586.090-1992.373  0.00  0.00    -0.271 OA
ATOM     42  H   ASN d   2    1937.826 584.026-1990.143  0.00  0.00     0.163 HD
BRANCH  40  43
ATOM     43  CA  GLU d   1    1936.240 585.431-1991.605  0.00  0.00     0.191 C 
BRANCH  43  44
ATOM     44  N   GLU d   1    1935.681 584.082-1991.605  0.00  0.00    -0.326 NA
ATOM     45  H   GLU d   1    1936.308 583.203-1991.605  0.00  0.00     0.180 HD
ENDBRANCH  43  44
BRANCH  43  46
ATOM     46  CB  GLU d   1    1935.717 586.216-1990.368  0.00  0.00     0.047 C 
BRANCH  46  47
ATOM     47  CG  GLU d   1    1936.192 587.701-1990.257  0.00  0.00     0.116 C 
BRANCH  47  48
ATOM     48  CD  GLU d   1    1935.768 588.505-1989.042  0.00  0.00     0.172 C 
ATOM     49  OE1 GLU d   1    1935.040 588.003-1988.164  0.00  0.00    -0.648 OA
ATOM     50  OE2 GLU d   1    1936.198 589.675-1988.970  0.00  0.00    -0.648 OA
ENDBRANCH  47  48
ENDBRANCH  46  47
ENDBRANCH  43  46
ENDBRANCH  40  43
ENDBRANCH  38  39
BRANCH  38  51
ATOM     51  CB  ASN d   2    1940.305 583.544-1989.715  0.00  0.00     0.137 C 
BRANCH  51  52
ATOM     52  CG  ASN d   2    1939.842 583.768-1988.272  0.00  0.00     0.217 C 
ATOM     53  ND2 ASN d   2    1940.436 584.682-1987.554  0.00  0.00    -0.370 N 
ATOM     54 21HD ASN d   2    1939.956 584.855-1986.667  0.00  0.00     0.159 HD
ATOM     55 22HD ASN d   2    1941.138 585.254-1988.023  0.00  0.00     0.159 HD
ATOM     56  OD1 ASN d   2    1938.921 583.134-1987.778  0.00  0.00    -0.274 OA
ENDBRANCH  51  52
ENDBRANCH  38  51
ENDBRANCH  33  38
ENDBRANCH  28  31
ENDBRANCH  26  27
BRANCH  26  57
ATOM     57  CB  GLU d   4    1936.824 585.680-1996.072  0.00  0.00     0.045 C 
BRANCH  57  58
ATOM     58  CG  GLU d   4    1936.276 586.684-1997.138  0.00  0.00     0.116 C 
BRANCH  58  59
ATOM     59  CD  GLU d   4    1934.849 587.181-1996.994  0.00  0.00     0.172 C 
ATOM     60  OE1 GLU d   4    1934.123 586.782-1996.063  0.00  0.00    -0.648 OA
ATOM     61  OE2 GLU d   4    1934.459 588.010-1997.843  0.00  0.00    -0.648 OA
ENDBRANCH  58  59
ENDBRANCH  57  58
ENDBRANCH  26  57
ENDBRANCH  23  26
ENDBRANCH  21  22
BRANCH  21  62
ATOM     62  CB  SER d   5    1940.420 588.729-1993.529  0.00  0.00     0.199 C 
BRANCH  62  63
ATOM     63  OG  SER d   5    1941.151 587.849-1992.668  0.00  0.00    -0.398 OA
ATOM     64  HG  SER d   5    1940.663 587.024-1992.618  0.00  0.00     0.209 HD
ENDBRANCH  62  63
ENDBRANCH  21  62
ENDBRANCH  18  21
ENDBRANCH  16  17
BRANCH  16  65
ATOM     65  CB  ILE d   6    1944.185 585.177-1995.177  0.00  0.00     0.013 C 
ATOM     66  CG2 ILE d   6    1945.626 584.875-1995.693  0.00  0.00     0.012 C 
BRANCH  65  67
ATOM     67  CG1 ILE d   6    1944.204 585.115-1993.616  0.00  0.00     0.002 C 
ATOM     68  CD1 ILE d   6    1944.474 583.726-1993.001  0.00  0.00     0.005 C 
ENDBRANCH  65  67
ENDBRANCH  16  65
ENDBRANCH  13  16
ENDBRANCH  11  12
BRANCH  11  69
ATOM     69  CB  LEU d   7    1941.324 584.915-1999.798  0.00  0.00     0.038 C 
BRANCH  69  70
ATOM     70  CG  LEU d   7    1941.252 583.436-1999.331  0.00  0.00    -0.020 C 
ATOM     71  CD1 LEU d   7    1940.062 582.730-1999.997  0.00  0.00     0.009 C 
ATOM     72  CD2 LEU d   7    1942.545 582.657-1999.623  0.00  0.00     0.009 C 
ENDBRANCH  69  70
ENDBRANCH  11  69
ENDBRANCH   8  11
ENDBRANCH   6   7
BRANCH   6  73
ATOM     73  CB  ASP d   8    1940.468 590.200-1999.195  0.00  0.00     0.147 C 
BRANCH  73  74
ATOM     74  CG  ASP d   8    1940.249 591.620-1999.735  0.00  0.00     0.175 C 
ATOM     75  OD1 ASP d   8    1940.313 591.820-2000.966  0.00  0.00    -0.648 OA
ATOM     76  OD2 ASP d   8    1940.057 592.546-1998.920  0.00  0.00    -0.648 OA
ENDBRANCH  73  74
ENDBRANCH   6  73
ENDBRANCH   3   6
ENDBRANCH   1   2
BRANCH   1  77
ATOM     77  C   GLU d   9    1945.793 590.122-1999.805  0.00  0.00     0.241 C 
ATOM     78  O   GLU d   9    1946.457 590.877-2000.530  0.00  0.00    -0.271 OA
ATOM     79  N   HIS d  10    1945.891 588.847-1999.975  0.00  0.00    -0.346 N 
ATOM     80  H   HIS d  10    1945.360 588.211-1999.396  0.00  0.00     0.163 HD
BRANCH  79  81
ATOM     81  CA  HIS d  10    1946.779 588.336-2001.016  0.00  0.00     0.182 C 
BRANCH  81  82
ATOM     82  C   HIS d  10    1946.411 588.901-2002.366  0.00  0.00     0.241 C 
ATOM     83  O   HIS d  10    1947.263 589.367-2003.138  0.00  0.00    -0.271 OA
ATOM     84  N   VAL d  11    1945.173 588.900-2002.729  0.00  0.00    -0.346 N 
ATOM     85  H   VAL d  11    1944.461 588.526-2002.118  0.00  0.00     0.163 HD
BRANCH  84  86
ATOM     86  CA  VAL d  11    1944.818 589.446-2004.036  0.00  0.00     0.180 C 
BRANCH  86  87
ATOM     87  C   VAL d  11    1945.281 590.877-2004.168  0.00  0.00     0.241 C 
ATOM     88  O   VAL d  11    1945.881 591.282-2005.171  0.00  0.00    -0.271 OA
ATOM     89  N   CYS d  12    1945.044 591.702-2003.205  0.00  0.00    -0.345 N 
ATOM     90  H   CYS d  12    1944.555 591.395-2002.376  0.00  0.00     0.163 HD
BRANCH  89  91
ATOM     91  CA  CYS d  12    1945.491 593.086-2003.332  0.00  0.00     0.185 C 
BRANCH  91  92
ATOM     92  C   CYS d  12    1946.981 593.153-2003.570  0.00  0.00     0.241 C 
ATOM     93  O   CYS d  12    1947.474 593.867-2004.456  0.00  0.00    -0.271 OA
ATOM     94  N   ARG d  13    1947.766 592.446-2002.830  0.00  0.00    -0.346 N 
ATOM     95  H   ARG d  13    1947.389 591.856-2002.101  0.00  0.00     0.163 HD
BRANCH  94  96
ATOM     96  CA  ARG d  13    1949.206 592.511-2003.060  0.00  0.00     0.176 C 
BRANCH  96  97
ATOM     97  C   ARG d  13    1949.542 592.140-2004.485  0.00  0.00     0.241 C 
ATOM     98  O   ARG d  13    1950.311 592.811-2005.169  0.00  0.00    -0.271 OA
ATOM     99  N   VAL d  14    1949.005 591.086-2005.000  0.00  0.00    -0.346 N 
ATOM    100  H   VAL d  14    1948.370 590.517-2004.458  0.00  0.00     0.163 HD
BRANCH  99 101
ATOM    101  CA  VAL d  14    1949.330 590.727-2006.378  0.00  0.00     0.180 C 
BRANCH 101 102
ATOM    102  C   VAL d  14    1949.000 591.857-2007.323  0.00  0.00     0.241 C 
ATOM    103  O   VAL d  14    1949.794 592.239-2008.192  0.00  0.00    -0.271 OA
ATOM    104  N   MET d  15    1947.856 592.444-2007.221  0.00  0.00    -0.346 N 
ATOM    105  H   MET d  15    1947.191 592.151-2006.520  0.00  0.00     0.163 HD
BRANCH 104 106
ATOM    106  CA  MET d  15    1947.536 593.537-2008.134  0.00  0.00     0.177 C 
BRANCH 106 107
ATOM    107  C   MET d  15    1948.567 594.636-2008.046  0.00  0.00     0.241 C 
ATOM    108  O   MET d  15    1949.070 595.147-2009.058  0.00  0.00    -0.271 OA
ATOM    109  N   ARG d  16    1948.936 595.057-2006.883  0.00  0.00    -0.347 N 
ATOM    110  H   ARG d  16    1948.541 594.656-2006.044  0.00  0.00     0.163 HD
BRANCH 109 111
ATOM    111  CA  ARG d  16    1949.933 596.120-2006.799  0.00  0.00     0.162 C 
BRANCH 111 112
ATOM    112  C   ARG d  16    1951.203 595.727-2007.516  0.00  0.00     0.219 C 
ATOM    113  O   ARG d  16    1951.316 594.651-2008.098  0.00  0.00    -0.287 OA
ENDBRANCH 111 112
BRANCH 111 114
ATOM    114  CB  ARG d  16    1950.202 596.437-2005.301  0.00  0.00     0.035 C 
BRANCH 114 115
ATOM    115  CG  ARG d  16    1951.027 597.725-2005.027  0.00  0.00     0.023 C 
BRANCH 115 116
ATOM    116  CD  ARG d  16    1951.277 597.944-2003.526  0.00  0.00     0.138 C 
BRANCH 116 117
ATOM    117  NE  ARG d  16    1952.054 599.202-2003.324  0.00  0.00    -0.227 N 
ATOM    118  CZ  ARG d  16    1952.446 599.684-2002.148  0.00  0.00     0.665 C 
ATOM    119  NH1 ARG d  16    1952.198 599.099-2001.010  0.00  0.00    -0.235 N 
ATOM    120  NH2 ARG d  16    1953.110 600.796-2002.129  0.00  0.00    -0.235 N 
ATOM    121 11HH ARG d  16    1951.672 598.226-2001.095  0.00  0.00     0.174 HD
ATOM    122 12HH ARG d  16    1952.532 599.534-2000.149  0.00  0.00     0.174 HD
ATOM    123 21HH ARG d  16    1953.295 601.240-2003.031  0.00  0.00     0.174 HD
ATOM    124 22HH ARG d  16    1953.400 601.151-2001.217  0.00  0.00     0.174 HD
ATOM    125  HE  ARG d  16    1952.333 599.784-2004.121  0.00  0.00     0.177 HD
ENDBRANCH 116 117
ENDBRANCH 115 116
ENDBRANCH 114 115
ENDBRANCH 111 114
ENDBRANCH 109 111
ENDBRANCH 106 107
BRANCH 106 126
ATOM    126  CB  MET d  15    1946.115 594.083-2007.825  0.00  0.00     0.045 C 
BRANCH 126 127
ATOM    127  CG  MET d  15    1944.952 593.086-2008.017  0.00  0.00     0.076 C 
BRANCH 127 128
ATOM    128  SD  MET d  15    1943.379 593.952-2007.903  0.00  0.00    -0.173 SA
ATOM    129  CE  MET d  15    1942.297 592.523-2007.767  0.00  0.00     0.089 C 
ENDBRANCH 127 128
ENDBRANCH 126 127
ENDBRANCH 106 126
ENDBRANCH 104 106
ENDBRANCH 101 102
BRANCH 101 130
ATOM    130  CB  VAL d  14    1948.557 589.410-2006.785  0.00  0.00     0.009 C 
ATOM    131  CG1 VAL d  14    1948.646 588.992-2008.279  0.00  0.00     0.012 C 
ATOM    132  CG2 VAL d  14    1948.988 588.157-2005.985  0.00  0.00     0.012 C 
ENDBRANCH 101 130
ENDBRANCH  99 101
ENDBRANCH  96  97
BRANCH  96 133
ATOM    133  CB  ARG d  13    1949.919 591.571-2002.047  0.00  0.00     0.036 C 
BRANCH 133 134
ATOM    134  CG  ARG d  13    1951.464 591.724-2001.965  0.00  0.00     0.023 C 
BRANCH 134 135
ATOM    135  CD  ARG d  13    1952.090 590.736-2000.968  0.00  0.00     0.138 C 
BRANCH 135 136
ATOM    136  NE  ARG d  13    1953.568 590.942-2000.917  0.00  0.00    -0.227 N 
ATOM    137  CZ  ARG d  13    1954.415 590.250-2000.162  0.00  0.00     0.665 C 
ATOM    138  NH1 ARG d  13    1954.049 589.285-1999.365  0.00  0.00    -0.235 N 
ATOM    139  NH2 ARG d  13    1955.675 590.548-2000.219  0.00  0.00    -0.235 N 
ATOM    140 11HH ARG d  13    1953.044 589.100-1999.368  0.00  0.00     0.174 HD
ATOM    141 12HH ARG d  13    1954.762 588.802-1998.816  0.00  0.00     0.174 HD
ATOM    142 21HH ARG d  13    1955.943 591.306-2000.849  0.00  0.00     0.174 HD
ATOM    143 22HH ARG d  13    1956.310 590.006-1999.630  0.00  0.00     0.174 HD
ATOM    144  HE  ARG d  13    1954.019 591.664-2001.488  0.00  0.00     0.177 HD
ENDBRANCH 135 136
ENDBRANCH 134 135
ENDBRANCH 133 134
ENDBRANCH  96 133
ENDBRANCH  94  96
ENDBRANCH  91  92
BRANCH  91 145
ATOM    145  CB  CYS d  12    1945.061 593.858-2002.069  0.00  0.00     0.105 C 
BRANCH 145 146
ATOM    146  SG  CYS d  12    1945.426 595.619-2002.241  0.00  0.00    -0.180 SA
ATOM    147  HG  CYS d  12    1946.481 595.644-2001.430  0.00  0.00     0.101 HD
ENDBRANCH 145 146
ENDBRANCH  91 145
ENDBRANCH  89  91
ENDBRANCH  86  87
BRANCH  86 148
ATOM    148  CB  VAL d  11    1943.256 589.338-2004.255  0.00  0.00     0.009 C 
ATOM    149  CG1 VAL d  11    1942.687 590.042-2005.517  0.00  0.00     0.012 C 
ATOM    150  CG2 VAL d  11    1942.733 587.884-2004.328  0.00  0.00     0.012 C 
ENDBRANCH  86 148
ENDBRANCH  84  86
ENDBRANCH  81  82
BRANCH  81 151
ATOM    151  CB  HIS d  10    1946.615 586.807-2001.011  0.00  0.00     0.095 C 
BRANCH 151 152
ATOM    152  CG  HIS d  10    1947.901 586.098-2000.703  0.00  0.00     0.053 A 
ATOM    153  CD2 HIS d  10    1948.283 585.762-1999.411  0.00  0.00     0.116 A 
ATOM    154  NE2 HIS d  10    1949.498 585.131-1999.478  0.00  0.00    -0.359 N 
ATOM    155  CE1 HIS d  10    1949.760 585.135-2000.813  0.00  0.00     0.207 A 
ATOM    156  2HE HIS d  10    1950.065 584.754-1998.705  0.00  0.00     0.166 HD
ATOM    157  ND1 HIS d  10    1948.853 585.693-2001.636  0.00  0.00    -0.247 NA
ENDBRANCH 151 152
ENDBRANCH  81 151
ENDBRANCH  79  81
ENDBRANCH   1  77
BRANCH   1 158
ATOM    158  CB  GLU d   9    1945.509 590.442-1997.323  0.00  0.00     0.045 C 
BRANCH 158 159
ATOM    159  CG  GLU d   9    1946.891 591.135-1997.094  0.00  0.00     0.116 C 
BRANCH 159 160
ATOM    160  CD  GLU d   9    1947.593 590.921-1995.766  0.00  0.00     0.172 C 
ATOM    161  OE1 GLU d   9    1947.072 590.230-1994.870  0.00  0.00    -0.648 OA
ATOM    162  OE2 GLU d   9    1948.712 591.460-1995.635  0.00  0.00    -0.648 OA
ENDBRANCH 159 160
ENDBRANCH 158 159
ENDBRANCH   1 158
TORSDOF 67
