@<TRIPOS>MOLECULE
14-20
273 274 16              
SMALL
USER_CHARGES
@<TRIPOS>ATOM
1	   N	2324.761	711.159	-2417.691	N.3	1	GLU1	-0.516	
2	  CA	2325.320	712.508	-2417.691	C.3	1	GLU1	0.040	
3	   C	2326.829	712.468	-2417.691	C.2	1	GLU1	0.537	
4	   O	2327.505	713.167	-2418.460	O.2	1	GLU1	-0.582	
5	  CB	2324.797	713.293	-2416.454	C.3	1	GLU1	0.056	
6	  CG	2325.272	714.778	-2416.343	C.3	1	GLU1	0.014	
7	  CD	2324.848	715.582	-2415.128	C.2	1	GLU1	0.805	
8	 OE1	2324.120	715.080	-2414.250	O.co2	1	GLU1	-0.819	
9	 OE2	2325.278	716.752	-2415.056	O.co2	1	GLU1	-0.819	
10	   H	2325.388	710.280	-2417.691	 H	1	GLU1	0.294	
11	  HA	2324.994	713.026	-2418.611	 H	1	GLU1	0.111	
12	 2HB	2325.086	712.762	-2415.524	 H	1	GLU1	-0.017	
13	 3HB	2323.690	713.283	-2416.441	 H	1	GLU1	-0.017	
14	 2HG	2324.962	715.363	-2417.224	 H	1	GLU1	-0.043	
15	 3HG	2326.372	714.845	-2416.314	 H	1	GLU1	-0.043	
16	   N	2327.434	711.682	-2416.866	N.am	2	ASN2	-0.416	
17	  CA	2328.893	711.643	-2416.866	C.3	2	ASN2	0.014	
18	   C	2329.425	711.287	-2418.234	C.2	2	ASN2	0.597	
19	   O	2330.340	711.918	-2418.762	O.2	2	ASN2	-0.568	
20	  CB	2329.385	710.620	-2415.801	C.3	2	ASN2	-0.204	
21	  CG	2328.921	710.844	-2414.358	C.2	2	ASN2	0.713	
22	 ND2	2329.515	711.759	-2413.640	N.pl3	2	ASN2	-0.919	
23	 OD1	2328.000	710.210	-2413.864	O.2	2	ASN2	-0.593	
24	   H	2326.906	711.102	-2416.229	 H	2	ASN2	0.272	
25	  HA	2329.271	712.653	-2416.620	 H	2	ASN2	0.105	
26	 2HB	2330.489	710.561	-2415.804	 H	2	ASN2	0.080	
27	 3HB	2329.056	709.602	-2416.087	 H	2	ASN2	0.080	
28	1HD2	2329.034	711.932	-2412.753	 H	2	ASN2	0.420	
29	2HD2	2330.217	712.330	-2414.109	 H	2	ASN2	0.420	
30	   N	2328.903	710.293	-2418.869	N.am	3	PRO3	-0.255	
31	  CA	2329.355	709.883	-2420.190	C.3	3	PRO3	-0.027	
32	   C	2328.958	710.907	-2421.267	C.2	3	PRO3	0.590	
33	   O	2329.781	711.290	-2422.098	O.2	3	PRO3	-0.575	
34	  CB	2328.651	708.529	-2420.360	C.3	3	PRO3	-0.007	
35	  CG	2327.367	708.681	-2419.530	C.3	3	PRO3	0.019	
36	  CD	2327.825	709.500	-2418.320	C.3	3	PRO3	0.019	
37	  HA	2330.441	709.763	-2420.203	 H	3	PRO3	0.064	
38	 2HB	2329.274	707.748	-2419.919	 H	3	PRO3	0.025	
39	 3HB	2328.453	708.280	-2421.405	 H	3	PRO3	0.025	
40	 2HG	2326.939	707.719	-2419.239	 H	3	PRO3	0.021	
41	 3HG	2326.630	709.252	-2420.097	 H	3	PRO3	0.021	
42	 2HD	2328.214	708.850	-2417.532	 H	3	PRO3	0.039	
43	 3HD	2327.028	710.136	-2417.927	 H	3	PRO3	0.039	
44	   N	2327.753	711.367	-2421.300	N.am	4	GLU4	-0.516	
45	  CA	2327.394	712.338	-2422.330	C.3	4	GLU4	0.040	
46	   C	2328.293	713.549	-2422.268	C.2	4	GLU4	0.537	
47	   O	2328.820	714.028	-2423.282	O.2	4	GLU4	-0.582	
48	  CB	2325.905	712.757	-2422.160	C.3	4	GLU4	0.056	
49	  CG	2325.358	713.761	-2423.226	C.3	4	GLU4	0.014	
50	  CD	2323.931	714.258	-2423.083	C.2	4	GLU4	0.805	
51	 OE1	2323.204	713.860	-2422.152	O.co2	4	GLU4	-0.819	
52	 OE2	2323.542	715.087	-2423.931	O.co2	4	GLU4	-0.819	
53	   H	2327.068	711.061	-2420.623	 H	4	GLU4	0.294	
54	  HA	2327.525	711.868	-2423.321	 H	4	GLU4	0.111	
55	 2HB	2325.752	713.197	-2421.153	 H	4	GLU4	-0.017	
56	 3HB	2325.257	711.859	-2422.166	 H	4	GLU4	-0.017	
57	 2HG	2325.439	713.346	-2424.244	 H	4	GLU4	-0.043	
58	 3HG	2325.946	714.693	-2423.237	 H	4	GLU4	-0.043	
59	   N	2328.520	714.102	-2421.125	N.am	5	SER5	-0.416	
60	  CA	2329.390	715.273	-2421.066	C.3	5	SER5	-0.025	
61	   C	2330.749	714.966	-2421.651	C.2	5	SER5	0.597	
62	   O	2331.296	715.720	-2422.456	O.2	5	SER5	-0.568	
63	  CB	2329.501	715.805	-2419.615	C.3	5	SER5	0.212	
64	  OG	2330.232	714.925	-2418.754	O.3	5	SER5	-0.655	
65	   H	2328.102	713.730	-2420.283	 H	5	SER5	0.272	
66	  HA	2328.941	716.063	-2421.695	 H	5	SER5	0.084	
67	 2HB	2328.501	715.999	-2419.182	 H	5	SER5	0.035	
68	 3HB	2330.006	716.790	-2419.617	 H	5	SER5	0.035	
69	  HG	2329.743	714.100	-2418.704	 H	5	SER5	0.428	
70	   N	2331.353	713.883	-2421.297	N.am	6	ILE6	-0.416	
71	  CA	2332.666	713.588	-2421.863	C.3	6	ILE6	-0.060	
72	   C	2332.609	713.550	-2423.371	C.2	6	ILE6	0.597	
73	   O	2333.444	714.137	-2424.074	O.2	6	ILE6	-0.568	
74	  CB	2333.265	712.251	-2421.262	C.3	6	ILE6	0.130	
75	 CG1	2333.284	712.189	-2419.702	C.3	6	ILE6	-0.043	
76	 CG2	2334.706	711.949	-2421.778	C.3	6	ILE6	-0.320	
77	 CD1	2333.553	710.800	-2419.086	C.3	6	ILE6	-0.066	
78	   H	2330.924	713.249	-2420.638	 H	6	ILE6	0.272	
79	  HA	2333.340	714.422	-2421.595	 H	6	ILE6	0.087	
80	  HB	2332.607	711.426	-2421.607	 H	6	ILE6	0.019	
81	2HG1	2332.302	712.509	-2419.306	 H	6	ILE6	0.024	
82	3HG1	2334.000	712.931	-2419.297	 H	6	ILE6	0.024	
83	1HG2	2334.765	711.856	-2422.876	 H	6	ILE6	0.088	
84	2HG2	2335.429	712.731	-2421.475	 H	6	ILE6	0.088	
85	3HG2	2335.096	710.987	-2421.399	 H	6	ILE6	0.088	
86	1HD1	2332.825	710.046	-2419.441	 H	6	ILE6	0.019	
87	2HD1	2334.564	710.421	-2419.322	 H	6	ILE6	0.019	
88	3HD1	2333.477	710.830	-2417.984	 H	6	ILE6	0.019	
89	   N	2331.663	712.887	-2423.944	N.am	7	LEU7	-0.416	
90	  CA	2331.608	712.851	-2425.403	C.3	7	LEU7	-0.052	
91	   C	2331.536	714.246	-2425.976	C.2	7	LEU7	0.597	
92	   O	2332.257	714.608	-2426.918	O.2	7	LEU7	-0.568	
93	  CB	2330.405	711.991	-2425.883	C.3	7	LEU7	-0.110	
94	  CG	2330.331	710.512	-2425.417	C.3	7	LEU7	0.353	
95	 CD1	2329.141	709.806	-2426.082	C.3	7	LEU7	-0.412	
96	 CD2	2331.625	709.732	-2425.708	C.3	7	LEU7	-0.412	
97	   H	2330.971	712.400	-2423.393	 H	7	LEU7	0.272	
98	  HA	2332.550	712.410	-2425.777	 H	7	LEU7	0.092	
99	 2HB	2330.381	712.007	-2426.991	 H	7	LEU7	0.046	
100	 3HB	2329.465	712.494	-2425.579	 H	7	LEU7	0.046	
101	  HG	2330.161	710.504	-2424.319	 H	7	LEU7	-0.036	
102	1HD1	2328.184	710.315	-2425.859	 H	7	LEU7	0.100	
103	2HD1	2329.240	709.766	-2427.183	 H	7	LEU7	0.100	
104	3HD1	2329.034	708.765	-2425.726	 H	7	LEU7	0.100	
105	1HD2	2331.900	709.762	-2426.778	 H	7	LEU7	0.100	
106	2HD2	2332.478	710.143	-2425.136	 H	7	LEU7	0.100	
107	3HD2	2331.543	708.670	-2425.412	 H	7	LEU7	0.100	
108	   N	2330.699	715.087	-2425.470	N.am	8	ASP8	-0.516	
109	  CA	2330.629	716.437	-2426.024	C.3	8	ASP8	0.038	
110	   C	2331.976	717.116	-2425.967	C.2	8	ASP8	0.537	
111	   O	2332.449	717.720	-2426.942	O.2	8	ASP8	-0.582	
112	  CB	2329.552	717.277	-2425.283	C.3	8	ASP8	-0.030	
113	  CG	2329.333	718.697	-2425.824	C.2	8	ASP8	0.799	
114	 OD1	2329.398	718.895	-2427.055	O.co2	8	ASP8	-0.801	
115	 OD2	2329.142	719.624	-2425.009	O.co2	8	ASP8	-0.801	
116	   H	2330.101	714.817	-2424.702	 H	8	ASP8	0.294	
117	  HA	2330.346	716.358	-2427.091	 H	8	ASP8	0.088	
118	 2HB	2329.809	717.360	-2424.211	 H	8	ASP8	-0.012	
119	 3HB	2328.572	716.772	-2425.315	 H	8	ASP8	-0.012	
120	   N	2332.656	717.066	-2424.872	N.am	9	GLU9	-0.516	
121	  CA	2333.959	717.723	-2424.817	C.3	9	GLU9	0.040	
122	   C	2334.877	717.194	-2425.893	C.2	9	GLU9	0.537	
123	   O	2335.541	717.948	-2426.619	O.2	9	GLU9	-0.582	
124	  CB	2334.593	717.516	-2423.412	C.3	9	GLU9	0.056	
125	  CG	2335.976	718.208	-2423.183	C.3	9	GLU9	0.014	
126	  CD	2336.678	717.994	-2421.855	C.2	9	GLU9	0.805	
127	 OE1	2336.156	717.304	-2420.958	O.co2	9	GLU9	-0.819	
128	 OE2	2337.797	718.532	-2421.724	O.co2	9	GLU9	-0.819	
129	   H	2332.293	716.580	-2424.064	 H	9	GLU9	0.294	
130	  HA	2333.818	718.805	-2424.993	 H	9	GLU9	0.111	
131	 2HB	2334.705	716.431	-2423.208	 H	9	GLU9	-0.017	
132	 3HB	2333.896	717.870	-2422.627	 H	9	GLU9	-0.017	
133	 2HG	2335.904	719.298	-2423.323	 H	9	GLU9	-0.043	
134	 3HG	2336.722	717.862	-2423.917	 H	9	GLU9	-0.043	
135	   N	2334.973	715.919	-2426.062	N.am	10	HIS10	-0.416	
136	  CA	2335.860	715.407	-2427.102	C.3	10	HIS10	-0.058	
137	   C	2335.493	715.971	-2428.454	C.2	10	HIS10	0.597	
138	   O	2336.346	716.435	-2429.226	O.2	10	HIS10	-0.568	
139	  CB	2335.696	713.878	-2427.097	C.3	10	HIS10	-0.007	
140	  CG	2336.981	713.167	-2426.789	C.2	10	HIS10	0.187	
141	 CD2	2337.362	712.833	-2425.496	C.2	10	HIS10	-0.221	
142	 ND1	2337.932	712.760	-2427.721	N.2	10	HIS10	-0.543	
143	 CE1	2338.839	712.202	-2426.898	C.2	10	HIS10	0.163	
144	 NE2	2338.577	712.200	-2425.563	N.pl3	10	HIS10	-0.280	
145	   H	2334.442	715.284	-2425.483	 H	10	HIS10	0.272	
146	  HA	2336.880	715.764	-2426.878	 H	10	HIS10	0.136	
147	 2HB	2335.330	713.511	-2428.076	 H	10	HIS10	0.037	
148	 3HB	2334.940	713.542	-2426.356	 H	10	HIS10	0.037	
149	 2HD	2336.777	713.048	-2424.607	 H	10	HIS10	0.186	
150	 1HE	2339.729	711.781	-2427.345	 H	10	HIS10	0.144	
151	 2HE	2339.144	711.823	-2424.790	 H	10	HIS10	0.334	
152	   N	2334.255	715.971	-2428.816	N.am	11	VAL11	-0.416	
153	  CA	2333.900	716.516	-2430.124	C.3	11	VAL11	-0.087	
154	   C	2334.365	717.946	-2430.257	C.2	11	VAL11	0.597	
155	   O	2334.967	718.351	-2431.260	O.2	11	VAL11	-0.568	
156	  CB	2332.339	716.410	-2430.343	C.3	11	VAL11	0.299	
157	 CG1	2331.771	717.114	-2431.605	C.3	11	VAL11	-0.319	
158	 CG2	2331.814	714.956	-2430.415	C.3	11	VAL11	-0.319	
159	   H	2333.542	715.598	-2428.206	 H	11	VAL11	0.272	
160	  HA	2334.419	715.933	-2430.906	 H	11	VAL11	0.097	
161	  HB	2331.852	716.891	-2429.468	 H	11	VAL11	-0.030	
162	1HG1	2332.209	716.721	-2432.542	 H	11	VAL11	0.079	
163	2HG1	2330.671	717.007	-2431.688	 H	11	VAL11	0.079	
164	3HG1	2331.949	718.206	-2431.597	 H	11	VAL11	0.079	
165	1HG2	2332.103	714.369	-2429.524	 H	11	VAL11	0.079	
166	2HG2	2330.708	714.920	-2430.457	 H	11	VAL11	0.079	
167	3HG2	2332.195	714.415	-2431.301	 H	11	VAL11	0.079	
168	   N	2334.129	718.773	-2429.295	N.am	12	GLN12	-0.416	
169	  CA	2334.578	720.155	-2429.423	C.3	12	GLN12	-0.003	
170	   C	2336.068	720.222	-2429.661	C.2	12	GLN12	0.597	
171	   O	2336.555	720.929	-2430.540	O.2	12	GLN12	-0.568	
172	  CB	2334.188	720.924	-2428.140	C.3	12	GLN12	-0.004	
173	  CG	2334.549	722.445	-2428.110	C.3	12	GLN12	-0.064	
174	  CD	2334.248	723.260	-2426.846	C.2	12	GLN12	0.695	
175	 NE2	2333.681	722.684	-2425.816	N.pl3	12	GLN12	-0.941	
176	 OE1	2334.550	724.440	-2426.769	O.2	12	GLN12	-0.609	
177	   H	2333.640	718.467	-2428.465	 H	12	GLN12	0.272	
178	  HA	2334.079	720.611	-2430.298	 H	12	GLN12	0.085	
179	 2HB	2334.664	720.424	-2427.271	 H	12	GLN12	0.017	
180	 3HB	2333.098	720.817	-2427.977	 H	12	GLN12	0.017	
181	 2HG	2334.072	722.966	-2428.961	 H	12	GLN12	0.035	
182	 3HG	2335.633	722.587	-2428.276	 H	12	GLN12	0.035	
183	1HE2	2333.574	723.279	-2424.993	 H	12	GLN12	0.425	
184	2HE2	2333.516	721.681	-2425.919	 H	12	GLN12	0.425	
185	   N	2336.853	719.515	-2428.920	N.am	13	ARG13	-0.348	
186	  CA	2338.293	719.580	-2429.151	C.3	13	ARG13	-0.264	
187	   C	2338.629	719.208	-2430.576	C.2	13	ARG13	0.734	
188	   O	2339.397	719.879	-2431.260	O.2	13	ARG13	-0.589	
189	  CB	2339.006	718.642	-2428.136	C.3	13	ARG13	-0.001	
190	  CG	2340.551	718.794	-2428.056	C.3	13	ARG13	0.039	
191	  CD	2341.178	717.807	-2427.058	C.3	13	ARG13	0.049	
192	  NE	2342.655	718.014	-2427.008	N.pl3	13	ARG13	-0.530	
193	  CZ	2343.504	717.323	-2426.252	C.cat	13	ARG13	0.808	
194	 NH1	2343.139	716.359	-2425.454	N.pl3	13	ARG13	-0.863	
195	 NH2	2344.763	717.621	-2426.310	N.pl3	13	ARG13	-0.863	
196	   H	2336.476	718.926	-2428.191	 H	13	ARG13	0.275	
197	  HA	2338.618	720.626	-2428.993	 H	13	ARG13	0.156	
198	 2HB	2338.740	717.591	-2428.375	 H	13	ARG13	0.033	
199	 3HB	2338.581	718.809	-2427.126	 H	13	ARG13	0.033	
200	 2HG	2340.800	719.839	-2427.778	 H	13	ARG13	0.029	
201	 3HG	2341.002	718.637	-2429.058	 H	13	ARG13	0.029	
202	 2HD	2340.933	716.767	-2427.366	 H	13	ARG13	0.069	
203	 3HD	2340.722	717.954	-2426.055	 H	13	ARG13	0.069	
204	  HE	2343.107	718.736	-2427.579	 H	13	ARG13	0.346	
205	1HH1	2342.133	716.173	-2425.457	 H	13	ARG13	0.448	
206	2HH1	2343.852	715.876	-2424.905	 H	13	ARG13	0.448	
207	1HH2	2345.031	718.379	-2426.942	 H	13	ARG13	0.448	
208	2HH2	2345.399	717.080	-2425.721	 H	13	ARG13	0.448	
209	   N	2338.092	718.153	-2431.089	N.am	14	ARG14	-0.348	
210	  CA	2338.417	717.793	-2432.467	C.3	14	ARG14	-0.264	
211	   C	2338.087	718.924	-2433.413	C.2	14	ARG14	0.734	
212	   O	2338.875	719.301	-2434.276	O.2	14	ARG14	-0.589	
213	  CB	2337.644	716.497	-2432.841	C.3	14	ARG14	-0.001	
214	  CG	2338.080	715.818	-2434.171	C.3	14	ARG14	0.039	
215	  CD	2337.243	714.567	-2434.482	C.3	14	ARG14	0.049	
216	  NE	2337.719	713.948	-2435.755	N.pl3	14	ARG14	-0.530	
217	  CZ	2337.209	712.857	-2436.317	C.cat	14	ARG14	0.808	
218	 NH1	2336.209	712.187	-2435.816	N.pl3	14	ARG14	-0.863	
219	 NH2	2337.733	712.432	-2437.423	N.pl3	14	ARG14	-0.863	
220	   H	2337.457	717.585	-2430.547	 H	14	ARG14	0.275	
221	  HA	2339.507	717.615	-2432.526	 H	14	ARG14	0.156	
222	 2HB	2336.558	716.724	-2432.868	 H	14	ARG14	0.033	
223	 3HB	2337.749	715.760	-2432.018	 H	14	ARG14	0.033	
224	 2HG	2339.157	715.561	-2434.112	 H	14	ARG14	0.029	
225	 3HG	2337.990	716.537	-2435.011	 H	14	ARG14	0.029	
226	 2HD	2336.170	714.850	-2434.556	 H	14	ARG14	0.069	
227	 3HD	2337.321	713.849	-2433.638	 H	14	ARG14	0.069	
228	  HE	2338.500	714.355	-2436.279	 H	14	ARG14	0.346	
229	1HH1	2335.842	712.575	-2434.944	 H	14	ARG14	0.448	
230	2HH1	2335.875	711.357	-2436.308	 H	14	ARG14	0.448	
231	1HH2	2338.515	712.971	-2437.802	 H	14	ARG14	0.448	
232	2HH2	2337.329	711.591	-2437.839	 H	14	ARG14	0.448	
233	   N	2336.942	719.510	-2433.311	N.am	15	MET15	-0.416	
234	  CA	2336.622	720.603	-2434.225	C.3	15	MET15	-0.024	
235	   C	2337.653	721.702	-2434.137	C.2	15	MET15	0.597	
236	   O	2338.156	722.213	-2435.149	O.2	15	MET15	-0.568	
237	  CB	2335.201	721.149	-2433.916	C.3	15	MET15	0.034	
238	  CG	2334.039	720.151	-2434.108	C.3	15	MET15	0.002	
239	  SD	2332.465	721.019	-2433.994	S.3	15	MET15	-0.274	
240	  CE	2331.383	719.590	-2433.857	C.3	15	MET15	-0.054	
241	   H	2336.277	719.218	-2432.609	 H	15	MET15	0.272	
242	  HA	2336.648	720.215	-2435.260	 H	15	MET15	0.088	
243	 2HB	2334.999	722.028	-2434.558	 H	15	MET15	0.024	
244	 3HB	2335.166	721.542	-2432.880	 H	15	MET15	0.024	
245	 2HG	2334.081	719.366	-2433.330	 H	15	MET15	0.044	
246	 3HG	2334.101	719.636	-2435.084	 H	15	MET15	0.044	
247	 1HE	2331.527	718.901	-2434.709	 H	15	MET15	0.068	
248	 2HE	2331.592	719.037	-2432.924	 H	15	MET15	0.068	
249	 3HE	2330.326	719.905	-2433.841	 H	15	MET15	0.068	
250	   N	2338.022	722.123	-2432.975	N.am	16	ARG16	-0.348	
251	  CA	2339.019	723.186	-2432.891	C.3	16	ARG16	-0.264	
252	   C	2340.290	722.793	-2433.607	C.2	16	ARG16	0.734	
253	   O	2340.403	721.716	-2434.188	O.2	16	ARG16	-0.589	
254	  CB	2339.288	723.504	-2431.393	C.3	16	ARG16	-0.001	
255	  CG	2340.115	724.792	-2431.120	C.3	16	ARG16	0.039	
256	  CD	2340.364	725.012	-2429.619	C.3	16	ARG16	0.049	
257	  NE	2341.141	726.270	-2429.418	N.pl3	16	ARG16	-0.530	
258	  CZ	2341.533	726.752	-2428.242	C.cat	16	ARG16	0.808	
259	 NH1	2341.285	726.168	-2427.104	N.pl3	16	ARG16	-0.863	
260	 NH2	2342.198	727.864	-2428.224	N.pl3	16	ARG16	-0.863	
261	   H	2337.627	721.723	-2432.135	 H	16	ARG16	0.275	
262	  HA	2338.611	724.079	-2433.401	 H	16	ARG16	0.156	
263	 2HB	2339.785	722.628	-2430.926	 H	16	ARG16	0.033	
264	 3HB	2338.320	723.586	-2430.859	 H	16	ARG16	0.033	
265	 2HG	2339.585	725.664	-2431.557	 H	16	ARG16	0.029	
266	 3HG	2341.088	724.739	-2431.649	 H	16	ARG16	0.029	
267	 2HD	2340.912	724.137	-2429.205	 H	16	ARG16	0.069	
268	 3HD	2339.391	725.055	-2429.083	 H	16	ARG16	0.069	
269	  HE	2341.420	726.851	-2430.215	 H	16	ARG16	0.346	
270	1HH1	2340.759	725.295	-2427.188	 H	16	ARG16	0.448	
271	2HH1	2341.619	726.603	-2426.242	 H	16	ARG16	0.448	
272	1HH2	2342.383	728.307	-2429.125	 H	16	ARG16	0.448	
273	2HH2	2342.488	728.219	-2427.311	 H	16	ARG16	0.448	
@<TRIPOS>BOND
1 1 2 1
2 1 10 1
3 2 3 1
4 2 5 1
5 2 11 1
6 3 4 2
7 3 16 1
8 5 6 1
9 6 7 1
10 7 8 2
11 7 9 1
12 5 12 1
13 5 13 1
14 6 14 1
15 6 15 1
16 16 17 1
17 16 24 1
18 17 18 1
19 17 20 1
20 17 25 1
21 18 19 2
22 18 30 1
23 20 21 1
24 21 22 1
25 21 23 2
26 20 26 1
27 20 27 1
28 22 28 1
29 22 29 1
30 30 31 1
31 30 36 1
32 31 32 1
33 31 34 1
34 31 37 1
35 32 33 2
36 32 44 1
37 34 35 1
38 35 36 1
39 34 38 1
40 34 39 1
41 35 40 1
42 35 41 1
43 36 42 1
44 36 43 1
45 44 45 1
46 44 53 1
47 45 46 1
48 45 48 1
49 45 54 1
50 46 47 2
51 46 59 1
52 48 49 1
53 49 50 1
54 50 51 2
55 50 52 1
56 48 55 1
57 48 56 1
58 49 57 1
59 49 58 1
60 59 60 1
61 59 65 1
62 60 61 1
63 60 63 1
64 60 66 1
65 61 62 2
66 61 70 1
67 63 64 1
68 63 67 1
69 63 68 1
70 64 69 1
71 70 71 1
72 70 78 1
73 71 72 1
74 71 74 1
75 71 79 1
76 72 73 2
77 72 89 1
78 74 75 1
79 74 76 1
80 75 77 1
81 74 80 1
82 75 81 1
83 75 82 1
84 76 83 1
85 76 84 1
86 76 85 1
87 77 86 1
88 77 87 1
89 77 88 1
90 89 90 1
91 89 97 1
92 90 91 1
93 90 93 1
94 90 98 1
95 91 92 2
96 91 108 1
97 93 94 1
98 94 95 1
99 94 96 1
100 93 99 1
101 93 100 1
102 94 101 1
103 95 102 1
104 95 103 1
105 95 104 1
106 96 105 1
107 96 106 1
108 96 107 1
109 108 109 1
110 108 116 1
111 109 110 1
112 109 112 1
113 109 117 1
114 110 111 2
115 110 120 1
116 112 113 1
117 113 114 2
118 113 115 1
119 112 118 1
120 112 119 1
121 120 121 1
122 120 129 1
123 121 122 1
124 121 124 1
125 121 130 1
126 122 123 2
127 122 135 1
128 124 125 1
129 125 126 1
130 126 127 2
131 126 128 1
132 124 131 1
133 124 132 1
134 125 133 1
135 125 134 1
136 135 136 1
137 135 145 1
138 136 137 1
139 136 139 1
140 136 146 1
141 137 138 2
142 137 152 1
143 139 140 1
144 140 141 2
145 141 144 1
146 140 142 1
147 142 143 2
148 143 144 1
149 139 147 1
150 139 148 1
151 141 149 1
152 143 150 1
153 144 151 1
154 152 153 1
155 152 159 1
156 153 154 1
157 153 156 1
158 153 160 1
159 154 155 2
160 154 168 1
161 156 157 1
162 156 158 1
163 156 161 1
164 157 162 1
165 157 163 1
166 157 164 1
167 158 165 1
168 158 166 1
169 158 167 1
170 168 169 1
171 168 177 1
172 169 170 1
173 169 172 1
174 169 178 1
175 170 171 2
176 170 185 1
177 172 173 1
178 173 174 1
179 174 175 1
180 174 176 2
181 172 179 1
182 172 180 1
183 173 181 1
184 173 182 1
185 175 183 1
186 175 184 1
187 185 186 1
188 185 196 1
189 186 187 1
190 186 189 1
191 186 197 1
192 187 188 2
193 187 209 1
194 189 190 1
195 190 191 1
196 191 192 1
197 192 193 1
198 193 194 2
199 193 195 1
200 189 198 1
201 189 199 1
202 190 200 1
203 190 201 1
204 191 202 1
205 191 203 1
206 192 204 1
207 194 205 1
208 194 206 1
209 195 207 1
210 195 208 1
211 209 210 1
212 209 220 1
213 210 211 1
214 210 213 1
215 210 221 1
216 211 212 2
217 211 233 1
218 213 214 1
219 214 215 1
220 215 216 1
221 216 217 1
222 217 218 2
223 217 219 1
224 213 222 1
225 213 223 1
226 214 224 1
227 214 225 1
228 215 226 1
229 215 227 1
230 216 228 1
231 218 229 1
232 218 230 1
233 219 231 1
234 219 232 1
235 233 234 1
236 233 241 1
237 234 235 1
238 234 237 1
239 234 242 1
240 235 236 2
241 235 250 1
242 237 238 1
243 238 239 1
244 239 240 1
245 237 243 1
246 237 244 1
247 238 245 1
248 238 246 1
249 240 247 1
250 240 248 1
251 240 249 1
252 250 251 1
253 250 261 1
254 251 252 1
255 251 254 1
256 251 262 1
257 252 253 2
258 254 255 1
259 255 256 1
260 256 257 1
261 257 258 1
262 258 259 2
263 258 260 1
264 254 263 1
265 254 264 1
266 255 265 1
267 255 266 1
268 256 267 1
269 256 268 1
270 257 269 1
271 259 270 1
272 259 271 1
273 260 272 1
274 260 273 1
@<TRIPOS>SUBSTRUCTURE
1	GLU1	1	RESIDUE	1 ****	GLU
2	ASN2	16	RESIDUE	1 ****	ASN
3	PRO3	30	RESIDUE	1 ****	PRO
4	GLU4	44	RESIDUE	1 ****	GLU
5	SER5	59	RESIDUE	1 ****	SER
6	ILE6	70	RESIDUE	1 ****	ILE
7	LEU7	89	RESIDUE	1 ****	LEU
8	ASP8	108	RESIDUE	1 ****	ASP
9	GLU9	120	RESIDUE	1 ****	GLU
10	HIS10	135	RESIDUE	1 ****	HIS
11	VAL11	152	RESIDUE	1 ****	VAL
12	GLN12	168	RESIDUE	1 ****	GLN
13	ARG13	185	RESIDUE	1 ****	ARG
14	ARG14	209	RESIDUE	1 ****	ARG
15	MET15	233	RESIDUE	1 ****	MET
16	ARG16	250	RESIDUE	1 ****	ARG
