REMARK WARNING: 32 MAX_TORS EXCEEDED!!!
REMARK  67 active torsions:
REMARK  status: ('A' for Active; 'I' for Inactive)
REMARK    1  A    between atoms: N_1  and  CA_2 
REMARK    2  A    between atoms: CA_2  and  C_3 
REMARK    3  A    between atoms: CA_2  and  CB_5 
REMARK       I    between atoms: C_3  and  N_11 
REMARK    4  A    between atoms: CB_5  and  CG_6 
REMARK    5  A    between atoms: CG_6  and  CD_7 
REMARK    6  A    between atoms: N_11  and  CA_12 
REMARK    7  A    between atoms: CA_12  and  C_13 
REMARK    8  A    between atoms: CA_12  and  CB_15 
REMARK       I    between atoms: C_13  and  N_22 
REMARK    9  A    between atoms: CB_15  and  CG_16 
REMARK       I    between atoms: CG_16  and  ND2_17 
REMARK   10  A    between atoms: CA_23  and  C_24 
REMARK       I    between atoms: C_24  and  N_29 
REMARK   11  A    between atoms: N_29  and  CA_30 
REMARK   12  A    between atoms: CA_30  and  C_31 
REMARK   13  A    between atoms: CA_30  and  CB_33 
REMARK       I    between atoms: C_31  and  N_39 
REMARK   14  A    between atoms: CB_33  and  CG_34 
REMARK   15  A    between atoms: CG_34  and  CD_35 
REMARK   16  A    between atoms: N_39  and  CA_40 
REMARK   17  A    between atoms: CA_40  and  C_41 
REMARK   18  A    between atoms: CA_40  and  CB_43 
REMARK       I    between atoms: C_41  and  N_47 
REMARK   19  A    between atoms: CB_43  and  OG_44 
REMARK   20  A    between atoms: N_47  and  CA_48 
REMARK   21  A    between atoms: CA_48  and  C_49 
REMARK   22  A    between atoms: CA_48  and  CB_51 
REMARK       I    between atoms: C_49  and  N_56 
REMARK   23  A    between atoms: CB_51  and  CG1_52 
REMARK   24  A    between atoms: N_56  and  CA_57 
REMARK   25  A    between atoms: CA_57  and  C_58 
REMARK   26  A    between atoms: CA_57  and  CB_60 
REMARK       I    between atoms: C_58  and  N_65 
REMARK   27  A    between atoms: CB_60  and  CG_61 
REMARK   28  A    between atoms: N_65  and  CA_66 
REMARK   29  A    between atoms: CA_66  and  C_67 
REMARK   30  A    between atoms: CA_66  and  CB_69 
REMARK       I    between atoms: C_67  and  N_74 
REMARK   31  A    between atoms: CB_69  and  CG_70 
REMARK   32  A    between atoms: N_74  and  CA_75 
REMARK   33  A    between atoms: CA_75  and  C_76 
REMARK   34  A    between atoms: CA_75  and  CB_78 
REMARK       I    between atoms: C_76  and  N_84 
REMARK   35  A    between atoms: CB_78  and  CG_79 
REMARK   36  A    between atoms: CG_79  and  CD_80 
REMARK   37  A    between atoms: N_84  and  CA_85 
REMARK   38  A    between atoms: CA_85  and  C_86 
REMARK   39  A    between atoms: CA_85  and  CB_88 
REMARK       I    between atoms: C_86  and  N_96 
REMARK   40  A    between atoms: CB_88  and  CG_89 
REMARK   41  A    between atoms: N_96  and  CA_97 
REMARK   42  A    between atoms: CA_97  and  C_98 
REMARK   43  A    between atoms: CA_97  and  CB_100 
REMARK       I    between atoms: C_98  and  N_104 
REMARK   44  A    between atoms: N_104  and  CA_105 
REMARK   45  A    between atoms: CA_105  and  C_106 
REMARK   46  A    between atoms: CA_105  and  CB_108 
REMARK       I    between atoms: C_106  and  N_113 
REMARK   47  A    between atoms: CB_108  and  CG_109 
REMARK   48  A    between atoms: N_113  and  CA_114 
REMARK   49  A    between atoms: CA_114  and  C_115 
REMARK   50  A    between atoms: CA_114  and  CB_117 
REMARK       I    between atoms: C_115  and  N_130 
REMARK   51  A    between atoms: CB_117  and  CG_118 
REMARK   52  A    between atoms: CG_118  and  CD_119 
REMARK   53  A    between atoms: CD_119  and  NE_120 
REMARK       I    between atoms: NE_120  and  CZ_121 
REMARK       I    between atoms: CZ_121  and  NH1_122 
REMARK       I    between atoms: CZ_121  and  NH2_123 
REMARK   54  A    between atoms: N_130  and  CA_131 
REMARK   55  A    between atoms: CA_131  and  C_132 
REMARK   56  A    between atoms: CA_131  and  CB_134 
REMARK       I    between atoms: C_132  and  N_138 
REMARK   57  A    between atoms: N_138  and  CA_139 
REMARK   58  A    between atoms: CA_139  and  C_140 
REMARK   59  A    between atoms: CA_139  and  CB_142 
REMARK       I    between atoms: C_140  and  N_147 
REMARK   60  A    between atoms: CB_142  and  CG_143 
REMARK   61  A    between atoms: CG_143  and  SD_144 
REMARK   62  A    between atoms: N_147  and  CA_148 
REMARK   63  A    between atoms: CA_148  and  C_149 
REMARK   64  A    between atoms: CA_148  and  CB_151 
REMARK   65  A    between atoms: CB_151  and  CG_152 
REMARK   66  A    between atoms: CG_152  and  CD_153 
REMARK   67  A    between atoms: CD_153  and  NE_154 
REMARK       I    between atoms: NE_154  and  CZ_155 
REMARK       I    between atoms: CZ_155  and  NH1_156 
ROOT
ATOM      1  C   GLU d   9    1986.970 602.983-2044.259  0.00  0.00     0.241 C 
ATOM      2  O   GLU d   9    1987.634 603.737-2044.984  0.00  0.00    -0.271 OA
ATOM      3  N   HIS d  10    1987.066 601.707-2044.429  0.00  0.00    -0.346 N 
ATOM      4  H   HIS d  10    1986.535 601.072-2043.850  0.00  0.00     0.163 HD
ENDROOT
BRANCH   1   5
ATOM      5  CA  GLU d   9    1986.051 603.510-2043.183  0.00  0.00     0.177 C 
BRANCH   5   6
ATOM      6  N   GLU d   9    1984.749 602.852-2043.239  0.00  0.00    -0.346 N 
ATOM      7  C   ASP d   8    1984.069 602.902-2044.334  0.00  0.00     0.241 C 
ATOM      8  O   ASP d   8    1984.542 603.507-2045.309  0.00  0.00    -0.271 OA
ATOM      9  H   GLU d   9    1984.385 602.365-2042.432  0.00  0.00     0.163 HD
BRANCH   7  10
ATOM     10  CA  ASP d   8    1982.723 602.221-2044.391  0.00  0.00     0.186 C 
BRANCH  10  11
ATOM     11  N   ASP d   8    1982.793 600.872-2043.838  0.00  0.00    -0.346 N 
ATOM     12  C   LEU d   7    1983.631 600.032-2044.345  0.00  0.00     0.241 C 
ATOM     13  O   LEU d   7    1984.351 600.395-2045.286  0.00  0.00    -0.271 OA
ATOM     14  H   ASP d   8    1982.195 600.601-2043.071  0.00  0.00     0.163 HD
BRANCH  12  15
ATOM     15  CA  LEU d   7    1983.703 598.636-2043.772  0.00  0.00     0.177 C 
BRANCH  15  16
ATOM     16  N   LEU d   7    1983.758 598.672-2042.314  0.00  0.00    -0.346 N 
ATOM     17  C   ILE d   6    1984.704 599.336-2041.740  0.00  0.00     0.241 C 
ATOM     18  O   ILE d   6    1985.539 599.924-2042.444  0.00  0.00    -0.271 OA
ATOM     19  H   LEU d   7    1983.066 598.185-2041.762  0.00  0.00     0.163 HD
BRANCH  17  20
ATOM     20  CA  ILE d   6    1984.761 599.374-2040.232  0.00  0.00     0.180 C 
BRANCH  20  21
ATOM     21  N   ILE d   6    1983.448 599.668-2039.666  0.00  0.00    -0.346 N 
ATOM     22  C   SER d   5    1982.843 600.751-2040.020  0.00  0.00     0.243 C 
ATOM     23  O   SER d   5    1983.391 601.505-2040.825  0.00  0.00    -0.271 OA
ATOM     24  H   ILE d   6    1983.020 599.034-2039.007  0.00  0.00     0.163 HD
BRANCH  22  25
ATOM     25  CA  SER d   5    1981.484 601.057-2039.435  0.00  0.00     0.200 C 
BRANCH  25  26
ATOM     26  N   SER d   5    1980.615 599.886-2039.493  0.00  0.00    -0.344 N 
ATOM     27  C   GLU d   4    1980.387 599.333-2040.636  0.00  0.00     0.241 C 
ATOM     28  O   GLU d   4    1980.914 599.812-2041.651  0.00  0.00    -0.271 OA
ATOM     29  H   SER d   5    1980.198 599.514-2038.651  0.00  0.00     0.163 HD
BRANCH  27  30
ATOM     30  CA  GLU d   4    1979.489 598.122-2040.697  0.00  0.00     0.177 C 
BRANCH  30  31
ATOM     31  N   GLU d   4    1979.848 597.151-2039.668  0.00  0.00    -0.346 N 
ATOM     32  C   PRO d   3    1981.053 596.691-2039.635  0.00  0.00     0.241 C 
ATOM     33  O   PRO d   3    1981.876 597.074-2040.467  0.00  0.00    -0.271 OA
ATOM     34  H   GLU d   4    1979.164 596.844-2038.991  0.00  0.00     0.163 HD
BRANCH  32  35
ATOM     35  CA  PRO d   3    1981.451 595.667-2038.558  0.00  0.00     0.179 C 
ATOM     36  N   PRO d   3    1980.999 596.077-2037.237  0.00  0.00    -0.337 N 
ATOM     37  C   ASN d   2    1981.521 597.072-2036.603  0.00  0.00     0.243 C 
ATOM     38  CD  PRO d   3    1979.921 595.284-2036.688  0.00  0.00     0.127 C 
ATOM     39  O   ASN d   2    1982.436 597.702-2037.132  0.00  0.00    -0.271 OA
ATOM     40  CG  PRO d   3    1979.464 594.465-2037.898  0.00  0.00     0.022 C 
ATOM     41  CB  PRO d   3    1980.747 594.313-2038.728  0.00  0.00     0.037 C 
BRANCH  37  42
ATOM     42  CA  ASN d   2    1980.990 597.427-2035.234  0.00  0.00     0.185 C 
BRANCH  42  43
ATOM     43  N   ASN d   2    1979.530 597.466-2035.234  0.00  0.00    -0.346 N 
ATOM     44  C   GLU d   1    1978.926 598.252-2036.059  0.00  0.00     0.242 C 
ATOM     45  O   GLU d   1    1979.602 598.951-2036.828  0.00  0.00    -0.271 OA
ATOM     46  H   ASN d   2    1979.002 596.886-2034.598  0.00  0.00     0.163 HD
BRANCH  44  47
ATOM     47  CA  GLU d   1    1977.417 598.292-2036.059  0.00  0.00     0.191 C 
BRANCH  47  48
ATOM     48  N   GLU d   1    1976.858 596.943-2036.059  0.00  0.00    -0.326 NA
ATOM     49  H   GLU d   1    1977.485 596.064-2036.059  0.00  0.00     0.180 HD
ENDBRANCH  47  48
BRANCH  47  50
ATOM     50  CB  GLU d   1    1976.894 599.077-2034.822  0.00  0.00     0.047 C 
BRANCH  50  51
ATOM     51  CG  GLU d   1    1977.369 600.562-2034.711  0.00  0.00     0.116 C 
BRANCH  51  52
ATOM     52  CD  GLU d   1    1976.945 601.366-2033.496  0.00  0.00     0.172 C 
ATOM     53  OE1 GLU d   1    1976.217 600.864-2032.618  0.00  0.00    -0.648 OA
ATOM     54  OE2 GLU d   1    1977.375 602.536-2033.424  0.00  0.00    -0.648 OA
ENDBRANCH  51  52
ENDBRANCH  50  51
ENDBRANCH  47  50
ENDBRANCH  44  47
ENDBRANCH  42  43
BRANCH  42  55
ATOM     55  CB  ASN d   2    1981.482 596.404-2034.170  0.00  0.00     0.137 C 
BRANCH  55  56
ATOM     56  CG  ASN d   2    1981.018 596.628-2032.727  0.00  0.00     0.217 C 
ATOM     57  ND2 ASN d   2    1981.613 597.543-2032.008  0.00  0.00    -0.370 N 
ATOM     58 21HD ASN d   2    1981.132 597.716-2031.122  0.00  0.00     0.159 HD
ATOM     59 22HD ASN d   2    1982.314 598.115-2032.478  0.00  0.00     0.159 HD
ATOM     60  OD1 ASN d   2    1980.098 595.994-2032.232  0.00  0.00    -0.274 OA
ENDBRANCH  55  56
ENDBRANCH  42  55
ENDBRANCH  37  42
ENDBRANCH  32  35
ENDBRANCH  30  31
BRANCH  30  61
ATOM     61  CB  GLU d   4    1978.000 598.541-2040.527  0.00  0.00     0.045 C 
BRANCH  61  62
ATOM     62  CG  GLU d   4    1977.452 599.544-2041.593  0.00  0.00     0.116 C 
BRANCH  62  63
ATOM     63  CD  GLU d   4    1976.026 600.041-2041.449  0.00  0.00     0.172 C 
ATOM     64  OE1 GLU d   4    1975.299 599.643-2040.518  0.00  0.00    -0.648 OA
ATOM     65  OE2 GLU d   4    1975.636 600.870-2042.297  0.00  0.00    -0.648 OA
ENDBRANCH  62  63
ENDBRANCH  61  62
ENDBRANCH  30  61
ENDBRANCH  27  30
ENDBRANCH  25  26
BRANCH  25  66
ATOM     66  CB  SER d   5    1981.596 601.589-2037.984  0.00  0.00     0.199 C 
BRANCH  66  67
ATOM     67  OG  SER d   5    1982.328 600.710-2037.123  0.00  0.00    -0.398 OA
ATOM     68  HG  SER d   5    1981.839 599.885-2037.072  0.00  0.00     0.209 HD
ENDBRANCH  66  67
ENDBRANCH  25  66
ENDBRANCH  22  25
ENDBRANCH  20  21
BRANCH  20  69
ATOM     69  CB  ILE d   6    1985.361 598.037-2039.632  0.00  0.00     0.013 C 
ATOM     70  CG2 ILE d   6    1986.802 597.736-2040.147  0.00  0.00     0.012 C 
BRANCH  69  71
ATOM     71  CG1 ILE d   6    1985.381 597.975-2038.071  0.00  0.00     0.002 C 
ATOM     72  CD1 ILE d   6    1985.651 596.586-2037.456  0.00  0.00     0.005 C 
ENDBRANCH  69  71
ENDBRANCH  20  69
ENDBRANCH  17  20
ENDBRANCH  15  16
BRANCH  15  73
ATOM     73  CB  LEU d   7    1982.500 597.776-2044.252  0.00  0.00     0.038 C 
BRANCH  73  74
ATOM     74  CG  LEU d   7    1982.428 596.297-2043.786  0.00  0.00    -0.020 C 
ATOM     75  CD1 LEU d   7    1981.238 595.591-2044.452  0.00  0.00     0.009 C 
ATOM     76  CD2 LEU d   7    1983.722 595.518-2044.078  0.00  0.00     0.009 C 
ENDBRANCH  73  74
ENDBRANCH  15  73
ENDBRANCH  12  15
ENDBRANCH  10  11
BRANCH  10  77
ATOM     77  CB  ASP d   8    1981.644 603.060-2043.650  0.00  0.00     0.147 C 
BRANCH  77  78
ATOM     78  CG  ASP d   8    1981.425 604.481-2044.190  0.00  0.00     0.175 C 
ATOM     79  OD1 ASP d   8    1981.489 604.680-2045.421  0.00  0.00    -0.648 OA
ATOM     80  OD2 ASP d   8    1981.233 605.407-2043.374  0.00  0.00    -0.648 OA
ENDBRANCH  77  78
ENDBRANCH  10  77
ENDBRANCH   7  10
ENDBRANCH   5   6
BRANCH   5  81
ATOM     81  CB  GLU d   9    1986.685 603.302-2041.778  0.00  0.00     0.045 C 
BRANCH  81  82
ATOM     82  CG  GLU d   9    1988.067 603.995-2041.548  0.00  0.00     0.116 C 
BRANCH  82  83
ATOM     83  CD  GLU d   9    1988.769 603.781-2040.220  0.00  0.00     0.172 C 
ATOM     84  OE1 GLU d   9    1988.247 603.090-2039.324  0.00  0.00    -0.648 OA
ATOM     85  OE2 GLU d   9    1989.888 604.319-2040.088  0.00  0.00    -0.648 OA
ENDBRANCH  82  83
ENDBRANCH  81  82
ENDBRANCH   5  81
ENDBRANCH   1   5
BRANCH   3  86
ATOM     86  CA  HIS d  10    1987.954 601.196-2045.469  0.00  0.00     0.182 C 
BRANCH  86  87
ATOM     87  C   HIS d  10    1987.587 601.761-2046.820  0.00  0.00     0.241 C 
ATOM     88  O   HIS d  10    1988.440 602.226-2047.592  0.00  0.00    -0.271 OA
ATOM     89  N   VAL d  11    1986.350 601.760-2047.183  0.00  0.00    -0.346 N 
ATOM     90  H   VAL d  11    1985.637 601.387-2046.573  0.00  0.00     0.163 HD
BRANCH  89  91
ATOM     91  CA  VAL d  11    1985.995 602.306-2048.490  0.00  0.00     0.180 C 
BRANCH  91  92
ATOM     92  C   VAL d  11    1986.458 603.737-2048.623  0.00  0.00     0.241 C 
ATOM     93  O   VAL d  11    1987.059 604.142-2049.625  0.00  0.00    -0.271 OA
ATOM     94  N   ASP d  12    1986.221 604.562-2047.660  0.00  0.00    -0.345 N 
ATOM     95  H   ASP d  12    1985.732 604.255-2046.831  0.00  0.00     0.163 HD
BRANCH  94  96
ATOM     96  CA  ASP d  12    1986.669 605.946-2047.787  0.00  0.00     0.186 C 
BRANCH  96  97
ATOM     97  C   ASP d  12    1988.158 606.013-2048.025  0.00  0.00     0.241 C 
ATOM     98  O   ASP d  12    1988.651 606.728-2048.912  0.00  0.00    -0.271 OA
ATOM     99  N   ARG d  13    1988.943 605.306-2047.284  0.00  0.00    -0.346 N 
ATOM    100  H   ARG d  13    1988.566 604.716-2046.556  0.00  0.00     0.163 HD
BRANCH  99 101
ATOM    101  CA  ARG d  13    1990.383 605.371-2047.515  0.00  0.00     0.176 C 
BRANCH 101 102
ATOM    102  C   ARG d  13    1990.719 605.000-2048.940  0.00  0.00     0.241 C 
ATOM    103  O   ARG d  13    1991.488 605.671-2049.624  0.00  0.00    -0.271 OA
ATOM    104  N   VAL d  14    1990.182 603.946-2049.455  0.00  0.00    -0.346 N 
ATOM    105  H   VAL d  14    1989.547 603.377-2048.913  0.00  0.00     0.163 HD
BRANCH 104 106
ATOM    106  CA  VAL d  14    1990.507 603.587-2050.832  0.00  0.00     0.180 C 
BRANCH 106 107
ATOM    107  C   VAL d  14    1990.177 604.717-2051.778  0.00  0.00     0.241 C 
ATOM    108  O   VAL d  14    1990.971 605.098-2052.647  0.00  0.00    -0.271 OA
ATOM    109  N   MET d  15    1989.033 605.303-2051.676  0.00  0.00    -0.346 N 
ATOM    110  H   MET d  15    1988.368 605.010-2050.974  0.00  0.00     0.163 HD
BRANCH 109 111
ATOM    111  CA  MET d  15    1988.713 606.396-2052.590  0.00  0.00     0.177 C 
BRANCH 111 112
ATOM    112  C   MET d  15    1989.743 607.495-2052.502  0.00  0.00     0.241 C 
ATOM    113  O   MET d  15    1990.246 608.006-2053.515  0.00  0.00    -0.271 OA
ATOM    114  N   ARG d  16    1990.112 607.916-2051.340  0.00  0.00    -0.347 N 
ATOM    115  H   ARG d  16    1989.717 607.516-2050.500  0.00  0.00     0.163 HD
BRANCH 114 116
ATOM    116  CA  ARG d  16    1991.109 608.979-2051.256  0.00  0.00     0.162 C 
BRANCH 116 117
ATOM    117  C   ARG d  16    1992.380 608.586-2051.973  0.00  0.00     0.219 C 
ATOM    118  O   ARG d  16    1992.493 607.510-2052.554  0.00  0.00    -0.287 OA
ENDBRANCH 116 117
BRANCH 116 119
ATOM    119  CB  ARG d  16    1991.379 609.297-2049.758  0.00  0.00     0.035 C 
BRANCH 119 120
ATOM    120  CG  ARG d  16    1992.205 610.586-2049.485  0.00  0.00     0.023 C 
BRANCH 120 121
ATOM    121  CD  ARG d  16    1992.454 610.805-2047.984  0.00  0.00     0.138 C 
BRANCH 121 122
ATOM    122  NE  ARG d  16    1993.231 612.063-2047.783  0.00  0.00    -0.227 N 
ATOM    123  CZ  ARG d  16    1993.623 612.546-2046.607  0.00  0.00     0.665 C 
ATOM    124  NH1 ARG d  16    1993.375 611.961-2045.469  0.00  0.00    -0.235 N 
ATOM    125  NH2 ARG d  16    1994.287 613.658-2046.589  0.00  0.00    -0.235 N 
ATOM    126 11HH ARG d  16    1992.849 611.088-2045.553  0.00  0.00     0.174 HD
ATOM    127 12HH ARG d  16    1993.710 612.397-2044.608  0.00  0.00     0.174 HD
ATOM    128 21HH ARG d  16    1994.473 614.101-2047.491  0.00  0.00     0.174 HD
ATOM    129 22HH ARG d  16    1994.578 614.013-2045.676  0.00  0.00     0.174 HD
ATOM    130  HE  ARG d  16    1993.510 612.644-2048.580  0.00  0.00     0.177 HD
ENDBRANCH 121 122
ENDBRANCH 120 121
ENDBRANCH 119 120
ENDBRANCH 116 119
ENDBRANCH 114 116
ENDBRANCH 111 112
BRANCH 111 131
ATOM    131  CB  MET d  15    1987.292 606.942-2052.281  0.00  0.00     0.045 C 
BRANCH 131 132
ATOM    132  CG  MET d  15    1986.129 605.944-2052.472  0.00  0.00     0.076 C 
BRANCH 132 133
ATOM    133  SD  MET d  15    1984.556 606.811-2052.358  0.00  0.00    -0.173 SA
ATOM    134  CE  MET d  15    1983.474 605.382-2052.221  0.00  0.00     0.089 C 
ENDBRANCH 132 133
ENDBRANCH 131 132
ENDBRANCH 111 131
ENDBRANCH 109 111
ENDBRANCH 106 107
BRANCH 106 135
ATOM    135  CB  VAL d  14    1989.734 602.270-2051.239  0.00  0.00     0.009 C 
ATOM    136  CG1 VAL d  14    1989.823 601.852-2052.733  0.00  0.00     0.012 C 
ATOM    137  CG2 VAL d  14    1990.165 601.017-2050.439  0.00  0.00     0.012 C 
ENDBRANCH 106 135
ENDBRANCH 104 106
ENDBRANCH 101 102
BRANCH 101 138
ATOM    138  CB  ARG d  13    1991.096 604.432-2046.501  0.00  0.00     0.036 C 
BRANCH 138 139
ATOM    139  CG  ARG d  13    1992.641 604.584-2046.420  0.00  0.00     0.023 C 
BRANCH 139 140
ATOM    140  CD  ARG d  13    1993.267 603.596-2045.422  0.00  0.00     0.138 C 
BRANCH 140 141
ATOM    141  NE  ARG d  13    1994.745 603.803-2045.372  0.00  0.00    -0.227 N 
ATOM    142  CZ  ARG d  13    1995.592 603.110-2044.617  0.00  0.00     0.665 C 
ATOM    143  NH1 ARG d  13    1995.227 602.146-2043.820  0.00  0.00    -0.235 N 
ATOM    144  NH2 ARG d  13    1996.852 603.409-2044.674  0.00  0.00    -0.235 N 
ATOM    145 11HH ARG d  13    1994.221 601.960-2043.823  0.00  0.00     0.174 HD
ATOM    146 12HH ARG d  13    1995.940 601.662-2043.271  0.00  0.00     0.174 HD
ATOM    147 21HH ARG d  13    1997.120 604.167-2045.305  0.00  0.00     0.174 HD
ATOM    148 22HH ARG d  13    1997.487 602.867-2044.085  0.00  0.00     0.174 HD
ATOM    149  HE  ARG d  13    1995.196 604.525-2045.943  0.00  0.00     0.177 HD
ENDBRANCH 140 141
ENDBRANCH 139 140
ENDBRANCH 138 139
ENDBRANCH 101 138
ENDBRANCH  99 101
ENDBRANCH  96  97
BRANCH  96 150
ATOM    150  CB  ASP d  12    1986.270 606.767-2046.529  0.00  0.00     0.147 C 
BRANCH 150 151
ATOM    151  CG  ASP d  12    1986.625 608.261-2046.575  0.00  0.00     0.175 C 
ATOM    152  OD1 ASP d  12    1986.526 608.876-2047.657  0.00  0.00    -0.648 OA
ATOM    153  OD2 ASP d  12    1987.046 608.806-2045.534  0.00  0.00    -0.648 OA
ENDBRANCH 150 151
ENDBRANCH  96 150
ENDBRANCH  94  96
ENDBRANCH  91  92
BRANCH  91 154
ATOM    154  CB  VAL d  11    1984.433 602.199-2048.710  0.00  0.00     0.009 C 
ATOM    155  CG1 VAL d  11    1983.865 602.903-2049.972  0.00  0.00     0.012 C 
ATOM    156  CG2 VAL d  11    1983.909 600.745-2048.783  0.00  0.00     0.012 C 
ENDBRANCH  91 154
ENDBRANCH  89  91
ENDBRANCH  86  87
BRANCH  86 157
ATOM    157  CB  HIS d  10    1987.790 599.667-2045.464  0.00  0.00     0.095 C 
BRANCH 157 158
ATOM    158  CG  HIS d  10    1989.076 598.957-2045.156  0.00  0.00     0.053 A 
ATOM    159  CD2 HIS d  10    1989.457 598.622-2043.864  0.00  0.00     0.116 A 
ATOM    160  NE2 HIS d  10    1990.672 597.990-2043.930  0.00  0.00    -0.359 N 
ATOM    161  CE1 HIS d  10    1990.935 597.993-2045.265  0.00  0.00     0.207 A 
ATOM    162  2HE HIS d  10    1991.238 597.613-2043.157  0.00  0.00     0.166 HD
ATOM    163  ND1 HIS d  10    1990.028 598.552-2046.089  0.00  0.00    -0.247 NA
ENDBRANCH 157 158
ENDBRANCH  86 157
ENDBRANCH   3  86
TORSDOF 67
