REMARK WARNING: 32 MAX_TORS EXCEEDED!!!
REMARK  70 active torsions:
REMARK  status: ('A' for Active; 'I' for Inactive)
REMARK    1  A    between atoms: N_1  and  CA_2 
REMARK    2  A    between atoms: CA_2  and  C_3 
REMARK    3  A    between atoms: CA_2  and  CB_5 
REMARK       I    between atoms: C_3  and  N_11 
REMARK    4  A    between atoms: CB_5  and  CG_6 
REMARK    5  A    between atoms: CG_6  and  CD_7 
REMARK    6  A    between atoms: N_11  and  CA_12 
REMARK    7  A    between atoms: CA_12  and  C_13 
REMARK    8  A    between atoms: CA_12  and  CB_15 
REMARK       I    between atoms: C_13  and  N_22 
REMARK    9  A    between atoms: CB_15  and  CG_16 
REMARK       I    between atoms: CG_16  and  ND2_17 
REMARK   10  A    between atoms: CA_23  and  C_24 
REMARK       I    between atoms: C_24  and  N_29 
REMARK   11  A    between atoms: N_29  and  CA_30 
REMARK   12  A    between atoms: CA_30  and  C_31 
REMARK   13  A    between atoms: CA_30  and  CB_33 
REMARK       I    between atoms: C_31  and  N_39 
REMARK   14  A    between atoms: CB_33  and  CG_34 
REMARK   15  A    between atoms: CG_34  and  CD_35 
REMARK   16  A    between atoms: N_39  and  CA_40 
REMARK   17  A    between atoms: CA_40  and  C_41 
REMARK   18  A    between atoms: CA_40  and  CB_43 
REMARK       I    between atoms: C_41  and  N_47 
REMARK   19  A    between atoms: CB_43  and  OG_44 
REMARK   20  A    between atoms: N_47  and  CA_48 
REMARK   21  A    between atoms: CA_48  and  C_49 
REMARK   22  A    between atoms: CA_48  and  CB_51 
REMARK       I    between atoms: C_49  and  N_56 
REMARK   23  A    between atoms: CB_51  and  CG1_52 
REMARK   24  A    between atoms: N_56  and  CA_57 
REMARK   25  A    between atoms: CA_57  and  C_58 
REMARK   26  A    between atoms: CA_57  and  CB_60 
REMARK       I    between atoms: C_58  and  N_65 
REMARK   27  A    between atoms: CB_60  and  CG_61 
REMARK   28  A    between atoms: N_65  and  CA_66 
REMARK   29  A    between atoms: CA_66  and  C_67 
REMARK   30  A    between atoms: CA_66  and  CB_69 
REMARK       I    between atoms: C_67  and  N_74 
REMARK   31  A    between atoms: CB_69  and  CG_70 
REMARK   32  A    between atoms: N_74  and  CA_75 
REMARK   33  A    between atoms: CA_75  and  C_76 
REMARK   34  A    between atoms: CA_75  and  CB_78 
REMARK       I    between atoms: C_76  and  N_84 
REMARK   35  A    between atoms: CB_78  and  CG_79 
REMARK   36  A    between atoms: CG_79  and  CD_80 
REMARK   37  A    between atoms: N_84  and  CA_85 
REMARK   38  A    between atoms: CA_85  and  C_86 
REMARK   39  A    between atoms: CA_85  and  CB_88 
REMARK       I    between atoms: C_86  and  N_96 
REMARK   40  A    between atoms: CB_88  and  CG_89 
REMARK   41  A    between atoms: N_96  and  CA_97 
REMARK   42  A    between atoms: CA_97  and  C_98 
REMARK   43  A    between atoms: CA_97  and  CB_100 
REMARK       I    between atoms: C_98  and  N_106 
REMARK   44  A    between atoms: CB_100  and  CG_101 
REMARK   45  A    between atoms: CG_101  and  CD_102 
REMARK   46  A    between atoms: N_106  and  CA_107 
REMARK   47  A    between atoms: CA_107  and  C_108 
REMARK   48  A    between atoms: CA_107  and  CB_110 
REMARK       I    between atoms: C_108  and  N_118 
REMARK   49  A    between atoms: CB_110  and  CG_111 
REMARK   50  A    between atoms: CG_111  and  CD_112 
REMARK       I    between atoms: CD_112  and  NE2_113 
REMARK   51  A    between atoms: N_118  and  CA_119 
REMARK   52  A    between atoms: CA_119  and  C_120 
REMARK   53  A    between atoms: CA_119  and  CB_122 
REMARK       I    between atoms: C_120  and  N_135 
REMARK   54  A    between atoms: CB_122  and  CG_123 
REMARK   55  A    between atoms: CG_123  and  CD_124 
REMARK   56  A    between atoms: CD_124  and  NE_125 
REMARK       I    between atoms: NE_125  and  CZ_126 
REMARK       I    between atoms: CZ_126  and  NH1_127 
REMARK       I    between atoms: CZ_126  and  NH2_128 
REMARK   57  A    between atoms: N_135  and  CA_136 
REMARK   58  A    between atoms: CA_136  and  C_137 
REMARK   59  A    between atoms: CA_136  and  CB_139 
REMARK       I    between atoms: C_137  and  N_143 
REMARK   60  A    between atoms: N_143  and  CA_144 
REMARK   61  A    between atoms: CA_144  and  C_145 
REMARK   62  A    between atoms: CA_144  and  CB_147 
REMARK       I    between atoms: C_145  and  N_152 
REMARK   63  A    between atoms: CB_147  and  CG_148 
REMARK   64  A    between atoms: CG_148  and  SD_149 
REMARK   65  A    between atoms: N_152  and  CA_153 
REMARK   66  A    between atoms: CA_153  and  C_154 
REMARK   67  A    between atoms: CA_153  and  CB_156 
REMARK   68  A    between atoms: CB_156  and  CG_157 
REMARK   69  A    between atoms: CG_157  and  CD_158 
REMARK   70  A    between atoms: CD_158  and  NE_159 
REMARK       I    between atoms: NE_159  and  CZ_160 
REMARK       I    between atoms: CZ_160  and  NH1_161 
ROOT
ATOM      1  C   GLU d   9    1831.264 552.964-1874.875  0.00  0.00     0.241 C 
ATOM      2  O   GLU d   9    1831.928 553.719-1875.600  0.00  0.00    -0.271 OA
ATOM      3  N   HIS d  10    1831.361 551.689-1875.045  0.00  0.00    -0.346 N 
ATOM      4  H   HIS d  10    1830.831 551.053-1874.466  0.00  0.00     0.163 HD
ENDROOT
BRANCH   3   5
ATOM      5  CA  HIS d  10    1832.250 551.178-1876.085  0.00  0.00     0.182 C 
BRANCH   5   6
ATOM      6  C   HIS d  10    1831.883 551.743-1877.436  0.00  0.00     0.241 C 
ATOM      7  O   HIS d  10    1832.735 552.208-1878.208  0.00  0.00    -0.271 OA
ATOM      8  N   GLU d  11    1830.645 551.742-1877.799  0.00  0.00    -0.346 N 
ATOM      9  H   GLU d  11    1829.932 551.368-1877.189  0.00  0.00     0.163 HD
BRANCH   8  10
ATOM     10  CA  GLU d  11    1830.290 552.288-1879.106  0.00  0.00     0.177 C 
BRANCH  10  11
ATOM     11  C   GLU d  11    1830.753 553.719-1879.238  0.00  0.00     0.241 C 
ATOM     12  O   GLU d  11    1831.355 554.124-1880.243  0.00  0.00    -0.271 OA
ATOM     13  N   GLN d  12    1830.515 554.544-1878.276  0.00  0.00    -0.346 N 
ATOM     14  H   GLN d  12    1830.027 554.238-1877.447  0.00  0.00     0.163 HD
BRANCH  13  15
ATOM     15  CA  GLN d  12    1830.963 555.927-1878.403  0.00  0.00     0.177 C 
BRANCH  15  16
ATOM     16  C   GLN d  12    1832.453 555.996-1878.641  0.00  0.00     0.241 C 
ATOM     17  O   GLN d  12    1832.940 556.704-1879.519  0.00  0.00    -0.271 OA
ATOM     18  N   ARG d  13    1833.238 555.289-1877.900  0.00  0.00    -0.346 N 
ATOM     19  H   ARG d  13    1832.862 554.699-1877.172  0.00  0.00     0.163 HD
BRANCH  18  20
ATOM     20  CA  ARG d  13    1834.678 555.356-1878.130  0.00  0.00     0.176 C 
BRANCH  20  21
ATOM     21  C   ARG d  13    1835.015 554.985-1879.556  0.00  0.00     0.241 C 
ATOM     22  O   ARG d  13    1835.783 555.658-1880.239  0.00  0.00    -0.271 OA
ATOM     23  N   VAL d  14    1834.479 553.930-1880.070  0.00  0.00    -0.346 N 
ATOM     24  H   VAL d  14    1833.845 553.361-1879.529  0.00  0.00     0.163 HD
BRANCH  23  25
ATOM     25  CA  VAL d  14    1834.805 553.572-1881.448  0.00  0.00     0.180 C 
BRANCH  25  26
ATOM     26  C   VAL d  14    1834.474 554.702-1882.393  0.00  0.00     0.241 C 
ATOM     27  O   VAL d  14    1835.267 555.084-1883.263  0.00  0.00    -0.271 OA
ATOM     28  N   MET d  15    1833.329 555.287-1882.292  0.00  0.00    -0.346 N 
ATOM     29  H   MET d  15    1832.664 554.994-1881.590  0.00  0.00     0.163 HD
BRANCH  28  30
ATOM     30  CA  MET d  15    1833.008 556.380-1883.205  0.00  0.00     0.177 C 
BRANCH  30  31
ATOM     31  C   MET d  15    1834.038 557.480-1883.117  0.00  0.00     0.241 C 
ATOM     32  O   MET d  15    1834.540 557.991-1884.129  0.00  0.00    -0.271 OA
ATOM     33  N   ARG d  16    1834.406 557.901-1881.954  0.00  0.00    -0.347 N 
ATOM     34  H   ARG d  16    1834.012 557.501-1881.115  0.00  0.00     0.163 HD
BRANCH  33  35
ATOM     35  CA  ARG d  16    1835.402 558.965-1881.870  0.00  0.00     0.162 C 
BRANCH  35  36
ATOM     36  C   ARG d  16    1836.673 558.573-1882.587  0.00  0.00     0.219 C 
ATOM     37  O   ARG d  16    1836.788 557.497-1883.168  0.00  0.00    -0.287 OA
ENDBRANCH  35  36
BRANCH  35  38
ATOM     38  CB  ARG d  16    1835.671 559.283-1880.372  0.00  0.00     0.035 C 
BRANCH  38  39
ATOM     39  CG  ARG d  16    1836.496 560.572-1880.099  0.00  0.00     0.023 C 
BRANCH  39  40
ATOM     40  CD  ARG d  16    1836.745 560.792-1878.598  0.00  0.00     0.138 C 
BRANCH  40  41
ATOM     41  NE  ARG d  16    1837.521 562.051-1878.396  0.00  0.00    -0.227 N 
ATOM     42  CZ  ARG d  16    1837.912 562.533-1877.220  0.00  0.00     0.665 C 
ATOM     43  NH1 ARG d  16    1837.664 561.948-1876.082  0.00  0.00    -0.235 N 
ATOM     44  NH2 ARG d  16    1838.575 563.646-1877.202  0.00  0.00    -0.235 N 
ATOM     45 11HH ARG d  16    1837.139 561.075-1876.167  0.00  0.00     0.174 HD
ATOM     46 12HH ARG d  16    1837.998 562.384-1875.221  0.00  0.00     0.174 HD
ATOM     47 21HH ARG d  16    1838.760 564.089-1878.103  0.00  0.00     0.174 HD
ATOM     48 22HH ARG d  16    1838.865 564.001-1876.289  0.00  0.00     0.174 HD
ATOM     49  HE  ARG d  16    1837.799 562.632-1879.193  0.00  0.00     0.177 HD
ENDBRANCH  40  41
ENDBRANCH  39  40
ENDBRANCH  38  39
ENDBRANCH  35  38
ENDBRANCH  33  35
ENDBRANCH  30  31
BRANCH  30  50
ATOM     50  CB  MET d  15    1831.586 556.925-1882.896  0.00  0.00     0.045 C 
BRANCH  50  51
ATOM     51  CG  MET d  15    1830.425 555.926-1883.088  0.00  0.00     0.076 C 
BRANCH  51  52
ATOM     52  SD  MET d  15    1828.851 556.792-1882.974  0.00  0.00    -0.173 SA
ATOM     53  CE  MET d  15    1827.770 555.361-1882.838  0.00  0.00     0.089 C 
ENDBRANCH  51  52
ENDBRANCH  50  51
ENDBRANCH  30  50
ENDBRANCH  28  30
ENDBRANCH  25  26
BRANCH  25  54
ATOM     54  CB  VAL d  14    1834.033 552.254-1881.855  0.00  0.00     0.009 C 
ATOM     55  CG1 VAL d  14    1834.123 551.837-1883.349  0.00  0.00     0.012 C 
ATOM     56  CG2 VAL d  14    1834.466 551.002-1881.055  0.00  0.00     0.012 C 
ENDBRANCH  25  54
ENDBRANCH  23  25
ENDBRANCH  20  21
BRANCH  20  57
ATOM     57  CB  ARG d  13    1835.392 554.417-1877.117  0.00  0.00     0.036 C 
BRANCH  57  58
ATOM     58  CG  ARG d  13    1836.937 554.571-1877.036  0.00  0.00     0.023 C 
BRANCH  58  59
ATOM     59  CD  ARG d  13    1837.564 553.584-1876.038  0.00  0.00     0.138 C 
BRANCH  59  60
ATOM     60  NE  ARG d  13    1839.042 553.792-1875.987  0.00  0.00    -0.227 N 
ATOM     61  CZ  ARG d  13    1839.890 553.101-1875.232  0.00  0.00     0.665 C 
ATOM     62  NH1 ARG d  13    1839.525 552.136-1874.435  0.00  0.00    -0.235 N 
ATOM     63  NH2 ARG d  13    1841.149 553.401-1875.289  0.00  0.00    -0.235 N 
ATOM     64 11HH ARG d  13    1838.520 551.949-1874.438  0.00  0.00     0.174 HD
ATOM     65 12HH ARG d  13    1840.239 551.653-1873.886  0.00  0.00     0.174 HD
ATOM     66 21HH ARG d  13    1841.416 554.159-1875.920  0.00  0.00     0.174 HD
ATOM     67 22HH ARG d  13    1841.785 552.859-1874.700  0.00  0.00     0.174 HD
ATOM     68  HE  ARG d  13    1839.492 554.515-1876.558  0.00  0.00     0.177 HD
ENDBRANCH  59  60
ENDBRANCH  58  59
ENDBRANCH  57  58
ENDBRANCH  20  57
ENDBRANCH  18  20
ENDBRANCH  15  16
BRANCH  15  69
ATOM     69  CB  GLN d  12    1830.572 556.695-1877.120  0.00  0.00     0.044 C 
BRANCH  69  70
ATOM     70  CG  GLN d  12    1830.931 558.217-1877.089  0.00  0.00     0.105 C 
BRANCH  70  71
ATOM     71  CD  GLN d  12    1830.628 559.030-1875.824  0.00  0.00     0.215 C 
ATOM     72  NE2 GLN d  12    1830.061 558.453-1874.796  0.00  0.00    -0.370 N 
ATOM     73 21HE GLN d  12    1829.954 559.048-1873.972  0.00  0.00     0.159 HD
ATOM     74 22HE GLN d  12    1829.898 557.449-1874.899  0.00  0.00     0.159 HD
ATOM     75  OE1 GLN d  12    1830.929 560.211-1875.747  0.00  0.00    -0.274 OA
ENDBRANCH  70  71
ENDBRANCH  69  70
ENDBRANCH  15  69
ENDBRANCH  13  15
ENDBRANCH  10  11
BRANCH  10  76
ATOM     76  CB  GLU d  11    1828.751 552.194-1879.314  0.00  0.00     0.045 C 
BRANCH  76  77
ATOM     77  CG  GLU d  11    1828.221 552.697-1880.696  0.00  0.00     0.116 C 
BRANCH  77  78
ATOM     78  CD  GLU d  11    1826.724 552.690-1880.940  0.00  0.00     0.172 C 
ATOM     79  OE1 GLU d  11    1825.935 552.272-1880.071  0.00  0.00    -0.648 OA
ATOM     80  OE2 GLU d  11    1826.336 553.135-1882.041  0.00  0.00    -0.648 OA
ENDBRANCH  77  78
ENDBRANCH  76  77
ENDBRANCH  10  76
ENDBRANCH   8  10
ENDBRANCH   5   6
BRANCH   5  81
ATOM     81  CB  HIS d  10    1832.086 549.649-1876.081  0.00  0.00     0.095 C 
BRANCH  81  82
ATOM     82  CG  HIS d  10    1833.372 548.939-1875.773  0.00  0.00     0.053 A 
ATOM     83  CD2 HIS d  10    1833.753 548.604-1874.480  0.00  0.00     0.116 A 
ATOM     84  NE2 HIS d  10    1834.968 547.973-1874.547  0.00  0.00    -0.359 N 
ATOM     85  CE1 HIS d  10    1835.231 547.976-1875.882  0.00  0.00     0.207 A 
ATOM     86  2HE HIS d  10    1835.535 547.596-1873.774  0.00  0.00     0.166 HD
ATOM     87  ND1 HIS d  10    1834.325 548.534-1876.705  0.00  0.00    -0.247 NA
ENDBRANCH  81  82
ENDBRANCH   5  81
ENDBRANCH   3   5
BRANCH   1  88
ATOM     88  CA  GLU d   9    1830.346 553.491-1873.799  0.00  0.00     0.177 C 
BRANCH  88  89
ATOM     89  N   GLU d   9    1829.043 552.833-1873.855  0.00  0.00    -0.346 N 
ATOM     90  C   ASP d   8    1828.363 552.883-1874.950  0.00  0.00     0.241 C 
ATOM     91  O   ASP d   8    1828.836 553.488-1875.924  0.00  0.00    -0.271 OA
ATOM     92  H   GLU d   9    1828.680 552.346-1873.048  0.00  0.00     0.163 HD
BRANCH  90  93
ATOM     93  CA  ASP d   8    1827.017 552.203-1875.007  0.00  0.00     0.186 C 
BRANCH  93  94
ATOM     94  N   ASP d   8    1827.088 550.853-1874.454  0.00  0.00    -0.346 N 
ATOM     95  C   LEU d   7    1827.925 550.013-1874.960  0.00  0.00     0.241 C 
ATOM     96  O   LEU d   7    1828.646 550.376-1875.902  0.00  0.00    -0.271 OA
ATOM     97  H   ASP d   8    1826.490 550.582-1873.687  0.00  0.00     0.163 HD
BRANCH  95  98
ATOM     98  CA  LEU d   7    1827.998 548.618-1874.388  0.00  0.00     0.177 C 
BRANCH  98  99
ATOM     99  N   LEU d   7    1828.053 548.654-1872.929  0.00  0.00    -0.346 N 
ATOM    100  C   ILE d   6    1828.998 549.317-1872.356  0.00  0.00     0.241 C 
ATOM    101  O   ILE d   6    1829.833 549.905-1873.060  0.00  0.00    -0.271 OA
ATOM    102  H   LEU d   7    1827.361 548.166-1872.378  0.00  0.00     0.163 HD
BRANCH 100 103
ATOM    103  CA  ILE d   6    1829.056 549.355-1870.848  0.00  0.00     0.180 C 
BRANCH 103 104
ATOM    104  N   ILE d   6    1827.742 549.649-1870.282  0.00  0.00    -0.346 N 
ATOM    105  C   SER d   5    1827.138 550.732-1870.636  0.00  0.00     0.243 C 
ATOM    106  O   SER d   5    1827.685 551.486-1871.441  0.00  0.00    -0.271 OA
ATOM    107  H   ILE d   6    1827.314 549.015-1869.623  0.00  0.00     0.163 HD
BRANCH 105 108
ATOM    108  CA  SER d   5    1825.779 551.038-1870.050  0.00  0.00     0.200 C 
BRANCH 108 109
ATOM    109  N   SER d   5    1824.909 549.867-1870.109  0.00  0.00    -0.344 N 
ATOM    110  C   GLU d   4    1824.682 549.314-1871.252  0.00  0.00     0.241 C 
ATOM    111  O   GLU d   4    1825.208 549.794-1872.266  0.00  0.00    -0.271 OA
ATOM    112  H   SER d   5    1824.492 549.495-1869.267  0.00  0.00     0.163 HD
BRANCH 110 113
ATOM    113  CA  GLU d   4    1823.783 548.103-1871.313  0.00  0.00     0.177 C 
BRANCH 113 114
ATOM    114  N   GLU d   4    1824.142 547.132-1870.283  0.00  0.00    -0.346 N 
ATOM    115  C   PRO d   3    1825.347 546.672-1870.251  0.00  0.00     0.241 C 
ATOM    116  O   PRO d   3    1826.171 547.055-1871.083  0.00  0.00    -0.271 OA
ATOM    117  H   GLU d   4    1823.458 546.825-1869.607  0.00  0.00     0.163 HD
BRANCH 115 118
ATOM    118  CA  PRO d   3    1825.745 545.648-1869.174  0.00  0.00     0.179 C 
ATOM    119  N   PRO d   3    1825.293 546.058-1867.853  0.00  0.00    -0.337 N 
ATOM    120  C   ASN d   2    1825.815 547.053-1867.219  0.00  0.00     0.243 C 
ATOM    121  CD  PRO d   3    1824.216 545.265-1867.303  0.00  0.00     0.127 C 
ATOM    122  O   ASN d   2    1826.730 547.683-1867.747  0.00  0.00    -0.271 OA
ATOM    123  CG  PRO d   3    1823.758 544.446-1868.513  0.00  0.00     0.022 C 
ATOM    124  CB  PRO d   3    1825.041 544.294-1869.344  0.00  0.00     0.037 C 
BRANCH 120 125
ATOM    125  CA  ASN d   2    1825.284 547.408-1865.850  0.00  0.00     0.185 C 
BRANCH 125 126
ATOM    126  N   ASN d   2    1823.825 547.447-1865.850  0.00  0.00    -0.346 N 
ATOM    127  C   GLU d   1    1823.220 548.233-1866.675  0.00  0.00     0.242 C 
ATOM    128  O   GLU d   1    1823.896 548.932-1867.444  0.00  0.00    -0.271 OA
ATOM    129  H   ASN d   2    1823.296 546.867-1865.214  0.00  0.00     0.163 HD
BRANCH 127 130
ATOM    130  CA  GLU d   1    1821.711 548.273-1866.675  0.00  0.00     0.191 C 
BRANCH 130 131
ATOM    131  N   GLU d   1    1821.152 546.924-1866.675  0.00  0.00    -0.326 NA
ATOM    132  H   GLU d   1    1821.779 546.045-1866.675  0.00  0.00     0.180 HD
ENDBRANCH 130 131
BRANCH 130 133
ATOM    133  CB  GLU d   1    1821.188 549.058-1865.438  0.00  0.00     0.047 C 
BRANCH 133 134
ATOM    134  CG  GLU d   1    1821.663 550.543-1865.327  0.00  0.00     0.116 C 
BRANCH 134 135
ATOM    135  CD  GLU d   1    1821.239 551.347-1864.112  0.00  0.00     0.172 C 
ATOM    136  OE1 GLU d   1    1820.511 550.845-1863.234  0.00  0.00    -0.648 OA
ATOM    137  OE2 GLU d   1    1821.669 552.517-1864.040  0.00  0.00    -0.648 OA
ENDBRANCH 134 135
ENDBRANCH 133 134
ENDBRANCH 130 133
ENDBRANCH 127 130
ENDBRANCH 125 126
BRANCH 125 138
ATOM    138  CB  ASN d   2    1825.776 546.385-1864.786  0.00  0.00     0.137 C 
BRANCH 138 139
ATOM    139  CG  ASN d   2    1825.313 546.609-1863.342  0.00  0.00     0.217 C 
ATOM    140  ND2 ASN d   2    1825.907 547.524-1862.624  0.00  0.00    -0.370 N 
ATOM    141 21HD ASN d   2    1825.426 547.697-1861.738  0.00  0.00     0.159 HD
ATOM    142 22HD ASN d   2    1826.609 548.096-1863.093  0.00  0.00     0.159 HD
ATOM    143  OD1 ASN d   2    1824.392 545.975-1862.848  0.00  0.00    -0.274 OA
ENDBRANCH 138 139
ENDBRANCH 125 138
ENDBRANCH 120 125
ENDBRANCH 115 118
ENDBRANCH 113 114
BRANCH 113 144
ATOM    144  CB  GLU d   4    1822.294 548.522-1871.143  0.00  0.00     0.045 C 
BRANCH 144 145
ATOM    145  CG  GLU d   4    1821.746 549.525-1872.208  0.00  0.00     0.116 C 
BRANCH 145 146
ATOM    146  CD  GLU d   4    1820.320 550.022-1872.065  0.00  0.00     0.172 C 
ATOM    147  OE1 GLU d   4    1819.593 549.624-1871.134  0.00  0.00    -0.648 OA
ATOM    148  OE2 GLU d   4    1819.930 550.851-1872.913  0.00  0.00    -0.648 OA
ENDBRANCH 145 146
ENDBRANCH 144 145
ENDBRANCH 113 144
ENDBRANCH 110 113
ENDBRANCH 108 109
BRANCH 108 149
ATOM    149  CB  SER d   5    1825.890 551.570-1868.600  0.00  0.00     0.199 C 
BRANCH 149 150
ATOM    150  OG  SER d   5    1826.622 550.691-1867.739  0.00  0.00    -0.398 OA
ATOM    151  HG  SER d   5    1826.133 549.866-1867.688  0.00  0.00     0.209 HD
ENDBRANCH 149 150
ENDBRANCH 108 149
ENDBRANCH 105 108
ENDBRANCH 103 104
BRANCH 103 152
ATOM    152  CB  ILE d   6    1829.655 548.018-1870.248  0.00  0.00     0.013 C 
ATOM    153  CG2 ILE d   6    1831.097 547.717-1870.763  0.00  0.00     0.012 C 
BRANCH 152 154
ATOM    154  CG1 ILE d   6    1829.675 547.956-1868.687  0.00  0.00     0.002 C 
ATOM    155  CD1 ILE d   6    1829.945 546.567-1868.072  0.00  0.00     0.005 C 
ENDBRANCH 152 154
ENDBRANCH 103 152
ENDBRANCH 100 103
ENDBRANCH  98  99
BRANCH  98 156
ATOM    156  CB  LEU d   7    1826.795 547.757-1874.868  0.00  0.00     0.038 C 
BRANCH 156 157
ATOM    157  CG  LEU d   7    1826.722 546.278-1874.402  0.00  0.00    -0.020 C 
ATOM    158  CD1 LEU d   7    1825.532 545.572-1875.067  0.00  0.00     0.009 C 
ATOM    159  CD2 LEU d   7    1828.016 545.499-1874.693  0.00  0.00     0.009 C 
ENDBRANCH 156 157
ENDBRANCH  98 156
ENDBRANCH  95  98
ENDBRANCH  93  94
BRANCH  93 160
ATOM    160  CB  ASP d   8    1825.939 553.041-1874.266  0.00  0.00     0.147 C 
BRANCH 160 161
ATOM    161  CG  ASP d   8    1825.720 554.462-1874.806  0.00  0.00     0.175 C 
ATOM    162  OD1 ASP d   8    1825.784 554.661-1876.036  0.00  0.00    -0.648 OA
ATOM    163  OD2 ASP d   8    1825.527 555.388-1873.990  0.00  0.00    -0.648 OA
ENDBRANCH 160 161
ENDBRANCH  93 160
ENDBRANCH  90  93
ENDBRANCH  88  89
BRANCH  88 164
ATOM    164  CB  GLU d   9    1830.979 553.283-1872.393  0.00  0.00     0.045 C 
BRANCH 164 165
ATOM    165  CG  GLU d   9    1832.361 553.976-1872.164  0.00  0.00     0.116 C 
BRANCH 165 166
ATOM    166  CD  GLU d   9    1833.063 553.762-1870.836  0.00  0.00     0.172 C 
ATOM    167  OE1 GLU d   9    1832.542 553.071-1869.940  0.00  0.00    -0.648 OA
ATOM    168  OE2 GLU d   9    1834.182 554.301-1870.703  0.00  0.00    -0.648 OA
ENDBRANCH 165 166
ENDBRANCH 164 165
ENDBRANCH  88 164
ENDBRANCH   1  88
TORSDOF 70
