REMARK WARNING: 32 MAX_TORS EXCEEDED!!!
REMARK  71 active torsions:
REMARK  status: ('A' for Active; 'I' for Inactive)
REMARK    1  A    between atoms: N_1  and  CA_2 
REMARK    2  A    between atoms: CA_2  and  C_3 
REMARK    3  A    between atoms: CA_2  and  CB_5 
REMARK       I    between atoms: C_3  and  N_11 
REMARK    4  A    between atoms: CB_5  and  CG_6 
REMARK    5  A    between atoms: CG_6  and  CD_7 
REMARK    6  A    between atoms: N_11  and  CA_12 
REMARK    7  A    between atoms: CA_12  and  C_13 
REMARK    8  A    between atoms: CA_12  and  CB_15 
REMARK       I    between atoms: C_13  and  N_22 
REMARK    9  A    between atoms: CB_15  and  CG_16 
REMARK       I    between atoms: CG_16  and  ND2_17 
REMARK   10  A    between atoms: CA_23  and  C_24 
REMARK       I    between atoms: C_24  and  N_29 
REMARK   11  A    between atoms: N_29  and  CA_30 
REMARK   12  A    between atoms: CA_30  and  C_31 
REMARK   13  A    between atoms: CA_30  and  CB_33 
REMARK       I    between atoms: C_31  and  N_39 
REMARK   14  A    between atoms: CB_33  and  CG_34 
REMARK   15  A    between atoms: CG_34  and  CD_35 
REMARK   16  A    between atoms: N_39  and  CA_40 
REMARK   17  A    between atoms: CA_40  and  C_41 
REMARK   18  A    between atoms: CA_40  and  CB_43 
REMARK       I    between atoms: C_41  and  N_47 
REMARK   19  A    between atoms: CB_43  and  OG_44 
REMARK   20  A    between atoms: N_47  and  CA_48 
REMARK   21  A    between atoms: CA_48  and  C_49 
REMARK   22  A    between atoms: CA_48  and  CB_51 
REMARK       I    between atoms: C_49  and  N_60 
REMARK   23  A    between atoms: CB_51  and  CG_52 
REMARK   24  A    between atoms: CG_52  and  CD_53 
REMARK   25  A    between atoms: CD_53  and  CE_54 
REMARK   26  A    between atoms: CE_54  and  NZ_55 
REMARK   27  A    between atoms: N_60  and  CA_61 
REMARK   28  A    between atoms: CA_61  and  C_62 
REMARK   29  A    between atoms: CA_61  and  CB_64 
REMARK       I    between atoms: C_62  and  N_69 
REMARK   30  A    between atoms: CB_64  and  CG_65 
REMARK   31  A    between atoms: N_69  and  CA_70 
REMARK   32  A    between atoms: CA_70  and  C_71 
REMARK   33  A    between atoms: CA_70  and  CB_73 
REMARK       I    between atoms: C_71  and  N_78 
REMARK   34  A    between atoms: CB_73  and  CG_74 
REMARK   35  A    between atoms: N_78  and  CA_79 
REMARK   36  A    between atoms: CA_79  and  C_80 
REMARK   37  A    between atoms: CA_79  and  CB_82 
REMARK       I    between atoms: C_80  and  N_88 
REMARK   38  A    between atoms: CB_82  and  CG_83 
REMARK   39  A    between atoms: CG_83  and  CD_84 
REMARK   40  A    between atoms: N_88  and  CA_89 
REMARK   41  A    between atoms: CA_89  and  C_90 
REMARK   42  A    between atoms: CA_89  and  CB_92 
REMARK       I    between atoms: C_90  and  N_100 
REMARK   43  A    between atoms: CB_92  and  CG_93 
REMARK   44  A    between atoms: N_100  and  CA_101 
REMARK   45  A    between atoms: CA_101  and  C_102 
REMARK   46  A    between atoms: CA_101  and  CB_104 
REMARK       I    between atoms: C_102  and  N_108 
REMARK   47  A    between atoms: N_108  and  CA_109 
REMARK   48  A    between atoms: CA_109  and  C_110 
REMARK   49  A    between atoms: CA_109  and  CB_112 
REMARK       I    between atoms: C_110  and  N_120 
REMARK   50  A    between atoms: CB_112  and  CG_113 
REMARK   51  A    between atoms: CG_113  and  CD_114 
REMARK       I    between atoms: CD_114  and  NE2_115 
REMARK   52  A    between atoms: N_120  and  CA_121 
REMARK   53  A    between atoms: CA_121  and  C_122 
REMARK   54  A    between atoms: CA_121  and  CB_124 
REMARK       I    between atoms: C_122  and  N_137 
REMARK   55  A    between atoms: CB_124  and  CG_125 
REMARK   56  A    between atoms: CG_125  and  CD_126 
REMARK   57  A    between atoms: CD_126  and  NE_127 
REMARK       I    between atoms: NE_127  and  CZ_128 
REMARK       I    between atoms: CZ_128  and  NH1_129 
REMARK       I    between atoms: CZ_128  and  NH2_130 
REMARK   58  A    between atoms: N_137  and  CA_138 
REMARK   59  A    between atoms: CA_138  and  C_139 
REMARK   60  A    between atoms: CA_138  and  CB_141 
REMARK       I    between atoms: C_139  and  N_145 
REMARK   61  A    between atoms: N_145  and  CA_146 
REMARK   62  A    between atoms: CA_146  and  C_147 
REMARK   63  A    between atoms: CA_146  and  CB_149 
REMARK       I    between atoms: C_147  and  N_154 
REMARK   64  A    between atoms: CB_149  and  CG_150 
REMARK   65  A    between atoms: CG_150  and  SD_151 
REMARK   66  A    between atoms: N_154  and  CA_155 
REMARK   67  A    between atoms: CA_155  and  C_156 
REMARK   68  A    between atoms: CA_155  and  CB_158 
REMARK   69  A    between atoms: CB_158  and  CG_159 
REMARK   70  A    between atoms: CG_159  and  CD_160 
REMARK   71  A    between atoms: CD_160  and  NE_161 
REMARK       I    between atoms: NE_161  and  CZ_162 
REMARK       I    between atoms: CZ_162  and  NH1_163 
ROOT
ATOM      1  CA  GLU d   9    1018.054 286.433-993.870  0.00  0.00     0.177 C 
ENDROOT
BRANCH   1   2
ATOM      2  N   GLU d   9    1016.751 285.776-993.926  0.00  0.00    -0.346 N 
ATOM      3  C   ASP d   8    1016.072 285.826-995.021  0.00  0.00     0.241 C 
ATOM      4  O   ASP d   8    1016.545 286.430-995.996  0.00  0.00    -0.271 OA
ATOM      5  H   GLU d   9    1016.388 285.290-993.118  0.00  0.00     0.163 HD
BRANCH   3   6
ATOM      6  CA  ASP d   8    1014.725 285.146-995.078  0.00  0.00     0.186 C 
BRANCH   6   7
ATOM      7  N   ASP d   8    1014.795 283.797-994.524  0.00  0.00    -0.346 N 
ATOM      8  C   LEU d   7    1015.632 282.956-995.030  0.00  0.00     0.241 C 
ATOM      9  O   LEU d   7    1016.353 283.318-995.972  0.00  0.00    -0.271 OA
ATOM     10  H   ASP d   8    1014.197 283.526-993.757  0.00  0.00     0.163 HD
BRANCH   8  11
ATOM     11  CA  LEU d   7    1015.704 281.560-994.458  0.00  0.00     0.177 C 
BRANCH  11  12
ATOM     12  N   LEU d   7    1015.759 281.597-992.999  0.00  0.00    -0.346 N 
ATOM     13  C   LYS d   6    1016.705 282.260-992.425  0.00  0.00     0.241 C 
ATOM     14  O   LYS d   6    1017.539 282.847-993.129  0.00  0.00    -0.271 OA
ATOM     15  H   LEU d   7    1015.067 281.110-992.448  0.00  0.00     0.163 HD
BRANCH  13  16
ATOM     16  CA  LYS d   6    1016.762 282.298-990.916  0.00  0.00     0.176 C 
BRANCH  16  17
ATOM     17  N   LYS d   6    1015.448 282.594-990.351  0.00  0.00    -0.346 N 
ATOM     18  C   SER d   5    1014.844 283.677-990.705  0.00  0.00     0.243 C 
ATOM     19  O   SER d   5    1015.391 284.430-991.510  0.00  0.00    -0.271 OA
ATOM     20  H   LYS d   6    1015.020 281.959-989.692  0.00  0.00     0.163 HD
BRANCH  18  21
ATOM     21  CA  SER d   5    1013.485 283.982-990.119  0.00  0.00     0.200 C 
BRANCH  21  22
ATOM     22  N   SER d   5    1012.615 282.811-990.178  0.00  0.00    -0.344 N 
ATOM     23  C   GLU d   4    1012.388 282.258-991.321  0.00  0.00     0.241 C 
ATOM     24  O   GLU d   4    1012.914 282.737-992.336  0.00  0.00    -0.271 OA
ATOM     25  H   SER d   5    1012.198 282.439-989.337  0.00  0.00     0.163 HD
BRANCH  23  26
ATOM     26  CA  GLU d   4    1011.489 281.047-991.382  0.00  0.00     0.177 C 
BRANCH  26  27
ATOM     27  N   GLU d   4    1011.849 280.076-990.353  0.00  0.00    -0.346 N 
ATOM     28  C   PRO d   3    1013.054 279.616-990.320  0.00  0.00     0.241 C 
ATOM     29  O   PRO d   3    1013.877 279.999-991.152  0.00  0.00    -0.271 OA
ATOM     30  H   GLU d   4    1011.165 279.769-989.676  0.00  0.00     0.163 HD
BRANCH  28  31
ATOM     31  CA  PRO d   3    1013.452 278.592-989.243  0.00  0.00     0.179 C 
ATOM     32  N   PRO d   3    1013.000 279.002-987.922  0.00  0.00    -0.337 N 
ATOM     33  C   ASN d   2    1013.521 279.997-987.288  0.00  0.00     0.243 C 
ATOM     34  CD  PRO d   3    1011.922 278.208-987.373  0.00  0.00     0.127 C 
ATOM     35  O   ASN d   2    1014.436 280.627-987.817  0.00  0.00    -0.271 OA
ATOM     36  CG  PRO d   3    1011.464 277.390-988.583  0.00  0.00     0.022 C 
ATOM     37  CB  PRO d   3    1012.748 277.238-989.413  0.00  0.00     0.037 C 
BRANCH  33  38
ATOM     38  CA  ASN d   2    1012.990 280.352-985.919  0.00  0.00     0.185 C 
BRANCH  38  39
ATOM     39  N   ASN d   2    1011.531 280.391-985.919  0.00  0.00    -0.346 N 
ATOM     40  C   GLU d   1    1010.926 281.177-986.744  0.00  0.00     0.242 C 
ATOM     41  O   GLU d   1    1011.602 281.876-987.513  0.00  0.00    -0.271 OA
ATOM     42  H   ASN d   2    1011.003 279.811-985.283  0.00  0.00     0.163 HD
BRANCH  40  43
ATOM     43  CA  GLU d   1    1009.417 281.217-986.744  0.00  0.00     0.191 C 
BRANCH  43  44
ATOM     44  N   GLU d   1    1008.858 279.868-986.744  0.00  0.00    -0.326 NA
ATOM     45  H   GLU d   1    1009.485 278.989-986.744  0.00  0.00     0.180 HD
ENDBRANCH  43  44
BRANCH  43  46
ATOM     46  CB  GLU d   1    1008.894 282.002-985.507  0.00  0.00     0.047 C 
BRANCH  46  47
ATOM     47  CG  GLU d   1    1009.369 283.487-985.396  0.00  0.00     0.116 C 
BRANCH  47  48
ATOM     48  CD  GLU d   1    1008.945 284.291-984.181  0.00  0.00     0.172 C 
ATOM     49  OE1 GLU d   1    1008.217 283.789-983.303  0.00  0.00    -0.648 OA
ATOM     50  OE2 GLU d   1    1009.375 285.461-984.109  0.00  0.00    -0.648 OA
ENDBRANCH  47  48
ENDBRANCH  46  47
ENDBRANCH  43  46
ENDBRANCH  40  43
ENDBRANCH  38  39
BRANCH  38  51
ATOM     51  CB  ASN d   2    1013.482 279.329-984.855  0.00  0.00     0.137 C 
BRANCH  51  52
ATOM     52  CG  ASN d   2    1013.019 279.553-983.412  0.00  0.00     0.217 C 
ATOM     53  ND2 ASN d   2    1013.613 280.468-982.693  0.00  0.00    -0.370 N 
ATOM     54 21HD ASN d   2    1013.133 280.641-981.807  0.00  0.00     0.159 HD
ATOM     55 22HD ASN d   2    1014.315 281.040-983.163  0.00  0.00     0.159 HD
ATOM     56  OD1 ASN d   2    1012.098 278.919-982.917  0.00  0.00    -0.274 OA
ENDBRANCH  51  52
ENDBRANCH  38  51
ENDBRANCH  33  38
ENDBRANCH  28  31
ENDBRANCH  26  27
BRANCH  26  57
ATOM     57  CB  GLU d   4    1010.000 281.465-991.212  0.00  0.00     0.045 C 
BRANCH  57  58
ATOM     58  CG  GLU d   4    1009.452 282.469-992.278  0.00  0.00     0.116 C 
BRANCH  58  59
ATOM     59  CD  GLU d   4    1008.026 282.965-992.134  0.00  0.00     0.172 C 
ATOM     60  OE1 GLU d   4    1007.299 282.567-991.203  0.00  0.00    -0.648 OA
ATOM     61  OE2 GLU d   4    1007.636 283.794-992.982  0.00  0.00    -0.648 OA
ENDBRANCH  58  59
ENDBRANCH  57  58
ENDBRANCH  26  57
ENDBRANCH  23  26
ENDBRANCH  21  22
BRANCH  21  62
ATOM     62  CB  SER d   5    1013.596 284.514-988.669  0.00  0.00     0.199 C 
BRANCH  62  63
ATOM     63  OG  SER d   5    1014.328 283.635-987.808  0.00  0.00    -0.398 OA
ATOM     64  HG  SER d   5    1013.839 282.810-987.757  0.00  0.00     0.209 HD
ENDBRANCH  62  63
ENDBRANCH  21  62
ENDBRANCH  18  21
ENDBRANCH  16  17
BRANCH  16  65
ATOM     65  CB  LYS d   6    1017.279 280.950-990.346  0.00  0.00     0.035 C 
BRANCH  65  66
ATOM     66  CG  LYS d   6    1018.704 280.582-990.829  0.00  0.00     0.004 C 
BRANCH  66  67
ATOM     67  CD  LYS d   6    1019.221 279.227-990.338  0.00  0.00     0.027 C 
BRANCH  67  68
ATOM     68  CE  LYS d   6    1020.604 278.963-990.948  0.00  0.00     0.229 C 
BRANCH  68  69
ATOM     69  NZ  LYS d   6    1021.180 277.747-990.347  0.00  0.00    -0.079 N 
ATOM     70  3HZ LYS d   6    1021.620 278.036-989.485  0.00  0.00     0.274 HD
ATOM     71  1HZ LYS d   6    1020.449 277.044-990.181  0.00  0.00     0.274 HD
ATOM     72  2HZ LYS d   6    1021.861 277.306-990.975  0.00  0.00     0.274 HD
ENDBRANCH  68  69
ENDBRANCH  67  68
ENDBRANCH  66  67
ENDBRANCH  65  66
ENDBRANCH  16  65
ENDBRANCH  13  16
ENDBRANCH  11  12
BRANCH  11  73
ATOM     73  CB  LEU d   7    1014.501 280.700-994.938  0.00  0.00     0.038 C 
BRANCH  73  74
ATOM     74  CG  LEU d   7    1014.428 279.221-994.471  0.00  0.00    -0.020 C 
ATOM     75  CD1 LEU d   7    1013.238 278.515-995.137  0.00  0.00     0.009 C 
ATOM     76  CD2 LEU d   7    1015.721 278.442-994.762  0.00  0.00     0.009 C 
ENDBRANCH  73  74
ENDBRANCH  11  73
ENDBRANCH   8  11
ENDBRANCH   6   7
BRANCH   6  77
ATOM     77  CB  ASP d   8    1013.647 285.985-994.336  0.00  0.00     0.147 C 
BRANCH  77  78
ATOM     78  CG  ASP d   8    1013.428 287.406-994.877  0.00  0.00     0.175 C 
ATOM     79  OD1 ASP d   8    1013.492 287.605-996.108  0.00  0.00    -0.648 OA
ATOM     80  OD2 ASP d   8    1013.236 288.332-994.062  0.00  0.00    -0.648 OA
ENDBRANCH  77  78
ENDBRANCH   6  77
ENDBRANCH   3   6
ENDBRANCH   1   2
BRANCH   1  81
ATOM     81  C   GLU d   9    1018.972 285.905-994.946  0.00  0.00     0.241 C 
ATOM     82  O   GLU d   9    1019.636 286.659-995.671  0.00  0.00    -0.271 OA
ATOM     83  N   HIS d  10    1019.069 284.630-995.115  0.00  0.00    -0.346 N 
ATOM     84  H   HIS d  10    1018.538 283.995-994.536  0.00  0.00     0.163 HD
BRANCH  83  85
ATOM     85  CA  HIS d  10    1019.957 284.118-996.155  0.00  0.00     0.182 C 
BRANCH  85  86
ATOM     86  C   HIS d  10    1019.590 284.683-997.506  0.00  0.00     0.241 C 
ATOM     87  O   HIS d  10    1020.443 285.147-998.278  0.00  0.00    -0.271 OA
ATOM     88  N   VAL d  11    1018.352 284.682-997.870  0.00  0.00    -0.346 N 
ATOM     89  H   VAL d  11    1017.639 284.309-997.259  0.00  0.00     0.163 HD
BRANCH  88  90
ATOM     90  CA  VAL d  11    1017.997 285.228-999.176  0.00  0.00     0.180 C 
BRANCH  90  91
ATOM     91  C   VAL d  11    1018.462 286.658-999.309  0.00  0.00     0.241 C 
ATOM     92  O   VAL d  11    1019.063 287.063-1000.312  0.00  0.00    -0.271 OA
ATOM     93  N   GLN d  12    1018.225 287.484-998.347  0.00  0.00    -0.346 N 
ATOM     94  H   GLN d  12    1017.736 287.178-997.518  0.00  0.00     0.163 HD
BRANCH  93  95
ATOM     95  CA  GLN d  12    1018.674 288.867-998.474  0.00  0.00     0.177 C 
BRANCH  95  96
ATOM     96  C   GLN d  12    1020.164 288.934-998.712  0.00  0.00     0.241 C 
ATOM     97  O   GLN d  12    1020.651 289.642-999.590  0.00  0.00    -0.271 OA
ATOM     98  N   ARG d  13    1020.948 288.227-997.971  0.00  0.00    -0.346 N 
ATOM     99  H   ARG d  13    1020.572 287.638-997.242  0.00  0.00     0.163 HD
BRANCH  98 100
ATOM    100  CA  ARG d  13    1022.388 288.293-998.201  0.00  0.00     0.176 C 
BRANCH 100 101
ATOM    101  C   ARG d  13    1022.725 287.921-999.626  0.00  0.00     0.241 C 
ATOM    102  O   ARG d  13    1023.494 288.593-1000.310  0.00  0.00    -0.271 OA
ATOM    103  N   VAL d  14    1022.189 286.867-1000.140  0.00  0.00    -0.346 N 
ATOM    104  H   VAL d  14    1021.554 286.298-999.598  0.00  0.00     0.163 HD
BRANCH 103 105
ATOM    105  CA  VAL d  14    1022.514 286.507-1001.518  0.00  0.00     0.180 C 
BRANCH 105 106
ATOM    106  C   VAL d  14    1022.184 287.637-1002.463  0.00  0.00     0.241 C 
ATOM    107  O   VAL d  14    1022.978 288.019-1003.333  0.00  0.00    -0.271 OA
ATOM    108  N   MET d  15    1021.039 288.223-1002.362  0.00  0.00    -0.346 N 
ATOM    109  H   MET d  15    1020.374 287.931-1001.661  0.00  0.00     0.163 HD
BRANCH 108 110
ATOM    110  CA  MET d  15    1020.719 289.316-1003.276  0.00  0.00     0.177 C 
BRANCH 110 111
ATOM    111  C   MET d  15    1021.750 290.416-1003.188  0.00  0.00     0.241 C 
ATOM    112  O   MET d  15    1022.253 290.926-1004.200  0.00  0.00    -0.271 OA
ATOM    113  N   ARG d  16    1022.118 290.837-1002.025  0.00  0.00    -0.347 N 
ATOM    114  H   ARG d  16    1021.723 290.437-1001.186  0.00  0.00     0.163 HD
BRANCH 113 115
ATOM    115  CA  ARG d  16    1023.115 291.900-1001.942  0.00  0.00     0.162 C 
BRANCH 115 116
ATOM    116  C   ARG d  16    1024.386 291.507-1002.657  0.00  0.00     0.219 C 
ATOM    117  O   ARG d  16    1024.500 290.431-1003.239  0.00  0.00    -0.287 OA
ENDBRANCH 115 116
BRANCH 115 118
ATOM    118  CB  ARG d  16    1023.384 292.218-1000.443  0.00  0.00     0.035 C 
BRANCH 118 119
ATOM    119  CG  ARG d  16    1024.209 293.507-1000.170  0.00  0.00     0.023 C 
BRANCH 119 120
ATOM    120  CD  ARG d  16    1024.458 293.727-998.669  0.00  0.00     0.138 C 
BRANCH 120 121
ATOM    121  NE  ARG d  16    1025.235 294.985-998.468  0.00  0.00    -0.227 N 
ATOM    122  CZ  ARG d  16    1025.626 295.468-997.292  0.00  0.00     0.665 C 
ATOM    123  NH1 ARG d  16    1025.378 294.884-996.154  0.00  0.00    -0.235 N 
ATOM    124  NH2 ARG d  16    1026.290 296.580-997.274  0.00  0.00    -0.235 N 
ATOM    125 11HH ARG d  16    1024.852 294.011-996.238  0.00  0.00     0.174 HD
ATOM    126 12HH ARG d  16    1025.712 295.319-995.293  0.00  0.00     0.174 HD
ATOM    127 21HH ARG d  16    1026.476 297.023-998.175  0.00  0.00     0.174 HD
ATOM    128 22HH ARG d  16    1026.580 296.935-996.361  0.00  0.00     0.174 HD
ATOM    129  HE  ARG d  16    1025.514 295.566-999.265  0.00  0.00     0.177 HD
ENDBRANCH 120 121
ENDBRANCH 119 120
ENDBRANCH 118 119
ENDBRANCH 115 118
ENDBRANCH 113 115
ENDBRANCH 110 111
BRANCH 110 130
ATOM    130  CB  MET d  15    1019.298 289.862-1002.967  0.00  0.00     0.045 C 
BRANCH 130 131
ATOM    131  CG  MET d  15    1018.136 288.864-1003.159  0.00  0.00     0.076 C 
BRANCH 131 132
ATOM    132  SD  MET d  15    1016.562 289.730-1003.045  0.00  0.00    -0.173 SA
ATOM    133  CE  MET d  15    1015.481 288.301-1002.909  0.00  0.00     0.089 C 
ENDBRANCH 131 132
ENDBRANCH 130 131
ENDBRANCH 110 130
ENDBRANCH 108 110
ENDBRANCH 105 106
BRANCH 105 134
ATOM    134  CB  VAL d  14    1021.741 285.190-1001.925  0.00  0.00     0.009 C 
ATOM    135  CG1 VAL d  14    1021.831 284.772-1003.418  0.00  0.00     0.012 C 
ATOM    136  CG2 VAL d  14    1022.173 283.938-1001.124  0.00  0.00     0.012 C 
ENDBRANCH 105 134
ENDBRANCH 103 105
ENDBRANCH 100 101
BRANCH 100 137
ATOM    137  CB  ARG d  13    1023.101 287.354-997.187  0.00  0.00     0.036 C 
BRANCH 137 138
ATOM    138  CG  ARG d  13    1024.646 287.507-997.105  0.00  0.00     0.023 C 
BRANCH 138 139
ATOM    139  CD  ARG d  13    1025.273 286.519-996.107  0.00  0.00     0.138 C 
BRANCH 139 140
ATOM    140  NE  ARG d  13    1026.750 286.726-996.057  0.00  0.00    -0.227 N 
ATOM    141  CZ  ARG d  13    1027.598 286.034-995.301  0.00  0.00     0.665 C 
ATOM    142  NH1 ARG d  13    1027.232 285.070-994.504  0.00  0.00    -0.235 N 
ATOM    143  NH2 ARG d  13    1028.857 286.333-995.358  0.00  0.00    -0.235 N 
ATOM    144 11HH ARG d  13    1026.227 284.884-994.507  0.00  0.00     0.174 HD
ATOM    145 12HH ARG d  13    1027.945 284.587-993.955  0.00  0.00     0.174 HD
ATOM    146 21HH ARG d  13    1029.125 287.091-995.989  0.00  0.00     0.174 HD
ATOM    147 22HH ARG d  13    1029.492 285.792-994.769  0.00  0.00     0.174 HD
ATOM    148  HE  ARG d  13    1027.202 287.448-996.627  0.00  0.00     0.177 HD
ENDBRANCH 139 140
ENDBRANCH 138 139
ENDBRANCH 137 138
ENDBRANCH 100 137
ENDBRANCH  98 100
ENDBRANCH  95  96
BRANCH  95 149
ATOM    149  CB  GLN d  12    1018.283 289.635-997.192  0.00  0.00     0.044 C 
BRANCH 149 150
ATOM    150  CG  GLN d  12    1018.643 291.157-997.161  0.00  0.00     0.105 C 
BRANCH 150 151
ATOM    151  CD  GLN d  12    1018.341 291.970-995.896  0.00  0.00     0.215 C 
ATOM    152  NE2 GLN d  12    1017.773 291.394-994.867  0.00  0.00    -0.370 N 
ATOM    153 21HE GLN d  12    1017.666 291.989-994.044  0.00  0.00     0.159 HD
ATOM    154 22HE GLN d  12    1017.610 290.391-994.971  0.00  0.00     0.159 HD
ATOM    155  OE1 GLN d  12    1018.643 293.151-995.819  0.00  0.00    -0.274 OA
ENDBRANCH 150 151
ENDBRANCH 149 150
ENDBRANCH  95 149
ENDBRANCH  93  95
ENDBRANCH  90  91
BRANCH  90 156
ATOM    156  CB  VAL d  11    1016.436 285.121-999.396  0.00  0.00     0.009 C 
ATOM    157  CG1 VAL d  11    1015.868 285.825-1000.659  0.00  0.00     0.012 C 
ATOM    158  CG2 VAL d  11    1015.911 283.667-999.469  0.00  0.00     0.012 C 
ENDBRANCH  90 156
ENDBRANCH  88  90
ENDBRANCH  85  86
BRANCH  85 159
ATOM    159  CB  HIS d  10    1019.792 282.589-996.150  0.00  0.00     0.095 C 
BRANCH 159 160
ATOM    160  CG  HIS d  10    1021.078 281.879-995.841  0.00  0.00     0.053 A 
ATOM    161  CD2 HIS d  10    1021.458 281.544-994.549  0.00  0.00     0.116 A 
ATOM    162  NE2 HIS d  10    1022.673 280.912-994.615  0.00  0.00    -0.359 N 
ATOM    163  CE1 HIS d  10    1022.936 280.914-995.950  0.00  0.00     0.207 A 
ATOM    164  2HE HIS d  10    1023.239 280.534-993.842  0.00  0.00     0.166 HD
ATOM    165  ND1 HIS d  10    1022.030 281.473-996.774  0.00  0.00    -0.247 NA
ENDBRANCH 159 160
ENDBRANCH  85 159
ENDBRANCH  83  85
ENDBRANCH   1  81
BRANCH   1 166
ATOM    166  CB  GLU d   9    1018.687 286.226-992.465  0.00  0.00     0.045 C 
BRANCH 166 167
ATOM    167  CG  GLU d   9    1020.070 286.918-992.235  0.00  0.00     0.116 C 
BRANCH 167 168
ATOM    168  CD  GLU d   9    1020.772 286.705-990.907  0.00  0.00     0.172 C 
ATOM    169  OE1 GLU d   9    1020.250 286.014-990.010  0.00  0.00    -0.648 OA
ATOM    170  OE2 GLU d   9    1021.891 287.242-990.775  0.00  0.00    -0.648 OA
ENDBRANCH 167 168
ENDBRANCH 166 167
ENDBRANCH   1 166
TORSDOF 71
