@<TRIPOS>MOLECULE
8-14
267 268 16              
SMALL
USER_CHARGES
@<TRIPOS>ATOM
1	   N	1295.847	375.575	-1298.033	N.3	1	GLU1	-0.516	
2	  CA	1296.406	376.924	-1298.033	C.3	1	GLU1	0.040	
3	   C	1297.915	376.884	-1298.033	C.2	1	GLU1	0.537	
4	   O	1298.591	377.583	-1298.802	O.2	1	GLU1	-0.582	
5	  CB	1295.883	377.709	-1296.796	C.3	1	GLU1	0.056	
6	  CG	1296.358	379.194	-1296.685	C.3	1	GLU1	0.014	
7	  CD	1295.934	379.998	-1295.470	C.2	1	GLU1	0.805	
8	 OE1	1295.206	379.496	-1294.592	O.co2	1	GLU1	-0.819	
9	 OE2	1296.364	381.168	-1295.398	O.co2	1	GLU1	-0.819	
10	   H	1296.474	374.696	-1298.033	 H	1	GLU1	0.294	
11	  HA	1296.080	377.442	-1298.953	 H	1	GLU1	0.111	
12	 2HB	1296.172	377.178	-1295.866	 H	1	GLU1	-0.017	
13	 3HB	1294.776	377.699	-1296.783	 H	1	GLU1	-0.017	
14	 2HG	1296.048	379.779	-1297.566	 H	1	GLU1	-0.043	
15	 3HG	1297.458	379.261	-1296.656	 H	1	GLU1	-0.043	
16	   N	1298.520	376.098	-1297.208	N.am	2	ASN2	-0.416	
17	  CA	1299.979	376.059	-1297.208	C.3	2	ASN2	0.014	
18	   C	1300.510	375.704	-1298.577	C.2	2	ASN2	0.597	
19	   O	1301.425	376.334	-1299.106	O.2	2	ASN2	-0.568	
20	  CB	1300.471	375.036	-1296.144	C.3	2	ASN2	-0.204	
21	  CG	1300.008	375.260	-1294.701	C.2	2	ASN2	0.713	
22	 ND2	1300.603	376.175	-1293.982	N.pl3	2	ASN2	-0.919	
23	 OD1	1299.088	374.626	-1294.206	O.2	2	ASN2	-0.593	
24	   H	1297.992	375.518	-1296.572	 H	2	ASN2	0.272	
25	  HA	1300.357	377.069	-1296.963	 H	2	ASN2	0.105	
26	 2HB	1301.576	374.977	-1296.148	 H	2	ASN2	0.080	
27	 3HB	1300.142	374.018	-1296.430	 H	2	ASN2	0.080	
28	1HD2	1300.122	376.348	-1293.096	 H	2	ASN2	0.420	
29	2HD2	1301.304	376.747	-1294.452	 H	2	ASN2	0.420	
30	   N	1299.989	374.709	-1299.211	N.am	3	PRO3	-0.255	
31	  CA	1300.441	374.299	-1300.533	C.3	3	PRO3	-0.027	
32	   C	1300.042	375.323	-1301.609	C.2	3	PRO3	0.590	
33	   O	1300.866	375.706	-1302.441	O.2	3	PRO3	-0.575	
34	  CB	1299.737	372.945	-1300.702	C.3	3	PRO3	-0.007	
35	  CG	1298.453	373.097	-1299.872	C.3	3	PRO3	0.019	
36	  CD	1298.911	373.916	-1298.662	C.3	3	PRO3	0.019	
37	  HA	1301.527	374.180	-1300.546	 H	3	PRO3	0.064	
38	 2HB	1300.359	372.164	-1300.261	 H	3	PRO3	0.025	
39	 3HB	1299.538	372.696	-1301.747	 H	3	PRO3	0.025	
40	 2HG	1298.026	372.135	-1299.581	 H	3	PRO3	0.021	
41	 3HG	1297.716	373.668	-1300.439	 H	3	PRO3	0.021	
42	 2HD	1299.300	373.266	-1297.874	 H	3	PRO3	0.039	
43	 3HD	1298.115	374.551	-1298.269	 H	3	PRO3	0.039	
44	   N	1298.838	375.783	-1301.642	N.am	4	GLU4	-0.516	
45	  CA	1298.478	376.754	-1302.671	C.3	4	GLU4	0.040	
46	   C	1299.377	377.965	-1302.610	C.2	4	GLU4	0.537	
47	   O	1299.903	378.445	-1303.625	O.2	4	GLU4	-0.582	
48	  CB	1296.989	377.173	-1302.501	C.3	4	GLU4	0.056	
49	  CG	1296.441	378.176	-1303.566	C.3	4	GLU4	0.014	
50	  CD	1295.015	378.673	-1303.422	C.2	4	GLU4	0.805	
51	 OE1	1294.288	378.274	-1302.491	O.co2	4	GLU4	-0.819	
52	 OE2	1294.625	379.502	-1304.271	O.co2	4	GLU4	-0.819	
53	   H	1298.154	375.476	-1300.965	 H	4	GLU4	0.294	
54	  HA	1298.609	376.284	-1303.662	 H	4	GLU4	0.111	
55	 2HB	1296.837	377.613	-1301.494	 H	4	GLU4	-0.017	
56	 3HB	1296.342	376.275	-1302.507	 H	4	GLU4	-0.017	
57	 2HG	1296.523	377.761	-1304.584	 H	4	GLU4	-0.043	
58	 3HG	1297.029	379.109	-1303.577	 H	4	GLU4	-0.043	
59	   N	1299.604	378.518	-1301.467	N.am	5	SER5	-0.416	
60	  CA	1300.474	379.689	-1301.409	C.3	5	SER5	-0.025	
61	   C	1301.833	379.384	-1301.994	C.2	5	SER5	0.597	
62	   O	1302.380	380.137	-1302.799	O.2	5	SER5	-0.568	
63	  CB	1300.585	380.221	-1299.958	C.3	5	SER5	0.212	
64	  OG	1301.317	379.342	-1299.097	O.3	5	SER5	-0.655	
65	   H	1299.188	378.146	-1300.625	 H	5	SER5	0.272	
66	  HA	1300.024	380.479	-1302.037	 H	5	SER5	0.084	
67	 2HB	1299.586	380.415	-1299.525	 H	5	SER5	0.035	
68	 3HB	1301.091	381.207	-1299.960	 H	5	SER5	0.035	
69	  HG	1300.829	378.517	-1299.047	 H	5	SER5	0.428	
70	   N	1302.437	378.301	-1301.640	N.am	6	ILE6	-0.416	
71	  CA	1303.750	378.006	-1302.207	C.3	6	ILE6	-0.060	
72	   C	1303.693	377.969	-1303.715	C.2	6	ILE6	0.597	
73	   O	1304.528	378.557	-1304.419	O.2	6	ILE6	-0.568	
74	  CB	1304.350	376.670	-1301.607	C.3	6	ILE6	0.130	
75	 CG1	1304.370	376.608	-1300.046	C.3	6	ILE6	-0.043	
76	 CG2	1305.792	376.368	-1302.122	C.3	6	ILE6	-0.320	
77	 CD1	1304.640	375.218	-1299.431	C.3	6	ILE6	-0.066	
78	   H	1302.009	377.666	-1300.981	 H	6	ILE6	0.272	
79	  HA	1304.425	378.841	-1301.939	 H	6	ILE6	0.087	
80	  HB	1303.693	375.844	-1301.951	 H	6	ILE6	0.019	
81	2HG1	1303.388	376.927	-1299.650	 H	6	ILE6	0.024	
82	3HG1	1305.086	377.350	-1299.641	 H	6	ILE6	0.024	
83	1HG2	1305.850	376.275	-1303.221	 H	6	ILE6	0.088	
84	2HG2	1306.514	377.151	-1301.820	 H	6	ILE6	0.088	
85	3HG2	1306.182	375.406	-1301.744	 H	6	ILE6	0.088	
86	1HD1	1303.912	374.464	-1299.786	 H	6	ILE6	0.019	
87	2HD1	1305.651	374.840	-1299.667	 H	6	ILE6	0.019	
88	3HD1	1304.564	375.248	-1298.329	 H	6	ILE6	0.019	
89	   N	1302.747	377.305	-1304.288	N.am	7	LEU7	-0.416	
90	  CA	1302.692	377.269	-1305.747	C.3	7	LEU7	-0.052	
91	   C	1302.620	378.665	-1306.319	C.2	7	LEU7	0.597	
92	   O	1303.340	379.028	-1307.261	O.2	7	LEU7	-0.568	
93	  CB	1301.489	376.409	-1306.227	C.3	7	LEU7	-0.110	
94	  CG	1301.416	374.930	-1305.761	C.3	7	LEU7	0.353	
95	 CD1	1300.227	374.224	-1306.427	C.3	7	LEU7	-0.412	
96	 CD2	1302.710	374.151	-1306.053	C.3	7	LEU7	-0.412	
97	   H	1302.055	376.818	-1303.737	 H	7	LEU7	0.272	
98	  HA	1303.634	376.830	-1306.121	 H	7	LEU7	0.092	
99	 2HB	1301.466	376.425	-1307.335	 H	7	LEU7	0.046	
100	 3HB	1300.549	376.912	-1305.923	 H	7	LEU7	0.046	
101	  HG	1301.247	374.922	-1304.664	 H	7	LEU7	-0.036	
102	1HD1	1299.269	374.733	-1306.204	 H	7	LEU7	0.100	
103	2HD1	1300.326	374.184	-1307.528	 H	7	LEU7	0.100	
104	3HD1	1300.120	373.183	-1306.071	 H	7	LEU7	0.100	
105	1HD2	1302.985	374.181	-1307.123	 H	7	LEU7	0.100	
106	2HD2	1303.563	374.562	-1305.481	 H	7	LEU7	0.100	
107	3HD2	1302.629	373.088	-1305.757	 H	7	LEU7	0.100	
108	   N	1301.782	379.505	-1305.812	N.am	8	THR8	-0.416	
109	  CA	1301.712	380.854	-1306.365	C.3	8	THR8	-0.039	
110	   C	1303.059	381.534	-1306.308	C.2	8	THR8	0.597	
111	   O	1303.521	382.126	-1307.263	O.2	8	THR8	-0.568	
112	  CB	1300.632	381.702	-1305.613	C.3	8	THR8	0.365	
113	 CG2	1300.454	383.160	-1306.086	C.3	8	THR8	-0.244	
114	 OG1	1299.344	381.118	-1305.764	O.3	8	THR8	-0.676	
115	   H	1301.185	379.234	-1305.045	 H	8	THR8	0.272	
116	  HA	1301.425	380.779	-1307.430	 H	8	THR8	0.101	
117	  HB	1300.890	381.715	-1304.531	 H	8	THR8	0.004	
118	 1HG	1298.748	381.643	-1305.223	 H	8	THR8	0.410	
119	1HG2	1299.660	383.687	-1305.524	 H	8	THR8	0.064	
120	2HG2	1301.369	383.765	-1305.949	 H	8	THR8	0.064	
121	3HG2	1300.187	383.213	-1307.159	 H	8	THR8	0.064	
122	   N	1303.739	381.484	-1305.213	N.am	9	GLU9	-0.516	
123	  CA	1305.042	382.142	-1305.158	C.3	9	GLU9	0.040	
124	   C	1305.960	381.614	-1306.234	C.2	9	GLU9	0.537	
125	   O	1306.623	382.368	-1306.960	O.2	9	GLU9	-0.582	
126	  CB	1305.676	381.935	-1303.753	C.3	9	GLU9	0.056	
127	  CG	1307.059	382.627	-1303.524	C.3	9	GLU9	0.014	
128	  CD	1307.761	382.415	-1302.196	C.2	9	GLU9	0.805	
129	 OE1	1307.240	381.724	-1301.299	O.co2	9	GLU9	-0.819	
130	 OE2	1308.880	382.953	-1302.065	O.co2	9	GLU9	-0.819	
131	   H	1303.376	380.998	-1304.406	 H	9	GLU9	0.294	
132	  HA	1304.900	383.224	-1305.334	 H	9	GLU9	0.111	
133	 2HB	1305.789	380.850	-1303.549	 H	9	GLU9	-0.017	
134	 3HB	1304.979	382.288	-1302.969	 H	9	GLU9	-0.017	
135	 2HG	1306.986	383.718	-1303.664	 H	9	GLU9	-0.043	
136	 3HG	1307.805	382.282	-1304.258	 H	9	GLU9	-0.043	
137	   N	1306.056	380.339	-1306.403	N.am	10	HIS10	-0.416	
138	  CA	1306.944	379.827	-1307.444	C.3	10	HIS10	-0.058	
139	   C	1306.576	380.391	-1308.795	C.2	10	HIS10	0.597	
140	   O	1307.429	380.856	-1309.567	O.2	10	HIS10	-0.568	
141	  CB	1306.780	378.298	-1307.438	C.3	10	HIS10	-0.007	
142	  CG	1308.066	377.589	-1307.131	C.2	10	HIS10	0.187	
143	 CD2	1308.447	377.254	-1305.838	C.2	10	HIS10	-0.221	
144	 ND1	1309.018	377.182	-1308.063	N.2	10	HIS10	-0.543	
145	 CE1	1309.924	376.625	-1307.240	C.2	10	HIS10	0.163	
146	 NE2	1309.662	376.622	-1305.905	N.pl3	10	HIS10	-0.280	
147	   H	1305.526	379.704	-1305.824	 H	10	HIS10	0.272	
148	  HA	1307.963	380.185	-1307.219	 H	10	HIS10	0.136	
149	 2HB	1306.415	377.931	-1308.418	 H	10	HIS10	0.037	
150	 3HB	1306.025	377.962	-1306.698	 H	10	HIS10	0.037	
151	 2HD	1307.862	377.469	-1304.949	 H	10	HIS10	0.186	
152	 1HE	1310.815	376.204	-1307.687	 H	10	HIS10	0.144	
153	 2HE	1310.229	376.245	-1305.132	 H	10	HIS10	0.334	
154	   N	1305.339	380.390	-1309.158	N.am	11	VAL11	-0.416	
155	  CA	1304.983	380.936	-1310.464	C.3	11	VAL11	-0.087	
156	   C	1305.447	382.367	-1310.597	C.2	11	VAL11	0.597	
157	   O	1306.047	382.772	-1311.601	O.2	11	VAL11	-0.568	
158	  CB	1303.422	380.829	-1310.683	C.3	11	VAL11	0.299	
159	 CG1	1302.852	381.533	-1311.946	C.3	11	VAL11	-0.319	
160	 CG2	1302.897	379.375	-1310.756	C.3	11	VAL11	-0.319	
161	   H	1304.626	380.017	-1308.547	 H	11	VAL11	0.272	
162	  HA	1305.502	380.354	-1311.247	 H	11	VAL11	0.097	
163	  HB	1302.934	381.309	-1309.808	 H	11	VAL11	-0.030	
164	1HG1	1303.291	381.141	-1312.883	 H	11	VAL11	0.079	
165	2HG1	1301.753	381.425	-1312.027	 H	11	VAL11	0.079	
166	3HG1	1303.030	382.625	-1311.937	 H	11	VAL11	0.079	
167	1HG2	1303.187	378.788	-1309.865	 H	11	VAL11	0.079	
168	2HG2	1301.791	379.338	-1310.798	 H	11	VAL11	0.079	
169	3HG2	1303.279	378.834	-1311.642	 H	11	VAL11	0.079	
170	   N	1305.210	383.193	-1309.635	N.am	12	GLN12	-0.416	
171	  CA	1305.658	384.576	-1309.763	C.3	12	GLN12	-0.003	
172	   C	1307.148	384.643	-1310.001	C.2	12	GLN12	0.597	
173	   O	1307.635	385.351	-1310.880	O.2	12	GLN12	-0.568	
174	  CB	1305.268	385.343	-1308.480	C.3	12	GLN12	-0.004	
175	  CG	1305.628	386.865	-1308.449	C.3	12	GLN12	-0.064	
176	  CD	1305.326	387.678	-1307.184	C.2	12	GLN12	0.695	
177	 NE2	1304.759	387.102	-1306.155	N.pl3	12	GLN12	-0.941	
178	 OE1	1305.627	388.860	-1307.107	O.2	12	GLN12	-0.609	
179	   H	1304.722	382.886	-1308.806	 H	12	GLN12	0.272	
180	  HA	1305.159	385.031	-1310.637	 H	12	GLN12	0.085	
181	 2HB	1305.744	384.843	-1307.611	 H	12	GLN12	0.017	
182	 3HB	1304.178	385.236	-1308.316	 H	12	GLN12	0.017	
183	 2HG	1305.150	387.386	-1309.300	 H	12	GLN12	0.035	
184	 3HG	1306.711	387.007	-1308.615	 H	12	GLN12	0.035	
185	1HE2	1304.652	387.697	-1305.332	 H	12	GLN12	0.425	
186	2HE2	1304.596	386.098	-1306.258	 H	12	GLN12	0.425	
187	   N	1307.933	383.936	-1309.260	N.am	13	ARG13	-0.348	
188	  CA	1309.373	384.002	-1309.491	C.3	13	ARG13	-0.264	
189	   C	1309.709	383.631	-1310.917	C.2	13	ARG13	0.734	
190	   O	1310.478	384.303	-1311.600	O.2	13	ARG13	-0.589	
191	  CB	1310.087	383.063	-1308.478	C.3	13	ARG13	-0.001	
192	  CG	1311.632	383.216	-1308.397	C.3	13	ARG13	0.039	
193	  CD	1312.259	382.229	-1307.399	C.3	13	ARG13	0.049	
194	  NE	1313.736	382.436	-1307.349	N.pl3	13	ARG13	-0.530	
195	  CZ	1314.584	381.744	-1306.594	C.cat	13	ARG13	0.808	
196	 NH1	1314.219	380.780	-1305.797	N.pl3	13	ARG13	-0.863	
197	 NH2	1315.844	382.043	-1306.651	N.pl3	13	ARG13	-0.863	
198	   H	1307.557	383.346	-1308.532	 H	13	ARG13	0.275	
199	  HA	1309.698	385.048	-1309.333	 H	13	ARG13	0.156	
200	 2HB	1309.820	382.013	-1308.717	 H	13	ARG13	0.033	
201	 3HB	1309.662	383.230	-1307.467	 H	13	ARG13	0.033	
202	 2HG	1311.880	384.261	-1308.118	 H	13	ARG13	0.029	
203	 3HG	1312.082	383.060	-1309.399	 H	13	ARG13	0.029	
204	 2HD	1312.015	381.189	-1307.708	 H	13	ARG13	0.069	
205	 3HD	1311.803	382.374	-1306.397	 H	13	ARG13	0.069	
206	  HE	1314.187	383.158	-1307.920	 H	13	ARG13	0.346	
207	1HH1	1313.214	380.594	-1305.800	 H	13	ARG13	0.448	
208	2HH1	1314.933	380.297	-1305.248	 H	13	ARG13	0.448	
209	1HH2	1316.111	382.801	-1307.282	 H	13	ARG13	0.448	
210	2HH2	1316.479	381.502	-1306.063	 H	13	ARG13	0.448	
211	   N	1309.173	382.576	-1311.431	N.am	14	VAL14	-0.416	
212	  CA	1309.498	382.217	-1312.809	C.3	14	VAL14	-0.087	
213	   C	1309.168	383.347	-1313.754	C.2	14	VAL14	0.597	
214	   O	1309.962	383.729	-1314.624	O.2	14	VAL14	-0.568	
215	  CB	1308.726	380.900	-1313.216	C.3	14	VAL14	0.299	
216	 CG1	1308.815	380.482	-1314.709	C.3	14	VAL14	-0.319	
217	 CG2	1309.158	379.648	-1312.415	C.3	14	VAL14	-0.319	
218	   H	1308.538	382.008	-1310.889	 H	14	VAL14	0.272	
219	  HA	1310.586	382.041	-1312.883	 H	14	VAL14	0.097	
220	  HB	1307.649	381.071	-1313.000	 H	14	VAL14	-0.030	
221	1HG1	1309.856	380.305	-1315.038	 H	14	VAL14	0.079	
222	2HG1	1308.242	379.559	-1314.922	 H	14	VAL14	0.079	
223	3HG1	1308.385	381.244	-1315.387	 H	14	VAL14	0.079	
224	1HG2	1309.071	379.806	-1311.325	 H	14	VAL14	0.079	
225	2HG2	1308.522	378.771	-1312.648	 H	14	VAL14	0.079	
226	3HG2	1310.205	379.358	-1312.621	 H	14	VAL14	0.079	
227	   N	1308.023	383.933	-1313.653	N.am	15	MET15	-0.416	
228	  CA	1307.703	385.026	-1314.567	C.3	15	MET15	-0.024	
229	   C	1308.733	386.126	-1314.479	C.2	15	MET15	0.597	
230	   O	1309.236	386.637	-1315.491	O.2	15	MET15	-0.568	
231	  CB	1306.281	385.572	-1314.258	C.3	15	MET15	0.034	
232	  CG	1305.119	384.573	-1314.450	C.3	15	MET15	0.002	
233	  SD	1303.546	385.439	-1314.336	S.3	15	MET15	-0.274	
234	  CE	1302.464	384.010	-1314.199	C.3	15	MET15	-0.054	
235	   H	1307.358	383.640	-1312.951	 H	15	MET15	0.272	
236	  HA	1307.729	384.639	-1315.602	 H	15	MET15	0.088	
237	 2HB	1306.079	386.450	-1314.900	 H	15	MET15	0.024	
238	 3HB	1306.246	385.964	-1313.221	 H	15	MET15	0.024	
239	 2HG	1305.162	383.788	-1313.672	 H	15	MET15	0.044	
240	 3HG	1305.182	384.058	-1315.426	 H	15	MET15	0.044	
241	 1HE	1302.608	383.321	-1315.052	 H	15	MET15	0.068	
242	 2HE	1302.673	383.457	-1313.266	 H	15	MET15	0.068	
243	 3HE	1301.407	384.325	-1314.183	 H	15	MET15	0.068	
244	   N	1309.102	386.547	-1313.316	N.am	16	ARG16	-0.348	
245	  CA	1310.098	387.611	-1313.233	C.3	16	ARG16	-0.264	
246	   C	1311.369	387.219	-1313.949	C.2	16	ARG16	0.734	
247	   O	1311.483	386.142	-1314.530	O.2	16	ARG16	-0.589	
248	  CB	1310.367	387.929	-1311.734	C.3	16	ARG16	-0.001	
249	  CG	1311.192	389.218	-1311.461	C.3	16	ARG16	0.039	
250	  CD	1311.441	389.438	-1309.960	C.3	16	ARG16	0.049	
251	  NE	1312.217	390.697	-1309.759	N.pl3	16	ARG16	-0.530	
252	  CZ	1312.608	391.179	-1308.583	C.cat	16	ARG16	0.808	
253	 NH1	1312.360	390.595	-1307.445	N.pl3	16	ARG16	-0.863	
254	 NH2	1313.272	392.292	-1308.565	N.pl3	16	ARG16	-0.863	
255	   H	1308.707	386.147	-1312.477	 H	16	ARG16	0.275	
256	  HA	1309.689	388.504	-1313.742	 H	16	ARG16	0.156	
257	 2HB	1310.864	387.053	-1311.268	 H	16	ARG16	0.033	
258	 3HB	1309.398	388.010	-1311.201	 H	16	ARG16	0.033	
259	 2HG	1310.661	390.089	-1311.899	 H	16	ARG16	0.029	
260	 3HG	1312.165	389.165	-1311.990	 H	16	ARG16	0.029	
261	 2HD	1311.990	388.563	-1309.547	 H	16	ARG16	0.069	
262	 3HD	1310.468	389.480	-1309.425	 H	16	ARG16	0.069	
263	  HE	1312.496	391.278	-1310.556	 H	16	ARG16	0.346	
264	1HH1	1311.835	389.722	-1307.529	 H	16	ARG16	0.448	
265	2HH1	1312.695	391.030	-1306.584	 H	16	ARG16	0.448	
266	1HH2	1313.458	392.735	-1309.467	 H	16	ARG16	0.448	
267	2HH2	1313.562	392.647	-1307.652	 H	16	ARG16	0.448	
@<TRIPOS>BOND
1 1 2 1
2 1 10 1
3 2 3 1
4 2 5 1
5 2 11 1
6 3 4 2
7 3 16 1
8 5 6 1
9 6 7 1
10 7 8 2
11 7 9 1
12 5 12 1
13 5 13 1
14 6 14 1
15 6 15 1
16 16 17 1
17 16 24 1
18 17 18 1
19 17 20 1
20 17 25 1
21 18 19 2
22 18 30 1
23 20 21 1
24 21 22 1
25 21 23 2
26 20 26 1
27 20 27 1
28 22 28 1
29 22 29 1
30 30 31 1
31 30 36 1
32 31 32 1
33 31 34 1
34 31 37 1
35 32 33 2
36 32 44 1
37 34 35 1
38 35 36 1
39 34 38 1
40 34 39 1
41 35 40 1
42 35 41 1
43 36 42 1
44 36 43 1
45 44 45 1
46 44 53 1
47 45 46 1
48 45 48 1
49 45 54 1
50 46 47 2
51 46 59 1
52 48 49 1
53 49 50 1
54 50 51 2
55 50 52 1
56 48 55 1
57 48 56 1
58 49 57 1
59 49 58 1
60 59 60 1
61 59 65 1
62 60 61 1
63 60 63 1
64 60 66 1
65 61 62 2
66 61 70 1
67 63 64 1
68 63 67 1
69 63 68 1
70 64 69 1
71 70 71 1
72 70 78 1
73 71 72 1
74 71 74 1
75 71 79 1
76 72 73 2
77 72 89 1
78 74 75 1
79 74 76 1
80 75 77 1
81 74 80 1
82 75 81 1
83 75 82 1
84 76 83 1
85 76 84 1
86 76 85 1
87 77 86 1
88 77 87 1
89 77 88 1
90 89 90 1
91 89 97 1
92 90 91 1
93 90 93 1
94 90 98 1
95 91 92 2
96 91 108 1
97 93 94 1
98 94 95 1
99 94 96 1
100 93 99 1
101 93 100 1
102 94 101 1
103 95 102 1
104 95 103 1
105 95 104 1
106 96 105 1
107 96 106 1
108 96 107 1
109 108 109 1
110 108 115 1
111 109 110 1
112 109 112 1
113 109 116 1
114 110 111 2
115 110 122 1
116 112 113 1
117 112 114 1
118 112 117 1
119 114 118 1
120 113 119 1
121 113 120 1
122 113 121 1
123 122 123 1
124 122 131 1
125 123 124 1
126 123 126 1
127 123 132 1
128 124 125 2
129 124 137 1
130 126 127 1
131 127 128 1
132 128 129 2
133 128 130 1
134 126 133 1
135 126 134 1
136 127 135 1
137 127 136 1
138 137 138 1
139 137 147 1
140 138 139 1
141 138 141 1
142 138 148 1
143 139 140 2
144 139 154 1
145 141 142 1
146 142 143 2
147 143 146 1
148 142 144 1
149 144 145 2
150 145 146 1
151 141 149 1
152 141 150 1
153 143 151 1
154 145 152 1
155 146 153 1
156 154 155 1
157 154 161 1
158 155 156 1
159 155 158 1
160 155 162 1
161 156 157 2
162 156 170 1
163 158 159 1
164 158 160 1
165 158 163 1
166 159 164 1
167 159 165 1
168 159 166 1
169 160 167 1
170 160 168 1
171 160 169 1
172 170 171 1
173 170 179 1
174 171 172 1
175 171 174 1
176 171 180 1
177 172 173 2
178 172 187 1
179 174 175 1
180 175 176 1
181 176 177 1
182 176 178 2
183 174 181 1
184 174 182 1
185 175 183 1
186 175 184 1
187 177 185 1
188 177 186 1
189 187 188 1
190 187 198 1
191 188 189 1
192 188 191 1
193 188 199 1
194 189 190 2
195 189 211 1
196 191 192 1
197 192 193 1
198 193 194 1
199 194 195 1
200 195 196 2
201 195 197 1
202 191 200 1
203 191 201 1
204 192 202 1
205 192 203 1
206 193 204 1
207 193 205 1
208 194 206 1
209 196 207 1
210 196 208 1
211 197 209 1
212 197 210 1
213 211 212 1
214 211 218 1
215 212 213 1
216 212 215 1
217 212 219 1
218 213 214 2
219 213 227 1
220 215 216 1
221 215 217 1
222 215 220 1
223 216 221 1
224 216 222 1
225 216 223 1
226 217 224 1
227 217 225 1
228 217 226 1
229 227 228 1
230 227 235 1
231 228 229 1
232 228 231 1
233 228 236 1
234 229 230 2
235 229 244 1
236 231 232 1
237 232 233 1
238 233 234 1
239 231 237 1
240 231 238 1
241 232 239 1
242 232 240 1
243 234 241 1
244 234 242 1
245 234 243 1
246 244 245 1
247 244 255 1
248 245 246 1
249 245 248 1
250 245 256 1
251 246 247 2
252 248 249 1
253 249 250 1
254 250 251 1
255 251 252 1
256 252 253 2
257 252 254 1
258 248 257 1
259 248 258 1
260 249 259 1
261 249 260 1
262 250 261 1
263 250 262 1
264 251 263 1
265 253 264 1
266 253 265 1
267 254 266 1
268 254 267 1
@<TRIPOS>SUBSTRUCTURE
1	GLU1	1	RESIDUE	1 ****	GLU
2	ASN2	16	RESIDUE	1 ****	ASN
3	PRO3	30	RESIDUE	1 ****	PRO
4	GLU4	44	RESIDUE	1 ****	GLU
5	SER5	59	RESIDUE	1 ****	SER
6	ILE6	70	RESIDUE	1 ****	ILE
7	LEU7	89	RESIDUE	1 ****	LEU
8	THR8	108	RESIDUE	1 ****	THR
9	GLU9	122	RESIDUE	1 ****	GLU
10	HIS10	137	RESIDUE	1 ****	HIS
11	VAL11	154	RESIDUE	1 ****	VAL
12	GLN12	170	RESIDUE	1 ****	GLN
13	ARG13	187	RESIDUE	1 ****	ARG
14	VAL14	211	RESIDUE	1 ****	VAL
15	MET15	227	RESIDUE	1 ****	MET
16	ARG16	244	RESIDUE	1 ****	ARG
