REMARK WARNING: 32 MAX_TORS EXCEEDED!!!
REMARK  65 active torsions:
REMARK  status: ('A' for Active; 'I' for Inactive)
REMARK    1  A    between atoms: N_1  and  CA_2 
REMARK    2  A    between atoms: CA_2  and  C_3 
REMARK    3  A    between atoms: CA_2  and  CB_5 
REMARK       I    between atoms: C_3  and  N_11 
REMARK    4  A    between atoms: CB_5  and  CG_6 
REMARK    5  A    between atoms: CG_6  and  CD_7 
REMARK    6  A    between atoms: N_11  and  CA_12 
REMARK    7  A    between atoms: CA_12  and  C_13 
REMARK    8  A    between atoms: CA_12  and  CB_15 
REMARK       I    between atoms: C_13  and  N_22 
REMARK    9  A    between atoms: CB_15  and  CG_16 
REMARK       I    between atoms: CG_16  and  ND2_17 
REMARK   10  A    between atoms: CA_23  and  C_24 
REMARK       I    between atoms: C_24  and  N_29 
REMARK   11  A    between atoms: N_29  and  CA_30 
REMARK   12  A    between atoms: CA_30  and  C_31 
REMARK   13  A    between atoms: CA_30  and  CB_33 
REMARK       I    between atoms: C_31  and  N_39 
REMARK   14  A    between atoms: CB_33  and  CG_34 
REMARK   15  A    between atoms: CG_34  and  CD_35 
REMARK   16  A    between atoms: N_39  and  CA_40 
REMARK   17  A    between atoms: CA_40  and  C_41 
REMARK   18  A    between atoms: CA_40  and  CB_43 
REMARK       I    between atoms: C_41  and  N_47 
REMARK   19  A    between atoms: CB_43  and  OG_44 
REMARK   20  A    between atoms: N_47  and  CA_48 
REMARK   21  A    between atoms: CA_48  and  C_49 
REMARK   22  A    between atoms: CA_48  and  CB_51 
REMARK       I    between atoms: C_49  and  N_56 
REMARK   23  A    between atoms: CB_51  and  CG1_52 
REMARK   24  A    between atoms: N_56  and  CA_57 
REMARK   25  A    between atoms: CA_57  and  C_58 
REMARK   26  A    between atoms: CA_57  and  CB_60 
REMARK       I    between atoms: C_58  and  N_65 
REMARK   27  A    between atoms: CB_60  and  CG_61 
REMARK   28  A    between atoms: N_65  and  CA_66 
REMARK   29  A    between atoms: CA_66  and  C_67 
REMARK   30  A    between atoms: CA_66  and  CB_69 
REMARK       I    between atoms: C_67  and  N_74 
REMARK   31  A    between atoms: CB_69  and  CG_70 
REMARK   32  A    between atoms: N_74  and  CA_75 
REMARK   33  A    between atoms: CA_75  and  C_76 
REMARK   34  A    between atoms: CA_75  and  CB_78 
REMARK       I    between atoms: C_76  and  N_84 
REMARK   35  A    between atoms: CB_78  and  CG_79 
REMARK   36  A    between atoms: CG_79  and  CD_80 
REMARK   37  A    between atoms: N_84  and  CA_85 
REMARK   38  A    between atoms: CA_85  and  C_86 
REMARK   39  A    between atoms: CA_85  and  CB_88 
REMARK       I    between atoms: C_86  and  N_96 
REMARK   40  A    between atoms: CB_88  and  CG_89 
REMARK   41  A    between atoms: N_96  and  CA_97 
REMARK   42  A    between atoms: CA_97  and  C_98 
REMARK   43  A    between atoms: CA_97  and  CB_100 
REMARK       I    between atoms: C_98  and  N_104 
REMARK   44  A    between atoms: N_104  and  CA_105 
REMARK   45  A    between atoms: CA_105  and  C_106 
REMARK   46  A    between atoms: CA_105  and  CB_108 
REMARK       I    between atoms: C_106  and  N_116 
REMARK   47  A    between atoms: CB_108  and  CG_109 
REMARK   48  A    between atoms: CG_109  and  CD_110 
REMARK       I    between atoms: CD_110  and  NE2_111 
REMARK   49  A    between atoms: N_116  and  CA_117 
REMARK   50  A    between atoms: CA_117  and  C_118 
REMARK   51  A    between atoms: CA_117  and  CB_120 
REMARK       I    between atoms: C_118  and  N_133 
REMARK   52  A    between atoms: CB_120  and  CG_121 
REMARK   53  A    between atoms: CG_121  and  CD_122 
REMARK   54  A    between atoms: CD_122  and  NE_123 
REMARK       I    between atoms: NE_123  and  CZ_124 
REMARK       I    between atoms: CZ_124  and  NH1_125 
REMARK   55  A    between atoms: N_133  and  CA_134 
REMARK   56  A    between atoms: CA_134  and  C_135 
REMARK   57  A    between atoms: CA_134  and  CB_137 
REMARK       I    between atoms: C_135  and  N_141 
REMARK   58  A    between atoms: N_141  and  CA_142 
REMARK   59  A    between atoms: CA_142  and  C_143 
REMARK   60  A    between atoms: CA_142  and  CB_145 
REMARK       I    between atoms: C_143  and  N_150 
REMARK   61  A    between atoms: CB_145  and  CG_146 
REMARK   62  A    between atoms: CG_146  and  SD_147 
REMARK   63  A    between atoms: N_150  and  CA_151 
REMARK   64  A    between atoms: CA_151  and  C_152 
REMARK   65  A    between atoms: CA_151  and  CB_154 
ROOT
ATOM      1  CA  GLU d   9    2531.207 780.459-2637.953  0.00  0.00     0.177 C 
ENDROOT
BRANCH   1   2
ATOM      2  N   GLU d   9    2529.904 779.802-2638.008  0.00  0.00    -0.346 N 
ATOM      3  C   ASP d   8    2529.224 779.852-2639.103  0.00  0.00     0.241 C 
ATOM      4  O   ASP d   8    2529.697 780.456-2640.078  0.00  0.00    -0.271 OA
ATOM      5  H   GLU d   9    2529.540 779.317-2637.200  0.00  0.00     0.163 HD
BRANCH   3   6
ATOM      6  CA  ASP d   8    2527.876 779.173-2639.159  0.00  0.00     0.186 C 
BRANCH   6   7
ATOM      7  N   ASP d   8    2527.946 777.824-2638.605  0.00  0.00    -0.346 N 
ATOM      8  C   LEU d   7    2528.783 776.982-2639.111  0.00  0.00     0.241 C 
ATOM      9  O   LEU d   7    2529.504 777.344-2640.054  0.00  0.00    -0.271 OA
ATOM     10  H   ASP d   8    2527.348 777.553-2637.838  0.00  0.00     0.163 HD
BRANCH   8  11
ATOM     11  CA  LEU d   7    2528.855 775.587-2638.538  0.00  0.00     0.177 C 
BRANCH  11  12
ATOM     12  N   LEU d   7    2528.910 775.623-2637.080  0.00  0.00    -0.346 N 
ATOM     13  C   ILE d   6    2529.856 776.287-2636.506  0.00  0.00     0.241 C 
ATOM     14  O   ILE d   6    2530.691 776.874-2637.210  0.00  0.00    -0.271 OA
ATOM     15  H   LEU d   7    2528.218 775.136-2636.529  0.00  0.00     0.163 HD
BRANCH  13  16
ATOM     16  CA  ILE d   6    2529.913 776.324-2634.999  0.00  0.00     0.180 C 
BRANCH  16  17
ATOM     17  N   ILE d   6    2528.600 776.620-2634.433  0.00  0.00    -0.346 N 
ATOM     18  C   SER d   5    2527.996 777.703-2634.787  0.00  0.00     0.243 C 
ATOM     19  O   SER d   5    2528.544 778.456-2635.592  0.00  0.00    -0.271 OA
ATOM     20  H   ILE d   6    2528.171 775.985-2633.774  0.00  0.00     0.163 HD
BRANCH  18  21
ATOM     21  CA  SER d   5    2526.637 778.009-2634.202  0.00  0.00     0.200 C 
BRANCH  21  22
ATOM     22  N   SER d   5    2525.767 776.838-2634.260  0.00  0.00    -0.344 N 
ATOM     23  C   GLU d   4    2525.540 776.285-2635.404  0.00  0.00     0.241 C 
ATOM     24  O   GLU d   4    2526.067 776.765-2636.418  0.00  0.00    -0.271 OA
ATOM     25  H   SER d   5    2525.350 776.466-2633.419  0.00  0.00     0.163 HD
BRANCH  23  26
ATOM     26  CA  GLU d   4    2524.641 775.075-2635.465  0.00  0.00     0.177 C 
BRANCH  26  27
ATOM     27  N   GLU d   4    2525.000 774.104-2634.436  0.00  0.00    -0.346 N 
ATOM     28  C   PRO d   3    2526.205 773.643-2634.403  0.00  0.00     0.241 C 
ATOM     29  O   PRO d   3    2527.028 774.026-2635.234  0.00  0.00    -0.271 OA
ATOM     30  H   GLU d   4    2524.315 773.797-2633.759  0.00  0.00     0.163 HD
BRANCH  28  31
ATOM     31  CA  PRO d   3    2526.603 772.620-2633.326  0.00  0.00     0.179 C 
ATOM     32  N   PRO d   3    2526.150 773.029-2632.004  0.00  0.00    -0.337 N 
ATOM     33  C   ASN d   2    2526.672 774.024-2631.370  0.00  0.00     0.243 C 
ATOM     34  CD  PRO d   3    2525.072 772.236-2631.456  0.00  0.00     0.127 C 
ATOM     35  O   ASN d   2    2527.587 774.654-2631.898  0.00  0.00    -0.271 OA
ATOM     36  CG  PRO d   3    2524.615 771.417-2632.666  0.00  0.00     0.022 C 
ATOM     37  CB  PRO d   3    2525.898 771.265-2633.495  0.00  0.00     0.037 C 
BRANCH  33  38
ATOM     38  CA  ASN d   2    2526.140 774.379-2630.001  0.00  0.00     0.185 C 
BRANCH  38  39
ATOM     39  N   ASN d   2    2524.681 774.418-2630.002  0.00  0.00    -0.346 N 
ATOM     40  C   GLU d   1    2524.077 775.204-2630.827  0.00  0.00     0.242 C 
ATOM     41  O   GLU d   1    2524.752 775.903-2631.595  0.00  0.00    -0.271 OA
ATOM     42  H   ASN d   2    2524.153 773.839-2629.365  0.00  0.00     0.163 HD
BRANCH  40  43
ATOM     43  CA  GLU d   1    2522.568 775.244-2630.827  0.00  0.00     0.191 C 
BRANCH  43  44
ATOM     44  N   GLU d   1    2522.009 773.895-2630.827  0.00  0.00    -0.326 NA
ATOM     45  H   GLU d   1    2522.635 773.016-2630.827  0.00  0.00     0.180 HD
ENDBRANCH  43  44
BRANCH  43  46
ATOM     46  CB  GLU d   1    2522.044 776.029-2629.590  0.00  0.00     0.047 C 
BRANCH  46  47
ATOM     47  CG  GLU d   1    2522.520 777.514-2629.479  0.00  0.00     0.116 C 
BRANCH  47  48
ATOM     48  CD  GLU d   1    2522.095 778.318-2628.264  0.00  0.00     0.172 C 
ATOM     49  OE1 GLU d   1    2521.367 777.816-2627.386  0.00  0.00    -0.648 OA
ATOM     50  OE2 GLU d   1    2522.526 779.488-2628.192  0.00  0.00    -0.648 OA
ENDBRANCH  47  48
ENDBRANCH  46  47
ENDBRANCH  43  46
ENDBRANCH  40  43
ENDBRANCH  38  39
BRANCH  38  51
ATOM     51  CB  ASN d   2    2526.632 773.356-2628.937  0.00  0.00     0.137 C 
BRANCH  51  52
ATOM     52  CG  ASN d   2    2526.169 773.580-2627.494  0.00  0.00     0.217 C 
ATOM     53  ND2 ASN d   2    2526.763 774.495-2626.775  0.00  0.00    -0.370 N 
ATOM     54 21HD ASN d   2    2526.282 774.668-2625.889  0.00  0.00     0.159 HD
ATOM     55 22HD ASN d   2    2527.465 775.067-2627.244  0.00  0.00     0.159 HD
ATOM     56  OD1 ASN d   2    2525.248 772.947-2627.000  0.00  0.00    -0.274 OA
ENDBRANCH  51  52
ENDBRANCH  38  51
ENDBRANCH  33  38
ENDBRANCH  28  31
ENDBRANCH  26  27
BRANCH  26  57
ATOM     57  CB  GLU d   4    2523.152 775.494-2635.296  0.00  0.00     0.045 C 
BRANCH  57  58
ATOM     58  CG  GLU d   4    2522.605 776.497-2636.361  0.00  0.00     0.116 C 
BRANCH  58  59
ATOM     59  CD  GLU d   4    2521.178 776.994-2636.218  0.00  0.00     0.172 C 
ATOM     60  OE1 GLU d   4    2520.452 776.596-2635.288  0.00  0.00    -0.648 OA
ATOM     61  OE2 GLU d   4    2520.790 777.824-2637.067  0.00  0.00    -0.648 OA
ENDBRANCH  58  59
ENDBRANCH  57  58
ENDBRANCH  26  57
ENDBRANCH  23  26
ENDBRANCH  21  22
BRANCH  21  62
ATOM     62  CB  SER d   5    2526.748 778.541-2632.751  0.00  0.00     0.199 C 
BRANCH  62  63
ATOM     63  OG  SER d   5    2527.479 777.661-2631.890  0.00  0.00    -0.398 OA
ATOM     64  HG  SER d   5    2526.990 776.837-2631.839  0.00  0.00     0.209 HD
ENDBRANCH  62  63
ENDBRANCH  21  62
ENDBRANCH  18  21
ENDBRANCH  16  17
BRANCH  16  65
ATOM     65  CB  ILE d   6    2530.512 774.988-2634.398  0.00  0.00     0.013 C 
ATOM     66  CG2 ILE d   6    2531.954 774.685-2634.913  0.00  0.00     0.012 C 
BRANCH  65  67
ATOM     67  CG1 ILE d   6    2530.531 774.925-2632.837  0.00  0.00     0.002 C 
ATOM     68  CD1 ILE d   6    2530.801 773.536-2632.222  0.00  0.00     0.005 C 
ENDBRANCH  65  67
ENDBRANCH  16  65
ENDBRANCH  13  16
ENDBRANCH  11  12
BRANCH  11  69
ATOM     69  CB  LEU d   7    2527.652 774.727-2639.019  0.00  0.00     0.038 C 
BRANCH  69  70
ATOM     70  CG  LEU d   7    2527.579 773.248-2638.552  0.00  0.00    -0.020 C 
ATOM     71  CD1 LEU d   7    2526.389 772.542-2639.218  0.00  0.00     0.009 C 
ATOM     72  CD2 LEU d   7    2528.872 772.468-2638.844  0.00  0.00     0.009 C 
ENDBRANCH  69  70
ENDBRANCH  11  69
ENDBRANCH   8  11
ENDBRANCH   6   7
BRANCH   6  73
ATOM     73  CB  ASP d   8    2526.799 780.013-2638.418  0.00  0.00     0.147 C 
BRANCH  73  74
ATOM     74  CG  ASP d   8    2526.581 781.433-2638.960  0.00  0.00     0.175 C 
ATOM     75  OD1 ASP d   8    2526.645 781.632-2640.191  0.00  0.00    -0.648 OA
ATOM     76  OD2 ASP d   8    2526.389 782.360-2638.145  0.00  0.00    -0.648 OA
ENDBRANCH  73  74
ENDBRANCH   6  73
ENDBRANCH   3   6
ENDBRANCH   1   2
BRANCH   1  77
ATOM     77  C   GLU d   9    2532.124 779.931-2639.029  0.00  0.00     0.241 C 
ATOM     78  O   GLU d   9    2532.788 780.684-2639.755  0.00  0.00    -0.271 OA
ATOM     79  N   HIS d  10    2532.220 778.655-2639.198  0.00  0.00    -0.346 N 
ATOM     80  H   HIS d  10    2531.689 778.021-2638.619  0.00  0.00     0.163 HD
BRANCH  79  81
ATOM     81  CA  HIS d  10    2533.107 778.143-2640.238  0.00  0.00     0.182 C 
BRANCH  81  82
ATOM     82  C   HIS d  10    2532.740 778.707-2641.589  0.00  0.00     0.241 C 
ATOM     83  O   HIS d  10    2533.593 779.171-2642.362  0.00  0.00    -0.271 OA
ATOM     84  N   VAL d  11    2531.503 778.707-2641.952  0.00  0.00    -0.346 N 
ATOM     85  H   VAL d  11    2530.790 778.335-2641.341  0.00  0.00     0.163 HD
BRANCH  84  86
ATOM     86  CA  VAL d  11    2531.147 779.252-2643.259  0.00  0.00     0.180 C 
BRANCH  86  87
ATOM     87  C   VAL d  11    2531.613 780.683-2643.393  0.00  0.00     0.241 C 
ATOM     88  O   VAL d  11    2532.214 781.087-2644.396  0.00  0.00    -0.271 OA
ATOM     89  N   GLN d  12    2531.376 781.509-2642.430  0.00  0.00    -0.346 N 
ATOM     90  H   GLN d  12    2530.888 781.203-2641.601  0.00  0.00     0.163 HD
BRANCH  89  91
ATOM     91  CA  GLN d  12    2531.826 782.892-2642.558  0.00  0.00     0.177 C 
BRANCH  91  92
ATOM     92  C   GLN d  12    2533.315 782.958-2642.797  0.00  0.00     0.241 C 
ATOM     93  O   GLN d  12    2533.803 783.666-2643.676  0.00  0.00    -0.271 OA
ATOM     94  N   ARG d  13    2534.100 782.251-2642.055  0.00  0.00    -0.346 N 
ATOM     95  H   ARG d  13    2533.724 781.662-2641.326  0.00  0.00     0.163 HD
BRANCH  94  96
ATOM     96  CA  ARG d  13    2535.540 782.316-2642.287  0.00  0.00     0.176 C 
BRANCH  96  97
ATOM     97  C   ARG d  13    2535.876 781.944-2643.711  0.00  0.00     0.241 C 
ATOM     98  O   ARG d  13    2536.645 782.615-2644.396  0.00  0.00    -0.271 OA
ATOM     99  N   VAL d  14    2535.339 780.889-2644.225  0.00  0.00    -0.346 N 
ATOM    100  H   VAL d  14    2534.704 780.321-2643.683  0.00  0.00     0.163 HD
BRANCH  99 101
ATOM    101  CA  VAL d  14    2535.664 780.529-2645.603  0.00  0.00     0.180 C 
BRANCH 101 102
ATOM    102  C   VAL d  14    2535.334 781.659-2646.549  0.00  0.00     0.241 C 
ATOM    103  O   VAL d  14    2536.127 782.040-2647.418  0.00  0.00    -0.271 OA
ATOM    104  N   MET d  15    2534.189 782.245-2646.447  0.00  0.00    -0.346 N 
ATOM    105  H   MET d  15    2533.524 781.952-2645.745  0.00  0.00     0.163 HD
BRANCH 104 106
ATOM    106  CA  MET d  15    2533.869 783.337-2647.361  0.00  0.00     0.177 C 
BRANCH 106 107
ATOM    107  C   MET d  15    2534.899 784.437-2647.273  0.00  0.00     0.241 C 
ATOM    108  O   MET d  15    2535.402 784.948-2648.286  0.00  0.00    -0.271 OA
ATOM    109  N   VAL d  16    2535.268 784.859-2646.111  0.00  0.00    -0.347 N 
ATOM    110  H   VAL d  16    2534.874 784.459-2645.272  0.00  0.00     0.163 HD
BRANCH 109 111
ATOM    111  CA  VAL d  16    2536.265 785.923-2646.028  0.00  0.00     0.166 C 
BRANCH 111 112
ATOM    112  C   VAL d  16    2537.536 785.530-2646.743  0.00  0.00     0.219 C 
ATOM    113  O   VAL d  16    2537.660 784.437-2647.310  0.00  0.00    -0.287 OA
ENDBRANCH 111 112
BRANCH 111 114
ATOM    114  CB  VAL d  16    2536.556 786.267-2644.513  0.00  0.00     0.008 C 
ATOM    115  CG1 VAL d  16    2537.729 787.249-2644.242  0.00  0.00     0.012 C 
ATOM    116  CG2 VAL d  16    2535.343 786.863-2643.761  0.00  0.00     0.012 C 
ENDBRANCH 111 114
ENDBRANCH 109 111
ENDBRANCH 106 107
BRANCH 106 117
ATOM    117  CB  MET d  15    2532.448 783.883-2647.052  0.00  0.00     0.045 C 
BRANCH 117 118
ATOM    118  CG  MET d  15    2531.285 782.885-2647.243  0.00  0.00     0.076 C 
BRANCH 118 119
ATOM    119  SD  MET d  15    2529.712 783.752-2647.128  0.00  0.00    -0.173 SA
ATOM    120  CE  MET d  15    2528.631 782.322-2646.991  0.00  0.00     0.089 C 
ENDBRANCH 118 119
ENDBRANCH 117 118
ENDBRANCH 106 117
ENDBRANCH 104 106
ENDBRANCH 101 102
BRANCH 101 121
ATOM    121  CB  VAL d  14    2534.891 779.212-2646.009  0.00  0.00     0.009 C 
ATOM    122  CG1 VAL d  14    2534.979 778.793-2647.502  0.00  0.00     0.012 C 
ATOM    123  CG2 VAL d  14    2535.323 777.960-2645.208  0.00  0.00     0.012 C 
ENDBRANCH 101 121
ENDBRANCH  99 101
ENDBRANCH  96  97
BRANCH  96 124
ATOM    124  CB  ARG d  13    2536.253 781.378-2641.272  0.00  0.00     0.036 C 
BRANCH 124 125
ATOM    125  CG  ARG d  13    2537.799 781.531-2641.192  0.00  0.00     0.023 C 
BRANCH 125 126
ATOM    126  CD  ARG d  13    2538.426 780.544-2640.194  0.00  0.00     0.138 C 
BRANCH 126 127
ATOM    127  NE  ARG d  13    2539.903 780.750-2640.144  0.00  0.00    -0.227 N 
ATOM    128  CZ  ARG d  13    2540.751 780.059-2639.388  0.00  0.00     0.665 C 
ATOM    129  NH1 ARG d  13    2540.386 779.096-2638.590  0.00  0.00    -0.235 N 
ATOM    130  NH2 ARG d  13    2542.010 780.358-2639.446  0.00  0.00    -0.235 N 
ATOM    131 11HH ARG d  13    2539.380 778.910-2638.593  0.00  0.00     0.174 HD
ATOM    132 12HH ARG d  13    2541.099 778.613-2638.041  0.00  0.00     0.174 HD
ATOM    133 21HH ARG d  13    2542.278 781.115-2640.077  0.00  0.00     0.174 HD
ATOM    134 22HH ARG d  13    2542.646 779.817-2638.857  0.00  0.00     0.174 HD
ATOM    135  HE  ARG d  13    2540.354 781.472-2640.715  0.00  0.00     0.177 HD
ENDBRANCH 126 127
ENDBRANCH 125 126
ENDBRANCH 124 125
ENDBRANCH  96 124
ENDBRANCH  94  96
ENDBRANCH  91  92
BRANCH  91 136
ATOM    136  CB  GLN d  12    2531.435 783.660-2641.276  0.00  0.00     0.044 C 
BRANCH 136 137
ATOM    137  CG  GLN d  12    2531.797 785.182-2641.246  0.00  0.00     0.105 C 
BRANCH 137 138
ATOM    138  CD  GLN d  12    2531.495 785.996-2639.981  0.00  0.00     0.215 C 
ATOM    139  NE2 GLN d  12    2530.928 785.420-2638.952  0.00  0.00    -0.370 N 
ATOM    140 21HE GLN d  12    2530.822 786.015-2638.129  0.00  0.00     0.159 HD
ATOM    141 22HE GLN d  12    2530.764 784.417-2639.055  0.00  0.00     0.159 HD
ATOM    142  OE1 GLN d  12    2531.798 787.177-2639.905  0.00  0.00    -0.274 OA
ENDBRANCH 137 138
ENDBRANCH 136 137
ENDBRANCH  91 136
ENDBRANCH  89  91
ENDBRANCH  86  87
BRANCH  86 143
ATOM    143  CB  VAL d  11    2529.586 779.146-2643.478  0.00  0.00     0.009 C 
ATOM    144  CG1 VAL d  11    2529.018 779.850-2644.741  0.00  0.00     0.012 C 
ATOM    145  CG2 VAL d  11    2529.061 777.693-2643.550  0.00  0.00     0.012 C 
ENDBRANCH  86 143
ENDBRANCH  84  86
ENDBRANCH  81  82
BRANCH  81 146
ATOM    146  CB  HIS d  10    2532.943 776.614-2640.232  0.00  0.00     0.095 C 
BRANCH 146 147
ATOM    147  CG  HIS d  10    2534.228 775.903-2639.924  0.00  0.00     0.053 A 
ATOM    148  CD2 HIS d  10    2534.610 775.569-2638.632  0.00  0.00     0.116 A 
ATOM    149  NE2 HIS d  10    2535.824 774.937-2638.698  0.00  0.00    -0.359 N 
ATOM    150  CE1 HIS d  10    2536.086 774.939-2640.034  0.00  0.00     0.207 A 
ATOM    151  2HE HIS d  10    2536.391 774.560-2637.925  0.00  0.00     0.166 HD
ATOM    152  ND1 HIS d  10    2535.180 775.497-2640.857  0.00  0.00    -0.247 NA
ENDBRANCH 146 147
ENDBRANCH  81 146
ENDBRANCH  79  81
ENDBRANCH   1  77
BRANCH   1 153
ATOM    153  CB  GLU d   9    2531.840 780.252-2636.548  0.00  0.00     0.045 C 
BRANCH 153 154
ATOM    154  CG  GLU d   9    2533.223 780.944-2636.319  0.00  0.00     0.116 C 
BRANCH 154 155
ATOM    155  CD  GLU d   9    2533.925 780.731-2634.990  0.00  0.00     0.172 C 
ATOM    156  OE1 GLU d   9    2533.404 780.041-2634.094  0.00  0.00    -0.648 OA
ATOM    157  OE2 GLU d   9    2535.045 781.268-2634.859  0.00  0.00    -0.648 OA
ENDBRANCH 154 155
ENDBRANCH 153 154
ENDBRANCH   1 153
TORSDOF 65
