REMARK WARNING: 32 MAX_TORS EXCEEDED!!!
REMARK  68 active torsions:
REMARK  status: ('A' for Active; 'I' for Inactive)
REMARK    1  A    between atoms: N_1  and  CA_2 
REMARK    2  A    between atoms: CA_2  and  C_3 
REMARK    3  A    between atoms: CA_2  and  CB_5 
REMARK       I    between atoms: C_3  and  N_11 
REMARK    4  A    between atoms: CB_5  and  CG_6 
REMARK    5  A    between atoms: CG_6  and  CD_7 
REMARK    6  A    between atoms: N_11  and  CA_12 
REMARK    7  A    between atoms: CA_12  and  C_13 
REMARK    8  A    between atoms: CA_12  and  CB_15 
REMARK       I    between atoms: C_13  and  N_22 
REMARK    9  A    between atoms: CB_15  and  CG_16 
REMARK       I    between atoms: CG_16  and  ND2_17 
REMARK   10  A    between atoms: CA_23  and  C_24 
REMARK       I    between atoms: C_24  and  N_29 
REMARK   11  A    between atoms: N_29  and  CA_30 
REMARK   12  A    between atoms: CA_30  and  C_31 
REMARK   13  A    between atoms: CA_30  and  CB_33 
REMARK       I    between atoms: C_31  and  N_39 
REMARK   14  A    between atoms: CB_33  and  CG_34 
REMARK   15  A    between atoms: CG_34  and  CD_35 
REMARK   16  A    between atoms: N_39  and  CA_40 
REMARK   17  A    between atoms: CA_40  and  C_41 
REMARK   18  A    between atoms: CA_40  and  CB_43 
REMARK       I    between atoms: C_41  and  N_47 
REMARK   19  A    between atoms: CB_43  and  OG_44 
REMARK   20  A    between atoms: N_47  and  CA_48 
REMARK   21  A    between atoms: CA_48  and  C_49 
REMARK   22  A    between atoms: CA_48  and  CB_51 
REMARK       I    between atoms: C_49  and  N_56 
REMARK   23  A    between atoms: CB_51  and  CG1_52 
REMARK   24  A    between atoms: N_56  and  CA_57 
REMARK   25  A    between atoms: CA_57  and  C_58 
REMARK   26  A    between atoms: CA_57  and  CB_60 
REMARK       I    between atoms: C_58  and  N_65 
REMARK   27  A    between atoms: CB_60  and  CG_61 
REMARK   28  A    between atoms: N_65  and  CA_66 
REMARK   29  A    between atoms: CA_66  and  C_67 
REMARK   30  A    between atoms: CA_66  and  CB_69 
REMARK       I    between atoms: C_67  and  N_74 
REMARK   31  A    between atoms: CB_69  and  CG_70 
REMARK   32  A    between atoms: N_74  and  CA_75 
REMARK   33  A    between atoms: CA_75  and  C_76 
REMARK   34  A    between atoms: CA_75  and  CB_78 
REMARK       I    between atoms: C_76  and  N_84 
REMARK   35  A    between atoms: CB_78  and  CG_79 
REMARK   36  A    between atoms: CG_79  and  CD_80 
REMARK   37  A    between atoms: N_84  and  CA_85 
REMARK   38  A    between atoms: CA_85  and  C_86 
REMARK   39  A    between atoms: CA_85  and  CB_88 
REMARK       I    between atoms: C_86  and  N_96 
REMARK   40  A    between atoms: CB_88  and  CG_89 
REMARK   41  A    between atoms: N_96  and  CA_97 
REMARK   42  A    between atoms: CA_97  and  C_98 
REMARK   43  A    between atoms: CA_97  and  CB_100 
REMARK       I    between atoms: C_98  and  N_104 
REMARK   44  A    between atoms: N_104  and  CA_105 
REMARK   45  A    between atoms: CA_105  and  C_106 
REMARK   46  A    between atoms: CA_105  and  CB_108 
REMARK       I    between atoms: C_106  and  N_116 
REMARK   47  A    between atoms: CB_108  and  CG_109 
REMARK   48  A    between atoms: CG_109  and  CD_110 
REMARK       I    between atoms: CD_110  and  NE2_111 
REMARK   49  A    between atoms: N_116  and  CA_117 
REMARK   50  A    between atoms: CA_117  and  C_118 
REMARK   51  A    between atoms: CA_117  and  CB_120 
REMARK       I    between atoms: C_118  and  N_133 
REMARK   52  A    between atoms: CB_120  and  CG_121 
REMARK   53  A    between atoms: CG_121  and  CD_122 
REMARK   54  A    between atoms: CD_122  and  NE_123 
REMARK       I    between atoms: NE_123  and  CZ_124 
REMARK       I    between atoms: CZ_124  and  NH1_125 
REMARK       I    between atoms: CZ_124  and  NH2_126 
REMARK   55  A    between atoms: N_133  and  CA_134 
REMARK   56  A    between atoms: CA_134  and  C_135 
REMARK   57  A    between atoms: CA_134  and  CB_137 
REMARK       I    between atoms: C_135  and  N_141 
REMARK   58  A    between atoms: N_141  and  CA_142 
REMARK   59  A    between atoms: CA_142  and  C_143 
REMARK   60  A    between atoms: CA_142  and  CB_145 
REMARK       I    between atoms: C_143  and  N_150 
REMARK   61  A    between atoms: CB_145  and  CG_146 
REMARK   62  A    between atoms: CG_146  and  SD_147 
REMARK   63  A    between atoms: N_150  and  CA_151 
REMARK   64  A    between atoms: CA_151  and  C_152 
REMARK   65  A    between atoms: CA_151  and  CB_154 
REMARK   66  A    between atoms: CB_154  and  CG_155 
REMARK   67  A    between atoms: CG_155  and  CD_156 
REMARK   68  A    between atoms: CD_156  and  NE_157 
REMARK       I    between atoms: NE_157  and  CZ_158 
REMARK       I    between atoms: CZ_158  and  NH1_159 
ROOT
ATOM      1  C   GLU d   9     358.957  84.659-335.258  0.00  0.00     0.241 C 
ATOM      2  O   GLU d   9     359.621  85.414-335.984  0.00  0.00    -0.271 OA
ATOM      3  N   HIS d  10     359.054  83.384-335.428  0.00  0.00    -0.346 N 
ATOM      4  H   HIS d  10     358.524  82.749-334.850  0.00  0.00     0.163 HD
ENDROOT
BRANCH   1   5
ATOM      5  CA  GLU d   9     358.039  85.187-334.182  0.00  0.00     0.177 C 
BRANCH   5   6
ATOM      6  N   GLU d   9     356.736  84.528-334.238  0.00  0.00    -0.346 N 
ATOM      7  C   ASP d   8     356.056  84.578-335.333  0.00  0.00     0.241 C 
ATOM      8  O   ASP d   8     356.529  85.184-336.307  0.00  0.00    -0.271 OA
ATOM      9  H   GLU d   9     356.373  84.042-333.431  0.00  0.00     0.163 HD
BRANCH   7  10
ATOM     10  CA  ASP d   8     354.710  83.898-335.390  0.00  0.00     0.186 C 
BRANCH  10  11
ATOM     11  N   ASP d   8     354.781  82.548-334.837  0.00  0.00    -0.346 N 
ATOM     12  C   LEU d   7     355.619  81.708-335.343  0.00  0.00     0.241 C 
ATOM     13  O   LEU d   7     356.339  82.071-336.285  0.00  0.00    -0.271 OA
ATOM     14  H   ASP d   8     354.184  82.277-334.069  0.00  0.00     0.163 HD
BRANCH  12  15
ATOM     15  CA  LEU d   7     355.692  80.313-334.771  0.00  0.00     0.177 C 
BRANCH  15  16
ATOM     16  N   LEU d   7     355.747  80.349-333.313  0.00  0.00    -0.346 N 
ATOM     17  C   ILE d   6     356.693  81.012-332.739  0.00  0.00     0.241 C 
ATOM     18  O   ILE d   6     357.527  81.601-333.443  0.00  0.00    -0.271 OA
ATOM     19  H   LEU d   7     355.055  79.861-332.761  0.00  0.00     0.163 HD
BRANCH  17  20
ATOM     20  CA  ILE d   6     356.750  81.050-331.231  0.00  0.00     0.180 C 
BRANCH  20  21
ATOM     21  N   ILE d   6     355.437  81.344-330.665  0.00  0.00    -0.346 N 
ATOM     22  C   SER d   5     354.832  82.427-331.019  0.00  0.00     0.243 C 
ATOM     23  O   SER d   5     355.378  83.181-331.824  0.00  0.00    -0.271 OA
ATOM     24  H   ILE d   6     355.009  80.710-330.006  0.00  0.00     0.163 HD
BRANCH  22  25
ATOM     25  CA  SER d   5     353.473  82.732-330.433  0.00  0.00     0.200 C 
BRANCH  25  26
ATOM     26  N   SER d   5     352.604  81.561-330.491  0.00  0.00    -0.344 N 
ATOM     27  C   GLU d   4     352.376  81.008-331.634  0.00  0.00     0.241 C 
ATOM     28  O   GLU d   4     352.902  81.488-332.649  0.00  0.00    -0.271 OA
ATOM     29  H   SER d   5     352.187  81.189-329.650  0.00  0.00     0.163 HD
BRANCH  27  30
ATOM     30  CA  GLU d   4     351.477  79.797-331.695  0.00  0.00     0.177 C 
BRANCH  30  31
ATOM     31  N   GLU d   4     351.838  78.826-330.666  0.00  0.00    -0.346 N 
ATOM     32  C   PRO d   3     353.042  78.366-330.634  0.00  0.00     0.241 C 
ATOM     33  O   PRO d   3     353.866  78.750-331.465  0.00  0.00    -0.271 OA
ATOM     34  H   GLU d   4     351.154  78.519-329.989  0.00  0.00     0.163 HD
BRANCH  32  35
ATOM     35  CA  PRO d   3     353.441  77.343-329.557  0.00  0.00     0.179 C 
ATOM     36  N   PRO d   3     352.989  77.752-328.235  0.00  0.00    -0.337 N 
ATOM     37  C   ASN d   2     353.510  78.747-327.601  0.00  0.00     0.243 C 
ATOM     38  CD  PRO d   3     351.911  76.959-327.686  0.00  0.00     0.127 C 
ATOM     39  O   ASN d   2     354.425  79.378-328.130  0.00  0.00    -0.271 OA
ATOM     40  CG  PRO d   3     351.454  76.140-328.896  0.00  0.00     0.022 C 
ATOM     41  CB  PRO d   3     352.737  75.988-329.726  0.00  0.00     0.037 C 
BRANCH  37  42
ATOM     42  CA  ASN d   2     352.979  79.102-326.233  0.00  0.00     0.185 C 
BRANCH  42  43
ATOM     43  N   ASN d   2     351.520  79.141-326.232  0.00  0.00    -0.346 N 
ATOM     44  C   GLU d   1     350.915  79.927-327.058  0.00  0.00     0.242 C 
ATOM     45  O   GLU d   1     351.591  80.626-327.826  0.00  0.00    -0.271 OA
ATOM     46  H   ASN d   2     350.992  78.561-325.596  0.00  0.00     0.163 HD
BRANCH  44  47
ATOM     47  CA  GLU d   1     349.406  79.967-327.058  0.00  0.00     0.191 C 
BRANCH  47  48
ATOM     48  N   GLU d   1     348.847  78.618-327.058  0.00  0.00    -0.326 NA
ATOM     49  H   GLU d   1     349.474  77.739-327.058  0.00  0.00     0.180 HD
ENDBRANCH  47  48
BRANCH  47  50
ATOM     50  CB  GLU d   1     348.883  80.752-325.821  0.00  0.00     0.047 C 
BRANCH  50  51
ATOM     51  CG  GLU d   1     349.358  82.237-325.710  0.00  0.00     0.116 C 
BRANCH  51  52
ATOM     52  CD  GLU d   1     348.934  83.041-324.495  0.00  0.00     0.172 C 
ATOM     53  OE1 GLU d   1     348.206  82.539-323.617  0.00  0.00    -0.648 OA
ATOM     54  OE2 GLU d   1     349.364  84.211-324.423  0.00  0.00    -0.648 OA
ENDBRANCH  51  52
ENDBRANCH  50  51
ENDBRANCH  47  50
ENDBRANCH  44  47
ENDBRANCH  42  43
BRANCH  42  55
ATOM     55  CB  ASN d   2     353.472  78.080-325.168  0.00  0.00     0.137 C 
BRANCH  55  56
ATOM     56  CG  ASN d   2     353.009  78.303-323.725  0.00  0.00     0.217 C 
ATOM     57  ND2 ASN d   2     353.603  79.218-323.007  0.00  0.00    -0.370 N 
ATOM     58 21HD ASN d   2     353.122  79.391-322.120  0.00  0.00     0.159 HD
ATOM     59 22HD ASN d   2     354.304  79.790-323.476  0.00  0.00     0.159 HD
ATOM     60  OD1 ASN d   2     352.088  77.669-323.231  0.00  0.00    -0.274 OA
ENDBRANCH  55  56
ENDBRANCH  42  55
ENDBRANCH  37  42
ENDBRANCH  32  35
ENDBRANCH  30  31
BRANCH  30  61
ATOM     61  CB  GLU d   4     349.989  80.215-331.525  0.00  0.00     0.045 C 
BRANCH  61  62
ATOM     62  CG  GLU d   4     349.440  81.218-332.591  0.00  0.00     0.116 C 
BRANCH  62  63
ATOM     63  CD  GLU d   4     348.014  81.715-332.447  0.00  0.00     0.172 C 
ATOM     64  OE1 GLU d   4     347.288  81.316-331.516  0.00  0.00    -0.648 OA
ATOM     65  OE2 GLU d   4     347.624  82.544-333.295  0.00  0.00    -0.648 OA
ENDBRANCH  62  63
ENDBRANCH  61  62
ENDBRANCH  30  61
ENDBRANCH  27  30
ENDBRANCH  25  26
BRANCH  25  66
ATOM     66  CB  SER d   5     353.584  83.265-328.982  0.00  0.00     0.199 C 
BRANCH  66  67
ATOM     67  OG  SER d   5     354.316  82.386-328.121  0.00  0.00    -0.398 OA
ATOM     68  HG  SER d   5     353.828  81.561-328.071  0.00  0.00     0.209 HD
ENDBRANCH  66  67
ENDBRANCH  25  66
ENDBRANCH  22  25
ENDBRANCH  20  21
BRANCH  20  69
ATOM     69  CB  ILE d   6     357.350  79.714-330.631  0.00  0.00     0.013 C 
ATOM     70  CG2 ILE d   6     358.791  79.413-331.147  0.00  0.00     0.012 C 
BRANCH  69  71
ATOM     71  CG1 ILE d   6     357.370  79.652-329.070  0.00  0.00     0.002 C 
ATOM     72  CD1 ILE d   6     357.640  78.263-328.455  0.00  0.00     0.005 C 
ENDBRANCH  69  71
ENDBRANCH  20  69
ENDBRANCH  17  20
ENDBRANCH  15  16
BRANCH  15  73
ATOM     73  CB  LEU d   7     354.489  79.452-335.251  0.00  0.00     0.038 C 
BRANCH  73  74
ATOM     74  CG  LEU d   7     354.417  77.972-334.785  0.00  0.00    -0.020 C 
ATOM     75  CD1 LEU d   7     353.227  77.266-335.450  0.00  0.00     0.009 C 
ATOM     76  CD2 LEU d   7     355.711  77.194-335.077  0.00  0.00     0.009 C 
ENDBRANCH  73  74
ENDBRANCH  15  73
ENDBRANCH  12  15
ENDBRANCH  10  11
BRANCH  10  77
ATOM     77  CB  ASP d   8     353.632  84.736-334.648  0.00  0.00     0.147 C 
BRANCH  77  78
ATOM     78  CG  ASP d   8     353.412  86.157-335.188  0.00  0.00     0.175 C 
ATOM     79  OD1 ASP d   8     353.476  86.356-336.419  0.00  0.00    -0.648 OA
ATOM     80  OD2 ASP d   8     353.220  87.083-334.372  0.00  0.00    -0.648 OA
ENDBRANCH  77  78
ENDBRANCH  10  77
ENDBRANCH   7  10
ENDBRANCH   5   6
BRANCH   5  81
ATOM     81  CB  GLU d   9     358.673  84.979-332.777  0.00  0.00     0.045 C 
BRANCH  81  82
ATOM     82  CG  GLU d   9     360.055  85.672-332.548  0.00  0.00     0.116 C 
BRANCH  82  83
ATOM     83  CD  GLU d   9     360.757  85.459-331.220  0.00  0.00     0.172 C 
ATOM     84  OE1 GLU d   9     360.236  84.767-330.323  0.00  0.00    -0.648 OA
ATOM     85  OE2 GLU d   9     361.876  85.997-331.088  0.00  0.00    -0.648 OA
ENDBRANCH  82  83
ENDBRANCH  81  82
ENDBRANCH   5  81
ENDBRANCH   1   5
BRANCH   3  86
ATOM     86  CA  HIS d  10     359.942  82.874-336.469  0.00  0.00     0.182 C 
BRANCH  86  87
ATOM     87  C   HIS d  10     359.575  83.438-337.820  0.00  0.00     0.241 C 
ATOM     88  O   HIS d  10     360.427  83.904-338.591  0.00  0.00    -0.271 OA
ATOM     89  N   VAL d  11     358.337  83.437-338.182  0.00  0.00    -0.346 N 
ATOM     90  H   VAL d  11     357.624  83.063-337.572  0.00  0.00     0.163 HD
BRANCH  89  91
ATOM     91  CA  VAL d  11     357.982  83.983-339.489  0.00  0.00     0.180 C 
BRANCH  91  92
ATOM     92  C   VAL d  11     358.445  85.414-339.621  0.00  0.00     0.241 C 
ATOM     93  O   VAL d  11     359.046  85.819-340.624  0.00  0.00    -0.271 OA
ATOM     94  N   GLN d  12     358.208  86.239-338.659  0.00  0.00    -0.346 N 
ATOM     95  H   GLN d  12     357.719  85.933-337.830  0.00  0.00     0.163 HD
BRANCH  94  96
ATOM     96  CA  GLN d  12     358.655  87.622-338.786  0.00  0.00     0.177 C 
BRANCH  96  97
ATOM     97  C   GLN d  12     360.145  87.691-339.024  0.00  0.00     0.241 C 
ATOM     98  O   GLN d  12     360.632  88.399-339.902  0.00  0.00    -0.271 OA
ATOM     99  N   ARG d  13     360.930  86.984-338.283  0.00  0.00    -0.346 N 
ATOM    100  H   ARG d  13     360.555  86.394-337.555  0.00  0.00     0.163 HD
BRANCH  99 101
ATOM    101  CA  ARG d  13     362.371  87.051-338.514  0.00  0.00     0.176 C 
BRANCH 101 102
ATOM    102  C   ARG d  13     362.707  86.680-339.939  0.00  0.00     0.241 C 
ATOM    103  O   ARG d  13     363.475  87.352-340.623  0.00  0.00    -0.271 OA
ATOM    104  N   VAL d  14     362.171  85.625-340.454  0.00  0.00    -0.346 N 
ATOM    105  H   VAL d  14     361.537  85.056-339.912  0.00  0.00     0.163 HD
BRANCH 104 106
ATOM    106  CA  VAL d  14     362.496  85.266-341.831  0.00  0.00     0.180 C 
BRANCH 106 107
ATOM    107  C   VAL d  14     362.165  86.396-342.777  0.00  0.00     0.241 C 
ATOM    108  O   VAL d  14     362.958  86.778-343.646  0.00  0.00    -0.271 OA
ATOM    109  N   MET d  15     361.020  86.981-342.674  0.00  0.00    -0.346 N 
ATOM    110  H   MET d  15     360.356  86.688-341.973  0.00  0.00     0.163 HD
BRANCH 109 111
ATOM    111  CA  MET d  15     360.699  88.074-343.588  0.00  0.00     0.177 C 
BRANCH 111 112
ATOM    112  C   MET d  15     361.729  89.174-343.500  0.00  0.00     0.241 C 
ATOM    113  O   MET d  15     362.231  89.686-344.513  0.00  0.00    -0.271 OA
ATOM    114  N   ARG d  16     362.097  89.596-342.338  0.00  0.00    -0.347 N 
ATOM    115  H   ARG d  16     361.703  89.195-341.499  0.00  0.00     0.163 HD
BRANCH 114 116
ATOM    116  CA  ARG d  16     363.094  90.660-342.254  0.00  0.00     0.162 C 
BRANCH 116 117
ATOM    117  C   ARG d  16     364.364  90.268-342.970  0.00  0.00     0.219 C 
ATOM    118  O   ARG d  16     364.479  89.192-343.552  0.00  0.00    -0.287 OA
ENDBRANCH 116 117
BRANCH 116 119
ATOM    119  CB  ARG d  16     363.362  90.978-340.755  0.00  0.00     0.035 C 
BRANCH 119 120
ATOM    120  CG  ARG d  16     364.187  92.267-340.482  0.00  0.00     0.023 C 
BRANCH 120 121
ATOM    121  CD  ARG d  16     364.437  92.486-338.981  0.00  0.00     0.138 C 
BRANCH 121 122
ATOM    122  NE  ARG d  16     365.212  93.745-338.780  0.00  0.00    -0.227 N 
ATOM    123  CZ  ARG d  16     365.603  94.228-337.604  0.00  0.00     0.665 C 
ATOM    124  NH1 ARG d  16     365.356  93.643-336.466  0.00  0.00    -0.235 N 
ATOM    125  NH2 ARG d  16     366.267  95.341-337.586  0.00  0.00    -0.235 N 
ATOM    126 11HH ARG d  16     364.831  92.770-336.551  0.00  0.00     0.174 HD
ATOM    127 12HH ARG d  16     365.690  94.079-335.605  0.00  0.00     0.174 HD
ATOM    128 21HH ARG d  16     366.452  95.784-338.487  0.00  0.00     0.174 HD
ATOM    129 22HH ARG d  16     366.557  95.696-336.673  0.00  0.00     0.174 HD
ATOM    130  HE  ARG d  16     365.490  94.327-339.577  0.00  0.00     0.177 HD
ENDBRANCH 121 122
ENDBRANCH 120 121
ENDBRANCH 119 120
ENDBRANCH 116 119
ENDBRANCH 114 116
ENDBRANCH 111 112
BRANCH 111 131
ATOM    131  CB  MET d  15     359.278  88.619-343.279  0.00  0.00     0.045 C 
BRANCH 131 132
ATOM    132  CG  MET d  15     358.116  87.620-343.471  0.00  0.00     0.076 C 
BRANCH 132 133
ATOM    133  SD  MET d  15     356.542  88.486-343.356  0.00  0.00    -0.173 SA
ATOM    134  CE  MET d  15     355.461  87.055-343.220  0.00  0.00     0.089 C 
ENDBRANCH 132 133
ENDBRANCH 131 132
ENDBRANCH 111 131
ENDBRANCH 109 111
ENDBRANCH 106 107
BRANCH 106 135
ATOM    135  CB  VAL d  14     361.724  83.949-342.238  0.00  0.00     0.009 C 
ATOM    136  CG1 VAL d  14     361.813  83.531-343.732  0.00  0.00     0.012 C 
ATOM    137  CG2 VAL d  14     362.157  82.697-341.438  0.00  0.00     0.012 C 
ENDBRANCH 106 135
ENDBRANCH 104 106
ENDBRANCH 101 102
BRANCH 101 138
ATOM    138  CB  ARG d  13     363.085  86.112-337.500  0.00  0.00     0.036 C 
BRANCH 138 139
ATOM    139  CG  ARG d  13     364.629  86.266-337.419  0.00  0.00     0.023 C 
BRANCH 139 140
ATOM    140  CD  ARG d  13     365.257  85.278-336.422  0.00  0.00     0.138 C 
BRANCH 140 141
ATOM    141  NE  ARG d  13     366.734  85.486-336.371  0.00  0.00    -0.227 N 
ATOM    142  CZ  ARG d  13     367.583  84.795-335.616  0.00  0.00     0.665 C 
ATOM    143  NH1 ARG d  13     367.218  83.830-334.819  0.00  0.00    -0.235 N 
ATOM    144  NH2 ARG d  13     368.842  85.095-335.673  0.00  0.00    -0.235 N 
ATOM    145 11HH ARG d  13     366.213  83.643-334.822  0.00  0.00     0.174 HD
ATOM    146 12HH ARG d  13     367.932  83.347-334.271  0.00  0.00     0.174 HD
ATOM    147 21HH ARG d  13     369.109  85.853-336.304  0.00  0.00     0.174 HD
ATOM    148 22HH ARG d  13     369.477  84.553-335.085  0.00  0.00     0.174 HD
ATOM    149  HE  ARG d  13     367.185  86.209-336.942  0.00  0.00     0.177 HD
ENDBRANCH 140 141
ENDBRANCH 139 140
ENDBRANCH 138 139
ENDBRANCH 101 138
ENDBRANCH  99 101
ENDBRANCH  96  97
BRANCH  96 150
ATOM    150  CB  GLN d  12     358.264  88.389-337.503  0.00  0.00     0.044 C 
BRANCH 150 151
ATOM    151  CG  GLN d  12     358.624  89.911-337.471  0.00  0.00     0.105 C 
BRANCH 151 152
ATOM    152  CD  GLN d  12     358.321  90.724-336.206  0.00  0.00     0.215 C 
ATOM    153  NE2 GLN d  12     357.754  90.147-335.177  0.00  0.00    -0.370 N 
ATOM    154 21HE GLN d  12     357.647  90.741-334.354  0.00  0.00     0.159 HD
ATOM    155 22HE GLN d  12     357.591  89.144-335.281  0.00  0.00     0.159 HD
ATOM    156  OE1 GLN d  12     358.622  91.905-336.128  0.00  0.00    -0.274 OA
ENDBRANCH 151 152
ENDBRANCH 150 151
ENDBRANCH  96 150
ENDBRANCH  94  96
ENDBRANCH  91  92
BRANCH  91 157
ATOM    157  CB  VAL d  11     356.420  83.875-339.708  0.00  0.00     0.009 C 
ATOM    158  CG1 VAL d  11     355.851  84.579-340.971  0.00  0.00     0.012 C 
ATOM    159  CG2 VAL d  11     355.897  82.421-339.782  0.00  0.00     0.012 C 
ENDBRANCH  91 157
ENDBRANCH  89  91
ENDBRANCH  86  87
BRANCH  86 160
ATOM    160  CB  HIS d  10     359.779  81.345-336.464  0.00  0.00     0.095 C 
BRANCH 160 161
ATOM    161  CG  HIS d  10     361.065  80.635-336.156  0.00  0.00     0.053 A 
ATOM    162  CD2 HIS d  10     361.446  80.300-334.864  0.00  0.00     0.116 A 
ATOM    163  NE2 HIS d  10     362.661  79.669-334.930  0.00  0.00    -0.359 N 
ATOM    164  CE1 HIS d  10     362.924  79.672-336.266  0.00  0.00     0.207 A 
ATOM    165  2HE HIS d  10     363.228  79.291-334.157  0.00  0.00     0.166 HD
ATOM    166  ND1 HIS d  10     362.017  80.230-337.089  0.00  0.00    -0.247 NA
ENDBRANCH 160 161
ENDBRANCH  86 160
ENDBRANCH   3  86
TORSDOF 68
