REMARK WARNING: 32 MAX_TORS EXCEEDED!!!
REMARK  67 active torsions:
REMARK  status: ('A' for Active; 'I' for Inactive)
REMARK    1  A    between atoms: N_1  and  CA_2 
REMARK    2  A    between atoms: CA_2  and  C_3 
REMARK    3  A    between atoms: CA_2  and  CB_5 
REMARK       I    between atoms: C_3  and  N_11 
REMARK    4  A    between atoms: CB_5  and  CG_6 
REMARK    5  A    between atoms: CG_6  and  CD_7 
REMARK    6  A    between atoms: N_11  and  CA_12 
REMARK    7  A    between atoms: CA_12  and  C_13 
REMARK    8  A    between atoms: CA_12  and  CB_15 
REMARK       I    between atoms: C_13  and  N_22 
REMARK    9  A    between atoms: CB_15  and  CG_16 
REMARK       I    between atoms: CG_16  and  ND2_17 
REMARK   10  A    between atoms: CA_23  and  C_24 
REMARK       I    between atoms: C_24  and  N_29 
REMARK   11  A    between atoms: N_29  and  CA_30 
REMARK   12  A    between atoms: CA_30  and  C_31 
REMARK   13  A    between atoms: CA_30  and  CB_33 
REMARK       I    between atoms: C_31  and  N_39 
REMARK   14  A    between atoms: CB_33  and  CG_34 
REMARK   15  A    between atoms: CG_34  and  CD_35 
REMARK   16  A    between atoms: N_39  and  CA_40 
REMARK   17  A    between atoms: CA_40  and  C_41 
REMARK   18  A    between atoms: CA_40  and  CB_43 
REMARK       I    between atoms: C_41  and  N_47 
REMARK   19  A    between atoms: CB_43  and  OG_44 
REMARK   20  A    between atoms: N_47  and  CA_48 
REMARK   21  A    between atoms: CA_48  and  C_49 
REMARK   22  A    between atoms: CA_48  and  CB_51 
REMARK       I    between atoms: C_49  and  N_56 
REMARK   23  A    between atoms: CB_51  and  CG1_52 
REMARK   24  A    between atoms: N_56  and  CA_57 
REMARK   25  A    between atoms: CA_57  and  C_58 
REMARK   26  A    between atoms: CA_57  and  CB_60 
REMARK       I    between atoms: C_58  and  N_65 
REMARK   27  A    between atoms: CB_60  and  CG_61 
REMARK   28  A    between atoms: N_65  and  CA_66 
REMARK   29  A    between atoms: CA_66  and  C_67 
REMARK   30  A    between atoms: CA_66  and  CB_69 
REMARK       I    between atoms: C_67  and  N_74 
REMARK   31  A    between atoms: CB_69  and  CG_70 
REMARK   32  A    between atoms: N_74  and  CA_75 
REMARK   33  A    between atoms: CA_75  and  C_76 
REMARK   34  A    between atoms: CA_75  and  CB_78 
REMARK       I    between atoms: C_76  and  N_84 
REMARK   35  A    between atoms: CB_78  and  CG_79 
REMARK   36  A    between atoms: CG_79  and  CD_80 
REMARK   37  A    between atoms: N_84  and  CA_85 
REMARK   38  A    between atoms: CA_85  and  C_86 
REMARK   39  A    between atoms: CA_85  and  CB_88 
REMARK       I    between atoms: C_86  and  N_96 
REMARK   40  A    between atoms: CB_88  and  CG_89 
REMARK   41  A    between atoms: N_96  and  CA_97 
REMARK   42  A    between atoms: CA_97  and  C_98 
REMARK   43  A    between atoms: CA_97  and  CB_100 
REMARK       I    between atoms: C_98  and  N_104 
REMARK   44  A    between atoms: N_104  and  CA_105 
REMARK   45  A    between atoms: CA_105  and  C_106 
REMARK   46  A    between atoms: CA_105  and  CB_108 
REMARK       I    between atoms: C_106  and  N_116 
REMARK   47  A    between atoms: CB_108  and  CG_109 
REMARK   48  A    between atoms: CG_109  and  CD_110 
REMARK       I    between atoms: CD_110  and  NE2_111 
REMARK   49  A    between atoms: N_116  and  CA_117 
REMARK   50  A    between atoms: CA_117  and  C_118 
REMARK   51  A    between atoms: CA_117  and  CB_120 
REMARK       I    between atoms: C_118  and  N_133 
REMARK   52  A    between atoms: CB_120  and  CG_121 
REMARK   53  A    between atoms: CG_121  and  CD_122 
REMARK   54  A    between atoms: CD_122  and  NE_123 
REMARK       I    between atoms: NE_123  and  CZ_124 
REMARK       I    between atoms: CZ_124  and  NH1_125 
REMARK   55  A    between atoms: N_133  and  CA_134 
REMARK   56  A    between atoms: CA_134  and  C_135 
REMARK   57  A    between atoms: CA_134  and  CB_137 
REMARK       I    between atoms: C_135  and  N_141 
REMARK   58  A    between atoms: N_141  and  CA_142 
REMARK   59  A    between atoms: CA_142  and  C_143 
REMARK   60  A    between atoms: CA_142  and  CB_145 
REMARK       I    between atoms: C_143  and  N_150 
REMARK   61  A    between atoms: CB_145  and  CG_146 
REMARK   62  A    between atoms: CG_146  and  SD_147 
REMARK   63  A    between atoms: N_150  and  CA_151 
REMARK   64  A    between atoms: CA_151  and  C_152 
REMARK   65  A    between atoms: CA_151  and  CB_154 
REMARK   66  A    between atoms: CB_154  and  CG_155 
REMARK   67  A    between atoms: CG_155  and  SD_156 
ROOT
ATOM      1  CA  GLU d   9    2539.178 782.780-2646.793  0.00  0.00     0.177 C 
ENDROOT
BRANCH   1   2
ATOM      2  N   GLU d   9    2537.875 782.123-2646.848  0.00  0.00    -0.346 N 
ATOM      3  C   ASP d   8    2537.195 782.172-2647.943  0.00  0.00     0.241 C 
ATOM      4  O   ASP d   8    2537.668 782.777-2648.918  0.00  0.00    -0.271 OA
ATOM      5  H   GLU d   9    2537.512 781.637-2646.040  0.00  0.00     0.163 HD
BRANCH   3   6
ATOM      6  CA  ASP d   8    2535.848 781.493-2648.000  0.00  0.00     0.186 C 
BRANCH   6   7
ATOM      7  N   ASP d   8    2535.918 780.144-2647.446  0.00  0.00    -0.346 N 
ATOM      8  C   LEU d   7    2536.755 779.303-2647.951  0.00  0.00     0.241 C 
ATOM      9  O   LEU d   7    2537.476 779.665-2648.894  0.00  0.00    -0.271 OA
ATOM     10  H   ASP d   8    2535.320 779.874-2646.678  0.00  0.00     0.163 HD
BRANCH   8  11
ATOM     11  CA  LEU d   7    2536.827 777.908-2647.378  0.00  0.00     0.177 C 
BRANCH  11  12
ATOM     12  N   LEU d   7    2536.882 777.944-2645.920  0.00  0.00    -0.346 N 
ATOM     13  C   ILE d   6    2537.828 778.607-2645.346  0.00  0.00     0.241 C 
ATOM     14  O   ILE d   6    2538.663 779.194-2646.050  0.00  0.00    -0.271 OA
ATOM     15  H   LEU d   7    2536.190 777.457-2645.369  0.00  0.00     0.163 HD
BRANCH  13  16
ATOM     16  CA  ILE d   6    2537.885 778.645-2643.839  0.00  0.00     0.180 C 
BRANCH  16  17
ATOM     17  N   ILE d   6    2536.572 778.940-2643.273  0.00  0.00    -0.346 N 
ATOM     18  C   SER d   5    2535.968 780.023-2643.627  0.00  0.00     0.243 C 
ATOM     19  O   SER d   5    2536.515 780.777-2644.432  0.00  0.00    -0.271 OA
ATOM     20  H   ILE d   6    2536.143 778.306-2642.614  0.00  0.00     0.163 HD
BRANCH  18  21
ATOM     21  CA  SER d   5    2534.609 780.329-2643.042  0.00  0.00     0.200 C 
BRANCH  21  22
ATOM     22  N   SER d   5    2533.739 779.158-2643.101  0.00  0.00    -0.344 N 
ATOM     23  C   GLU d   4    2533.512 778.606-2644.244  0.00  0.00     0.241 C 
ATOM     24  O   GLU d   4    2534.039 779.085-2645.258  0.00  0.00    -0.271 OA
ATOM     25  H   SER d   5    2533.321 778.787-2642.259  0.00  0.00     0.163 HD
BRANCH  23  26
ATOM     26  CA  GLU d   4    2532.613 777.395-2644.305  0.00  0.00     0.177 C 
BRANCH  26  27
ATOM     27  N   GLU d   4    2532.972 776.424-2643.276  0.00  0.00    -0.346 N 
ATOM     28  C   PRO d   3    2534.177 775.964-2643.243  0.00  0.00     0.241 C 
ATOM     29  O   PRO d   3    2535.000 776.347-2644.074  0.00  0.00    -0.271 OA
ATOM     30  H   GLU d   4    2532.287 776.117-2642.599  0.00  0.00     0.163 HD
BRANCH  28  31
ATOM     31  CA  PRO d   3    2534.574 774.940-2642.166  0.00  0.00     0.179 C 
ATOM     32  N   PRO d   3    2534.122 775.349-2640.844  0.00  0.00    -0.337 N 
ATOM     33  C   ASN d   2    2534.644 776.344-2640.210  0.00  0.00     0.243 C 
ATOM     34  CD  PRO d   3    2533.044 774.557-2640.296  0.00  0.00     0.127 C 
ATOM     35  O   ASN d   2    2535.559 776.975-2640.738  0.00  0.00    -0.271 OA
ATOM     36  CG  PRO d   3    2532.586 773.738-2641.506  0.00  0.00     0.022 C 
ATOM     37  CB  PRO d   3    2533.870 773.586-2642.335  0.00  0.00     0.037 C 
BRANCH  33  38
ATOM     38  CA  ASN d   2    2534.112 776.700-2638.842  0.00  0.00     0.185 C 
BRANCH  38  39
ATOM     39  N   ASN d   2    2532.653 776.739-2638.842  0.00  0.00    -0.346 N 
ATOM     40  C   GLU d   1    2532.048 777.525-2639.667  0.00  0.00     0.242 C 
ATOM     41  O   GLU d   1    2532.724 778.224-2640.436  0.00  0.00    -0.271 OA
ATOM     42  H   ASN d   2    2532.125 776.159-2638.205  0.00  0.00     0.163 HD
BRANCH  40  43
ATOM     43  CA  GLU d   1    2530.539 777.565-2639.667  0.00  0.00     0.191 C 
BRANCH  43  44
ATOM     44  N   GLU d   1    2529.980 776.216-2639.667  0.00  0.00    -0.326 NA
ATOM     45  H   GLU d   1    2530.607 775.337-2639.667  0.00  0.00     0.180 HD
ENDBRANCH  43  44
BRANCH  43  46
ATOM     46  CB  GLU d   1    2530.016 778.350-2638.430  0.00  0.00     0.047 C 
BRANCH  46  47
ATOM     47  CG  GLU d   1    2530.491 779.835-2638.319  0.00  0.00     0.116 C 
BRANCH  47  48
ATOM     48  CD  GLU d   1    2530.067 780.639-2637.104  0.00  0.00     0.172 C 
ATOM     49  OE1 GLU d   1    2529.339 780.137-2636.226  0.00  0.00    -0.648 OA
ATOM     50  OE2 GLU d   1    2530.497 781.809-2637.032  0.00  0.00    -0.648 OA
ENDBRANCH  47  48
ENDBRANCH  46  47
ENDBRANCH  43  46
ENDBRANCH  40  43
ENDBRANCH  38  39
BRANCH  38  51
ATOM     51  CB  ASN d   2    2534.604 775.677-2637.777  0.00  0.00     0.137 C 
BRANCH  51  52
ATOM     52  CG  ASN d   2    2534.140 775.901-2636.334  0.00  0.00     0.217 C 
ATOM     53  ND2 ASN d   2    2534.734 776.816-2635.615  0.00  0.00    -0.370 N 
ATOM     54 21HD ASN d   2    2534.253 776.989-2634.729  0.00  0.00     0.159 HD
ATOM     55 22HD ASN d   2    2535.436 777.387-2636.084  0.00  0.00     0.159 HD
ATOM     56  OD1 ASN d   2    2533.219 775.267-2635.840  0.00  0.00    -0.274 OA
ENDBRANCH  51  52
ENDBRANCH  38  51
ENDBRANCH  33  38
ENDBRANCH  28  31
ENDBRANCH  26  27
BRANCH  26  57
ATOM     57  CB  GLU d   4    2531.124 777.814-2644.136  0.00  0.00     0.045 C 
BRANCH  57  58
ATOM     58  CG  GLU d   4    2530.577 778.818-2645.201  0.00  0.00     0.116 C 
BRANCH  58  59
ATOM     59  CD  GLU d   4    2529.150 779.315-2645.058  0.00  0.00     0.172 C 
ATOM     60  OE1 GLU d   4    2528.423 778.917-2644.128  0.00  0.00    -0.648 OA
ATOM     61  OE2 GLU d   4    2528.761 780.144-2645.907  0.00  0.00    -0.648 OA
ENDBRANCH  58  59
ENDBRANCH  57  58
ENDBRANCH  26  57
ENDBRANCH  23  26
ENDBRANCH  21  22
BRANCH  21  62
ATOM     62  CB  SER d   5    2534.720 780.861-2641.591  0.00  0.00     0.199 C 
BRANCH  62  63
ATOM     63  OG  SER d   5    2535.451 779.982-2640.730  0.00  0.00    -0.398 OA
ATOM     64  HG  SER d   5    2534.962 779.157-2640.679  0.00  0.00     0.209 HD
ENDBRANCH  62  63
ENDBRANCH  21  62
ENDBRANCH  18  21
ENDBRANCH  16  17
BRANCH  16  65
ATOM     65  CB  ILE d   6    2538.484 777.308-2643.238  0.00  0.00     0.013 C 
ATOM     66  CG2 ILE d   6    2539.925 777.006-2643.753  0.00  0.00     0.012 C 
BRANCH  65  67
ATOM     67  CG1 ILE d   6    2538.503 777.246-2641.677  0.00  0.00     0.002 C 
ATOM     68  CD1 ILE d   6    2538.772 775.857-2641.062  0.00  0.00     0.005 C 
ENDBRANCH  65  67
ENDBRANCH  16  65
ENDBRANCH  13  16
ENDBRANCH  11  12
BRANCH  11  69
ATOM     69  CB  LEU d   7    2535.624 777.048-2647.859  0.00  0.00     0.038 C 
BRANCH  69  70
ATOM     70  CG  LEU d   7    2535.550 775.568-2647.392  0.00  0.00    -0.020 C 
ATOM     71  CD1 LEU d   7    2534.360 774.863-2648.058  0.00  0.00     0.009 C 
ATOM     72  CD2 LEU d   7    2536.844 774.789-2647.684  0.00  0.00     0.009 C 
ENDBRANCH  69  70
ENDBRANCH  11  69
ENDBRANCH   8  11
ENDBRANCH   6   7
BRANCH   6  73
ATOM     73  CB  ASP d   8    2534.771 782.333-2647.259  0.00  0.00     0.147 C 
BRANCH  73  74
ATOM     74  CG  ASP d   8    2534.552 783.754-2647.800  0.00  0.00     0.175 C 
ATOM     75  OD1 ASP d   8    2534.617 783.952-2649.031  0.00  0.00    -0.648 OA
ATOM     76  OD2 ASP d   8    2534.361 784.680-2646.985  0.00  0.00    -0.648 OA
ENDBRANCH  73  74
ENDBRANCH   6  73
ENDBRANCH   3   6
ENDBRANCH   1   2
BRANCH   1  77
ATOM     77  C   GLU d   9    2540.096 782.251-2647.869  0.00  0.00     0.241 C 
ATOM     78  O   GLU d   9    2540.760 783.005-2648.595  0.00  0.00    -0.271 OA
ATOM     79  N   HIS d  10    2540.192 780.976-2648.038  0.00  0.00    -0.346 N 
ATOM     80  H   HIS d  10    2539.661 780.341-2647.459  0.00  0.00     0.163 HD
BRANCH  79  81
ATOM     81  CA  HIS d  10    2541.079 780.464-2649.078  0.00  0.00     0.182 C 
BRANCH  81  82
ATOM     82  C   HIS d  10    2540.712 781.028-2650.429  0.00  0.00     0.241 C 
ATOM     83  O   HIS d  10    2541.565 781.492-2651.202  0.00  0.00    -0.271 OA
ATOM     84  N   VAL d  11    2539.474 781.027-2650.792  0.00  0.00    -0.346 N 
ATOM     85  H   VAL d  11    2538.761 780.655-2650.181  0.00  0.00     0.163 HD
BRANCH  84  86
ATOM     86  CA  VAL d  11    2539.119 781.573-2652.099  0.00  0.00     0.180 C 
BRANCH  86  87
ATOM     87  C   VAL d  11    2539.584 783.003-2652.233  0.00  0.00     0.241 C 
ATOM     88  O   VAL d  11    2540.186 783.407-2653.236  0.00  0.00    -0.271 OA
ATOM     89  N   GLN d  12    2539.348 783.829-2651.271  0.00  0.00    -0.346 N 
ATOM     90  H   GLN d  12    2538.859 783.524-2650.441  0.00  0.00     0.163 HD
BRANCH  89  91
ATOM     91  CA  GLN d  12    2539.797 785.212-2651.398  0.00  0.00     0.177 C 
BRANCH  91  92
ATOM     92  C   GLN d  12    2541.287 785.278-2651.637  0.00  0.00     0.241 C 
ATOM     93  O   GLN d  12    2541.774 785.986-2652.516  0.00  0.00    -0.271 OA
ATOM     94  N   ARG d  13    2542.072 784.572-2650.896  0.00  0.00    -0.346 N 
ATOM     95  H   ARG d  13    2541.695 783.983-2650.167  0.00  0.00     0.163 HD
BRANCH  94  96
ATOM     96  CA  ARG d  13    2543.512 784.637-2651.127  0.00  0.00     0.176 C 
BRANCH  96  97
ATOM     97  C   ARG d  13    2543.848 784.264-2652.552  0.00  0.00     0.241 C 
ATOM     98  O   ARG d  13    2544.616 784.936-2653.236  0.00  0.00    -0.271 OA
ATOM     99  N   VAL d  14    2543.311 783.210-2653.065  0.00  0.00    -0.346 N 
ATOM    100  H   VAL d  14    2542.676 782.642-2652.523  0.00  0.00     0.163 HD
BRANCH  99 101
ATOM    101  CA  VAL d  14    2543.635 782.850-2654.443  0.00  0.00     0.180 C 
BRANCH 101 102
ATOM    102  C   VAL d  14    2543.306 783.979-2655.389  0.00  0.00     0.241 C 
ATOM    103  O   VAL d  14    2544.099 784.360-2656.258  0.00  0.00    -0.271 OA
ATOM    104  N   MET d  15    2542.161 784.565-2655.287  0.00  0.00    -0.346 N 
ATOM    105  H   MET d  15    2541.496 784.273-2654.585  0.00  0.00     0.163 HD
BRANCH 104 106
ATOM    106  CA  MET d  15    2541.841 785.658-2656.201  0.00  0.00     0.177 C 
BRANCH 106 107
ATOM    107  C   MET d  15    2542.871 786.758-2656.114  0.00  0.00     0.241 C 
ATOM    108  O   MET d  15    2543.374 787.268-2657.126  0.00  0.00    -0.271 OA
ATOM    109  N   MET d  16    2543.240 787.179-2654.951  0.00  0.00    -0.347 N 
ATOM    110  H   MET d  16    2542.845 786.779-2654.112  0.00  0.00     0.163 HD
BRANCH 109 111
ATOM    111  CA  MET d  16    2544.237 788.243-2654.867  0.00  0.00     0.163 C 
BRANCH 111 112
ATOM    112  C   MET d  16    2545.507 787.853-2655.582  0.00  0.00     0.219 C 
ATOM    113  O   MET d  16    2545.632 786.757-2656.150  0.00  0.00    -0.287 OA
ENDBRANCH 111 112
BRANCH 111 114
ATOM    114  CB  MET d  16    2544.519 788.583-2653.378  0.00  0.00     0.043 C 
BRANCH 114 115
ATOM    115  CG  MET d  16    2543.322 789.130-2652.572  0.00  0.00     0.076 C 
BRANCH 115 116
ATOM    116  SD  MET d  16    2543.887 789.739-2650.975  0.00  0.00    -0.173 SA
ATOM    117  CE  MET d  16    2542.287 789.913-2650.174  0.00  0.00     0.089 C 
ENDBRANCH 115 116
ENDBRANCH 114 115
ENDBRANCH 111 114
ENDBRANCH 109 111
ENDBRANCH 106 107
BRANCH 106 118
ATOM    118  CB  MET d  15    2540.419 786.204-2655.892  0.00  0.00     0.045 C 
BRANCH 118 119
ATOM    119  CG  MET d  15    2539.257 785.206-2656.083  0.00  0.00     0.076 C 
BRANCH 119 120
ATOM    120  SD  MET d  15    2537.683 786.072-2655.969  0.00  0.00    -0.173 SA
ATOM    121  CE  MET d  15    2536.602 784.643-2655.831  0.00  0.00     0.089 C 
ENDBRANCH 119 120
ENDBRANCH 118 119
ENDBRANCH 106 118
ENDBRANCH 104 106
ENDBRANCH 101 102
BRANCH 101 122
ATOM    122  CB  VAL d  14    2542.863 781.532-2654.849  0.00  0.00     0.009 C 
ATOM    123  CG1 VAL d  14    2542.951 781.113-2656.342  0.00  0.00     0.012 C 
ATOM    124  CG2 VAL d  14    2543.294 780.281-2654.048  0.00  0.00     0.012 C 
ENDBRANCH 101 122
ENDBRANCH  99 101
ENDBRANCH  96  97
BRANCH  96 125
ATOM    125  CB  ARG d  13    2544.225 783.698-2650.112  0.00  0.00     0.036 C 
BRANCH 125 126
ATOM    126  CG  ARG d  13    2545.770 783.851-2650.032  0.00  0.00     0.023 C 
BRANCH 126 127
ATOM    127  CD  ARG d  13    2546.397 782.864-2649.034  0.00  0.00     0.138 C 
BRANCH 127 128
ATOM    128  NE  ARG d  13    2547.874 783.071-2648.984  0.00  0.00    -0.227 N 
ATOM    129  CZ  ARG d  13    2548.723 782.380-2648.228  0.00  0.00     0.665 C 
ATOM    130  NH1 ARG d  13    2548.358 781.416-2647.430  0.00  0.00    -0.235 N 
ATOM    131  NH2 ARG d  13    2549.982 782.678-2648.286  0.00  0.00    -0.235 N 
ATOM    132 11HH ARG d  13    2547.352 781.230-2647.433  0.00  0.00     0.174 HD
ATOM    133 12HH ARG d  13    2549.071 780.933-2646.881  0.00  0.00     0.174 HD
ATOM    134 21HH ARG d  13    2550.250 783.436-2648.917  0.00  0.00     0.174 HD
ATOM    135 22HH ARG d  13    2550.618 782.137-2647.697  0.00  0.00     0.174 HD
ATOM    136  HE  ARG d  13    2548.326 783.793-2649.555  0.00  0.00     0.177 HD
ENDBRANCH 127 128
ENDBRANCH 126 127
ENDBRANCH 125 126
ENDBRANCH  96 125
ENDBRANCH  94  96
ENDBRANCH  91  92
BRANCH  91 137
ATOM    137  CB  GLN d  12    2539.407 785.980-2650.116  0.00  0.00     0.044 C 
BRANCH 137 138
ATOM    138  CG  GLN d  12    2539.768 787.502-2650.086  0.00  0.00     0.105 C 
BRANCH 138 139
ATOM    139  CD  GLN d  12    2539.467 788.316-2648.822  0.00  0.00     0.215 C 
ATOM    140  NE2 GLN d  12    2538.900 787.741-2647.792  0.00  0.00    -0.370 N 
ATOM    141 21HE GLN d  12    2538.793 788.336-2646.969  0.00  0.00     0.159 HD
ATOM    142 22HE GLN d  12    2538.735 786.737-2647.895  0.00  0.00     0.159 HD
ATOM    143  OE1 GLN d  12    2539.769 789.497-2648.745  0.00  0.00    -0.274 OA
ENDBRANCH 138 139
ENDBRANCH 137 138
ENDBRANCH  91 137
ENDBRANCH  89  91
ENDBRANCH  86  87
BRANCH  86 144
ATOM    144  CB  VAL d  11    2537.558 781.467-2652.318  0.00  0.00     0.009 C 
ATOM    145  CG1 VAL d  11    2536.990 782.170-2653.581  0.00  0.00     0.012 C 
ATOM    146  CG2 VAL d  11    2537.033 780.013-2652.390  0.00  0.00     0.012 C 
ENDBRANCH  86 144
ENDBRANCH  84  86
ENDBRANCH  81  82
BRANCH  81 147
ATOM    147  CB  HIS d  10    2540.915 778.935-2649.073  0.00  0.00     0.095 C 
BRANCH 147 148
ATOM    148  CG  HIS d  10    2542.200 778.224-2648.764  0.00  0.00     0.053 A 
ATOM    149  CD2 HIS d  10    2542.581 777.890-2647.472  0.00  0.00     0.116 A 
ATOM    150  NE2 HIS d  10    2543.796 777.257-2647.539  0.00  0.00    -0.359 N 
ATOM    151  CE1 HIS d  10    2544.058 777.259-2648.874  0.00  0.00     0.207 A 
ATOM    152  2HE HIS d  10    2544.363 776.880-2646.765  0.00  0.00     0.166 HD
ATOM    153  ND1 HIS d  10    2543.151 777.817-2649.697  0.00  0.00    -0.247 NA
ENDBRANCH 147 148
ENDBRANCH  81 147
ENDBRANCH  79  81
ENDBRANCH   1  77
BRANCH   1 154
ATOM    154  CB  GLU d   9    2539.812 782.572-2645.388  0.00  0.00     0.045 C 
BRANCH 154 155
ATOM    155  CG  GLU d   9    2541.195 783.264-2645.159  0.00  0.00     0.116 C 
BRANCH 155 156
ATOM    156  CD  GLU d   9    2541.897 783.051-2643.831  0.00  0.00     0.172 C 
ATOM    157  OE1 GLU d   9    2541.375 782.361-2642.934  0.00  0.00    -0.648 OA
ATOM    158  OE2 GLU d   9    2543.016 783.589-2643.699  0.00  0.00    -0.648 OA
ENDBRANCH 155 156
ENDBRANCH 154 155
ENDBRANCH   1 154
TORSDOF 67
