@<TRIPOS>MOLECULE
5-1
264 265 16              
SMALL
USER_CHARGES
@<TRIPOS>ATOM
1	   N	696.464	177.543	-650.835	N.3	1	GLU1	-0.516	
2	  CA	697.023	178.892	-650.835	C.3	1	GLU1	0.040	
3	   C	698.532	178.852	-650.835	C.2	1	GLU1	0.537	
4	   O	699.208	179.551	-651.604	O.2	1	GLU1	-0.582	
5	  CB	696.500	179.677	-649.598	C.3	1	GLU1	0.056	
6	  CG	696.975	181.162	-649.487	C.3	1	GLU1	0.014	
7	  CD	696.551	181.966	-648.272	C.2	1	GLU1	0.805	
8	 OE1	695.823	181.464	-647.394	O.co2	1	GLU1	-0.819	
9	 OE2	696.981	183.136	-648.200	O.co2	1	GLU1	-0.819	
10	   H	697.091	176.664	-650.835	 H	1	GLU1	0.294	
11	  HA	696.697	179.410	-651.755	 H	1	GLU1	0.111	
12	 2HB	696.789	179.146	-648.668	 H	1	GLU1	-0.017	
13	 3HB	695.393	179.667	-649.585	 H	1	GLU1	-0.017	
14	 2HG	696.665	181.747	-650.368	 H	1	GLU1	-0.043	
15	 3HG	698.075	181.229	-649.458	 H	1	GLU1	-0.043	
16	   N	699.137	178.066	-650.010	N.am	2	ASN2	-0.416	
17	  CA	700.596	178.027	-650.010	C.3	2	ASN2	0.014	
18	   C	701.127	177.672	-651.379	C.2	2	ASN2	0.597	
19	   O	702.042	178.303	-651.907	O.2	2	ASN2	-0.568	
20	  CB	701.088	177.004	-648.946	C.3	2	ASN2	-0.204	
21	  CG	700.625	177.228	-647.502	C.2	2	ASN2	0.713	
22	 ND2	701.219	178.143	-646.784	N.pl3	2	ASN2	-0.919	
23	 OD1	699.705	176.594	-647.008	O.2	2	ASN2	-0.593	
24	   H	698.609	177.486	-649.373	 H	2	ASN2	0.272	
25	  HA	700.973	179.037	-649.765	 H	2	ASN2	0.105	
26	 2HB	702.193	176.945	-648.949	 H	2	ASN2	0.080	
27	 3HB	700.759	175.986	-649.231	 H	2	ASN2	0.080	
28	1HD2	700.739	178.316	-645.898	 H	2	ASN2	0.420	
29	2HD2	701.921	178.715	-647.253	 H	2	ASN2	0.420	
30	   N	700.606	176.677	-652.013	N.am	3	PRO3	-0.255	
31	  CA	701.058	176.268	-653.334	C.3	3	PRO3	-0.027	
32	   C	700.660	177.291	-654.411	C.2	3	PRO3	0.590	
33	   O	701.483	177.674	-655.243	O.2	3	PRO3	-0.575	
34	  CB	700.354	174.913	-653.504	C.3	3	PRO3	-0.007	
35	  CG	699.071	175.065	-652.674	C.3	3	PRO3	0.019	
36	  CD	699.528	175.884	-651.464	C.3	3	PRO3	0.019	
37	  HA	702.144	176.148	-653.348	 H	3	PRO3	0.064	
38	 2HB	700.977	174.132	-653.063	 H	3	PRO3	0.025	
39	 3HB	700.156	174.664	-654.549	 H	3	PRO3	0.025	
40	 2HG	698.643	174.102	-652.383	 H	3	PRO3	0.021	
41	 3HG	698.333	175.636	-653.241	 H	3	PRO3	0.021	
42	 2HD	699.917	175.234	-650.676	 H	3	PRO3	0.039	
43	 3HD	698.731	176.519	-651.071	 H	3	PRO3	0.039	
44	   N	699.455	177.751	-654.444	N.am	4	GLU4	-0.516	
45	  CA	699.095	178.722	-655.473	C.3	4	GLU4	0.040	
46	   C	699.994	179.933	-655.412	C.2	4	GLU4	0.537	
47	   O	700.520	180.413	-656.427	O.2	4	GLU4	-0.582	
48	  CB	697.607	179.140	-655.303	C.3	4	GLU4	0.056	
49	  CG	697.058	180.144	-656.369	C.3	4	GLU4	0.014	
50	  CD	695.632	180.640	-656.225	C.2	4	GLU4	0.805	
51	 OE1	694.905	180.242	-655.294	O.co2	4	GLU4	-0.819	
52	 OE2	695.242	181.469	-657.073	O.co2	4	GLU4	-0.819	
53	   H	698.771	177.444	-653.767	 H	4	GLU4	0.294	
54	  HA	699.226	178.251	-656.464	 H	4	GLU4	0.111	
55	 2HB	697.454	179.580	-654.296	 H	4	GLU4	-0.017	
56	 3HB	696.959	178.242	-655.309	 H	4	GLU4	-0.017	
57	 2HG	697.140	179.729	-657.386	 H	4	GLU4	-0.043	
58	 3HG	697.646	181.076	-656.380	 H	4	GLU4	-0.043	
59	   N	700.221	180.486	-654.269	N.am	5	ALA5	-0.416	
60	  CA	701.090	181.657	-654.210	C.3	5	ALA5	0.034	
61	   C	702.449	181.352	-654.795	C.2	5	ALA5	0.597	
62	   O	703.000	182.109	-655.604	O.2	5	ALA5	-0.568	
63	  CB	701.162	182.112	-652.742	C.3	5	ALA5	-0.183	
64	   H	699.804	180.114	-653.427	 H	5	ALA5	0.272	
65	  HA	700.642	182.462	-654.823	 H	5	ALA5	0.082	
66	 1HB	700.163	182.367	-652.342	 H	5	ALA5	0.060	
67	 2HB	701.583	181.328	-652.083	 H	5	ALA5	0.060	
68	 3HB	701.792	183.012	-652.620	 H	5	ALA5	0.060	
69	   N	703.053	180.269	-654.441	N.am	6	ILE6	-0.416	
70	  CA	704.366	179.974	-655.006	C.3	6	ILE6	-0.060	
71	   C	704.310	179.936	-656.514	C.2	6	ILE6	0.597	
72	   O	705.145	180.523	-657.218	O.2	6	ILE6	-0.568	
73	  CB	704.965	178.637	-654.406	C.3	6	ILE6	0.130	
74	 CG1	704.984	178.576	-652.845	C.3	6	ILE6	-0.043	
75	 CG2	706.407	178.335	-654.920	C.3	6	ILE6	-0.320	
76	 CD1	705.253	177.187	-652.229	C.3	6	ILE6	-0.066	
77	   H	702.624	179.635	-653.782	 H	6	ILE6	0.272	
78	  HA	705.040	180.808	-654.739	 H	6	ILE6	0.087	
79	  HB	704.307	177.812	-654.750	 H	6	ILE6	0.019	
80	2HG1	704.002	178.896	-652.449	 H	6	ILE6	0.024	
81	3HG1	705.700	179.318	-652.440	 H	6	ILE6	0.024	
82	1HG2	706.466	178.241	-656.019	 H	6	ILE6	0.088	
83	2HG2	707.129	179.117	-654.618	 H	6	ILE6	0.088	
84	3HG2	706.796	177.373	-654.541	 H	6	ILE6	0.088	
85	1HD1	704.525	176.433	-652.584	 H	6	ILE6	0.019	
86	2HD1	706.264	176.808	-652.465	 H	6	ILE6	0.019	
87	3HD1	705.177	177.217	-651.127	 H	6	ILE6	0.019	
88	   N	703.364	179.272	-657.088	N.am	7	LEU7	-0.416	
89	  CA	703.310	179.236	-658.547	C.3	7	LEU7	-0.052	
90	   C	703.238	180.631	-659.120	C.2	7	LEU7	0.597	
91	   O	703.959	180.994	-660.061	O.2	7	LEU7	-0.568	
92	  CB	702.107	178.376	-659.027	C.3	7	LEU7	-0.110	
93	  CG	702.033	176.897	-658.561	C.3	7	LEU7	0.353	
94	 CD1	700.843	176.191	-659.227	C.3	7	LEU7	-0.412	
95	 CD2	703.327	176.117	-658.851	C.3	7	LEU7	-0.412	
96	   H	702.671	178.786	-656.537	 H	7	LEU7	0.272	
97	  HA	704.252	178.796	-658.920	 H	7	LEU7	0.092	
98	 2HB	702.084	178.392	-660.135	 H	7	LEU7	0.046	
99	 3HB	701.167	178.879	-658.724	 H	7	LEU7	0.046	
100	  HG	701.863	176.889	-657.464	 H	7	LEU7	-0.036	
101	1HD1	699.886	176.701	-659.005	 H	7	LEU7	0.100	
102	2HD1	700.943	176.150	-660.328	 H	7	LEU7	0.100	
103	3HD1	700.736	175.150	-658.870	 H	7	LEU7	0.100	
104	1HD2	703.602	176.147	-659.921	 H	7	LEU7	0.100	
105	2HD2	704.180	176.529	-658.280	 H	7	LEU7	0.100	
106	3HD2	703.245	175.055	-658.555	 H	7	LEU7	0.100	
107	   N	702.401	181.472	-658.614	N.am	8	ASP8	-0.516	
108	  CA	702.331	182.822	-659.167	C.3	8	ASP8	0.038	
109	   C	703.678	183.501	-659.109	C.2	8	ASP8	0.537	
110	   O	704.151	184.106	-660.084	O.2	8	ASP8	-0.582	
111	  CB	701.253	183.661	-658.426	C.3	8	ASP8	-0.030	
112	  CG	701.035	185.082	-658.967	C.2	8	ASP8	0.799	
113	 OD1	701.099	185.281	-660.198	O.co2	8	ASP8	-0.801	
114	 OD2	700.842	186.008	-658.152	O.co2	8	ASP8	-0.801	
115	   H	701.802	181.201	-657.846	 H	8	ASP8	0.294	
116	  HA	702.049	182.744	-660.234	 H	8	ASP8	0.088	
117	 2HB	701.510	183.744	-657.354	 H	8	ASP8	-0.012	
118	 3HB	700.274	183.156	-658.460	 H	8	ASP8	-0.012	
119	   N	704.357	183.451	-658.014	N.am	9	GLU9	-0.516	
120	  CA	705.660	184.108	-657.958	C.3	9	GLU9	0.040	
121	   C	706.578	183.580	-659.033	C.2	9	GLU9	0.537	
122	   O	707.243	184.335	-659.758	O.2	9	GLU9	-0.582	
123	  CB	706.293	183.901	-656.552	C.3	9	GLU9	0.056	
124	  CG	707.675	184.593	-656.322	C.3	9	GLU9	0.014	
125	  CD	708.377	184.379	-654.994	C.2	9	GLU9	0.805	
126	 OE1	707.854	183.689	-654.097	O.co2	9	GLU9	-0.819	
127	 OE2	709.496	184.917	-654.861	O.co2	9	GLU9	-0.819	
128	   H	703.993	182.965	-657.207	 H	9	GLU9	0.294	
129	  HA	705.518	185.190	-658.133	 H	9	GLU9	0.111	
130	 2HB	706.405	182.816	-656.349	 H	9	GLU9	-0.017	
131	 3HB	705.595	184.254	-655.768	 H	9	GLU9	-0.017	
132	 2HG	707.604	185.683	-656.462	 H	9	GLU9	-0.043	
133	 3HG	708.422	184.247	-657.056	 H	9	GLU9	-0.043	
134	   N	706.675	182.305	-659.203	N.am	10	HIS10	-0.416	
135	  CA	707.563	181.794	-660.243	C.3	10	HIS10	-0.058	
136	   C	707.197	182.358	-661.594	C.2	10	HIS10	0.597	
137	   O	708.050	182.823	-662.365	O.2	10	HIS10	-0.568	
138	  CB	707.399	180.265	-660.238	C.3	10	HIS10	-0.007	
139	  CG	708.684	179.554	-659.929	C.2	10	HIS10	0.187	
140	 CD2	709.064	179.219	-658.636	C.2	10	HIS10	-0.221	
141	 ND1	709.637	179.148	-660.861	N.2	10	HIS10	-0.543	
142	 CE1	710.542	178.590	-660.037	C.2	10	HIS10	0.163	
143	 NE2	710.279	178.587	-658.702	N.pl3	10	HIS10	-0.280	
144	   H	706.143	181.670	-658.625	 H	10	HIS10	0.272	
145	  HA	708.582	182.151	-660.017	 H	10	HIS10	0.136	
146	 2HB	707.034	179.898	-661.218	 H	10	HIS10	0.037	
147	 3HB	706.643	179.928	-659.498	 H	10	HIS10	0.037	
148	 2HD	708.478	179.434	-657.747	 H	10	HIS10	0.186	
149	 1HE	711.434	178.169	-660.484	 H	10	HIS10	0.144	
150	 2HE	710.845	178.210	-657.929	 H	10	HIS10	0.334	
151	   N	705.959	182.358	-661.958	N.am	11	VAL11	-0.416	
152	  CA	705.605	182.904	-663.264	C.3	11	VAL11	-0.087	
153	   C	706.070	184.335	-663.397	C.2	11	VAL11	0.597	
154	   O	706.672	184.739	-664.399	O.2	11	VAL11	-0.568	
155	  CB	704.044	182.798	-663.485	C.3	11	VAL11	0.299	
156	 CG1	703.476	183.502	-664.748	C.3	11	VAL11	-0.319	
157	 CG2	703.519	181.344	-663.558	C.3	11	VAL11	-0.319	
158	   H	705.246	181.985	-661.347	 H	11	VAL11	0.272	
159	  HA	706.125	182.322	-664.047	 H	11	VAL11	0.097	
160	  HB	703.556	183.278	-662.610	 H	11	VAL11	-0.030	
161	1HG1	703.915	183.110	-665.685	 H	11	VAL11	0.079	
162	2HG1	702.377	183.395	-664.830	 H	11	VAL11	0.079	
163	3HG1	703.655	184.594	-664.738	 H	11	VAL11	0.079	
164	1HG2	703.808	180.757	-662.667	 H	11	VAL11	0.079	
165	2HG2	702.413	181.307	-663.601	 H	11	VAL11	0.079	
166	3HG2	703.901	180.803	-664.445	 H	11	VAL11	0.079	
167	   N	705.833	185.160	-662.434	N.am	12	GLN12	-0.416	
168	  CA	706.281	186.543	-662.561	C.3	12	GLN12	-0.003	
169	   C	707.772	186.610	-662.798	C.2	12	GLN12	0.597	
170	   O	708.259	187.318	-663.677	O.2	12	GLN12	-0.568	
171	  CB	705.890	187.311	-661.279	C.3	12	GLN12	-0.004	
172	  CG	706.251	188.832	-661.248	C.3	12	GLN12	-0.064	
173	  CD	705.948	189.646	-659.983	C.2	12	GLN12	0.695	
174	 NE2	705.380	189.070	-658.954	N.pl3	12	GLN12	-0.941	
175	 OE1	706.250	190.827	-659.905	O.2	12	GLN12	-0.609	
176	   H	705.343	184.854	-661.606	 H	12	GLN12	0.272	
177	  HA	705.783	187.000	-663.437	 H	12	GLN12	0.085	
178	 2HB	706.366	186.810	-660.409	 H	12	GLN12	0.017	
179	 3HB	704.800	187.204	-661.116	 H	12	GLN12	0.017	
180	 2HG	705.774	189.353	-662.098	 H	12	GLN12	0.035	
181	 3HG	707.334	188.974	-661.413	 H	12	GLN12	0.035	
182	1HE2	705.273	189.664	-658.131	 H	12	GLN12	0.425	
183	2HE2	705.216	188.066	-659.058	 H	12	GLN12	0.425	
184	   N	708.556	185.903	-662.057	N.am	13	ARG13	-0.348	
185	  CA	709.996	185.968	-662.287	C.3	13	ARG13	-0.264	
186	   C	710.333	185.597	-663.712	C.2	13	ARG13	0.734	
187	   O	711.102	186.268	-664.395	O.2	13	ARG13	-0.589	
188	  CB	710.708	185.029	-661.273	C.3	13	ARG13	-0.001	
189	  CG	712.253	185.182	-661.191	C.3	13	ARG13	0.039	
190	  CD	712.879	184.194	-660.193	C.3	13	ARG13	0.049	
191	  NE	714.357	184.400	-660.141	N.pl3	13	ARG13	-0.530	
192	  CZ	715.204	183.708	-659.385	C.cat	13	ARG13	0.808	
193	 NH1	714.838	182.744	-658.589	N.pl3	13	ARG13	-0.863	
194	 NH2	716.464	184.007	-659.442	N.pl3	13	ARG13	-0.863	
195	   H	708.179	185.313	-661.329	 H	13	ARG13	0.275	
196	  HA	710.321	187.014	-662.128	 H	13	ARG13	0.156	
197	 2HB	710.442	183.979	-661.512	 H	13	ARG13	0.033	
198	 3HB	710.283	185.196	-660.262	 H	13	ARG13	0.033	
199	 2HG	712.501	186.226	-660.911	 H	13	ARG13	0.029	
200	 3HG	712.704	185.025	-662.192	 H	13	ARG13	0.029	
201	 2HD	712.635	183.154	-660.502	 H	13	ARG13	0.069	
202	 3HD	712.422	184.339	-659.190	 H	13	ARG13	0.069	
203	  HE	714.808	185.122	-660.712	 H	13	ARG13	0.346	
204	1HH1	713.832	182.558	-658.592	 H	13	ARG13	0.448	
205	2HH1	715.551	182.261	-658.039	 H	13	ARG13	0.448	
206	1HH2	716.732	184.765	-660.072	 H	13	ARG13	0.448	
207	2HH2	717.098	183.465	-658.853	 H	13	ARG13	0.448	
208	   N	709.797	184.543	-664.227	N.am	14	VAL14	-0.416	
209	  CA	710.122	184.183	-665.604	C.3	14	VAL14	-0.087	
210	   C	709.793	185.313	-666.550	C.2	14	VAL14	0.597	
211	   O	710.587	185.695	-667.419	O.2	14	VAL14	-0.568	
212	  CB	709.350	182.866	-666.011	C.3	14	VAL14	0.299	
213	 CG1	709.440	182.448	-667.505	C.3	14	VAL14	-0.319	
214	 CG2	709.781	181.614	-665.211	C.3	14	VAL14	-0.319	
215	   H	709.161	183.974	-663.685	 H	14	VAL14	0.272	
216	  HA	711.211	184.006	-665.678	 H	14	VAL14	0.097	
217	  HB	708.273	183.038	-665.796	 H	14	VAL14	-0.030	
218	1HG1	710.481	182.271	-667.833	 H	14	VAL14	0.079	
219	2HG1	708.867	181.525	-667.718	 H	14	VAL14	0.079	
220	3HG1	709.011	183.211	-668.183	 H	14	VAL14	0.079	
221	1HG2	709.693	181.772	-664.120	 H	14	VAL14	0.079	
222	2HG2	709.145	180.738	-665.444	 H	14	VAL14	0.079	
223	3HG2	710.829	181.324	-665.416	 H	14	VAL14	0.079	
224	   N	708.649	185.900	-666.449	N.am	15	MET15	-0.416	
225	  CA	708.329	186.993	-667.362	C.3	15	MET15	-0.024	
226	   C	709.360	188.092	-667.274	C.2	15	MET15	0.597	
227	   O	709.863	188.603	-668.286	O.2	15	MET15	-0.568	
228	  CB	706.908	187.539	-667.054	C.3	15	MET15	0.034	
229	  CG	705.745	186.541	-667.247	C.3	15	MET15	0.002	
230	  SD	704.172	187.408	-667.133	S.3	15	MET15	-0.274	
231	  CE	703.090	185.978	-666.997	C.3	15	MET15	-0.054	
232	   H	707.983	185.607	-665.747	 H	15	MET15	0.272	
233	  HA	708.355	186.605	-668.398	 H	15	MET15	0.088	
234	 2HB	706.706	188.418	-667.696	 H	15	MET15	0.024	
235	 3HB	706.872	187.931	-666.018	 H	15	MET15	0.024	
236	 2HG	705.788	185.755	-666.469	 H	15	MET15	0.044	
237	 3HG	705.809	186.026	-668.223	 H	15	MET15	0.044	
238	 1HE	703.234	185.290	-667.850	 H	15	MET15	0.068	
239	 2HE	703.299	185.425	-666.065	 H	15	MET15	0.068	
240	 3HE	702.033	186.294	-666.981	 H	15	MET15	0.068	
241	   N	709.728	188.513	-666.111	N.am	16	ARG16	-0.348	
242	  CA	710.725	189.576	-666.027	C.3	16	ARG16	-0.264	
243	   C	711.996	189.183	-666.742	C.2	16	ARG16	0.734	
244	   O	712.109	188.107	-667.324	O.2	16	ARG16	-0.589	
245	  CB	710.993	189.894	-664.528	C.3	16	ARG16	-0.001	
246	  CG	711.818	191.183	-664.255	C.3	16	ARG16	0.039	
247	  CD	712.067	191.402	-662.753	C.3	16	ARG16	0.049	
248	  NE	712.844	192.660	-662.552	N.pl3	16	ARG16	-0.530	
249	  CZ	713.234	193.142	-661.376	C.cat	16	ARG16	0.808	
250	 NH1	712.986	192.558	-660.237	N.pl3	16	ARG16	-0.863	
251	 NH2	713.899	194.255	-661.357	N.pl3	16	ARG16	-0.863	
252	   H	709.332	188.113	-665.272	 H	16	ARG16	0.275	
253	  HA	710.316	190.469	-666.537	 H	16	ARG16	0.156	
254	 2HB	711.489	189.018	-664.062	 H	16	ARG16	0.033	
255	 3HB	710.024	189.975	-663.995	 H	16	ARG16	0.033	
256	 2HG	711.289	192.054	-664.692	 H	16	ARG16	0.029	
257	 3HG	712.792	191.129	-664.783	 H	16	ARG16	0.029	
258	 2HD	712.615	190.527	-662.340	 H	16	ARG16	0.069	
259	 3HD	711.094	191.445	-662.219	 H	16	ARG16	0.069	
260	  HE	713.123	193.241	-663.349	 H	16	ARG16	0.346	
261	1HH1	712.460	191.685	-660.322	 H	16	ARG16	0.448	
262	2HH1	713.320	192.993	-659.376	 H	16	ARG16	0.448	
263	1HH2	714.085	194.698	-662.258	 H	16	ARG16	0.448	
264	2HH2	714.188	194.609	-660.444	 H	16	ARG16	0.448	
@<TRIPOS>BOND
1 1 2 1
2 1 10 1
3 2 3 1
4 2 5 1
5 2 11 1
6 3 4 2
7 3 16 1
8 5 6 1
9 6 7 1
10 7 8 2
11 7 9 1
12 5 12 1
13 5 13 1
14 6 14 1
15 6 15 1
16 16 17 1
17 16 24 1
18 17 18 1
19 17 20 1
20 17 25 1
21 18 19 2
22 18 30 1
23 20 21 1
24 21 22 1
25 21 23 2
26 20 26 1
27 20 27 1
28 22 28 1
29 22 29 1
30 30 31 1
31 30 36 1
32 31 32 1
33 31 34 1
34 31 37 1
35 32 33 2
36 32 44 1
37 34 35 1
38 35 36 1
39 34 38 1
40 34 39 1
41 35 40 1
42 35 41 1
43 36 42 1
44 36 43 1
45 44 45 1
46 44 53 1
47 45 46 1
48 45 48 1
49 45 54 1
50 46 47 2
51 46 59 1
52 48 49 1
53 49 50 1
54 50 51 2
55 50 52 1
56 48 55 1
57 48 56 1
58 49 57 1
59 49 58 1
60 59 60 1
61 59 64 1
62 60 61 1
63 60 63 1
64 60 65 1
65 61 62 2
66 61 69 1
67 63 66 1
68 63 67 1
69 63 68 1
70 69 70 1
71 69 77 1
72 70 71 1
73 70 73 1
74 70 78 1
75 71 72 2
76 71 88 1
77 73 74 1
78 73 75 1
79 74 76 1
80 73 79 1
81 74 80 1
82 74 81 1
83 75 82 1
84 75 83 1
85 75 84 1
86 76 85 1
87 76 86 1
88 76 87 1
89 88 89 1
90 88 96 1
91 89 90 1
92 89 92 1
93 89 97 1
94 90 91 2
95 90 107 1
96 92 93 1
97 93 94 1
98 93 95 1
99 92 98 1
100 92 99 1
101 93 100 1
102 94 101 1
103 94 102 1
104 94 103 1
105 95 104 1
106 95 105 1
107 95 106 1
108 107 108 1
109 107 115 1
110 108 109 1
111 108 111 1
112 108 116 1
113 109 110 2
114 109 119 1
115 111 112 1
116 112 113 2
117 112 114 1
118 111 117 1
119 111 118 1
120 119 120 1
121 119 128 1
122 120 121 1
123 120 123 1
124 120 129 1
125 121 122 2
126 121 134 1
127 123 124 1
128 124 125 1
129 125 126 2
130 125 127 1
131 123 130 1
132 123 131 1
133 124 132 1
134 124 133 1
135 134 135 1
136 134 144 1
137 135 136 1
138 135 138 1
139 135 145 1
140 136 137 2
141 136 151 1
142 138 139 1
143 139 140 2
144 140 143 1
145 139 141 1
146 141 142 2
147 142 143 1
148 138 146 1
149 138 147 1
150 140 148 1
151 142 149 1
152 143 150 1
153 151 152 1
154 151 158 1
155 152 153 1
156 152 155 1
157 152 159 1
158 153 154 2
159 153 167 1
160 155 156 1
161 155 157 1
162 155 160 1
163 156 161 1
164 156 162 1
165 156 163 1
166 157 164 1
167 157 165 1
168 157 166 1
169 167 168 1
170 167 176 1
171 168 169 1
172 168 171 1
173 168 177 1
174 169 170 2
175 169 184 1
176 171 172 1
177 172 173 1
178 173 174 1
179 173 175 2
180 171 178 1
181 171 179 1
182 172 180 1
183 172 181 1
184 174 182 1
185 174 183 1
186 184 185 1
187 184 195 1
188 185 186 1
189 185 188 1
190 185 196 1
191 186 187 2
192 186 208 1
193 188 189 1
194 189 190 1
195 190 191 1
196 191 192 1
197 192 193 2
198 192 194 1
199 188 197 1
200 188 198 1
201 189 199 1
202 189 200 1
203 190 201 1
204 190 202 1
205 191 203 1
206 193 204 1
207 193 205 1
208 194 206 1
209 194 207 1
210 208 209 1
211 208 215 1
212 209 210 1
213 209 212 1
214 209 216 1
215 210 211 2
216 210 224 1
217 212 213 1
218 212 214 1
219 212 217 1
220 213 218 1
221 213 219 1
222 213 220 1
223 214 221 1
224 214 222 1
225 214 223 1
226 224 225 1
227 224 232 1
228 225 226 1
229 225 228 1
230 225 233 1
231 226 227 2
232 226 241 1
233 228 229 1
234 229 230 1
235 230 231 1
236 228 234 1
237 228 235 1
238 229 236 1
239 229 237 1
240 231 238 1
241 231 239 1
242 231 240 1
243 241 242 1
244 241 252 1
245 242 243 1
246 242 245 1
247 242 253 1
248 243 244 2
249 245 246 1
250 246 247 1
251 247 248 1
252 248 249 1
253 249 250 2
254 249 251 1
255 245 254 1
256 245 255 1
257 246 256 1
258 246 257 1
259 247 258 1
260 247 259 1
261 248 260 1
262 250 261 1
263 250 262 1
264 251 263 1
265 251 264 1
@<TRIPOS>SUBSTRUCTURE
1	GLU1	1	RESIDUE	1 ****	GLU
2	ASN2	16	RESIDUE	1 ****	ASN
3	PRO3	30	RESIDUE	1 ****	PRO
4	GLU4	44	RESIDUE	1 ****	GLU
5	ALA5	59	RESIDUE	1 ****	ALA
6	ILE6	69	RESIDUE	1 ****	ILE
7	LEU7	88	RESIDUE	1 ****	LEU
8	ASP8	107	RESIDUE	1 ****	ASP
9	GLU9	119	RESIDUE	1 ****	GLU
10	HIS10	134	RESIDUE	1 ****	HIS
11	VAL11	151	RESIDUE	1 ****	VAL
12	GLN12	167	RESIDUE	1 ****	GLN
13	ARG13	184	RESIDUE	1 ****	ARG
14	VAL14	208	RESIDUE	1 ****	VAL
15	MET15	224	RESIDUE	1 ****	MET
16	ARG16	241	RESIDUE	1 ****	ARG
