REMARK WARNING: 32 MAX_TORS EXCEEDED!!!
REMARK  68 active torsions:
REMARK  status: ('A' for Active; 'I' for Inactive)
REMARK    1  A    between atoms: N_1  and  CA_2 
REMARK    2  A    between atoms: CA_2  and  C_3 
REMARK    3  A    between atoms: CA_2  and  CB_5 
REMARK       I    between atoms: C_3  and  N_11 
REMARK    4  A    between atoms: CB_5  and  CG_6 
REMARK    5  A    between atoms: CG_6  and  CD_7 
REMARK    6  A    between atoms: N_11  and  CA_12 
REMARK    7  A    between atoms: CA_12  and  C_13 
REMARK    8  A    between atoms: CA_12  and  CB_15 
REMARK       I    between atoms: C_13  and  N_22 
REMARK    9  A    between atoms: CB_15  and  CG_16 
REMARK       I    between atoms: CG_16  and  ND2_17 
REMARK   10  A    between atoms: CA_23  and  C_24 
REMARK       I    between atoms: C_24  and  N_29 
REMARK   11  A    between atoms: N_29  and  CA_30 
REMARK   12  A    between atoms: CA_30  and  C_31 
REMARK   13  A    between atoms: CA_30  and  CB_33 
REMARK       I    between atoms: C_31  and  N_39 
REMARK   14  A    between atoms: CB_33  and  CG_34 
REMARK   15  A    between atoms: CG_34  and  CD_35 
REMARK   16  A    between atoms: N_39  and  CA_40 
REMARK   17  A    between atoms: CA_40  and  C_41 
REMARK   18  A    between atoms: CA_40  and  CB_43 
REMARK       I    between atoms: C_41  and  N_47 
REMARK   19  A    between atoms: CB_43  and  OG_44 
REMARK   20  A    between atoms: N_47  and  CA_48 
REMARK   21  A    between atoms: CA_48  and  C_49 
REMARK   22  A    between atoms: CA_48  and  CB_51 
REMARK       I    between atoms: C_49  and  N_56 
REMARK   23  A    between atoms: CB_51  and  CG1_52 
REMARK   24  A    between atoms: N_56  and  CA_57 
REMARK   25  A    between atoms: CA_57  and  C_58 
REMARK   26  A    between atoms: CA_57  and  CB_60 
REMARK       I    between atoms: C_58  and  N_65 
REMARK   27  A    between atoms: CB_60  and  CG_61 
REMARK   28  A    between atoms: N_65  and  CA_66 
REMARK   29  A    between atoms: CA_66  and  C_67 
REMARK   30  A    between atoms: CA_66  and  CB_69 
REMARK       I    between atoms: C_67  and  N_74 
REMARK   31  A    between atoms: CB_69  and  CG_70 
REMARK   32  A    between atoms: N_74  and  CA_75 
REMARK   33  A    between atoms: CA_75  and  C_76 
REMARK   34  A    between atoms: CA_75  and  CB_78 
REMARK       I    between atoms: C_76  and  N_84 
REMARK   35  A    between atoms: CB_78  and  CG_79 
REMARK   36  A    between atoms: CG_79  and  CD_80 
REMARK   37  A    between atoms: N_84  and  CA_85 
REMARK   38  A    between atoms: CA_85  and  C_86 
REMARK   39  A    between atoms: CA_85  and  CB_88 
REMARK       I    between atoms: C_86  and  N_96 
REMARK   40  A    between atoms: CB_88  and  CG_89 
REMARK   41  A    between atoms: N_96  and  CA_97 
REMARK   42  A    between atoms: CA_97  and  C_98 
REMARK   43  A    between atoms: CA_97  and  CB_100 
REMARK       I    between atoms: C_98  and  N_104 
REMARK   44  A    between atoms: N_104  and  CA_105 
REMARK   45  A    between atoms: CA_105  and  C_106 
REMARK   46  A    between atoms: CA_105  and  CB_108 
REMARK       I    between atoms: C_106  and  N_116 
REMARK   47  A    between atoms: CB_108  and  CG_109 
REMARK   48  A    between atoms: CG_109  and  CD_110 
REMARK       I    between atoms: CD_110  and  NE2_111 
REMARK   49  A    between atoms: N_116  and  CA_117 
REMARK   50  A    between atoms: CA_117  and  C_118 
REMARK   51  A    between atoms: CA_117  and  CB_120 
REMARK       I    between atoms: C_118  and  N_133 
REMARK   52  A    between atoms: CB_120  and  CG_121 
REMARK   53  A    between atoms: CG_121  and  CD_122 
REMARK   54  A    between atoms: CD_122  and  NE_123 
REMARK       I    between atoms: NE_123  and  CZ_124 
REMARK       I    between atoms: CZ_124  and  NH1_125 
REMARK       I    between atoms: CZ_124  and  NH2_126 
REMARK   55  A    between atoms: N_133  and  CA_134 
REMARK   56  A    between atoms: CA_134  and  C_135 
REMARK   57  A    between atoms: CA_134  and  CB_137 
REMARK       I    between atoms: C_135  and  N_141 
REMARK   58  A    between atoms: N_141  and  CA_142 
REMARK   59  A    between atoms: CA_142  and  C_143 
REMARK   60  A    between atoms: CA_142  and  CB_145 
REMARK       I    between atoms: C_143  and  N_150 
REMARK   61  A    between atoms: CB_145  and  CG_146 
REMARK   62  A    between atoms: CG_146  and  SD_147 
REMARK   63  A    between atoms: N_150  and  CA_151 
REMARK   64  A    between atoms: CA_151  and  C_152 
REMARK   65  A    between atoms: CA_151  and  CB_154 
REMARK   66  A    between atoms: CB_154  and  CG_155 
REMARK   67  A    between atoms: CG_155  and  CD_156 
REMARK   68  A    between atoms: CD_156  and  NE_157 
REMARK       I    between atoms: NE_157  and  CZ_158 
REMARK       I    between atoms: CZ_158  and  NH1_159 
ROOT
ATOM      1  C   GLU d   9    1084.470 308.286-1066.347  0.00  0.00     0.241 C 
ATOM      2  O   GLU d   9    1085.134 309.040-1067.072  0.00  0.00    -0.271 OA
ATOM      3  N   HIS d  10    1084.566 307.011-1066.517  0.00  0.00    -0.346 N 
ATOM      4  H   HIS d  10    1084.036 306.375-1065.939  0.00  0.00     0.163 HD
ENDROOT
BRANCH   1   5
ATOM      5  CA  GLU d   9    1083.552 308.813-1065.270  0.00  0.00     0.177 C 
BRANCH   5   6
ATOM      6  N   GLU d   9    1082.249 308.155-1065.326  0.00  0.00    -0.346 N 
ATOM      7  C   ASP d   8    1081.569 308.205-1066.421  0.00  0.00     0.241 C 
ATOM      8  O   ASP d   8    1082.042 308.811-1067.395  0.00  0.00    -0.271 OA
ATOM      9  H   GLU d   9    1081.886 307.668-1064.519  0.00  0.00     0.163 HD
BRANCH   7  10
ATOM     10  CA  ASP d   8    1080.223 307.525-1066.478  0.00  0.00     0.186 C 
BRANCH  10  11
ATOM     11  N   ASP d   8    1080.293 306.176-1065.925  0.00  0.00    -0.346 N 
ATOM     12  C   LEU d   7    1081.130 305.335-1066.432  0.00  0.00     0.241 C 
ATOM     13  O   LEU d   7    1081.851 305.698-1067.374  0.00  0.00    -0.271 OA
ATOM     14  H   ASP d   8    1079.695 305.904-1065.158  0.00  0.00     0.163 HD
BRANCH  12  15
ATOM     15  CA  LEU d   7    1081.203 303.940-1065.860  0.00  0.00     0.177 C 
BRANCH  15  16
ATOM     16  N   LEU d   7    1081.258 303.976-1064.401  0.00  0.00    -0.346 N 
ATOM     17  C   ILE d   6    1082.204 304.639-1063.828  0.00  0.00     0.241 C 
ATOM     18  O   ILE d   6    1083.039 305.227-1064.531  0.00  0.00    -0.271 OA
ATOM     19  H   LEU d   7    1080.566 303.488-1063.850  0.00  0.00     0.163 HD
BRANCH  17  20
ATOM     20  CA  ILE d   6    1082.261 304.676-1062.320  0.00  0.00     0.180 C 
BRANCH  20  21
ATOM     21  N   ILE d   6    1080.948 304.971-1061.753  0.00  0.00    -0.346 N 
ATOM     22  C   SER d   5    1080.343 306.054-1062.107  0.00  0.00     0.243 C 
ATOM     23  O   SER d   5    1080.890 306.808-1062.912  0.00  0.00    -0.271 OA
ATOM     24  H   ILE d   6    1080.520 304.337-1061.094  0.00  0.00     0.163 HD
BRANCH  22  25
ATOM     25  CA  SER d   5    1078.985 306.360-1061.521  0.00  0.00     0.200 C 
BRANCH  25  26
ATOM     26  N   SER d   5    1078.115 305.188-1061.580  0.00  0.00    -0.344 N 
ATOM     27  C   GLU d   4    1077.888 304.635-1062.723  0.00  0.00     0.241 C 
ATOM     28  O   GLU d   4    1078.414 305.115-1063.738  0.00  0.00    -0.271 OA
ATOM     29  H   SER d   5    1077.698 304.816-1060.738  0.00  0.00     0.163 HD
BRANCH  27  30
ATOM     30  CA  GLU d   4    1076.989 303.424-1062.784  0.00  0.00     0.177 C 
BRANCH  30  31
ATOM     31  N   GLU d   4    1077.349 302.453-1061.755  0.00  0.00    -0.346 N 
ATOM     32  C   PRO d   3    1078.553 301.993-1061.722  0.00  0.00     0.241 C 
ATOM     33  O   PRO d   3    1079.377 302.376-1062.554  0.00  0.00    -0.271 OA
ATOM     34  H   GLU d   4    1076.665 302.146-1061.078  0.00  0.00     0.163 HD
BRANCH  32  35
ATOM     35  CA  PRO d   3    1078.952 300.970-1060.646  0.00  0.00     0.179 C 
ATOM     36  N   PRO d   3    1078.500 301.379-1059.324  0.00  0.00    -0.337 N 
ATOM     37  C   ASN d   2    1079.021 302.374-1058.690  0.00  0.00     0.243 C 
ATOM     38  CD  PRO d   3    1077.422 300.586-1058.775  0.00  0.00     0.127 C 
ATOM     39  O   ASN d   2    1079.936 303.005-1059.219  0.00  0.00    -0.271 OA
ATOM     40  CG  PRO d   3    1076.964 299.767-1059.985  0.00  0.00     0.022 C 
ATOM     41  CB  PRO d   3    1078.247 299.615-1060.815  0.00  0.00     0.037 C 
BRANCH  37  42
ATOM     42  CA  ASN d   2    1078.490 302.730-1057.321  0.00  0.00     0.185 C 
BRANCH  42  43
ATOM     43  N   ASN d   2    1077.031 302.768-1057.321  0.00  0.00    -0.346 N 
ATOM     44  C   GLU d   1    1076.426 303.554-1058.146  0.00  0.00     0.242 C 
ATOM     45  O   GLU d   1    1077.102 304.253-1058.915  0.00  0.00    -0.271 OA
ATOM     46  H   ASN d   2    1076.503 302.189-1056.685  0.00  0.00     0.163 HD
BRANCH  44  47
ATOM     47  CA  GLU d   1    1074.917 303.594-1058.146  0.00  0.00     0.191 C 
BRANCH  47  48
ATOM     48  N   GLU d   1    1074.358 302.245-1058.146  0.00  0.00    -0.326 NA
ATOM     49  H   GLU d   1    1074.985 301.366-1058.146  0.00  0.00     0.180 HD
ENDBRANCH  47  48
BRANCH  47  50
ATOM     50  CB  GLU d   1    1074.394 304.379-1056.909  0.00  0.00     0.047 C 
BRANCH  50  51
ATOM     51  CG  GLU d   1    1074.869 305.864-1056.798  0.00  0.00     0.116 C 
BRANCH  51  52
ATOM     52  CD  GLU d   1    1074.445 306.668-1055.583  0.00  0.00     0.172 C 
ATOM     53  OE1 GLU d   1    1073.717 306.166-1054.705  0.00  0.00    -0.648 OA
ATOM     54  OE2 GLU d   1    1074.875 307.838-1055.511  0.00  0.00    -0.648 OA
ENDBRANCH  51  52
ENDBRANCH  50  51
ENDBRANCH  47  50
ENDBRANCH  44  47
ENDBRANCH  42  43
BRANCH  42  55
ATOM     55  CB  ASN d   2    1078.982 301.707-1056.257  0.00  0.00     0.137 C 
BRANCH  55  56
ATOM     56  CG  ASN d   2    1078.519 301.931-1054.813  0.00  0.00     0.217 C 
ATOM     57  ND2 ASN d   2    1079.113 302.845-1054.095  0.00  0.00    -0.370 N 
ATOM     58 21HD ASN d   2    1078.633 303.018-1053.209  0.00  0.00     0.159 HD
ATOM     59 22HD ASN d   2    1079.815 303.417-1054.565  0.00  0.00     0.159 HD
ATOM     60  OD1 ASN d   2    1077.599 301.297-1054.319  0.00  0.00    -0.274 OA
ENDBRANCH  55  56
ENDBRANCH  42  55
ENDBRANCH  37  42
ENDBRANCH  32  35
ENDBRANCH  30  31
BRANCH  30  61
ATOM     61  CB  GLU d   4    1075.500 303.843-1062.614  0.00  0.00     0.045 C 
BRANCH  61  62
ATOM     62  CG  GLU d   4    1074.952 304.846-1063.679  0.00  0.00     0.116 C 
BRANCH  62  63
ATOM     63  CD  GLU d   4    1073.525 305.343-1063.535  0.00  0.00     0.172 C 
ATOM     64  OE1 GLU d   4    1072.799 304.945-1062.604  0.00  0.00    -0.648 OA
ATOM     65  OE2 GLU d   4    1073.136 306.172-1064.384  0.00  0.00    -0.648 OA
ENDBRANCH  62  63
ENDBRANCH  61  62
ENDBRANCH  30  61
ENDBRANCH  27  30
ENDBRANCH  25  26
BRANCH  25  66
ATOM     66  CB  SER d   5    1079.096 306.892-1060.071  0.00  0.00     0.199 C 
BRANCH  66  67
ATOM     67  OG  SER d   5    1079.828 306.012-1059.210  0.00  0.00    -0.398 OA
ATOM     68  HG  SER d   5    1079.339 305.187-1059.159  0.00  0.00     0.209 HD
ENDBRANCH  66  67
ENDBRANCH  25  66
ENDBRANCH  22  25
ENDBRANCH  20  21
BRANCH  20  69
ATOM     69  CB  ILE d   6    1082.861 303.340-1061.720  0.00  0.00     0.013 C 
ATOM     70  CG2 ILE d   6    1084.302 303.039-1062.235  0.00  0.00     0.012 C 
BRANCH  69  71
ATOM     71  CG1 ILE d   6    1082.881 303.278-1060.159  0.00  0.00     0.002 C 
ATOM     72  CD1 ILE d   6    1083.151 301.889-1059.544  0.00  0.00     0.005 C 
ENDBRANCH  69  71
ENDBRANCH  20  69
ENDBRANCH  17  20
ENDBRANCH  15  16
BRANCH  15  73
ATOM     73  CB  LEU d   7    1080.000 303.079-1066.340  0.00  0.00     0.038 C 
BRANCH  73  74
ATOM     74  CG  LEU d   7    1079.927 301.600-1065.874  0.00  0.00    -0.020 C 
ATOM     75  CD1 LEU d   7    1078.737 300.894-1066.539  0.00  0.00     0.009 C 
ATOM     76  CD2 LEU d   7    1081.221 300.821-1066.166  0.00  0.00     0.009 C 
ENDBRANCH  73  74
ENDBRANCH  15  73
ENDBRANCH  12  15
ENDBRANCH  10  11
BRANCH  10  77
ATOM     77  CB  ASP d   8    1079.145 308.364-1065.736  0.00  0.00     0.147 C 
BRANCH  77  78
ATOM     78  CG  ASP d   8    1078.926 309.785-1066.276  0.00  0.00     0.175 C 
ATOM     79  OD1 ASP d   8    1078.990 309.984-1067.507  0.00  0.00    -0.648 OA
ATOM     80  OD2 ASP d   8    1078.733 310.711-1065.461  0.00  0.00    -0.648 OA
ENDBRANCH  77  78
ENDBRANCH  10  77
ENDBRANCH   7  10
ENDBRANCH   5   6
BRANCH   5  81
ATOM     81  CB  GLU d   9    1084.186 308.605-1063.865  0.00  0.00     0.045 C 
BRANCH  81  82
ATOM     82  CG  GLU d   9    1085.568 309.297-1063.635  0.00  0.00     0.116 C 
BRANCH  82  83
ATOM     83  CD  GLU d   9    1086.270 309.083-1062.307  0.00  0.00     0.172 C 
ATOM     84  OE1 GLU d   9    1085.749 308.392-1061.411  0.00  0.00    -0.648 OA
ATOM     85  OE2 GLU d   9    1087.389 309.621-1062.176  0.00  0.00    -0.648 OA
ENDBRANCH  82  83
ENDBRANCH  81  82
ENDBRANCH   5  81
ENDBRANCH   1   5
BRANCH   3  86
ATOM     86  CA  HIS d  10    1085.454 306.500-1067.558  0.00  0.00     0.182 C 
BRANCH  86  87
ATOM     87  C   HIS d  10    1085.087 307.065-1068.908  0.00  0.00     0.241 C 
ATOM     88  O   HIS d  10    1085.939 307.530-1069.680  0.00  0.00    -0.271 OA
ATOM     89  N   VAL d  11    1083.849 307.064-1069.271  0.00  0.00    -0.346 N 
ATOM     90  H   VAL d  11    1083.136 306.691-1068.661  0.00  0.00     0.163 HD
BRANCH  89  91
ATOM     91  CA  VAL d  11    1083.494 307.611-1070.578  0.00  0.00     0.180 C 
BRANCH  91  92
ATOM     92  C   VAL d  11    1083.958 309.042-1070.709  0.00  0.00     0.241 C 
ATOM     93  O   VAL d  11    1084.559 309.448-1071.712  0.00  0.00    -0.271 OA
ATOM     94  N   GLN d  12    1083.721 309.867-1069.746  0.00  0.00    -0.346 N 
ATOM     95  H   GLN d  12    1083.232 309.560-1068.917  0.00  0.00     0.163 HD
BRANCH  94  96
ATOM     96  CA  GLN d  12    1084.170 311.250-1069.873  0.00  0.00     0.177 C 
BRANCH  96  97
ATOM     97  C   GLN d  12    1085.659 311.318-1070.110  0.00  0.00     0.241 C 
ATOM     98  O   GLN d  12    1086.146 312.027-1070.988  0.00  0.00    -0.271 OA
ATOM     99  N   ARG d  13    1086.444 310.611-1069.370  0.00  0.00    -0.346 N 
ATOM    100  H   ARG d  13    1086.068 310.020-1068.642  0.00  0.00     0.163 HD
BRANCH  99 101
ATOM    101  CA  ARG d  13    1087.884 310.677-1069.600  0.00  0.00     0.176 C 
BRANCH 101 102
ATOM    102  C   ARG d  13    1088.221 310.306-1071.026  0.00  0.00     0.241 C 
ATOM    103  O   ARG d  13    1088.990 310.978-1071.709  0.00  0.00    -0.271 OA
ATOM    104  N   VAL d  14    1087.685 309.252-1071.541  0.00  0.00    -0.346 N 
ATOM    105  H   VAL d  14    1087.050 308.683-1071.000  0.00  0.00     0.163 HD
BRANCH 104 106
ATOM    106  CA  VAL d  14    1088.010 308.893-1072.918  0.00  0.00     0.180 C 
BRANCH 106 107
ATOM    107  C   VAL d  14    1087.680 310.024-1073.864  0.00  0.00     0.241 C 
ATOM    108  O   VAL d  14    1088.474 310.406-1074.732  0.00  0.00    -0.271 OA
ATOM    109  N   MET d  15    1086.536 310.610-1073.762  0.00  0.00    -0.346 N 
ATOM    110  H   MET d  15    1085.870 310.317-1073.061  0.00  0.00     0.163 HD
BRANCH 109 111
ATOM    111  CA  MET d  15    1086.215 311.703-1074.675  0.00  0.00     0.177 C 
BRANCH 111 112
ATOM    112  C   MET d  15    1087.245 312.803-1074.586  0.00  0.00     0.241 C 
ATOM    113  O   MET d  15    1087.748 313.314-1075.598  0.00  0.00    -0.271 OA
ATOM    114  N   ARG d  16    1087.614 313.223-1073.423  0.00  0.00    -0.347 N 
ATOM    115  H   ARG d  16    1087.219 312.823-1072.585  0.00  0.00     0.163 HD
BRANCH 114 116
ATOM    116  CA  ARG d  16    1088.610 314.287-1073.339  0.00  0.00     0.162 C 
BRANCH 116 117
ATOM    117  C   ARG d  16    1089.881 313.895-1074.055  0.00  0.00     0.219 C 
ATOM    118  O   ARG d  16    1089.995 312.819-1074.637  0.00  0.00    -0.287 OA
ENDBRANCH 116 117
BRANCH 116 119
ATOM    119  CB  ARG d  16    1088.878 314.604-1071.840  0.00  0.00     0.035 C 
BRANCH 119 120
ATOM    120  CG  ARG d  16    1089.703 315.893-1071.566  0.00  0.00     0.023 C 
BRANCH 120 121
ATOM    121  CD  ARG d  16    1089.952 316.112-1070.064  0.00  0.00     0.138 C 
BRANCH 121 122
ATOM    122  NE  ARG d  16    1090.728 317.370-1069.862  0.00  0.00    -0.227 N 
ATOM    123  CZ  ARG d  16    1091.119 317.852-1068.686  0.00  0.00     0.665 C 
ATOM    124  NH1 ARG d  16    1090.871 317.267-1067.548  0.00  0.00    -0.235 N 
ATOM    125  NH2 ARG d  16    1091.783 318.965-1068.667  0.00  0.00    -0.235 N 
ATOM    126 11HH ARG d  16    1090.346 316.394-1067.633  0.00  0.00     0.174 HD
ATOM    127 12HH ARG d  16    1091.205 317.702-1066.687  0.00  0.00     0.174 HD
ATOM    128 21HH ARG d  16    1091.969 319.408-1069.568  0.00  0.00     0.174 HD
ATOM    129 22HH ARG d  16    1092.073 319.319-1067.754  0.00  0.00     0.174 HD
ATOM    130  HE  ARG d  16    1091.007 317.952-1070.659  0.00  0.00     0.177 HD
ENDBRANCH 121 122
ENDBRANCH 120 121
ENDBRANCH 119 120
ENDBRANCH 116 119
ENDBRANCH 114 116
ENDBRANCH 111 112
BRANCH 111 131
ATOM    131  CB  MET d  15    1084.794 312.248-1074.366  0.00  0.00     0.045 C 
BRANCH 131 132
ATOM    132  CG  MET d  15    1083.632 311.250-1074.559  0.00  0.00     0.076 C 
BRANCH 132 133
ATOM    133  SD  MET d  15    1082.058 312.116-1074.444  0.00  0.00    -0.173 SA
ATOM    134  CE  MET d  15    1080.977 310.686-1074.309  0.00  0.00     0.089 C 
ENDBRANCH 132 133
ENDBRANCH 131 132
ENDBRANCH 111 131
ENDBRANCH 109 111
ENDBRANCH 106 107
BRANCH 106 135
ATOM    135  CB  VAL d  14    1087.238 307.577-1073.327  0.00  0.00     0.009 C 
ATOM    136  CG1 VAL d  14    1087.328 307.159-1074.820  0.00  0.00     0.012 C 
ATOM    137  CG2 VAL d  14    1087.670 306.324-1072.527  0.00  0.00     0.012 C 
ENDBRANCH 106 135
ENDBRANCH 104 106
ENDBRANCH 101 102
BRANCH 101 138
ATOM    138  CB  ARG d  13    1088.598 309.737-1068.587  0.00  0.00     0.036 C 
BRANCH 138 139
ATOM    139  CG  ARG d  13    1090.142 309.890-1068.506  0.00  0.00     0.023 C 
BRANCH 139 140
ATOM    140  CD  ARG d  13    1090.769 308.902-1067.508  0.00  0.00     0.138 C 
BRANCH 140 141
ATOM    141  NE  ARG d  13    1092.247 309.109-1067.458  0.00  0.00    -0.227 N 
ATOM    142  CZ  ARG d  13    1093.094 308.417-1066.703  0.00  0.00     0.665 C 
ATOM    143  NH1 ARG d  13    1092.729 307.452-1065.906  0.00  0.00    -0.235 N 
ATOM    144  NH2 ARG d  13    1094.354 308.716-1066.759  0.00  0.00    -0.235 N 
ATOM    145 11HH ARG d  13    1091.724 307.266-1065.910  0.00  0.00     0.174 HD
ATOM    146 12HH ARG d  13    1093.442 306.968-1065.358  0.00  0.00     0.174 HD
ATOM    147 21HH ARG d  13    1094.621 309.474-1067.390  0.00  0.00     0.174 HD
ATOM    148 22HH ARG d  13    1094.989 308.174-1066.171  0.00  0.00     0.174 HD
ATOM    149  HE  ARG d  13    1092.698 309.831-1068.028  0.00  0.00     0.177 HD
ENDBRANCH 140 141
ENDBRANCH 139 140
ENDBRANCH 138 139
ENDBRANCH 101 138
ENDBRANCH  99 101
ENDBRANCH  96  97
BRANCH  96 150
ATOM    150  CB  GLN d  12    1083.779 312.016-1068.589  0.00  0.00     0.044 C 
BRANCH 150 151
ATOM    151  CG  GLN d  12    1084.139 313.538-1068.557  0.00  0.00     0.105 C 
BRANCH 151 152
ATOM    152  CD  GLN d  12    1083.836 314.351-1067.292  0.00  0.00     0.215 C 
ATOM    153  NE2 GLN d  12    1083.269 313.773-1066.263  0.00  0.00    -0.370 N 
ATOM    154 21HE GLN d  12    1083.162 314.367-1065.439  0.00  0.00     0.159 HD
ATOM    155 22HE GLN d  12    1083.106 312.770-1066.367  0.00  0.00     0.159 HD
ATOM    156  OE1 GLN d  12    1084.138 315.532-1067.213  0.00  0.00    -0.274 OA
ENDBRANCH 151 152
ENDBRANCH 150 151
ENDBRANCH  96 150
ENDBRANCH  94  96
ENDBRANCH  91  92
BRANCH  91 157
ATOM    157  CB  VAL d  11    1081.933 307.505-1070.797  0.00  0.00     0.009 C 
ATOM    158  CG1 VAL d  11    1081.364 308.210-1072.060  0.00  0.00     0.012 C 
ATOM    159  CG2 VAL d  11    1081.408 306.051-1070.871  0.00  0.00     0.012 C 
ENDBRANCH  91 157
ENDBRANCH  89  91
ENDBRANCH  86  87
BRANCH  86 160
ATOM    160  CB  HIS d  10    1085.290 304.971-1067.554  0.00  0.00     0.095 C 
BRANCH 160 161
ATOM    161  CG  HIS d  10    1086.576 304.260-1067.246  0.00  0.00     0.053 A 
ATOM    162  CD2 HIS d  10    1086.957 303.924-1065.954  0.00  0.00     0.116 A 
ATOM    163  NE2 HIS d  10    1088.171 303.293-1066.021  0.00  0.00    -0.359 N 
ATOM    164  CE1 HIS d  10    1088.434 303.296-1067.356  0.00  0.00     0.207 A 
ATOM    165  2HE HIS d  10    1088.738 302.915-1065.248  0.00  0.00     0.166 HD
ATOM    166  ND1 HIS d  10    1087.527 303.855-1068.179  0.00  0.00    -0.247 NA
ENDBRANCH 160 161
ENDBRANCH  86 160
ENDBRANCH   3  86
TORSDOF 68
