@<TRIPOS>MOLECULE
11-14
263 264 16              
SMALL
USER_CHARGES
@<TRIPOS>ATOM
1	   N	1788.131	536.196	-1831.199	N.3	1	GLU1	-0.516	
2	  CA	1788.690	537.545	-1831.199	C.3	1	GLU1	0.040	
3	   C	1790.199	537.505	-1831.199	C.2	1	GLU1	0.537	
4	   O	1790.875	538.204	-1831.968	O.2	1	GLU1	-0.582	
5	  CB	1788.167	538.330	-1829.962	C.3	1	GLU1	0.056	
6	  CG	1788.642	539.815	-1829.851	C.3	1	GLU1	0.014	
7	  CD	1788.218	540.619	-1828.636	C.2	1	GLU1	0.805	
8	 OE1	1787.490	540.117	-1827.758	O.co2	1	GLU1	-0.819	
9	 OE2	1788.648	541.789	-1828.564	O.co2	1	GLU1	-0.819	
10	   H	1788.758	535.317	-1831.199	 H	1	GLU1	0.294	
11	  HA	1788.364	538.063	-1832.119	 H	1	GLU1	0.111	
12	 2HB	1788.456	537.799	-1829.032	 H	1	GLU1	-0.017	
13	 3HB	1787.060	538.320	-1829.949	 H	1	GLU1	-0.017	
14	 2HG	1788.332	540.400	-1830.732	 H	1	GLU1	-0.043	
15	 3HG	1789.742	539.882	-1829.822	 H	1	GLU1	-0.043	
16	   N	1790.804	536.719	-1830.374	N.am	2	ASN2	-0.416	
17	  CA	1792.263	536.680	-1830.374	C.3	2	ASN2	0.014	
18	   C	1792.794	536.325	-1831.743	C.2	2	ASN2	0.597	
19	   O	1793.709	536.955	-1832.271	O.2	2	ASN2	-0.568	
20	  CB	1792.755	535.657	-1829.310	C.3	2	ASN2	-0.204	
21	  CG	1792.292	535.881	-1827.866	C.2	2	ASN2	0.713	
22	 ND2	1792.886	536.796	-1827.148	N.pl3	2	ASN2	-0.919	
23	 OD1	1791.371	535.248	-1827.372	O.2	2	ASN2	-0.593	
24	   H	1790.276	536.140	-1829.737	 H	2	ASN2	0.272	
25	  HA	1792.640	537.690	-1830.129	 H	2	ASN2	0.105	
26	 2HB	1793.859	535.598	-1829.313	 H	2	ASN2	0.080	
27	 3HB	1792.426	534.639	-1829.595	 H	2	ASN2	0.080	
28	1HD2	1792.406	536.969	-1826.261	 H	2	ASN2	0.420	
29	2HD2	1793.588	537.368	-1827.617	 H	2	ASN2	0.420	
30	   N	1792.273	535.330	-1832.377	N.am	3	PRO3	-0.255	
31	  CA	1792.724	534.921	-1833.698	C.3	3	PRO3	-0.027	
32	   C	1792.326	535.944	-1834.775	C.2	3	PRO3	0.590	
33	   O	1793.150	536.327	-1835.607	O.2	3	PRO3	-0.575	
34	  CB	1792.020	533.566	-1833.867	C.3	3	PRO3	-0.007	
35	  CG	1790.737	533.718	-1833.037	C.3	3	PRO3	0.019	
36	  CD	1791.195	534.537	-1831.827	C.3	3	PRO3	0.019	
37	  HA	1793.810	534.801	-1833.712	 H	3	PRO3	0.064	
38	 2HB	1792.643	532.785	-1833.427	 H	3	PRO3	0.025	
39	 3HB	1791.822	533.317	-1834.913	 H	3	PRO3	0.025	
40	 2HG	1790.310	532.756	-1832.746	 H	3	PRO3	0.021	
41	 3HG	1790.000	534.289	-1833.604	 H	3	PRO3	0.021	
42	 2HD	1791.584	533.887	-1831.040	 H	3	PRO3	0.039	
43	 3HD	1790.398	535.173	-1831.434	 H	3	PRO3	0.039	
44	   N	1791.122	536.404	-1834.807	N.am	4	GLU4	-0.516	
45	  CA	1790.762	537.375	-1835.837	C.3	4	GLU4	0.040	
46	   C	1791.661	538.586	-1835.776	C.2	4	GLU4	0.537	
47	   O	1792.187	539.066	-1836.790	O.2	4	GLU4	-0.582	
48	  CB	1789.274	537.794	-1835.667	C.3	4	GLU4	0.056	
49	  CG	1788.726	538.797	-1836.732	C.3	4	GLU4	0.014	
50	  CD	1787.299	539.294	-1836.589	C.2	4	GLU4	0.805	
51	 OE1	1786.573	538.896	-1835.658	O.co2	4	GLU4	-0.819	
52	 OE2	1786.909	540.124	-1837.437	O.co2	4	GLU4	-0.819	
53	   H	1790.438	536.097	-1834.131	 H	4	GLU4	0.294	
54	  HA	1790.893	536.905	-1836.828	 H	4	GLU4	0.111	
55	 2HB	1789.121	538.234	-1834.660	 H	4	GLU4	-0.017	
56	 3HB	1788.626	536.896	-1835.673	 H	4	GLU4	-0.017	
57	 2HG	1788.807	538.383	-1837.750	 H	4	GLU4	-0.043	
58	 3HG	1789.314	539.730	-1836.743	 H	4	GLU4	-0.043	
59	   N	1791.888	539.139	-1834.633	N.am	5	SER5	-0.416	
60	  CA	1792.758	540.310	-1834.574	C.3	5	SER5	-0.025	
61	   C	1794.117	540.005	-1835.160	C.2	5	SER5	0.597	
62	   O	1794.664	540.758	-1835.965	O.2	5	SER5	-0.568	
63	  CB	1792.869	540.842	-1833.124	C.3	5	SER5	0.212	
64	  OG	1793.601	539.963	-1832.263	O.3	5	SER5	-0.655	
65	   H	1791.471	538.767	-1833.791	 H	5	SER5	0.272	
66	  HA	1792.308	541.100	-1835.203	 H	5	SER5	0.084	
67	 2HB	1791.870	541.036	-1832.690	 H	5	SER5	0.035	
68	 3HB	1793.375	541.828	-1833.126	 H	5	SER5	0.035	
69	  HG	1793.113	539.138	-1832.212	 H	5	SER5	0.428	
70	   N	1794.722	538.922	-1834.806	N.am	6	ILE6	-0.416	
71	  CA	1796.035	538.627	-1835.372	C.3	6	ILE6	-0.060	
72	   C	1795.978	538.589	-1836.880	C.2	6	ILE6	0.597	
73	   O	1796.812	539.177	-1837.583	O.2	6	ILE6	-0.568	
74	  CB	1796.635	537.291	-1834.772	C.3	6	ILE6	0.130	
75	 CG1	1796.654	537.229	-1833.211	C.3	6	ILE6	-0.043	
76	 CG2	1798.076	536.989	-1835.287	C.3	6	ILE6	-0.320	
77	 CD1	1796.924	535.839	-1832.596	C.3	6	ILE6	-0.066	
78	   H	1794.293	538.287	-1834.146	 H	6	ILE6	0.272	
79	  HA	1796.709	539.461	-1835.104	 H	6	ILE6	0.087	
80	  HB	1795.977	536.465	-1835.116	 H	6	ILE6	0.019	
81	2HG1	1795.672	537.548	-1832.815	 H	6	ILE6	0.024	
82	3HG1	1797.370	537.971	-1832.806	 H	6	ILE6	0.024	
83	1HG2	1798.135	536.896	-1836.386	 H	6	ILE6	0.088	
84	2HG2	1798.798	537.772	-1834.985	 H	6	ILE6	0.088	
85	3HG2	1798.466	536.027	-1834.908	 H	6	ILE6	0.088	
86	1HD1	1796.196	535.085	-1832.950	 H	6	ILE6	0.019	
87	2HD1	1797.935	535.461	-1832.832	 H	6	ILE6	0.019	
88	3HD1	1796.848	535.869	-1831.493	 H	6	ILE6	0.019	
89	   N	1795.032	537.926	-1837.453	N.am	7	LEU7	-0.416	
90	  CA	1794.977	537.890	-1838.912	C.3	7	LEU7	-0.052	
91	   C	1794.904	539.285	-1839.484	C.2	7	LEU7	0.597	
92	   O	1795.625	539.648	-1840.426	O.2	7	LEU7	-0.568	
93	  CB	1793.774	537.029	-1839.392	C.3	7	LEU7	-0.110	
94	  CG	1793.701	535.550	-1838.926	C.3	7	LEU7	0.353	
95	 CD1	1792.512	534.844	-1839.591	C.3	7	LEU7	-0.412	
96	 CD2	1794.995	534.771	-1839.217	C.3	7	LEU7	-0.412	
97	   H	1794.340	537.438	-1836.902	 H	7	LEU7	0.272	
98	  HA	1795.919	537.450	-1839.286	 H	7	LEU7	0.092	
99	 2HB	1793.751	537.045	-1840.500	 H	7	LEU7	0.046	
100	 3HB	1792.834	537.532	-1839.088	 H	7	LEU7	0.046	
101	  HG	1793.532	535.542	-1837.829	 H	7	LEU7	-0.036	
102	1HD1	1791.554	535.353	-1839.369	 H	7	LEU7	0.100	
103	2HD1	1792.611	534.803	-1840.693	 H	7	LEU7	0.100	
104	3HD1	1792.405	533.803	-1839.235	 H	7	LEU7	0.100	
105	1HD2	1795.270	534.801	-1840.287	 H	7	LEU7	0.100	
106	2HD2	1795.849	535.183	-1838.646	 H	7	LEU7	0.100	
107	3HD2	1794.914	533.709	-1838.921	 H	7	LEU7	0.100	
108	   N	1794.067	540.125	-1838.978	N.am	8	ASP8	-0.516	
109	  CA	1793.996	541.475	-1839.531	C.3	8	ASP8	0.038	
110	   C	1795.343	542.155	-1839.474	C.2	8	ASP8	0.537	
111	   O	1795.815	542.760	-1840.448	O.2	8	ASP8	-0.582	
112	  CB	1792.918	542.313	-1838.789	C.3	8	ASP8	-0.030	
113	  CG	1792.699	543.734	-1839.330	C.2	8	ASP8	0.799	
114	 OD1	1792.763	543.934	-1840.560	O.co2	8	ASP8	-0.801	
115	 OD2	1792.506	544.660	-1838.514	O.co2	8	ASP8	-0.801	
116	   H	1793.469	539.854	-1838.211	 H	8	ASP8	0.294	
117	  HA	1793.713	541.397	-1840.598	 H	8	ASP8	0.088	
118	 2HB	1793.175	542.397	-1837.717	 H	8	ASP8	-0.012	
119	 3HB	1791.939	541.808	-1838.822	 H	8	ASP8	-0.012	
120	   N	1796.023	542.105	-1838.379	N.am	9	GLU9	-0.516	
121	  CA	1797.325	542.763	-1838.323	C.3	9	GLU9	0.040	
122	   C	1798.243	542.236	-1839.399	C.2	9	GLU9	0.537	
123	   O	1798.907	542.991	-1840.125	O.2	9	GLU9	-0.582	
124	  CB	1797.959	542.556	-1836.918	C.3	9	GLU9	0.056	
125	  CG	1799.341	543.248	-1836.689	C.3	9	GLU9	0.014	
126	  CD	1800.043	543.035	-1835.361	C.2	9	GLU9	0.805	
127	 OE1	1799.522	542.344	-1834.464	O.co2	9	GLU9	-0.819	
128	 OE2	1801.162	543.574	-1835.229	O.co2	9	GLU9	-0.819	
129	   H	1795.659	541.618	-1837.572	 H	9	GLU9	0.294	
130	  HA	1797.182	543.845	-1838.499	 H	9	GLU9	0.111	
131	 2HB	1798.072	541.471	-1836.715	 H	9	GLU9	-0.017	
132	 3HB	1797.262	542.909	-1836.134	 H	9	GLU9	-0.017	
133	 2HG	1799.269	544.339	-1836.828	 H	9	GLU9	-0.043	
134	 3HG	1800.088	542.904	-1837.423	 H	9	GLU9	-0.043	
135	   N	1798.340	540.961	-1839.569	N.am	10	HIS10	-0.416	
136	  CA	1799.228	540.450	-1840.610	C.3	10	HIS10	-0.058	
137	   C	1798.861	541.015	-1841.961	C.2	10	HIS10	0.597	
138	   O	1799.713	541.480	-1842.732	O.2	10	HIS10	-0.568	
139	  CB	1799.065	538.921	-1840.605	C.3	10	HIS10	-0.007	
140	  CG	1800.351	538.212	-1840.297	C.2	10	HIS10	0.187	
141	 CD2	1800.732	537.876	-1839.005	C.2	10	HIS10	-0.221	
142	 ND1	1801.303	537.807	-1841.230	N.2	10	HIS10	-0.543	
143	 CE1	1802.210	537.249	-1840.407	C.2	10	HIS10	0.163	
144	 NE2	1801.948	537.245	-1839.072	N.pl3	10	HIS10	-0.280	
145	   H	1797.810	540.325	-1838.991	 H	10	HIS10	0.272	
146	  HA	1800.247	540.808	-1840.385	 H	10	HIS10	0.136	
147	 2HB	1798.700	538.555	-1841.585	 H	10	HIS10	0.037	
148	 3HB	1798.310	538.584	-1839.865	 H	10	HIS10	0.037	
149	 2HD	1800.147	538.091	-1838.116	 H	10	HIS10	0.186	
150	 1HE	1803.101	536.828	-1840.854	 H	10	HIS10	0.144	
151	 2HE	1802.515	536.868	-1838.299	 H	10	HIS10	0.334	
152	   N	1797.623	541.013	-1842.323	N.am	11	THR11	-0.416	
153	  CA	1797.268	541.559	-1843.629	C.3	11	THR11	-0.039	
154	   C	1797.731	542.990	-1843.763	C.2	11	THR11	0.597	
155	   O	1798.321	543.386	-1844.748	O.2	11	THR11	-0.568	
156	  CB	1795.724	541.453	-1843.869	C.3	11	THR11	0.365	
157	 CG2	1795.200	542.004	-1845.213	C.3	11	THR11	-0.244	
158	 OG1	1795.309	540.093	-1843.855	O.3	11	THR11	-0.676	
159	   H	1796.910	540.640	-1841.713	 H	11	THR11	0.272	
160	  HA	1797.789	540.970	-1844.406	 H	11	THR11	0.101	
161	  HB	1795.205	541.990	-1843.045	 H	11	THR11	0.004	
162	 1HG	1794.351	540.105	-1843.935	 H	11	THR11	0.410	
163	1HG2	1794.107	541.873	-1845.318	 H	11	THR11	0.064	
164	2HG2	1795.385	543.088	-1845.326	 H	11	THR11	0.064	
165	3HG2	1795.676	541.500	-1846.075	 H	11	THR11	0.064	
166	   N	1797.494	543.817	-1842.801	N.am	12	GLN12	-0.416	
167	  CA	1797.942	545.200	-1842.930	C.3	12	GLN12	-0.003	
168	   C	1799.432	545.268	-1843.169	C.2	12	GLN12	0.597	
169	   O	1799.918	545.975	-1844.048	O.2	12	GLN12	-0.568	
170	  CB	1797.551	545.969	-1841.648	C.3	12	GLN12	-0.004	
171	  CG	1797.911	547.491	-1841.619	C.3	12	GLN12	-0.064	
172	  CD	1797.609	548.306	-1840.355	C.2	12	GLN12	0.695	
173	 NE2	1797.042	547.730	-1839.325	N.pl3	12	GLN12	-0.941	
174	 OE1	1797.910	549.487	-1840.279	O.2	12	GLN12	-0.609	
175	   H	1797.006	543.512	-1841.971	 H	12	GLN12	0.272	
176	  HA	1797.442	545.655	-1843.805	 H	12	GLN12	0.085	
177	 2HB	1798.028	545.470	-1840.778	 H	12	GLN12	0.017	
178	 3HB	1796.461	545.861	-1841.484	 H	12	GLN12	0.017	
179	 2HG	1797.433	548.010	-1842.470	 H	12	GLN12	0.035	
180	 3HG	1798.994	547.633	-1841.785	 H	12	GLN12	0.035	
181	1HE2	1796.935	548.326	-1838.502	 H	12	GLN12	0.425	
182	2HE2	1796.879	546.726	-1839.427	 H	12	GLN12	0.425	
183	   N	1800.217	544.562	-1842.427	N.am	13	ARG13	-0.348	
184	  CA	1801.657	544.628	-1842.658	C.3	13	ARG13	-0.264	
185	   C	1801.993	544.255	-1844.083	C.2	13	ARG13	0.734	
186	   O	1802.761	544.926	-1844.768	O.2	13	ARG13	-0.589	
187	  CB	1802.371	543.691	-1841.643	C.3	13	ARG13	-0.001	
188	  CG	1803.916	543.845	-1841.563	C.3	13	ARG13	0.039	
189	  CD	1804.544	542.859	-1840.564	C.3	13	ARG13	0.049	
190	  NE	1806.021	543.067	-1840.514	N.pl3	13	ARG13	-0.530	
191	  CZ	1806.870	542.377	-1839.758	C.cat	13	ARG13	0.808	
192	 NH1	1806.505	541.414	-1838.959	N.pl3	13	ARG13	-0.863	
193	 NH2	1808.129	542.677	-1839.816	N.pl3	13	ARG13	-0.863	
194	   H	1799.841	543.973	-1841.698	 H	13	ARG13	0.275	
195	  HA	1801.981	545.675	-1842.501	 H	13	ARG13	0.156	
196	 2HB	1802.105	542.640	-1841.881	 H	13	ARG13	0.033	
197	 3HB	1801.946	543.859	-1840.633	 H	13	ARG13	0.033	
198	 2HG	1804.164	544.891	-1841.285	 H	13	ARG13	0.029	
199	 3HG	1804.367	543.688	-1842.564	 H	13	ARG13	0.029	
200	 2HD	1804.300	541.819	-1840.871	 H	13	ARG13	0.069	
201	 3HD	1804.087	543.006	-1839.561	 H	13	ARG13	0.069	
202	  HE	1806.472	543.789	-1841.086	 H	13	ARG13	0.346	
203	1HH1	1805.500	541.227	-1838.962	 H	13	ARG13	0.448	
204	2HH1	1807.219	540.932	-1838.410	 H	13	ARG13	0.448	
205	1HH2	1808.396	543.434	-1840.448	 H	13	ARG13	0.448	
206	2HH2	1808.764	542.137	-1839.226	 H	13	ARG13	0.448	
207	   N	1801.458	543.200	-1844.596	N.am	14	VAL14	-0.416	
208	  CA	1801.782	542.839	-1845.973	C.3	14	VAL14	-0.087	
209	   C	1801.452	543.968	-1846.920	C.2	14	VAL14	0.597	
210	   O	1802.245	544.348	-1847.790	O.2	14	VAL14	-0.568	
211	  CB	1801.010	541.521	-1846.378	C.3	14	VAL14	0.299	
212	 CG1	1801.099	541.101	-1847.871	C.3	14	VAL14	-0.319	
213	 CG2	1801.443	540.270	-1845.576	C.3	14	VAL14	-0.319	
214	   H	1800.823	542.632	-1844.053	 H	14	VAL14	0.272	
215	  HA	1802.871	542.663	-1846.048	 H	14	VAL14	0.097	
216	  HB	1799.934	541.692	-1846.162	 H	14	VAL14	-0.030	
217	1HG1	1802.141	540.924	-1848.200	 H	14	VAL14	0.079	
218	2HG1	1800.527	540.177	-1848.083	 H	14	VAL14	0.079	
219	3HG1	1800.670	541.862	-1848.550	 H	14	VAL14	0.079	
220	1HG2	1801.356	540.430	-1844.486	 H	14	VAL14	0.079	
221	2HG2	1800.808	539.393	-1845.807	 H	14	VAL14	0.079	
222	3HG2	1802.491	539.980	-1845.782	 H	14	VAL14	0.079	
223	   N	1800.307	544.553	-1846.819	N.am	15	MET15	-0.416	
224	  CA	1799.986	545.645	-1847.734	C.3	15	MET15	-0.024	
225	   C	1801.015	546.745	-1847.648	C.2	15	MET15	0.597	
226	   O	1801.518	547.255	-1848.661	O.2	15	MET15	-0.568	
227	  CB	1798.564	546.190	-1847.426	C.3	15	MET15	0.034	
228	  CG	1797.402	545.191	-1847.616	C.3	15	MET15	0.002	
229	  SD	1795.828	546.057	-1847.503	S.3	15	MET15	-0.274	
230	  CE	1794.747	544.627	-1847.365	C.3	15	MET15	-0.054	
231	   H	1799.642	544.261	-1846.117	 H	15	MET15	0.272	
232	  HA	1800.012	545.256	-1848.769	 H	15	MET15	0.088	
233	 2HB	1798.361	547.068	-1848.069	 H	15	MET15	0.024	
234	 3HB	1798.528	546.584	-1846.390	 H	15	MET15	0.024	
235	 2HG	1797.446	544.406	-1846.837	 H	15	MET15	0.044	
236	 3HG	1797.466	544.675	-1848.592	 H	15	MET15	0.044	
237	 1HE	1794.891	543.938	-1848.216	 H	15	MET15	0.068	
238	 2HE	1794.957	544.075	-1846.431	 H	15	MET15	0.068	
239	 3HE	1793.690	544.942	-1847.348	 H	15	MET15	0.068	
240	   N	1801.384	547.168	-1846.486	N.am	16	ARG16	-0.348	
241	  CA	1802.380	548.232	-1846.404	C.3	16	ARG16	-0.264	
242	   C	1803.651	547.839	-1847.120	C.2	16	ARG16	0.734	
243	   O	1803.765	546.762	-1847.700	O.2	16	ARG16	-0.589	
244	  CB	1802.649	548.552	-1844.906	C.3	16	ARG16	-0.001	
245	  CG	1803.474	549.842	-1844.635	C.3	16	ARG16	0.039	
246	  CD	1803.724	550.063	-1843.134	C.3	16	ARG16	0.049	
247	  NE	1804.500	551.323	-1842.935	N.pl3	16	ARG16	-0.530	
248	  CZ	1804.891	551.806	-1841.760	C.cat	16	ARG16	0.808	
249	 NH1	1804.644	551.224	-1840.620	N.pl3	16	ARG16	-0.863	
250	 NH2	1805.555	552.919	-1841.743	N.pl3	16	ARG16	-0.863	
251	   H	1800.989	546.769	-1845.646	 H	16	ARG16	0.275	
252	  HA	1801.971	549.124	-1846.915	 H	16	ARG16	0.156	
253	 2HB	1803.147	547.677	-1844.439	 H	16	ARG16	0.033	
254	 3HB	1801.681	548.634	-1844.372	 H	16	ARG16	0.033	
255	 2HG	1802.943	550.712	-1845.073	 H	16	ARG16	0.029	
256	 3HG	1804.448	549.789	-1845.164	 H	16	ARG16	0.029	
257	 2HD	1804.273	549.189	-1842.720	 H	16	ARG16	0.069	
258	 3HD	1802.751	550.106	-1842.599	 H	16	ARG16	0.069	
259	  HE	1804.778	551.903	-1843.733	 H	16	ARG16	0.346	
260	1HH1	1804.118	550.350	-1840.704	 H	16	ARG16	0.448	
261	2HH1	1804.978	551.660	-1839.760	 H	16	ARG16	0.448	
262	1HH2	1805.740	553.361	-1842.645	 H	16	ARG16	0.448	
263	2HH2	1805.845	553.276	-1840.831	 H	16	ARG16	0.448	
@<TRIPOS>BOND
1 1 2 1
2 1 10 1
3 2 3 1
4 2 5 1
5 2 11 1
6 3 4 2
7 3 16 1
8 5 6 1
9 6 7 1
10 7 8 2
11 7 9 1
12 5 12 1
13 5 13 1
14 6 14 1
15 6 15 1
16 16 17 1
17 16 24 1
18 17 18 1
19 17 20 1
20 17 25 1
21 18 19 2
22 18 30 1
23 20 21 1
24 21 22 1
25 21 23 2
26 20 26 1
27 20 27 1
28 22 28 1
29 22 29 1
30 30 31 1
31 30 36 1
32 31 32 1
33 31 34 1
34 31 37 1
35 32 33 2
36 32 44 1
37 34 35 1
38 35 36 1
39 34 38 1
40 34 39 1
41 35 40 1
42 35 41 1
43 36 42 1
44 36 43 1
45 44 45 1
46 44 53 1
47 45 46 1
48 45 48 1
49 45 54 1
50 46 47 2
51 46 59 1
52 48 49 1
53 49 50 1
54 50 51 2
55 50 52 1
56 48 55 1
57 48 56 1
58 49 57 1
59 49 58 1
60 59 60 1
61 59 65 1
62 60 61 1
63 60 63 1
64 60 66 1
65 61 62 2
66 61 70 1
67 63 64 1
68 63 67 1
69 63 68 1
70 64 69 1
71 70 71 1
72 70 78 1
73 71 72 1
74 71 74 1
75 71 79 1
76 72 73 2
77 72 89 1
78 74 75 1
79 74 76 1
80 75 77 1
81 74 80 1
82 75 81 1
83 75 82 1
84 76 83 1
85 76 84 1
86 76 85 1
87 77 86 1
88 77 87 1
89 77 88 1
90 89 90 1
91 89 97 1
92 90 91 1
93 90 93 1
94 90 98 1
95 91 92 2
96 91 108 1
97 93 94 1
98 94 95 1
99 94 96 1
100 93 99 1
101 93 100 1
102 94 101 1
103 95 102 1
104 95 103 1
105 95 104 1
106 96 105 1
107 96 106 1
108 96 107 1
109 108 109 1
110 108 116 1
111 109 110 1
112 109 112 1
113 109 117 1
114 110 111 2
115 110 120 1
116 112 113 1
117 113 114 2
118 113 115 1
119 112 118 1
120 112 119 1
121 120 121 1
122 120 129 1
123 121 122 1
124 121 124 1
125 121 130 1
126 122 123 2
127 122 135 1
128 124 125 1
129 125 126 1
130 126 127 2
131 126 128 1
132 124 131 1
133 124 132 1
134 125 133 1
135 125 134 1
136 135 136 1
137 135 145 1
138 136 137 1
139 136 139 1
140 136 146 1
141 137 138 2
142 137 152 1
143 139 140 1
144 140 141 2
145 141 144 1
146 140 142 1
147 142 143 2
148 143 144 1
149 139 147 1
150 139 148 1
151 141 149 1
152 143 150 1
153 144 151 1
154 152 153 1
155 152 159 1
156 153 154 1
157 153 156 1
158 153 160 1
159 154 155 2
160 154 166 1
161 156 157 1
162 156 158 1
163 156 161 1
164 158 162 1
165 157 163 1
166 157 164 1
167 157 165 1
168 166 167 1
169 166 175 1
170 167 168 1
171 167 170 1
172 167 176 1
173 168 169 2
174 168 183 1
175 170 171 1
176 171 172 1
177 172 173 1
178 172 174 2
179 170 177 1
180 170 178 1
181 171 179 1
182 171 180 1
183 173 181 1
184 173 182 1
185 183 184 1
186 183 194 1
187 184 185 1
188 184 187 1
189 184 195 1
190 185 186 2
191 185 207 1
192 187 188 1
193 188 189 1
194 189 190 1
195 190 191 1
196 191 192 2
197 191 193 1
198 187 196 1
199 187 197 1
200 188 198 1
201 188 199 1
202 189 200 1
203 189 201 1
204 190 202 1
205 192 203 1
206 192 204 1
207 193 205 1
208 193 206 1
209 207 208 1
210 207 214 1
211 208 209 1
212 208 211 1
213 208 215 1
214 209 210 2
215 209 223 1
216 211 212 1
217 211 213 1
218 211 216 1
219 212 217 1
220 212 218 1
221 212 219 1
222 213 220 1
223 213 221 1
224 213 222 1
225 223 224 1
226 223 231 1
227 224 225 1
228 224 227 1
229 224 232 1
230 225 226 2
231 225 240 1
232 227 228 1
233 228 229 1
234 229 230 1
235 227 233 1
236 227 234 1
237 228 235 1
238 228 236 1
239 230 237 1
240 230 238 1
241 230 239 1
242 240 241 1
243 240 251 1
244 241 242 1
245 241 244 1
246 241 252 1
247 242 243 2
248 244 245 1
249 245 246 1
250 246 247 1
251 247 248 1
252 248 249 2
253 248 250 1
254 244 253 1
255 244 254 1
256 245 255 1
257 245 256 1
258 246 257 1
259 246 258 1
260 247 259 1
261 249 260 1
262 249 261 1
263 250 262 1
264 250 263 1
@<TRIPOS>SUBSTRUCTURE
1	GLU1	1	RESIDUE	1 ****	GLU
2	ASN2	16	RESIDUE	1 ****	ASN
3	PRO3	30	RESIDUE	1 ****	PRO
4	GLU4	44	RESIDUE	1 ****	GLU
5	SER5	59	RESIDUE	1 ****	SER
6	ILE6	70	RESIDUE	1 ****	ILE
7	LEU7	89	RESIDUE	1 ****	LEU
8	ASP8	108	RESIDUE	1 ****	ASP
9	GLU9	120	RESIDUE	1 ****	GLU
10	HIS10	135	RESIDUE	1 ****	HIS
11	THR11	152	RESIDUE	1 ****	THR
12	GLN12	166	RESIDUE	1 ****	GLN
13	ARG13	183	RESIDUE	1 ****	ARG
14	VAL14	207	RESIDUE	1 ****	VAL
15	MET15	223	RESIDUE	1 ****	MET
16	ARG16	240	RESIDUE	1 ****	ARG
