REMARK WARNING: 32 MAX_TORS EXCEEDED!!!
REMARK  69 active torsions:
REMARK  status: ('A' for Active; 'I' for Inactive)
REMARK    1  A    between atoms: N_1  and  CA_2 
REMARK    2  A    between atoms: CA_2  and  C_3 
REMARK    3  A    between atoms: CA_2  and  CB_5 
REMARK       I    between atoms: C_3  and  N_11 
REMARK    4  A    between atoms: CB_5  and  CG_6 
REMARK    5  A    between atoms: CG_6  and  CD_7 
REMARK    6  A    between atoms: N_11  and  CA_12 
REMARK    7  A    between atoms: CA_12  and  C_13 
REMARK    8  A    between atoms: CA_12  and  CB_15 
REMARK       I    between atoms: C_13  and  N_22 
REMARK    9  A    between atoms: CB_15  and  CG_16 
REMARK       I    between atoms: CG_16  and  ND2_17 
REMARK   10  A    between atoms: CA_23  and  C_24 
REMARK       I    between atoms: C_24  and  N_29 
REMARK   11  A    between atoms: N_29  and  CA_30 
REMARK   12  A    between atoms: CA_30  and  C_31 
REMARK   13  A    between atoms: CA_30  and  CB_33 
REMARK       I    between atoms: C_31  and  N_39 
REMARK   14  A    between atoms: CB_33  and  CG_34 
REMARK   15  A    between atoms: CG_34  and  CD_35 
REMARK   16  A    between atoms: N_39  and  CA_40 
REMARK   17  A    between atoms: CA_40  and  C_41 
REMARK   18  A    between atoms: CA_40  and  CB_43 
REMARK       I    between atoms: C_41  and  N_47 
REMARK   19  A    between atoms: CB_43  and  OG_44 
REMARK   20  A    between atoms: N_47  and  CA_48 
REMARK   21  A    between atoms: CA_48  and  C_49 
REMARK   22  A    between atoms: CA_48  and  CB_51 
REMARK       I    between atoms: C_49  and  N_56 
REMARK   23  A    between atoms: CB_51  and  CG1_52 
REMARK   24  A    between atoms: N_56  and  CA_57 
REMARK   25  A    between atoms: CA_57  and  C_58 
REMARK   26  A    between atoms: CA_57  and  CB_60 
REMARK       I    between atoms: C_58  and  N_65 
REMARK   27  A    between atoms: CB_60  and  CG_61 
REMARK   28  A    between atoms: N_65  and  CA_66 
REMARK   29  A    between atoms: CA_66  and  C_67 
REMARK   30  A    between atoms: CA_66  and  CB_69 
REMARK       I    between atoms: C_67  and  N_74 
REMARK   31  A    between atoms: CB_69  and  CG_70 
REMARK   32  A    between atoms: N_74  and  CA_75 
REMARK   33  A    between atoms: CA_75  and  C_76 
REMARK   34  A    between atoms: CA_75  and  CB_78 
REMARK       I    between atoms: C_76  and  N_84 
REMARK   35  A    between atoms: CB_78  and  CG_79 
REMARK   36  A    between atoms: CG_79  and  CD_80 
REMARK   37  A    between atoms: N_84  and  CA_85 
REMARK   38  A    between atoms: CA_85  and  C_86 
REMARK   39  A    between atoms: CA_85  and  CB_88 
REMARK       I    between atoms: C_86  and  N_96 
REMARK   40  A    between atoms: CB_88  and  CG_89 
REMARK   41  A    between atoms: N_96  and  CA_97 
REMARK   42  A    between atoms: CA_97  and  C_98 
REMARK   43  A    between atoms: CA_97  and  CB_100 
REMARK       I    between atoms: C_98  and  N_108 
REMARK   44  A    between atoms: CB_100  and  CG_101 
REMARK   45  A    between atoms: N_108  and  CA_109 
REMARK   46  A    between atoms: CA_109  and  C_110 
REMARK   47  A    between atoms: CA_109  and  CB_112 
REMARK       I    between atoms: C_110  and  N_120 
REMARK   48  A    between atoms: CB_112  and  CG_113 
REMARK   49  A    between atoms: CG_113  and  CD_114 
REMARK       I    between atoms: CD_114  and  NE2_115 
REMARK   50  A    between atoms: N_120  and  CA_121 
REMARK   51  A    between atoms: CA_121  and  C_122 
REMARK   52  A    between atoms: CA_121  and  CB_124 
REMARK       I    between atoms: C_122  and  N_137 
REMARK   53  A    between atoms: CB_124  and  CG_125 
REMARK   54  A    between atoms: CG_125  and  CD_126 
REMARK   55  A    between atoms: CD_126  and  NE_127 
REMARK       I    between atoms: NE_127  and  CZ_128 
REMARK       I    between atoms: CZ_128  and  NH1_129 
REMARK       I    between atoms: CZ_128  and  NH2_130 
REMARK   56  A    between atoms: N_137  and  CA_138 
REMARK   57  A    between atoms: CA_138  and  C_139 
REMARK   58  A    between atoms: CA_138  and  CB_141 
REMARK       I    between atoms: C_139  and  N_145 
REMARK   59  A    between atoms: N_145  and  CA_146 
REMARK   60  A    between atoms: CA_146  and  C_147 
REMARK   61  A    between atoms: CA_146  and  CB_149 
REMARK       I    between atoms: C_147  and  N_154 
REMARK   62  A    between atoms: CB_149  and  CG_150 
REMARK   63  A    between atoms: CG_150  and  SD_151 
REMARK   64  A    between atoms: N_154  and  CA_155 
REMARK   65  A    between atoms: CA_155  and  C_156 
REMARK   66  A    between atoms: CA_155  and  CB_158 
REMARK   67  A    between atoms: CB_158  and  CG_159 
REMARK   68  A    between atoms: CG_159  and  CD_160 
REMARK   69  A    between atoms: CD_160  and  NE_161 
REMARK       I    between atoms: NE_161  and  CZ_162 
REMARK       I    between atoms: CZ_162  and  NH1_163 
ROOT
ATOM      1  C   GLU d   9    1748.860 526.559-1785.872  0.00  0.00     0.241 C 
ATOM      2  O   GLU d   9    1749.524 527.314-1786.597  0.00  0.00    -0.271 OA
ATOM      3  N   HIS d  10    1748.957 525.284-1786.042  0.00  0.00    -0.346 N 
ATOM      4  H   HIS d  10    1748.426 524.648-1785.463  0.00  0.00     0.163 HD
ENDROOT
BRANCH   3   5
ATOM      5  CA  HIS d  10    1749.845 524.773-1787.082  0.00  0.00     0.182 C 
BRANCH   5   6
ATOM      6  C   HIS d  10    1749.478 525.338-1788.433  0.00  0.00     0.241 C 
ATOM      7  O   HIS d  10    1750.331 525.804-1789.204  0.00  0.00    -0.271 OA
ATOM      8  N   PHE d  11    1748.240 525.337-1788.796  0.00  0.00    -0.346 N 
ATOM      9  H   PHE d  11    1747.528 524.963-1788.186  0.00  0.00     0.163 HD
BRANCH   8  10
ATOM     10  CA  PHE d  11    1747.885 525.883-1790.103  0.00  0.00     0.180 C 
BRANCH  10  11
ATOM     11  C   PHE d  11    1748.349 527.314-1790.235  0.00  0.00     0.241 C 
ATOM     12  O   PHE d  11    1748.962 527.725-1791.260  0.00  0.00    -0.271 OA
ATOM     13  N   GLN d  12    1748.111 528.141-1789.274  0.00  0.00    -0.346 N 
ATOM     14  H   GLN d  12    1747.623 527.835-1788.444  0.00  0.00     0.163 HD
BRANCH  13  15
ATOM     15  CA  GLN d  12    1748.559 529.524-1789.403  0.00  0.00     0.177 C 
BRANCH  15  16
ATOM     16  C   GLN d  12    1750.049 529.591-1789.641  0.00  0.00     0.241 C 
ATOM     17  O   GLN d  12    1750.536 530.299-1790.521  0.00  0.00    -0.271 OA
ATOM     18  N   ARG d  13    1750.834 528.886-1788.900  0.00  0.00    -0.346 N 
ATOM     19  H   ARG d  13    1750.459 528.297-1788.170  0.00  0.00     0.163 HD
BRANCH  18  20
ATOM     20  CA  ARG d  13    1752.275 528.952-1789.131  0.00  0.00     0.176 C 
BRANCH  20  21
ATOM     21  C   ARG d  13    1752.610 528.579-1790.556  0.00  0.00     0.241 C 
ATOM     22  O   ARG d  13    1753.378 529.250-1791.241  0.00  0.00    -0.271 OA
ATOM     23  N   VAL d  14    1752.074 527.524-1791.068  0.00  0.00    -0.346 N 
ATOM     24  H   VAL d  14    1751.440 526.955-1790.526  0.00  0.00     0.163 HD
BRANCH  23  25
ATOM     25  CA  VAL d  14    1752.399 527.163-1792.446  0.00  0.00     0.180 C 
BRANCH  25  26
ATOM     26  C   VAL d  14    1752.068 528.291-1793.393  0.00  0.00     0.241 C 
ATOM     27  O   VAL d  14    1752.861 528.672-1794.263  0.00  0.00    -0.271 OA
ATOM     28  N   MET d  15    1750.923 528.877-1793.292  0.00  0.00    -0.346 N 
ATOM     29  H   MET d  15    1750.258 528.585-1792.589  0.00  0.00     0.163 HD
BRANCH  28  30
ATOM     30  CA  MET d  15    1750.602 529.968-1794.207  0.00  0.00     0.177 C 
BRANCH  30  31
ATOM     31  C   MET d  15    1751.632 531.068-1794.121  0.00  0.00     0.241 C 
ATOM     32  O   MET d  15    1752.135 531.578-1795.134  0.00  0.00    -0.271 OA
ATOM     33  N   ARG d  16    1752.001 531.491-1792.959  0.00  0.00    -0.347 N 
ATOM     34  H   ARG d  16    1751.607 531.092-1792.119  0.00  0.00     0.163 HD
BRANCH  33  35
ATOM     35  CA  ARG d  16    1752.997 532.556-1792.877  0.00  0.00     0.162 C 
BRANCH  35  36
ATOM     36  C   ARG d  16    1754.268 532.162-1793.593  0.00  0.00     0.219 C 
ATOM     37  O   ARG d  16    1754.382 531.085-1794.173  0.00  0.00    -0.287 OA
ENDBRANCH  35  36
BRANCH  35  38
ATOM     38  CB  ARG d  16    1753.266 532.876-1791.379  0.00  0.00     0.035 C 
BRANCH  38  39
ATOM     39  CG  ARG d  16    1754.091 534.166-1791.109  0.00  0.00     0.023 C 
BRANCH  39  40
ATOM     40  CD  ARG d  16    1754.341 534.387-1789.608  0.00  0.00     0.138 C 
BRANCH  40  41
ATOM     41  NE  ARG d  16    1755.117 535.647-1789.409  0.00  0.00    -0.227 N 
ATOM     42  CZ  ARG d  16    1755.508 536.131-1788.234  0.00  0.00     0.665 C 
ATOM     43  NH1 ARG d  16    1755.261 535.548-1787.094  0.00  0.00    -0.235 N 
ATOM     44  NH2 ARG d  16    1756.172 537.244-1788.217  0.00  0.00    -0.235 N 
ATOM     45 11HH ARG d  16    1754.735 534.675-1787.177  0.00  0.00     0.174 HD
ATOM     46 12HH ARG d  16    1755.595 535.985-1786.234  0.00  0.00     0.174 HD
ATOM     47 21HH ARG d  16    1756.357 537.685-1789.120  0.00  0.00     0.174 HD
ATOM     48 22HH ARG d  16    1756.462 537.601-1787.305  0.00  0.00     0.174 HD
ATOM     49  HE  ARG d  16    1755.395 536.227-1790.207  0.00  0.00     0.177 HD
ENDBRANCH  40  41
ENDBRANCH  39  40
ENDBRANCH  38  39
ENDBRANCH  35  38
ENDBRANCH  33  35
ENDBRANCH  30  31
BRANCH  30  50
ATOM     50  CB  MET d  15    1749.181 530.514-1793.898  0.00  0.00     0.045 C 
BRANCH  50  51
ATOM     51  CG  MET d  15    1748.019 529.515-1794.088  0.00  0.00     0.076 C 
BRANCH  51  52
ATOM     52  SD  MET d  15    1746.445 530.381-1793.975  0.00  0.00    -0.173 SA
ATOM     53  CE  MET d  15    1745.364 528.952-1793.836  0.00  0.00     0.089 C 
ENDBRANCH  51  52
ENDBRANCH  50  51
ENDBRANCH  30  50
ENDBRANCH  28  30
ENDBRANCH  25  26
BRANCH  25  54
ATOM     54  CB  VAL d  14    1751.627 525.845-1792.850  0.00  0.00     0.009 C 
ATOM     55  CG1 VAL d  14    1751.716 525.424-1794.343  0.00  0.00     0.012 C 
ATOM     56  CG2 VAL d  14    1752.060 524.594-1792.049  0.00  0.00     0.012 C 
ENDBRANCH  25  54
ENDBRANCH  23  25
ENDBRANCH  20  21
BRANCH  20  57
ATOM     57  CB  ARG d  13    1752.989 528.014-1788.116  0.00  0.00     0.036 C 
BRANCH  57  58
ATOM     58  CG  ARG d  13    1754.534 528.168-1788.036  0.00  0.00     0.023 C 
BRANCH  58  59
ATOM     59  CD  ARG d  13    1755.161 527.182-1787.037  0.00  0.00     0.138 C 
BRANCH  59  60
ATOM     60  NE  ARG d  13    1756.638 527.390-1786.987  0.00  0.00    -0.227 N 
ATOM     61  CZ  ARG d  13    1757.487 526.700-1786.232  0.00  0.00     0.665 C 
ATOM     62  NH1 ARG d  13    1757.123 525.736-1785.433  0.00  0.00    -0.235 N 
ATOM     63  NH2 ARG d  13    1758.746 526.999-1786.289  0.00  0.00    -0.235 N 
ATOM     64 11HH ARG d  13    1756.117 525.549-1785.436  0.00  0.00     0.174 HD
ATOM     65 12HH ARG d  13    1757.836 525.254-1784.884  0.00  0.00     0.174 HD
ATOM     66 21HH ARG d  13    1759.013 527.756-1786.921  0.00  0.00     0.174 HD
ATOM     67 22HH ARG d  13    1759.382 526.459-1785.700  0.00  0.00     0.174 HD
ATOM     68  HE  ARG d  13    1757.089 528.112-1787.559  0.00  0.00     0.177 HD
ENDBRANCH  59  60
ENDBRANCH  58  59
ENDBRANCH  57  58
ENDBRANCH  20  57
ENDBRANCH  18  20
ENDBRANCH  15  16
BRANCH  15  69
ATOM     69  CB  GLN d  12    1748.168 530.292-1788.121  0.00  0.00     0.044 C 
BRANCH  69  70
ATOM     70  CG  GLN d  12    1748.528 531.814-1788.091  0.00  0.00     0.105 C 
BRANCH  70  71
ATOM     71  CD  GLN d  12    1748.226 532.629-1786.827  0.00  0.00     0.215 C 
ATOM     72  NE2 GLN d  12    1747.659 532.054-1785.798  0.00  0.00    -0.370 N 
ATOM     73 21HE GLN d  12    1747.552 532.649-1784.975  0.00  0.00     0.159 HD
ATOM     74 22HE GLN d  12    1747.496 531.050-1785.900  0.00  0.00     0.159 HD
ATOM     75  OE1 GLN d  12    1748.527 533.810-1786.751  0.00  0.00    -0.274 OA
ENDBRANCH  70  71
ENDBRANCH  69  70
ENDBRANCH  15  69
ENDBRANCH  13  15
ENDBRANCH  10  11
BRANCH  10  76
ATOM     76  CB  PHE d  11    1746.340 525.834-1790.301  0.00  0.00     0.073 C 
BRANCH  76  77
ATOM     77  CG  PHE d  11    1745.680 524.450-1790.199  0.00  0.00    -0.056 A 
ATOM     78  CD1 PHE d  11    1745.256 523.976-1788.952  0.00  0.00     0.007 A 
ATOM     79  CE1 PHE d  11    1744.731 522.694-1788.830  0.00  0.00     0.001 A 
ATOM     80  CZ  PHE d  11    1744.610 521.884-1789.956  0.00  0.00     0.000 A 
ATOM     81  CE2 PHE d  11    1745.018 522.353-1791.204  0.00  0.00     0.001 A 
ATOM     82  CD2 PHE d  11    1745.554 523.633-1791.324  0.00  0.00     0.007 A 
ENDBRANCH  76  77
ENDBRANCH  10  76
ENDBRANCH   8  10
ENDBRANCH   5   6
BRANCH   5  83
ATOM     83  CB  HIS d  10    1749.682 523.244-1787.078  0.00  0.00     0.095 C 
BRANCH  83  84
ATOM     84  CG  HIS d  10    1750.968 522.535-1786.770  0.00  0.00     0.053 A 
ATOM     85  CD2 HIS d  10    1751.349 522.199-1785.477  0.00  0.00     0.116 A 
ATOM     86  NE2 HIS d  10    1752.564 521.568-1785.544  0.00  0.00    -0.359 N 
ATOM     87  CE1 HIS d  10    1752.827 521.571-1786.879  0.00  0.00     0.207 A 
ATOM     88  2HE HIS d  10    1753.131 521.191-1784.770  0.00  0.00     0.166 HD
ATOM     89  ND1 HIS d  10    1751.920 522.130-1787.702  0.00  0.00    -0.247 NA
ENDBRANCH  83  84
ENDBRANCH   5  83
ENDBRANCH   3   5
BRANCH   1  90
ATOM     90  CA  GLU d   9    1747.941 527.086-1784.796  0.00  0.00     0.177 C 
BRANCH  90  91
ATOM     91  N   GLU d   9    1746.639 526.428-1784.851  0.00  0.00    -0.346 N 
ATOM     92  C   ASP d   8    1745.959 526.478-1785.947  0.00  0.00     0.241 C 
ATOM     93  O   ASP d   8    1746.432 527.083-1786.921  0.00  0.00    -0.271 OA
ATOM     94  H   GLU d   9    1746.276 525.941-1784.045  0.00  0.00     0.163 HD
BRANCH  92  95
ATOM     95  CA  ASP d   8    1744.613 525.798-1786.004  0.00  0.00     0.186 C 
BRANCH  95  96
ATOM     96  N   ASP d   8    1744.683 524.448-1785.451  0.00  0.00    -0.346 N 
ATOM     97  C   LEU d   7    1745.521 523.608-1785.957  0.00  0.00     0.241 C 
ATOM     98  O   LEU d   7    1746.241 523.971-1786.899  0.00  0.00    -0.271 OA
ATOM     99  H   ASP d   8    1744.085 524.177-1784.683  0.00  0.00     0.163 HD
BRANCH  97 100
ATOM    100  CA  LEU d   7    1745.593 522.213-1785.385  0.00  0.00     0.177 C 
BRANCH 100 101
ATOM    101  N   LEU d   7    1745.648 522.249-1783.926  0.00  0.00    -0.346 N 
ATOM    102  C   ILE d   6    1746.594 522.912-1783.352  0.00  0.00     0.241 C 
ATOM    103  O   ILE d   6    1747.429 523.500-1784.056  0.00  0.00    -0.271 OA
ATOM    104  H   LEU d   7    1744.956 521.762-1783.375  0.00  0.00     0.163 HD
BRANCH 102 105
ATOM    105  CA  ILE d   6    1746.651 522.950-1781.845  0.00  0.00     0.180 C 
BRANCH 105 106
ATOM    106  N   ILE d   6    1745.338 523.245-1781.278  0.00  0.00    -0.346 N 
ATOM    107  C   SER d   5    1744.733 524.328-1781.633  0.00  0.00     0.243 C 
ATOM    108  O   SER d   5    1745.281 525.081-1782.438  0.00  0.00    -0.271 OA
ATOM    109  H   ILE d   6    1744.910 522.610-1780.619  0.00  0.00     0.163 HD
BRANCH 107 110
ATOM    110  CA  SER d   5    1743.374 524.633-1781.047  0.00  0.00     0.200 C 
BRANCH 110 111
ATOM    111  N   SER d   5    1742.505 523.462-1781.105  0.00  0.00    -0.344 N 
ATOM    112  C   GLU d   4    1742.277 522.909-1782.249  0.00  0.00     0.241 C 
ATOM    113  O   GLU d   4    1742.804 523.389-1783.263  0.00  0.00    -0.271 OA
ATOM    114  H   SER d   5    1742.088 523.090-1780.264  0.00  0.00     0.163 HD
BRANCH 112 115
ATOM    115  CA  GLU d   4    1741.379 521.698-1782.310  0.00  0.00     0.177 C 
BRANCH 115 116
ATOM    116  N   GLU d   4    1741.738 520.727-1781.280  0.00  0.00    -0.346 N 
ATOM    117  C   PRO d   3    1742.943 520.267-1781.248  0.00  0.00     0.241 C 
ATOM    118  O   PRO d   3    1743.766 520.650-1782.079  0.00  0.00    -0.271 OA
ATOM    119  H   GLU d   4    1741.054 520.420-1780.604  0.00  0.00     0.163 HD
BRANCH 117 120
ATOM    120  CA  PRO d   3    1743.341 519.244-1780.171  0.00  0.00     0.179 C 
ATOM    121  N   PRO d   3    1742.889 519.653-1778.849  0.00  0.00    -0.337 N 
ATOM    122  C   ASN d   2    1743.411 520.648-1778.215  0.00  0.00     0.243 C 
ATOM    123  CD  PRO d   3    1741.811 518.860-1778.300  0.00  0.00     0.127 C 
ATOM    124  O   ASN d   2    1744.326 521.278-1778.744  0.00  0.00    -0.271 OA
ATOM    125  CG  PRO d   3    1741.354 518.041-1779.510  0.00  0.00     0.022 C 
ATOM    126  CB  PRO d   3    1742.637 517.889-1780.340  0.00  0.00     0.037 C 
BRANCH 122 127
ATOM    127  CA  ASN d   2    1742.880 521.004-1776.847  0.00  0.00     0.185 C 
BRANCH 127 128
ATOM    128  N   ASN d   2    1741.420 521.042-1776.847  0.00  0.00    -0.346 N 
ATOM    129  C   GLU d   1    1740.816 521.828-1777.672  0.00  0.00     0.242 C 
ATOM    130  O   GLU d   1    1741.492 522.527-1778.441  0.00  0.00    -0.271 OA
ATOM    131  H   ASN d   2    1740.892 520.463-1776.210  0.00  0.00     0.163 HD
BRANCH 129 132
ATOM    132  CA  GLU d   1    1739.307 521.868-1777.672  0.00  0.00     0.191 C 
BRANCH 132 133
ATOM    133  N   GLU d   1    1738.748 520.519-1777.672  0.00  0.00    -0.326 NA
ATOM    134  H   GLU d   1    1739.375 519.640-1777.672  0.00  0.00     0.180 HD
ENDBRANCH 132 133
BRANCH 132 135
ATOM    135  CB  GLU d   1    1738.784 522.653-1776.435  0.00  0.00     0.047 C 
BRANCH 135 136
ATOM    136  CG  GLU d   1    1739.259 524.138-1776.324  0.00  0.00     0.116 C 
BRANCH 136 137
ATOM    137  CD  GLU d   1    1738.835 524.942-1775.109  0.00  0.00     0.172 C 
ATOM    138  OE1 GLU d   1    1738.107 524.440-1774.231  0.00  0.00    -0.648 OA
ATOM    139  OE2 GLU d   1    1739.265 526.112-1775.037  0.00  0.00    -0.648 OA
ENDBRANCH 136 137
ENDBRANCH 135 136
ENDBRANCH 132 135
ENDBRANCH 129 132
ENDBRANCH 127 128
BRANCH 127 140
ATOM    140  CB  ASN d   2    1743.372 519.980-1775.782  0.00  0.00     0.137 C 
BRANCH 140 141
ATOM    141  CG  ASN d   2    1742.908 520.204-1774.339  0.00  0.00     0.217 C 
ATOM    142  ND2 ASN d   2    1743.503 521.119-1773.621  0.00  0.00    -0.370 N 
ATOM    143 21HD ASN d   2    1743.022 521.292-1772.734  0.00  0.00     0.159 HD
ATOM    144 22HD ASN d   2    1744.204 521.691-1774.090  0.00  0.00     0.159 HD
ATOM    145  OD1 ASN d   2    1741.988 519.571-1773.845  0.00  0.00    -0.274 OA
ENDBRANCH 140 141
ENDBRANCH 127 140
ENDBRANCH 122 127
ENDBRANCH 117 120
ENDBRANCH 115 116
BRANCH 115 146
ATOM    146  CB  GLU d   4    1739.890 522.117-1782.140  0.00  0.00     0.045 C 
BRANCH 146 147
ATOM    147  CG  GLU d   4    1739.342 523.121-1783.205  0.00  0.00     0.116 C 
BRANCH 147 148
ATOM    148  CD  GLU d   4    1737.916 523.617-1783.062  0.00  0.00     0.172 C 
ATOM    149  OE1 GLU d   4    1737.189 523.219-1782.131  0.00  0.00    -0.648 OA
ATOM    150  OE2 GLU d   4    1737.526 524.447-1783.910  0.00  0.00    -0.648 OA
ENDBRANCH 147 148
ENDBRANCH 146 147
ENDBRANCH 115 146
ENDBRANCH 112 115
ENDBRANCH 110 111
BRANCH 110 151
ATOM    151  CB  SER d   5    1743.486 525.166-1779.597  0.00  0.00     0.199 C 
BRANCH 151 152
ATOM    152  OG  SER d   5    1744.218 524.286-1778.735  0.00  0.00    -0.398 OA
ATOM    153  HG  SER d   5    1743.729 523.461-1778.685  0.00  0.00     0.209 HD
ENDBRANCH 151 152
ENDBRANCH 110 151
ENDBRANCH 107 110
ENDBRANCH 105 106
BRANCH 105 154
ATOM    154  CB  ILE d   6    1747.251 521.614-1781.245  0.00  0.00     0.013 C 
ATOM    155  CG2 ILE d   6    1748.693 521.312-1781.760  0.00  0.00     0.012 C 
BRANCH 154 156
ATOM    156  CG1 ILE d   6    1747.271 521.552-1779.684  0.00  0.00     0.002 C 
ATOM    157  CD1 ILE d   6    1747.541 520.163-1779.069  0.00  0.00     0.005 C 
ENDBRANCH 154 156
ENDBRANCH 105 154
ENDBRANCH 102 105
ENDBRANCH 100 101
BRANCH 100 158
ATOM    158  CB  LEU d   7    1744.390 521.352-1785.865  0.00  0.00     0.038 C 
BRANCH 158 159
ATOM    159  CG  LEU d   7    1744.318 519.873-1785.399  0.00  0.00    -0.020 C 
ATOM    160  CD1 LEU d   7    1743.128 519.167-1786.064  0.00  0.00     0.009 C 
ATOM    161  CD2 LEU d   7    1745.612 519.094-1785.690  0.00  0.00     0.009 C 
ENDBRANCH 158 159
ENDBRANCH 100 158
ENDBRANCH  97 100
ENDBRANCH  95  96
BRANCH  95 162
ATOM    162  CB  ASP d   8    1743.534 526.637-1785.262  0.00  0.00     0.147 C 
BRANCH 162 163
ATOM    163  CG  ASP d   8    1743.315 528.057-1785.802  0.00  0.00     0.175 C 
ATOM    164  OD1 ASP d   8    1743.379 528.257-1787.033  0.00  0.00    -0.648 OA
ATOM    165  OD2 ASP d   8    1743.123 528.983-1784.987  0.00  0.00    -0.648 OA
ENDBRANCH 162 163
ENDBRANCH  95 162
ENDBRANCH  92  95
ENDBRANCH  90  91
BRANCH  90 166
ATOM    166  CB  GLU d   9    1748.575 526.878-1783.390  0.00  0.00     0.045 C 
BRANCH 166 167
ATOM    167  CG  GLU d   9    1749.957 527.571-1783.161  0.00  0.00     0.116 C 
BRANCH 167 168
ATOM    168  CD  GLU d   9    1750.659 527.358-1781.832  0.00  0.00     0.172 C 
ATOM    169  OE1 GLU d   9    1750.137 526.666-1780.936  0.00  0.00    -0.648 OA
ATOM    170  OE2 GLU d   9    1751.778 527.896-1781.700  0.00  0.00    -0.648 OA
ENDBRANCH 167 168
ENDBRANCH 166 167
ENDBRANCH  90 166
ENDBRANCH   1  90
TORSDOF 69
