@<TRIPOS>MOLECULE
7-10
270 273 16              
SMALL
USER_CHARGES
@<TRIPOS>ATOM
1	   N	1099.055	310.120	-1084.782	N.3	1	GLU1	-0.516	
2	  CA	1099.614	311.469	-1084.782	C.3	1	GLU1	0.040	
3	   C	1101.123	311.429	-1084.782	C.2	1	GLU1	0.537	
4	   O	1101.799	312.129	-1085.550	O.2	1	GLU1	-0.582	
5	  CB	1099.091	312.254	-1083.545	C.3	1	GLU1	0.056	
6	  CG	1099.566	313.739	-1083.434	C.3	1	GLU1	0.014	
7	  CD	1099.142	314.543	-1082.219	C.2	1	GLU1	0.805	
8	 OE1	1098.414	314.041	-1081.341	O.co2	1	GLU1	-0.819	
9	 OE2	1099.572	315.713	-1082.147	O.co2	1	GLU1	-0.819	
10	   H	1099.682	309.241	-1084.782	 H	1	GLU1	0.294	
11	  HA	1099.288	311.987	-1085.702	 H	1	GLU1	0.111	
12	 2HB	1099.380	311.723	-1082.615	 H	1	GLU1	-0.017	
13	 3HB	1097.984	312.244	-1083.532	 H	1	GLU1	-0.017	
14	 2HG	1099.256	314.324	-1084.315	 H	1	GLU1	-0.043	
15	 3HG	1100.666	313.806	-1083.405	 H	1	GLU1	-0.043	
16	   N	1101.728	310.644	-1083.957	N.am	2	ASN2	-0.416	
17	  CA	1103.187	310.605	-1083.957	C.3	2	ASN2	0.014	
18	   C	1103.718	310.249	-1085.325	C.2	2	ASN2	0.597	
19	   O	1104.633	310.880	-1085.854	O.2	2	ASN2	-0.568	
20	  CB	1103.679	309.582	-1082.892	C.3	2	ASN2	-0.204	
21	  CG	1103.216	309.806	-1081.449	C.2	2	ASN2	0.713	
22	 ND2	1103.810	310.721	-1080.731	N.pl3	2	ASN2	-0.919	
23	 OD1	1102.295	309.172	-1080.955	O.2	2	ASN2	-0.593	
24	   H	1101.199	310.064	-1083.320	 H	2	ASN2	0.272	
25	  HA	1103.564	311.615	-1083.711	 H	2	ASN2	0.105	
26	 2HB	1104.783	309.523	-1082.896	 H	2	ASN2	0.080	
27	 3HB	1103.350	308.564	-1083.178	 H	2	ASN2	0.080	
28	1HD2	1103.330	310.894	-1079.844	 H	2	ASN2	0.420	
29	2HD2	1104.512	311.292	-1081.200	 H	2	ASN2	0.420	
30	   N	1103.197	309.254	-1085.959	N.am	3	PRO3	-0.255	
31	  CA	1103.648	308.845	-1087.281	C.3	3	PRO3	-0.027	
32	   C	1103.250	309.868	-1088.358	C.2	3	PRO3	0.590	
33	   O	1104.073	310.252	-1089.189	O.2	3	PRO3	-0.575	
34	  CB	1102.944	307.490	-1087.450	C.3	3	PRO3	-0.007	
35	  CG	1101.661	307.643	-1086.620	C.3	3	PRO3	0.019	
36	  CD	1102.119	308.461	-1085.410	C.3	3	PRO3	0.019	
37	  HA	1104.734	308.725	-1087.295	 H	3	PRO3	0.064	
38	 2HB	1103.567	306.709	-1087.010	 H	3	PRO3	0.025	
39	 3HB	1102.746	307.242	-1088.496	 H	3	PRO3	0.025	
40	 2HG	1101.234	306.680	-1086.329	 H	3	PRO3	0.021	
41	 3HG	1100.923	308.213	-1087.187	 H	3	PRO3	0.021	
42	 2HD	1102.508	307.812	-1084.623	 H	3	PRO3	0.039	
43	 3HD	1101.322	309.097	-1085.017	 H	3	PRO3	0.039	
44	   N	1102.045	310.329	-1088.390	N.am	4	GLU4	-0.516	
45	  CA	1101.686	311.300	-1089.420	C.3	4	GLU4	0.040	
46	   C	1102.584	312.511	-1089.359	C.2	4	GLU4	0.537	
47	   O	1103.111	312.990	-1090.373	O.2	4	GLU4	-0.582	
48	  CB	1100.197	311.718	-1089.249	C.3	4	GLU4	0.056	
49	  CG	1099.649	312.722	-1090.315	C.3	4	GLU4	0.014	
50	  CD	1098.222	313.218	-1090.171	C.2	4	GLU4	0.805	
51	 OE1	1097.496	312.820	-1089.240	O.co2	4	GLU4	-0.819	
52	 OE2	1097.832	314.048	-1091.019	O.co2	4	GLU4	-0.819	
53	   H	1101.361	310.022	-1087.713	 H	4	GLU4	0.294	
54	  HA	1101.817	310.829	-1090.411	 H	4	GLU4	0.111	
55	 2HB	1100.045	312.158	-1088.242	 H	4	GLU4	-0.017	
56	 3HB	1099.549	310.820	-1089.255	 H	4	GLU4	-0.017	
57	 2HG	1099.730	312.307	-1091.332	 H	4	GLU4	-0.043	
58	 3HG	1100.237	313.654	-1090.326	 H	4	GLU4	-0.043	
59	   N	1102.812	313.064	-1088.215	N.am	5	SER5	-0.416	
60	  CA	1103.681	314.235	-1088.157	C.3	5	SER5	-0.025	
61	   C	1105.040	313.929	-1088.743	C.2	5	SER5	0.597	
62	   O	1105.587	314.683	-1089.548	O.2	5	SER5	-0.568	
63	  CB	1103.793	314.767	-1086.706	C.3	5	SER5	0.212	
64	  OG	1104.525	313.888	-1085.846	O.3	5	SER5	-0.655	
65	   H	1102.395	312.692	-1087.374	 H	5	SER5	0.272	
66	  HA	1103.232	315.025	-1088.786	 H	5	SER5	0.084	
67	 2HB	1102.793	314.961	-1086.273	 H	5	SER5	0.035	
68	 3HB	1104.298	315.753	-1086.709	 H	5	SER5	0.035	
69	  HG	1104.036	313.063	-1085.795	 H	5	SER5	0.428	
70	   N	1105.645	312.846	-1088.389	N.am	6	ILE6	-0.416	
71	  CA	1106.958	312.552	-1088.955	C.3	6	ILE6	-0.060	
72	   C	1106.901	312.514	-1090.463	C.2	6	ILE6	0.597	
73	   O	1107.735	313.102	-1091.167	O.2	6	ILE6	-0.568	
74	  CB	1107.558	311.216	-1088.355	C.3	6	ILE6	0.130	
75	 CG1	1107.578	311.153	-1086.794	C.3	6	ILE6	-0.043	
76	 CG2	1108.999	310.914	-1088.871	C.3	6	ILE6	-0.320	
77	 CD1	1107.848	309.764	-1086.180	C.3	6	ILE6	-0.066	
78	   H	1105.217	312.212	-1087.730	 H	6	ILE6	0.272	
79	  HA	1107.632	313.386	-1088.687	 H	6	ILE6	0.087	
80	  HB	1106.900	310.390	-1088.700	 H	6	ILE6	0.019	
81	2HG1	1106.595	311.473	-1086.399	 H	6	ILE6	0.024	
82	3HG1	1108.293	311.895	-1086.390	 H	6	ILE6	0.024	
83	1HG2	1109.058	310.821	-1089.969	 H	6	ILE6	0.088	
84	2HG2	1109.721	311.696	-1088.569	 H	6	ILE6	0.088	
85	3HG2	1109.389	309.952	-1088.492	 H	6	ILE6	0.088	
86	1HD1	1107.120	309.010	-1086.534	 H	6	ILE6	0.019	
87	2HD1	1108.858	309.385	-1086.416	 H	6	ILE6	0.019	
88	3HD1	1107.771	309.794	-1085.077	 H	6	ILE6	0.019	
89	   N	1105.955	311.851	-1091.037	N.am	7	TRP7	-0.416	
90	  CA	1105.899	311.815	-1092.495	C.3	7	TRP7	-0.027	
91	   C	1105.826	313.210	-1093.069	C.2	7	TRP7	0.597	
92	   O	1106.541	313.568	-1094.003	O.2	7	TRP7	-0.568	
93	  CB	1104.652	310.999	-1092.936	C.3	7	TRP7	-0.005	
94	  CG	1104.700	309.511	-1092.578	C.2	7	TRP7	-0.141	
95	 CD1	1104.105	308.918	-1091.445	C.2	7	TRP7	-0.164	
96	 CD2	1105.387	308.500	-1093.217	C.2	7	TRP7	0.124	
97	 CE2	1105.200	307.309	-1092.471	C.2	7	TRP7	0.138	
98	 CE3	1106.195	308.502	-1094.383	C.2	7	TRP7	-0.239	
99	 NE1	1104.402	307.544	-1091.362	N.pl3	7	TRP7	-0.342	
100	 CZ2	1105.811	306.108	-1092.893	C.2	7	TRP7	-0.260	
101	 CZ3	1106.783	307.302	-1094.783	C.2	7	TRP7	-0.197	
102	 CH2	1106.593	306.121	-1094.052	C.2	7	TRP7	-0.113	
103	   H	1105.263	311.364	-1090.485	 H	7	TRP7	0.272	
104	  HA	1106.822	311.343	-1092.882	 H	7	TRP7	0.112	
105	 2HB	1104.513	311.074	-1094.031	 H	7	TRP7	0.034	
106	 3HB	1103.733	311.450	-1092.513	 H	7	TRP7	0.034	
107	 1HD	1103.533	309.467	-1090.708	 H	7	TRP7	0.206	
108	 1HE	1104.136	306.880	-1090.626	 H	7	TRP7	0.341	
109	 3HE	1106.354	309.409	-1094.948	 H	7	TRP7	0.170	
110	 2HZ	1105.673	305.199	-1092.328	 H	7	TRP7	0.157	
111	 3HZ	1107.395	307.284	-1095.673	 H	7	TRP7	0.145	
112	 2HH	1107.057	305.207	-1094.389	 H	7	TRP7	0.142	
113	   N	1104.989	314.052	-1092.564	N.am	8	ASP8	-0.516	
114	  CA	1104.919	315.400	-1093.119	C.3	8	ASP8	0.038	
115	   C	1106.266	316.080	-1093.063	C.2	8	ASP8	0.537	
116	   O	1106.739	316.684	-1094.038	O.2	8	ASP8	-0.582	
117	  CB	1103.842	316.240	-1092.378	C.3	8	ASP8	-0.030	
118	  CG	1103.623	317.661	-1092.920	C.2	8	ASP8	0.799	
119	 OD1	1103.687	317.858	-1094.151	O.co2	8	ASP8	-0.801	
120	 OD2	1103.431	318.588	-1092.106	O.co2	8	ASP8	-0.801	
121	   H	1104.392	313.782	-1091.796	 H	8	ASP8	0.294	
122	  HA	1104.636	315.321	-1094.185	 H	8	ASP8	0.088	
123	 2HB	1104.099	316.325	-1091.306	 H	8	ASP8	-0.012	
124	 3HB	1102.862	315.736	-1092.410	 H	8	ASP8	-0.012	
125	   N	1106.946	316.031	-1091.967	N.am	9	GLU9	-0.516	
126	  CA	1108.249	316.688	-1091.913	C.3	9	GLU9	0.040	
127	   C	1109.167	316.159	-1092.988	C.2	9	GLU9	0.537	
128	   O	1109.831	316.912	-1093.715	O.2	9	GLU9	-0.582	
129	  CB	1108.883	316.482	-1090.507	C.3	9	GLU9	0.056	
130	  CG	1110.265	317.174	-1090.279	C.3	9	GLU9	0.014	
131	  CD	1110.967	316.963	-1088.951	C.2	9	GLU9	0.805	
132	 OE1	1110.446	316.273	-1088.053	O.co2	9	GLU9	-0.819	
133	 OE2	1112.087	317.500	-1088.820	O.co2	9	GLU9	-0.819	
134	   H	1106.583	315.546	-1091.160	 H	9	GLU9	0.294	
135	  HA	1108.107	317.770	-1092.090	 H	9	GLU9	0.111	
136	 2HB	1108.995	315.398	-1090.303	 H	9	GLU9	-0.017	
137	 3HB	1108.186	316.837	-1089.724	 H	9	GLU9	-0.017	
138	 2HG	1110.194	318.265	-1090.420	 H	9	GLU9	-0.043	
139	 3HG	1111.012	316.829	-1091.013	 H	9	GLU9	-0.043	
140	   N	1109.263	314.884	-1093.156	N.am	10	HIS10	-0.416	
141	  CA	1110.150	314.371	-1094.196	C.3	10	HIS10	-0.058	
142	   C	1109.783	314.934	-1095.548	C.2	10	HIS10	0.597	
143	   O	1110.636	315.397	-1096.321	O.2	10	HIS10	-0.568	
144	  CB	1109.986	312.842	-1094.189	C.3	10	HIS10	-0.007	
145	  CG	1111.271	312.132	-1093.880	C.2	10	HIS10	0.187	
146	 CD2	1111.652	311.798	-1092.588	C.2	10	HIS10	-0.221	
147	 ND1	1112.223	311.724	-1094.812	N.2	10	HIS10	-0.543	
148	 CE1	1113.130	311.167	-1093.989	C.2	10	HIS10	0.163	
149	 NE2	1112.867	311.166	-1092.653	N.pl3	10	HIS10	-0.280	
150	   H	1108.732	314.249	-1092.577	 H	10	HIS10	0.272	
151	  HA	1111.169	314.728	-1093.972	 H	10	HIS10	0.136	
152	 2HB	1109.620	312.474	-1095.169	 H	10	HIS10	0.037	
153	 3HB	1109.230	312.506	-1093.449	 H	10	HIS10	0.037	
154	 2HD	1111.067	312.014	-1091.698	 H	10	HIS10	0.186	
155	 1HE	1114.020	310.745	-1094.435	 H	10	HIS10	0.144	
156	 2HE	1113.434	310.790	-1091.880	 H	10	HIS10	0.334	
157	   N	1108.546	314.933	-1095.911	N.am	11	VAL11	-0.416	
158	  CA	1108.191	315.477	-1097.219	C.3	11	VAL11	-0.087	
159	   C	1108.656	316.907	-1097.353	C.2	11	VAL11	0.597	
160	   O	1109.257	317.311	-1098.356	O.2	11	VAL11	-0.568	
161	  CB	1106.629	315.371	-1097.438	C.3	11	VAL11	0.299	
162	 CG1	1106.061	316.073	-1098.701	C.3	11	VAL11	-0.319	
163	 CG2	1106.104	313.917	-1097.509	C.3	11	VAL11	-0.319	
164	   H	1107.833	314.561	-1095.300	 H	11	VAL11	0.272	
165	  HA	1108.710	314.894	-1098.000	 H	11	VAL11	0.097	
166	  HB	1106.142	315.852	-1096.563	 H	11	VAL11	-0.030	
167	1HG1	1106.499	315.680	-1099.638	 H	11	VAL11	0.079	
168	2HG1	1104.962	315.966	-1098.783	 H	11	VAL11	0.079	
169	3HG1	1106.239	317.166	-1098.693	 H	11	VAL11	0.079	
170	1HG2	1106.394	313.331	-1096.618	 H	11	VAL11	0.079	
171	2HG2	1104.998	313.880	-1097.551	 H	11	VAL11	0.079	
172	3HG2	1106.486	313.375	-1098.395	 H	11	VAL11	0.079	
173	   N	1108.419	317.734	-1096.391	N.am	12	GLN12	-0.416	
174	  CA	1108.868	319.117	-1096.520	C.3	12	GLN12	-0.003	
175	   C	1110.358	319.184	-1096.758	C.2	12	GLN12	0.597	
176	   O	1110.845	319.891	-1097.638	O.2	12	GLN12	-0.568	
177	  CB	1108.477	319.886	-1095.238	C.3	12	GLN12	-0.004	
178	  CG	1108.838	321.408	-1095.209	C.3	12	GLN12	-0.064	
179	  CD	1108.535	322.223	-1093.945	C.2	12	GLN12	0.695	
180	 NE2	1107.968	321.648	-1092.916	N.pl3	12	GLN12	-0.941	
181	 OE1	1108.838	323.404	-1093.869	O.2	12	GLN12	-0.609	
182	   H	1107.930	317.430	-1095.562	 H	12	GLN12	0.272	
183	  HA	1108.368	319.573	-1097.396	 H	12	GLN12	0.085	
184	 2HB	1108.953	319.387	-1094.369	 H	12	GLN12	0.017	
185	 3HB	1107.387	319.779	-1095.075	 H	12	GLN12	0.017	
186	 2HG	1108.360	321.928	-1096.060	 H	12	GLN12	0.035	
187	 3HG	1109.921	321.550	-1095.375	 H	12	GLN12	0.035	
188	1HE2	1107.861	322.243	-1092.093	 H	12	GLN12	0.425	
189	2HE2	1107.804	320.644	-1093.018	 H	12	GLN12	0.425	
190	   N	1111.142	318.478	-1096.017	N.am	13	ARG13	-0.348	
191	  CA	1112.582	318.543	-1096.247	C.3	13	ARG13	-0.264	
192	   C	1112.918	318.170	-1097.672	C.2	13	ARG13	0.734	
193	   O	1113.687	318.840	-1098.357	O.2	13	ARG13	-0.589	
194	  CB	1113.295	317.605	-1095.232	C.3	13	ARG13	-0.001	
195	  CG	1114.840	317.758	-1095.151	C.3	13	ARG13	0.039	
196	  CD	1115.467	316.771	-1094.153	C.3	13	ARG13	0.049	
197	  NE	1116.944	316.978	-1094.102	N.pl3	13	ARG13	-0.530	
198	  CZ	1117.792	316.287	-1093.346	C.cat	13	ARG13	0.808	
199	 NH1	1117.427	315.324	-1092.548	N.pl3	13	ARG13	-0.863	
200	 NH2	1119.052	316.586	-1093.404	N.pl3	13	ARG13	-0.863	
201	   H	1110.766	317.889	-1095.287	 H	13	ARG13	0.275	
202	  HA	1112.907	319.589	-1096.090	 H	13	ARG13	0.156	
203	 2HB	1113.029	316.554	-1095.470	 H	13	ARG13	0.033	
204	 3HB	1112.870	317.773	-1094.222	 H	13	ARG13	0.033	
205	 2HG	1115.089	318.803	-1094.873	 H	13	ARG13	0.029	
206	 3HG	1115.291	317.600	-1096.153	 H	13	ARG13	0.029	
207	 2HD	1115.223	315.731	-1094.460	 H	13	ARG13	0.069	
208	 3HD	1115.011	316.918	-1093.150	 H	13	ARG13	0.069	
209	  HE	1117.396	317.699	-1094.674	 H	13	ARG13	0.346	
210	1HH1	1116.421	315.138	-1092.551	 H	13	ARG13	0.448	
211	2HH1	1118.140	314.841	-1091.999	 H	13	ARG13	0.448	
212	1HH2	1119.320	317.343	-1094.035	 H	13	ARG13	0.448	
213	2HH2	1119.687	316.045	-1092.814	 H	13	ARG13	0.448	
214	   N	1112.382	317.115	-1098.185	N.am	14	VAL14	-0.416	
215	  CA	1112.707	316.754	-1099.562	C.3	14	VAL14	-0.087	
216	   C	1112.377	317.882	-1100.509	C.2	14	VAL14	0.597	
217	   O	1113.170	318.263	-1101.379	O.2	14	VAL14	-0.568	
218	  CB	1111.934	315.436	-1099.968	C.3	14	VAL14	0.299	
219	 CG1	1112.023	315.016	-1101.461	C.3	14	VAL14	-0.319	
220	 CG2	1112.365	314.185	-1099.166	C.3	14	VAL14	-0.319	
221	   H	1111.747	316.547	-1097.643	 H	14	VAL14	0.272	
222	  HA	1113.795	316.576	-1099.637	 H	14	VAL14	0.097	
223	  HB	1110.858	315.608	-1099.752	 H	14	VAL14	-0.030	
224	1HG1	1113.064	314.838	-1101.789	 H	14	VAL14	0.079	
225	2HG1	1111.450	314.093	-1101.672	 H	14	VAL14	0.079	
226	3HG1	1111.594	315.778	-1102.140	 H	14	VAL14	0.079	
227	1HG2	1112.278	314.345	-1098.075	 H	14	VAL14	0.079	
228	2HG2	1111.729	313.308	-1099.397	 H	14	VAL14	0.079	
229	3HG2	1113.413	313.894	-1099.371	 H	14	VAL14	0.079	
230	   N	1111.232	318.469	-1100.408	N.am	15	MET15	-0.416	
231	  CA	1110.912	319.560	-1101.323	C.3	15	MET15	-0.024	
232	   C	1111.942	320.660	-1101.237	C.2	15	MET15	0.597	
233	   O	1112.445	321.169	-1102.250	O.2	15	MET15	-0.568	
234	  CB	1109.490	320.106	-1101.015	C.3	15	MET15	0.034	
235	  CG	1108.328	319.108	-1101.206	C.3	15	MET15	0.002	
236	  SD	1106.755	319.975	-1101.093	S.3	15	MET15	-0.274	
237	  CE	1105.673	318.545	-1100.954	C.3	15	MET15	-0.054	
238	   H	1110.567	318.177	-1099.706	 H	15	MET15	0.272	
239	  HA	1110.938	319.172	-1102.358	 H	15	MET15	0.088	
240	 2HB	1109.288	320.984	-1101.658	 H	15	MET15	0.024	
241	 3HB	1109.455	320.500	-1099.979	 H	15	MET15	0.024	
242	 2HG	1108.371	318.323	-1100.427	 H	15	MET15	0.044	
243	 3HG	1108.391	318.592	-1102.181	 H	15	MET15	0.044	
244	 1HE	1105.817	317.856	-1101.806	 H	15	MET15	0.068	
245	 2HE	1105.882	317.994	-1100.021	 H	15	MET15	0.068	
246	 3HE	1104.615	318.861	-1100.938	 H	15	MET15	0.068	
247	   N	1112.311	321.082	-1100.075	N.am	16	ARG16	-0.348	
248	  CA	1113.307	322.146	-1099.993	C.3	16	ARG16	-0.264	
249	   C	1114.578	321.752	-1100.708	C.2	16	ARG16	0.734	
250	   O	1114.692	320.675	-1101.288	O.2	16	ARG16	-0.589	
251	  CB	1113.577	322.466	-1098.495	C.3	16	ARG16	-0.001	
252	  CG	1114.402	323.755	-1098.223	C.3	16	ARG16	0.039	
253	  CD	1114.651	323.976	-1096.722	C.3	16	ARG16	0.049	
254	  NE	1115.428	325.235	-1096.523	N.pl3	16	ARG16	-0.530	
255	  CZ	1115.819	325.719	-1095.348	C.cat	16	ARG16	0.808	
256	 NH1	1115.571	325.136	-1094.209	N.pl3	16	ARG16	-0.863	
257	 NH2	1116.483	326.832	-1095.331	N.pl3	16	ARG16	-0.863	
258	   H	1111.916	320.683	-1099.235	 H	16	ARG16	0.275	
259	  HA	1112.899	323.038	-1100.503	 H	16	ARG16	0.156	
260	 2HB	1114.073	321.590	-1098.027	 H	16	ARG16	0.033	
261	 3HB	1112.608	322.548	-1097.961	 H	16	ARG16	0.033	
262	 2HG	1113.872	324.625	-1098.662	 H	16	ARG16	0.029	
263	 3HG	1115.375	323.701	-1098.752	 H	16	ARG16	0.029	
264	 2HD	1115.200	323.102	-1096.308	 H	16	ARG16	0.069	
265	 3HD	1113.679	324.020	-1096.187	 H	16	ARG16	0.069	
266	  HE	1115.707	325.815	-1097.321	 H	16	ARG16	0.346	
267	1HH1	1115.046	324.263	-1094.292	 H	16	ARG16	0.448	
268	2HH1	1115.906	325.573	-1093.348	 H	16	ARG16	0.448	
269	1HH2	1116.669	327.273	-1096.233	 H	16	ARG16	0.448	
270	2HH2	1116.774	327.188	-1094.418	 H	16	ARG16	0.448	
@<TRIPOS>BOND
1 1 2 1
2 1 10 1
3 2 3 1
4 2 5 1
5 2 11 1
6 3 4 2
7 3 16 1
8 5 6 1
9 6 7 1
10 7 8 2
11 7 9 1
12 5 12 1
13 5 13 1
14 6 14 1
15 6 15 1
16 16 17 1
17 16 24 1
18 17 18 1
19 17 20 1
20 17 25 1
21 18 19 2
22 18 30 1
23 20 21 1
24 21 22 1
25 21 23 2
26 20 26 1
27 20 27 1
28 22 28 1
29 22 29 1
30 30 31 1
31 30 36 1
32 31 32 1
33 31 34 1
34 31 37 1
35 32 33 2
36 32 44 1
37 34 35 1
38 35 36 1
39 34 38 1
40 34 39 1
41 35 40 1
42 35 41 1
43 36 42 1
44 36 43 1
45 44 45 1
46 44 53 1
47 45 46 1
48 45 48 1
49 45 54 1
50 46 47 2
51 46 59 1
52 48 49 1
53 49 50 1
54 50 51 2
55 50 52 1
56 48 55 1
57 48 56 1
58 49 57 1
59 49 58 1
60 59 60 1
61 59 65 1
62 60 61 1
63 60 63 1
64 60 66 1
65 61 62 2
66 61 70 1
67 63 64 1
68 63 67 1
69 63 68 1
70 64 69 1
71 70 71 1
72 70 78 1
73 71 72 1
74 71 74 1
75 71 79 1
76 72 73 2
77 72 89 1
78 74 75 1
79 74 76 1
80 75 77 1
81 74 80 1
82 75 81 1
83 75 82 1
84 76 83 1
85 76 84 1
86 76 85 1
87 77 86 1
88 77 87 1
89 77 88 1
90 89 90 1
91 89 103 1
92 90 91 1
93 90 93 1
94 90 104 1
95 91 92 2
96 91 113 1
97 93 94 1
98 94 96 1
99 94 95 2
100 96 98 1
101 96 97 2
102 97 99 1
103 98 101 2
104 95 99 1
105 97 100 1
106 101 102 1
107 100 102 2
108 93 105 1
109 93 106 1
110 95 107 1
111 99 108 1
112 98 109 1
113 100 110 1
114 101 111 1
115 102 112 1
116 113 114 1
117 113 121 1
118 114 115 1
119 114 117 1
120 114 122 1
121 115 116 2
122 115 125 1
123 117 118 1
124 118 119 2
125 118 120 1
126 117 123 1
127 117 124 1
128 125 126 1
129 125 134 1
130 126 127 1
131 126 129 1
132 126 135 1
133 127 128 2
134 127 140 1
135 129 130 1
136 130 131 1
137 131 132 2
138 131 133 1
139 129 136 1
140 129 137 1
141 130 138 1
142 130 139 1
143 140 141 1
144 140 150 1
145 141 142 1
146 141 144 1
147 141 151 1
148 142 143 2
149 142 157 1
150 144 145 1
151 145 146 2
152 146 149 1
153 145 147 1
154 147 148 2
155 148 149 1
156 144 152 1
157 144 153 1
158 146 154 1
159 148 155 1
160 149 156 1
161 157 158 1
162 157 164 1
163 158 159 1
164 158 161 1
165 158 165 1
166 159 160 2
167 159 173 1
168 161 162 1
169 161 163 1
170 161 166 1
171 162 167 1
172 162 168 1
173 162 169 1
174 163 170 1
175 163 171 1
176 163 172 1
177 173 174 1
178 173 182 1
179 174 175 1
180 174 177 1
181 174 183 1
182 175 176 2
183 175 190 1
184 177 178 1
185 178 179 1
186 179 180 1
187 179 181 2
188 177 184 1
189 177 185 1
190 178 186 1
191 178 187 1
192 180 188 1
193 180 189 1
194 190 191 1
195 190 201 1
196 191 192 1
197 191 194 1
198 191 202 1
199 192 193 2
200 192 214 1
201 194 195 1
202 195 196 1
203 196 197 1
204 197 198 1
205 198 199 2
206 198 200 1
207 194 203 1
208 194 204 1
209 195 205 1
210 195 206 1
211 196 207 1
212 196 208 1
213 197 209 1
214 199 210 1
215 199 211 1
216 200 212 1
217 200 213 1
218 214 215 1
219 214 221 1
220 215 216 1
221 215 218 1
222 215 222 1
223 216 217 2
224 216 230 1
225 218 219 1
226 218 220 1
227 218 223 1
228 219 224 1
229 219 225 1
230 219 226 1
231 220 227 1
232 220 228 1
233 220 229 1
234 230 231 1
235 230 238 1
236 231 232 1
237 231 234 1
238 231 239 1
239 232 233 2
240 232 247 1
241 234 235 1
242 235 236 1
243 236 237 1
244 234 240 1
245 234 241 1
246 235 242 1
247 235 243 1
248 237 244 1
249 237 245 1
250 237 246 1
251 247 248 1
252 247 258 1
253 248 249 1
254 248 251 1
255 248 259 1
256 249 250 2
257 251 252 1
258 252 253 1
259 253 254 1
260 254 255 1
261 255 256 2
262 255 257 1
263 251 260 1
264 251 261 1
265 252 262 1
266 252 263 1
267 253 264 1
268 253 265 1
269 254 266 1
270 256 267 1
271 256 268 1
272 257 269 1
273 257 270 1
@<TRIPOS>SUBSTRUCTURE
1	GLU1	1	RESIDUE	1 ****	GLU
2	ASN2	16	RESIDUE	1 ****	ASN
3	PRO3	30	RESIDUE	1 ****	PRO
4	GLU4	44	RESIDUE	1 ****	GLU
5	SER5	59	RESIDUE	1 ****	SER
6	ILE6	70	RESIDUE	1 ****	ILE
7	TRP7	89	RESIDUE	1 ****	TRP
8	ASP8	113	RESIDUE	1 ****	ASP
9	GLU9	125	RESIDUE	1 ****	GLU
10	HIS10	140	RESIDUE	1 ****	HIS
11	VAL11	157	RESIDUE	1 ****	VAL
12	GLN12	173	RESIDUE	1 ****	GLN
13	ARG13	190	RESIDUE	1 ****	ARG
14	VAL14	214	RESIDUE	1 ****	VAL
15	MET15	230	RESIDUE	1 ****	MET
16	ARG16	247	RESIDUE	1 ****	ARG
