@<TRIPOS>MOLECULE
13-2
255 257 16              
SMALL
USER_CHARGES
@<TRIPOS>ATOM
1	   N	2017.620	610.510	-2080.530	N.3	1	GLU1	-0.516	
2	  CA	2018.179	611.859	-2080.530	C.3	1	GLU1	0.040	
3	   C	2019.688	611.819	-2080.530	C.2	1	GLU1	0.537	
4	   O	2020.364	612.518	-2081.298	O.2	1	GLU1	-0.582	
5	  CB	2017.656	612.644	-2079.293	C.3	1	GLU1	0.056	
6	  CG	2018.131	614.129	-2079.182	C.3	1	GLU1	0.014	
7	  CD	2017.707	614.933	-2077.967	C.2	1	GLU1	0.805	
8	 OE1	2016.979	614.431	-2077.089	O.co2	1	GLU1	-0.819	
9	 OE2	2018.137	616.103	-2077.895	O.co2	1	GLU1	-0.819	
10	   H	2018.247	609.631	-2080.530	 H	1	GLU1	0.294	
11	  HA	2017.853	612.377	-2081.450	 H	1	GLU1	0.111	
12	 2HB	2017.945	612.113	-2078.363	 H	1	GLU1	-0.017	
13	 3HB	2016.549	612.634	-2079.280	 H	1	GLU1	-0.017	
14	 2HG	2017.821	614.714	-2080.062	 H	1	GLU1	-0.043	
15	 3HG	2019.231	614.196	-2079.153	 H	1	GLU1	-0.043	
16	   N	2020.292	611.033	-2079.704	N.am	2	ASN2	-0.416	
17	  CA	2021.752	610.994	-2079.704	C.3	2	ASN2	0.014	
18	   C	2022.283	610.639	-2081.073	C.2	2	ASN2	0.597	
19	   O	2023.198	611.269	-2081.602	O.2	2	ASN2	-0.568	
20	  CB	2022.244	609.971	-2078.640	C.3	2	ASN2	-0.204	
21	  CG	2021.781	610.195	-2077.197	C.2	2	ASN2	0.713	
22	 ND2	2022.375	611.110	-2076.479	N.pl3	2	ASN2	-0.919	
23	 OD1	2020.860	609.561	-2076.703	O.2	2	ASN2	-0.593	
24	   H	2019.764	610.453	-2079.068	 H	2	ASN2	0.272	
25	  HA	2022.129	612.004	-2079.459	 H	2	ASN2	0.105	
26	 2HB	2023.348	609.912	-2078.644	 H	2	ASN2	0.080	
27	 3HB	2021.915	608.953	-2078.926	 H	2	ASN2	0.080	
28	1HD2	2021.894	611.283	-2075.592	 H	2	ASN2	0.420	
29	2HD2	2023.077	611.681	-2076.948	 H	2	ASN2	0.420	
30	   N	2021.761	609.643	-2081.707	N.am	3	PRO3	-0.255	
31	  CA	2022.213	609.234	-2083.028	C.3	3	PRO3	-0.027	
32	   C	2021.815	610.258	-2084.105	C.2	3	PRO3	0.590	
33	   O	2022.639	610.641	-2084.937	O.2	3	PRO3	-0.575	
34	  CB	2021.509	607.880	-2083.198	C.3	3	PRO3	-0.007	
35	  CG	2020.226	608.032	-2082.368	C.3	3	PRO3	0.019	
36	  CD	2020.683	608.851	-2081.158	C.3	3	PRO3	0.019	
37	  HA	2023.299	609.114	-2083.042	 H	3	PRO3	0.064	
38	 2HB	2022.132	607.098	-2082.757	 H	3	PRO3	0.025	
39	 3HB	2021.311	607.631	-2084.243	 H	3	PRO3	0.025	
40	 2HG	2019.798	607.070	-2082.076	 H	3	PRO3	0.021	
41	 3HG	2019.488	608.603	-2082.935	 H	3	PRO3	0.021	
42	 2HD	2021.073	608.201	-2080.370	 H	3	PRO3	0.039	
43	 3HD	2019.887	609.487	-2080.765	 H	3	PRO3	0.039	
44	   N	2020.610	610.718	-2084.138	N.am	4	GLU4	-0.516	
45	  CA	2020.251	611.689	-2085.168	C.3	4	GLU4	0.040	
46	   C	2021.150	612.899	-2085.107	C.2	4	GLU4	0.537	
47	   O	2021.676	613.379	-2086.121	O.2	4	GLU4	-0.582	
48	  CB	2018.762	612.107	-2084.998	C.3	4	GLU4	0.056	
49	  CG	2018.214	613.110	-2086.064	C.3	4	GLU4	0.014	
50	  CD	2016.787	613.607	-2085.920	C.2	4	GLU4	0.805	
51	 OE1	2016.061	613.209	-2084.990	O.co2	4	GLU4	-0.819	
52	 OE2	2016.398	614.436	-2086.769	O.co2	4	GLU4	-0.819	
53	   H	2019.926	610.411	-2083.461	 H	4	GLU4	0.294	
54	  HA	2020.382	611.218	-2086.159	 H	4	GLU4	0.111	
55	 2HB	2018.609	612.547	-2083.991	 H	4	GLU4	-0.017	
56	 3HB	2018.114	611.209	-2085.004	 H	4	GLU4	-0.017	
57	 2HG	2018.296	612.695	-2087.082	 H	4	GLU4	-0.043	
58	 3HG	2018.802	614.043	-2086.075	 H	4	GLU4	-0.043	
59	   N	2021.377	613.452	-2083.964	N.am	5	SER5	-0.416	
60	  CA	2022.247	614.623	-2083.905	C.3	5	SER5	-0.025	
61	   C	2023.605	614.317	-2084.491	C.2	5	SER5	0.597	
62	   O	2024.153	615.071	-2085.296	O.2	5	SER5	-0.568	
63	  CB	2022.358	615.155	-2082.455	C.3	5	SER5	0.212	
64	  OG	2023.090	614.276	-2081.594	O.3	5	SER5	-0.655	
65	   H	2020.960	613.081	-2083.122	 H	5	SER5	0.272	
66	  HA	2021.798	615.413	-2084.535	 H	5	SER5	0.084	
67	 2HB	2021.359	615.349	-2082.021	 H	5	SER5	0.035	
68	 3HB	2022.864	616.141	-2082.457	 H	5	SER5	0.035	
69	  HG	2022.601	613.451	-2081.543	 H	5	SER5	0.428	
70	   N	2024.210	613.234	-2084.137	N.am	6	ILE6	-0.416	
71	  CA	2025.523	612.939	-2084.703	C.3	6	ILE6	-0.060	
72	   C	2025.466	612.902	-2086.211	C.2	6	ILE6	0.597	
73	   O	2026.301	613.489	-2086.914	O.2	6	ILE6	-0.568	
74	  CB	2026.122	611.602	-2084.103	C.3	6	ILE6	0.130	
75	 CG1	2026.141	611.540	-2082.542	C.3	6	ILE6	-0.043	
76	 CG2	2027.563	611.300	-2084.618	C.3	6	ILE6	-0.320	
77	 CD1	2026.411	610.151	-2081.927	C.3	6	ILE6	-0.066	
78	   H	2023.781	612.600	-2083.478	 H	6	ILE6	0.272	
79	  HA	2026.197	613.773	-2084.435	 H	6	ILE6	0.087	
80	  HB	2025.464	610.777	-2084.448	 H	6	ILE6	0.019	
81	2HG1	2025.159	611.860	-2082.146	 H	6	ILE6	0.024	
82	3HG1	2026.857	612.281	-2082.137	 H	6	ILE6	0.024	
83	1HG2	2027.622	611.207	-2085.717	 H	6	ILE6	0.088	
84	2HG2	2028.286	612.082	-2084.316	 H	6	ILE6	0.088	
85	3HG2	2027.953	610.338	-2084.240	 H	6	ILE6	0.088	
86	1HD1	2025.682	609.397	-2082.282	 H	6	ILE6	0.019	
87	2HD1	2027.421	609.771	-2082.163	 H	6	ILE6	0.019	
88	3HD1	2026.334	610.180	-2080.825	 H	6	ILE6	0.019	
89	   N	2024.520	612.239	-2086.785	N.am	7	LEU7	-0.416	
90	  CA	2024.466	612.203	-2088.244	C.3	7	LEU7	-0.052	
91	   C	2024.394	613.599	-2088.816	C.2	7	LEU7	0.597	
92	   O	2025.115	613.962	-2089.757	O.2	7	LEU7	-0.568	
93	  CB	2023.262	611.344	-2088.725	C.3	7	LEU7	-0.110	
94	  CG	2023.189	609.864	-2088.259	C.3	7	LEU7	0.353	
95	 CD1	2021.999	609.159	-2088.925	C.3	7	LEU7	-0.412	
96	 CD2	2024.482	609.085	-2088.550	C.3	7	LEU7	-0.412	
97	   H	2023.828	611.752	-2086.234	 H	7	LEU7	0.272	
98	  HA	2025.407	611.763	-2088.618	 H	7	LEU7	0.092	
99	 2HB	2023.239	611.360	-2089.832	 H	7	LEU7	0.046	
100	 3HB	2022.323	611.846	-2088.421	 H	7	LEU7	0.046	
101	  HG	2023.019	609.856	-2087.162	 H	7	LEU7	-0.036	
102	1HD1	2021.042	609.668	-2088.702	 H	7	LEU7	0.100	
103	2HD1	2022.098	609.119	-2090.026	 H	7	LEU7	0.100	
104	3HD1	2021.891	608.118	-2088.569	 H	7	LEU7	0.100	
105	1HD2	2024.758	609.115	-2089.620	 H	7	LEU7	0.100	
106	2HD2	2025.335	609.495	-2087.979	 H	7	LEU7	0.100	
107	3HD2	2024.400	608.022	-2088.254	 H	7	LEU7	0.100	
108	   N	2023.557	614.439	-2088.309	N.am	8	ASP8	-0.516	
109	  CA	2023.487	615.789	-2088.862	C.3	8	ASP8	0.038	
110	   C	2024.834	616.469	-2088.804	C.2	8	ASP8	0.537	
111	   O	2025.307	617.074	-2089.778	O.2	8	ASP8	-0.582	
112	  CB	2022.409	616.628	-2088.120	C.3	8	ASP8	-0.030	
113	  CG	2022.190	618.049	-2088.660	C.2	8	ASP8	0.799	
114	 OD1	2022.255	618.249	-2089.890	O.co2	8	ASP8	-0.801	
115	 OD2	2021.998	618.975	-2087.844	O.co2	8	ASP8	-0.801	
116	   H	2022.958	614.168	-2087.542	 H	8	ASP8	0.294	
117	  HA	2023.204	615.712	-2089.929	 H	8	ASP8	0.088	
118	 2HB	2022.666	616.711	-2087.048	 H	8	ASP8	-0.012	
119	 3HB	2021.429	616.123	-2088.154	 H	8	ASP8	-0.012	
120	   N	2025.513	616.418	-2087.708	N.am	9	GLU9	-0.516	
121	  CA	2026.816	617.075	-2087.652	C.3	9	GLU9	0.040	
122	   C	2027.734	616.548	-2088.728	C.2	9	GLU9	0.537	
123	   O	2028.398	617.302	-2089.452	O.2	9	GLU9	-0.582	
124	  CB	2027.449	616.866	-2086.246	C.3	9	GLU9	0.056	
125	  CG	2028.831	617.558	-2086.016	C.3	9	GLU9	0.014	
126	  CD	2029.533	617.343	-2084.688	C.2	9	GLU9	0.805	
127	 OE1	2029.010	616.652	-2083.792	O.co2	9	GLU9	-0.819	
128	 OE2	2030.652	617.881	-2084.555	O.co2	9	GLU9	-0.819	
129	   H	2025.149	615.931	-2086.902	 H	9	GLU9	0.294	
130	  HA	2026.674	618.157	-2087.826	 H	9	GLU9	0.111	
131	 2HB	2027.561	615.781	-2086.044	 H	9	GLU9	-0.017	
132	 3HB	2026.751	617.219	-2085.462	 H	9	GLU9	-0.017	
133	 2HG	2028.760	618.649	-2086.155	 H	9	GLU9	-0.043	
134	 3HG	2029.578	617.213	-2086.750	 H	9	GLU9	-0.043	
135	   N	2027.830	615.273	-2088.898	N.am	10	HIS10	-0.416	
136	  CA	2028.719	614.762	-2089.939	C.3	10	HIS10	-0.058	
137	   C	2028.352	615.328	-2091.290	C.2	10	HIS10	0.597	
138	   O	2029.205	615.793	-2092.061	O.2	10	HIS10	-0.568	
139	  CB	2028.554	613.233	-2089.935	C.3	10	HIS10	-0.007	
140	  CG	2029.840	612.522	-2089.627	C.2	10	HIS10	0.187	
141	 CD2	2030.220	612.186	-2088.334	C.2	10	HIS10	-0.221	
142	 ND1	2030.792	612.117	-2090.559	N.2	10	HIS10	-0.543	
143	 CE1	2031.698	611.558	-2089.736	C.2	10	HIS10	0.163	
144	 NE2	2031.435	611.555	-2088.401	N.pl3	10	HIS10	-0.280	
145	   H	2027.299	614.637	-2088.320	 H	10	HIS10	0.272	
146	  HA	2029.738	615.119	-2089.713	 H	10	HIS10	0.136	
147	 2HB	2028.189	612.867	-2090.915	 H	10	HIS10	0.037	
148	 3HB	2027.798	612.896	-2089.195	 H	10	HIS10	0.037	
149	 2HD	2029.634	612.401	-2087.445	 H	10	HIS10	0.186	
150	 1HE	2032.589	611.137	-2090.183	 H	10	HIS10	0.144	
151	 2HE	2032.001	611.176	-2087.627	 H	10	HIS10	0.334	
152	   N	2027.115	615.327	-2091.653	N.am	11	VAL11	-0.416	
153	  CA	2026.760	615.874	-2092.959	C.3	11	VAL11	-0.087	
154	   C	2027.225	617.305	-2093.091	C.2	11	VAL11	0.597	
155	   O	2027.826	617.711	-2094.093	O.2	11	VAL11	-0.568	
156	  CB	2025.199	615.768	-2093.179	C.3	11	VAL11	0.299	
157	 CG1	2024.630	616.473	-2094.442	C.3	11	VAL11	-0.319	
158	 CG2	2024.674	614.314	-2093.254	C.3	11	VAL11	-0.319	
159	   H	2026.401	614.954	-2091.043	 H	11	VAL11	0.272	
160	  HA	2027.279	615.293	-2093.742	 H	11	VAL11	0.097	
161	  HB	2024.711	616.248	-2092.304	 H	11	VAL11	-0.030	
162	1HG1	2025.069	616.082	-2095.379	 H	11	VAL11	0.079	
163	2HG1	2023.531	616.366	-2094.524	 H	11	VAL11	0.079	
164	3HG1	2024.809	617.565	-2094.431	 H	11	VAL11	0.079	
165	1HG2	2024.963	613.726	-2092.364	 H	11	VAL11	0.079	
166	2HG2	2023.568	614.277	-2093.297	 H	11	VAL11	0.079	
167	3HG2	2025.056	613.774	-2094.141	 H	11	VAL11	0.079	
168	   N	2026.987	618.130	-2092.127	N.am	12	GLN12	-0.416	
169	  CA	2027.436	619.513	-2092.253	C.3	12	GLN12	-0.003	
170	   C	2028.926	619.580	-2092.491	C.2	12	GLN12	0.597	
171	   O	2029.414	620.289	-2093.368	O.2	12	GLN12	-0.568	
172	  CB	2027.045	620.279	-2090.970	C.3	12	GLN12	-0.004	
173	  CG	2027.406	621.801	-2090.938	C.3	12	GLN12	-0.064	
174	  CD	2027.103	622.613	-2089.672	C.2	12	GLN12	0.695	
175	 NE2	2026.535	622.036	-2088.644	N.pl3	12	GLN12	-0.941	
176	 OE1	2027.405	623.794	-2089.594	O.2	12	GLN12	-0.609	
177	   H	2026.498	617.823	-2091.299	 H	12	GLN12	0.272	
178	  HA	2026.937	619.970	-2093.128	 H	12	GLN12	0.085	
179	 2HB	2027.521	619.778	-2090.101	 H	12	GLN12	0.017	
180	 3HB	2025.955	620.172	-2090.807	 H	12	GLN12	0.017	
181	 2HG	2026.928	622.322	-2091.788	 H	12	GLN12	0.035	
182	 3HG	2028.489	621.943	-2091.103	 H	12	GLN12	0.035	
183	1HE2	2026.428	622.630	-2087.820	 H	12	GLN12	0.425	
184	2HE2	2026.371	621.033	-2088.748	 H	12	GLN12	0.425	
185	   N	2029.710	618.872	-2091.750	N.am	13	PRO13	-0.255	
186	  CA	2031.156	618.879	-2091.912	C.3	13	PRO13	-0.027	
187	   C	2031.584	618.174	-2093.211	C.2	13	PRO13	0.590	
188	   O	2032.406	618.698	-2093.964	O.2	13	PRO13	-0.575	
189	  CB	2031.620	618.140	-2090.647	C.3	13	PRO13	-0.007	
190	  CG	2030.456	617.187	-2090.338	C.3	13	PRO13	0.019	
191	  CD	2029.218	618.013	-2090.696	C.3	13	PRO13	0.019	
192	  HA	2031.536	619.903	-2091.927	 H	13	PRO13	0.064	
193	 2HB	2031.721	618.861	-2089.833	 H	13	PRO13	0.025	
194	 3HB	2032.571	617.619	-2090.783	 H	13	PRO13	0.025	
195	 2HG	2030.448	616.861	-2089.295	 H	13	PRO13	0.021	
196	 3HG	2030.513	616.315	-2090.993	 H	13	PRO13	0.021	
197	 2HD	2028.896	618.622	-2089.848	 H	13	PRO13	0.039	
198	 3HD	2028.394	617.389	-2091.048	 H	13	PRO13	0.039	
199	   N	2031.078	617.027	-2093.513	N.am	14	VAL14	-0.416	
200	  CA	2031.496	616.373	-2094.750	C.3	14	VAL14	-0.087	
201	   C	2031.240	617.260	-2095.944	C.2	14	VAL14	0.597	
202	   O	2032.095	617.446	-2096.820	O.2	14	VAL14	-0.568	
203	  CB	2030.746	614.991	-2094.906	C.3	14	VAL14	0.299	
204	 CG1	2030.936	614.251	-2096.258	C.3	14	VAL14	-0.319	
205	 CG2	2031.113	613.953	-2093.818	C.3	14	VAL14	-0.319	
206	   H	2030.404	616.587	-2092.904	 H	14	VAL14	0.272	
207	  HA	2032.586	616.194	-2094.708	 H	14	VAL14	0.097	
208	  HB	2029.658	615.196	-2094.809	 H	14	VAL14	-0.030	
209	1HG1	2031.997	614.015	-2096.466	 H	14	VAL14	0.079	
210	2HG1	2030.374	613.298	-2096.299	 H	14	VAL14	0.079	
211	3HG1	2030.560	614.839	-2097.117	 H	14	VAL14	0.079	
212	1HG2	2030.951	614.349	-2092.799	 H	14	VAL14	0.079	
213	2HG2	2030.489	613.041	-2093.893	 H	14	VAL14	0.079	
214	3HG2	2032.170	613.634	-2093.881	 H	14	VAL14	0.079	
215	   N	2030.095	617.844	-2096.056	N.am	15	MET15	-0.416	
216	  CA	2029.846	618.702	-2097.210	C.3	15	MET15	-0.024	
217	   C	2030.875	619.803	-2097.299	C.2	15	MET15	0.597	
218	   O	2031.451	620.081	-2098.362	O.2	15	MET15	-0.568	
219	  CB	2028.411	619.289	-2097.130	C.3	15	MET15	0.034	
220	  CG	2027.258	618.263	-2097.175	C.3	15	MET15	0.002	
221	  SD	2025.686	619.118	-2097.367	S.3	15	MET15	-0.274	
222	  CE	2024.589	617.745	-2096.990	C.3	15	MET15	-0.054	
223	   H	2029.381	617.708	-2095.355	 H	15	MET15	0.272	
224	  HA	2029.942	618.094	-2098.129	 H	15	MET15	0.088	
225	 2HB	2028.259	620.001	-2097.965	 H	15	MET15	0.024	
226	 3HB	2028.305	619.903	-2096.213	 H	15	MET15	0.024	
227	 2HG	2027.242	617.671	-2096.241	 H	15	MET15	0.044	
228	 3HG	2027.386	617.544	-2098.005	 H	15	MET15	0.044	
229	 1HE	2024.787	616.885	-2097.656	 H	15	MET15	0.068	
230	 2HE	2024.729	617.416	-2095.946	 H	15	MET15	0.068	
231	 3HE	2023.534	618.046	-2097.118	 H	15	MET15	0.068	
232	   N	2031.164	620.476	-2096.237	N.am	16	ARG16	-0.348	
233	  CA	2032.159	621.541	-2096.323	C.3	16	ARG16	-0.264	
234	   C	2033.474	621.011	-2096.843	C.2	16	ARG16	0.734	
235	   O	2033.622	619.833	-2097.161	O.2	16	ARG16	-0.589	
236	  CB	2032.324	622.187	-2094.918	C.3	16	ARG16	-0.001	
237	  CG	2033.137	623.512	-2094.882	C.3	16	ARG16	0.039	
238	  CD	2033.282	624.063	-2093.454	C.3	16	ARG16	0.049	
239	  NE	2034.050	625.342	-2093.484	N.pl3	16	ARG16	-0.530	
240	  CZ	2034.361	626.078	-2092.421	C.cat	16	ARG16	0.808	
241	 NH1	2034.031	625.759	-2091.202	N.pl3	16	ARG16	-0.863	
242	 NH2	2035.029	627.173	-2092.605	N.pl3	16	ARG16	-0.863	
243	   H	2030.709	620.269	-2095.359	 H	16	ARG16	0.275	
244	  HA	2031.793	622.294	-2097.046	 H	16	ARG16	0.156	
245	 2HB	2032.782	621.442	-2094.235	 H	16	ARG16	0.033	
246	 3HB	2031.321	622.376	-2094.484	 H	16	ARG16	0.033	
247	 2HG	2032.644	624.259	-2095.538	 H	16	ARG16	0.029	
248	 3HG	2034.145	623.352	-2095.317	 H	16	ARG16	0.029	
249	 2HD	2033.795	623.307	-2092.819	 H	16	ARG16	0.069	
250	 3HD	2032.274	624.214	-2093.010	 H	16	ARG16	0.069	
251	  HE	2034.387	625.734	-2094.370	 H	16	ARG16	0.346	
252	1HH1	2033.507	624.884	-2091.126	 H	16	ARG16	0.448	
253	2HH1	2034.307	626.379	-2090.438	 H	16	ARG16	0.448	
254	1HH2	2035.280	627.406	-2093.568	 H	16	ARG16	0.448	
255	2HH2	2035.257	627.725	-2091.777	 H	16	ARG16	0.448	
@<TRIPOS>BOND
1 1 2 1
2 1 10 1
3 2 3 1
4 2 5 1
5 2 11 1
6 3 4 2
7 3 16 1
8 5 6 1
9 6 7 1
10 7 8 2
11 7 9 1
12 5 12 1
13 5 13 1
14 6 14 1
15 6 15 1
16 16 17 1
17 16 24 1
18 17 18 1
19 17 20 1
20 17 25 1
21 18 19 2
22 18 30 1
23 20 21 1
24 21 22 1
25 21 23 2
26 20 26 1
27 20 27 1
28 22 28 1
29 22 29 1
30 30 31 1
31 30 36 1
32 31 32 1
33 31 34 1
34 31 37 1
35 32 33 2
36 32 44 1
37 34 35 1
38 35 36 1
39 34 38 1
40 34 39 1
41 35 40 1
42 35 41 1
43 36 42 1
44 36 43 1
45 44 45 1
46 44 53 1
47 45 46 1
48 45 48 1
49 45 54 1
50 46 47 2
51 46 59 1
52 48 49 1
53 49 50 1
54 50 51 2
55 50 52 1
56 48 55 1
57 48 56 1
58 49 57 1
59 49 58 1
60 59 60 1
61 59 65 1
62 60 61 1
63 60 63 1
64 60 66 1
65 61 62 2
66 61 70 1
67 63 64 1
68 63 67 1
69 63 68 1
70 64 69 1
71 70 71 1
72 70 78 1
73 71 72 1
74 71 74 1
75 71 79 1
76 72 73 2
77 72 89 1
78 74 75 1
79 74 76 1
80 75 77 1
81 74 80 1
82 75 81 1
83 75 82 1
84 76 83 1
85 76 84 1
86 76 85 1
87 77 86 1
88 77 87 1
89 77 88 1
90 89 90 1
91 89 97 1
92 90 91 1
93 90 93 1
94 90 98 1
95 91 92 2
96 91 108 1
97 93 94 1
98 94 95 1
99 94 96 1
100 93 99 1
101 93 100 1
102 94 101 1
103 95 102 1
104 95 103 1
105 95 104 1
106 96 105 1
107 96 106 1
108 96 107 1
109 108 109 1
110 108 116 1
111 109 110 1
112 109 112 1
113 109 117 1
114 110 111 2
115 110 120 1
116 112 113 1
117 113 114 2
118 113 115 1
119 112 118 1
120 112 119 1
121 120 121 1
122 120 129 1
123 121 122 1
124 121 124 1
125 121 130 1
126 122 123 2
127 122 135 1
128 124 125 1
129 125 126 1
130 126 127 2
131 126 128 1
132 124 131 1
133 124 132 1
134 125 133 1
135 125 134 1
136 135 136 1
137 135 145 1
138 136 137 1
139 136 139 1
140 136 146 1
141 137 138 2
142 137 152 1
143 139 140 1
144 140 141 2
145 141 144 1
146 140 142 1
147 142 143 2
148 143 144 1
149 139 147 1
150 139 148 1
151 141 149 1
152 143 150 1
153 144 151 1
154 152 153 1
155 152 159 1
156 153 154 1
157 153 156 1
158 153 160 1
159 154 155 2
160 154 168 1
161 156 157 1
162 156 158 1
163 156 161 1
164 157 162 1
165 157 163 1
166 157 164 1
167 158 165 1
168 158 166 1
169 158 167 1
170 168 169 1
171 168 177 1
172 169 170 1
173 169 172 1
174 169 178 1
175 170 171 2
176 170 185 1
177 172 173 1
178 173 174 1
179 174 175 1
180 174 176 2
181 172 179 1
182 172 180 1
183 173 181 1
184 173 182 1
185 175 183 1
186 175 184 1
187 185 186 1
188 185 191 1
189 186 187 1
190 186 189 1
191 186 192 1
192 187 188 2
193 187 199 1
194 189 190 1
195 190 191 1
196 189 193 1
197 189 194 1
198 190 195 1
199 190 196 1
200 191 197 1
201 191 198 1
202 199 200 1
203 199 206 1
204 200 201 1
205 200 203 1
206 200 207 1
207 201 202 2
208 201 215 1
209 203 204 1
210 203 205 1
211 203 208 1
212 204 209 1
213 204 210 1
214 204 211 1
215 205 212 1
216 205 213 1
217 205 214 1
218 215 216 1
219 215 223 1
220 216 217 1
221 216 219 1
222 216 224 1
223 217 218 2
224 217 232 1
225 219 220 1
226 220 221 1
227 221 222 1
228 219 225 1
229 219 226 1
230 220 227 1
231 220 228 1
232 222 229 1
233 222 230 1
234 222 231 1
235 232 233 1
236 232 243 1
237 233 234 1
238 233 236 1
239 233 244 1
240 234 235 2
241 236 237 1
242 237 238 1
243 238 239 1
244 239 240 1
245 240 241 2
246 240 242 1
247 236 245 1
248 236 246 1
249 237 247 1
250 237 248 1
251 238 249 1
252 238 250 1
253 239 251 1
254 241 252 1
255 241 253 1
256 242 254 1
257 242 255 1
@<TRIPOS>SUBSTRUCTURE
1	GLU1	1	RESIDUE	1 ****	GLU
2	ASN2	16	RESIDUE	1 ****	ASN
3	PRO3	30	RESIDUE	1 ****	PRO
4	GLU4	44	RESIDUE	1 ****	GLU
5	SER5	59	RESIDUE	1 ****	SER
6	ILE6	70	RESIDUE	1 ****	ILE
7	LEU7	89	RESIDUE	1 ****	LEU
8	ASP8	108	RESIDUE	1 ****	ASP
9	GLU9	120	RESIDUE	1 ****	GLU
10	HIS10	135	RESIDUE	1 ****	HIS
11	VAL11	152	RESIDUE	1 ****	VAL
12	GLN12	168	RESIDUE	1 ****	GLN
13	PRO13	185	RESIDUE	1 ****	PRO
14	VAL14	199	RESIDUE	1 ****	VAL
15	MET15	215	RESIDUE	1 ****	MET
16	ARG16	232	RESIDUE	1 ****	ARG
