REMARK WARNING: 32 MAX_TORS EXCEEDED!!!
REMARK  69 active torsions:
REMARK  status: ('A' for Active; 'I' for Inactive)
REMARK    1  A    between atoms: N_1  and  CA_2 
REMARK    2  A    between atoms: CA_2  and  C_3 
REMARK    3  A    between atoms: CA_2  and  CB_5 
REMARK       I    between atoms: C_3  and  N_11 
REMARK    4  A    between atoms: CB_5  and  CG_6 
REMARK    5  A    between atoms: CG_6  and  CD_7 
REMARK    6  A    between atoms: N_11  and  CA_12 
REMARK    7  A    between atoms: CA_12  and  C_13 
REMARK    8  A    between atoms: CA_12  and  CB_15 
REMARK       I    between atoms: C_13  and  N_22 
REMARK    9  A    between atoms: CB_15  and  CG_16 
REMARK       I    between atoms: CG_16  and  ND2_17 
REMARK   10  A    between atoms: CA_23  and  C_24 
REMARK       I    between atoms: C_24  and  N_29 
REMARK   11  A    between atoms: N_29  and  CA_30 
REMARK   12  A    between atoms: CA_30  and  C_31 
REMARK   13  A    between atoms: CA_30  and  CB_33 
REMARK       I    between atoms: C_31  and  N_39 
REMARK   14  A    between atoms: CB_33  and  CG_34 
REMARK   15  A    between atoms: CG_34  and  CD_35 
REMARK   16  A    between atoms: N_39  and  CA_40 
REMARK   17  A    between atoms: CA_40  and  C_41 
REMARK   18  A    between atoms: CA_40  and  CB_43 
REMARK       I    between atoms: C_41  and  N_47 
REMARK   19  A    between atoms: CB_43  and  OG_44 
REMARK   20  A    between atoms: N_47  and  CA_48 
REMARK   21  A    between atoms: CA_48  and  C_49 
REMARK   22  A    between atoms: CA_48  and  CB_51 
REMARK       I    between atoms: C_49  and  N_59 
REMARK   23  A    between atoms: CB_51  and  CG_52 
REMARK   24  A    between atoms: CG_52  and  CD_53 
REMARK       I    between atoms: CD_53  and  NE2_54 
REMARK   25  A    between atoms: N_59  and  CA_60 
REMARK   26  A    between atoms: CA_60  and  C_61 
REMARK   27  A    between atoms: CA_60  and  CB_63 
REMARK       I    between atoms: C_61  and  N_68 
REMARK   28  A    between atoms: CB_63  and  CG_64 
REMARK   29  A    between atoms: N_68  and  CA_69 
REMARK   30  A    between atoms: CA_69  and  C_70 
REMARK   31  A    between atoms: CA_69  and  CB_72 
REMARK       I    between atoms: C_70  and  N_77 
REMARK   32  A    between atoms: CB_72  and  CG_73 
REMARK   33  A    between atoms: N_77  and  CA_78 
REMARK   34  A    between atoms: CA_78  and  C_79 
REMARK   35  A    between atoms: CA_78  and  CB_81 
REMARK       I    between atoms: C_79  and  N_87 
REMARK   36  A    between atoms: CB_81  and  CG_82 
REMARK   37  A    between atoms: CG_82  and  CD_83 
REMARK   38  A    between atoms: N_87  and  CA_88 
REMARK   39  A    between atoms: CA_88  and  C_89 
REMARK   40  A    between atoms: CA_88  and  CB_91 
REMARK       I    between atoms: C_89  and  N_99 
REMARK   41  A    between atoms: CB_91  and  CG_92 
REMARK   42  A    between atoms: N_99  and  CA_100 
REMARK   43  A    between atoms: CA_100  and  C_101 
REMARK   44  A    between atoms: CA_100  and  CB_103 
REMARK       I    between atoms: C_101  and  N_107 
REMARK   45  A    between atoms: N_107  and  CA_108 
REMARK   46  A    between atoms: CA_108  and  C_109 
REMARK   47  A    between atoms: CA_108  and  CB_111 
REMARK       I    between atoms: C_109  and  N_119 
REMARK   48  A    between atoms: CB_111  and  CG_112 
REMARK   49  A    between atoms: CG_112  and  CD_113 
REMARK       I    between atoms: CD_113  and  NE2_114 
REMARK   50  A    between atoms: N_119  and  CA_120 
REMARK   51  A    between atoms: CA_120  and  C_121 
REMARK   52  A    between atoms: CA_120  and  CB_123 
REMARK       I    between atoms: C_121  and  N_136 
REMARK   53  A    between atoms: CB_123  and  CG_124 
REMARK   54  A    between atoms: CG_124  and  CD_125 
REMARK   55  A    between atoms: CD_125  and  NE_126 
REMARK       I    between atoms: NE_126  and  CZ_127 
REMARK       I    between atoms: CZ_127  and  NH1_128 
REMARK       I    between atoms: CZ_127  and  NH2_129 
REMARK   56  A    between atoms: N_136  and  CA_137 
REMARK   57  A    between atoms: CA_137  and  C_138 
REMARK   58  A    between atoms: CA_137  and  CB_140 
REMARK       I    between atoms: C_138  and  N_144 
REMARK   59  A    between atoms: N_144  and  CA_145 
REMARK   60  A    between atoms: CA_145  and  C_146 
REMARK   61  A    between atoms: CA_145  and  CB_148 
REMARK       I    between atoms: C_146  and  N_153 
REMARK   62  A    between atoms: CB_148  and  CG_149 
REMARK   63  A    between atoms: CG_149  and  SD_150 
REMARK   64  A    between atoms: N_153  and  CA_154 
REMARK   65  A    between atoms: CA_154  and  C_155 
REMARK   66  A    between atoms: CA_154  and  CB_157 
REMARK   67  A    between atoms: CB_157  and  CG_158 
REMARK   68  A    between atoms: CG_158  and  CD_159 
REMARK   69  A    between atoms: CD_159  and  NE_160 
REMARK       I    between atoms: NE_160  and  CZ_161 
REMARK       I    between atoms: CZ_161  and  NH1_162 
ROOT
ATOM      1  C   GLU d   9     994.188 277.683-967.887  0.00  0.00     0.241 C 
ATOM      2  O   GLU d   9     994.853 278.437-968.612  0.00  0.00    -0.271 OA
ATOM      3  N   HIS d  10     994.285 276.407-968.056  0.00  0.00    -0.346 N 
ATOM      4  H   HIS d  10     993.753 275.772-967.478  0.00  0.00     0.163 HD
ENDROOT
BRANCH   1   5
ATOM      5  CA  GLU d   9     993.269 278.211-966.813  0.00  0.00     0.177 C 
BRANCH   5   6
ATOM      6  N   GLU d   9     991.966 277.553-966.870  0.00  0.00    -0.346 N 
ATOM      7  C   ASP d   8     991.288 277.603-967.966  0.00  0.00     0.241 C 
ATOM      8  O   ASP d   8     991.762 278.208-968.940  0.00  0.00    -0.271 OA
ATOM      9  H   GLU d   9     991.602 277.067-966.063  0.00  0.00     0.163 HD
BRANCH   7  10
ATOM     10  CA  ASP d   8     989.941 276.923-968.025  0.00  0.00     0.186 C 
BRANCH  10  11
ATOM     11  N   ASP d   8     990.011 275.574-967.471  0.00  0.00    -0.346 N 
ATOM     12  C   LEU d   7     990.849 274.733-967.976  0.00  0.00     0.241 C 
ATOM     13  O   LEU d   7     991.571 275.095-968.917  0.00  0.00    -0.271 OA
ATOM     14  H   ASP d   8     989.412 275.303-966.705  0.00  0.00     0.163 HD
BRANCH  12  15
ATOM     15  CA  LEU d   7     990.920 273.338-967.404  0.00  0.00     0.177 C 
BRANCH  15  16
ATOM     16  N   LEU d   7     990.973 273.374-965.945  0.00  0.00    -0.346 N 
ATOM     17  C   GLN d   6     991.918 274.038-965.370  0.00  0.00     0.241 C 
ATOM     18  O   GLN d   6     992.747 274.620-966.067  0.00  0.00    -0.271 OA
ATOM     19  H   LEU d   7     990.280 272.887-965.394  0.00  0.00     0.163 HD
BRANCH  17  20
ATOM     20  CA  GLN d   6     991.974 274.076-963.861  0.00  0.00     0.177 C 
BRANCH  20  21
ATOM     21  N   GLN d   6     990.661 274.371-963.296  0.00  0.00    -0.346 N 
ATOM     22  C   SER d   5     990.056 275.454-963.650  0.00  0.00     0.243 C 
ATOM     23  O   SER d   5     990.603 276.208-964.455  0.00  0.00    -0.271 OA
ATOM     24  H   GLN d   6     990.232 273.737-962.637  0.00  0.00     0.163 HD
BRANCH  22  25
ATOM     25  CA  SER d   5     988.697 275.759-963.064  0.00  0.00     0.200 C 
BRANCH  25  26
ATOM     26  N   SER d   5     987.828 274.588-963.123  0.00  0.00    -0.344 N 
ATOM     27  C   GLU d   4     987.600 274.035-964.266  0.00  0.00     0.241 C 
ATOM     28  O   GLU d   4     988.127 274.515-965.281  0.00  0.00    -0.271 OA
ATOM     29  H   SER d   5     987.410 274.216-962.282  0.00  0.00     0.163 HD
BRANCH  27  30
ATOM     30  CA  GLU d   4     986.701 272.824-964.327  0.00  0.00     0.177 C 
BRANCH  30  31
ATOM     31  N   GLU d   4     987.061 271.853-963.298  0.00  0.00    -0.346 N 
ATOM     32  C   PRO d   3     988.266 271.393-963.265  0.00  0.00     0.241 C 
ATOM     33  O   PRO d   3     989.089 271.776-964.097  0.00  0.00    -0.271 OA
ATOM     34  H   GLU d   4     986.377 271.546-962.621  0.00  0.00     0.163 HD
BRANCH  32  35
ATOM     35  CA  PRO d   3     988.664 270.370-962.188  0.00  0.00     0.179 C 
ATOM     36  N   PRO d   3     988.212 270.779-960.867  0.00  0.00    -0.337 N 
ATOM     37  C   ASN d   2     988.734 271.774-960.233  0.00  0.00     0.243 C 
ATOM     38  CD  PRO d   3     987.134 269.986-960.318  0.00  0.00     0.127 C 
ATOM     39  O   ASN d   2     989.649 272.405-960.762  0.00  0.00    -0.271 OA
ATOM     40  CG  PRO d   3     986.677 269.167-961.528  0.00  0.00     0.022 C 
ATOM     41  CB  PRO d   3     987.960 269.015-962.358  0.00  0.00     0.037 C 
BRANCH  37  42
ATOM     42  CA  ASN d   2     988.203 272.130-958.864  0.00  0.00     0.185 C 
BRANCH  42  43
ATOM     43  N   ASN d   2     986.743 272.168-958.864  0.00  0.00    -0.346 N 
ATOM     44  C   GLU d   1     986.139 272.954-959.689  0.00  0.00     0.242 C 
ATOM     45  O   GLU d   1     986.814 273.653-960.458  0.00  0.00    -0.271 OA
ATOM     46  H   ASN d   2     986.215 271.589-958.228  0.00  0.00     0.163 HD
BRANCH  44  47
ATOM     47  CA  GLU d   1     984.630 272.994-959.689  0.00  0.00     0.191 C 
BRANCH  47  48
ATOM     48  N   GLU d   1     984.071 271.645-959.689  0.00  0.00    -0.326 NA
ATOM     49  H   GLU d   1     984.698 270.766-959.689  0.00  0.00     0.180 HD
ENDBRANCH  47  48
BRANCH  47  50
ATOM     50  CB  GLU d   1     984.107 273.779-958.452  0.00  0.00     0.047 C 
BRANCH  50  51
ATOM     51  CG  GLU d   1     984.582 275.264-958.341  0.00  0.00     0.116 C 
BRANCH  51  52
ATOM     52  CD  GLU d   1     984.158 276.068-957.126  0.00  0.00     0.172 C 
ATOM     53  OE1 GLU d   1     983.430 275.566-956.248  0.00  0.00    -0.648 OA
ATOM     54  OE2 GLU d   1     984.588 277.238-957.054  0.00  0.00    -0.648 OA
ENDBRANCH  51  52
ENDBRANCH  50  51
ENDBRANCH  47  50
ENDBRANCH  44  47
ENDBRANCH  42  43
BRANCH  42  55
ATOM     55  CB  ASN d   2     988.695 271.107-957.800  0.00  0.00     0.137 C 
BRANCH  55  56
ATOM     56  CG  ASN d   2     988.232 271.331-956.357  0.00  0.00     0.217 C 
ATOM     57  ND2 ASN d   2     988.826 272.246-955.638  0.00  0.00    -0.370 N 
ATOM     58 21HD ASN d   2     988.345 272.419-954.752  0.00  0.00     0.159 HD
ATOM     59 22HD ASN d   2     989.527 272.817-956.108  0.00  0.00     0.159 HD
ATOM     60  OD1 ASN d   2     987.311 270.697-955.862  0.00  0.00    -0.274 OA
ENDBRANCH  55  56
ENDBRANCH  42  55
ENDBRANCH  37  42
ENDBRANCH  32  35
ENDBRANCH  30  31
BRANCH  30  61
ATOM     61  CB  GLU d   4     985.213 273.243-964.157  0.00  0.00     0.045 C 
BRANCH  61  62
ATOM     62  CG  GLU d   4     984.665 274.246-965.223  0.00  0.00     0.116 C 
BRANCH  62  63
ATOM     63  CD  GLU d   4     983.238 274.743-965.079  0.00  0.00     0.172 C 
ATOM     64  OE1 GLU d   4     982.512 274.344-964.148  0.00  0.00    -0.648 OA
ATOM     65  OE2 GLU d   4     982.848 275.572-965.928  0.00  0.00    -0.648 OA
ENDBRANCH  62  63
ENDBRANCH  61  62
ENDBRANCH  30  61
ENDBRANCH  27  30
ENDBRANCH  25  26
BRANCH  25  66
ATOM     66  CB  SER d   5     988.808 276.292-961.614  0.00  0.00     0.199 C 
BRANCH  66  67
ATOM     67  OG  SER d   5     989.540 275.412-960.753  0.00  0.00    -0.398 OA
ATOM     68  HG  SER d   5     989.051 274.587-960.702  0.00  0.00     0.209 HD
ENDBRANCH  66  67
ENDBRANCH  25  66
ENDBRANCH  22  25
ENDBRANCH  20  21
BRANCH  20  69
ATOM     69  CB  GLN d   6     992.467 272.727-963.291  0.00  0.00     0.044 C 
BRANCH  69  70
ATOM     70  CG  GLN d   6     993.888 272.262-963.750  0.00  0.00     0.105 C 
BRANCH  70  71
ATOM     71  CD  GLN d   6     994.419 270.904-963.274  0.00  0.00     0.215 C 
ATOM     72  NE2 GLN d   6     993.693 270.159-962.480  0.00  0.00    -0.370 N 
ATOM     73 21HE GLN d   6     994.091 269.244-962.263  0.00  0.00     0.159 HD
ATOM     74 22HE GLN d   6     992.766 270.533-962.266  0.00  0.00     0.159 HD
ATOM     75  OE1 GLN d   6     995.507 270.488-963.642  0.00  0.00    -0.274 OA
ENDBRANCH  70  71
ENDBRANCH  69  70
ENDBRANCH  20  69
ENDBRANCH  17  20
ENDBRANCH  15  16
BRANCH  15  76
ATOM     76  CB  LEU d   7     989.717 272.477-967.885  0.00  0.00     0.038 C 
BRANCH  76  77
ATOM     77  CG  LEU d   7     989.644 270.998-967.419  0.00  0.00    -0.020 C 
ATOM     78  CD1 LEU d   7     988.455 270.292-968.086  0.00  0.00     0.009 C 
ATOM     79  CD2 LEU d   7     990.938 270.219-967.708  0.00  0.00     0.009 C 
ENDBRANCH  76  77
ENDBRANCH  15  76
ENDBRANCH  12  15
ENDBRANCH  10  11
BRANCH  10  80
ATOM     80  CB  ASP d   8     988.862 277.762-967.285  0.00  0.00     0.147 C 
BRANCH  80  81
ATOM     81  CG  ASP d   8     988.644 279.183-967.826  0.00  0.00     0.175 C 
ATOM     82  OD1 ASP d   8     988.710 279.382-969.057  0.00  0.00    -0.648 OA
ATOM     83  OD2 ASP d   8     988.451 280.109-967.011  0.00  0.00    -0.648 OA
ENDBRANCH  80  81
ENDBRANCH  10  80
ENDBRANCH   7  10
ENDBRANCH   5   6
BRANCH   5  84
ATOM     84  CB  GLU d   9     993.900 278.003-965.406  0.00  0.00     0.045 C 
BRANCH  84  85
ATOM     85  CG  GLU d   9     995.283 278.695-965.175  0.00  0.00     0.116 C 
BRANCH  85  86
ATOM     86  CD  GLU d   9     995.982 278.482-963.846  0.00  0.00     0.172 C 
ATOM     87  OE1 GLU d   9     995.460 277.792-962.950  0.00  0.00    -0.648 OA
ATOM     88  OE2 GLU d   9     997.101 279.020-963.713  0.00  0.00    -0.648 OA
ENDBRANCH  85  86
ENDBRANCH  84  85
ENDBRANCH   5  84
ENDBRANCH   1   5
BRANCH   3  89
ATOM     89  CA  HIS d  10     995.175 275.896-969.095  0.00  0.00     0.182 C 
BRANCH  89  90
ATOM     90  C   HIS d  10     994.810 276.460-970.447  0.00  0.00     0.241 C 
ATOM     91  O   HIS d  10     995.663 276.925-971.218  0.00  0.00    -0.271 OA
ATOM     92  N   VAL d  11     993.572 276.459-970.812  0.00  0.00    -0.346 N 
ATOM     93  H   VAL d  11     992.859 276.086-970.202  0.00  0.00     0.163 HD
BRANCH  92  94
ATOM     94  CA  VAL d  11     993.219 277.005-972.119  0.00  0.00     0.180 C 
BRANCH  94  95
ATOM     95  C   VAL d  11     993.684 278.436-972.251  0.00  0.00     0.241 C 
ATOM     96  O   VAL d  11     994.286 278.841-973.253  0.00  0.00    -0.271 OA
ATOM     97  N   GLN d  12     993.445 279.262-971.289  0.00  0.00    -0.346 N 
ATOM     98  H   GLN d  12     992.955 278.956-970.461  0.00  0.00     0.163 HD
BRANCH  97  99
ATOM     99  CA  GLN d  12     993.893 280.645-971.416  0.00  0.00     0.177 C 
BRANCH  99 100
ATOM    100  C   GLN d  12     995.384 280.712-971.651  0.00  0.00     0.241 C 
ATOM    101  O   GLN d  12     995.872 281.420-972.529  0.00  0.00    -0.271 OA
ATOM    102  N   ARG d  13     996.167 280.006-970.909  0.00  0.00    -0.346 N 
ATOM    103  H   ARG d  13     995.790 279.416-970.181  0.00  0.00     0.163 HD
BRANCH 102 104
ATOM    104  CA  ARG d  13     997.608 280.071-971.138  0.00  0.00     0.176 C 
BRANCH 104 105
ATOM    105  C   ARG d  13     997.946 279.700-972.562  0.00  0.00     0.241 C 
ATOM    106  O   ARG d  13     998.716 280.371-973.245  0.00  0.00    -0.271 OA
ATOM    107  N   VAL d  14     997.411 278.645-973.077  0.00  0.00    -0.346 N 
ATOM    108  H   VAL d  14     996.775 278.077-972.536  0.00  0.00     0.163 HD
BRANCH 107 109
ATOM    109  CA  VAL d  14     997.738 278.286-974.454  0.00  0.00     0.180 C 
BRANCH 109 110
ATOM    110  C   VAL d  14     997.409 279.415-975.401  0.00  0.00     0.241 C 
ATOM    111  O   VAL d  14     998.204 279.797-976.269  0.00  0.00    -0.271 OA
ATOM    112  N   MET d  15     996.264 280.001-975.301  0.00  0.00    -0.346 N 
ATOM    113  H   MET d  15     995.598 279.708-974.600  0.00  0.00     0.163 HD
BRANCH 112 114
ATOM    114  CA  MET d  15     995.945 281.094-976.215  0.00  0.00     0.177 C 
BRANCH 114 115
ATOM    115  C   MET d  15     996.975 282.194-976.126  0.00  0.00     0.241 C 
ATOM    116  O   MET d  15     997.480 282.704-977.138  0.00  0.00    -0.271 OA
ATOM    117  N   ARG d  16     997.342 282.615-974.963  0.00  0.00    -0.347 N 
ATOM    118  H   ARG d  16     996.946 282.215-974.124  0.00  0.00     0.163 HD
BRANCH 117 119
ATOM    119  CA  ARG d  16     998.339 283.679-974.878  0.00  0.00     0.162 C 
BRANCH 119 120
ATOM    120  C   ARG d  16     999.610 283.286-975.592  0.00  0.00     0.219 C 
ATOM    121  O   ARG d  16     999.725 282.209-976.173  0.00  0.00    -0.287 OA
ENDBRANCH 119 120
BRANCH 119 122
ATOM    122  CB  ARG d  16     998.605 283.997-973.379  0.00  0.00     0.035 C 
BRANCH 122 123
ATOM    123  CG  ARG d  16     999.430 285.286-973.105  0.00  0.00     0.023 C 
BRANCH 123 124
ATOM    124  CD  ARG d  16     999.677 285.505-971.603  0.00  0.00     0.138 C 
BRANCH 124 125
ATOM    125  NE  ARG d  16    1000.453 286.764-971.401  0.00  0.00    -0.227 N 
ATOM    126  CZ  ARG d  16    1000.843 287.247-970.225  0.00  0.00     0.665 C 
ATOM    127  NH1 ARG d  16    1000.593 286.662-969.087  0.00  0.00    -0.235 N 
ATOM    128  NH2 ARG d  16    1001.507 288.359-970.206  0.00  0.00    -0.235 N 
ATOM    129 11HH ARG d  16    1000.068 285.789-969.172  0.00  0.00     0.174 HD
ATOM    130 12HH ARG d  16    1000.926 287.098-968.225  0.00  0.00     0.174 HD
ATOM    131 21HH ARG d  16    1001.693 288.802-971.107  0.00  0.00     0.174 HD
ATOM    132 22HH ARG d  16    1001.795 288.714-969.293  0.00  0.00     0.174 HD
ATOM    133  HE  ARG d  16    1000.733 287.345-972.198  0.00  0.00     0.177 HD
ENDBRANCH 124 125
ENDBRANCH 123 124
ENDBRANCH 122 123
ENDBRANCH 119 122
ENDBRANCH 117 119
ENDBRANCH 114 115
BRANCH 114 134
ATOM    134  CB  MET d  15     994.523 281.640-975.908  0.00  0.00     0.045 C 
BRANCH 134 135
ATOM    135  CG  MET d  15     993.362 280.641-976.102  0.00  0.00     0.076 C 
BRANCH 135 136
ATOM    136  SD  MET d  15     991.788 281.508-975.990  0.00  0.00    -0.173 SA
ATOM    137  CE  MET d  15     990.706 280.078-975.855  0.00  0.00     0.089 C 
ENDBRANCH 135 136
ENDBRANCH 134 135
ENDBRANCH 114 134
ENDBRANCH 112 114
ENDBRANCH 109 110
BRANCH 109 138
ATOM    138  CB  VAL d  14     996.966 276.968-974.862  0.00  0.00     0.009 C 
ATOM    139  CG1 VAL d  14     997.057 276.550-976.355  0.00  0.00     0.012 C 
ATOM    140  CG2 VAL d  14     997.397 275.716-974.061  0.00  0.00     0.012 C 
ENDBRANCH 109 138
ENDBRANCH 107 109
ENDBRANCH 104 105
BRANCH 104 141
ATOM    141  CB  ARG d  13     998.320 279.133-970.123  0.00  0.00     0.036 C 
BRANCH 141 142
ATOM    142  CG  ARG d  13     999.865 279.286-970.039  0.00  0.00     0.023 C 
BRANCH 142 143
ATOM    143  CD  ARG d  13    1000.490 278.299-969.040  0.00  0.00     0.138 C 
BRANCH 143 144
ATOM    144  NE  ARG d  13    1001.967 278.506-968.988  0.00  0.00    -0.227 N 
ATOM    145  CZ  ARG d  13    1002.814 277.815-968.231  0.00  0.00     0.665 C 
ATOM    146  NH1 ARG d  13    1002.448 276.850-967.434  0.00  0.00    -0.235 N 
ATOM    147  NH2 ARG d  13    1004.074 278.114-968.286  0.00  0.00    -0.235 N 
ATOM    148 11HH ARG d  13    1001.443 276.664-967.439  0.00  0.00     0.174 HD
ATOM    149 12HH ARG d  13    1003.160 276.367-966.884  0.00  0.00     0.174 HD
ATOM    150 21HH ARG d  13    1004.342 278.871-968.917  0.00  0.00     0.174 HD
ATOM    151 22HH ARG d  13    1004.708 277.572-967.697  0.00  0.00     0.174 HD
ATOM    152  HE  ARG d  13    1002.419 279.228-969.558  0.00  0.00     0.177 HD
ENDBRANCH 143 144
ENDBRANCH 142 143
ENDBRANCH 141 142
ENDBRANCH 104 141
ENDBRANCH 102 104
ENDBRANCH  99 100
BRANCH  99 153
ATOM    153  CB  GLN d  12     993.501 281.412-970.134  0.00  0.00     0.044 C 
BRANCH 153 154
ATOM    154  CG  GLN d  12     993.861 282.934-970.102  0.00  0.00     0.105 C 
BRANCH 154 155
ATOM    155  CD  GLN d  12     993.556 283.748-968.838  0.00  0.00     0.215 C 
ATOM    156  NE2 GLN d  12     992.988 283.172-967.810  0.00  0.00    -0.370 N 
ATOM    157 21HE GLN d  12     992.879 283.766-966.987  0.00  0.00     0.159 HD
ATOM    158 22HE GLN d  12     992.824 282.168-967.914  0.00  0.00     0.159 HD
ATOM    159  OE1 GLN d  12     993.858 284.929-968.760  0.00  0.00    -0.274 OA
ENDBRANCH 154 155
ENDBRANCH 153 154
ENDBRANCH  99 153
ENDBRANCH  97  99
ENDBRANCH  94  95
BRANCH  94 160
ATOM    160  CB  VAL d  11     991.658 276.898-972.341  0.00  0.00     0.009 C 
ATOM    161  CG1 VAL d  11     991.091 277.602-973.604  0.00  0.00     0.012 C 
ATOM    162  CG2 VAL d  11     991.134 275.444-972.415  0.00  0.00     0.012 C 
ENDBRANCH  94 160
ENDBRANCH  92  94
ENDBRANCH  89  90
BRANCH  89 163
ATOM    163  CB  HIS d  10     995.011 274.367-969.090  0.00  0.00     0.095 C 
BRANCH 163 164
ATOM    164  CG  HIS d  10     996.296 273.657-968.780  0.00  0.00     0.053 A 
ATOM    165  CD2 HIS d  10     996.675 273.322-967.487  0.00  0.00     0.116 A 
ATOM    166  NE2 HIS d  10     997.890 272.690-967.552  0.00  0.00    -0.359 N 
ATOM    167  CE1 HIS d  10     998.155 272.693-968.887  0.00  0.00     0.207 A 
ATOM    168  2HE HIS d  10     998.456 272.313-966.778  0.00  0.00     0.166 HD
ATOM    169  ND1 HIS d  10     997.249 273.251-969.712  0.00  0.00    -0.247 NA
ENDBRANCH 163 164
ENDBRANCH  89 163
ENDBRANCH   3  89
TORSDOF 69
