@<TRIPOS>MOLECULE
11-16
266 267 16              
SMALL
USER_CHARGES
@<TRIPOS>ATOM
1	   N	1804.662	541.535	-1848.916	N.3	1	GLU1	-0.516	
2	  CA	1805.221	542.884	-1848.916	C.3	1	GLU1	0.040	
3	   C	1806.730	542.844	-1848.916	C.2	1	GLU1	0.537	
4	   O	1807.406	543.543	-1849.684	O.2	1	GLU1	-0.582	
5	  CB	1804.698	543.669	-1847.678	C.3	1	GLU1	0.056	
6	  CG	1805.173	545.154	-1847.568	C.3	1	GLU1	0.014	
7	  CD	1804.749	545.958	-1846.352	C.2	1	GLU1	0.805	
8	 OE1	1804.021	545.456	-1845.474	O.co2	1	GLU1	-0.819	
9	 OE2	1805.179	547.128	-1846.281	O.co2	1	GLU1	-0.819	
10	   H	1805.289	540.656	-1848.916	 H	1	GLU1	0.294	
11	  HA	1804.895	543.402	-1849.835	 H	1	GLU1	0.111	
12	 2HB	1804.987	543.138	-1846.749	 H	1	GLU1	-0.017	
13	 3HB	1803.591	543.659	-1847.666	 H	1	GLU1	-0.017	
14	 2HG	1804.863	545.739	-1848.448	 H	1	GLU1	-0.043	
15	 3HG	1806.273	545.221	-1847.538	 H	1	GLU1	-0.043	
16	   N	1807.334	542.058	-1848.090	N.am	2	ASN2	-0.416	
17	  CA	1808.794	542.019	-1848.090	C.3	2	ASN2	0.014	
18	   C	1809.325	541.664	-1849.459	C.2	2	ASN2	0.597	
19	   O	1810.240	542.294	-1849.988	O.2	2	ASN2	-0.568	
20	  CB	1809.286	540.996	-1847.026	C.3	2	ASN2	-0.204	
21	  CG	1808.823	541.220	-1845.583	C.2	2	ASN2	0.713	
22	 ND2	1809.417	542.135	-1844.865	N.pl3	2	ASN2	-0.919	
23	 OD1	1807.902	540.586	-1845.089	O.2	2	ASN2	-0.593	
24	   H	1806.806	541.478	-1847.454	 H	2	ASN2	0.272	
25	  HA	1809.171	543.029	-1847.845	 H	2	ASN2	0.105	
26	 2HB	1810.390	540.937	-1847.030	 H	2	ASN2	0.080	
27	 3HB	1808.957	539.978	-1847.312	 H	2	ASN2	0.080	
28	1HD2	1808.936	542.308	-1843.978	 H	2	ASN2	0.420	
29	2HD2	1810.119	542.707	-1845.334	 H	2	ASN2	0.420	
30	   N	1808.803	540.669	-1850.093	N.am	3	PRO3	-0.255	
31	  CA	1809.255	540.259	-1851.415	C.3	3	PRO3	-0.027	
32	   C	1808.857	541.283	-1852.491	C.2	3	PRO3	0.590	
33	   O	1809.680	541.666	-1853.323	O.2	3	PRO3	-0.575	
34	  CB	1808.551	538.905	-1851.584	C.3	3	PRO3	-0.007	
35	  CG	1807.268	539.057	-1850.754	C.3	3	PRO3	0.019	
36	  CD	1807.725	539.876	-1849.544	C.3	3	PRO3	0.019	
37	  HA	1810.341	540.139	-1851.428	 H	3	PRO3	0.064	
38	 2HB	1809.174	538.123	-1851.143	 H	3	PRO3	0.025	
39	 3HB	1808.353	538.656	-1852.629	 H	3	PRO3	0.025	
40	 2HG	1806.840	538.094	-1850.463	 H	3	PRO3	0.021	
41	 3HG	1806.530	539.628	-1851.321	 H	3	PRO3	0.021	
42	 2HD	1808.115	539.226	-1848.756	 H	3	PRO3	0.039	
43	 3HD	1806.929	540.511	-1849.151	 H	3	PRO3	0.039	
44	   N	1807.652	541.743	-1852.524	N.am	4	GLU4	-0.516	
45	  CA	1807.293	542.714	-1853.553	C.3	4	GLU4	0.040	
46	   C	1808.192	543.925	-1853.492	C.2	4	GLU4	0.537	
47	   O	1808.718	544.404	-1854.507	O.2	4	GLU4	-0.582	
48	  CB	1805.804	543.133	-1853.383	C.3	4	GLU4	0.056	
49	  CG	1805.256	544.136	-1854.449	C.3	4	GLU4	0.014	
50	  CD	1803.830	544.633	-1854.305	C.2	4	GLU4	0.805	
51	 OE1	1803.103	544.235	-1853.374	O.co2	4	GLU4	-0.819	
52	 OE2	1803.440	545.462	-1855.153	O.co2	4	GLU4	-0.819	
53	   H	1806.968	541.436	-1851.847	 H	4	GLU4	0.294	
54	  HA	1807.424	542.243	-1854.545	 H	4	GLU4	0.111	
55	 2HB	1805.652	543.572	-1852.376	 H	4	GLU4	-0.017	
56	 3HB	1805.156	542.235	-1853.389	 H	4	GLU4	-0.017	
57	 2HG	1805.338	543.721	-1855.466	 H	4	GLU4	-0.043	
58	 3HG	1805.844	545.068	-1854.460	 H	4	GLU4	-0.043	
59	   N	1808.419	544.478	-1852.349	N.am	5	SER5	-0.416	
60	  CA	1809.289	545.649	-1852.291	C.3	5	SER5	-0.025	
61	   C	1810.647	545.343	-1852.876	C.2	5	SER5	0.597	
62	   O	1811.195	546.097	-1853.681	O.2	5	SER5	-0.568	
63	  CB	1809.400	546.181	-1850.840	C.3	5	SER5	0.212	
64	  OG	1810.132	545.302	-1849.979	O.3	5	SER5	-0.655	
65	   H	1808.002	544.106	-1851.508	 H	5	SER5	0.272	
66	  HA	1808.839	546.439	-1852.920	 H	5	SER5	0.084	
67	 2HB	1808.400	546.375	-1850.407	 H	5	SER5	0.035	
68	 3HB	1809.905	547.167	-1850.843	 H	5	SER5	0.035	
69	  HG	1809.643	544.477	-1849.928	 H	5	SER5	0.428	
70	   N	1811.252	544.260	-1852.522	N.am	6	ILE6	-0.416	
71	  CA	1812.565	543.966	-1853.088	C.3	6	ILE6	-0.060	
72	   C	1812.508	543.928	-1854.596	C.2	6	ILE6	0.597	
73	   O	1813.343	544.516	-1855.300	O.2	6	ILE6	-0.568	
74	  CB	1813.165	542.629	-1852.488	C.3	6	ILE6	0.130	
75	 CG1	1813.185	542.567	-1850.927	C.3	6	ILE6	-0.043	
76	 CG2	1814.607	542.328	-1853.004	C.3	6	ILE6	-0.320	
77	 CD1	1813.455	541.178	-1850.312	C.3	6	ILE6	-0.066	
78	   H	1810.824	543.626	-1851.863	 H	6	ILE6	0.272	
79	  HA	1813.239	544.800	-1852.820	 H	6	ILE6	0.087	
80	  HB	1812.508	541.803	-1852.832	 H	6	ILE6	0.019	
81	2HG1	1812.203	542.887	-1850.531	 H	6	ILE6	0.024	
82	3HG1	1813.901	543.310	-1850.523	 H	6	ILE6	0.024	
83	1HG2	1814.665	542.234	-1854.102	 H	6	ILE6	0.088	
84	2HG2	1815.329	543.110	-1852.701	 H	6	ILE6	0.088	
85	3HG2	1814.997	541.366	-1852.625	 H	6	ILE6	0.088	
86	1HD1	1812.727	540.424	-1850.667	 H	6	ILE6	0.019	
87	2HD1	1814.466	540.799	-1850.548	 H	6	ILE6	0.019	
88	3HD1	1813.379	541.208	-1849.210	 H	6	ILE6	0.019	
89	   N	1811.562	543.264	-1855.170	N.am	7	LEU7	-0.416	
90	  CA	1811.508	543.228	-1856.628	C.3	7	LEU7	-0.052	
91	   C	1811.435	544.624	-1857.201	C.2	7	LEU7	0.597	
92	   O	1812.156	544.987	-1858.143	O.2	7	LEU7	-0.568	
93	  CB	1810.305	542.368	-1857.109	C.3	7	LEU7	-0.110	
94	  CG	1810.232	540.889	-1856.642	C.3	7	LEU7	0.353	
95	 CD1	1809.042	540.183	-1857.308	C.3	7	LEU7	-0.412	
96	 CD2	1811.526	540.110	-1856.934	C.3	7	LEU7	-0.412	
97	   H	1810.871	542.777	-1854.618	 H	7	LEU7	0.272	
98	  HA	1812.449	542.789	-1857.002	 H	7	LEU7	0.092	
99	 2HB	1810.281	542.384	-1858.216	 H	7	LEU7	0.046	
100	 3HB	1809.365	542.871	-1856.804	 H	7	LEU7	0.046	
101	  HG	1810.062	540.880	-1855.545	 H	7	LEU7	-0.036	
102	1HD1	1808.085	540.692	-1857.085	 H	7	LEU7	0.100	
103	2HD1	1809.142	540.142	-1858.409	 H	7	LEU7	0.100	
104	3HD1	1808.936	539.141	-1856.952	 H	7	LEU7	0.100	
105	1HD2	1811.801	540.140	-1858.004	 H	7	LEU7	0.100	
106	2HD2	1812.379	540.521	-1856.363	 H	7	LEU7	0.100	
107	3HD2	1811.445	539.047	-1856.638	 H	7	LEU7	0.100	
108	   N	1810.597	545.464	-1856.694	N.am	8	ASP8	-0.516	
109	  CA	1810.527	546.813	-1857.248	C.3	8	ASP8	0.038	
110	   C	1811.873	547.494	-1857.190	C.2	8	ASP8	0.537	
111	   O	1812.346	548.099	-1858.165	O.2	8	ASP8	-0.582	
112	  CB	1809.448	547.652	-1856.506	C.3	8	ASP8	-0.030	
113	  CG	1809.229	549.073	-1857.046	C.2	8	ASP8	0.799	
114	 OD1	1809.294	549.272	-1858.277	O.co2	8	ASP8	-0.801	
115	 OD2	1809.037	549.999	-1856.230	O.co2	8	ASP8	-0.801	
116	   H	1810.000	545.193	-1855.927	 H	8	ASP8	0.294	
117	  HA	1810.244	546.736	-1858.315	 H	8	ASP8	0.088	
118	 2HB	1809.706	547.735	-1855.434	 H	8	ASP8	-0.012	
119	 3HB	1808.470	547.147	-1856.539	 H	8	ASP8	-0.012	
120	   N	1812.553	547.444	-1856.095	N.am	9	GLU9	-0.516	
121	  CA	1813.855	548.102	-1856.039	C.3	9	GLU9	0.040	
122	   C	1814.774	547.575	-1857.115	C.2	9	GLU9	0.537	
123	   O	1815.438	548.330	-1857.840	O.2	9	GLU9	-0.582	
124	  CB	1814.489	547.894	-1854.634	C.3	9	GLU9	0.056	
125	  CG	1815.871	548.587	-1854.404	C.3	9	GLU9	0.014	
126	  CD	1816.573	548.373	-1853.076	C.2	9	GLU9	0.805	
127	 OE1	1816.052	547.682	-1852.180	O.co2	9	GLU9	-0.819	
128	 OE2	1817.692	548.911	-1852.944	O.co2	9	GLU9	-0.819	
129	   H	1812.190	546.957	-1855.288	 H	9	GLU9	0.294	
130	  HA	1813.713	549.183	-1856.214	 H	9	GLU9	0.111	
131	 2HB	1814.602	546.809	-1854.431	 H	9	GLU9	-0.017	
132	 3HB	1813.792	548.247	-1853.850	 H	9	GLU9	-0.017	
133	 2HG	1815.799	549.677	-1854.544	 H	9	GLU9	-0.043	
134	 3HG	1816.618	548.242	-1855.138	 H	9	GLU9	-0.043	
135	   N	1814.871	546.300	-1857.285	N.am	10	HIS10	-0.416	
136	  CA	1815.759	545.789	-1858.325	C.3	10	HIS10	-0.058	
137	   C	1815.392	546.354	-1859.677	C.2	10	HIS10	0.597	
138	   O	1816.245	546.819	-1860.448	O.2	10	HIS10	-0.568	
139	  CB	1815.595	544.260	-1858.321	C.3	10	HIS10	-0.007	
140	  CG	1816.881	543.550	-1858.013	C.2	10	HIS10	0.187	
141	 CD2	1817.262	543.214	-1856.720	C.2	10	HIS10	-0.221	
142	 ND1	1817.833	543.144	-1858.945	N.2	10	HIS10	-0.543	
143	 CE1	1818.740	542.586	-1858.122	C.2	10	HIS10	0.163	
144	 NE2	1818.477	542.583	-1856.787	N.pl3	10	HIS10	-0.280	
145	   H	1814.340	545.664	-1856.707	 H	10	HIS10	0.272	
146	  HA	1816.778	546.146	-1858.100	 H	10	HIS10	0.136	
147	 2HB	1815.231	543.893	-1859.301	 H	10	HIS10	0.037	
148	 3HB	1814.840	543.922	-1857.581	 H	10	HIS10	0.037	
149	 2HD	1816.676	543.429	-1855.831	 H	10	HIS10	0.186	
150	 1HE	1819.631	542.166	-1858.569	 H	10	HIS10	0.144	
151	 2HE	1819.044	542.206	-1856.014	 H	10	HIS10	0.334	
152	   N	1814.155	546.352	-1860.040	N.am	11	GLN11	-0.416	
153	  CA	1813.800	546.898	-1861.346	C.3	11	GLN11	-0.003	
154	   C	1814.263	548.330	-1861.480	C.2	11	GLN11	0.597	
155	   O	1814.859	548.730	-1862.477	O.2	11	GLN11	-0.568	
156	  CB	1812.269	546.793	-1861.527	C.3	11	GLN11	-0.004	
157	  CG	1811.700	547.290	-1862.897	C.3	11	GLN11	-0.064	
158	  CD	1810.184	547.273	-1863.126	C.2	11	GLN11	0.695	
159	 NE2	1809.385	546.831	-1862.189	N.pl3	11	GLN11	-0.941	
160	 OE1	1809.698	547.690	-1864.167	O.2	11	GLN11	-0.609	
161	   H	1813.442	545.979	-1859.429	 H	11	GLN11	0.272	
162	  HA	1814.310	546.307	-1862.129	 H	11	GLN11	0.085	
163	 2HB	1811.777	547.356	-1860.707	 H	11	GLN11	0.017	
164	 3HB	1811.963	545.738	-1861.381	 H	11	GLN11	0.017	
165	 2HG	1812.167	546.730	-1863.728	 H	11	GLN11	0.035	
166	 3HG	1811.993	548.341	-1863.076	 H	11	GLN11	0.035	
167	1HE2	1808.388	546.914	-1862.396	 H	11	GLN11	0.425	
168	2HE2	1809.848	546.562	-1861.318	 H	11	GLN11	0.425	
169	   N	1814.026	549.157	-1860.518	N.am	12	GLN12	-0.416	
170	  CA	1814.474	550.540	-1860.648	C.3	12	GLN12	-0.003	
171	   C	1815.963	550.607	-1860.886	C.2	12	GLN12	0.597	
172	   O	1816.450	551.315	-1861.766	O.2	12	GLN12	-0.568	
173	  CB	1814.083	551.309	-1859.366	C.3	12	GLN12	-0.004	
174	  CG	1814.442	552.831	-1859.337	C.3	12	GLN12	-0.064	
175	  CD	1814.140	553.646	-1858.074	C.2	12	GLN12	0.695	
176	 NE2	1813.573	553.071	-1857.044	N.pl3	12	GLN12	-0.941	
177	 OE1	1814.441	554.827	-1857.998	O.2	12	GLN12	-0.609	
178	   H	1813.537	548.852	-1859.689	 H	12	GLN12	0.272	
179	  HA	1813.974	550.994	-1861.523	 H	12	GLN12	0.085	
180	 2HB	1814.559	550.810	-1858.496	 H	12	GLN12	0.017	
181	 3HB	1812.993	551.201	-1859.202	 H	12	GLN12	0.017	
182	 2HG	1813.964	553.350	-1860.189	 H	12	GLN12	0.035	
183	 3HG	1815.526	552.973	-1859.504	 H	12	GLN12	0.035	
184	1HE2	1813.466	553.667	-1856.221	 H	12	GLN12	0.425	
185	2HE2	1813.410	552.067	-1857.146	 H	12	GLN12	0.425	
186	   N	1816.748	549.902	-1860.144	N.am	13	ARG13	-0.348	
187	  CA	1818.189	549.968	-1860.375	C.3	13	ARG13	-0.264	
188	   C	1818.525	549.595	-1861.800	C.2	13	ARG13	0.734	
189	   O	1819.293	550.266	-1862.485	O.2	13	ARG13	-0.589	
190	  CB	1818.903	549.031	-1859.360	C.3	13	ARG13	-0.001	
191	  CG	1820.448	549.185	-1859.280	C.3	13	ARG13	0.039	
192	  CD	1821.075	548.200	-1858.281	C.3	13	ARG13	0.049	
193	  NE	1822.552	548.408	-1858.231	N.pl3	13	ARG13	-0.530	
194	  CZ	1823.401	547.718	-1857.475	C.cat	13	ARG13	0.808	
195	 NH1	1823.036	546.754	-1856.676	N.pl3	13	ARG13	-0.863	
196	 NH2	1824.660	548.017	-1857.532	N.pl3	13	ARG13	-0.863	
197	   H	1816.373	549.313	-1859.415	 H	13	ARG13	0.275	
198	  HA	1818.513	551.015	-1860.219	 H	13	ARG13	0.156	
199	 2HB	1818.637	547.980	-1859.598	 H	13	ARG13	0.033	
200	 3HB	1818.478	549.199	-1858.350	 H	13	ARG13	0.033	
201	 2HG	1820.695	550.231	-1859.002	 H	13	ARG13	0.029	
202	 3HG	1820.898	549.028	-1860.281	 H	13	ARG13	0.029	
203	 2HD	1820.831	547.159	-1858.588	 H	13	ARG13	0.069	
204	 3HD	1820.619	548.347	-1857.278	 H	13	ARG13	0.069	
205	  HE	1823.003	549.129	-1858.803	 H	13	ARG13	0.346	
206	1HH1	1822.031	546.568	-1856.678	 H	13	ARG13	0.448	
207	2HH1	1823.750	546.273	-1856.126	 H	13	ARG13	0.448	
208	1HH2	1824.927	548.774	-1858.165	 H	13	ARG13	0.448	
209	2HH2	1825.296	547.477	-1856.943	 H	13	ARG13	0.448	
210	   N	1817.989	548.539	-1862.313	N.am	14	VAL14	-0.416	
211	  CA	1818.314	548.178	-1863.690	C.3	14	VAL14	-0.087	
212	   C	1817.983	549.306	-1864.637	C.2	14	VAL14	0.597	
213	   O	1818.776	549.687	-1865.507	O.2	14	VAL14	-0.568	
214	  CB	1817.542	546.860	-1864.094	C.3	14	VAL14	0.299	
215	 CG1	1817.631	546.439	-1865.587	C.3	14	VAL14	-0.319	
216	 CG2	1817.975	545.609	-1863.292	C.3	14	VAL14	-0.319	
217	   H	1817.355	547.971	-1861.770	 H	14	VAL14	0.272	
218	  HA	1819.402	548.002	-1863.764	 H	14	VAL14	0.097	
219	  HB	1816.466	547.031	-1863.878	 H	14	VAL14	-0.030	
220	1HG1	1818.672	546.262	-1865.916	 H	14	VAL14	0.079	
221	2HG1	1817.059	545.515	-1865.798	 H	14	VAL14	0.079	
222	3HG1	1817.202	547.200	-1866.266	 H	14	VAL14	0.079	
223	1HG2	1817.888	545.769	-1862.202	 H	14	VAL14	0.079	
224	2HG2	1817.340	544.732	-1863.523	 H	14	VAL14	0.079	
225	3HG2	1819.023	545.320	-1863.498	 H	14	VAL14	0.079	
226	   N	1816.838	549.892	-1864.536	N.am	15	MET15	-0.416	
227	  CA	1816.516	550.983	-1865.451	C.3	15	MET15	-0.024	
228	   C	1817.546	552.083	-1865.365	C.2	15	MET15	0.597	
229	   O	1818.048	552.593	-1866.379	O.2	15	MET15	-0.568	
230	  CB	1815.095	551.528	-1865.142	C.3	15	MET15	0.034	
231	  CG	1813.933	550.529	-1865.332	C.3	15	MET15	0.002	
232	  SD	1812.359	551.394	-1865.218	S.3	15	MET15	-0.274	
233	  CE	1811.279	549.964	-1865.079	C.3	15	MET15	-0.054	
234	   H	1816.173	549.599	-1863.833	 H	15	MET15	0.272	
235	  HA	1816.542	550.594	-1866.486	 H	15	MET15	0.088	
236	 2HB	1814.892	552.405	-1865.786	 H	15	MET15	0.024	
237	 3HB	1815.059	551.922	-1864.106	 H	15	MET15	0.024	
238	 2HG	1813.977	549.744	-1864.553	 H	15	MET15	0.044	
239	 3HG	1813.996	550.012	-1866.307	 H	15	MET15	0.044	
240	 1HE	1811.422	549.274	-1865.931	 H	15	MET15	0.068	
241	 2HE	1811.489	549.412	-1864.146	 H	15	MET15	0.068	
242	 3HE	1810.221	550.278	-1865.063	 H	15	MET15	0.068	
243	   N	1817.915	552.507	-1864.204	N.am	16	ARG16	-0.348	
244	  CA	1818.911	553.571	-1864.122	C.3	16	ARG16	-0.264	
245	   C	1820.181	553.178	-1864.838	C.2	16	ARG16	0.734	
246	   O	1820.296	552.101	-1865.418	O.2	16	ARG16	-0.589	
247	  CB	1819.180	553.892	-1862.624	C.3	16	ARG16	-0.001	
248	  CG	1820.004	555.182	-1862.354	C.3	16	ARG16	0.039	
249	  CD	1820.254	555.404	-1860.853	C.3	16	ARG16	0.049	
250	  NE	1821.029	556.664	-1860.654	N.pl3	16	ARG16	-0.530	
251	  CZ	1821.421	557.148	-1859.480	C.cat	16	ARG16	0.808	
252	 NH1	1821.174	556.565	-1858.340	N.pl3	16	ARG16	-0.863	
253	 NH2	1822.084	558.261	-1859.463	N.pl3	16	ARG16	-0.863	
254	   H	1817.521	552.108	-1863.364	 H	16	ARG16	0.275	
255	  HA	1818.501	554.463	-1864.633	 H	16	ARG16	0.156	
256	 2HB	1819.677	553.017	-1862.157	 H	16	ARG16	0.033	
257	 3HB	1818.211	553.973	-1862.090	 H	16	ARG16	0.033	
258	 2HG	1819.473	556.052	-1862.792	 H	16	ARG16	0.029	
259	 3HG	1820.978	555.129	-1862.883	 H	16	ARG16	0.029	
260	 2HD	1820.804	554.530	-1860.438	 H	16	ARG16	0.069	
261	 3HD	1819.281	555.447	-1860.317	 H	16	ARG16	0.069	
262	  HE	1821.307	557.244	-1861.453	 H	16	ARG16	0.346	
263	1HH1	1820.649	555.692	-1858.423	 H	16	ARG16	0.448	
264	2HH1	1821.508	557.003	-1857.480	 H	16	ARG16	0.448	
265	1HH2	1822.269	558.703	-1860.366	 H	16	ARG16	0.448	
266	2HH2	1822.374	558.618	-1858.551	 H	16	ARG16	0.448	
@<TRIPOS>BOND
1 1 2 1
2 1 10 1
3 2 3 1
4 2 5 1
5 2 11 1
6 3 4 2
7 3 16 1
8 5 6 1
9 6 7 1
10 7 8 2
11 7 9 1
12 5 12 1
13 5 13 1
14 6 14 1
15 6 15 1
16 16 17 1
17 16 24 1
18 17 18 1
19 17 20 1
20 17 25 1
21 18 19 2
22 18 30 1
23 20 21 1
24 21 22 1
25 21 23 2
26 20 26 1
27 20 27 1
28 22 28 1
29 22 29 1
30 30 31 1
31 30 36 1
32 31 32 1
33 31 34 1
34 31 37 1
35 32 33 2
36 32 44 1
37 34 35 1
38 35 36 1
39 34 38 1
40 34 39 1
41 35 40 1
42 35 41 1
43 36 42 1
44 36 43 1
45 44 45 1
46 44 53 1
47 45 46 1
48 45 48 1
49 45 54 1
50 46 47 2
51 46 59 1
52 48 49 1
53 49 50 1
54 50 51 2
55 50 52 1
56 48 55 1
57 48 56 1
58 49 57 1
59 49 58 1
60 59 60 1
61 59 65 1
62 60 61 1
63 60 63 1
64 60 66 1
65 61 62 2
66 61 70 1
67 63 64 1
68 63 67 1
69 63 68 1
70 64 69 1
71 70 71 1
72 70 78 1
73 71 72 1
74 71 74 1
75 71 79 1
76 72 73 2
77 72 89 1
78 74 75 1
79 74 76 1
80 75 77 1
81 74 80 1
82 75 81 1
83 75 82 1
84 76 83 1
85 76 84 1
86 76 85 1
87 77 86 1
88 77 87 1
89 77 88 1
90 89 90 1
91 89 97 1
92 90 91 1
93 90 93 1
94 90 98 1
95 91 92 2
96 91 108 1
97 93 94 1
98 94 95 1
99 94 96 1
100 93 99 1
101 93 100 1
102 94 101 1
103 95 102 1
104 95 103 1
105 95 104 1
106 96 105 1
107 96 106 1
108 96 107 1
109 108 109 1
110 108 116 1
111 109 110 1
112 109 112 1
113 109 117 1
114 110 111 2
115 110 120 1
116 112 113 1
117 113 114 2
118 113 115 1
119 112 118 1
120 112 119 1
121 120 121 1
122 120 129 1
123 121 122 1
124 121 124 1
125 121 130 1
126 122 123 2
127 122 135 1
128 124 125 1
129 125 126 1
130 126 127 2
131 126 128 1
132 124 131 1
133 124 132 1
134 125 133 1
135 125 134 1
136 135 136 1
137 135 145 1
138 136 137 1
139 136 139 1
140 136 146 1
141 137 138 2
142 137 152 1
143 139 140 1
144 140 141 2
145 141 144 1
146 140 142 1
147 142 143 2
148 143 144 1
149 139 147 1
150 139 148 1
151 141 149 1
152 143 150 1
153 144 151 1
154 152 153 1
155 152 161 1
156 153 154 1
157 153 156 1
158 153 162 1
159 154 155 2
160 154 169 1
161 156 157 1
162 157 158 1
163 158 159 1
164 158 160 2
165 156 163 1
166 156 164 1
167 157 165 1
168 157 166 1
169 159 167 1
170 159 168 1
171 169 170 1
172 169 178 1
173 170 171 1
174 170 173 1
175 170 179 1
176 171 172 2
177 171 186 1
178 173 174 1
179 174 175 1
180 175 176 1
181 175 177 2
182 173 180 1
183 173 181 1
184 174 182 1
185 174 183 1
186 176 184 1
187 176 185 1
188 186 187 1
189 186 197 1
190 187 188 1
191 187 190 1
192 187 198 1
193 188 189 2
194 188 210 1
195 190 191 1
196 191 192 1
197 192 193 1
198 193 194 1
199 194 195 2
200 194 196 1
201 190 199 1
202 190 200 1
203 191 201 1
204 191 202 1
205 192 203 1
206 192 204 1
207 193 205 1
208 195 206 1
209 195 207 1
210 196 208 1
211 196 209 1
212 210 211 1
213 210 217 1
214 211 212 1
215 211 214 1
216 211 218 1
217 212 213 2
218 212 226 1
219 214 215 1
220 214 216 1
221 214 219 1
222 215 220 1
223 215 221 1
224 215 222 1
225 216 223 1
226 216 224 1
227 216 225 1
228 226 227 1
229 226 234 1
230 227 228 1
231 227 230 1
232 227 235 1
233 228 229 2
234 228 243 1
235 230 231 1
236 231 232 1
237 232 233 1
238 230 236 1
239 230 237 1
240 231 238 1
241 231 239 1
242 233 240 1
243 233 241 1
244 233 242 1
245 243 244 1
246 243 254 1
247 244 245 1
248 244 247 1
249 244 255 1
250 245 246 2
251 247 248 1
252 248 249 1
253 249 250 1
254 250 251 1
255 251 252 2
256 251 253 1
257 247 256 1
258 247 257 1
259 248 258 1
260 248 259 1
261 249 260 1
262 249 261 1
263 250 262 1
264 252 263 1
265 252 264 1
266 253 265 1
267 253 266 1
@<TRIPOS>SUBSTRUCTURE
1	GLU1	1	RESIDUE	1 ****	GLU
2	ASN2	16	RESIDUE	1 ****	ASN
3	PRO3	30	RESIDUE	1 ****	PRO
4	GLU4	44	RESIDUE	1 ****	GLU
5	SER5	59	RESIDUE	1 ****	SER
6	ILE6	70	RESIDUE	1 ****	ILE
7	LEU7	89	RESIDUE	1 ****	LEU
8	ASP8	108	RESIDUE	1 ****	ASP
9	GLU9	120	RESIDUE	1 ****	GLU
10	HIS10	135	RESIDUE	1 ****	HIS
11	GLN11	152	RESIDUE	1 ****	GLN
12	GLN12	169	RESIDUE	1 ****	GLN
13	ARG13	186	RESIDUE	1 ****	ARG
14	VAL14	210	RESIDUE	1 ****	VAL
15	MET15	226	RESIDUE	1 ****	MET
16	ARG16	243	RESIDUE	1 ****	ARG
