@<TRIPOS>MOLECULE
8-4
269 270 16              
SMALL
USER_CHARGES
@<TRIPOS>ATOM
1	   N	1214.835	348.848	-1209.069	N.3	1	GLU1	-0.516	
2	  CA	1215.394	350.197	-1209.069	C.3	1	GLU1	0.040	
3	   C	1216.903	350.157	-1209.069	C.2	1	GLU1	0.537	
4	   O	1217.579	350.856	-1209.837	O.2	1	GLU1	-0.582	
5	  CB	1214.871	350.982	-1207.832	C.3	1	GLU1	0.056	
6	  CG	1215.346	352.467	-1207.721	C.3	1	GLU1	0.014	
7	  CD	1214.922	353.271	-1206.506	C.2	1	GLU1	0.805	
8	 OE1	1214.194	352.769	-1205.628	O.co2	1	GLU1	-0.819	
9	 OE2	1215.352	354.441	-1206.434	O.co2	1	GLU1	-0.819	
10	   H	1215.462	347.969	-1209.069	 H	1	GLU1	0.294	
11	  HA	1215.068	350.715	-1209.989	 H	1	GLU1	0.111	
12	 2HB	1215.160	350.451	-1206.902	 H	1	GLU1	-0.017	
13	 3HB	1213.764	350.972	-1207.819	 H	1	GLU1	-0.017	
14	 2HG	1215.036	353.052	-1208.602	 H	1	GLU1	-0.043	
15	 3HG	1216.446	352.534	-1207.692	 H	1	GLU1	-0.043	
16	   N	1217.507	349.371	-1208.244	N.am	2	ASN2	-0.416	
17	  CA	1218.967	349.332	-1208.244	C.3	2	ASN2	0.014	
18	   C	1219.498	348.977	-1209.612	C.2	2	ASN2	0.597	
19	   O	1220.413	349.607	-1210.141	O.2	2	ASN2	-0.568	
20	  CB	1219.459	348.309	-1207.179	C.3	2	ASN2	-0.204	
21	  CG	1218.996	348.533	-1205.736	C.2	2	ASN2	0.713	
22	 ND2	1219.590	349.448	-1205.018	N.pl3	2	ASN2	-0.919	
23	 OD1	1218.075	347.899	-1205.242	O.2	2	ASN2	-0.593	
24	   H	1216.979	348.791	-1207.607	 H	2	ASN2	0.272	
25	  HA	1219.344	350.342	-1207.998	 H	2	ASN2	0.105	
26	 2HB	1220.563	348.250	-1207.183	 H	2	ASN2	0.080	
27	 3HB	1219.130	347.291	-1207.465	 H	2	ASN2	0.080	
28	1HD2	1219.109	349.621	-1204.131	 H	2	ASN2	0.420	
29	2HD2	1220.292	350.020	-1205.487	 H	2	ASN2	0.420	
30	   N	1218.976	347.982	-1210.246	N.am	3	PRO3	-0.255	
31	  CA	1219.428	347.572	-1211.568	C.3	3	PRO3	-0.027	
32	   C	1219.030	348.596	-1212.645	C.2	3	PRO3	0.590	
33	   O	1219.853	348.979	-1213.476	O.2	3	PRO3	-0.575	
34	  CB	1218.724	346.218	-1211.737	C.3	3	PRO3	-0.007	
35	  CG	1217.441	346.370	-1210.907	C.3	3	PRO3	0.019	
36	  CD	1217.898	347.188	-1209.697	C.3	3	PRO3	0.019	
37	  HA	1220.514	347.452	-1211.582	 H	3	PRO3	0.064	
38	 2HB	1219.347	345.436	-1211.296	 H	3	PRO3	0.025	
39	 3HB	1218.526	345.969	-1212.782	 H	3	PRO3	0.025	
40	 2HG	1217.013	345.407	-1210.616	 H	3	PRO3	0.021	
41	 3HG	1216.703	346.941	-1211.474	 H	3	PRO3	0.021	
42	 2HD	1218.288	346.539	-1208.910	 H	3	PRO3	0.039	
43	 3HD	1217.102	347.824	-1209.304	 H	3	PRO3	0.039	
44	   N	1217.825	349.056	-1212.677	N.am	4	GLU4	-0.516	
45	  CA	1217.465	350.027	-1213.707	C.3	4	GLU4	0.040	
46	   C	1218.364	351.238	-1213.645	C.2	4	GLU4	0.537	
47	   O	1218.890	351.718	-1214.660	O.2	4	GLU4	-0.582	
48	  CB	1215.977	350.445	-1213.536	C.3	4	GLU4	0.056	
49	  CG	1215.428	351.449	-1214.602	C.3	4	GLU4	0.014	
50	  CD	1214.002	351.946	-1214.458	C.2	4	GLU4	0.805	
51	 OE1	1213.276	351.547	-1213.527	O.co2	4	GLU4	-0.819	
52	 OE2	1213.612	352.775	-1215.306	O.co2	4	GLU4	-0.819	
53	   H	1217.141	348.749	-1212.000	 H	4	GLU4	0.294	
54	  HA	1217.596	349.556	-1214.698	 H	4	GLU4	0.111	
55	 2HB	1215.824	350.885	-1212.529	 H	4	GLU4	-0.017	
56	 3HB	1215.329	349.548	-1213.542	 H	4	GLU4	-0.017	
57	 2HG	1215.510	351.034	-1215.619	 H	4	GLU4	-0.043	
58	 3HG	1216.016	352.381	-1214.613	 H	4	GLU4	-0.043	
59	   N	1218.592	351.791	-1212.502	N.am	5	SER5	-0.416	
60	  CA	1219.461	352.962	-1212.444	C.3	5	SER5	-0.025	
61	   C	1220.820	352.657	-1213.030	C.2	5	SER5	0.597	
62	   O	1221.367	353.410	-1213.834	O.2	5	SER5	-0.568	
63	  CB	1219.573	353.494	-1210.993	C.3	5	SER5	0.212	
64	  OG	1220.305	352.615	-1210.132	O.3	5	SER5	-0.655	
65	   H	1218.175	351.419	-1211.661	 H	5	SER5	0.272	
66	  HA	1219.012	353.752	-1213.073	 H	5	SER5	0.084	
67	 2HB	1218.573	353.688	-1210.560	 H	5	SER5	0.035	
68	 3HB	1220.078	354.480	-1210.995	 H	5	SER5	0.035	
69	  HG	1219.816	351.790	-1210.082	 H	5	SER5	0.428	
70	   N	1221.425	351.574	-1212.676	N.am	6	ILE6	-0.416	
71	  CA	1222.738	351.279	-1213.242	C.3	6	ILE6	-0.060	
72	   C	1222.681	351.242	-1214.750	C.2	6	ILE6	0.597	
73	   O	1223.515	351.829	-1215.454	O.2	6	ILE6	-0.568	
74	  CB	1223.338	349.943	-1212.642	C.3	6	ILE6	0.130	
75	 CG1	1223.357	349.880	-1211.081	C.3	6	ILE6	-0.043	
76	 CG2	1224.779	349.641	-1213.158	C.3	6	ILE6	-0.320	
77	 CD1	1223.627	348.491	-1210.467	C.3	6	ILE6	-0.066	
78	   H	1220.996	350.939	-1212.017	 H	6	ILE6	0.272	
79	  HA	1223.412	352.113	-1212.974	 H	6	ILE6	0.087	
80	  HB	1222.680	349.117	-1212.986	 H	6	ILE6	0.019	
81	2HG1	1222.375	350.200	-1210.685	 H	6	ILE6	0.024	
82	3HG1	1224.073	350.622	-1210.677	 H	6	ILE6	0.024	
83	1HG2	1224.838	349.548	-1214.256	 H	6	ILE6	0.088	
84	2HG2	1225.501	350.424	-1212.856	 H	6	ILE6	0.088	
85	3HG2	1225.169	348.679	-1212.779	 H	6	ILE6	0.088	
86	1HD1	1222.899	347.737	-1210.821	 H	6	ILE6	0.019	
87	2HD1	1224.638	348.112	-1210.702	 H	6	ILE6	0.019	
88	3HD1	1223.551	348.521	-1209.364	 H	6	ILE6	0.019	
89	   N	1221.735	350.578	-1215.323	N.am	7	LEU7	-0.416	
90	  CA	1221.680	350.542	-1216.782	C.3	7	LEU7	-0.052	
91	   C	1221.607	351.938	-1217.354	C.2	7	LEU7	0.597	
92	   O	1222.328	352.301	-1218.296	O.2	7	LEU7	-0.568	
93	  CB	1220.477	349.682	-1217.262	C.3	7	LEU7	-0.110	
94	  CG	1220.404	348.203	-1216.796	C.3	7	LEU7	0.353	
95	 CD1	1219.214	347.497	-1217.462	C.3	7	LEU7	-0.412	
96	 CD2	1221.697	347.424	-1217.088	C.3	7	LEU7	-0.412	
97	   H	1221.043	350.091	-1214.772	 H	7	LEU7	0.272	
98	  HA	1222.621	350.102	-1217.156	 H	7	LEU7	0.092	
99	 2HB	1220.453	349.698	-1218.370	 H	7	LEU7	0.046	
100	 3HB	1219.537	350.185	-1216.958	 H	7	LEU7	0.046	
101	  HG	1220.234	348.194	-1215.699	 H	7	LEU7	-0.036	
102	1HD1	1218.257	348.006	-1217.239	 H	7	LEU7	0.100	
103	2HD1	1219.313	347.457	-1218.563	 H	7	LEU7	0.100	
104	3HD1	1219.107	346.456	-1217.106	 H	7	LEU7	0.100	
105	1HD2	1221.973	347.454	-1218.158	 H	7	LEU7	0.100	
106	2HD2	1222.551	347.835	-1216.517	 H	7	LEU7	0.100	
107	3HD2	1221.616	346.361	-1216.792	 H	7	LEU7	0.100	
108	   N	1220.770	352.778	-1216.848	N.am	8	VAL8	-0.416	
109	  CA	1220.699	354.128	-1217.401	C.3	8	VAL8	-0.087	
110	   C	1222.047	354.807	-1217.343	C.2	8	VAL8	0.597	
111	   O	1222.520	355.411	-1218.314	O.2	8	VAL8	-0.568	
112	  CB	1219.612	354.970	-1216.622	C.3	8	VAL8	0.299	
113	 CG1	1219.539	356.484	-1216.962	C.3	8	VAL8	-0.319	
114	 CG2	1218.167	354.443	-1216.798	C.3	8	VAL8	-0.319	
115	   H	1220.172	352.507	-1216.080	 H	8	VAL8	0.272	
116	  HA	1220.416	354.062	-1218.467	 H	8	VAL8	0.097	
117	  HB	1219.856	354.900	-1215.541	 H	8	VAL8	-0.030	
118	1HG1	1219.319	356.668	-1218.031	 H	8	VAL8	0.079	
119	2HG1	1218.764	357.010	-1216.372	 H	8	VAL8	0.079	
120	3HG1	1220.481	357.015	-1216.729	 H	8	VAL8	0.079	
121	1HG2	1218.081	353.377	-1216.517	 H	8	VAL8	0.079	
122	2HG2	1217.449	354.986	-1216.154	 H	8	VAL8	0.079	
123	3HG2	1217.810	354.536	-1217.841	 H	8	VAL8	0.079	
124	   N	1222.726	354.756	-1216.247	N.am	9	GLU9	-0.516	
125	  CA	1224.029	355.412	-1216.190	C.3	9	GLU9	0.040	
126	   C	1224.947	354.885	-1217.266	C.2	9	GLU9	0.537	
127	   O	1225.613	355.639	-1217.990	O.2	9	GLU9	-0.582	
128	  CB	1224.661	355.203	-1214.785	C.3	9	GLU9	0.056	
129	  CG	1226.044	355.894	-1214.554	C.3	9	GLU9	0.014	
130	  CD	1226.745	355.679	-1213.225	C.2	9	GLU9	0.805	
131	 OE1	1226.222	354.988	-1212.330	O.co2	9	GLU9	-0.819	
132	 OE2	1227.865	356.216	-1213.092	O.co2	9	GLU9	-0.819	
133	   H	1222.361	354.269	-1215.440	 H	9	GLU9	0.294	
134	  HA	1223.888	356.494	-1216.365	 H	9	GLU9	0.111	
135	 2HB	1224.773	354.118	-1214.582	 H	9	GLU9	-0.017	
136	 3HB	1223.964	355.556	-1214.001	 H	9	GLU9	-0.017	
137	 2HG	1225.973	356.985	-1214.693	 H	9	GLU9	-0.043	
138	 3HG	1226.791	355.549	-1215.287	 H	9	GLU9	-0.043	
139	   N	1225.043	353.610	-1217.436	N.am	10	HIS10	-0.416	
140	  CA	1225.931	353.098	-1218.476	C.3	10	HIS10	-0.058	
141	   C	1225.566	353.664	-1219.827	C.2	10	HIS10	0.597	
142	   O	1226.420	354.128	-1220.598	O.2	10	HIS10	-0.568	
143	  CB	1225.766	351.569	-1218.472	C.3	10	HIS10	-0.007	
144	  CG	1227.050	350.858	-1218.164	C.2	10	HIS10	0.187	
145	 CD2	1227.430	350.521	-1216.871	C.2	10	HIS10	-0.221	
146	 ND1	1228.003	350.451	-1219.096	N.2	10	HIS10	-0.543	
147	 CE1	1228.908	349.892	-1218.272	C.2	10	HIS10	0.163	
148	 NE2	1228.644	349.888	-1216.937	N.pl3	10	HIS10	-0.280	
149	   H	1224.511	352.974	-1216.858	 H	10	HIS10	0.272	
150	  HA	1226.950	353.454	-1218.250	 H	10	HIS10	0.136	
151	 2HB	1225.401	351.204	-1219.453	 H	10	HIS10	0.037	
152	 3HB	1225.009	351.232	-1217.733	 H	10	HIS10	0.037	
153	 2HD	1226.844	350.736	-1215.982	 H	10	HIS10	0.186	
154	 1HE	1229.799	349.470	-1218.719	 H	10	HIS10	0.144	
155	 2HE	1229.210	349.510	-1216.164	 H	10	HIS10	0.334	
156	   N	1224.328	353.664	-1220.191	N.am	11	VAL11	-0.416	
157	  CA	1223.975	354.211	-1221.498	C.3	11	VAL11	-0.087	
158	   C	1224.441	355.642	-1221.629	C.2	11	VAL11	0.597	
159	   O	1225.043	356.047	-1222.631	O.2	11	VAL11	-0.568	
160	  CB	1222.414	354.106	-1221.719	C.3	11	VAL11	0.299	
161	 CG1	1221.847	354.811	-1222.981	C.3	11	VAL11	-0.319	
162	 CG2	1221.888	352.653	-1221.793	C.3	11	VAL11	-0.319	
163	   H	1223.615	353.292	-1219.581	 H	11	VAL11	0.272	
164	  HA	1224.495	353.629	-1222.280	 H	11	VAL11	0.097	
165	  HB	1221.926	354.586	-1220.844	 H	11	VAL11	-0.030	
166	1HG1	1222.286	354.420	-1223.918	 H	11	VAL11	0.079	
167	2HG1	1220.748	354.705	-1223.064	 H	11	VAL11	0.079	
168	3HG1	1222.026	355.904	-1222.971	 H	11	VAL11	0.079	
169	1HG2	1222.176	352.065	-1220.903	 H	11	VAL11	0.079	
170	2HG2	1220.782	352.617	-1221.837	 H	11	VAL11	0.079	
171	3HG2	1222.270	352.112	-1222.680	 H	11	VAL11	0.079	
172	   N	1224.204	356.467	-1220.667	N.am	12	GLN12	-0.416	
173	  CA	1224.653	357.850	-1220.793	C.3	12	GLN12	-0.003	
174	   C	1226.144	357.916	-1221.029	C.2	12	GLN12	0.597	
175	   O	1226.632	358.624	-1221.907	O.2	12	GLN12	-0.568	
176	  CB	1224.262	358.617	-1219.510	C.3	12	GLN12	-0.004	
177	  CG	1224.624	360.138	-1219.478	C.3	12	GLN12	-0.064	
178	  CD	1224.321	360.951	-1218.213	C.2	12	GLN12	0.695	
179	 NE2	1223.753	360.375	-1217.184	N.pl3	12	GLN12	-0.941	
180	 OE1	1224.624	362.132	-1218.134	O.2	12	GLN12	-0.609	
181	   H	1223.714	356.161	-1219.838	 H	12	GLN12	0.272	
182	  HA	1224.155	358.307	-1221.668	 H	12	GLN12	0.085	
183	 2HB	1224.737	358.116	-1218.640	 H	12	GLN12	0.017	
184	 3HB	1223.172	358.510	-1219.347	 H	12	GLN12	0.017	
185	 2HG	1224.147	360.660	-1220.328	 H	12	GLN12	0.035	
186	 3HG	1225.708	360.280	-1219.642	 H	12	GLN12	0.035	
187	1HE2	1223.646	360.969	-1216.361	 H	12	GLN12	0.425	
188	2HE2	1223.589	359.372	-1217.288	 H	12	GLN12	0.425	
189	   N	1226.927	357.208	-1220.288	N.am	13	ARG13	-0.348	
190	  CA	1228.368	357.273	-1220.518	C.3	13	ARG13	-0.264	
191	   C	1228.704	356.902	-1221.943	C.2	13	ARG13	0.734	
192	   O	1229.474	357.573	-1222.626	O.2	13	ARG13	-0.589	
193	  CB	1229.079	356.332	-1219.504	C.3	13	ARG13	-0.001	
194	  CG	1230.624	356.484	-1219.422	C.3	13	ARG13	0.039	
195	  CD	1231.249	355.495	-1218.424	C.3	13	ARG13	0.049	
196	  NE	1232.727	355.701	-1218.373	N.pl3	13	ARG13	-0.530	
197	  CZ	1233.573	355.008	-1217.617	C.cat	13	ARG13	0.808	
198	 NH1	1233.207	354.043	-1216.821	N.pl3	13	ARG13	-0.863	
199	 NH2	1234.833	355.306	-1217.673	N.pl3	13	ARG13	-0.863	
200	   H	1226.550	356.618	-1219.560	 H	13	ARG13	0.275	
201	  HA	1228.693	358.318	-1220.359	 H	13	ARG13	0.156	
202	 2HB	1228.812	355.282	-1219.744	 H	13	ARG13	0.033	
203	 3HB	1228.653	356.499	-1218.494	 H	13	ARG13	0.033	
204	 2HG	1230.873	357.528	-1219.142	 H	13	ARG13	0.029	
205	 3HG	1231.075	356.328	-1220.423	 H	13	ARG13	0.029	
206	 2HD	1231.004	354.455	-1218.734	 H	13	ARG13	0.069	
207	 3HD	1230.792	355.640	-1217.422	 H	13	ARG13	0.069	
208	  HE	1233.179	356.423	-1218.943	 H	13	ARG13	0.346	
209	1HH1	1232.201	353.858	-1216.824	 H	13	ARG13	0.448	
210	2HH1	1233.919	353.559	-1216.272	 H	13	ARG13	0.448	
211	1HH2	1235.102	356.064	-1218.303	 H	13	ARG13	0.448	
212	2HH2	1235.468	354.763	-1217.084	 H	13	ARG13	0.448	
213	   N	1228.167	355.848	-1222.458	N.am	14	VAL14	-0.416	
214	  CA	1228.493	355.489	-1223.836	C.3	14	VAL14	-0.087	
215	   C	1228.165	356.620	-1224.781	C.2	14	VAL14	0.597	
216	   O	1228.959	357.001	-1225.650	O.2	14	VAL14	-0.568	
217	  CB	1227.719	354.173	-1224.244	C.3	14	VAL14	0.299	
218	 CG1	1227.809	353.755	-1225.738	C.3	14	VAL14	-0.319	
219	 CG2	1228.150	352.920	-1223.444	C.3	14	VAL14	-0.319	
220	   H	1227.532	355.280	-1221.917	 H	14	VAL14	0.272	
221	  HA	1229.581	355.311	-1223.910	 H	14	VAL14	0.097	
222	  HB	1226.643	354.345	-1224.029	 H	14	VAL14	-0.030	
223	1HG1	1228.850	353.578	-1226.066	 H	14	VAL14	0.079	
224	2HG1	1227.235	352.833	-1225.952	 H	14	VAL14	0.079	
225	3HG1	1227.381	354.519	-1226.416	 H	14	VAL14	0.079	
226	1HG2	1228.062	353.078	-1222.354	 H	14	VAL14	0.079	
227	2HG2	1227.513	352.044	-1223.677	 H	14	VAL14	0.079	
228	3HG2	1229.197	352.629	-1223.650	 H	14	VAL14	0.079	
229	   N	1227.020	357.207	-1224.680	N.am	15	MET15	-0.416	
230	  CA	1226.702	358.300	-1225.593	C.3	15	MET15	-0.024	
231	   C	1227.733	359.399	-1225.504	C.2	15	MET15	0.597	
232	   O	1228.237	359.910	-1226.515	O.2	15	MET15	-0.568	
233	  CB	1225.281	358.847	-1225.285	C.3	15	MET15	0.034	
234	  CG	1224.118	357.851	-1225.478	C.3	15	MET15	0.002	
235	  SD	1222.545	358.719	-1225.364	S.3	15	MET15	-0.274	
236	  CE	1221.462	357.290	-1225.230	C.3	15	MET15	-0.054	
237	   H	1226.355	356.914	-1223.979	 H	15	MET15	0.272	
238	  HA	1226.728	357.914	-1226.629	 H	15	MET15	0.088	
239	 2HB	1225.080	359.727	-1225.927	 H	15	MET15	0.024	
240	 3HB	1225.245	359.239	-1224.248	 H	15	MET15	0.024	
241	 2HG	1224.159	357.064	-1224.701	 H	15	MET15	0.044	
242	 3HG	1224.181	357.336	-1226.455	 H	15	MET15	0.044	
243	 1HE	1221.606	356.602	-1226.082	 H	15	MET15	0.068	
244	 2HE	1221.670	356.737	-1224.297	 H	15	MET15	0.068	
245	 3HE	1220.405	357.606	-1225.214	 H	15	MET15	0.068	
246	   N	1228.101	359.819	-1224.341	N.am	16	ARG16	-0.348	
247	  CA	1229.099	360.882	-1224.255	C.3	16	ARG16	-0.264	
248	   C	1230.370	360.488	-1224.971	C.2	16	ARG16	0.734	
249	   O	1230.483	359.412	-1225.553	O.2	16	ARG16	-0.589	
250	  CB	1229.367	361.198	-1222.756	C.3	16	ARG16	-0.001	
251	  CG	1230.193	362.486	-1222.482	C.3	16	ARG16	0.039	
252	  CD	1230.442	362.704	-1220.980	C.3	16	ARG16	0.049	
253	  NE	1231.219	363.962	-1220.778	N.pl3	16	ARG16	-0.530	
254	  CZ	1231.610	364.443	-1219.602	C.cat	16	ARG16	0.808	
255	 NH1	1231.361	363.858	-1218.464	N.pl3	16	ARG16	-0.863	
256	 NH2	1232.275	365.555	-1219.582	N.pl3	16	ARG16	-0.863	
257	   H	1227.705	359.419	-1223.502	 H	16	ARG16	0.275	
258	  HA	1228.691	361.775	-1224.765	 H	16	ARG16	0.156	
259	 2HB	1229.863	360.321	-1222.290	 H	16	ARG16	0.033	
260	 3HB	1228.398	361.280	-1222.224	 H	16	ARG16	0.033	
261	 2HG	1229.664	363.358	-1222.919	 H	16	ARG16	0.029	
262	 3HG	1231.167	362.432	-1223.010	 H	16	ARG16	0.029	
263	 2HD	1230.989	361.828	-1220.567	 H	16	ARG16	0.069	
264	 3HD	1229.469	362.747	-1220.446	 H	16	ARG16	0.069	
265	  HE	1231.499	364.543	-1221.574	 H	16	ARG16	0.346	
266	1HH1	1230.834	362.986	-1218.549	 H	16	ARG16	0.448	
267	2HH1	1231.695	364.293	-1217.602	 H	16	ARG16	0.448	
268	1HH2	1232.462	365.998	-1220.483	 H	16	ARG16	0.448	
269	2HH2	1232.565	365.909	-1218.668	 H	16	ARG16	0.448	
@<TRIPOS>BOND
1 1 2 1
2 1 10 1
3 2 3 1
4 2 5 1
5 2 11 1
6 3 4 2
7 3 16 1
8 5 6 1
9 6 7 1
10 7 8 2
11 7 9 1
12 5 12 1
13 5 13 1
14 6 14 1
15 6 15 1
16 16 17 1
17 16 24 1
18 17 18 1
19 17 20 1
20 17 25 1
21 18 19 2
22 18 30 1
23 20 21 1
24 21 22 1
25 21 23 2
26 20 26 1
27 20 27 1
28 22 28 1
29 22 29 1
30 30 31 1
31 30 36 1
32 31 32 1
33 31 34 1
34 31 37 1
35 32 33 2
36 32 44 1
37 34 35 1
38 35 36 1
39 34 38 1
40 34 39 1
41 35 40 1
42 35 41 1
43 36 42 1
44 36 43 1
45 44 45 1
46 44 53 1
47 45 46 1
48 45 48 1
49 45 54 1
50 46 47 2
51 46 59 1
52 48 49 1
53 49 50 1
54 50 51 2
55 50 52 1
56 48 55 1
57 48 56 1
58 49 57 1
59 49 58 1
60 59 60 1
61 59 65 1
62 60 61 1
63 60 63 1
64 60 66 1
65 61 62 2
66 61 70 1
67 63 64 1
68 63 67 1
69 63 68 1
70 64 69 1
71 70 71 1
72 70 78 1
73 71 72 1
74 71 74 1
75 71 79 1
76 72 73 2
77 72 89 1
78 74 75 1
79 74 76 1
80 75 77 1
81 74 80 1
82 75 81 1
83 75 82 1
84 76 83 1
85 76 84 1
86 76 85 1
87 77 86 1
88 77 87 1
89 77 88 1
90 89 90 1
91 89 97 1
92 90 91 1
93 90 93 1
94 90 98 1
95 91 92 2
96 91 108 1
97 93 94 1
98 94 95 1
99 94 96 1
100 93 99 1
101 93 100 1
102 94 101 1
103 95 102 1
104 95 103 1
105 95 104 1
106 96 105 1
107 96 106 1
108 96 107 1
109 108 109 1
110 108 115 1
111 109 110 1
112 109 112 1
113 109 116 1
114 110 111 2
115 110 124 1
116 112 113 1
117 112 114 1
118 112 117 1
119 113 118 1
120 113 119 1
121 113 120 1
122 114 121 1
123 114 122 1
124 114 123 1
125 124 125 1
126 124 133 1
127 125 126 1
128 125 128 1
129 125 134 1
130 126 127 2
131 126 139 1
132 128 129 1
133 129 130 1
134 130 131 2
135 130 132 1
136 128 135 1
137 128 136 1
138 129 137 1
139 129 138 1
140 139 140 1
141 139 149 1
142 140 141 1
143 140 143 1
144 140 150 1
145 141 142 2
146 141 156 1
147 143 144 1
148 144 145 2
149 145 148 1
150 144 146 1
151 146 147 2
152 147 148 1
153 143 151 1
154 143 152 1
155 145 153 1
156 147 154 1
157 148 155 1
158 156 157 1
159 156 163 1
160 157 158 1
161 157 160 1
162 157 164 1
163 158 159 2
164 158 172 1
165 160 161 1
166 160 162 1
167 160 165 1
168 161 166 1
169 161 167 1
170 161 168 1
171 162 169 1
172 162 170 1
173 162 171 1
174 172 173 1
175 172 181 1
176 173 174 1
177 173 176 1
178 173 182 1
179 174 175 2
180 174 189 1
181 176 177 1
182 177 178 1
183 178 179 1
184 178 180 2
185 176 183 1
186 176 184 1
187 177 185 1
188 177 186 1
189 179 187 1
190 179 188 1
191 189 190 1
192 189 200 1
193 190 191 1
194 190 193 1
195 190 201 1
196 191 192 2
197 191 213 1
198 193 194 1
199 194 195 1
200 195 196 1
201 196 197 1
202 197 198 2
203 197 199 1
204 193 202 1
205 193 203 1
206 194 204 1
207 194 205 1
208 195 206 1
209 195 207 1
210 196 208 1
211 198 209 1
212 198 210 1
213 199 211 1
214 199 212 1
215 213 214 1
216 213 220 1
217 214 215 1
218 214 217 1
219 214 221 1
220 215 216 2
221 215 229 1
222 217 218 1
223 217 219 1
224 217 222 1
225 218 223 1
226 218 224 1
227 218 225 1
228 219 226 1
229 219 227 1
230 219 228 1
231 229 230 1
232 229 237 1
233 230 231 1
234 230 233 1
235 230 238 1
236 231 232 2
237 231 246 1
238 233 234 1
239 234 235 1
240 235 236 1
241 233 239 1
242 233 240 1
243 234 241 1
244 234 242 1
245 236 243 1
246 236 244 1
247 236 245 1
248 246 247 1
249 246 257 1
250 247 248 1
251 247 250 1
252 247 258 1
253 248 249 2
254 250 251 1
255 251 252 1
256 252 253 1
257 253 254 1
258 254 255 2
259 254 256 1
260 250 259 1
261 250 260 1
262 251 261 1
263 251 262 1
264 252 263 1
265 252 264 1
266 253 265 1
267 255 266 1
268 255 267 1
269 256 268 1
270 256 269 1
@<TRIPOS>SUBSTRUCTURE
1	GLU1	1	RESIDUE	1 ****	GLU
2	ASN2	16	RESIDUE	1 ****	ASN
3	PRO3	30	RESIDUE	1 ****	PRO
4	GLU4	44	RESIDUE	1 ****	GLU
5	SER5	59	RESIDUE	1 ****	SER
6	ILE6	70	RESIDUE	1 ****	ILE
7	LEU7	89	RESIDUE	1 ****	LEU
8	VAL8	108	RESIDUE	1 ****	VAL
9	GLU9	124	RESIDUE	1 ****	GLU
10	HIS10	139	RESIDUE	1 ****	HIS
11	VAL11	156	RESIDUE	1 ****	VAL
12	GLN12	172	RESIDUE	1 ****	GLN
13	ARG13	189	RESIDUE	1 ****	ARG
14	VAL14	213	RESIDUE	1 ****	VAL
15	MET15	229	RESIDUE	1 ****	MET
16	ARG16	246	RESIDUE	1 ****	ARG
