REMARK WARNING: 32 MAX_TORS EXCEEDED!!!
REMARK  66 active torsions:
REMARK  status: ('A' for Active; 'I' for Inactive)
REMARK    1  A    between atoms: N_1  and  CA_2 
REMARK    2  A    between atoms: CA_2  and  C_3 
REMARK    3  A    between atoms: CA_2  and  CB_5 
REMARK       I    between atoms: C_3  and  N_11 
REMARK    4  A    between atoms: CB_5  and  CG_6 
REMARK    5  A    between atoms: CG_6  and  CD_7 
REMARK    6  A    between atoms: N_11  and  CA_12 
REMARK    7  A    between atoms: CA_12  and  C_13 
REMARK    8  A    between atoms: CA_12  and  CB_15 
REMARK       I    between atoms: C_13  and  N_22 
REMARK    9  A    between atoms: CB_15  and  CG_16 
REMARK       I    between atoms: CG_16  and  ND2_17 
REMARK   10  A    between atoms: CA_23  and  C_24 
REMARK       I    between atoms: C_24  and  N_29 
REMARK   11  A    between atoms: N_29  and  CA_30 
REMARK   12  A    between atoms: CA_30  and  C_31 
REMARK   13  A    between atoms: CA_30  and  CB_33 
REMARK       I    between atoms: C_31  and  N_39 
REMARK   14  A    between atoms: CB_33  and  CG_34 
REMARK   15  A    between atoms: CG_34  and  CD_35 
REMARK   16  A    between atoms: N_39  and  CA_40 
REMARK   17  A    between atoms: CA_40  and  C_41 
REMARK   18  A    between atoms: CA_40  and  CB_43 
REMARK       I    between atoms: C_41  and  N_47 
REMARK   19  A    between atoms: CB_43  and  OG_44 
REMARK   20  A    between atoms: N_47  and  CA_48 
REMARK   21  A    between atoms: CA_48  and  C_49 
REMARK   22  A    between atoms: CA_48  and  CB_51 
REMARK       I    between atoms: C_49  and  N_56 
REMARK   23  A    between atoms: CB_51  and  CG1_52 
REMARK   24  A    between atoms: N_56  and  CA_57 
REMARK   25  A    between atoms: CA_57  and  C_58 
REMARK   26  A    between atoms: CA_57  and  CB_60 
REMARK       I    between atoms: C_58  and  N_65 
REMARK   27  A    between atoms: CB_60  and  CG_61 
REMARK   28  A    between atoms: N_65  and  CA_66 
REMARK   29  A    between atoms: CA_66  and  C_67 
REMARK   30  A    between atoms: CA_66  and  CB_69 
REMARK       I    between atoms: C_67  and  N_74 
REMARK   31  A    between atoms: CB_69  and  CG_70 
REMARK   32  A    between atoms: N_74  and  CA_75 
REMARK   33  A    between atoms: CA_75  and  C_76 
REMARK   34  A    between atoms: CA_75  and  CB_78 
REMARK       I    between atoms: C_76  and  N_84 
REMARK   35  A    between atoms: CB_78  and  CG_79 
REMARK   36  A    between atoms: CG_79  and  CD_80 
REMARK   37  A    between atoms: N_84  and  CA_85 
REMARK   38  A    between atoms: CA_85  and  C_86 
REMARK   39  A    between atoms: CA_85  and  CB_88 
REMARK       I    between atoms: C_86  and  N_96 
REMARK   40  A    between atoms: CB_88  and  CG_89 
REMARK   41  A    between atoms: N_96  and  CA_97 
REMARK   42  A    between atoms: CA_97  and  C_98 
REMARK   43  A    between atoms: CA_97  and  CB_100 
REMARK       I    between atoms: C_98  and  N_104 
REMARK   44  A    between atoms: N_104  and  CA_105 
REMARK   45  A    between atoms: CA_105  and  C_106 
REMARK   46  A    between atoms: CA_105  and  CB_108 
REMARK       I    between atoms: C_106  and  N_116 
REMARK   47  A    between atoms: CB_108  and  CG_109 
REMARK   48  A    between atoms: CG_109  and  CD_110 
REMARK       I    between atoms: CD_110  and  NE2_111 
REMARK   49  A    between atoms: N_116  and  CA_117 
REMARK   50  A    between atoms: CA_117  and  C_118 
REMARK   51  A    between atoms: CA_117  and  CB_120 
REMARK       I    between atoms: C_118  and  N_133 
REMARK   52  A    between atoms: CB_120  and  CG_121 
REMARK   53  A    between atoms: CG_121  and  CD_122 
REMARK   54  A    between atoms: CD_122  and  NE_123 
REMARK       I    between atoms: NE_123  and  CZ_124 
REMARK       I    between atoms: CZ_124  and  NH1_125 
REMARK       I    between atoms: CZ_124  and  NH2_126 
REMARK   55  A    between atoms: CA_134  and  C_135 
REMARK       I    between atoms: C_135  and  N_140 
REMARK   56  A    between atoms: N_140  and  CA_141 
REMARK   57  A    between atoms: CA_141  and  C_142 
REMARK   58  A    between atoms: CA_141  and  CB_144 
REMARK       I    between atoms: C_142  and  N_149 
REMARK   59  A    between atoms: CB_144  and  CG_145 
REMARK   60  A    between atoms: CG_145  and  SD_146 
REMARK   61  A    between atoms: N_149  and  CA_150 
REMARK   62  A    between atoms: CA_150  and  C_151 
REMARK   63  A    between atoms: CA_150  and  CB_153 
REMARK   64  A    between atoms: CB_153  and  CG_154 
REMARK   65  A    between atoms: CG_154  and  CD_155 
REMARK   66  A    between atoms: CD_155  and  NE_156 
REMARK       I    between atoms: NE_156  and  CZ_157 
REMARK       I    between atoms: CZ_157  and  NH1_158 
ROOT
ATOM      1  C   GLU d   9    2186.418 669.561-2265.803  0.00  0.00     0.241 C 
ATOM      2  O   GLU d   9    2187.082 670.315-2266.530  0.00  0.00    -0.271 OA
ATOM      3  N   HIS d  10    2186.514 668.286-2265.972  0.00  0.00    -0.346 N 
ATOM      4  H   HIS d  10    2185.984 667.651-2265.393  0.00  0.00     0.163 HD
ENDROOT
BRANCH   1   5
ATOM      5  CA  GLU d   9    2185.501 670.090-2264.728  0.00  0.00     0.177 C 
BRANCH   5   6
ATOM      6  N   GLU d   9    2184.198 669.433-2264.782  0.00  0.00    -0.346 N 
ATOM      7  C   ASP d   8    2183.518 669.482-2265.877  0.00  0.00     0.241 C 
ATOM      8  O   ASP d   8    2183.991 670.086-2266.853  0.00  0.00    -0.271 OA
ATOM      9  H   GLU d   9    2183.834 668.947-2263.975  0.00  0.00     0.163 HD
BRANCH   7  10
ATOM     10  CA  ASP d   8    2182.171 668.803-2265.934  0.00  0.00     0.186 C 
BRANCH  10  11
ATOM     11  N   ASP d   8    2182.240 667.454-2265.380  0.00  0.00    -0.346 N 
ATOM     12  C   LEU d   7    2183.077 666.612-2265.886  0.00  0.00     0.241 C 
ATOM     13  O   LEU d   7    2183.798 666.974-2266.828  0.00  0.00    -0.271 OA
ATOM     14  H   ASP d   8    2181.643 667.183-2264.612  0.00  0.00     0.163 HD
BRANCH  12  15
ATOM     15  CA  LEU d   7    2183.149 665.217-2265.313  0.00  0.00     0.177 C 
BRANCH  15  16
ATOM     16  N   LEU d   7    2183.204 665.253-2263.854  0.00  0.00    -0.346 N 
ATOM     17  C   ILE d   6    2184.150 665.917-2263.281  0.00  0.00     0.241 C 
ATOM     18  O   ILE d   6    2184.985 666.504-2263.985  0.00  0.00    -0.271 OA
ATOM     19  H   LEU d   7    2182.512 664.767-2263.303  0.00  0.00     0.163 HD
BRANCH  17  20
ATOM     20  CA  ILE d   6    2184.208 665.954-2261.773  0.00  0.00     0.180 C 
BRANCH  20  21
ATOM     21  N   ILE d   6    2182.894 666.250-2261.207  0.00  0.00    -0.346 N 
ATOM     22  C   SER d   5    2182.290 667.333-2261.562  0.00  0.00     0.243 C 
ATOM     23  O   SER d   5    2182.838 668.086-2262.366  0.00  0.00    -0.271 OA
ATOM     24  H   ILE d   6    2182.465 665.615-2260.549  0.00  0.00     0.163 HD
BRANCH  22  25
ATOM     25  CA  SER d   5    2180.931 667.639-2260.976  0.00  0.00     0.200 C 
BRANCH  25  26
ATOM     26  N   SER d   5    2180.061 666.468-2261.035  0.00  0.00    -0.344 N 
ATOM     27  C   GLU d   4    2179.834 665.915-2262.178  0.00  0.00     0.241 C 
ATOM     28  O   GLU d   4    2180.361 666.395-2263.193  0.00  0.00    -0.271 OA
ATOM     29  H   SER d   5    2179.644 666.096-2260.194  0.00  0.00     0.163 HD
BRANCH  27  30
ATOM     30  CA  GLU d   4    2178.935 664.705-2262.240  0.00  0.00     0.177 C 
BRANCH  30  31
ATOM     31  N   GLU d   4    2179.294 663.734-2261.210  0.00  0.00    -0.346 N 
ATOM     32  C   PRO d   3    2180.499 663.273-2261.177  0.00  0.00     0.241 C 
ATOM     33  O   PRO d   3    2181.323 663.656-2262.009  0.00  0.00    -0.271 OA
ATOM     34  H   GLU d   4    2178.610 663.427-2260.534  0.00  0.00     0.163 HD
BRANCH  32  35
ATOM     35  CA  PRO d   3    2180.897 662.250-2260.100  0.00  0.00     0.179 C 
ATOM     36  N   PRO d   3    2180.445 662.659-2258.779  0.00  0.00    -0.337 N 
ATOM     37  C   ASN d   2    2180.966 663.654-2258.145  0.00  0.00     0.243 C 
ATOM     38  CD  PRO d   3    2179.366 661.866-2258.230  0.00  0.00     0.127 C 
ATOM     39  O   ASN d   2    2181.881 664.284-2258.673  0.00  0.00    -0.271 OA
ATOM     40  CG  PRO d   3    2178.909 661.047-2259.440  0.00  0.00     0.022 C 
ATOM     41  CB  PRO d   3    2180.192 660.895-2260.270  0.00  0.00     0.037 C 
BRANCH  37  42
ATOM     42  CA  ASN d   2    2180.435 664.010-2256.776  0.00  0.00     0.185 C 
BRANCH  42  43
ATOM     43  N   ASN d   2    2178.975 664.048-2256.776  0.00  0.00    -0.346 N 
ATOM     44  C   GLU d   1    2178.371 664.834-2257.602  0.00  0.00     0.242 C 
ATOM     45  O   GLU d   1    2179.047 665.533-2258.370  0.00  0.00    -0.271 OA
ATOM     46  H   ASN d   2    2178.447 663.469-2256.140  0.00  0.00     0.163 HD
BRANCH  44  47
ATOM     47  CA  GLU d   1    2176.862 664.874-2257.602  0.00  0.00     0.191 C 
BRANCH  47  48
ATOM     48  N   GLU d   1    2176.303 663.525-2257.602  0.00  0.00    -0.326 NA
ATOM     49  H   GLU d   1    2176.930 662.646-2257.602  0.00  0.00     0.180 HD
ENDBRANCH  47  48
BRANCH  47  50
ATOM     50  CB  GLU d   1    2176.339 665.659-2256.365  0.00  0.00     0.047 C 
BRANCH  50  51
ATOM     51  CG  GLU d   1    2176.814 667.144-2256.254  0.00  0.00     0.116 C 
BRANCH  51  52
ATOM     52  CD  GLU d   1    2176.390 667.948-2255.039  0.00  0.00     0.172 C 
ATOM     53  OE1 GLU d   1    2175.662 667.446-2254.161  0.00  0.00    -0.648 OA
ATOM     54  OE2 GLU d   1    2176.820 669.118-2254.967  0.00  0.00    -0.648 OA
ENDBRANCH  51  52
ENDBRANCH  50  51
ENDBRANCH  47  50
ENDBRANCH  44  47
ENDBRANCH  42  43
BRANCH  42  55
ATOM     55  CB  ASN d   2    2180.926 662.986-2255.712  0.00  0.00     0.137 C 
BRANCH  55  56
ATOM     56  CG  ASN d   2    2180.463 663.210-2254.269  0.00  0.00     0.217 C 
ATOM     57  ND2 ASN d   2    2181.057 664.125-2253.550  0.00  0.00    -0.370 N 
ATOM     58 21HD ASN d   2    2180.576 664.298-2252.664  0.00  0.00     0.159 HD
ATOM     59 22HD ASN d   2    2181.759 664.697-2254.019  0.00  0.00     0.159 HD
ATOM     60  OD1 ASN d   2    2179.542 662.577-2253.774  0.00  0.00    -0.274 OA
ENDBRANCH  55  56
ENDBRANCH  42  55
ENDBRANCH  37  42
ENDBRANCH  32  35
ENDBRANCH  30  31
BRANCH  30  61
ATOM     61  CB  GLU d   4    2177.447 665.124-2262.070  0.00  0.00     0.045 C 
BRANCH  61  62
ATOM     62  CG  GLU d   4    2176.899 666.127-2263.136  0.00  0.00     0.116 C 
BRANCH  62  63
ATOM     63  CD  GLU d   4    2175.473 666.624-2262.993  0.00  0.00     0.172 C 
ATOM     64  OE1 GLU d   4    2174.746 666.226-2262.062  0.00  0.00    -0.648 OA
ATOM     65  OE2 GLU d   4    2175.084 667.454-2263.842  0.00  0.00    -0.648 OA
ENDBRANCH  62  63
ENDBRANCH  61  62
ENDBRANCH  30  61
ENDBRANCH  27  30
ENDBRANCH  25  26
BRANCH  25  66
ATOM     66  CB  SER d   5    2181.042 668.171-2259.526  0.00  0.00     0.199 C 
BRANCH  66  67
ATOM     67  OG  SER d   5    2181.773 667.292-2258.665  0.00  0.00    -0.398 OA
ATOM     68  HG  SER d   5    2181.284 666.467-2258.614  0.00  0.00     0.209 HD
ENDBRANCH  66  67
ENDBRANCH  25  66
ENDBRANCH  22  25
ENDBRANCH  20  21
BRANCH  20  69
ATOM     69  CB  ILE d   6    2184.807 664.618-2261.173  0.00  0.00     0.013 C 
ATOM     70  CG2 ILE d   6    2186.248 664.315-2261.688  0.00  0.00     0.012 C 
BRANCH  69  71
ATOM     71  CG1 ILE d   6    2184.825 664.555-2259.612  0.00  0.00     0.002 C 
ATOM     72  CD1 ILE d   6    2185.095 663.166-2258.997  0.00  0.00     0.005 C 
ENDBRANCH  69  71
ENDBRANCH  20  69
ENDBRANCH  17  20
ENDBRANCH  15  16
BRANCH  15  73
ATOM     73  CB  LEU d   7    2181.946 664.357-2265.793  0.00  0.00     0.038 C 
BRANCH  73  74
ATOM     74  CG  LEU d   7    2181.873 662.878-2265.327  0.00  0.00    -0.020 C 
ATOM     75  CD1 LEU d   7    2180.683 662.173-2265.992  0.00  0.00     0.009 C 
ATOM     76  CD2 LEU d   7    2183.166 662.098-2265.618  0.00  0.00     0.009 C 
ENDBRANCH  73  74
ENDBRANCH  15  73
ENDBRANCH  12  15
ENDBRANCH  10  11
BRANCH  10  77
ATOM     77  CB  ASP d   8    2181.093 669.643-2265.193  0.00  0.00     0.147 C 
BRANCH  77  78
ATOM     78  CG  ASP d   8    2180.875 671.064-2265.734  0.00  0.00     0.175 C 
ATOM     79  OD1 ASP d   8    2180.939 671.262-2266.965  0.00  0.00    -0.648 OA
ATOM     80  OD2 ASP d   8    2180.684 671.990-2264.920  0.00  0.00    -0.648 OA
ENDBRANCH  77  78
ENDBRANCH  10  77
ENDBRANCH   7  10
ENDBRANCH   5   6
BRANCH   5  81
ATOM     81  CB  GLU d   9    2186.135 669.882-2263.322  0.00  0.00     0.045 C 
BRANCH  81  82
ATOM     82  CG  GLU d   9    2187.518 670.574-2263.094  0.00  0.00     0.116 C 
BRANCH  82  83
ATOM     83  CD  GLU d   9    2188.219 670.361-2261.765  0.00  0.00     0.172 C 
ATOM     84  OE1 GLU d   9    2187.698 669.671-2260.868  0.00  0.00    -0.648 OA
ATOM     85  OE2 GLU d   9    2189.339 670.898-2261.634  0.00  0.00    -0.648 OA
ENDBRANCH  82  83
ENDBRANCH  81  82
ENDBRANCH   5  81
ENDBRANCH   1   5
BRANCH   3  86
ATOM     86  CA  HIS d  10    2187.402 667.773-2267.013  0.00  0.00     0.182 C 
BRANCH  86  87
ATOM     87  C   HIS d  10    2187.035 668.337-2268.364  0.00  0.00     0.241 C 
ATOM     88  O   HIS d  10    2187.887 668.801-2269.136  0.00  0.00    -0.271 OA
ATOM     89  N   VAL d  11    2185.797 668.337-2268.727  0.00  0.00    -0.346 N 
ATOM     90  H   VAL d  11    2185.084 667.965-2268.116  0.00  0.00     0.163 HD
BRANCH  89  91
ATOM     91  CA  VAL d  11    2185.442 668.882-2270.034  0.00  0.00     0.180 C 
BRANCH  91  92
ATOM     92  C   VAL d  11    2185.907 670.313-2270.167  0.00  0.00     0.241 C 
ATOM     93  O   VAL d  11    2186.508 670.717-2271.170  0.00  0.00    -0.271 OA
ATOM     94  N   GLN d  12    2185.671 671.139-2269.205  0.00  0.00    -0.346 N 
ATOM     95  H   GLN d  12    2185.182 670.833-2268.376  0.00  0.00     0.163 HD
BRANCH  94  96
ATOM     96  CA  GLN d  12    2186.120 672.522-2269.333  0.00  0.00     0.177 C 
BRANCH  96  97
ATOM     97  C   GLN d  12    2187.610 672.588-2269.571  0.00  0.00     0.241 C 
ATOM     98  O   GLN d  12    2188.097 673.296-2270.450  0.00  0.00    -0.271 OA
ATOM     99  N   ARG d  13    2188.394 671.881-2268.830  0.00  0.00    -0.346 N 
ATOM    100  H   ARG d  13    2188.018 671.292-2268.101  0.00  0.00     0.163 HD
BRANCH  99 101
ATOM    101  CA  ARG d  13    2189.834 671.946-2269.061  0.00  0.00     0.176 C 
BRANCH 101 102
ATOM    102  C   ARG d  13    2190.170 671.574-2270.486  0.00  0.00     0.243 C 
ATOM    103  O   ARG d  13    2190.939 672.245-2271.171  0.00  0.00    -0.271 OA
ATOM    104  N   PRO d  14    2189.634 670.519-2271.000  0.00  0.00    -0.337 N 
ATOM    105  CA  PRO d  14    2189.903 670.090-2272.364  0.00  0.00     0.179 C 
ATOM    106  CD  PRO d  14    2188.719 669.675-2270.263  0.00  0.00     0.127 C 
ATOM    107  CB  PRO d  14    2189.287 668.683-2272.380  0.00  0.00     0.037 C 
ATOM    108  CG  PRO d  14    2188.142 668.777-2271.361  0.00  0.00     0.022 C 
BRANCH 105 109
ATOM    109  C   PRO d  14    2189.264 671.038-2273.393  0.00  0.00     0.241 C 
ATOM    110  O   PRO d  14    2189.915 671.444-2274.356  0.00  0.00    -0.271 OA
ATOM    111  N   MET d  15    2188.037 671.409-2273.246  0.00  0.00    -0.346 N 
ATOM    112  H   MET d  15    2187.493 671.082-2272.461  0.00  0.00     0.163 HD
BRANCH 111 113
ATOM    113  CA  MET d  15    2187.447 672.309-2274.233  0.00  0.00     0.177 C 
BRANCH 113 114
ATOM    114  C   MET d  15    2188.247 673.583-2274.352  0.00  0.00     0.241 C 
ATOM    115  O   MET d  15    2188.568 674.056-2275.453  0.00  0.00    -0.271 OA
ATOM    116  N   ARG d  16    2188.608 674.198-2273.277  0.00  0.00    -0.347 N 
ATOM    117  H   ARG d  16    2188.359 673.833-2272.369  0.00  0.00     0.163 HD
BRANCH 116 118
ATOM    118  CA  ARG d  16    2189.383 675.430-2273.394  0.00  0.00     0.162 C 
BRANCH 118 119
ATOM    119  C   ARG d  16    2190.651 675.198-2274.180  0.00  0.00     0.219 C 
ATOM    120  O   ARG d  16    2190.930 674.101-2274.657  0.00  0.00    -0.287 OA
ENDBRANCH 118 119
BRANCH 118 121
ATOM    121  CB  ARG d  16    2189.690 675.966-2271.966  0.00  0.00     0.035 C 
BRANCH 121 122
ATOM    122  CG  ARG d  16    2190.267 677.408-2271.903  0.00  0.00     0.023 C 
BRANCH 122 123
ATOM    123  CD  ARG d  16    2190.575 677.844-2270.461  0.00  0.00     0.138 C 
BRANCH 123 124
ATOM    124  NE  ARG d  16    2191.104 679.240-2270.461  0.00  0.00    -0.227 N 
ATOM    125  CZ  ARG d  16    2191.477 679.921-2269.381  0.00  0.00     0.665 C 
ATOM    126  NH1 ARG d  16    2191.429 679.438-2268.172  0.00  0.00    -0.235 N 
ATOM    127  NH2 ARG d  16    2191.912 681.131-2269.537  0.00  0.00    -0.235 N 
ATOM    128 11HH ARG d  16    2191.078 678.479-2268.118  0.00  0.00     0.174 HD
ATOM    129 12HH ARG d  16    2191.733 680.026-2267.394  0.00  0.00     0.174 HD
ATOM    130 21HH ARG d  16    2191.943 681.492-2270.492  0.00  0.00     0.174 HD
ATOM    131 22HH ARG d  16    2192.192 681.639-2268.696  0.00  0.00     0.174 HD
ATOM    132  HE  ARG d  16    2191.207 679.765-2271.335  0.00  0.00     0.177 HD
ENDBRANCH 123 124
ENDBRANCH 122 123
ENDBRANCH 121 122
ENDBRANCH 118 121
ENDBRANCH 116 118
ENDBRANCH 113 114
BRANCH 113 133
ATOM    133  CB  MET d  15    2185.972 672.614-2273.852  0.00  0.00     0.045 C 
BRANCH 133 134
ATOM    134  CG  MET d  15    2185.015 671.402-2273.834  0.00  0.00     0.076 C 
BRANCH 134 135
ATOM    135  SD  MET d  15    2183.315 671.969-2273.664  0.00  0.00    -0.173 SA
ATOM    136  CE  MET d  15    2182.545 670.390-2273.284  0.00  0.00     0.089 C 
ENDBRANCH 134 135
ENDBRANCH 133 134
ENDBRANCH 113 133
ENDBRANCH 111 113
ENDBRANCH 105 109
ENDBRANCH 101 102
BRANCH 101 137
ATOM    137  CB  ARG d  13    2190.548 671.008-2268.047  0.00  0.00     0.036 C 
BRANCH 137 138
ATOM    138  CG  ARG d  13    2192.093 671.161-2267.967  0.00  0.00     0.023 C 
BRANCH 138 139
ATOM    139  CD  ARG d  13    2192.720 670.174-2266.968  0.00  0.00     0.138 C 
BRANCH 139 140
ATOM    140  NE  ARG d  13    2194.197 670.380-2266.918  0.00  0.00    -0.227 N 
ATOM    141  CZ  ARG d  13    2195.045 669.689-2266.163  0.00  0.00     0.665 C 
ATOM    142  NH1 ARG d  13    2194.680 668.726-2265.365  0.00  0.00    -0.235 N 
ATOM    143  NH2 ARG d  13    2196.305 669.988-2266.220  0.00  0.00    -0.235 N 
ATOM    144 11HH ARG d  13    2193.675 668.540-2265.367  0.00  0.00     0.174 HD
ATOM    145 12HH ARG d  13    2195.393 668.243-2264.816  0.00  0.00     0.174 HD
ATOM    146 21HH ARG d  13    2196.573 670.745-2266.852  0.00  0.00     0.174 HD
ATOM    147 22HH ARG d  13    2196.940 669.447-2265.632  0.00  0.00     0.174 HD
ATOM    148  HE  ARG d  13    2194.648 671.102-2267.490  0.00  0.00     0.177 HD
ENDBRANCH 139 140
ENDBRANCH 138 139
ENDBRANCH 137 138
ENDBRANCH 101 137
ENDBRANCH  99 101
ENDBRANCH  96  97
BRANCH  96 149
ATOM    149  CB  GLN d  12    2185.729 673.290-2268.051  0.00  0.00     0.044 C 
BRANCH 149 150
ATOM    150  CG  GLN d  12    2186.091 674.812-2268.021  0.00  0.00     0.105 C 
BRANCH 150 151
ATOM    151  CD  GLN d  12    2185.789 675.626-2266.756  0.00  0.00     0.215 C 
ATOM    152  NE2 GLN d  12    2185.222 675.050-2265.727  0.00  0.00    -0.370 N 
ATOM    153 21HE GLN d  12    2185.116 675.645-2264.904  0.00  0.00     0.159 HD
ATOM    154 22HE GLN d  12    2185.058 674.047-2265.830  0.00  0.00     0.159 HD
ATOM    155  OE1 GLN d  12    2186.092 676.807-2266.679  0.00  0.00    -0.274 OA
ENDBRANCH 150 151
ENDBRANCH 149 150
ENDBRANCH  96 149
ENDBRANCH  94  96
ENDBRANCH  91  92
BRANCH  91 156
ATOM    156  CB  VAL d  11    2183.880 668.776-2270.253  0.00  0.00     0.009 C 
ATOM    157  CG1 VAL d  11    2183.312 669.480-2271.516  0.00  0.00     0.012 C 
ATOM    158  CG2 VAL d  11    2183.355 667.323-2270.325  0.00  0.00     0.012 C 
ENDBRANCH  91 156
ENDBRANCH  89  91
ENDBRANCH  86  87
BRANCH  86 159
ATOM    159  CB  HIS d  10    2187.237 666.244-2267.007  0.00  0.00     0.095 C 
BRANCH 159 160
ATOM    160  CG  HIS d  10    2188.522 665.534-2266.699  0.00  0.00     0.053 A 
ATOM    161  CD2 HIS d  10    2188.904 665.199-2265.406  0.00  0.00     0.116 A 
ATOM    162  NE2 HIS d  10    2190.118 664.567-2265.473  0.00  0.00    -0.359 N 
ATOM    163  CE1 HIS d  10    2190.380 664.569-2266.808  0.00  0.00     0.207 A 
ATOM    164  2HE HIS d  10    2190.685 664.190-2264.700  0.00  0.00     0.166 HD
ATOM    165  ND1 HIS d  10    2189.474 665.127-2267.632  0.00  0.00    -0.247 NA
ENDBRANCH 159 160
ENDBRANCH  86 159
ENDBRANCH   3  86
TORSDOF 66
