REMARK WARNING: 32 MAX_TORS EXCEEDED!!!
REMARK  67 active torsions:
REMARK  status: ('A' for Active; 'I' for Inactive)
REMARK    1  A    between atoms: N_1  and  CA_2 
REMARK    2  A    between atoms: CA_2  and  C_3 
REMARK    3  A    between atoms: CA_2  and  CB_5 
REMARK       I    between atoms: C_3  and  N_11 
REMARK    4  A    between atoms: CB_5  and  CG_6 
REMARK    5  A    between atoms: CG_6  and  CD_7 
REMARK    6  A    between atoms: N_11  and  CA_12 
REMARK    7  A    between atoms: CA_12  and  C_13 
REMARK    8  A    between atoms: CA_12  and  CB_15 
REMARK       I    between atoms: C_13  and  N_22 
REMARK    9  A    between atoms: CB_15  and  CG_16 
REMARK       I    between atoms: CG_16  and  ND2_17 
REMARK   10  A    between atoms: CA_23  and  C_24 
REMARK       I    between atoms: C_24  and  N_29 
REMARK   11  A    between atoms: N_29  and  CA_30 
REMARK   12  A    between atoms: CA_30  and  C_31 
REMARK   13  A    between atoms: CA_30  and  CB_33 
REMARK       I    between atoms: C_31  and  N_39 
REMARK   14  A    between atoms: CB_33  and  CG_34 
REMARK   15  A    between atoms: CG_34  and  CD_35 
REMARK   16  A    between atoms: N_39  and  CA_40 
REMARK   17  A    between atoms: CA_40  and  C_41 
REMARK   18  A    between atoms: CA_40  and  CB_43 
REMARK       I    between atoms: C_41  and  N_47 
REMARK   19  A    between atoms: CB_43  and  OG_44 
REMARK   20  A    between atoms: N_47  and  CA_48 
REMARK   21  A    between atoms: CA_48  and  C_49 
REMARK   22  A    between atoms: CA_48  and  CB_51 
REMARK       I    between atoms: C_49  and  N_56 
REMARK   23  A    between atoms: CB_51  and  CG1_52 
REMARK   24  A    between atoms: N_56  and  CA_57 
REMARK   25  A    between atoms: CA_57  and  C_58 
REMARK   26  A    between atoms: CA_57  and  CB_60 
REMARK       I    between atoms: C_58  and  N_65 
REMARK   27  A    between atoms: CB_60  and  CG_61 
REMARK   28  A    between atoms: N_65  and  CA_66 
REMARK   29  A    between atoms: CA_66  and  C_67 
REMARK   30  A    between atoms: CA_66  and  CB_69 
REMARK       I    between atoms: C_67  and  N_74 
REMARK   31  A    between atoms: CB_69  and  CG_70 
REMARK   32  A    between atoms: N_74  and  CA_75 
REMARK   33  A    between atoms: CA_75  and  C_76 
REMARK   34  A    between atoms: CA_75  and  CB_78 
REMARK       I    between atoms: C_76  and  N_83 
REMARK   35  A    between atoms: CB_78  and  CG1_79 
REMARK   36  A    between atoms: N_83  and  CA_84 
REMARK   37  A    between atoms: CA_84  and  C_85 
REMARK   38  A    between atoms: CA_84  and  CB_87 
REMARK       I    between atoms: C_85  and  N_95 
REMARK   39  A    between atoms: CB_87  and  CG_88 
REMARK   40  A    between atoms: N_95  and  CA_96 
REMARK   41  A    between atoms: CA_96  and  C_97 
REMARK   42  A    between atoms: CA_96  and  CB_99 
REMARK       I    between atoms: C_97  and  N_103 
REMARK   43  A    between atoms: N_103  and  CA_104 
REMARK   44  A    between atoms: CA_104  and  C_105 
REMARK   45  A    between atoms: CA_104  and  CB_107 
REMARK       I    between atoms: C_105  and  N_115 
REMARK   46  A    between atoms: CB_107  and  CG_108 
REMARK   47  A    between atoms: CG_108  and  CD_109 
REMARK       I    between atoms: CD_109  and  NE2_110 
REMARK   48  A    between atoms: N_115  and  CA_116 
REMARK   49  A    between atoms: CA_116  and  C_117 
REMARK   50  A    between atoms: CA_116  and  CB_119 
REMARK       I    between atoms: C_117  and  N_132 
REMARK   51  A    between atoms: CB_119  and  CG_120 
REMARK   52  A    between atoms: CG_120  and  CD_121 
REMARK   53  A    between atoms: CD_121  and  NE_122 
REMARK       I    between atoms: NE_122  and  CZ_123 
REMARK       I    between atoms: CZ_123  and  NH1_124 
REMARK       I    between atoms: CZ_123  and  NH2_125 
REMARK   54  A    between atoms: N_132  and  CA_133 
REMARK   55  A    between atoms: CA_133  and  C_134 
REMARK   56  A    between atoms: CA_133  and  CB_136 
REMARK       I    between atoms: C_134  and  N_140 
REMARK   57  A    between atoms: N_140  and  CA_141 
REMARK   58  A    between atoms: CA_141  and  C_142 
REMARK   59  A    between atoms: CA_141  and  CB_144 
REMARK       I    between atoms: C_142  and  N_149 
REMARK   60  A    between atoms: CB_144  and  CG_145 
REMARK   61  A    between atoms: CG_145  and  SD_146 
REMARK   62  A    between atoms: N_149  and  CA_150 
REMARK   63  A    between atoms: CA_150  and  C_151 
REMARK   64  A    between atoms: CA_150  and  CB_153 
REMARK   65  A    between atoms: CB_153  and  CG_154 
REMARK   66  A    between atoms: CG_154  and  CD_155 
REMARK   67  A    between atoms: CD_155  and  NE_156 
REMARK       I    between atoms: NE_156  and  CZ_157 
REMARK       I    between atoms: CZ_157  and  NH1_158 
ROOT
ATOM      1  C   ILE d   9    1404.324 413.616-1412.796  0.00  0.00     0.241 C 
ATOM      2  O   ILE d   9    1404.988 414.372-1413.521  0.00  0.00    -0.271 OA
ATOM      3  N   HIS d  10    1404.421 412.341-1412.966  0.00  0.00    -0.346 N 
ATOM      4  H   HIS d  10    1403.891 411.705-1412.388  0.00  0.00     0.163 HD
ENDROOT
BRANCH   3   5
ATOM      5  CA  HIS d  10    1405.309 411.830-1414.006  0.00  0.00     0.182 C 
BRANCH   5   6
ATOM      6  C   HIS d  10    1404.942 412.395-1415.357  0.00  0.00     0.241 C 
ATOM      7  O   HIS d  10    1405.794 412.861-1416.129  0.00  0.00    -0.271 OA
ATOM      8  N   VAL d  11    1403.704 412.394-1415.720  0.00  0.00    -0.346 N 
ATOM      9  H   VAL d  11    1402.991 412.020-1415.110  0.00  0.00     0.163 HD
BRANCH   8  10
ATOM     10  CA  VAL d  11    1403.349 412.940-1417.027  0.00  0.00     0.180 C 
BRANCH  10  11
ATOM     11  C   VAL d  11    1403.813 414.371-1417.159  0.00  0.00     0.241 C 
ATOM     12  O   VAL d  11    1404.414 414.777-1418.162  0.00  0.00    -0.271 OA
ATOM     13  N   GLN d  12    1403.575 415.197-1416.196  0.00  0.00    -0.346 N 
ATOM     14  H   GLN d  12    1403.087 414.890-1415.367  0.00  0.00     0.163 HD
BRANCH  13  15
ATOM     15  CA  GLN d  12    1404.023 416.580-1416.323  0.00  0.00     0.177 C 
BRANCH  15  16
ATOM     16  C   GLN d  12    1405.513 416.648-1416.561  0.00  0.00     0.241 C 
ATOM     17  O   GLN d  12    1406.000 417.357-1417.439  0.00  0.00    -0.271 OA
ATOM     18  N   ARG d  13    1406.298 415.942-1415.820  0.00  0.00    -0.346 N 
ATOM     19  H   ARG d  13    1405.922 415.351-1415.092  0.00  0.00     0.163 HD
BRANCH  18  20
ATOM     20  CA  ARG d  13    1407.738 416.009-1416.051  0.00  0.00     0.176 C 
BRANCH  20  21
ATOM     21  C   ARG d  13    1408.075 415.638-1417.476  0.00  0.00     0.241 C 
ATOM     22  O   ARG d  13    1408.843 416.311-1418.160  0.00  0.00    -0.271 OA
ATOM     23  N   VAL d  14    1407.539 414.583-1417.991  0.00  0.00    -0.346 N 
ATOM     24  H   VAL d  14    1406.905 414.014-1417.449  0.00  0.00     0.163 HD
BRANCH  23  25
ATOM     25  CA  VAL d  14    1407.864 414.225-1419.369  0.00  0.00     0.180 C 
BRANCH  25  26
ATOM     26  C   VAL d  14    1407.533 415.356-1420.313  0.00  0.00     0.241 C 
ATOM     27  O   VAL d  14    1408.326 415.738-1421.183  0.00  0.00    -0.271 OA
ATOM     28  N   MET d  15    1406.388 415.941-1420.211  0.00  0.00    -0.346 N 
ATOM     29  H   MET d  15    1405.723 415.647-1419.510  0.00  0.00     0.163 HD
BRANCH  28  30
ATOM     30  CA  MET d  15    1406.066 417.034-1421.124  0.00  0.00     0.177 C 
BRANCH  30  31
ATOM     31  C   MET d  15    1407.096 418.134-1421.036  0.00  0.00     0.241 C 
ATOM     32  O   MET d  15    1407.598 418.646-1422.048  0.00  0.00    -0.271 OA
ATOM     33  N   ARG d  16    1407.464 418.555-1419.874  0.00  0.00    -0.347 N 
ATOM     34  H   ARG d  16    1407.070 418.154-1419.035  0.00  0.00     0.163 HD
BRANCH  33  35
ATOM     35  CA  ARG d  16    1408.460 419.619-1419.789  0.00  0.00     0.162 C 
BRANCH  35  36
ATOM     36  C   ARG d  16    1409.731 419.228-1420.506  0.00  0.00     0.219 C 
ATOM     37  O   ARG d  16    1409.846 418.152-1421.088  0.00  0.00    -0.287 OA
ENDBRANCH  35  36
BRANCH  35  38
ATOM     38  CB  ARG d  16    1408.729 419.937-1418.291  0.00  0.00     0.035 C 
BRANCH  38  39
ATOM     39  CG  ARG d  16    1409.553 421.226-1418.017  0.00  0.00     0.023 C 
BRANCH  39  40
ATOM     40  CD  ARG d  16    1409.803 421.445-1416.516  0.00  0.00     0.138 C 
BRANCH  40  41
ATOM     41  NE  ARG d  16    1410.578 422.704-1416.314  0.00  0.00    -0.227 N 
ATOM     42  CZ  ARG d  16    1410.969 423.186-1415.138  0.00  0.00     0.665 C 
ATOM     43  NH1 ARG d  16    1410.722 422.601-1414.000  0.00  0.00    -0.235 N 
ATOM     44  NH2 ARG d  16    1411.632 424.299-1415.119  0.00  0.00    -0.235 N 
ATOM     45 11HH ARG d  16    1410.197 421.728-1414.085  0.00  0.00     0.174 HD
ATOM     46 12HH ARG d  16    1411.056 423.036-1413.139  0.00  0.00     0.174 HD
ATOM     47 21HH ARG d  16    1411.818 424.743-1416.021  0.00  0.00     0.174 HD
ATOM     48 22HH ARG d  16    1411.922 424.654-1414.207  0.00  0.00     0.174 HD
ATOM     49  HE  ARG d  16    1410.856 423.286-1417.111  0.00  0.00     0.177 HD
ENDBRANCH  40  41
ENDBRANCH  39  40
ENDBRANCH  38  39
ENDBRANCH  35  38
ENDBRANCH  33  35
ENDBRANCH  30  31
BRANCH  30  50
ATOM     50  CB  MET d  15    1404.645 417.578-1420.815  0.00  0.00     0.045 C 
BRANCH  50  51
ATOM     51  CG  MET d  15    1403.483 416.579-1421.007  0.00  0.00     0.076 C 
BRANCH  51  52
ATOM     52  SD  MET d  15    1401.909 417.444-1420.892  0.00  0.00    -0.173 SA
ATOM     53  CE  MET d  15    1400.829 416.013-1420.756  0.00  0.00     0.089 C 
ENDBRANCH  51  52
ENDBRANCH  50  51
ENDBRANCH  30  50
ENDBRANCH  28  30
ENDBRANCH  25  26
BRANCH  25  54
ATOM     54  CB  VAL d  14    1407.092 412.908-1419.776  0.00  0.00     0.009 C 
ATOM     55  CG1 VAL d  14    1407.181 412.491-1421.270  0.00  0.00     0.012 C 
ATOM     56  CG2 VAL d  14    1407.525 411.655-1418.977  0.00  0.00     0.012 C 
ENDBRANCH  25  54
ENDBRANCH  23  25
ENDBRANCH  20  21
BRANCH  20  57
ATOM     57  CB  ARG d  13    1408.452 415.070-1415.037  0.00  0.00     0.036 C 
BRANCH  57  58
ATOM     58  CG  ARG d  13    1409.997 415.224-1414.957  0.00  0.00     0.023 C 
BRANCH  58  59
ATOM     59  CD  ARG d  13    1410.625 414.236-1413.959  0.00  0.00     0.138 C 
BRANCH  59  60
ATOM     60  NE  ARG d  13    1412.102 414.444-1413.909  0.00  0.00    -0.227 N 
ATOM     61  CZ  ARG d  13    1412.951 413.753-1413.154  0.00  0.00     0.665 C 
ATOM     62  NH1 ARG d  13    1412.587 412.788-1412.357  0.00  0.00    -0.235 N 
ATOM     63  NH2 ARG d  13    1414.210 414.053-1413.211  0.00  0.00    -0.235 N 
ATOM     64 11HH ARG d  13    1411.581 412.601-1412.360  0.00  0.00     0.174 HD
ATOM     65 12HH ARG d  13    1413.300 412.305-1411.809  0.00  0.00     0.174 HD
ATOM     66 21HH ARG d  13    1414.477 414.811-1413.842  0.00  0.00     0.174 HD
ATOM     67 22HH ARG d  13    1414.846 413.512-1412.623  0.00  0.00     0.174 HD
ATOM     68  HE  ARG d  13    1412.553 415.167-1414.479  0.00  0.00     0.177 HD
ENDBRANCH  59  60
ENDBRANCH  58  59
ENDBRANCH  57  58
ENDBRANCH  20  57
ENDBRANCH  18  20
ENDBRANCH  15  16
BRANCH  15  69
ATOM     69  CB  GLN d  12    1403.631 417.347-1415.040  0.00  0.00     0.044 C 
BRANCH  69  70
ATOM     70  CG  GLN d  12    1403.991 418.869-1415.008  0.00  0.00     0.105 C 
BRANCH  70  71
ATOM     71  CD  GLN d  12    1403.688 419.681-1413.743  0.00  0.00     0.215 C 
ATOM     72  NE2 GLN d  12    1403.121 419.104-1412.714  0.00  0.00    -0.370 N 
ATOM     73 21HE GLN d  12    1403.013 419.698-1411.891  0.00  0.00     0.159 HD
ATOM     74 22HE GLN d  12    1402.958 418.101-1412.818  0.00  0.00     0.159 HD
ATOM     75  OE1 GLN d  12    1403.989 420.862-1413.665  0.00  0.00    -0.274 OA
ENDBRANCH  70  71
ENDBRANCH  69  70
ENDBRANCH  15  69
ENDBRANCH  13  15
ENDBRANCH  10  11
BRANCH  10  76
ATOM     76  CB  VAL d  11    1401.788 412.833-1417.247  0.00  0.00     0.009 C 
ATOM     77  CG1 VAL d  11    1401.219 413.537-1418.509  0.00  0.00     0.012 C 
ATOM     78  CG2 VAL d  11    1401.264 411.379-1417.320  0.00  0.00     0.012 C 
ENDBRANCH  10  76
ENDBRANCH   8  10
ENDBRANCH   5   6
BRANCH   5  79
ATOM     79  CB  HIS d  10    1405.146 410.301-1414.002  0.00  0.00     0.095 C 
BRANCH  79  80
ATOM     80  CG  HIS d  10    1406.432 409.592-1413.694  0.00  0.00     0.053 A 
ATOM     81  CD2 HIS d  10    1406.813 409.256-1412.402  0.00  0.00     0.116 A 
ATOM     82  NE2 HIS d  10    1408.028 408.625-1412.469  0.00  0.00    -0.359 N 
ATOM     83  CE1 HIS d  10    1408.291 408.628-1413.804  0.00  0.00     0.207 A 
ATOM     84  2HE HIS d  10    1408.595 408.248-1411.696  0.00  0.00     0.166 HD
ATOM     85  ND1 HIS d  10    1407.384 409.187-1414.627  0.00  0.00    -0.247 NA
ENDBRANCH  79  80
ENDBRANCH   5  79
ENDBRANCH   3   5
BRANCH   1  86
ATOM     86  CA  ILE d   9    1403.406 414.143-1411.720  0.00  0.00     0.180 C 
BRANCH  86  87
ATOM     87  N   ILE d   9    1402.104 413.485-1411.775  0.00  0.00    -0.346 N 
ATOM     88  C   ASP d   8    1401.424 413.535-1412.870  0.00  0.00     0.241 C 
ATOM     89  O   ASP d   8    1401.896 414.141-1413.845  0.00  0.00    -0.271 OA
ATOM     90  H   ILE d   9    1401.740 412.999-1410.968  0.00  0.00     0.163 HD
BRANCH  88  91
ATOM     91  CA  ASP d   8    1400.077 412.855-1412.928  0.00  0.00     0.186 C 
BRANCH  91  92
ATOM     92  N   ASP d   8    1400.148 411.506-1412.375  0.00  0.00    -0.346 N 
ATOM     93  C   LEU d   7    1400.985 410.665-1412.881  0.00  0.00     0.241 C 
ATOM     94  O   LEU d   7    1401.705 411.028-1413.823  0.00  0.00    -0.271 OA
ATOM     95  H   ASP d   8    1399.550 411.234-1411.607  0.00  0.00     0.163 HD
BRANCH  93  96
ATOM     96  CA  LEU d   7    1401.057 409.270-1412.309  0.00  0.00     0.177 C 
BRANCH  96  97
ATOM     97  N   LEU d   7    1401.112 409.306-1410.850  0.00  0.00    -0.346 N 
ATOM     98  C   ILE d   6    1402.058 409.969-1410.277  0.00  0.00     0.241 C 
ATOM     99  O   ILE d   6    1402.893 410.557-1410.981  0.00  0.00    -0.271 OA
ATOM    100  H   LEU d   7    1400.421 408.818-1410.299  0.00  0.00     0.163 HD
BRANCH  98 101
ATOM    101  CA  ILE d   6    1402.116 410.006-1408.769  0.00  0.00     0.180 C 
BRANCH 101 102
ATOM    102  N   ILE d   6    1400.803 410.301-1408.203  0.00  0.00    -0.346 N 
ATOM    103  C   SER d   5    1400.198 411.384-1408.557  0.00  0.00     0.243 C 
ATOM    104  O   SER d   5    1400.745 412.138-1409.361  0.00  0.00    -0.271 OA
ATOM    105  H   ILE d   6    1400.374 409.667-1407.544  0.00  0.00     0.163 HD
BRANCH 103 106
ATOM    106  CA  SER d   5    1398.839 411.690-1407.971  0.00  0.00     0.200 C 
BRANCH 106 107
ATOM    107  N   SER d   5    1397.970 410.518-1408.029  0.00  0.00    -0.344 N 
ATOM    108  C   GLU d   4    1397.742 409.966-1409.172  0.00  0.00     0.241 C 
ATOM    109  O   GLU d   4    1398.268 410.445-1410.187  0.00  0.00    -0.271 OA
ATOM    110  H   SER d   5    1397.553 410.147-1407.188  0.00  0.00     0.163 HD
BRANCH 108 111
ATOM    111  CA  GLU d   4    1396.843 408.754-1409.234  0.00  0.00     0.177 C 
BRANCH 111 112
ATOM    112  N   GLU d   4    1397.203 407.783-1408.204  0.00  0.00    -0.346 N 
ATOM    113  C   PRO d   3    1398.408 407.323-1408.172  0.00  0.00     0.241 C 
ATOM    114  O   PRO d   3    1399.231 407.706-1409.003  0.00  0.00    -0.271 OA
ATOM    115  H   GLU d   4    1396.519 407.476-1407.527  0.00  0.00     0.163 HD
BRANCH 113 116
ATOM    116  CA  PRO d   3    1398.806 406.300-1407.095  0.00  0.00     0.179 C 
ATOM    117  N   PRO d   3    1398.354 406.709-1405.773  0.00  0.00    -0.337 N 
ATOM    118  C   ASN d   2    1398.876 407.704-1405.139  0.00  0.00     0.243 C 
ATOM    119  CD  PRO d   3    1397.276 405.916-1405.224  0.00  0.00     0.127 C 
ATOM    120  O   ASN d   2    1399.790 408.335-1405.668  0.00  0.00    -0.271 OA
ATOM    121  CG  PRO d   3    1396.819 405.097-1406.434  0.00  0.00     0.022 C 
ATOM    122  CB  PRO d   3    1398.102 404.945-1407.264  0.00  0.00     0.037 C 
BRANCH 118 123
ATOM    123  CA  ASN d   2    1398.345 408.060-1403.771  0.00  0.00     0.185 C 
BRANCH 123 124
ATOM    124  N   ASN d   2    1396.885 408.098-1403.771  0.00  0.00    -0.346 N 
ATOM    125  C   GLU d   1    1396.281 408.884-1404.596  0.00  0.00     0.242 C 
ATOM    126  O   GLU d   1    1396.957 409.583-1405.364  0.00  0.00    -0.271 OA
ATOM    127  H   ASN d   2    1396.357 407.519-1403.134  0.00  0.00     0.163 HD
BRANCH 125 128
ATOM    128  CA  GLU d   1    1394.772 408.924-1404.596  0.00  0.00     0.191 C 
BRANCH 128 129
ATOM    129  N   GLU d   1    1394.213 407.575-1404.596  0.00  0.00    -0.326 NA
ATOM    130  H   GLU d   1    1394.840 406.696-1404.596  0.00  0.00     0.180 HD
ENDBRANCH 128 129
BRANCH 128 131
ATOM    131  CB  GLU d   1    1394.249 409.709-1403.359  0.00  0.00     0.047 C 
BRANCH 131 132
ATOM    132  CG  GLU d   1    1394.724 411.194-1403.248  0.00  0.00     0.116 C 
BRANCH 132 133
ATOM    133  CD  GLU d   1    1394.300 411.998-1402.033  0.00  0.00     0.172 C 
ATOM    134  OE1 GLU d   1    1393.572 411.496-1401.155  0.00  0.00    -0.648 OA
ATOM    135  OE2 GLU d   1    1394.730 413.168-1401.961  0.00  0.00    -0.648 OA
ENDBRANCH 132 133
ENDBRANCH 131 132
ENDBRANCH 128 131
ENDBRANCH 125 128
ENDBRANCH 123 124
BRANCH 123 136
ATOM    136  CB  ASN d   2    1398.837 407.037-1402.706  0.00  0.00     0.137 C 
BRANCH 136 137
ATOM    137  CG  ASN d   2    1398.374 407.261-1401.263  0.00  0.00     0.217 C 
ATOM    138  ND2 ASN d   2    1398.968 408.176-1400.545  0.00  0.00    -0.370 N 
ATOM    139 21HD ASN d   2    1398.487 408.348-1399.658  0.00  0.00     0.159 HD
ATOM    140 22HD ASN d   2    1399.669 408.747-1401.014  0.00  0.00     0.159 HD
ATOM    141  OD1 ASN d   2    1397.453 406.627-1400.769  0.00  0.00    -0.274 OA
ENDBRANCH 136 137
ENDBRANCH 123 136
ENDBRANCH 118 123
ENDBRANCH 113 116
ENDBRANCH 111 112
BRANCH 111 142
ATOM    142  CB  GLU d   4    1395.355 409.173-1409.063  0.00  0.00     0.045 C 
BRANCH 142 143
ATOM    143  CG  GLU d   4    1394.806 410.177-1410.129  0.00  0.00     0.116 C 
BRANCH 143 144
ATOM    144  CD  GLU d   4    1393.380 410.673-1409.985  0.00  0.00     0.172 C 
ATOM    145  OE1 GLU d   4    1392.654 410.275-1409.054  0.00  0.00    -0.648 OA
ATOM    146  OE2 GLU d   4    1392.990 411.502-1410.833  0.00  0.00    -0.648 OA
ENDBRANCH 143 144
ENDBRANCH 142 143
ENDBRANCH 111 142
ENDBRANCH 108 111
ENDBRANCH 106 107
BRANCH 106 147
ATOM    147  CB  SER d   5    1398.951 412.222-1406.520  0.00  0.00     0.199 C 
BRANCH 147 148
ATOM    148  OG  SER d   5    1399.683 411.342-1405.659  0.00  0.00    -0.398 OA
ATOM    149  HG  SER d   5    1399.194 410.517-1405.609  0.00  0.00     0.209 HD
ENDBRANCH 147 148
ENDBRANCH 106 147
ENDBRANCH 103 106
ENDBRANCH 101 102
BRANCH 101 150
ATOM    150  CB  ILE d   6    1402.715 408.670-1408.169  0.00  0.00     0.013 C 
ATOM    151  CG2 ILE d   6    1404.157 408.369-1408.685  0.00  0.00     0.012 C 
BRANCH 150 152
ATOM    152  CG1 ILE d   6    1402.735 408.608-1406.608  0.00  0.00     0.002 C 
ATOM    153  CD1 ILE d   6    1403.005 407.219-1405.994  0.00  0.00     0.005 C 
ENDBRANCH 150 152
ENDBRANCH 101 150
ENDBRANCH  98 101
ENDBRANCH  96  97
BRANCH  96 154
ATOM    154  CB  LEU d   7    1399.854 408.409-1412.789  0.00  0.00     0.038 C 
BRANCH 154 155
ATOM    155  CG  LEU d   7    1399.782 406.930-1412.323  0.00  0.00    -0.020 C 
ATOM    156  CD1 LEU d   7    1398.592 406.224-1412.989  0.00  0.00     0.009 C 
ATOM    157  CD2 LEU d   7    1401.075 406.151-1412.615  0.00  0.00     0.009 C 
ENDBRANCH 154 155
ENDBRANCH  96 154
ENDBRANCH  93  96
ENDBRANCH  91  92
BRANCH  91 158
ATOM    158  CB  ASP d   8    1398.999 413.694-1412.186  0.00  0.00     0.147 C 
BRANCH 158 159
ATOM    159  CG  ASP d   8    1398.780 415.115-1412.726  0.00  0.00     0.175 C 
ATOM    160  OD1 ASP d   8    1398.844 415.314-1413.956  0.00  0.00    -0.648 OA
ATOM    161  OD2 ASP d   8    1398.588 416.041-1411.910  0.00  0.00    -0.648 OA
ENDBRANCH 158 159
ENDBRANCH  91 158
ENDBRANCH  88  91
ENDBRANCH  86  87
BRANCH  86 162
ATOM    162  CB  ILE d   9    1404.054 414.020-1410.281  0.00  0.00     0.013 C 
ATOM    163  CG2 ILE d   9    1405.406 414.787-1410.158  0.00  0.00     0.012 C 
BRANCH 162 164
ATOM    164  CG1 ILE d   9    1403.128 414.478-1409.109  0.00  0.00     0.002 C 
ATOM    165  CD1 ILE d   9    1403.589 414.078-1407.691  0.00  0.00     0.005 C 
ENDBRANCH 162 164
ENDBRANCH  86 162
ENDBRANCH   1  86
TORSDOF 67
