REMARK WARNING: 32 MAX_TORS EXCEEDED!!!
REMARK  69 active torsions:
REMARK  status: ('A' for Active; 'I' for Inactive)
REMARK    1  A    between atoms: N_1  and  CA_2 
REMARK    2  A    between atoms: CA_2  and  C_3 
REMARK    3  A    between atoms: CA_2  and  CB_5 
REMARK       I    between atoms: C_3  and  N_11 
REMARK    4  A    between atoms: CB_5  and  CG_6 
REMARK    5  A    between atoms: CG_6  and  CD_7 
REMARK    6  A    between atoms: N_11  and  CA_12 
REMARK    7  A    between atoms: CA_12  and  C_13 
REMARK    8  A    between atoms: CA_12  and  CB_15 
REMARK       I    between atoms: C_13  and  N_22 
REMARK    9  A    between atoms: CB_15  and  CG_16 
REMARK       I    between atoms: CG_16  and  ND2_17 
REMARK   10  A    between atoms: CA_23  and  C_24 
REMARK       I    between atoms: C_24  and  N_29 
REMARK   11  A    between atoms: N_29  and  CA_30 
REMARK   12  A    between atoms: CA_30  and  C_31 
REMARK   13  A    between atoms: CA_30  and  CB_33 
REMARK       I    between atoms: C_31  and  N_46 
REMARK   14  A    between atoms: CB_33  and  CG_34 
REMARK   15  A    between atoms: CG_34  and  CD_35 
REMARK   16  A    between atoms: CD_35  and  NE_36 
REMARK       I    between atoms: NE_36  and  CZ_37 
REMARK       I    between atoms: CZ_37  and  NH1_38 
REMARK       I    between atoms: CZ_37  and  NH2_39 
REMARK   17  A    between atoms: N_46  and  CA_47 
REMARK   18  A    between atoms: CA_47  and  C_48 
REMARK   19  A    between atoms: CA_47  and  CB_50 
REMARK       I    between atoms: C_48  and  N_54 
REMARK   20  A    between atoms: CB_50  and  OG_51 
REMARK   21  A    between atoms: N_54  and  CA_55 
REMARK   22  A    between atoms: CA_55  and  C_56 
REMARK   23  A    between atoms: CA_55  and  CB_58 
REMARK       I    between atoms: C_56  and  N_63 
REMARK   24  A    between atoms: CB_58  and  CG1_59 
REMARK   25  A    between atoms: N_63  and  CA_64 
REMARK   26  A    between atoms: CA_64  and  C_65 
REMARK   27  A    between atoms: CA_64  and  CB_67 
REMARK       I    between atoms: C_65  and  N_72 
REMARK   28  A    between atoms: CB_67  and  CG_68 
REMARK   29  A    between atoms: N_72  and  CA_73 
REMARK   30  A    between atoms: CA_73  and  C_74 
REMARK   31  A    between atoms: CA_73  and  CB_76 
REMARK       I    between atoms: C_74  and  N_81 
REMARK   32  A    between atoms: CB_76  and  CG_77 
REMARK   33  A    between atoms: N_81  and  CA_82 
REMARK   34  A    between atoms: CA_82  and  C_83 
REMARK   35  A    between atoms: CA_82  and  CB_85 
REMARK       I    between atoms: C_83  and  N_91 
REMARK   36  A    between atoms: CB_85  and  CG_86 
REMARK   37  A    between atoms: CG_86  and  CD_87 
REMARK   38  A    between atoms: N_91  and  CA_92 
REMARK   39  A    between atoms: CA_92  and  C_93 
REMARK   40  A    between atoms: CA_92  and  CB_95 
REMARK       I    between atoms: C_93  and  N_103 
REMARK   41  A    between atoms: CB_95  and  CG_96 
REMARK   42  A    between atoms: N_103  and  CA_104 
REMARK   43  A    between atoms: CA_104  and  C_105 
REMARK   44  A    between atoms: CA_104  and  CB_107 
REMARK       I    between atoms: C_105  and  N_111 
REMARK   45  A    between atoms: N_111  and  CA_112 
REMARK   46  A    between atoms: CA_112  and  C_113 
REMARK   47  A    between atoms: CA_112  and  CB_115 
REMARK       I    between atoms: C_113  and  N_123 
REMARK   48  A    between atoms: CB_115  and  CG_116 
REMARK   49  A    between atoms: CG_116  and  CD_117 
REMARK       I    between atoms: CD_117  and  NE2_118 
REMARK   50  A    between atoms: N_123  and  CA_124 
REMARK   51  A    between atoms: CA_124  and  C_125 
REMARK   52  A    between atoms: CA_124  and  CB_127 
REMARK       I    between atoms: C_125  and  N_140 
REMARK   53  A    between atoms: CB_127  and  CG_128 
REMARK   54  A    between atoms: CG_128  and  CD_129 
REMARK   55  A    between atoms: CD_129  and  NE_130 
REMARK       I    between atoms: NE_130  and  CZ_131 
REMARK       I    between atoms: CZ_131  and  NH1_132 
REMARK       I    between atoms: CZ_131  and  NH2_133 
REMARK   56  A    between atoms: N_140  and  CA_141 
REMARK   57  A    between atoms: CA_141  and  C_142 
REMARK   58  A    between atoms: CA_141  and  CB_144 
REMARK       I    between atoms: C_142  and  N_148 
REMARK   59  A    between atoms: N_148  and  CA_149 
REMARK   60  A    between atoms: CA_149  and  C_150 
REMARK   61  A    between atoms: CA_149  and  CB_152 
REMARK       I    between atoms: C_150  and  N_157 
REMARK   62  A    between atoms: CB_152  and  CG_153 
REMARK   63  A    between atoms: CG_153  and  SD_154 
REMARK   64  A    between atoms: N_157  and  CA_158 
REMARK   65  A    between atoms: CA_158  and  C_159 
REMARK   66  A    between atoms: CA_158  and  CB_161 
REMARK   67  A    between atoms: CB_161  and  CG_162 
REMARK   68  A    between atoms: CG_162  and  CD_163 
REMARK   69  A    between atoms: CD_163  and  NE_164 
REMARK       I    between atoms: NE_164  and  CZ_165 
REMARK       I    between atoms: CZ_165  and  NH1_166 
ROOT
ATOM      1  CA  GLU d   9     697.791 181.473-649.100  0.00  0.00     0.177 C 
ENDROOT
BRANCH   1   2
ATOM      2  N   GLU d   9     696.488 180.816-649.156  0.00  0.00    -0.346 N 
ATOM      3  C   ASP d   8     695.809 180.866-650.252  0.00  0.00     0.241 C 
ATOM      4  O   ASP d   8     696.283 181.471-651.226  0.00  0.00    -0.271 OA
ATOM      5  H   GLU d   9     696.124 180.329-648.349  0.00  0.00     0.163 HD
BRANCH   3   6
ATOM      6  CA  ASP d   8     694.462 180.187-650.310  0.00  0.00     0.186 C 
BRANCH   6   7
ATOM      7  N   ASP d   8     694.532 178.837-649.757  0.00  0.00    -0.346 N 
ATOM      8  C   LEU d   7     695.369 177.996-650.263  0.00  0.00     0.241 C 
ATOM      9  O   LEU d   7     696.091 178.359-651.204  0.00  0.00    -0.271 OA
ATOM     10  H   ASP d   8     693.934 178.566-648.990  0.00  0.00     0.163 HD
BRANCH   8  11
ATOM     11  CA  LEU d   7     695.441 176.601-649.691  0.00  0.00     0.177 C 
BRANCH  11  12
ATOM     12  N   LEU d   7     695.495 176.636-648.232  0.00  0.00    -0.346 N 
ATOM     13  C   ILE d   6     696.440 177.299-647.658  0.00  0.00     0.241 C 
ATOM     14  O   ILE d   6     697.276 177.887-648.361  0.00  0.00    -0.271 OA
ATOM     15  H   LEU d   7     694.802 176.150-647.681  0.00  0.00     0.163 HD
BRANCH  13  16
ATOM     16  CA  ILE d   6     696.497 177.337-646.150  0.00  0.00     0.180 C 
BRANCH  16  17
ATOM     17  N   ILE d   6     695.183 177.632-645.584  0.00  0.00    -0.346 N 
ATOM     18  C   SER d   5     694.579 178.716-645.939  0.00  0.00     0.243 C 
ATOM     19  O   SER d   5     695.127 179.469-646.743  0.00  0.00    -0.271 OA
ATOM     20  H   ILE d   6     694.754 176.998-644.926  0.00  0.00     0.163 HD
BRANCH  18  21
ATOM     21  CA  SER d   5     693.220 179.022-645.354  0.00  0.00     0.200 C 
BRANCH  21  22
ATOM     22  N   SER d   5     692.350 177.851-645.413  0.00  0.00    -0.344 N 
ATOM     23  C   ARG d   4     692.123 177.298-646.557  0.00  0.00     0.241 C 
ATOM     24  O   ARG d   4     692.646 177.774-647.562  0.00  0.00    -0.271 OA
ATOM     25  H   SER d   5     691.932 177.479-644.572  0.00  0.00     0.163 HD
BRANCH  23  26
ATOM     26  CA  ARG d   4     691.223 176.087-646.619  0.00  0.00     0.176 C 
BRANCH  26  27
ATOM     27  N   ARG d   4     691.582 175.116-645.589  0.00  0.00    -0.346 N 
ATOM     28  C   PRO d   3     692.787 174.656-645.557  0.00  0.00     0.241 C 
ATOM     29  O   PRO d   3     693.610 175.040-646.388  0.00  0.00    -0.271 OA
ATOM     30  H   ARG d   4     690.898 174.809-644.912  0.00  0.00     0.163 HD
BRANCH  28  31
ATOM     31  CA  PRO d   3     693.185 173.633-644.480  0.00  0.00     0.179 C 
ATOM     32  N   PRO d   3     692.733 174.042-643.158  0.00  0.00    -0.337 N 
ATOM     33  C   ASN d   2     693.255 175.037-642.524  0.00  0.00     0.243 C 
ATOM     34  CD  PRO d   3     691.655 173.249-642.609  0.00  0.00     0.127 C 
ATOM     35  O   ASN d   2     694.170 175.668-643.053  0.00  0.00    -0.271 OA
ATOM     36  CG  PRO d   3     691.198 172.430-643.819  0.00  0.00     0.022 C 
ATOM     37  CB  PRO d   3     692.481 172.278-644.649  0.00  0.00     0.037 C 
BRANCH  33  38
ATOM     38  CA  ASN d   2     692.724 175.393-641.155  0.00  0.00     0.185 C 
BRANCH  38  39
ATOM     39  N   ASN d   2     691.264 175.431-641.155  0.00  0.00    -0.346 N 
ATOM     40  C   GLU d   1     690.660 176.217-641.981  0.00  0.00     0.242 C 
ATOM     41  O   GLU d   1     691.335 176.916-642.749  0.00  0.00    -0.271 OA
ATOM     42  H   ASN d   2     690.736 174.852-640.519  0.00  0.00     0.163 HD
BRANCH  40  43
ATOM     43  CA  GLU d   1     689.151 176.257-641.981  0.00  0.00     0.191 C 
BRANCH  43  44
ATOM     44  N   GLU d   1     688.592 174.908-641.981  0.00  0.00    -0.326 NA
ATOM     45  H   GLU d   1     689.219 174.029-641.981  0.00  0.00     0.180 HD
ENDBRANCH  43  44
BRANCH  43  46
ATOM     46  CB  GLU d   1     688.628 177.042-640.744  0.00  0.00     0.047 C 
BRANCH  46  47
ATOM     47  CG  GLU d   1     689.103 178.527-640.633  0.00  0.00     0.116 C 
BRANCH  47  48
ATOM     48  CD  GLU d   1     688.679 179.331-639.418  0.00  0.00     0.172 C 
ATOM     49  OE1 GLU d   1     687.951 178.829-638.540  0.00  0.00    -0.648 OA
ATOM     50  OE2 GLU d   1     689.109 180.501-639.346  0.00  0.00    -0.648 OA
ENDBRANCH  47  48
ENDBRANCH  46  47
ENDBRANCH  43  46
ENDBRANCH  40  43
ENDBRANCH  38  39
BRANCH  38  51
ATOM     51  CB  ASN d   2     693.216 174.370-640.091  0.00  0.00     0.137 C 
BRANCH  51  52
ATOM     52  CG  ASN d   2     692.753 174.594-638.648  0.00  0.00     0.217 C 
ATOM     53  ND2 ASN d   2     693.347 175.509-637.930  0.00  0.00    -0.370 N 
ATOM     54 21HD ASN d   2     692.866 175.681-637.043  0.00  0.00     0.159 HD
ATOM     55 22HD ASN d   2     694.049 176.080-638.399  0.00  0.00     0.159 HD
ATOM     56  OD1 ASN d   2     691.832 173.960-638.154  0.00  0.00    -0.274 OA
ENDBRANCH  51  52
ENDBRANCH  38  51
ENDBRANCH  33  38
ENDBRANCH  28  31
ENDBRANCH  26  27
BRANCH  26  57
ATOM     57  CB  ARG d   4     689.730 176.481-646.437  0.00  0.00     0.036 C 
BRANCH  57  58
ATOM     58  CG  ARG d   4     689.104 177.292-647.607  0.00  0.00     0.023 C 
BRANCH  58  59
ATOM     59  CD  ARG d   4     687.640 177.669-647.331  0.00  0.00     0.138 C 
BRANCH  59  60
ATOM     60  NE  ARG d   4     687.088 178.426-648.493  0.00  0.00    -0.227 N 
ATOM     61  CZ  ARG d   4     685.852 178.908-648.580  0.00  0.00     0.665 C 
ATOM     62  NH1 ARG d   4     684.960 178.779-647.639  0.00  0.00    -0.235 N 
ATOM     63  NH2 ARG d   4     685.513 179.540-649.659  0.00  0.00    -0.235 N 
ATOM     64 11HH ARG d   4     685.291 178.272-646.815  0.00  0.00     0.174 HD
ATOM     65 12HH ARG d   4     684.030 179.178-647.783  0.00  0.00     0.174 HD
ATOM     66 21HH ARG d   4     686.226 179.632-650.385  0.00  0.00     0.174 HD
ATOM     67 22HH ARG d   4     684.559 179.901-649.708  0.00  0.00     0.174 HD
ATOM     68  HE  ARG d   4     687.664 178.616-649.320  0.00  0.00     0.177 HD
ENDBRANCH  59  60
ENDBRANCH  58  59
ENDBRANCH  57  58
ENDBRANCH  26  57
ENDBRANCH  23  26
ENDBRANCH  21  22
BRANCH  21  69
ATOM     69  CB  SER d   5     693.331 179.553-643.903  0.00  0.00     0.199 C 
BRANCH  69  70
ATOM     70  OG  SER d   5     694.062 178.674-643.042  0.00  0.00    -0.398 OA
ATOM     71  HG  SER d   5     693.573 177.849-642.992  0.00  0.00     0.209 HD
ENDBRANCH  69  70
ENDBRANCH  21  69
ENDBRANCH  18  21
ENDBRANCH  16  17
BRANCH  16  72
ATOM     72  CB  ILE d   6     697.095 176.000-645.550  0.00  0.00     0.013 C 
ATOM     73  CG2 ILE d   6     698.537 175.698-646.064  0.00  0.00     0.012 C 
BRANCH  72  74
ATOM     74  CG1 ILE d   6     697.114 175.938-643.989  0.00  0.00     0.002 C 
ATOM     75  CD1 ILE d   6     697.383 174.548-643.374  0.00  0.00     0.005 C 
ENDBRANCH  72  74
ENDBRANCH  16  72
ENDBRANCH  13  16
ENDBRANCH  11  12
BRANCH  11  76
ATOM     76  CB  LEU d   7     694.237 175.741-650.172  0.00  0.00     0.038 C 
BRANCH  76  77
ATOM     77  CG  LEU d   7     694.164 174.262-649.706  0.00  0.00    -0.020 C 
ATOM     78  CD1 LEU d   7     692.974 173.557-650.373  0.00  0.00     0.009 C 
ATOM     79  CD2 LEU d   7     695.457 173.482-649.997  0.00  0.00     0.009 C 
ENDBRANCH  76  77
ENDBRANCH  11  76
ENDBRANCH   8  11
ENDBRANCH   6   7
BRANCH   6  80
ATOM     80  CB  ASP d   8     693.384 181.026-649.568  0.00  0.00     0.147 C 
BRANCH  80  81
ATOM     81  CG  ASP d   8     693.166 182.447-650.108  0.00  0.00     0.175 C 
ATOM     82  OD1 ASP d   8     693.231 182.646-651.339  0.00  0.00    -0.648 OA
ATOM     83  OD2 ASP d   8     692.974 183.373-649.293  0.00  0.00    -0.648 OA
ENDBRANCH  80  81
ENDBRANCH   6  80
ENDBRANCH   3   6
ENDBRANCH   1   2
BRANCH   1  84
ATOM     84  C   GLU d   9     698.710 180.945-650.175  0.00  0.00     0.241 C 
ATOM     85  O   GLU d   9     699.375 181.699-650.900  0.00  0.00    -0.271 OA
ATOM     86  N   HIS d  10     698.806 179.670-650.345  0.00  0.00    -0.346 N 
ATOM     87  H   HIS d  10     698.274 179.034-649.767  0.00  0.00     0.163 HD
BRANCH  86  88
ATOM     88  CA  HIS d  10     699.694 179.159-651.385  0.00  0.00     0.182 C 
BRANCH  88  89
ATOM     89  C   HIS d  10     699.328 179.724-652.736  0.00  0.00     0.241 C 
ATOM     90  O   HIS d  10     700.182 180.189-653.507  0.00  0.00    -0.271 OA
ATOM     91  N   VAL d  11     698.091 179.724-653.100  0.00  0.00    -0.346 N 
ATOM     92  H   VAL d  11     697.377 179.351-652.490  0.00  0.00     0.163 HD
BRANCH  91  93
ATOM     93  CA  VAL d  11     697.737 180.270-654.407  0.00  0.00     0.180 C 
BRANCH  93  94
ATOM     94  C   VAL d  11     698.202 181.701-654.538  0.00  0.00     0.241 C 
ATOM     95  O   VAL d  11     698.803 182.106-655.541  0.00  0.00    -0.271 OA
ATOM     96  N   GLN d  12     697.964 182.526-653.575  0.00  0.00    -0.346 N 
ATOM     97  H   GLN d  12     697.475 182.220-652.747  0.00  0.00     0.163 HD
BRANCH  96  98
ATOM     98  CA  GLN d  12     698.413 183.909-653.702  0.00  0.00     0.177 C 
BRANCH  98  99
ATOM     99  C   GLN d  12     699.904 183.976-653.938  0.00  0.00     0.241 C 
ATOM    100  O   GLN d  12     700.391 184.685-654.816  0.00  0.00    -0.271 OA
ATOM    101  N   ARG d  13     700.687 183.269-653.198  0.00  0.00    -0.346 N 
ATOM    102  H   ARG d  13     700.310 182.678-652.470  0.00  0.00     0.163 HD
BRANCH 101 103
ATOM    103  CA  ARG d  13     702.128 183.334-653.427  0.00  0.00     0.176 C 
BRANCH 103 104
ATOM    104  C   ARG d  13     702.465 182.963-654.852  0.00  0.00     0.241 C 
ATOM    105  O   ARG d  13     703.234 183.635-655.536  0.00  0.00    -0.271 OA
ATOM    106  N   VAL d  14     701.928 181.909-655.368  0.00  0.00    -0.346 N 
ATOM    107  H   VAL d  14     701.293 181.340-654.826  0.00  0.00     0.163 HD
BRANCH 106 108
ATOM    108  CA  VAL d  14     702.254 181.550-656.745  0.00  0.00     0.180 C 
BRANCH 108 109
ATOM    109  C   VAL d  14     701.925 182.681-657.690  0.00  0.00     0.241 C 
ATOM    110  O   VAL d  14     702.719 183.063-658.559  0.00  0.00    -0.271 OA
ATOM    111  N   MET d  15     700.780 183.267-657.589  0.00  0.00    -0.346 N 
ATOM    112  H   MET d  15     700.115 182.974-656.888  0.00  0.00     0.163 HD
BRANCH 111 113
ATOM    113  CA  MET d  15     700.461 184.361-658.502  0.00  0.00     0.177 C 
BRANCH 113 114
ATOM    114  C   MET d  15     701.492 185.460-658.413  0.00  0.00     0.241 C 
ATOM    115  O   MET d  15     701.995 185.971-659.425  0.00  0.00    -0.271 OA
ATOM    116  N   ARG d  16     701.860 185.880-657.250  0.00  0.00    -0.347 N 
ATOM    117  H   ARG d  16     701.464 185.480-656.412  0.00  0.00     0.163 HD
BRANCH 116 118
ATOM    118  CA  ARG d  16     702.857 186.944-657.165  0.00  0.00     0.162 C 
BRANCH 118 119
ATOM    119  C   ARG d  16     704.128 186.551-657.881  0.00  0.00     0.219 C 
ATOM    120  O   ARG d  16     704.241 185.475-658.463  0.00  0.00    -0.287 OA
ENDBRANCH 118 119
BRANCH 118 121
ATOM    121  CB  ARG d  16     703.125 187.261-655.667  0.00  0.00     0.035 C 
BRANCH 121 122
ATOM    122  CG  ARG d  16     703.951 188.549-655.393  0.00  0.00     0.023 C 
BRANCH 122 123
ATOM    123  CD  ARG d  16     704.199 188.767-653.891  0.00  0.00     0.138 C 
BRANCH 123 124
ATOM    124  NE  ARG d  16     704.976 190.026-653.689  0.00  0.00    -0.227 N 
ATOM    125  CZ  ARG d  16     705.367 190.507-652.513  0.00  0.00     0.665 C 
ATOM    126  NH1 ARG d  16     705.118 189.923-651.375  0.00  0.00    -0.235 N 
ATOM    127  NH2 ARG d  16     706.031 191.620-652.493  0.00  0.00    -0.235 N 
ATOM    128 11HH ARG d  16     704.592 189.050-651.460  0.00  0.00     0.174 HD
ATOM    129 12HH ARG d  16     705.453 190.357-650.513  0.00  0.00     0.174 HD
ATOM    130 21HH ARG d  16     706.218 192.063-653.395  0.00  0.00     0.174 HD
ATOM    131 22HH ARG d  16     706.321 191.974-651.581  0.00  0.00     0.174 HD
ATOM    132  HE  ARG d  16     705.255 190.607-654.486  0.00  0.00     0.177 HD
ENDBRANCH 123 124
ENDBRANCH 122 123
ENDBRANCH 121 122
ENDBRANCH 118 121
ENDBRANCH 116 118
ENDBRANCH 113 114
BRANCH 113 133
ATOM    133  CB  MET d  15     699.039 184.907-658.194  0.00  0.00     0.045 C 
BRANCH 133 134
ATOM    134  CG  MET d  15     697.877 183.909-658.387  0.00  0.00     0.076 C 
BRANCH 134 135
ATOM    135  SD  MET d  15     696.304 184.776-658.273  0.00  0.00    -0.173 SA
ATOM    136  CE  MET d  15     695.222 183.347-658.138  0.00  0.00     0.089 C 
ENDBRANCH 134 135
ENDBRANCH 133 134
ENDBRANCH 113 133
ENDBRANCH 111 113
ENDBRANCH 108 109
BRANCH 108 137
ATOM    137  CB  VAL d  14     701.481 180.234-657.153  0.00  0.00     0.009 C 
ATOM    138  CG1 VAL d  14     701.571 179.816-658.647  0.00  0.00     0.012 C 
ATOM    139  CG2 VAL d  14     701.912 178.981-656.353  0.00  0.00     0.012 C 
ENDBRANCH 108 137
ENDBRANCH 106 108
ENDBRANCH 103 104
BRANCH 103 140
ATOM    140  CB  ARG d  13     702.840 182.394-652.414  0.00  0.00     0.036 C 
BRANCH 140 141
ATOM    141  CG  ARG d  13     704.385 182.546-652.331  0.00  0.00     0.023 C 
BRANCH 141 142
ATOM    142  CD  ARG d  13     705.011 181.558-651.334  0.00  0.00     0.138 C 
BRANCH 142 143
ATOM    143  NE  ARG d  13     706.488 181.764-651.282  0.00  0.00    -0.227 N 
ATOM    144  CZ  ARG d  13     707.336 181.072-650.527  0.00  0.00     0.665 C 
ATOM    145  NH1 ARG d  13     706.970 180.107-649.731  0.00  0.00    -0.235 N 
ATOM    146  NH2 ARG d  13     708.595 181.370-650.583  0.00  0.00    -0.235 N 
ATOM    147 11HH ARG d  13     705.964 179.921-649.734  0.00  0.00     0.174 HD
ATOM    148 12HH ARG d  13     707.682 179.624-649.182  0.00  0.00     0.174 HD
ATOM    149 21HH ARG d  13     708.863 182.129-651.213  0.00  0.00     0.174 HD
ATOM    150 22HH ARG d  13     709.230 180.828-649.994  0.00  0.00     0.174 HD
ATOM    151  HE  ARG d  13     706.940 182.487-651.852  0.00  0.00     0.177 HD
ENDBRANCH 142 143
ENDBRANCH 141 142
ENDBRANCH 140 141
ENDBRANCH 103 140
ENDBRANCH 101 103
ENDBRANCH  98  99
BRANCH  98 152
ATOM    152  CB  GLN d  12     698.022 184.676-652.419  0.00  0.00     0.044 C 
BRANCH 152 153
ATOM    153  CG  GLN d  12     698.383 186.198-652.386  0.00  0.00     0.105 C 
BRANCH 153 154
ATOM    154  CD  GLN d  12     698.080 187.010-651.121  0.00  0.00     0.215 C 
ATOM    155  NE2 GLN d  12     697.512 186.434-650.093  0.00  0.00    -0.370 N 
ATOM    156 21HE GLN d  12     697.404 187.028-649.269  0.00  0.00     0.159 HD
ATOM    157 22HE GLN d  12     697.348 185.430-650.197  0.00  0.00     0.159 HD
ATOM    158  OE1 GLN d  12     698.382 188.191-651.043  0.00  0.00    -0.274 OA
ENDBRANCH 153 154
ENDBRANCH 152 153
ENDBRANCH  98 152
ENDBRANCH  96  98
ENDBRANCH  93  94
BRANCH  93 159
ATOM    159  CB  VAL d  11     696.176 180.164-654.627  0.00  0.00     0.009 C 
ATOM    160  CG1 VAL d  11     695.608 180.869-655.890  0.00  0.00     0.012 C 
ATOM    161  CG2 VAL d  11     695.651 178.710-654.701  0.00  0.00     0.012 C 
ENDBRANCH  93 159
ENDBRANCH  91  93
ENDBRANCH  88  89
BRANCH  88 162
ATOM    162  CB  HIS d  10     699.530 177.630-651.381  0.00  0.00     0.095 C 
BRANCH 162 163
ATOM    163  CG  HIS d  10     700.815 176.919-651.072  0.00  0.00     0.053 A 
ATOM    164  CD2 HIS d  10     701.195 176.583-649.780  0.00  0.00     0.116 A 
ATOM    165  NE2 HIS d  10     702.410 175.951-649.846  0.00  0.00    -0.359 N 
ATOM    166  CE1 HIS d  10     702.673 175.954-651.181  0.00  0.00     0.207 A 
ATOM    167  2HE HIS d  10     702.976 175.573-649.073  0.00  0.00     0.166 HD
ATOM    168  ND1 HIS d  10     701.767 176.513-652.005  0.00  0.00    -0.247 NA
ENDBRANCH 162 163
ENDBRANCH  88 162
ENDBRANCH  86  88
ENDBRANCH   1  84
BRANCH   1 169
ATOM    169  CB  GLU d   9     698.424 181.264-647.694  0.00  0.00     0.045 C 
BRANCH 169 170
ATOM    170  CG  GLU d   9     699.807 181.956-647.464  0.00  0.00     0.116 C 
BRANCH 170 171
ATOM    171  CD  GLU d   9     700.508 181.742-646.135  0.00  0.00     0.172 C 
ATOM    172  OE1 GLU d   9     699.985 181.050-645.239  0.00  0.00    -0.648 OA
ATOM    173  OE2 GLU d   9     701.627 182.279-646.002  0.00  0.00    -0.648 OA
ENDBRANCH 170 171
ENDBRANCH 169 170
ENDBRANCH   1 169
TORSDOF 69
