@<TRIPOS>MOLECULE
3-8
271 272 16              
SMALL
USER_CHARGES
@<TRIPOS>ATOM
1	   N	406.100	93.263	-374.301	N.3	1	GLU1	-0.516	
2	  CA	406.659	94.612	-374.301	C.3	1	GLU1	0.040	
3	   C	408.168	94.572	-374.301	C.2	1	GLU1	0.537	
4	   O	408.844	95.271	-375.070	O.2	1	GLU1	-0.582	
5	  CB	406.136	95.397	-373.064	C.3	1	GLU1	0.056	
6	  CG	406.611	96.882	-372.953	C.3	1	GLU1	0.014	
7	  CD	406.187	97.686	-371.738	C.2	1	GLU1	0.805	
8	 OE1	405.459	97.184	-370.860	O.co2	1	GLU1	-0.819	
9	 OE2	406.617	98.856	-371.666	O.co2	1	GLU1	-0.819	
10	   H	406.727	92.384	-374.301	 H	1	GLU1	0.294	
11	  HA	406.333	95.130	-375.221	 H	1	GLU1	0.111	
12	 2HB	406.425	94.866	-372.134	 H	1	GLU1	-0.017	
13	 3HB	405.029	95.387	-373.051	 H	1	GLU1	-0.017	
14	 2HG	406.301	97.467	-373.834	 H	1	GLU1	-0.043	
15	 3HG	407.711	96.949	-372.924	 H	1	GLU1	-0.043	
16	   N	408.773	93.786	-373.476	N.am	2	ASN2	-0.416	
17	  CA	410.232	93.748	-373.476	C.3	2	ASN2	0.014	
18	   C	410.763	93.392	-374.845	C.2	2	ASN2	0.597	
19	   O	411.678	94.023	-375.374	O.2	2	ASN2	-0.568	
20	  CB	410.725	92.725	-372.412	C.3	2	ASN2	-0.204	
21	  CG	410.262	92.949	-370.968	C.2	2	ASN2	0.713	
22	 ND2	410.856	93.864	-370.250	N.pl3	2	ASN2	-0.919	
23	 OD1	409.341	92.315	-370.474	O.2	2	ASN2	-0.593	
24	   H	408.245	93.207	-372.840	 H	2	ASN2	0.272	
25	  HA	410.610	94.758	-373.231	 H	2	ASN2	0.105	
26	 2HB	411.829	92.666	-372.415	 H	2	ASN2	0.080	
27	 3HB	410.396	91.707	-372.698	 H	2	ASN2	0.080	
28	1HD2	410.375	94.037	-369.364	 H	2	ASN2	0.420	
29	2HD2	411.557	94.435	-370.720	 H	2	ASN2	0.420	
30	   N	410.242	92.397	-375.479	N.am	3	PHE3	-0.416	
31	  CA	410.755	92.053	-376.802	C.3	3	PHE3	-0.002	
32	   C	410.661	93.231	-377.742	C.2	3	PHE3	0.597	
33	   O	411.629	93.579	-378.475	O.2	3	PHE3	-0.568	
34	  CB	409.940	90.867	-377.399	C.3	3	PHE3	-0.034	
35	  CG	409.916	89.569	-376.576	C.2	3	PHE3	0.012	
36	 CD1	408.932	89.389	-375.597	C.2	3	PHE3	-0.126	
37	 CD2	410.902	88.594	-376.748	C.2	3	PHE3	-0.126	
38	 CE1	408.945	88.258	-374.789	C.2	3	PHE3	-0.170	
39	 CE2	410.908	87.456	-375.946	C.2	3	PHE3	-0.170	
40	  CZ	409.931	87.290	-374.965	C.2	3	PHE3	-0.107	
41	   H	409.490	91.864	-375.066	 H	3	PHE3	0.272	
42	  HA	411.821	91.771	-376.711	 H	3	PHE3	0.098	
43	 2HB	410.323	90.630	-378.412	 H	3	PHE3	0.030	
44	 3HB	408.896	91.190	-377.588	 H	3	PHE3	0.030	
45	 1HD	408.182	90.152	-375.434	 H	3	PHE3	0.133	
46	 2HD	411.675	88.727	-377.492	 H	3	PHE3	0.133	
47	 1HE	408.199	88.143	-374.016	 H	3	PHE3	0.143	
48	 2HE	411.676	86.708	-376.077	 H	3	PHE3	0.143	
49	  HZ	409.942	86.415	-374.333	 H	3	PHE3	0.130	
50	   N	409.561	93.901	-377.799	N.am	4	GLU4	-0.516	
51	  CA	409.471	95.040	-378.709	C.3	4	GLU4	0.040	
52	   C	410.551	96.052	-378.416	C.2	4	GLU4	0.537	
53	   O	411.246	96.550	-379.313	O.2	4	GLU4	-0.582	
54	  CB	408.065	95.696	-378.592	C.3	4	GLU4	0.056	
55	  CG	407.799	96.905	-379.546	C.3	4	GLU4	0.014	
56	  CD	406.470	97.629	-379.440	C.2	4	GLU4	0.805	
57	 OE1	405.601	97.257	-378.629	O.co2	4	GLU4	-0.819	
58	 OE2	406.310	98.612	-380.193	O.co2	4	GLU4	-0.819	
59	   H	408.773	93.642	-377.223	 H	4	GLU4	0.294	
60	  HA	409.615	94.679	-379.743	 H	4	GLU4	0.111	
61	 2HB	407.893	96.029	-377.548	 H	4	GLU4	-0.017	
62	 3HB	407.279	94.937	-378.769	 H	4	GLU4	-0.017	
63	 2HG	407.907	96.610	-380.603	 H	4	GLU4	-0.043	
64	 3HG	408.535	97.710	-379.386	 H	4	GLU4	-0.043	
65	   N	410.758	96.411	-377.194	N.am	5	SER5	-0.416	
66	  CA	411.803	97.390	-376.911	C.3	5	SER5	-0.025	
67	   C	413.141	96.919	-377.433	C.2	5	SER5	0.597	
68	   O	413.882	97.654	-378.084	O.2	5	SER5	-0.568	
69	  CB	411.863	97.712	-375.397	C.3	5	SER5	0.212	
70	  OG	412.350	96.616	-374.614	O.3	5	SER5	-0.655	
71	   H	410.205	96.020	-376.444	 H	5	SER5	0.272	
72	  HA	411.556	98.319	-377.457	 H	5	SER5	0.084	
73	 2HB	410.873	98.028	-375.016	 H	5	SER5	0.035	
74	 3HB	412.526	98.583	-375.227	 H	5	SER5	0.035	
75	  HG	411.726	95.893	-374.713	 H	5	SER5	0.428	
76	   N	413.517	95.710	-377.188	N.am	6	ILE6	-0.416	
77	  CA	414.810	95.255	-377.692	C.3	6	ILE6	-0.060	
78	   C	414.892	95.413	-379.190	C.2	6	ILE6	0.597	
79	   O	415.878	95.923	-379.744	O.2	6	ILE6	-0.568	
80	  CB	415.115	93.769	-377.239	C.3	6	ILE6	0.130	
81	 CG1	414.973	93.514	-375.704	C.3	6	ILE6	-0.043	
82	 CG2	416.527	93.278	-377.684	C.3	6	ILE6	-0.320	
83	 CD1	414.944	92.034	-375.268	C.3	6	ILE6	-0.066	
84	   H	412.926	95.087	-376.655	 H	6	ILE6	0.272	
85	  HA	415.586	95.915	-377.263	 H	6	ILE6	0.087	
86	  HB	414.363	93.124	-377.740	 H	6	ILE6	0.019	
87	2HG1	414.026	93.954	-375.341	 H	6	ILE6	0.024	
88	3HG1	415.762	94.059	-375.150	 H	6	ILE6	0.024	
89	1HG2	416.675	93.311	-378.778	 H	6	ILE6	0.088	
90	2HG2	417.339	93.875	-377.225	 H	6	ILE6	0.088	
91	3HG2	416.711	92.223	-377.414	 H	6	ILE6	0.088	
92	1HD1	414.137	91.472	-375.775	 H	6	ILE6	0.019	
93	2HD1	415.895	91.511	-375.479	 H	6	ILE6	0.019	
94	3HD1	414.769	91.941	-374.180	 H	6	ILE6	0.019	
95	   N	413.907	95.006	-379.917	N.am	7	LEU7	-0.416	
96	  CA	413.988	95.160	-381.367	C.3	7	LEU7	-0.052	
97	   C	414.207	96.605	-381.746	C.2	7	LEU7	0.597	
98	   O	415.066	96.944	-382.574	O.2	7	LEU7	-0.568	
99	  CB	412.708	94.595	-382.048	C.3	7	LEU7	-0.110	
100	  CG	412.342	93.108	-381.796	C.3	7	LEU7	0.353	
101	 CD1	411.120	92.714	-382.637	C.3	7	LEU7	-0.412	
102	 CD2	413.508	92.150	-382.096	C.3	7	LEU7	-0.412	
103	   H	413.093	94.588	-379.490	 H	7	LEU7	0.272	
104	  HA	414.873	94.607	-381.728	 H	7	LEU7	0.092	
105	 2HB	412.795	94.751	-383.141	 H	7	LEU7	0.046	
106	 3HB	411.842	95.218	-381.747	 H	7	LEU7	0.046	
107	  HG	412.069	92.996	-380.726	 H	7	LEU7	-0.036	
108	1HD1	410.246	93.356	-382.417	 H	7	LEU7	0.100	
109	2HD1	411.316	92.792	-383.723	 H	7	LEU7	0.100	
110	3HD1	410.805	91.674	-382.437	 H	7	LEU7	0.100	
111	1HD2	413.885	92.261	-383.129	 H	7	LEU7	0.100	
112	2HD2	414.359	92.328	-381.413	 H	7	LEU7	0.100	
113	3HD2	413.220	91.091	-381.956	 H	7	LEU7	0.100	
114	   N	413.479	97.514	-381.191	N.am	8	ASP8	-0.516	
115	  CA	413.691	98.911	-381.557	C.3	8	ASP8	0.038	
116	   C	415.121	99.325	-381.309	C.2	8	ASP8	0.537	
117	   O	415.781	99.951	-382.154	O.2	8	ASP8	-0.582	
118	  CB	412.704	99.833	-380.788	C.3	8	ASP8	-0.030	
119	  CG	412.781	101.326	-381.142	C.2	8	ASP8	0.799	
120	 OD1	412.996	101.659	-382.326	O.co2	8	ASP8	-0.801	
121	 OD2	412.671	102.164	-380.224	O.co2	8	ASP8	-0.801	
122	   H	412.773	97.263	-380.514	 H	8	ASP8	0.294	
123	  HA	413.503	99.017	-382.643	 H	8	ASP8	0.088	
124	 2HB	412.868	99.737	-379.699	 H	8	ASP8	-0.012	
125	 3HB	411.662	99.521	-380.962	 H	8	ASP8	-0.012	
126	   N	415.675	99.020	-380.184	N.am	9	GLU9	-0.516	
127	  CA	417.058	99.421	-379.944	C.3	9	GLU9	0.040	
128	   C	417.973	98.872	-381.012	C.2	9	GLU9	0.537	
129	   O	418.822	99.578	-381.576	O.2	9	GLU9	-0.582	
130	  CB	417.510	98.932	-378.538	C.3	9	GLU9	0.056	
131	  CG	418.961	99.330	-378.115	C.3	9	GLU9	0.014	
132	  CD	419.485	98.833	-376.781	C.2	9	GLU9	0.805	
133	 OE1	418.771	98.142	-376.029	O.co2	9	GLU9	-0.819	
134	 OE2	420.661	99.140	-376.495	O.co2	9	GLU9	-0.819	
135	   H	415.159	98.512	-379.480	 H	9	GLU9	0.294	
136	  HA	417.118	100.523	-379.978	 H	9	GLU9	0.111	
137	 2HB	417.418	97.828	-378.478	 H	9	GLU9	-0.017	
138	 3HB	416.810	99.306	-377.765	 H	9	GLU9	-0.017	
139	 2HG	419.088	100.425	-378.108	 H	9	GLU9	-0.043	
140	 3HG	419.705	98.949	-378.833	 H	9	GLU9	-0.043	
141	   N	417.869	97.631	-381.348	N.am	10	HIS10	-0.416	
142	  CA	418.754	97.100	-382.381	C.3	10	HIS10	-0.058	
143	   C	418.619	97.883	-383.665	C.2	10	HIS10	0.597	
144	   O	419.608	98.278	-384.301	O.2	10	HIS10	-0.568	
145	  CB	418.334	95.637	-382.599	C.3	10	HIS10	-0.007	
146	  CG	419.446	94.675	-382.298	C.2	10	HIS10	0.187	
147	 CD2	419.639	94.120	-381.039	C.2	10	HIS10	-0.221	
148	 ND1	420.401	94.221	-383.205	N.2	10	HIS10	-0.543	
149	 CE1	421.117	93.413	-382.403	C.2	10	HIS10	0.163	
150	 NE2	420.730	93.293	-381.103	N.pl3	10	HIS10	-0.280	
151	   H	417.185	97.036	-380.903	 H	10	HIS10	0.272	
152	  HA	419.792	97.238	-382.035	 H	10	HIS10	0.136	
153	 2HB	418.008	95.464	-383.644	 H	10	HIS10	0.037	
154	 3HB	417.465	95.353	-381.969	 H	10	HIS10	0.037	
155	 2HD	419.015	94.326	-380.174	 H	10	HIS10	0.186	
156	 1HE	421.963	92.896	-382.837	 H	10	HIS10	0.144	
157	 2HE	421.148	92.728	-380.350	 H	10	HIS10	0.334	
158	   N	417.439	98.149	-384.114	N.am	11	VAL11	-0.416	
159	  CA	417.309	98.906	-385.355	C.3	11	VAL11	-0.087	
160	   C	418.018	100.235	-385.256	C.2	11	VAL11	0.597	
161	   O	418.773	100.645	-386.147	O.2	11	VAL11	-0.568	
162	  CB	415.780	99.110	-385.701	C.3	11	VAL11	0.299	
163	 CG1	415.463	100.054	-386.893	C.3	11	VAL11	-0.319	
164	 CG2	415.027	97.794	-386.012	C.3	11	VAL11	-0.319	
165	   H	416.618	97.839	-383.614	 H	11	VAL11	0.272	
166	  HA	417.795	98.340	-386.171	 H	11	VAL11	0.097	
167	  HB	415.299	99.559	-384.806	 H	11	VAL11	-0.030	
168	1HG1	415.917	99.708	-387.841	 H	11	VAL11	0.079	
169	2HG1	414.374	100.157	-387.069	 H	11	VAL11	0.079	
170	3HG1	415.821	101.087	-386.720	 H	11	VAL11	0.079	
171	1HG2	415.127	97.060	-385.192	 H	11	VAL11	0.079	
172	2HG2	413.940	97.962	-386.140	 H	11	VAL11	0.079	
173	3HG2	415.396	97.306	-386.934	 H	11	VAL11	0.079	
174	   N	417.833	100.966	-384.209	N.am	12	GLN12	-0.416	
175	  CA	418.518	102.250	-384.111	C.3	12	GLN12	-0.003	
176	   C	420.014	102.077	-384.228	C.2	12	GLN12	0.597	
177	   O	420.696	102.789	-384.963	O.2	12	GLN12	-0.568	
178	  CB	418.141	102.913	-382.767	C.3	12	GLN12	-0.004	
179	  CG	418.748	104.329	-382.501	C.3	12	GLN12	-0.064	
180	  CD	418.467	105.022	-381.161	C.2	12	GLN12	0.695	
181	 NE2	417.715	104.436	-380.266	N.pl3	12	GLN12	-0.941	
182	 OE1	418.955	106.111	-380.900	O.2	12	GLN12	-0.609	
183	   H	417.222	100.653	-383.468	 H	12	GLN12	0.272	
184	  HA	418.189	102.893	-384.949	 H	12	GLN12	0.085	
185	 2HB	418.440	102.232	-381.942	 H	12	GLN12	0.017	
186	 3HB	417.038	102.984	-382.700	 H	12	GLN12	0.017	
187	 2HG	418.449	105.028	-383.304	 H	12	GLN12	0.035	
188	 3HG	419.851	104.293	-382.565	 H	12	GLN12	0.035	
189	1HE2	417.631	104.934	-379.378	 H	12	GLN12	0.425	
190	2HE2	417.395	103.498	-380.518	 H	12	GLN12	0.425	
191	   N	420.593	101.156	-383.536	N.am	13	ARG13	-0.348	
192	  CA	422.039	100.989	-383.649	C.3	13	ARG13	-0.264	
193	   C	422.443	100.741	-385.083	C.2	13	ARG13	0.734	
194	   O	423.376	101.342	-385.611	O.2	13	ARG13	-0.589	
195	  CB	422.483	99.820	-382.725	C.3	13	ARG13	-0.001	
196	  CG	424.017	99.681	-382.511	C.3	13	ARG13	0.039	
197	  CD	424.369	98.482	-381.615	C.3	13	ARG13	0.049	
198	  NE	425.848	98.413	-381.429	N.pl3	13	ARG13	-0.530	
199	  CZ	426.491	97.492	-380.716	C.cat	13	ARG13	0.808	
200	 NH1	425.893	96.519	-380.088	N.pl3	13	ARG13	-0.863	
201	 NH2	427.782	97.565	-380.639	N.pl3	13	ARG13	-0.863	
202	   H	420.055	100.558	-382.925	 H	13	ARG13	0.275	
203	  HA	422.519	101.932	-383.325	 H	13	ARG13	0.156	
204	 2HB	422.068	98.872	-383.125	 H	13	ARG13	0.033	
205	 3HB	421.997	99.935	-381.735	 H	13	ARG13	0.033	
206	 2HG	424.409	100.622	-382.073	 H	13	ARG13	0.029	
207	 3HG	424.529	99.571	-383.489	 H	13	ARG13	0.029	
208	 2HD	423.984	97.549	-382.081	 H	13	ARG13	0.069	
209	 3HD	423.850	98.584	-380.638	 H	13	ARG13	0.069	
210	  HE	426.468	99.106	-381.860	 H	13	ARG13	0.346	
211	1HH1	424.876	96.519	-380.190	 H	13	ARG13	0.448	
212	2HH1	426.459	95.852	-379.560	 H	13	ARG13	0.448	
213	1HH2	428.233	98.333	-381.138	 H	13	ARG13	0.448	
214	2HH2	428.258	96.850	-380.085	 H	13	ARG13	0.448	
215	   N	421.789	99.871	-385.776	N.am	14	VAL14	-0.416	
216	  CA	422.179	99.631	-387.162	C.3	14	VAL14	-0.087	
217	   C	422.137	100.909	-387.965	C.2	14	VAL14	0.597	
218	   O	423.064	101.245	-388.714	O.2	14	VAL14	-0.568	
219	  CB	421.239	98.534	-387.802	C.3	14	VAL14	0.299	
220	 CG1	421.399	98.293	-389.328	C.3	14	VAL14	-0.319	
221	 CG2	421.374	97.136	-387.152	C.3	14	VAL14	-0.319	
222	   H	421.018	99.364	-385.365	 H	14	VAL14	0.272	
223	  HA	423.224	99.271	-387.181	 H	14	VAL14	0.097	
224	  HB	420.191	98.868	-387.644	 H	14	VAL14	-0.030	
225	1HG1	422.422	97.973	-389.601	 H	14	VAL14	0.079	
226	2HG1	420.702	97.521	-389.707	 H	14	VAL14	0.079	
227	3HG1	421.172	99.197	-389.924	 H	14	VAL14	0.079	
228	1HG2	421.211	97.173	-386.059	 H	14	VAL14	0.079	
229	2HG2	420.625	96.423	-387.548	 H	14	VAL14	0.079	
230	3HG2	422.373	96.690	-387.318	 H	14	VAL14	0.079	
231	   N	421.103	101.674	-387.868	N.am	15	MET15	-0.416	
232	  CA	421.061	102.910	-388.643	C.3	15	MET15	-0.024	
233	   C	422.249	103.787	-388.330	C.2	15	MET15	0.597	
234	   O	422.926	104.320	-389.223	O.2	15	MET15	-0.568	
235	  CB	419.729	103.661	-388.367	C.3	15	MET15	0.034	
236	  CG	418.439	102.919	-388.779	C.3	15	MET15	0.002	
237	  SD	417.031	104.034	-388.662	S.3	15	MET15	-0.274	
238	  CE	415.716	102.816	-388.803	C.3	15	MET15	-0.054	
239	   H	420.334	101.422	-387.264	 H	15	MET15	0.272	
240	  HA	421.121	102.654	-389.718	 H	15	MET15	0.088	
241	 2HB	419.741	104.633	-388.895	 H	15	MET15	0.024	
242	 3HB	419.661	103.923	-387.292	 H	15	MET15	0.024	
243	 2HG	418.274	102.049	-388.115	 H	15	MET15	0.044	
244	 3HG	418.508	102.525	-389.809	 H	15	MET15	0.044	
245	 1HE	415.822	102.223	-389.729	 H	15	MET15	0.068	
246	 2HE	415.738	102.125	-387.942	 H	15	MET15	0.068	
247	 3HE	414.730	103.312	-388.820	 H	15	MET15	0.068	
248	   N	422.570	103.990	-387.097	N.am	16	ARG16	-0.348	
249	  CA	423.719	104.839	-386.795	C.3	16	ARG16	-0.264	
250	   C	424.968	104.314	-387.464	C.2	16	ARG16	0.734	
251	   O	424.954	103.314	-388.178	O.2	16	ARG16	-0.589	
252	  CB	423.893	104.917	-385.252	C.3	16	ARG16	-0.001	
253	  CG	424.894	105.993	-384.745	C.3	16	ARG16	0.039	
254	  CD	425.031	105.978	-383.214	C.3	16	ARG16	0.049	
255	  NE	425.986	107.043	-382.785	N.pl3	16	ARG16	-0.530	
256	  CZ	426.338	107.299	-381.529	C.cat	16	ARG16	0.808	
257	 NH1	425.887	106.634	-380.503	N.pl3	16	ARG16	-0.863	
258	 NH2	427.175	108.263	-381.309	N.pl3	16	ARG16	-0.863	
259	   H	422.035	103.568	-386.352	 H	16	ARG16	0.275	
260	  HA	423.518	105.846	-387.206	 H	16	ARG16	0.156	
261	 2HB	424.187	103.915	-384.875	 H	16	ARG16	0.033	
262	 3HB	422.905	105.105	-384.784	 H	16	ARG16	0.033	
263	 2HG	424.562	106.992	-385.096	 H	16	ARG16	0.029	
264	 3HG	425.891	105.831	-385.203	 H	16	ARG16	0.029	
265	 2HD	425.382	104.975	-382.885	 H	16	ARG16	0.069	
266	 3HD	424.033	106.130	-382.750	 H	16	ARG16	0.069	
267	  HE	426.434	107.657	-383.472	 H	16	ARG16	0.346	
268	1HH1	425.232	105.887	-380.745	 H	16	ARG16	0.448	
269	2HH1	426.206	106.894	-379.568	 H	16	ARG16	0.448	
270	1HH2	427.519	108.773	-382.126	 H	16	ARG16	0.448	
271	2HH2	427.432	108.446	-380.338	 H	16	ARG16	0.448	
@<TRIPOS>BOND
1 1 2 1
2 1 10 1
3 2 3 1
4 2 5 1
5 2 11 1
6 3 4 2
7 3 16 1
8 5 6 1
9 6 7 1
10 7 8 2
11 7 9 1
12 5 12 1
13 5 13 1
14 6 14 1
15 6 15 1
16 16 17 1
17 16 24 1
18 17 18 1
19 17 20 1
20 17 25 1
21 18 19 2
22 18 30 1
23 20 21 1
24 21 22 1
25 21 23 2
26 20 26 1
27 20 27 1
28 22 28 1
29 22 29 1
30 30 31 1
31 30 41 1
32 31 32 1
33 31 34 1
34 31 42 1
35 32 33 2
36 32 50 1
37 34 35 1
38 35 36 2
39 35 37 1
40 37 39 2
41 36 38 1
42 39 40 1
43 38 40 2
44 34 43 1
45 34 44 1
46 36 45 1
47 37 46 1
48 38 47 1
49 39 48 1
50 40 49 1
51 50 51 1
52 50 59 1
53 51 52 1
54 51 54 1
55 51 60 1
56 52 53 2
57 52 65 1
58 54 55 1
59 55 56 1
60 56 57 2
61 56 58 1
62 54 61 1
63 54 62 1
64 55 63 1
65 55 64 1
66 65 66 1
67 65 71 1
68 66 67 1
69 66 69 1
70 66 72 1
71 67 68 2
72 67 76 1
73 69 70 1
74 69 73 1
75 69 74 1
76 70 75 1
77 76 77 1
78 76 84 1
79 77 78 1
80 77 80 1
81 77 85 1
82 78 79 2
83 78 95 1
84 80 81 1
85 80 82 1
86 81 83 1
87 80 86 1
88 81 87 1
89 81 88 1
90 82 89 1
91 82 90 1
92 82 91 1
93 83 92 1
94 83 93 1
95 83 94 1
96 95 96 1
97 95 103 1
98 96 97 1
99 96 99 1
100 96 104 1
101 97 98 2
102 97 114 1
103 99 100 1
104 100 101 1
105 100 102 1
106 99 105 1
107 99 106 1
108 100 107 1
109 101 108 1
110 101 109 1
111 101 110 1
112 102 111 1
113 102 112 1
114 102 113 1
115 114 115 1
116 114 122 1
117 115 116 1
118 115 118 1
119 115 123 1
120 116 117 2
121 116 126 1
122 118 119 1
123 119 120 2
124 119 121 1
125 118 124 1
126 118 125 1
127 126 127 1
128 126 135 1
129 127 128 1
130 127 130 1
131 127 136 1
132 128 129 2
133 128 141 1
134 130 131 1
135 131 132 1
136 132 133 2
137 132 134 1
138 130 137 1
139 130 138 1
140 131 139 1
141 131 140 1
142 141 142 1
143 141 151 1
144 142 143 1
145 142 145 1
146 142 152 1
147 143 144 2
148 143 158 1
149 145 146 1
150 146 147 2
151 147 150 1
152 146 148 1
153 148 149 2
154 149 150 1
155 145 153 1
156 145 154 1
157 147 155 1
158 149 156 1
159 150 157 1
160 158 159 1
161 158 165 1
162 159 160 1
163 159 162 1
164 159 166 1
165 160 161 2
166 160 174 1
167 162 163 1
168 162 164 1
169 162 167 1
170 163 168 1
171 163 169 1
172 163 170 1
173 164 171 1
174 164 172 1
175 164 173 1
176 174 175 1
177 174 183 1
178 175 176 1
179 175 178 1
180 175 184 1
181 176 177 2
182 176 191 1
183 178 179 1
184 179 180 1
185 180 181 1
186 180 182 2
187 178 185 1
188 178 186 1
189 179 187 1
190 179 188 1
191 181 189 1
192 181 190 1
193 191 192 1
194 191 202 1
195 192 193 1
196 192 195 1
197 192 203 1
198 193 194 2
199 193 215 1
200 195 196 1
201 196 197 1
202 197 198 1
203 198 199 1
204 199 200 2
205 199 201 1
206 195 204 1
207 195 205 1
208 196 206 1
209 196 207 1
210 197 208 1
211 197 209 1
212 198 210 1
213 200 211 1
214 200 212 1
215 201 213 1
216 201 214 1
217 215 216 1
218 215 222 1
219 216 217 1
220 216 219 1
221 216 223 1
222 217 218 2
223 217 231 1
224 219 220 1
225 219 221 1
226 219 224 1
227 220 225 1
228 220 226 1
229 220 227 1
230 221 228 1
231 221 229 1
232 221 230 1
233 231 232 1
234 231 239 1
235 232 233 1
236 232 235 1
237 232 240 1
238 233 234 2
239 233 248 1
240 235 236 1
241 236 237 1
242 237 238 1
243 235 241 1
244 235 242 1
245 236 243 1
246 236 244 1
247 238 245 1
248 238 246 1
249 238 247 1
250 248 249 1
251 248 259 1
252 249 250 1
253 249 252 1
254 249 260 1
255 250 251 2
256 252 253 1
257 253 254 1
258 254 255 1
259 255 256 1
260 256 257 2
261 256 258 1
262 252 261 1
263 252 262 1
264 253 263 1
265 253 264 1
266 254 265 1
267 254 266 1
268 255 267 1
269 257 268 1
270 257 269 1
271 258 270 1
272 258 271 1
@<TRIPOS>SUBSTRUCTURE
1	GLU1	1	RESIDUE	1 ****	GLU
2	ASN2	16	RESIDUE	1 ****	ASN
3	PHE3	30	RESIDUE	1 ****	PHE
4	GLU4	50	RESIDUE	1 ****	GLU
5	SER5	65	RESIDUE	1 ****	SER
6	ILE6	76	RESIDUE	1 ****	ILE
7	LEU7	95	RESIDUE	1 ****	LEU
8	ASP8	114	RESIDUE	1 ****	ASP
9	GLU9	126	RESIDUE	1 ****	GLU
10	HIS10	141	RESIDUE	1 ****	HIS
11	VAL11	158	RESIDUE	1 ****	VAL
12	GLN12	174	RESIDUE	1 ****	GLN
13	ARG13	191	RESIDUE	1 ****	ARG
14	VAL14	215	RESIDUE	1 ****	VAL
15	MET15	231	RESIDUE	1 ****	MET
16	ARG16	248	RESIDUE	1 ****	ARG
