@<TRIPOS>MOLECULE
15-13
259 260 16              
SMALL
USER_CHARGES
@<TRIPOS>ATOM
1	   N	2432.293	745.702	-2533.523	N.3	1	GLU1	-0.516	
2	  CA	2432.852	747.051	-2533.523	C.3	1	GLU1	0.040	
3	   C	2434.361	747.010	-2533.523	C.2	1	GLU1	0.537	
4	   O	2435.037	747.710	-2534.291	O.2	1	GLU1	-0.582	
5	  CB	2432.329	747.836	-2532.286	C.3	1	GLU1	0.056	
6	  CG	2432.804	749.320	-2532.175	C.3	1	GLU1	0.014	
7	  CD	2432.380	750.125	-2530.960	C.2	1	GLU1	0.805	
8	 OE1	2431.652	749.622	-2530.082	O.co2	1	GLU1	-0.819	
9	 OE2	2432.810	751.294	-2530.888	O.co2	1	GLU1	-0.819	
10	   H	2432.920	744.823	-2533.523	 H	1	GLU1	0.294	
11	  HA	2432.526	747.569	-2534.443	 H	1	GLU1	0.111	
12	 2HB	2432.618	747.305	-2531.356	 H	1	GLU1	-0.017	
13	 3HB	2431.222	747.826	-2532.273	 H	1	GLU1	-0.017	
14	 2HG	2432.494	749.906	-2533.056	 H	1	GLU1	-0.043	
15	 3HG	2433.904	749.388	-2532.146	 H	1	GLU1	-0.043	
16	   N	2434.966	746.225	-2532.698	N.am	2	ASN2	-0.416	
17	  CA	2436.425	746.186	-2532.697	C.3	2	ASN2	0.014	
18	   C	2436.957	745.830	-2534.066	C.2	2	ASN2	0.597	
19	   O	2437.872	746.460	-2534.594	O.2	2	ASN2	-0.568	
20	  CB	2436.917	745.163	-2531.633	C.3	2	ASN2	-0.204	
21	  CG	2436.453	745.387	-2530.190	C.2	2	ASN2	0.713	
22	 ND2	2437.047	746.301	-2529.471	N.pl3	2	ASN2	-0.919	
23	 OD1	2435.532	744.753	-2529.696	O.2	2	ASN2	-0.593	
24	   H	2434.438	745.645	-2532.061	 H	2	ASN2	0.272	
25	  HA	2436.803	747.195	-2532.452	 H	2	ASN2	0.105	
26	 2HB	2438.021	745.104	-2531.636	 H	2	ASN2	0.080	
27	 3HB	2436.588	744.144	-2531.919	 H	2	ASN2	0.080	
28	1HD2	2436.566	746.475	-2528.585	 H	2	ASN2	0.420	
29	2HD2	2437.749	746.873	-2529.940	 H	2	ASN2	0.420	
30	   N	2436.435	744.835	-2534.700	N.am	3	PRO3	-0.255	
31	  CA	2436.887	744.426	-2536.021	C.3	3	PRO3	-0.027	
32	   C	2436.490	745.450	-2537.099	C.2	3	PRO3	0.590	
33	   O	2437.313	745.833	-2537.930	O.2	3	PRO3	-0.575	
34	  CB	2436.183	743.071	-2536.191	C.3	3	PRO3	-0.007	
35	  CG	2434.899	743.224	-2535.361	C.3	3	PRO3	0.019	
36	  CD	2435.357	744.042	-2534.151	C.3	3	PRO3	0.019	
37	  HA	2437.973	744.306	-2536.035	 H	3	PRO3	0.064	
38	 2HB	2436.806	742.290	-2535.750	 H	3	PRO3	0.025	
39	 3HB	2435.985	742.823	-2537.237	 H	3	PRO3	0.025	
40	 2HG	2434.471	742.262	-2535.070	 H	3	PRO3	0.021	
41	 3HG	2434.162	743.795	-2535.929	 H	3	PRO3	0.021	
42	 2HD	2435.746	743.393	-2533.364	 H	3	PRO3	0.039	
43	 3HD	2434.560	744.678	-2533.759	 H	3	PRO3	0.039	
44	   N	2435.285	745.910	-2537.131	N.am	4	GLU4	-0.516	
45	  CA	2434.926	746.881	-2538.161	C.3	4	GLU4	0.040	
46	   C	2435.825	748.091	-2538.100	C.2	4	GLU4	0.537	
47	   O	2436.352	748.571	-2539.114	O.2	4	GLU4	-0.582	
48	  CB	2433.437	747.300	-2537.991	C.3	4	GLU4	0.056	
49	  CG	2432.890	748.304	-2539.057	C.3	4	GLU4	0.014	
50	  CD	2431.463	748.801	-2538.914	C.2	4	GLU4	0.805	
51	 OE1	2430.736	748.402	-2537.984	O.co2	4	GLU4	-0.819	
52	 OE2	2431.074	749.630	-2539.763	O.co2	4	GLU4	-0.819	
53	   H	2434.600	745.603	-2536.455	 H	4	GLU4	0.294	
54	  HA	2435.057	746.410	-2539.152	 H	4	GLU4	0.111	
55	 2HB	2433.284	747.740	-2536.985	 H	4	GLU4	-0.017	
56	 3HB	2432.789	746.402	-2537.998	 H	4	GLU4	-0.017	
57	 2HG	2432.971	747.889	-2540.075	 H	4	GLU4	-0.043	
58	 3HG	2433.478	749.236	-2539.068	 H	4	GLU4	-0.043	
59	   N	2436.052	748.644	-2536.956	N.am	5	SER5	-0.416	
60	  CA	2436.922	749.815	-2536.897	C.3	5	SER5	-0.025	
61	   C	2438.281	749.509	-2537.483	C.2	5	SER5	0.597	
62	   O	2438.828	750.263	-2538.287	O.2	5	SER5	-0.568	
63	  CB	2437.033	750.347	-2535.447	C.3	5	SER5	0.212	
64	  OG	2437.764	749.468	-2534.586	O.3	5	SER5	-0.655	
65	   H	2435.634	748.273	-2536.115	 H	5	SER5	0.272	
66	  HA	2436.473	750.606	-2537.527	 H	5	SER5	0.084	
67	 2HB	2436.033	750.541	-2535.014	 H	5	SER5	0.035	
68	 3HB	2437.538	751.333	-2535.449	 H	5	SER5	0.035	
69	  HG	2437.275	748.643	-2534.535	 H	5	SER5	0.428	
70	   N	2438.885	748.426	-2537.128	N.am	6	ILE6	-0.416	
71	  CA	2440.198	748.130	-2537.694	C.3	6	ILE6	-0.060	
72	   C	2440.141	748.093	-2539.202	C.2	6	ILE6	0.597	
73	   O	2440.976	748.680	-2539.906	O.2	6	ILE6	-0.568	
74	  CB	2440.797	746.794	-2537.094	C.3	6	ILE6	0.130	
75	 CG1	2440.816	746.732	-2535.533	C.3	6	ILE6	-0.043	
76	 CG2	2442.238	746.492	-2537.609	C.3	6	ILE6	-0.320	
77	 CD1	2441.085	745.342	-2534.918	C.3	6	ILE6	-0.066	
78	   H	2438.456	747.792	-2536.470	 H	6	ILE6	0.272	
79	  HA	2440.872	748.964	-2537.427	 H	6	ILE6	0.087	
80	  HB	2440.139	745.968	-2537.438	 H	6	ILE6	0.019	
81	2HG1	2439.834	747.052	-2535.137	 H	6	ILE6	0.024	
82	3HG1	2441.532	747.474	-2535.128	 H	6	ILE6	0.024	
83	1HG2	2442.297	746.398	-2538.707	 H	6	ILE6	0.088	
84	2HG2	2442.961	747.274	-2537.306	 H	6	ILE6	0.088	
85	3HG2	2442.628	745.530	-2537.230	 H	6	ILE6	0.088	
86	1HD1	2440.357	744.589	-2535.273	 H	6	ILE6	0.019	
87	2HD1	2442.096	744.964	-2535.154	 H	6	ILE6	0.019	
88	3HD1	2441.009	745.373	-2533.815	 H	6	ILE6	0.019	
89	   N	2439.195	747.430	-2539.776	N.am	7	LEU7	-0.416	
90	  CA	2439.140	747.393	-2541.234	C.3	7	LEU7	-0.052	
91	   C	2439.068	748.789	-2541.807	C.2	7	LEU7	0.597	
92	   O	2439.789	749.150	-2542.750	O.2	7	LEU7	-0.568	
93	  CB	2437.937	746.534	-2541.715	C.3	7	LEU7	-0.110	
94	  CG	2437.863	745.054	-2541.248	C.3	7	LEU7	0.353	
95	 CD1	2436.673	744.349	-2541.913	C.3	7	LEU7	-0.412	
96	 CD2	2439.157	744.275	-2541.540	C.3	7	LEU7	-0.412	
97	   H	2438.503	746.943	-2539.224	 H	7	LEU7	0.272	
98	  HA	2440.082	746.953	-2541.609	 H	7	LEU7	0.092	
99	 2HB	2437.913	746.549	-2542.822	 H	7	LEU7	0.046	
100	 3HB	2436.997	747.036	-2541.411	 H	7	LEU7	0.046	
101	  HG	2437.693	745.046	-2540.151	 H	7	LEU7	-0.036	
102	1HD1	2435.716	744.858	-2541.691	 H	7	LEU7	0.100	
103	2HD1	2436.772	744.308	-2543.015	 H	7	LEU7	0.100	
104	3HD1	2436.566	743.308	-2541.557	 H	7	LEU7	0.100	
105	1HD2	2439.432	744.305	-2542.609	 H	7	LEU7	0.100	
106	2HD2	2440.010	744.686	-2540.968	 H	7	LEU7	0.100	
107	3HD2	2439.075	743.212	-2541.243	 H	7	LEU7	0.100	
108	   N	2438.231	749.630	-2541.301	N.am	8	ASP8	-0.516	
109	  CA	2438.161	750.979	-2541.855	C.3	8	ASP8	0.038	
110	   C	2439.508	751.658	-2541.799	C.2	8	ASP8	0.537	
111	   O	2439.981	752.262	-2542.774	O.2	8	ASP8	-0.582	
112	  CB	2437.083	751.819	-2541.114	C.3	8	ASP8	-0.030	
113	  CG	2436.865	753.240	-2541.656	C.2	8	ASP8	0.799	
114	 OD1	2436.930	753.438	-2542.886	O.co2	8	ASP8	-0.801	
115	 OD2	2436.674	754.166	-2540.841	O.co2	8	ASP8	-0.801	
116	   H	2437.633	749.360	-2540.533	 H	8	ASP8	0.294	
117	  HA	2437.878	750.901	-2542.922	 H	8	ASP8	0.088	
118	 2HB	2437.341	751.903	-2540.042	 H	8	ASP8	-0.012	
119	 3HB	2436.104	751.314	-2541.147	 H	8	ASP8	-0.012	
120	   N	2440.188	751.609	-2540.703	N.am	9	GLU9	-0.516	
121	  CA	2441.491	752.266	-2540.649	C.3	9	GLU9	0.040	
122	   C	2442.409	751.737	-2541.725	C.2	9	GLU9	0.537	
123	   O	2443.073	752.491	-2542.451	O.2	9	GLU9	-0.582	
124	  CB	2442.125	752.058	-2539.243	C.3	9	GLU9	0.056	
125	  CG	2443.508	752.750	-2539.015	C.3	9	GLU9	0.014	
126	  CD	2444.210	752.537	-2537.686	C.2	9	GLU9	0.805	
127	 OE1	2443.688	751.847	-2536.790	O.co2	9	GLU9	-0.819	
128	 OE2	2445.329	753.075	-2537.555	O.co2	9	GLU9	-0.819	
129	   H	2439.825	751.123	-2539.896	 H	9	GLU9	0.294	
130	  HA	2441.350	753.348	-2540.824	 H	9	GLU9	0.111	
131	 2HB	2442.237	750.974	-2539.040	 H	9	GLU9	-0.017	
132	 3HB	2441.428	752.412	-2538.459	 H	9	GLU9	-0.017	
133	 2HG	2443.436	753.841	-2539.155	 H	9	GLU9	-0.043	
134	 3HG	2444.254	752.404	-2539.749	 H	9	GLU9	-0.043	
135	   N	2442.505	750.462	-2541.893	N.am	10	HIS10	-0.416	
136	  CA	2443.392	749.949	-2542.934	C.3	10	HIS10	-0.058	
137	   C	2443.025	750.514	-2544.285	C.2	10	HIS10	0.597	
138	   O	2443.878	750.978	-2545.057	O.2	10	HIS10	-0.568	
139	  CB	2443.228	748.421	-2542.928	C.3	10	HIS10	-0.007	
140	  CG	2444.513	747.710	-2542.620	C.2	10	HIS10	0.187	
141	 CD2	2444.894	747.375	-2541.328	C.2	10	HIS10	-0.221	
142	 ND1	2445.464	747.303	-2543.553	N.2	10	HIS10	-0.543	
143	 CE1	2446.371	746.745	-2542.729	C.2	10	HIS10	0.163	
144	 NE2	2446.109	746.743	-2541.394	N.pl3	10	HIS10	-0.280	
145	   H	2441.974	749.827	-2541.314	 H	10	HIS10	0.272	
146	  HA	2444.412	750.307	-2542.709	 H	10	HIS10	0.136	
147	 2HB	2442.862	748.053	-2543.908	 H	10	HIS10	0.037	
148	 3HB	2442.472	748.084	-2542.188	 H	10	HIS10	0.037	
149	 2HD	2444.309	747.591	-2540.438	 H	10	HIS10	0.186	
150	 1HE	2447.261	746.323	-2543.177	 H	10	HIS10	0.144	
151	 2HE	2446.676	746.366	-2540.621	 H	10	HIS10	0.334	
152	   N	2441.787	750.513	-2544.648	N.am	11	VAL11	-0.416	
153	  CA	2441.432	751.059	-2545.955	C.3	11	VAL11	-0.087	
154	   C	2441.897	752.489	-2546.088	C.2	11	VAL11	0.597	
155	   O	2442.499	752.893	-2547.092	O.2	11	VAL11	-0.568	
156	  CB	2439.871	750.953	-2546.174	C.3	11	VAL11	0.299	
157	 CG1	2439.302	751.656	-2547.437	C.3	11	VAL11	-0.319	
158	 CG2	2439.346	749.499	-2546.246	C.3	11	VAL11	-0.319	
159	   H	2441.074	750.141	-2544.037	 H	11	VAL11	0.272	
160	  HA	2441.951	750.475	-2546.737	 H	11	VAL11	0.097	
161	  HB	2439.384	751.434	-2545.299	 H	11	VAL11	-0.030	
162	1HG1	2439.741	751.264	-2548.374	 H	11	VAL11	0.079	
163	2HG1	2438.203	751.549	-2547.519	 H	11	VAL11	0.079	
164	3HG1	2439.481	752.748	-2547.428	 H	11	VAL11	0.079	
165	1HG2	2439.635	748.912	-2545.355	 H	11	VAL11	0.079	
166	2HG2	2438.240	749.462	-2546.289	 H	11	VAL11	0.079	
167	3HG2	2439.727	748.957	-2547.132	 H	11	VAL11	0.079	
168	   N	2441.661	753.315	-2545.126	N.am	12	GLN12	-0.416	
169	  CA	2442.110	754.698	-2545.254	C.3	12	GLN12	-0.003	
170	   C	2443.600	754.764	-2545.492	C.2	12	GLN12	0.597	
171	   O	2444.087	755.472	-2546.372	O.2	12	GLN12	-0.568	
172	  CB	2441.720	755.466	-2543.972	C.3	12	GLN12	-0.004	
173	  CG	2442.081	756.988	-2543.942	C.3	12	GLN12	-0.064	
174	  CD	2441.780	757.802	-2542.677	C.2	12	GLN12	0.695	
175	 NE2	2441.213	757.227	-2541.648	N.pl3	12	GLN12	-0.941	
176	 OE1	2442.082	758.983	-2542.600	O.2	12	GLN12	-0.609	
177	   H	2441.172	753.010	-2544.297	 H	12	GLN12	0.272	
178	  HA	2441.611	755.154	-2546.129	 H	12	GLN12	0.085	
179	 2HB	2442.196	754.966	-2543.102	 H	12	GLN12	0.017	
180	 3HB	2440.630	755.360	-2543.808	 H	12	GLN12	0.017	
181	 2HG	2441.604	757.509	-2544.792	 H	12	GLN12	0.035	
182	 3HG	2443.165	757.129	-2544.108	 H	12	GLN12	0.035	
183	1HE2	2441.106	757.821	-2540.825	 H	12	GLN12	0.425	
184	2HE2	2441.048	756.223	-2541.751	 H	12	GLN12	0.425	
185	   N	2444.385	754.058	-2544.751	N.am	13	ARG13	-0.348	
186	  CA	2445.825	754.123	-2544.982	C.3	13	ARG13	-0.264	
187	   C	2446.161	753.750	-2546.407	C.2	13	ARG13	0.734	
188	   O	2446.929	754.421	-2547.092	O.2	13	ARG13	-0.589	
189	  CB	2446.538	753.184	-2543.968	C.3	13	ARG13	-0.001	
190	  CG	2448.083	753.337	-2543.888	C.3	13	ARG13	0.039	
191	  CD	2448.710	752.350	-2542.889	C.3	13	ARG13	0.049	
192	  NE	2450.187	752.557	-2542.839	N.pl3	13	ARG13	-0.530	
193	  CZ	2451.036	751.865	-2542.084	C.cat	13	ARG13	0.808	
194	 NH1	2450.671	750.902	-2541.286	N.pl3	13	ARG13	-0.863	
195	 NH2	2452.295	752.164	-2542.141	N.pl3	13	ARG13	-0.863	
196	   H	2444.008	753.468	-2544.022	 H	13	ARG13	0.275	
197	  HA	2446.150	755.169	-2544.825	 H	13	ARG13	0.156	
198	 2HB	2446.272	752.134	-2544.206	 H	13	ARG13	0.033	
199	 3HB	2446.113	753.352	-2542.958	 H	13	ARG13	0.033	
200	 2HG	2448.332	754.382	-2543.609	 H	13	ARG13	0.029	
201	 3HG	2448.534	753.180	-2544.889	 H	13	ARG13	0.029	
202	 2HD	2448.465	751.310	-2543.198	 H	13	ARG13	0.069	
203	 3HD	2448.254	752.497	-2541.887	 H	13	ARG13	0.069	
204	  HE	2450.639	753.278	-2543.411	 H	13	ARG13	0.346	
205	1HH1	2449.665	750.716	-2541.288	 H	13	ARG13	0.448	
206	2HH1	2451.384	750.419	-2540.737	 H	13	ARG13	0.448	
207	1HH2	2452.563	752.922	-2542.773	 H	13	ARG13	0.448	
208	2HH2	2452.931	751.623	-2541.553	 H	13	ARG13	0.448	
209	   N	2445.624	752.696	-2546.921	N.am	14	VAL14	-0.416	
210	  CA	2445.948	752.335	-2548.298	C.3	14	VAL14	-0.087	
211	   C	2445.619	753.465	-2549.244	C.2	14	VAL14	0.597	
212	   O	2446.412	753.846	-2550.114	O.2	14	VAL14	-0.568	
213	  CB	2445.176	751.018	-2548.704	C.3	14	VAL14	0.299	
214	 CG1	2445.264	750.599	-2550.198	C.3	14	VAL14	-0.319	
215	 CG2	2445.607	749.766	-2547.904	C.3	14	VAL14	-0.319	
216	   H	2444.989	752.127	-2546.378	 H	14	VAL14	0.272	
217	  HA	2447.037	752.158	-2548.373	 H	14	VAL14	0.097	
218	  HB	2444.099	751.190	-2548.488	 H	14	VAL14	-0.030	
219	1HG1	2446.305	750.422	-2550.527	 H	14	VAL14	0.079	
220	2HG1	2444.691	749.676	-2550.409	 H	14	VAL14	0.079	
221	3HG1	2444.835	751.361	-2550.876	 H	14	VAL14	0.079	
222	1HG2	2445.520	749.926	-2546.813	 H	14	VAL14	0.079	
223	2HG2	2444.971	748.890	-2548.135	 H	14	VAL14	0.079	
224	3HG2	2446.655	749.476	-2548.109	 H	14	VAL14	0.079	
225	   N	2444.474	754.051	-2549.143	N.am	15	SER15	-0.416	
226	  CA	2444.155	755.143	-2550.057	C.3	15	SER15	-0.025	
227	   C	2445.188	756.242	-2549.969	C.2	15	SER15	0.597	
228	   O	2445.689	756.748	-2550.972	O.2	15	SER15	-0.568	
229	  CB	2442.727	755.682	-2549.796	C.3	15	SER15	0.212	
230	  OG	2442.613	756.379	-2548.550	O.3	15	SER15	-0.655	
231	   H	2443.809	753.759	-2548.441	 H	15	SER15	0.272	
232	  HA	2444.197	754.748	-2551.089	 H	15	SER15	0.084	
233	 2HB	2441.979	754.868	-2549.833	 H	15	SER15	0.035	
234	 3HB	2442.435	756.375	-2550.610	 H	15	SER15	0.035	
235	  HG	2442.797	755.747	-2547.851	 H	15	SER15	0.428	
236	   N	2445.556	756.663	-2548.806	N.am	16	ARG16	-0.348	
237	  CA	2446.555	757.725	-2548.721	C.3	16	ARG16	-0.264	
238	   C	2447.825	757.330	-2549.436	C.2	16	ARG16	0.734	
239	   O	2447.938	756.253	-2550.017	O.2	16	ARG16	-0.589	
240	  CB	2446.823	758.043	-2547.222	C.3	16	ARG16	-0.001	
241	  CG	2447.650	759.330	-2546.949	C.3	16	ARG16	0.039	
242	  CD	2447.898	759.549	-2545.448	C.3	16	ARG16	0.049	
243	  NE	2448.677	760.807	-2545.246	N.pl3	16	ARG16	-0.530	
244	  CZ	2449.067	761.289	-2544.070	C.cat	16	ARG16	0.808	
245	 NH1	2448.817	760.705	-2542.931	N.pl3	16	ARG16	-0.863	
246	 NH2	2449.733	762.400	-2544.051	N.pl3	16	ARG16	-0.863	
247	   H	2445.160	756.264	-2547.967	 H	16	ARG16	0.275	
248	  HA	2446.148	758.618	-2549.232	 H	16	ARG16	0.156	
249	 2HB	2447.317	757.166	-2546.755	 H	16	ARG16	0.033	
250	 3HB	2445.854	758.126	-2546.690	 H	16	ARG16	0.033	
251	 2HG	2447.122	760.202	-2547.387	 H	16	ARG16	0.029	
252	 3HG	2448.624	759.275	-2547.477	 H	16	ARG16	0.029	
253	 2HD	2448.445	758.674	-2545.033	 H	16	ARG16	0.069	
254	 3HD	2446.925	759.594	-2544.914	 H	16	ARG16	0.069	
255	  HE	2448.957	761.387	-2546.043	 H	16	ARG16	0.346	
256	1HH1	2448.290	759.833	-2543.016	 H	16	ARG16	0.448	
257	2HH1	2449.151	761.140	-2542.070	 H	16	ARG16	0.448	
258	1HH2	2449.921	762.843	-2544.953	 H	16	ARG16	0.448	
259	2HH2	2450.023	762.755	-2543.138	 H	16	ARG16	0.448	
@<TRIPOS>BOND
1 1 2 1
2 1 10 1
3 2 3 1
4 2 5 1
5 2 11 1
6 3 4 2
7 3 16 1
8 5 6 1
9 6 7 1
10 7 8 2
11 7 9 1
12 5 12 1
13 5 13 1
14 6 14 1
15 6 15 1
16 16 17 1
17 16 24 1
18 17 18 1
19 17 20 1
20 17 25 1
21 18 19 2
22 18 30 1
23 20 21 1
24 21 22 1
25 21 23 2
26 20 26 1
27 20 27 1
28 22 28 1
29 22 29 1
30 30 31 1
31 30 36 1
32 31 32 1
33 31 34 1
34 31 37 1
35 32 33 2
36 32 44 1
37 34 35 1
38 35 36 1
39 34 38 1
40 34 39 1
41 35 40 1
42 35 41 1
43 36 42 1
44 36 43 1
45 44 45 1
46 44 53 1
47 45 46 1
48 45 48 1
49 45 54 1
50 46 47 2
51 46 59 1
52 48 49 1
53 49 50 1
54 50 51 2
55 50 52 1
56 48 55 1
57 48 56 1
58 49 57 1
59 49 58 1
60 59 60 1
61 59 65 1
62 60 61 1
63 60 63 1
64 60 66 1
65 61 62 2
66 61 70 1
67 63 64 1
68 63 67 1
69 63 68 1
70 64 69 1
71 70 71 1
72 70 78 1
73 71 72 1
74 71 74 1
75 71 79 1
76 72 73 2
77 72 89 1
78 74 75 1
79 74 76 1
80 75 77 1
81 74 80 1
82 75 81 1
83 75 82 1
84 76 83 1
85 76 84 1
86 76 85 1
87 77 86 1
88 77 87 1
89 77 88 1
90 89 90 1
91 89 97 1
92 90 91 1
93 90 93 1
94 90 98 1
95 91 92 2
96 91 108 1
97 93 94 1
98 94 95 1
99 94 96 1
100 93 99 1
101 93 100 1
102 94 101 1
103 95 102 1
104 95 103 1
105 95 104 1
106 96 105 1
107 96 106 1
108 96 107 1
109 108 109 1
110 108 116 1
111 109 110 1
112 109 112 1
113 109 117 1
114 110 111 2
115 110 120 1
116 112 113 1
117 113 114 2
118 113 115 1
119 112 118 1
120 112 119 1
121 120 121 1
122 120 129 1
123 121 122 1
124 121 124 1
125 121 130 1
126 122 123 2
127 122 135 1
128 124 125 1
129 125 126 1
130 126 127 2
131 126 128 1
132 124 131 1
133 124 132 1
134 125 133 1
135 125 134 1
136 135 136 1
137 135 145 1
138 136 137 1
139 136 139 1
140 136 146 1
141 137 138 2
142 137 152 1
143 139 140 1
144 140 141 2
145 141 144 1
146 140 142 1
147 142 143 2
148 143 144 1
149 139 147 1
150 139 148 1
151 141 149 1
152 143 150 1
153 144 151 1
154 152 153 1
155 152 159 1
156 153 154 1
157 153 156 1
158 153 160 1
159 154 155 2
160 154 168 1
161 156 157 1
162 156 158 1
163 156 161 1
164 157 162 1
165 157 163 1
166 157 164 1
167 158 165 1
168 158 166 1
169 158 167 1
170 168 169 1
171 168 177 1
172 169 170 1
173 169 172 1
174 169 178 1
175 170 171 2
176 170 185 1
177 172 173 1
178 173 174 1
179 174 175 1
180 174 176 2
181 172 179 1
182 172 180 1
183 173 181 1
184 173 182 1
185 175 183 1
186 175 184 1
187 185 186 1
188 185 196 1
189 186 187 1
190 186 189 1
191 186 197 1
192 187 188 2
193 187 209 1
194 189 190 1
195 190 191 1
196 191 192 1
197 192 193 1
198 193 194 2
199 193 195 1
200 189 198 1
201 189 199 1
202 190 200 1
203 190 201 1
204 191 202 1
205 191 203 1
206 192 204 1
207 194 205 1
208 194 206 1
209 195 207 1
210 195 208 1
211 209 210 1
212 209 216 1
213 210 211 1
214 210 213 1
215 210 217 1
216 211 212 2
217 211 225 1
218 213 214 1
219 213 215 1
220 213 218 1
221 214 219 1
222 214 220 1
223 214 221 1
224 215 222 1
225 215 223 1
226 215 224 1
227 225 226 1
228 225 231 1
229 226 227 1
230 226 229 1
231 226 232 1
232 227 228 2
233 227 236 1
234 229 230 1
235 229 233 1
236 229 234 1
237 230 235 1
238 236 237 1
239 236 247 1
240 237 238 1
241 237 240 1
242 237 248 1
243 238 239 2
244 240 241 1
245 241 242 1
246 242 243 1
247 243 244 1
248 244 245 2
249 244 246 1
250 240 249 1
251 240 250 1
252 241 251 1
253 241 252 1
254 242 253 1
255 242 254 1
256 243 255 1
257 245 256 1
258 245 257 1
259 246 258 1
260 246 259 1
@<TRIPOS>SUBSTRUCTURE
1	GLU1	1	RESIDUE	1 ****	GLU
2	ASN2	16	RESIDUE	1 ****	ASN
3	PRO3	30	RESIDUE	1 ****	PRO
4	GLU4	44	RESIDUE	1 ****	GLU
5	SER5	59	RESIDUE	1 ****	SER
6	ILE6	70	RESIDUE	1 ****	ILE
7	LEU7	89	RESIDUE	1 ****	LEU
8	ASP8	108	RESIDUE	1 ****	ASP
9	GLU9	120	RESIDUE	1 ****	GLU
10	HIS10	135	RESIDUE	1 ****	HIS
11	VAL11	152	RESIDUE	1 ****	VAL
12	GLN12	168	RESIDUE	1 ****	GLN
13	ARG13	185	RESIDUE	1 ****	ARG
14	VAL14	209	RESIDUE	1 ****	VAL
15	SER15	225	RESIDUE	1 ****	SER
16	ARG16	236	RESIDUE	1 ****	ARG
