@<TRIPOS>MOLECULE
5-5
271 272 16              
SMALL
USER_CHARGES
@<TRIPOS>ATOM
1	   N	730.376	187.930	-685.280	N.3	1	GLU1	-0.516	
2	  CA	730.935	189.279	-685.280	C.3	1	GLU1	0.040	
3	   C	732.444	189.239	-685.280	C.2	1	GLU1	0.537	
4	   O	733.120	189.938	-686.049	O.2	1	GLU1	-0.582	
5	  CB	730.412	190.064	-684.043	C.3	1	GLU1	0.056	
6	  CG	730.887	191.549	-683.932	C.3	1	GLU1	0.014	
7	  CD	730.463	192.353	-682.717	C.2	1	GLU1	0.805	
8	 OE1	729.735	191.851	-681.839	O.co2	1	GLU1	-0.819	
9	 OE2	730.893	193.523	-682.645	O.co2	1	GLU1	-0.819	
10	   H	731.003	187.051	-685.280	 H	1	GLU1	0.294	
11	  HA	730.609	189.797	-686.200	 H	1	GLU1	0.111	
12	 2HB	730.701	189.533	-683.113	 H	1	GLU1	-0.017	
13	 3HB	729.305	190.054	-684.030	 H	1	GLU1	-0.017	
14	 2HG	730.577	192.134	-684.813	 H	1	GLU1	-0.043	
15	 3HG	731.987	191.616	-683.903	 H	1	GLU1	-0.043	
16	   N	733.049	188.453	-684.455	N.am	2	ASN2	-0.416	
17	  CA	734.508	188.414	-684.455	C.3	2	ASN2	0.014	
18	   C	735.039	188.059	-685.824	C.2	2	ASN2	0.597	
19	   O	735.954	188.689	-686.353	O.2	2	ASN2	-0.568	
20	  CB	735.000	187.391	-683.391	C.3	2	ASN2	-0.204	
21	  CG	734.537	187.615	-681.948	C.2	2	ASN2	0.713	
22	 ND2	735.131	188.530	-681.229	N.pl3	2	ASN2	-0.919	
23	 OD1	733.616	186.981	-681.453	O.2	2	ASN2	-0.593	
24	   H	732.520	187.873	-683.819	 H	2	ASN2	0.272	
25	  HA	734.885	189.424	-684.210	 H	2	ASN2	0.105	
26	 2HB	736.104	187.332	-683.395	 H	2	ASN2	0.080	
27	 3HB	734.671	186.373	-683.677	 H	2	ASN2	0.080	
28	1HD2	734.650	188.703	-680.343	 H	2	ASN2	0.420	
29	2HD2	735.833	189.102	-681.699	 H	2	ASN2	0.420	
30	   N	734.518	187.064	-686.458	N.am	3	PRO3	-0.255	
31	  CA	734.970	186.654	-687.780	C.3	3	PRO3	-0.027	
32	   C	734.571	187.678	-688.857	C.2	3	PRO3	0.590	
33	   O	735.395	188.061	-689.688	O.2	3	PRO3	-0.575	
34	  CB	734.266	185.300	-687.949	C.3	3	PRO3	-0.007	
35	  CG	732.982	185.452	-687.119	C.3	3	PRO3	0.019	
36	  CD	733.440	186.270	-685.909	C.3	3	PRO3	0.019	
37	  HA	736.056	186.535	-687.793	 H	3	PRO3	0.064	
38	 2HB	734.889	184.518	-687.508	 H	3	PRO3	0.025	
39	 3HB	734.068	185.051	-688.994	 H	3	PRO3	0.025	
40	 2HG	732.555	184.489	-686.828	 H	3	PRO3	0.021	
41	 3HG	732.245	186.022	-687.686	 H	3	PRO3	0.021	
42	 2HD	733.829	185.621	-685.122	 H	3	PRO3	0.039	
43	 3HD	732.643	186.906	-685.516	 H	3	PRO3	0.039	
44	   N	733.367	188.138	-688.889	N.am	4	GLU4	-0.516	
45	  CA	733.007	189.109	-689.919	C.3	4	GLU4	0.040	
46	   C	733.906	190.320	-689.857	C.2	4	GLU4	0.537	
47	   O	734.432	190.799	-690.872	O.2	4	GLU4	-0.582	
48	  CB	731.518	189.527	-689.748	C.3	4	GLU4	0.056	
49	  CG	730.970	190.530	-690.814	C.3	4	GLU4	0.014	
50	  CD	729.543	191.027	-690.671	C.2	4	GLU4	0.805	
51	 OE1	728.817	190.628	-689.740	O.co2	4	GLU4	-0.819	
52	 OE2	729.154	191.856	-691.519	O.co2	4	GLU4	-0.819	
53	   H	732.682	187.831	-688.212	 H	4	GLU4	0.294	
54	  HA	733.138	188.638	-690.910	 H	4	GLU4	0.111	
55	 2HB	731.366	189.967	-688.742	 H	4	GLU4	-0.017	
56	 3HB	730.871	188.629	-689.755	 H	4	GLU4	-0.017	
57	 2HG	731.052	190.116	-691.832	 H	4	GLU4	-0.043	
58	 3HG	731.558	191.463	-690.825	 H	4	GLU4	-0.043	
59	   N	734.133	190.873	-688.714	N.am	5	MET5	-0.416	
60	  CA	735.002	192.044	-688.654	C.3	5	MET5	-0.024	
61	   C	736.361	191.742	-689.238	C.2	5	MET5	0.597	
62	   O	736.912	192.503	-690.048	O.2	5	MET5	-0.568	
63	  CB	735.126	192.533	-687.185	C.3	5	MET5	0.034	
64	  CG	733.817	193.007	-686.519	C.3	5	MET5	0.002	
65	  SD	734.185	193.803	-684.946	S.3	5	MET5	-0.274	
66	  CE	732.515	193.863	-684.282	C.3	5	MET5	-0.054	
67	   H	733.716	190.501	-687.873	 H	5	MET5	0.272	
68	  HA	734.555	192.847	-689.270	 H	5	MET5	0.088	
69	 2HB	735.849	193.370	-687.138	 H	5	MET5	0.024	
70	 3HB	735.575	191.736	-686.559	 H	5	MET5	0.024	
71	 2HG	733.146	192.145	-686.345	 H	5	MET5	0.044	
72	 3HG	733.264	193.714	-687.165	 H	5	MET5	0.044	
73	 1HE	731.832	194.388	-684.973	 H	5	MET5	0.068	
74	 2HE	732.129	192.841	-684.120	 H	5	MET5	0.068	
75	 3HE	732.504	194.392	-683.313	 H	5	MET5	0.068	
76	   N	736.967	190.659	-688.885	N.am	6	ILE6	-0.416	
77	  CA	738.281	190.367	-689.450	C.3	6	ILE6	-0.060	
78	   C	738.226	190.332	-690.958	C.2	6	ILE6	0.597	
79	   O	739.060	190.922	-691.660	O.2	6	ILE6	-0.568	
80	  CB	738.883	189.031	-688.851	C.3	6	ILE6	0.130	
81	 CG1	738.901	188.967	-687.290	C.3	6	ILE6	-0.043	
82	 CG2	740.325	188.733	-689.366	C.3	6	ILE6	-0.320	
83	 CD1	739.172	187.578	-686.677	C.3	6	ILE6	-0.066	
84	   H	736.539	190.023	-688.227	 H	6	ILE6	0.272	
85	  HA	738.954	191.203	-689.181	 H	6	ILE6	0.087	
86	  HB	738.227	188.205	-689.197	 H	6	ILE6	0.019	
87	2HG1	737.918	189.285	-686.895	 H	6	ILE6	0.024	
88	3HG1	739.615	189.710	-686.884	 H	6	ILE6	0.024	
89	1HG2	740.385	188.641	-690.464	 H	6	ILE6	0.088	
90	2HG2	741.046	189.516	-689.062	 H	6	ILE6	0.088	
91	3HG2	740.716	187.771	-688.988	 H	6	ILE6	0.088	
92	1HD1	738.446	186.823	-687.033	 H	6	ILE6	0.019	
93	2HD1	740.184	187.201	-686.912	 H	6	ILE6	0.019	
94	3HD1	739.095	187.606	-685.574	 H	6	ILE6	0.019	
95	   N	737.282	189.667	-691.534	N.am	7	LEU7	-0.416	
96	  CA	737.228	189.633	-692.992	C.3	7	LEU7	-0.052	
97	   C	737.154	191.029	-693.563	C.2	7	LEU7	0.597	
98	   O	737.875	191.394	-694.504	O.2	7	LEU7	-0.568	
99	  CB	736.027	188.771	-693.475	C.3	7	LEU7	-0.110	
100	  CG	735.956	187.291	-693.010	C.3	7	LEU7	0.353	
101	 CD1	734.768	186.584	-693.678	C.3	7	LEU7	-0.412	
102	 CD2	737.251	186.515	-693.302	C.3	7	LEU7	-0.412	
103	   H	736.590	189.178	-690.984	 H	7	LEU7	0.272	
104	  HA	738.171	189.195	-693.366	 H	7	LEU7	0.092	
105	 2HB	736.005	188.789	-694.582	 H	7	LEU7	0.046	
106	 3HB	735.086	189.272	-693.171	 H	7	LEU7	0.046	
107	  HG	735.785	187.282	-691.913	 H	7	LEU7	-0.036	
108	1HD1	733.810	187.092	-693.456	 H	7	LEU7	0.100	
109	2HD1	734.868	186.546	-694.779	 H	7	LEU7	0.100	
110	3HD1	734.663	185.543	-693.323	 H	7	LEU7	0.100	
111	1HD2	737.527	186.547	-694.371	 H	7	LEU7	0.100	
112	2HD2	738.103	186.927	-692.729	 H	7	LEU7	0.100	
113	3HD2	737.171	185.452	-693.007	 H	7	LEU7	0.100	
114	   N	736.315	191.868	-693.056	N.am	8	ASP8	-0.516	
115	  CA	736.243	193.218	-693.608	C.3	8	ASP8	0.038	
116	   C	737.588	193.900	-693.549	C.2	8	ASP8	0.537	
117	   O	738.061	194.507	-694.522	O.2	8	ASP8	-0.582	
118	  CB	735.162	194.054	-692.866	C.3	8	ASP8	-0.030	
119	  CG	734.942	195.475	-693.405	C.2	8	ASP8	0.799	
120	 OD1	735.006	195.676	-694.635	O.co2	8	ASP8	-0.801	
121	 OD2	734.747	196.399	-692.589	O.co2	8	ASP8	-0.801	
122	   H	735.717	191.594	-692.290	 H	8	ASP8	0.294	
123	  HA	735.961	193.141	-694.675	 H	8	ASP8	0.088	
124	 2HB	735.418	194.136	-691.794	 H	8	ASP8	-0.012	
125	 3HB	734.184	193.547	-692.901	 H	8	ASP8	-0.012	
126	   N	738.267	193.850	-692.453	N.am	9	GLU9	-0.516	
127	  CA	739.568	194.509	-692.395	C.3	9	GLU9	0.040	
128	   C	740.488	193.985	-693.471	C.2	9	GLU9	0.537	
129	   O	741.152	194.741	-694.195	O.2	9	GLU9	-0.582	
130	  CB	740.201	194.301	-690.989	C.3	9	GLU9	0.056	
131	  CG	741.582	194.995	-690.758	C.3	9	GLU9	0.014	
132	  CD	742.283	194.781	-689.429	C.2	9	GLU9	0.805	
133	 OE1	741.762	194.088	-688.534	O.co2	9	GLU9	-0.819	
134	 OE2	743.401	195.321	-689.295	O.co2	9	GLU9	-0.819	
135	   H	737.903	193.362	-691.647	 H	9	GLU9	0.294	
136	  HA	739.424	195.591	-692.569	 H	9	GLU9	0.111	
137	 2HB	740.315	193.216	-690.788	 H	9	GLU9	-0.017	
138	 3HB	739.502	194.652	-690.205	 H	9	GLU9	-0.017	
139	 2HG	741.508	196.086	-690.896	 H	9	GLU9	-0.043	
140	 3HG	742.330	194.652	-691.491	 H	9	GLU9	-0.043	
141	   N	740.587	192.710	-693.642	N.am	10	HIS10	-0.416	
142	  CA	741.477	192.201	-694.682	C.3	10	HIS10	-0.058	
143	   C	741.110	192.767	-696.033	C.2	10	HIS10	0.597	
144	   O	741.963	193.234	-696.803	O.2	10	HIS10	-0.568	
145	  CB	741.315	190.672	-694.679	C.3	10	HIS10	-0.007	
146	  CG	742.602	189.964	-694.371	C.2	10	HIS10	0.187	
147	 CD2	742.982	189.628	-693.078	C.2	10	HIS10	-0.221	
148	 ND1	743.556	189.561	-695.303	N.2	10	HIS10	-0.543	
149	 CE1	744.462	189.003	-694.479	C.2	10	HIS10	0.163	
150	 NE2	744.198	188.998	-693.144	N.pl3	10	HIS10	-0.280	
151	   H	740.057	192.073	-693.065	 H	10	HIS10	0.272	
152	  HA	742.495	192.560	-694.455	 H	10	HIS10	0.136	
153	 2HB	740.952	190.306	-695.660	 H	10	HIS10	0.037	
154	 3HB	740.560	190.333	-693.940	 H	10	HIS10	0.037	
155	 2HD	742.395	189.841	-692.189	 H	10	HIS10	0.186	
156	 1HE	745.354	188.584	-694.926	 H	10	HIS10	0.144	
157	 2HE	744.765	188.621	-692.371	 H	10	HIS10	0.334	
158	   N	739.873	192.764	-696.397	N.am	11	VAL11	-0.416	
159	  CA	739.518	193.312	-697.703	C.3	11	VAL11	-0.087	
160	   C	739.980	194.743	-697.833	C.2	11	VAL11	0.597	
161	   O	740.582	195.151	-698.835	O.2	11	VAL11	-0.568	
162	  CB	737.957	193.203	-697.924	C.3	11	VAL11	0.299	
163	 CG1	737.389	193.907	-699.187	C.3	11	VAL11	-0.319	
164	 CG2	737.435	191.748	-698.000	C.3	11	VAL11	-0.319	
165	   H	739.160	192.390	-695.788	 H	11	VAL11	0.272	
166	  HA	740.039	192.731	-698.486	 H	11	VAL11	0.097	
167	  HB	737.468	193.681	-697.049	 H	11	VAL11	-0.030	
168	1HG1	737.829	193.518	-700.124	 H	11	VAL11	0.079	
169	2HG1	736.290	193.798	-699.270	 H	11	VAL11	0.079	
170	3HG1	737.565	195.000	-699.176	 H	11	VAL11	0.079	
171	1HG2	737.725	191.160	-697.110	 H	11	VAL11	0.079	
172	2HG2	736.329	191.709	-698.044	 H	11	VAL11	0.079	
173	3HG2	737.819	191.209	-698.887	 H	11	VAL11	0.079	
174	   N	739.741	195.567	-696.870	N.am	12	GLN12	-0.416	
175	  CA	740.187	196.951	-696.995	C.3	12	GLN12	-0.003	
176	   C	741.677	197.021	-697.231	C.2	12	GLN12	0.597	
177	   O	742.164	197.732	-698.108	O.2	12	GLN12	-0.568	
178	  CB	739.794	197.716	-695.711	C.3	12	GLN12	-0.004	
179	  CG	740.151	199.238	-695.678	C.3	12	GLN12	-0.064	
180	  CD	739.846	200.049	-694.412	C.2	12	GLN12	0.695	
181	 NE2	739.279	199.471	-693.385	N.pl3	12	GLN12	-0.941	
182	 OE1	740.146	201.231	-694.333	O.2	12	GLN12	-0.609	
183	   H	739.252	195.259	-696.042	 H	12	GLN12	0.272	
184	  HA	739.688	197.408	-697.870	 H	12	GLN12	0.085	
185	 2HB	740.270	197.215	-694.842	 H	12	GLN12	0.017	
186	 3HB	738.703	197.606	-695.549	 H	12	GLN12	0.017	
187	 2HG	739.674	199.760	-696.528	 H	12	GLN12	0.035	
188	 3HG	741.234	199.383	-695.842	 H	12	GLN12	0.035	
189	1HE2	739.170	200.064	-692.560	 H	12	GLN12	0.425	
190	2HE2	739.117	198.467	-693.490	 H	12	GLN12	0.425	
191	   N	742.462	196.315	-696.491	N.am	13	ARG13	-0.348	
192	  CA	743.903	196.384	-696.720	C.3	13	ARG13	-0.264	
193	   C	744.241	196.015	-698.145	C.2	13	ARG13	0.734	
194	   O	745.009	196.689	-698.828	O.2	13	ARG13	-0.589	
195	  CB	744.617	195.445	-695.707	C.3	13	ARG13	-0.001	
196	  CG	746.161	195.600	-695.624	C.3	13	ARG13	0.039	
197	  CD	746.789	194.613	-694.627	C.3	13	ARG13	0.049	
198	  NE	748.266	194.823	-694.575	N.pl3	13	ARG13	-0.530	
199	  CZ	749.115	194.131	-693.820	C.cat	13	ARG13	0.808	
200	 NH1	748.750	193.165	-693.024	N.pl3	13	ARG13	-0.863	
201	 NH2	750.374	194.433	-693.875	N.pl3	13	ARG13	-0.863	
202	   H	742.086	195.723	-695.763	 H	13	ARG13	0.275	
203	  HA	744.225	197.430	-696.560	 H	13	ARG13	0.156	
204	 2HB	744.353	194.394	-695.947	 H	13	ARG13	0.033	
205	 3HB	744.190	195.609	-694.696	 H	13	ARG13	0.033	
206	 2HG	746.407	196.645	-695.343	 H	13	ARG13	0.029	
207	 3HG	746.613	195.447	-696.625	 H	13	ARG13	0.029	
208	 2HD	746.547	193.572	-694.938	 H	13	ARG13	0.069	
209	 3HD	746.331	194.756	-693.625	 H	13	ARG13	0.069	
210	  HE	748.716	195.546	-695.144	 H	13	ARG13	0.346	
211	1HH1	747.745	192.977	-693.028	 H	13	ARG13	0.448	
212	2HH1	749.464	192.683	-692.475	 H	13	ARG13	0.448	
213	1HH2	750.640	195.192	-694.505	 H	13	ARG13	0.448	
214	2HH2	751.009	193.892	-693.287	 H	13	ARG13	0.448	
215	   N	743.707	194.960	-698.661	N.am	14	VAL14	-0.416	
216	  CA	744.034	194.603	-700.039	C.3	14	VAL14	-0.087	
217	   C	743.702	195.734	-700.984	C.2	14	VAL14	0.597	
218	   O	744.496	196.118	-701.852	O.2	14	VAL14	-0.568	
219	  CB	743.264	193.285	-700.449	C.3	14	VAL14	0.299	
220	 CG1	743.355	192.870	-701.943	C.3	14	VAL14	-0.319	
221	 CG2	743.697	192.033	-699.650	C.3	14	VAL14	-0.319	
222	   H	743.073	194.390	-698.121	 H	14	VAL14	0.272	
223	  HA	745.122	194.429	-700.113	 H	14	VAL14	0.097	
224	  HB	742.187	193.455	-700.233	 H	14	VAL14	-0.030	
225	1HG1	744.397	192.695	-702.271	 H	14	VAL14	0.079	
226	2HG1	742.784	191.946	-702.157	 H	14	VAL14	0.079	
227	3HG1	742.925	193.632	-702.620	 H	14	VAL14	0.079	
228	1HG2	743.609	192.190	-698.559	 H	14	VAL14	0.079	
229	2HG2	743.063	191.156	-699.884	 H	14	VAL14	0.079	
230	3HG2	744.746	191.745	-699.855	 H	14	VAL14	0.079	
231	   N	742.557	196.318	-700.882	N.am	15	MET15	-0.416	
232	  CA	742.235	197.411	-701.794	C.3	15	MET15	-0.024	
233	   C	743.263	198.513	-701.704	C.2	15	MET15	0.597	
234	   O	743.766	199.026	-702.716	O.2	15	MET15	-0.568	
235	  CB	740.812	197.954	-701.486	C.3	15	MET15	0.034	
236	  CG	739.652	196.954	-701.680	C.3	15	MET15	0.002	
237	  SD	738.077	197.817	-701.566	S.3	15	MET15	-0.274	
238	  CE	736.998	196.386	-701.432	C.3	15	MET15	-0.054	
239	   H	741.892	196.023	-700.181	 H	15	MET15	0.272	
240	  HA	742.262	197.025	-702.831	 H	15	MET15	0.088	
241	 2HB	740.609	198.833	-702.127	 H	15	MET15	0.024	
242	 3HB	740.775	198.345	-700.449	 H	15	MET15	0.024	
243	 2HG	739.696	196.167	-700.903	 H	15	MET15	0.044	
244	 3HG	739.717	196.440	-702.657	 H	15	MET15	0.044	
245	 1HE	737.144	195.699	-702.285	 H	15	MET15	0.068	
246	 2HE	737.207	195.832	-700.500	 H	15	MET15	0.068	
247	 3HE	735.940	196.699	-701.416	 H	15	MET15	0.068	
248	   N	743.630	198.933	-700.541	N.am	16	ARG16	-0.348	
249	  CA	744.625	199.998	-700.455	C.3	16	ARG16	-0.264	
250	   C	745.897	199.609	-701.171	C.2	16	ARG16	0.734	
251	   O	746.013	198.533	-701.753	O.2	16	ARG16	-0.589	
252	  CB	744.892	200.315	-698.956	C.3	16	ARG16	-0.001	
253	  CG	745.715	201.605	-698.681	C.3	16	ARG16	0.039	
254	  CD	745.963	201.823	-697.179	C.3	16	ARG16	0.049	
255	  NE	746.737	203.083	-696.976	N.pl3	16	ARG16	-0.530	
256	  CZ	747.126	203.564	-695.799	C.cat	16	ARG16	0.808	
257	 NH1	746.878	202.978	-694.662	N.pl3	16	ARG16	-0.863	
258	 NH2	747.788	204.678	-695.779	N.pl3	16	ARG16	-0.863	
259	   H	743.235	198.531	-699.703	 H	16	ARG16	0.275	
260	  HA	744.215	200.891	-700.964	 H	16	ARG16	0.156	
261	 2HB	745.390	199.439	-698.491	 H	16	ARG16	0.033	
262	 3HB	743.923	200.394	-698.423	 H	16	ARG16	0.033	
263	 2HG	745.183	202.475	-699.118	 H	16	ARG16	0.029	
264	 3HG	746.689	201.554	-699.209	 H	16	ARG16	0.029	
265	 2HD	746.513	200.948	-696.767	 H	16	ARG16	0.069	
266	 3HD	744.989	201.863	-696.645	 H	16	ARG16	0.069	
267	  HE	747.015	203.665	-697.772	 H	16	ARG16	0.346	
268	1HH1	746.354	202.104	-694.748	 H	16	ARG16	0.448	
269	2HH1	747.211	203.413	-693.800	 H	16	ARG16	0.448	
270	1HH2	747.974	205.122	-696.680	 H	16	ARG16	0.448	
271	2HH2	748.077	205.032	-694.866	 H	16	ARG16	0.448	
@<TRIPOS>BOND
1 1 2 1
2 1 10 1
3 2 3 1
4 2 5 1
5 2 11 1
6 3 4 2
7 3 16 1
8 5 6 1
9 6 7 1
10 7 8 2
11 7 9 1
12 5 12 1
13 5 13 1
14 6 14 1
15 6 15 1
16 16 17 1
17 16 24 1
18 17 18 1
19 17 20 1
20 17 25 1
21 18 19 2
22 18 30 1
23 20 21 1
24 21 22 1
25 21 23 2
26 20 26 1
27 20 27 1
28 22 28 1
29 22 29 1
30 30 31 1
31 30 36 1
32 31 32 1
33 31 34 1
34 31 37 1
35 32 33 2
36 32 44 1
37 34 35 1
38 35 36 1
39 34 38 1
40 34 39 1
41 35 40 1
42 35 41 1
43 36 42 1
44 36 43 1
45 44 45 1
46 44 53 1
47 45 46 1
48 45 48 1
49 45 54 1
50 46 47 2
51 46 59 1
52 48 49 1
53 49 50 1
54 50 51 2
55 50 52 1
56 48 55 1
57 48 56 1
58 49 57 1
59 49 58 1
60 59 60 1
61 59 67 1
62 60 61 1
63 60 63 1
64 60 68 1
65 61 62 2
66 61 76 1
67 63 64 1
68 64 65 1
69 65 66 1
70 63 69 1
71 63 70 1
72 64 71 1
73 64 72 1
74 66 73 1
75 66 74 1
76 66 75 1
77 76 77 1
78 76 84 1
79 77 78 1
80 77 80 1
81 77 85 1
82 78 79 2
83 78 95 1
84 80 81 1
85 80 82 1
86 81 83 1
87 80 86 1
88 81 87 1
89 81 88 1
90 82 89 1
91 82 90 1
92 82 91 1
93 83 92 1
94 83 93 1
95 83 94 1
96 95 96 1
97 95 103 1
98 96 97 1
99 96 99 1
100 96 104 1
101 97 98 2
102 97 114 1
103 99 100 1
104 100 101 1
105 100 102 1
106 99 105 1
107 99 106 1
108 100 107 1
109 101 108 1
110 101 109 1
111 101 110 1
112 102 111 1
113 102 112 1
114 102 113 1
115 114 115 1
116 114 122 1
117 115 116 1
118 115 118 1
119 115 123 1
120 116 117 2
121 116 126 1
122 118 119 1
123 119 120 2
124 119 121 1
125 118 124 1
126 118 125 1
127 126 127 1
128 126 135 1
129 127 128 1
130 127 130 1
131 127 136 1
132 128 129 2
133 128 141 1
134 130 131 1
135 131 132 1
136 132 133 2
137 132 134 1
138 130 137 1
139 130 138 1
140 131 139 1
141 131 140 1
142 141 142 1
143 141 151 1
144 142 143 1
145 142 145 1
146 142 152 1
147 143 144 2
148 143 158 1
149 145 146 1
150 146 147 2
151 147 150 1
152 146 148 1
153 148 149 2
154 149 150 1
155 145 153 1
156 145 154 1
157 147 155 1
158 149 156 1
159 150 157 1
160 158 159 1
161 158 165 1
162 159 160 1
163 159 162 1
164 159 166 1
165 160 161 2
166 160 174 1
167 162 163 1
168 162 164 1
169 162 167 1
170 163 168 1
171 163 169 1
172 163 170 1
173 164 171 1
174 164 172 1
175 164 173 1
176 174 175 1
177 174 183 1
178 175 176 1
179 175 178 1
180 175 184 1
181 176 177 2
182 176 191 1
183 178 179 1
184 179 180 1
185 180 181 1
186 180 182 2
187 178 185 1
188 178 186 1
189 179 187 1
190 179 188 1
191 181 189 1
192 181 190 1
193 191 192 1
194 191 202 1
195 192 193 1
196 192 195 1
197 192 203 1
198 193 194 2
199 193 215 1
200 195 196 1
201 196 197 1
202 197 198 1
203 198 199 1
204 199 200 2
205 199 201 1
206 195 204 1
207 195 205 1
208 196 206 1
209 196 207 1
210 197 208 1
211 197 209 1
212 198 210 1
213 200 211 1
214 200 212 1
215 201 213 1
216 201 214 1
217 215 216 1
218 215 222 1
219 216 217 1
220 216 219 1
221 216 223 1
222 217 218 2
223 217 231 1
224 219 220 1
225 219 221 1
226 219 224 1
227 220 225 1
228 220 226 1
229 220 227 1
230 221 228 1
231 221 229 1
232 221 230 1
233 231 232 1
234 231 239 1
235 232 233 1
236 232 235 1
237 232 240 1
238 233 234 2
239 233 248 1
240 235 236 1
241 236 237 1
242 237 238 1
243 235 241 1
244 235 242 1
245 236 243 1
246 236 244 1
247 238 245 1
248 238 246 1
249 238 247 1
250 248 249 1
251 248 259 1
252 249 250 1
253 249 252 1
254 249 260 1
255 250 251 2
256 252 253 1
257 253 254 1
258 254 255 1
259 255 256 1
260 256 257 2
261 256 258 1
262 252 261 1
263 252 262 1
264 253 263 1
265 253 264 1
266 254 265 1
267 254 266 1
268 255 267 1
269 257 268 1
270 257 269 1
271 258 270 1
272 258 271 1
@<TRIPOS>SUBSTRUCTURE
1	GLU1	1	RESIDUE	1 ****	GLU
2	ASN2	16	RESIDUE	1 ****	ASN
3	PRO3	30	RESIDUE	1 ****	PRO
4	GLU4	44	RESIDUE	1 ****	GLU
5	MET5	59	RESIDUE	1 ****	MET
6	ILE6	76	RESIDUE	1 ****	ILE
7	LEU7	95	RESIDUE	1 ****	LEU
8	ASP8	114	RESIDUE	1 ****	ASP
9	GLU9	126	RESIDUE	1 ****	GLU
10	HIS10	141	RESIDUE	1 ****	HIS
11	VAL11	158	RESIDUE	1 ****	VAL
12	GLN12	174	RESIDUE	1 ****	GLN
13	ARG13	191	RESIDUE	1 ****	ARG
14	VAL14	215	RESIDUE	1 ****	VAL
15	MET15	231	RESIDUE	1 ****	MET
16	ARG16	248	RESIDUE	1 ****	ARG
