@<TRIPOS>MOLECULE
3-14
265 265 16              
SMALL
USER_CHARGES
@<TRIPOS>ATOM
1	   N	464.759	107.163	-420.048	N.3	1	GLU1	-0.516	
2	  CA	465.318	108.512	-420.048	C.3	1	GLU1	0.040	
3	   C	466.827	108.472	-420.048	C.2	1	GLU1	0.537	
4	   O	467.503	109.171	-420.817	O.2	1	GLU1	-0.582	
5	  CB	464.795	109.297	-418.811	C.3	1	GLU1	0.056	
6	  CG	465.270	110.782	-418.700	C.3	1	GLU1	0.014	
7	  CD	464.846	111.586	-417.485	C.2	1	GLU1	0.805	
8	 OE1	464.118	111.084	-416.607	O.co2	1	GLU1	-0.819	
9	 OE2	465.276	112.756	-417.413	O.co2	1	GLU1	-0.819	
10	   H	465.386	106.284	-420.048	 H	1	GLU1	0.294	
11	  HA	464.992	109.030	-420.968	 H	1	GLU1	0.111	
12	 2HB	465.084	108.766	-417.881	 H	1	GLU1	-0.017	
13	 3HB	463.688	109.287	-418.798	 H	1	GLU1	-0.017	
14	 2HG	464.960	111.367	-419.581	 H	1	GLU1	-0.043	
15	 3HG	466.370	110.849	-418.671	 H	1	GLU1	-0.043	
16	   N	467.432	107.686	-419.223	N.am	2	ASN2	-0.416	
17	  CA	468.891	107.648	-419.223	C.3	2	ASN2	0.014	
18	   C	469.422	107.292	-420.592	C.2	2	ASN2	0.597	
19	   O	470.337	107.923	-421.120	O.2	2	ASN2	-0.568	
20	  CB	469.384	106.625	-418.159	C.3	2	ASN2	-0.204	
21	  CG	468.921	106.849	-416.715	C.2	2	ASN2	0.713	
22	 ND2	469.515	107.764	-415.997	N.pl3	2	ASN2	-0.919	
23	 OD1	468.000	106.215	-416.221	O.2	2	ASN2	-0.593	
24	   H	466.904	107.107	-418.586	 H	2	ASN2	0.272	
25	  HA	469.269	108.658	-418.978	 H	2	ASN2	0.105	
26	 2HB	470.488	106.566	-418.162	 H	2	ASN2	0.080	
27	 3HB	469.055	105.607	-418.444	 H	2	ASN2	0.080	
28	1HD2	469.034	107.937	-415.110	 H	2	ASN2	0.420	
29	2HD2	470.216	108.335	-416.466	 H	2	ASN2	0.420	
30	   N	468.901	106.297	-421.226	N.am	3	THR3	-0.416	
31	  CA	469.414	105.954	-422.548	C.3	3	THR3	-0.039	
32	   C	469.321	107.132	-423.488	C.2	3	THR3	0.597	
33	   O	470.251	107.468	-424.192	O.2	3	THR3	-0.568	
34	  CB	468.649	104.718	-423.131	C.3	3	THR3	0.365	
35	 CG2	469.081	104.246	-424.536	C.3	3	THR3	-0.244	
36	 OG1	468.833	103.579	-422.300	O.3	3	THR3	-0.676	
37	   H	468.149	105.764	-420.813	 H	3	THR3	0.272	
38	  HA	470.484	105.695	-422.450	 H	3	THR3	0.101	
39	  HB	467.565	104.962	-423.163	 H	3	THR3	0.004	
40	 1HG	468.284	102.884	-422.674	 H	3	THR3	0.410	
41	1HG2	468.513	103.358	-424.870	 H	3	THR3	0.064	
42	2HG2	468.915	105.017	-425.311	 H	3	THR3	0.064	
43	3HG2	470.155	103.980	-424.567	 H	3	THR3	0.064	
44	   N	468.220	107.802	-423.544	N.am	4	GLU4	-0.516	
45	  CA	468.129	108.941	-424.453	C.3	4	GLU4	0.040	
46	   C	469.210	109.954	-424.160	C.2	4	GLU4	0.537	
47	   O	469.904	110.452	-425.057	O.2	4	GLU4	-0.582	
48	  CB	466.723	109.596	-424.336	C.3	4	GLU4	0.056	
49	  CG	466.457	110.805	-425.290	C.3	4	GLU4	0.014	
50	  CD	465.128	111.529	-425.184	C.2	4	GLU4	0.805	
51	 OE1	464.259	111.156	-424.373	O.co2	4	GLU4	-0.819	
52	 OE2	464.967	112.513	-425.936	O.co2	4	GLU4	-0.819	
53	   H	467.432	107.542	-422.968	 H	4	GLU4	0.294	
54	  HA	468.274	108.580	-425.488	 H	4	GLU4	0.111	
55	 2HB	466.551	109.929	-423.292	 H	4	GLU4	-0.017	
56	 3HB	465.937	108.837	-424.514	 H	4	GLU4	-0.017	
57	 2HG	466.565	110.511	-426.347	 H	4	GLU4	-0.043	
58	 3HG	467.193	111.611	-425.129	 H	4	GLU4	-0.043	
59	   N	469.416	110.311	-422.938	N.am	5	SER5	-0.416	
60	  CA	470.461	111.291	-422.655	C.3	5	SER5	-0.025	
61	   C	471.799	110.821	-423.176	C.2	5	SER5	0.597	
62	   O	472.540	111.557	-423.827	O.2	5	SER5	-0.568	
63	  CB	470.520	111.612	-421.140	C.3	5	SER5	0.212	
64	  OG	471.007	110.516	-420.358	O.3	5	SER5	-0.655	
65	   H	468.863	109.920	-422.188	 H	5	SER5	0.272	
66	  HA	470.214	112.220	-423.200	 H	5	SER5	0.084	
67	 2HB	469.531	111.927	-420.759	 H	5	SER5	0.035	
68	 3HB	471.183	112.483	-420.970	 H	5	SER5	0.035	
69	  HG	470.384	109.792	-420.457	 H	5	SER5	0.428	
70	   N	472.175	109.611	-422.932	N.am	6	ILE6	-0.416	
71	  CA	473.468	109.157	-423.436	C.3	6	ILE6	-0.060	
72	   C	473.551	109.316	-424.934	C.2	6	ILE6	0.597	
73	   O	474.536	109.827	-425.487	O.2	6	ILE6	-0.568	
74	  CB	473.773	107.671	-422.984	C.3	6	ILE6	0.130	
75	 CG1	473.632	107.415	-421.449	C.3	6	ILE6	-0.043	
76	 CG2	475.186	107.181	-423.429	C.3	6	ILE6	-0.320	
77	 CD1	473.603	105.935	-421.014	C.3	6	ILE6	-0.066	
78	   H	471.585	108.988	-422.400	 H	6	ILE6	0.272	
79	  HA	474.244	109.817	-423.007	 H	6	ILE6	0.087	
80	  HB	473.022	107.026	-423.486	 H	6	ILE6	0.019	
81	2HG1	472.684	107.855	-421.086	 H	6	ILE6	0.024	
82	3HG1	474.420	107.961	-420.895	 H	6	ILE6	0.024	
83	1HG2	475.334	107.214	-424.523	 H	6	ILE6	0.088	
84	2HG2	475.997	107.778	-422.970	 H	6	ILE6	0.088	
85	3HG2	475.370	106.125	-423.160	 H	6	ILE6	0.088	
86	1HD1	472.796	105.373	-421.522	 H	6	ILE6	0.019	
87	2HD1	474.554	105.412	-421.225	 H	6	ILE6	0.019	
88	3HD1	473.428	105.842	-419.926	 H	6	ILE6	0.019	
89	   N	472.566	108.910	-425.662	N.am	7	LEU7	-0.416	
90	  CA	472.647	109.064	-427.111	C.3	7	LEU7	-0.052	
91	   C	472.866	110.509	-427.489	C.2	7	LEU7	0.597	
92	   O	473.724	110.850	-428.317	O.2	7	LEU7	-0.568	
93	  CB	471.367	108.500	-427.793	C.3	7	LEU7	-0.110	
94	  CG	471.002	107.012	-427.542	C.3	7	LEU7	0.353	
95	 CD1	469.780	106.619	-428.384	C.3	7	LEU7	-0.412	
96	 CD2	472.168	106.055	-427.843	C.3	7	LEU7	-0.412	
97	   H	471.752	108.491	-425.235	 H	7	LEU7	0.272	
98	  HA	473.532	108.511	-427.473	 H	7	LEU7	0.092	
99	 2HB	471.454	108.656	-428.886	 H	7	LEU7	0.046	
100	 3HB	470.501	109.122	-427.492	 H	7	LEU7	0.046	
101	  HG	470.728	106.899	-426.472	 H	7	LEU7	-0.036	
102	1HD1	468.905	107.260	-428.163	 H	7	LEU7	0.100	
103	2HD1	469.976	106.697	-429.470	 H	7	LEU7	0.100	
104	3HD1	469.465	105.578	-428.184	 H	7	LEU7	0.100	
105	1HD2	472.545	106.166	-428.875	 H	7	LEU7	0.100	
106	2HD2	473.019	106.232	-427.159	 H	7	LEU7	0.100	
107	3HD2	471.880	104.996	-427.703	 H	7	LEU7	0.100	
108	   N	472.137	111.418	-426.934	N.am	8	ASP8	-0.516	
109	  CA	472.349	112.816	-427.299	C.3	8	ASP8	0.038	
110	   C	473.779	113.230	-427.051	C.2	8	ASP8	0.537	
111	   O	474.439	113.856	-427.895	O.2	8	ASP8	-0.582	
112	  CB	471.362	113.737	-426.530	C.3	8	ASP8	-0.030	
113	  CG	471.438	115.230	-426.883	C.2	8	ASP8	0.799	
114	 OD1	471.653	115.564	-428.067	O.co2	8	ASP8	-0.801	
115	 OD2	471.327	116.067	-425.964	O.co2	8	ASP8	-0.801	
116	   H	471.431	111.166	-426.257	 H	8	ASP8	0.294	
117	  HA	472.161	112.922	-428.385	 H	8	ASP8	0.088	
118	 2HB	471.525	113.640	-425.441	 H	8	ASP8	-0.012	
119	 3HB	470.319	113.424	-426.704	 H	8	ASP8	-0.012	
120	   N	474.332	112.924	-425.926	N.am	9	GLU9	-0.516	
121	  CA	475.716	113.325	-425.685	C.3	9	GLU9	0.040	
122	   C	476.631	112.778	-426.754	C.2	9	GLU9	0.537	
123	   O	477.479	113.484	-427.317	O.2	9	GLU9	-0.582	
124	  CB	476.167	112.835	-424.279	C.3	9	GLU9	0.056	
125	  CG	477.618	113.234	-423.856	C.3	9	GLU9	0.014	
126	  CD	478.143	112.736	-422.522	C.2	9	GLU9	0.805	
127	 OE1	477.428	112.045	-421.771	O.co2	9	GLU9	-0.819	
128	 OE2	479.318	113.043	-422.236	O.co2	9	GLU9	-0.819	
129	   H	473.816	112.415	-425.223	 H	9	GLU9	0.294	
130	  HA	475.775	114.428	-425.719	 H	9	GLU9	0.111	
131	 2HB	476.075	111.731	-424.220	 H	9	GLU9	-0.017	
132	 3HB	475.467	113.209	-423.507	 H	9	GLU9	-0.017	
133	 2HG	477.745	114.329	-423.849	 H	9	GLU9	-0.043	
134	 3HG	478.363	112.854	-424.574	 H	9	GLU9	-0.043	
135	   N	476.527	111.537	-427.090	N.am	10	HIS10	-0.416	
136	  CA	477.412	111.006	-428.124	C.3	10	HIS10	-0.058	
137	   C	477.277	111.790	-429.407	C.2	10	HIS10	0.597	
138	   O	478.266	112.185	-430.042	O.2	10	HIS10	-0.568	
139	  CB	476.993	109.543	-428.342	C.3	10	HIS10	-0.007	
140	  CG	478.105	108.581	-428.042	C.2	10	HIS10	0.187	
141	 CD2	478.298	108.026	-426.784	C.2	10	HIS10	-0.221	
142	 ND1	479.060	108.128	-428.949	N.2	10	HIS10	-0.543	
143	 CE1	479.776	107.319	-428.147	C.2	10	HIS10	0.163	
144	 NE2	479.389	107.199	-426.848	N.pl3	10	HIS10	-0.280	
145	   H	475.843	110.941	-426.645	 H	10	HIS10	0.272	
146	  HA	478.450	111.144	-427.777	 H	10	HIS10	0.136	
147	 2HB	476.667	109.371	-429.387	 H	10	HIS10	0.037	
148	 3HB	476.124	109.259	-427.713	 H	10	HIS10	0.037	
149	 2HD	477.674	108.231	-425.919	 H	10	HIS10	0.186	
150	 1HE	480.622	106.803	-428.581	 H	10	HIS10	0.144	
151	 2HE	479.807	106.634	-426.095	 H	10	HIS10	0.334	
152	   N	476.098	112.056	-429.856	N.am	11	VAL11	-0.416	
153	  CA	475.967	112.814	-431.097	C.3	11	VAL11	-0.087	
154	   C	476.677	114.143	-430.996	C.2	11	VAL11	0.597	
155	   O	477.431	114.554	-431.887	O.2	11	VAL11	-0.568	
156	  CB	474.439	113.018	-431.443	C.3	11	VAL11	0.299	
157	 CG1	474.121	113.962	-432.634	C.3	11	VAL11	-0.319	
158	 CG2	473.686	111.702	-431.755	C.3	11	VAL11	-0.319	
159	   H	475.277	111.745	-429.357	 H	11	VAL11	0.272	
160	  HA	476.454	112.249	-431.912	 H	11	VAL11	0.097	
161	  HB	473.957	113.466	-430.548	 H	11	VAL11	-0.030	
162	1HG1	474.575	113.617	-433.582	 H	11	VAL11	0.079	
163	2HG1	473.033	114.065	-432.810	 H	11	VAL11	0.079	
164	3HG1	474.479	114.995	-432.461	 H	11	VAL11	0.079	
165	1HG2	473.786	110.967	-430.935	 H	11	VAL11	0.079	
166	2HG2	472.599	111.870	-431.883	 H	11	VAL11	0.079	
167	3HG2	474.055	111.215	-432.677	 H	11	VAL11	0.079	
168	   N	476.490	114.873	-429.949	N.am	12	GLN12	-0.416	
169	  CA	477.175	116.158	-429.850	C.3	12	GLN12	-0.003	
170	   C	478.671	115.985	-429.967	C.2	12	GLN12	0.597	
171	   O	479.353	116.697	-430.701	O.2	12	GLN12	-0.568	
172	  CB	476.798	116.819	-428.506	C.3	12	GLN12	-0.004	
173	  CG	477.404	118.235	-428.238	C.3	12	GLN12	-0.064	
174	  CD	477.123	118.927	-426.899	C.2	12	GLN12	0.695	
175	 NE2	476.370	118.340	-426.004	N.pl3	12	GLN12	-0.941	
176	 OE1	477.611	120.016	-426.637	O.2	12	GLN12	-0.609	
177	   H	475.879	114.560	-429.208	 H	12	GLN12	0.272	
178	  HA	476.847	116.801	-430.688	 H	12	GLN12	0.085	
179	 2HB	477.097	116.138	-427.682	 H	12	GLN12	0.017	
180	 3HB	475.694	116.890	-428.439	 H	12	GLN12	0.017	
181	 2HG	477.106	118.934	-429.041	 H	12	GLN12	0.035	
182	 3HG	478.507	118.200	-428.303	 H	12	GLN12	0.035	
183	1HE2	476.286	118.838	-425.116	 H	12	GLN12	0.425	
184	2HE2	476.051	117.403	-426.257	 H	12	GLN12	0.425	
185	   N	479.251	115.063	-429.275	N.am	13	ARG13	-0.348	
186	  CA	480.697	114.897	-429.389	C.3	13	ARG13	-0.264	
187	   C	481.101	114.650	-430.823	C.2	13	ARG13	0.734	
188	   O	482.034	115.252	-431.350	O.2	13	ARG13	-0.589	
189	  CB	481.141	113.727	-428.465	C.3	13	ARG13	-0.001	
190	  CG	482.675	113.589	-428.251	C.3	13	ARG13	0.039	
191	  CD	483.027	112.390	-427.356	C.3	13	ARG13	0.049	
192	  NE	484.506	112.320	-427.169	N.pl3	13	ARG13	-0.530	
193	  CZ	485.149	111.400	-426.457	C.cat	13	ARG13	0.808	
194	 NH1	484.552	110.426	-425.830	N.pl3	13	ARG13	-0.863	
195	 NH2	486.441	111.472	-426.380	N.pl3	13	ARG13	-0.863	
196	   H	478.712	114.465	-428.665	 H	13	ARG13	0.275	
197	  HA	481.176	115.840	-429.064	 H	13	ARG13	0.156	
198	 2HB	480.726	112.779	-428.866	 H	13	ARG13	0.033	
199	 3HB	480.655	113.842	-427.475	 H	13	ARG13	0.033	
200	 2HG	483.067	114.530	-427.812	 H	13	ARG13	0.029	
201	 3HG	483.187	113.479	-429.228	 H	13	ARG13	0.029	
202	 2HD	482.642	111.456	-427.823	 H	13	ARG13	0.069	
203	 3HD	482.507	112.490	-426.379	 H	13	ARG13	0.069	
204	  HE	485.126	113.014	-427.600	 H	13	ARG13	0.346	
205	1HH1	483.534	110.425	-425.932	 H	13	ARG13	0.448	
206	2HH1	485.117	109.758	-425.302	 H	13	ARG13	0.448	
207	1HH2	486.891	112.242	-426.879	 H	13	ARG13	0.448	
208	2HH2	486.916	110.757	-425.827	 H	13	ARG13	0.448	
209	   N	480.447	113.780	-431.516	N.am	14	VAL14	-0.416	
210	  CA	480.838	113.541	-432.903	C.3	14	VAL14	-0.087	
211	   C	480.796	114.820	-433.704	C.2	14	VAL14	0.597	
212	   O	481.722	115.157	-434.453	O.2	14	VAL14	-0.568	
213	  CB	479.898	112.445	-433.543	C.3	14	VAL14	0.299	
214	 CG1	480.058	112.205	-435.070	C.3	14	VAL14	-0.319	
215	 CG2	480.033	111.046	-432.894	C.3	14	VAL14	-0.319	
216	   H	479.676	113.273	-431.106	 H	14	VAL14	0.272	
217	  HA	481.883	113.183	-432.921	 H	14	VAL14	0.097	
218	  HB	478.850	112.779	-433.385	 H	14	VAL14	-0.030	
219	1HG1	481.082	111.886	-435.343	 H	14	VAL14	0.079	
220	2HG1	479.361	111.433	-435.449	 H	14	VAL14	0.079	
221	3HG1	479.831	113.110	-435.665	 H	14	VAL14	0.079	
222	1HG2	479.870	111.082	-431.802	 H	14	VAL14	0.079	
223	2HG2	479.284	110.334	-433.291	 H	14	VAL14	0.079	
224	3HG2	481.032	110.601	-433.061	 H	14	VAL14	0.079	
225	   N	479.761	115.585	-433.607	N.am	15	MET15	-0.416	
226	  CA	479.719	116.822	-434.381	C.3	15	MET15	-0.024	
227	   C	480.907	117.699	-434.067	C.2	15	MET15	0.597	
228	   O	481.583	118.232	-434.960	O.2	15	MET15	-0.568	
229	  CB	478.387	117.572	-434.105	C.3	15	MET15	0.034	
230	  CG	477.097	116.830	-434.517	C.3	15	MET15	0.002	
231	  SD	475.688	117.944	-434.400	S.3	15	MET15	-0.274	
232	  CE	474.373	116.726	-434.542	C.3	15	MET15	-0.054	
233	   H	478.992	115.332	-433.003	 H	15	MET15	0.272	
234	  HA	479.779	116.567	-435.456	 H	15	MET15	0.088	
235	 2HB	478.398	118.545	-434.632	 H	15	MET15	0.024	
236	 3HB	478.318	117.833	-433.030	 H	15	MET15	0.024	
237	 2HG	476.932	115.959	-433.855	 H	15	MET15	0.044	
238	 3HG	477.166	116.436	-435.548	 H	15	MET15	0.044	
239	 1HE	474.481	116.133	-435.468	 H	15	MET15	0.068	
240	 2HE	474.396	116.034	-433.681	 H	15	MET15	0.068	
241	 3HE	473.387	117.221	-434.559	 H	15	MET15	0.068	
242	   N	481.227	117.901	-432.834	N.am	16	ARG16	-0.348	
243	  CA	482.376	118.749	-432.531	C.3	16	ARG16	-0.264	
244	   C	483.625	118.226	-433.200	C.2	16	ARG16	0.734	
245	   O	483.612	117.227	-433.915	O.2	16	ARG16	-0.589	
246	  CB	482.549	118.827	-430.988	C.3	16	ARG16	-0.001	
247	  CG	483.549	119.903	-430.480	C.3	16	ARG16	0.039	
248	  CD	483.687	119.887	-428.948	C.3	16	ARG16	0.049	
249	  NE	484.641	120.951	-428.519	N.pl3	16	ARG16	-0.530	
250	  CZ	484.993	121.207	-427.262	C.cat	16	ARG16	0.808	
251	 NH1	484.542	120.540	-426.237	N.pl3	16	ARG16	-0.863	
252	 NH2	485.829	122.171	-427.041	N.pl3	16	ARG16	-0.863	
253	   H	480.692	117.478	-432.089	 H	16	ARG16	0.275	
254	  HA	482.174	119.757	-432.941	 H	16	ARG16	0.156	
255	 2HB	482.844	117.825	-430.612	 H	16	ARG16	0.033	
256	 3HB	481.561	119.014	-430.520	 H	16	ARG16	0.033	
257	 2HG	483.218	120.902	-430.830	 H	16	ARG16	0.029	
258	 3HG	484.547	119.741	-430.938	 H	16	ARG16	0.029	
259	 2HD	484.038	118.883	-428.621	 H	16	ARG16	0.069	
260	 3HD	482.688	120.037	-428.485	 H	16	ARG16	0.069	
261	  HE	485.089	121.566	-429.205	 H	16	ARG16	0.346	
262	1HH1	483.887	119.793	-426.479	 H	16	ARG16	0.448	
263	2HH1	484.860	120.799	-425.301	 H	16	ARG16	0.448	
264	1HH2	486.173	122.681	-427.857	 H	16	ARG16	0.448	
265	2HH2	486.086	122.353	-426.070	 H	16	ARG16	0.448	
@<TRIPOS>BOND
1 1 2 1
2 1 10 1
3 2 3 1
4 2 5 1
5 2 11 1
6 3 4 2
7 3 16 1
8 5 6 1
9 6 7 1
10 7 8 2
11 7 9 1
12 5 12 1
13 5 13 1
14 6 14 1
15 6 15 1
16 16 17 1
17 16 24 1
18 17 18 1
19 17 20 1
20 17 25 1
21 18 19 2
22 18 30 1
23 20 21 1
24 21 22 1
25 21 23 2
26 20 26 1
27 20 27 1
28 22 28 1
29 22 29 1
30 30 31 1
31 30 37 1
32 31 32 1
33 31 34 1
34 31 38 1
35 32 33 2
36 32 44 1
37 34 35 1
38 34 36 1
39 34 39 1
40 36 40 1
41 35 41 1
42 35 42 1
43 35 43 1
44 44 45 1
45 44 53 1
46 45 46 1
47 45 48 1
48 45 54 1
49 46 47 2
50 46 59 1
51 48 49 1
52 49 50 1
53 50 51 2
54 50 52 1
55 48 55 1
56 48 56 1
57 49 57 1
58 49 58 1
59 59 60 1
60 59 65 1
61 60 61 1
62 60 63 1
63 60 66 1
64 61 62 2
65 61 70 1
66 63 64 1
67 63 67 1
68 63 68 1
69 64 69 1
70 70 71 1
71 70 78 1
72 71 72 1
73 71 74 1
74 71 79 1
75 72 73 2
76 72 89 1
77 74 75 1
78 74 76 1
79 75 77 1
80 74 80 1
81 75 81 1
82 75 82 1
83 76 83 1
84 76 84 1
85 76 85 1
86 77 86 1
87 77 87 1
88 77 88 1
89 89 90 1
90 89 97 1
91 90 91 1
92 90 93 1
93 90 98 1
94 91 92 2
95 91 108 1
96 93 94 1
97 94 95 1
98 94 96 1
99 93 99 1
100 93 100 1
101 94 101 1
102 95 102 1
103 95 103 1
104 95 104 1
105 96 105 1
106 96 106 1
107 96 107 1
108 108 109 1
109 108 116 1
110 109 110 1
111 109 112 1
112 109 117 1
113 110 111 2
114 110 120 1
115 112 113 1
116 113 114 2
117 113 115 1
118 112 118 1
119 112 119 1
120 120 121 1
121 120 129 1
122 121 122 1
123 121 124 1
124 121 130 1
125 122 123 2
126 122 135 1
127 124 125 1
128 125 126 1
129 126 127 2
130 126 128 1
131 124 131 1
132 124 132 1
133 125 133 1
134 125 134 1
135 135 136 1
136 135 145 1
137 136 137 1
138 136 139 1
139 136 146 1
140 137 138 2
141 137 152 1
142 139 140 1
143 140 141 2
144 141 144 1
145 140 142 1
146 142 143 2
147 143 144 1
148 139 147 1
149 139 148 1
150 141 149 1
151 143 150 1
152 144 151 1
153 152 153 1
154 152 159 1
155 153 154 1
156 153 156 1
157 153 160 1
158 154 155 2
159 154 168 1
160 156 157 1
161 156 158 1
162 156 161 1
163 157 162 1
164 157 163 1
165 157 164 1
166 158 165 1
167 158 166 1
168 158 167 1
169 168 169 1
170 168 177 1
171 169 170 1
172 169 172 1
173 169 178 1
174 170 171 2
175 170 185 1
176 172 173 1
177 173 174 1
178 174 175 1
179 174 176 2
180 172 179 1
181 172 180 1
182 173 181 1
183 173 182 1
184 175 183 1
185 175 184 1
186 185 186 1
187 185 196 1
188 186 187 1
189 186 189 1
190 186 197 1
191 187 188 2
192 187 209 1
193 189 190 1
194 190 191 1
195 191 192 1
196 192 193 1
197 193 194 2
198 193 195 1
199 189 198 1
200 189 199 1
201 190 200 1
202 190 201 1
203 191 202 1
204 191 203 1
205 192 204 1
206 194 205 1
207 194 206 1
208 195 207 1
209 195 208 1
210 209 210 1
211 209 216 1
212 210 211 1
213 210 213 1
214 210 217 1
215 211 212 2
216 211 225 1
217 213 214 1
218 213 215 1
219 213 218 1
220 214 219 1
221 214 220 1
222 214 221 1
223 215 222 1
224 215 223 1
225 215 224 1
226 225 226 1
227 225 233 1
228 226 227 1
229 226 229 1
230 226 234 1
231 227 228 2
232 227 242 1
233 229 230 1
234 230 231 1
235 231 232 1
236 229 235 1
237 229 236 1
238 230 237 1
239 230 238 1
240 232 239 1
241 232 240 1
242 232 241 1
243 242 243 1
244 242 253 1
245 243 244 1
246 243 246 1
247 243 254 1
248 244 245 2
249 246 247 1
250 247 248 1
251 248 249 1
252 249 250 1
253 250 251 2
254 250 252 1
255 246 255 1
256 246 256 1
257 247 257 1
258 247 258 1
259 248 259 1
260 248 260 1
261 249 261 1
262 251 262 1
263 251 263 1
264 252 264 1
265 252 265 1
@<TRIPOS>SUBSTRUCTURE
1	GLU1	1	RESIDUE	1 ****	GLU
2	ASN2	16	RESIDUE	1 ****	ASN
3	THR3	30	RESIDUE	1 ****	THR
4	GLU4	44	RESIDUE	1 ****	GLU
5	SER5	59	RESIDUE	1 ****	SER
6	ILE6	70	RESIDUE	1 ****	ILE
7	LEU7	89	RESIDUE	1 ****	LEU
8	ASP8	108	RESIDUE	1 ****	ASP
9	GLU9	120	RESIDUE	1 ****	GLU
10	HIS10	135	RESIDUE	1 ****	HIS
11	VAL11	152	RESIDUE	1 ****	VAL
12	GLN12	168	RESIDUE	1 ****	GLN
13	ARG13	185	RESIDUE	1 ****	ARG
14	VAL14	209	RESIDUE	1 ****	VAL
15	MET15	225	RESIDUE	1 ****	MET
16	ARG16	242	RESIDUE	1 ****	ARG
