REMARK WARNING: 32 MAX_TORS EXCEEDED!!!
REMARK  67 active torsions:
REMARK  status: ('A' for Active; 'I' for Inactive)
REMARK    1  A    between atoms: N_1  and  CA_2 
REMARK    2  A    between atoms: CA_2  and  C_3 
REMARK    3  A    between atoms: CA_2  and  CB_5 
REMARK       I    between atoms: C_3  and  N_11 
REMARK    4  A    between atoms: CB_5  and  CG_6 
REMARK    5  A    between atoms: CG_6  and  CD_7 
REMARK    6  A    between atoms: N_11  and  CA_12 
REMARK    7  A    between atoms: CA_12  and  C_13 
REMARK    8  A    between atoms: CA_12  and  CB_15 
REMARK       I    between atoms: C_13  and  N_22 
REMARK    9  A    between atoms: CB_15  and  CG_16 
REMARK       I    between atoms: CG_16  and  ND2_17 
REMARK   10  A    between atoms: CA_23  and  C_24 
REMARK       I    between atoms: C_24  and  N_29 
REMARK   11  A    between atoms: N_29  and  CA_30 
REMARK   12  A    between atoms: CA_30  and  C_31 
REMARK   13  A    between atoms: CA_30  and  CB_33 
REMARK       I    between atoms: C_31  and  N_39 
REMARK   14  A    between atoms: CB_33  and  CG_34 
REMARK   15  A    between atoms: CG_34  and  CD_35 
REMARK   16  A    between atoms: N_39  and  CA_40 
REMARK   17  A    between atoms: CA_40  and  C_41 
REMARK   18  A    between atoms: CA_40  and  CB_43 
REMARK       I    between atoms: C_41  and  N_47 
REMARK   19  A    between atoms: CB_43  and  OG_44 
REMARK   20  A    between atoms: N_47  and  CA_48 
REMARK   21  A    between atoms: CA_48  and  C_49 
REMARK   22  A    between atoms: CA_48  and  CB_51 
REMARK       I    between atoms: C_49  and  N_56 
REMARK   23  A    between atoms: CB_51  and  CG1_52 
REMARK   24  A    between atoms: N_56  and  CA_57 
REMARK   25  A    between atoms: CA_57  and  C_58 
REMARK   26  A    between atoms: CA_57  and  CB_60 
REMARK       I    between atoms: C_58  and  N_65 
REMARK   27  A    between atoms: CB_60  and  CG_61 
REMARK   28  A    between atoms: N_65  and  CA_66 
REMARK   29  A    between atoms: CA_66  and  C_67 
REMARK   30  A    between atoms: CA_66  and  CB_69 
REMARK       I    between atoms: C_67  and  N_74 
REMARK   31  A    between atoms: CB_69  and  CG_70 
REMARK   32  A    between atoms: N_74  and  CA_75 
REMARK   33  A    between atoms: CA_75  and  C_76 
REMARK   34  A    between atoms: CA_75  and  CB_78 
REMARK       I    between atoms: C_76  and  N_84 
REMARK   35  A    between atoms: CB_78  and  CG_79 
REMARK   36  A    between atoms: CG_79  and  CD_80 
REMARK   37  A    between atoms: N_84  and  CA_85 
REMARK   38  A    between atoms: CA_85  and  C_86 
REMARK   39  A    between atoms: CA_85  and  CB_88 
REMARK       I    between atoms: C_86  and  N_96 
REMARK   40  A    between atoms: CB_88  and  CG_89 
REMARK   41  A    between atoms: N_96  and  CA_97 
REMARK   42  A    between atoms: CA_97  and  C_98 
REMARK   43  A    between atoms: CA_97  and  CB_100 
REMARK       I    between atoms: C_98  and  N_104 
REMARK   44  A    between atoms: N_104  and  CA_105 
REMARK   45  A    between atoms: CA_105  and  C_106 
REMARK   46  A    between atoms: CA_105  and  CB_108 
REMARK       I    between atoms: C_106  and  N_116 
REMARK   47  A    between atoms: CB_108  and  CG_109 
REMARK   48  A    between atoms: CG_109  and  CD_110 
REMARK       I    between atoms: CD_110  and  NE2_111 
REMARK   49  A    between atoms: N_116  and  CA_117 
REMARK   50  A    between atoms: CA_117  and  C_118 
REMARK   51  A    between atoms: CA_117  and  CB_120 
REMARK       I    between atoms: C_118  and  N_133 
REMARK   52  A    between atoms: CB_120  and  CG_121 
REMARK   53  A    between atoms: CG_121  and  CD_122 
REMARK   54  A    between atoms: CD_122  and  NE_123 
REMARK       I    between atoms: NE_123  and  CZ_124 
REMARK       I    between atoms: CZ_124  and  NH1_125 
REMARK       I    between atoms: CZ_124  and  NH2_126 
REMARK   55  A    between atoms: N_133  and  CA_134 
REMARK   56  A    between atoms: CA_134  and  C_135 
REMARK   57  A    between atoms: CA_134  and  CB_137 
REMARK       I    between atoms: C_135  and  N_141 
REMARK   58  A    between atoms: N_141  and  CA_142 
REMARK   59  A    between atoms: CA_142  and  C_143 
REMARK   60  A    between atoms: CA_142  and  CB_145 
REMARK       I    between atoms: C_143  and  N_153 
REMARK   61  A    between atoms: CB_145  and  CG_146 
REMARK   62  A    between atoms: N_153  and  CA_154 
REMARK   63  A    between atoms: CA_154  and  C_155 
REMARK   64  A    between atoms: CA_154  and  CB_157 
REMARK   65  A    between atoms: CB_157  and  CG_158 
REMARK   66  A    between atoms: CG_158  and  CD_159 
REMARK   67  A    between atoms: CD_159  and  NE_160 
REMARK       I    between atoms: NE_160  and  CZ_161 
REMARK       I    between atoms: CZ_161  and  NH1_162 
ROOT
ATOM      1  C   GLU d   9    2401.096 738.316-2496.828  0.00  0.00     0.241 C 
ATOM      2  O   GLU d   9    2401.760 739.069-2497.554  0.00  0.00    -0.271 OA
ATOM      3  N   HIS d  10    2401.192 737.040-2496.997  0.00  0.00    -0.346 N 
ATOM      4  H   HIS d  10    2400.662 736.405-2496.418  0.00  0.00     0.163 HD
ENDROOT
BRANCH   3   5
ATOM      5  CA  HIS d  10    2402.080 736.528-2498.038  0.00  0.00     0.182 C 
BRANCH   5   6
ATOM      6  C   HIS d  10    2401.713 737.092-2499.389  0.00  0.00     0.241 C 
ATOM      7  O   HIS d  10    2402.565 737.556-2500.161  0.00  0.00    -0.271 OA
ATOM      8  N   VAL d  11    2400.475 737.092-2499.752  0.00  0.00    -0.346 N 
ATOM      9  H   VAL d  11    2399.762 736.720-2499.141  0.00  0.00     0.163 HD
BRANCH   8  10
ATOM     10  CA  VAL d  11    2400.120 737.637-2501.059  0.00  0.00     0.180 C 
BRANCH  10  11
ATOM     11  C   VAL d  11    2400.585 739.067-2501.192  0.00  0.00     0.241 C 
ATOM     12  O   VAL d  11    2401.186 739.472-2502.195  0.00  0.00    -0.271 OA
ATOM     13  N   GLN d  12    2400.349 739.894-2500.230  0.00  0.00    -0.346 N 
ATOM     14  H   GLN d  12    2399.860 739.588-2499.401  0.00  0.00     0.163 HD
BRANCH  13  15
ATOM     15  CA  GLN d  12    2400.798 741.276-2500.358  0.00  0.00     0.177 C 
BRANCH  15  16
ATOM     16  C   GLN d  12    2402.288 741.343-2500.596  0.00  0.00     0.241 C 
ATOM     17  O   GLN d  12    2402.775 742.050-2501.475  0.00  0.00    -0.271 OA
ATOM     18  N   ARG d  13    2403.072 740.636-2499.855  0.00  0.00    -0.346 N 
ATOM     19  H   ARG d  13    2402.696 740.047-2499.126  0.00  0.00     0.163 HD
BRANCH  18  20
ATOM     20  CA  ARG d  13    2404.512 740.701-2500.086  0.00  0.00     0.176 C 
BRANCH  20  21
ATOM     21  C   ARG d  13    2404.848 740.329-2501.511  0.00  0.00     0.241 C 
ATOM     22  O   ARG d  13    2405.617 741.000-2502.196  0.00  0.00    -0.271 OA
ATOM     23  N   VAL d  14    2404.312 739.274-2502.025  0.00  0.00    -0.346 N 
ATOM     24  H   VAL d  14    2403.677 738.706-2501.482  0.00  0.00     0.163 HD
BRANCH  23  25
ATOM     25  CA  VAL d  14    2404.636 738.914-2503.402  0.00  0.00     0.180 C 
BRANCH  25  26
ATOM     26  C   VAL d  14    2404.306 740.044-2504.348  0.00  0.00     0.241 C 
ATOM     27  O   VAL d  14    2405.099 740.425-2505.218  0.00  0.00    -0.271 OA
ATOM     28  N   PHE d  15    2403.162 740.630-2504.246  0.00  0.00    -0.346 N 
ATOM     29  H   PHE d  15    2402.497 740.337-2503.545  0.00  0.00     0.163 HD
BRANCH  28  30
ATOM     30  CA  PHE d  15    2402.842 741.722-2505.160  0.00  0.00     0.180 C 
BRANCH  30  31
ATOM     31  C   PHE d  15    2403.873 742.822-2505.073  0.00  0.00     0.241 C 
ATOM     32  O   PHE d  15    2404.385 743.341-2506.104  0.00  0.00    -0.271 OA
ATOM     33  N   ARG d  16    2404.242 743.243-2503.911  0.00  0.00    -0.347 N 
ATOM     34  H   ARG d  16    2403.847 742.843-2503.071  0.00  0.00     0.163 HD
BRANCH  33  35
ATOM     35  CA  ARG d  16    2405.239 744.307-2503.828  0.00  0.00     0.162 C 
BRANCH  35  36
ATOM     36  C   ARG d  16    2406.509 743.912-2504.544  0.00  0.00     0.219 C 
ATOM     37  O   ARG d  16    2406.623 742.836-2505.125  0.00  0.00    -0.287 OA
ENDBRANCH  35  36
BRANCH  35  38
ATOM     38  CB  ARG d  16    2405.509 744.625-2502.329  0.00  0.00     0.035 C 
BRANCH  38  39
ATOM     39  CG  ARG d  16    2406.335 745.913-2502.058  0.00  0.00     0.023 C 
BRANCH  39  40
ATOM     40  CD  ARG d  16    2406.585 746.134-2500.557  0.00  0.00     0.138 C 
BRANCH  40  41
ATOM     41  NE  ARG d  16    2407.362 747.392-2500.356  0.00  0.00    -0.227 N 
ATOM     42  CZ  ARG d  16    2407.754 747.875-2499.181  0.00  0.00     0.665 C 
ATOM     43  NH1 ARG d  16    2407.506 747.292-2498.042  0.00  0.00    -0.235 N 
ATOM     44  NH2 ARG d  16    2408.418 748.987-2499.164  0.00  0.00    -0.235 N 
ATOM     45 11HH ARG d  16    2406.979 746.419-2498.126  0.00  0.00     0.174 HD
ATOM     46 12HH ARG d  16    2407.841 747.728-2497.181  0.00  0.00     0.174 HD
ATOM     47 21HH ARG d  16    2408.604 749.430-2500.065  0.00  0.00     0.174 HD
ATOM     48 22HH ARG d  16    2408.709 749.343-2498.251  0.00  0.00     0.174 HD
ATOM     49  HE  ARG d  16    2407.641 747.972-2501.154  0.00  0.00     0.177 HD
ENDBRANCH  40  41
ENDBRANCH  39  40
ENDBRANCH  38  39
ENDBRANCH  35  38
ENDBRANCH  33  35
ENDBRANCH  30  31
BRANCH  30  50
ATOM     50  CB  PHE d  15    2401.443 742.316-2504.815  0.00  0.00     0.073 C 
BRANCH  50  51
ATOM     51  CG  PHE d  15    2400.256 741.340-2504.851  0.00  0.00    -0.056 A 
ATOM     52  CD1 PHE d  15    2399.924 740.614-2503.701  0.00  0.00     0.007 A 
ATOM     53  CE1 PHE d  15    2398.906 739.668-2503.739  0.00  0.00     0.001 A 
ATOM     54  CZ  PHE d  15    2398.201 739.453-2504.921  0.00  0.00     0.000 A 
ATOM     55  CE2 PHE d  15    2398.518 740.181-2506.067  0.00  0.00     0.001 A 
ATOM     56  CD2 PHE d  15    2399.545 741.121-2506.033  0.00  0.00     0.007 A 
ENDBRANCH  50  51
ENDBRANCH  30  50
ENDBRANCH  28  30
ENDBRANCH  25  26
BRANCH  25  57
ATOM     57  CB  VAL d  14    2403.863 737.597-2503.808  0.00  0.00     0.009 C 
ATOM     58  CG1 VAL d  14    2403.952 737.178-2505.302  0.00  0.00     0.012 C 
ATOM     59  CG2 VAL d  14    2404.295 736.345-2503.007  0.00  0.00     0.012 C 
ENDBRANCH  25  57
ENDBRANCH  23  25
ENDBRANCH  20  21
BRANCH  20  60
ATOM     60  CB  ARG d  13    2405.226 739.763-2499.072  0.00  0.00     0.036 C 
BRANCH  60  61
ATOM     61  CG  ARG d  13    2406.771 739.916-2498.991  0.00  0.00     0.023 C 
BRANCH  61  62
ATOM     62  CD  ARG d  13    2407.398 738.928-2497.993  0.00  0.00     0.138 C 
BRANCH  62  63
ATOM     63  NE  ARG d  13    2408.875 739.135-2497.943  0.00  0.00    -0.227 N 
ATOM     64  CZ  ARG d  13    2409.723 738.444-2497.188  0.00  0.00     0.665 C 
ATOM     65  NH1 ARG d  13    2409.358 737.480-2496.389  0.00  0.00    -0.235 N 
ATOM     66  NH2 ARG d  13    2410.983 738.743-2497.245  0.00  0.00    -0.235 N 
ATOM     67 11HH ARG d  13    2408.353 737.294-2496.392  0.00  0.00     0.174 HD
ATOM     68 12HH ARG d  13    2410.071 736.997-2495.841  0.00  0.00     0.174 HD
ATOM     69 21HH ARG d  13    2411.250 739.500-2497.877  0.00  0.00     0.174 HD
ATOM     70 22HH ARG d  13    2411.618 738.201-2496.656  0.00  0.00     0.174 HD
ATOM     71  HE  ARG d  13    2409.326 739.857-2498.515  0.00  0.00     0.177 HD
ENDBRANCH  62  63
ENDBRANCH  61  62
ENDBRANCH  60  61
ENDBRANCH  20  60
ENDBRANCH  18  20
ENDBRANCH  15  16
BRANCH  15  72
ATOM     72  CB  GLN d  12    2400.407 742.045-2499.076  0.00  0.00     0.044 C 
BRANCH  72  73
ATOM     73  CG  GLN d  12    2400.769 743.566-2499.045  0.00  0.00     0.105 C 
BRANCH  73  74
ATOM     74  CD  GLN d  12    2400.467 744.381-2497.781  0.00  0.00     0.215 C 
ATOM     75  NE2 GLN d  12    2399.900 743.805-2496.752  0.00  0.00    -0.370 N 
ATOM     76 21HE GLN d  12    2399.794 744.400-2495.928  0.00  0.00     0.159 HD
ATOM     77 22HE GLN d  12    2399.736 742.802-2496.854  0.00  0.00     0.159 HD
ATOM     78  OE1 GLN d  12    2400.770 745.562-2497.704  0.00  0.00    -0.274 OA
ENDBRANCH  73  74
ENDBRANCH  72  73
ENDBRANCH  15  72
ENDBRANCH  13  15
ENDBRANCH  10  11
BRANCH  10  79
ATOM     79  CB  VAL d  11    2398.558 737.531-2501.278  0.00  0.00     0.009 C 
ATOM     80  CG1 VAL d  11    2397.990 738.235-2502.541  0.00  0.00     0.012 C 
ATOM     81  CG2 VAL d  11    2398.033 736.077-2501.350  0.00  0.00     0.012 C 
ENDBRANCH  10  79
ENDBRANCH   8  10
ENDBRANCH   5   6
BRANCH   5  82
ATOM     82  CB  HIS d  10    2401.915 734.999-2498.032  0.00  0.00     0.095 C 
BRANCH  82  83
ATOM     83  CG  HIS d  10    2403.200 734.288-2497.724  0.00  0.00     0.053 A 
ATOM     84  CD2 HIS d  10    2403.582 733.954-2496.431  0.00  0.00     0.116 A 
ATOM     85  NE2 HIS d  10    2404.796 733.321-2496.498  0.00  0.00    -0.359 N 
ATOM     86  CE1 HIS d  10    2405.058 733.324-2497.833  0.00  0.00     0.207 A 
ATOM     87  2HE HIS d  10    2405.363 732.945-2495.725  0.00  0.00     0.166 HD
ATOM     88  ND1 HIS d  10    2404.152 733.882-2498.656  0.00  0.00    -0.247 NA
ENDBRANCH  82  83
ENDBRANCH   5  82
ENDBRANCH   3   5
BRANCH   1  89
ATOM     89  CA  GLU d   9    2400.179 738.844-2495.752  0.00  0.00     0.177 C 
BRANCH  89  90
ATOM     90  N   GLU d   9    2398.876 738.187-2495.807  0.00  0.00    -0.346 N 
ATOM     91  C   ASP d   8    2398.196 738.237-2496.902  0.00  0.00     0.241 C 
ATOM     92  O   ASP d   8    2398.669 738.841-2497.877  0.00  0.00    -0.271 OA
ATOM     93  H   GLU d   9    2398.512 737.702-2495.000  0.00  0.00     0.163 HD
BRANCH  91  94
ATOM     94  CA  ASP d   8    2396.849 737.558-2496.959  0.00  0.00     0.186 C 
BRANCH  94  95
ATOM     95  N   ASP d   8    2396.918 736.209-2496.405  0.00  0.00    -0.346 N 
ATOM     96  C   LEU d   7    2397.755 735.367-2496.911  0.00  0.00     0.241 C 
ATOM     97  O   LEU d   7    2398.476 735.729-2497.853  0.00  0.00    -0.271 OA
ATOM     98  H   ASP d   8    2396.321 735.938-2495.637  0.00  0.00     0.163 HD
BRANCH  96  99
ATOM     99  CA  LEU d   7    2397.827 733.972-2496.338  0.00  0.00     0.177 C 
BRANCH  99 100
ATOM    100  N   LEU d   7    2397.882 734.008-2494.879  0.00  0.00    -0.346 N 
ATOM    101  C   ILE d   6    2398.828 734.671-2494.306  0.00  0.00     0.241 C 
ATOM    102  O   ILE d   6    2399.663 735.259-2495.010  0.00  0.00    -0.271 OA
ATOM    103  H   LEU d   7    2397.190 733.521-2494.328  0.00  0.00     0.163 HD
BRANCH 101 104
ATOM    104  CA  ILE d   6    2398.885 734.709-2492.798  0.00  0.00     0.180 C 
BRANCH 104 105
ATOM    105  N   ILE d   6    2397.572 735.004-2492.232  0.00  0.00    -0.346 N 
ATOM    106  C   SER d   5    2396.968 736.088-2492.586  0.00  0.00     0.243 C 
ATOM    107  O   SER d   5    2397.516 736.841-2493.391  0.00  0.00    -0.271 OA
ATOM    108  H   ILE d   6    2397.143 734.370-2491.573  0.00  0.00     0.163 HD
BRANCH 106 109
ATOM    109  CA  SER d   5    2395.609 736.394-2492.001  0.00  0.00     0.200 C 
BRANCH 109 110
ATOM    110  N   SER d   5    2394.739 735.223-2492.060  0.00  0.00    -0.344 N 
ATOM    111  C   GLU d   4    2394.512 734.670-2493.203  0.00  0.00     0.241 C 
ATOM    112  O   GLU d   4    2395.039 735.150-2494.218  0.00  0.00    -0.271 OA
ATOM    113  H   SER d   5    2394.322 734.851-2491.219  0.00  0.00     0.163 HD
BRANCH 111 114
ATOM    114  CA  GLU d   4    2393.613 733.459-2493.265  0.00  0.00     0.177 C 
BRANCH 114 115
ATOM    115  N   GLU d   4    2393.972 732.488-2492.235  0.00  0.00    -0.346 N 
ATOM    116  C   PRO d   3    2395.177 732.028-2492.202  0.00  0.00     0.241 C 
ATOM    117  O   PRO d   3    2396.000 732.411-2493.034  0.00  0.00    -0.271 OA
ATOM    118  H   GLU d   4    2393.288 732.182-2491.559  0.00  0.00     0.163 HD
BRANCH 116 119
ATOM    119  CA  PRO d   3    2395.575 731.004-2491.125  0.00  0.00     0.179 C 
ATOM    120  N   PRO d   3    2395.123 731.414-2489.804  0.00  0.00    -0.337 N 
ATOM    121  C   ASN d   2    2395.644 732.409-2489.170  0.00  0.00     0.243 C 
ATOM    122  CD  PRO d   3    2394.044 730.621-2489.255  0.00  0.00     0.127 C 
ATOM    123  O   ASN d   2    2396.559 733.039-2489.698  0.00  0.00    -0.271 OA
ATOM    124  CG  PRO d   3    2393.587 729.802-2490.465  0.00  0.00     0.022 C 
ATOM    125  CB  PRO d   3    2394.870 729.650-2491.295  0.00  0.00     0.037 C 
BRANCH 121 126
ATOM    126  CA  ASN d   2    2395.113 732.764-2487.801  0.00  0.00     0.185 C 
BRANCH 126 127
ATOM    127  N   ASN d   2    2393.653 732.803-2487.801  0.00  0.00    -0.346 N 
ATOM    128  C   GLU d   1    2393.049 733.589-2488.626  0.00  0.00     0.242 C 
ATOM    129  O   GLU d   1    2393.725 734.288-2489.395  0.00  0.00    -0.271 OA
ATOM    130  H   ASN d   2    2393.125 732.224-2487.165  0.00  0.00     0.163 HD
BRANCH 128 131
ATOM    131  CA  GLU d   1    2391.540 733.629-2488.626  0.00  0.00     0.191 C 
BRANCH 131 132
ATOM    132  N   GLU d   1    2390.981 732.280-2488.626  0.00  0.00    -0.326 NA
ATOM    133  H   GLU d   1    2391.608 731.401-2488.626  0.00  0.00     0.180 HD
ENDBRANCH 131 132
BRANCH 131 134
ATOM    134  CB  GLU d   1    2391.017 734.414-2487.390  0.00  0.00     0.047 C 
BRANCH 134 135
ATOM    135  CG  GLU d   1    2391.492 735.899-2487.279  0.00  0.00     0.116 C 
BRANCH 135 136
ATOM    136  CD  GLU d   1    2391.068 736.703-2486.063  0.00  0.00     0.172 C 
ATOM    137  OE1 GLU d   1    2390.340 736.201-2485.186  0.00  0.00    -0.648 OA
ATOM    138  OE2 GLU d   1    2391.498 737.873-2485.991  0.00  0.00    -0.648 OA
ENDBRANCH 135 136
ENDBRANCH 134 135
ENDBRANCH 131 134
ENDBRANCH 128 131
ENDBRANCH 126 127
BRANCH 126 139
ATOM    139  CB  ASN d   2    2395.604 731.741-2486.737  0.00  0.00     0.137 C 
BRANCH 139 140
ATOM    140  CG  ASN d   2    2395.141 731.965-2485.293  0.00  0.00     0.217 C 
ATOM    141  ND2 ASN d   2    2395.735 732.880-2484.575  0.00  0.00    -0.370 N 
ATOM    142 21HD ASN d   2    2395.254 733.053-2483.689  0.00  0.00     0.159 HD
ATOM    143 22HD ASN d   2    2396.437 733.452-2485.044  0.00  0.00     0.159 HD
ATOM    144  OD1 ASN d   2    2394.220 731.332-2484.799  0.00  0.00    -0.274 OA
ENDBRANCH 139 140
ENDBRANCH 126 139
ENDBRANCH 121 126
ENDBRANCH 116 119
ENDBRANCH 114 115
BRANCH 114 145
ATOM    145  CB  GLU d   4    2392.125 733.879-2493.095  0.00  0.00     0.045 C 
BRANCH 145 146
ATOM    146  CG  GLU d   4    2391.577 734.882-2494.161  0.00  0.00     0.116 C 
BRANCH 146 147
ATOM    147  CD  GLU d   4    2390.151 735.379-2494.018  0.00  0.00     0.172 C 
ATOM    148  OE1 GLU d   4    2389.424 734.981-2493.087  0.00  0.00    -0.648 OA
ATOM    149  OE2 GLU d   4    2389.762 736.208-2494.866  0.00  0.00    -0.648 OA
ENDBRANCH 146 147
ENDBRANCH 145 146
ENDBRANCH 114 145
ENDBRANCH 111 114
ENDBRANCH 109 110
BRANCH 109 150
ATOM    150  CB  SER d   5    2395.720 736.926-2490.551  0.00  0.00     0.199 C 
BRANCH 150 151
ATOM    151  OG  SER d   5    2396.451 736.046-2489.690  0.00  0.00    -0.398 OA
ATOM    152  HG  SER d   5    2395.962 735.222-2489.639  0.00  0.00     0.209 HD
ENDBRANCH 150 151
ENDBRANCH 109 150
ENDBRANCH 106 109
ENDBRANCH 104 105
BRANCH 104 153
ATOM    153  CB  ILE d   6    2399.485 733.373-2492.198  0.00  0.00     0.013 C 
ATOM    154  CG2 ILE d   6    2400.926 733.070-2492.713  0.00  0.00     0.012 C 
BRANCH 153 155
ATOM    155  CG1 ILE d   6    2399.503 733.310-2490.637  0.00  0.00     0.002 C 
ATOM    156  CD1 ILE d   6    2399.773 731.921-2490.022  0.00  0.00     0.005 C 
ENDBRANCH 153 155
ENDBRANCH 104 153
ENDBRANCH 101 104
ENDBRANCH  99 100
BRANCH  99 157
ATOM    157  CB  LEU d   7    2396.624 733.112-2496.818  0.00  0.00     0.038 C 
BRANCH 157 158
ATOM    158  CG  LEU d   7    2396.551 731.633-2496.352  0.00  0.00    -0.020 C 
ATOM    159  CD1 LEU d   7    2395.361 730.927-2497.017  0.00  0.00     0.009 C 
ATOM    160  CD2 LEU d   7    2397.844 730.853-2496.643  0.00  0.00     0.009 C 
ENDBRANCH 157 158
ENDBRANCH  99 157
ENDBRANCH  96  99
ENDBRANCH  94  95
BRANCH  94 161
ATOM    161  CB  ASP d   8    2395.771 738.398-2496.218  0.00  0.00     0.147 C 
BRANCH 161 162
ATOM    162  CG  ASP d   8    2395.553 739.818-2496.759  0.00  0.00     0.175 C 
ATOM    163  OD1 ASP d   8    2395.617 740.017-2497.990  0.00  0.00    -0.648 OA
ATOM    164  OD2 ASP d   8    2395.362 740.745-2495.945  0.00  0.00    -0.648 OA
ENDBRANCH 161 162
ENDBRANCH  94 161
ENDBRANCH  91  94
ENDBRANCH  89  90
BRANCH  89 165
ATOM    165  CB  GLU d   9    2400.812 738.637-2494.347  0.00  0.00     0.045 C 
BRANCH 165 166
ATOM    166  CG  GLU d   9    2402.196 739.329-2494.118  0.00  0.00     0.116 C 
BRANCH 166 167
ATOM    167  CD  GLU d   9    2402.897 739.116-2492.790  0.00  0.00     0.172 C 
ATOM    168  OE1 GLU d   9    2402.376 738.426-2491.893  0.00  0.00    -0.648 OA
ATOM    169  OE2 GLU d   9    2404.017 739.653-2492.659  0.00  0.00    -0.648 OA
ENDBRANCH 166 167
ENDBRANCH 165 166
ENDBRANCH  89 165
ENDBRANCH   1  89
TORSDOF 67
