@<TRIPOS>MOLECULE
11-1
259 260 16              
SMALL
USER_CHARGES
@<TRIPOS>ATOM
1	   N	1681.392	501.595	-1715.799	N.3	1	GLU1	-0.516	
2	  CA	1681.951	502.944	-1715.799	C.3	1	GLU1	0.040	
3	   C	1683.460	502.904	-1715.799	C.2	1	GLU1	0.537	
4	   O	1684.135	503.603	-1716.567	O.2	1	GLU1	-0.582	
5	  CB	1681.428	503.729	-1714.562	C.3	1	GLU1	0.056	
6	  CG	1681.903	505.214	-1714.451	C.3	1	GLU1	0.014	
7	  CD	1681.479	506.018	-1713.236	C.2	1	GLU1	0.805	
8	 OE1	1680.751	505.516	-1712.358	O.co2	1	GLU1	-0.819	
9	 OE2	1681.909	507.188	-1713.164	O.co2	1	GLU1	-0.819	
10	   H	1682.019	500.716	-1715.799	 H	1	GLU1	0.294	
11	  HA	1681.625	503.462	-1716.719	 H	1	GLU1	0.111	
12	 2HB	1681.717	503.198	-1713.632	 H	1	GLU1	-0.017	
13	 3HB	1680.321	503.719	-1714.549	 H	1	GLU1	-0.017	
14	 2HG	1681.593	505.799	-1715.332	 H	1	GLU1	-0.043	
15	 3HG	1683.003	505.281	-1714.422	 H	1	GLU1	-0.043	
16	   N	1684.064	502.118	-1714.974	N.am	2	ASN2	-0.416	
17	  CA	1685.524	502.080	-1714.974	C.3	2	ASN2	0.014	
18	   C	1686.055	501.724	-1716.342	C.2	2	ASN2	0.597	
19	   O	1686.969	502.355	-1716.871	O.2	2	ASN2	-0.568	
20	  CB	1686.016	501.057	-1713.909	C.3	2	ASN2	-0.204	
21	  CG	1685.553	501.281	-1712.466	C.2	2	ASN2	0.713	
22	 ND2	1686.147	502.195	-1711.748	N.pl3	2	ASN2	-0.919	
23	 OD1	1684.632	500.647	-1711.972	O.2	2	ASN2	-0.593	
24	   H	1683.536	501.539	-1714.337	 H	2	ASN2	0.272	
25	  HA	1685.901	503.090	-1714.728	 H	2	ASN2	0.105	
26	 2HB	1687.120	500.998	-1713.913	 H	2	ASN2	0.080	
27	 3HB	1685.687	500.039	-1714.195	 H	2	ASN2	0.080	
28	1HD2	1685.666	502.368	-1710.861	 H	2	ASN2	0.420	
29	2HD2	1686.848	502.767	-1712.217	 H	2	ASN2	0.420	
30	   N	1685.533	500.729	-1716.976	N.am	3	PRO3	-0.255	
31	  CA	1685.985	500.320	-1718.298	C.3	3	PRO3	-0.027	
32	   C	1685.587	501.343	-1719.375	C.2	3	PRO3	0.590	
33	   O	1686.410	501.726	-1720.206	O.2	3	PRO3	-0.575	
34	  CB	1685.281	498.965	-1718.467	C.3	3	PRO3	-0.007	
35	  CG	1683.998	499.117	-1717.637	C.3	3	PRO3	0.019	
36	  CD	1684.455	499.936	-1716.427	C.3	3	PRO3	0.019	
37	  HA	1687.071	500.200	-1718.312	 H	3	PRO3	0.064	
38	 2HB	1685.904	498.184	-1718.026	 H	3	PRO3	0.025	
39	 3HB	1685.083	498.716	-1719.513	 H	3	PRO3	0.025	
40	 2HG	1683.570	498.155	-1717.346	 H	3	PRO3	0.021	
41	 3HG	1683.260	499.688	-1718.204	 H	3	PRO3	0.021	
42	 2HD	1684.845	499.286	-1715.640	 H	3	PRO3	0.039	
43	 3HD	1683.659	500.572	-1716.034	 H	3	PRO3	0.039	
44	   N	1684.382	501.803	-1719.407	N.am	4	GLU4	-0.516	
45	  CA	1684.022	502.774	-1720.437	C.3	4	GLU4	0.040	
46	   C	1684.921	503.986	-1720.375	C.2	4	GLU4	0.537	
47	   O	1685.447	504.465	-1721.390	O.2	4	GLU4	-0.582	
48	  CB	1682.534	503.193	-1720.266	C.3	4	GLU4	0.056	
49	  CG	1681.985	504.197	-1721.332	C.3	4	GLU4	0.014	
50	  CD	1680.559	504.693	-1721.188	C.2	4	GLU4	0.805	
51	 OE1	1679.833	504.295	-1720.257	O.co2	4	GLU4	-0.819	
52	 OE2	1680.169	505.522	-1722.036	O.co2	4	GLU4	-0.819	
53	   H	1683.698	501.496	-1718.730	 H	4	GLU4	0.294	
54	  HA	1684.153	502.304	-1721.428	 H	4	GLU4	0.111	
55	 2HB	1682.381	503.633	-1719.259	 H	4	GLU4	-0.017	
56	 3HB	1681.886	502.295	-1720.272	 H	4	GLU4	-0.017	
57	 2HG	1682.067	503.782	-1722.349	 H	4	GLU4	-0.043	
58	 3HG	1682.573	505.129	-1721.343	 H	4	GLU4	-0.043	
59	   N	1685.149	504.538	-1719.232	N.am	5	SER5	-0.416	
60	  CA	1686.018	505.710	-1719.174	C.3	5	SER5	-0.025	
61	   C	1687.377	505.404	-1719.760	C.2	5	SER5	0.597	
62	   O	1687.924	506.158	-1720.565	O.2	5	SER5	-0.568	
63	  CB	1686.130	506.242	-1717.723	C.3	5	SER5	0.212	
64	  OG	1686.862	505.362	-1716.863	O.3	5	SER5	-0.655	
65	   H	1684.732	504.167	-1718.391	 H	5	SER5	0.272	
66	  HA	1685.568	506.500	-1719.803	 H	5	SER5	0.084	
67	 2HB	1685.130	506.435	-1717.290	 H	5	SER5	0.035	
68	 3HB	1686.635	507.227	-1717.726	 H	5	SER5	0.035	
69	  HG	1686.373	504.537	-1716.812	 H	5	SER5	0.428	
70	   N	1687.982	504.321	-1719.406	N.am	6	ILE6	-0.416	
71	  CA	1689.295	504.026	-1719.972	C.3	6	ILE6	-0.060	
72	   C	1689.237	503.989	-1721.480	C.2	6	ILE6	0.597	
73	   O	1690.072	504.577	-1722.184	O.2	6	ILE6	-0.568	
74	  CB	1689.894	502.690	-1719.372	C.3	6	ILE6	0.130	
75	 CG1	1689.914	502.628	-1717.811	C.3	6	ILE6	-0.043	
76	 CG2	1691.336	502.389	-1719.888	C.3	6	ILE6	-0.320	
77	 CD1	1690.184	501.239	-1717.197	C.3	6	ILE6	-0.066	
78	   H	1687.553	503.687	-1718.747	 H	6	ILE6	0.272	
79	  HA	1689.969	504.861	-1719.704	 H	6	ILE6	0.087	
80	  HB	1689.237	501.864	-1719.717	 H	6	ILE6	0.019	
81	2HG1	1688.932	502.948	-1717.416	 H	6	ILE6	0.024	
82	3HG1	1690.630	503.370	-1717.407	 H	6	ILE6	0.024	
83	1HG2	1691.395	502.295	-1720.986	 H	6	ILE6	0.088	
84	2HG2	1692.058	503.171	-1719.586	 H	6	ILE6	0.088	
85	3HG2	1691.726	501.427	-1719.509	 H	6	ILE6	0.088	
86	1HD1	1689.456	500.484	-1717.551	 H	6	ILE6	0.019	
87	2HD1	1691.195	500.860	-1717.432	 H	6	ILE6	0.019	
88	3HD1	1690.108	501.268	-1716.094	 H	6	ILE6	0.019	
89	   N	1688.291	503.326	-1722.054	N.am	7	LEU7	-0.416	
90	  CA	1688.236	503.290	-1723.512	C.3	7	LEU7	-0.052	
91	   C	1688.164	504.685	-1724.084	C.2	7	LEU7	0.597	
92	   O	1688.884	505.048	-1725.026	O.2	7	LEU7	-0.568	
93	  CB	1687.033	502.429	-1723.993	C.3	7	LEU7	-0.110	
94	  CG	1686.961	500.950	-1723.526	C.3	7	LEU7	0.353	
95	 CD1	1685.771	500.244	-1724.192	C.3	7	LEU7	-0.412	
96	 CD2	1688.254	500.171	-1723.818	C.3	7	LEU7	-0.412	
97	   H	1687.599	502.838	-1721.502	 H	7	LEU7	0.272	
98	  HA	1689.178	502.850	-1723.887	 H	7	LEU7	0.092	
99	 2HB	1687.010	502.446	-1725.100	 H	7	LEU7	0.046	
100	 3HB	1686.094	502.932	-1723.688	 H	7	LEU7	0.046	
101	  HG	1686.791	500.942	-1722.429	 H	7	LEU7	-0.036	
102	1HD1	1684.813	500.753	-1723.969	 H	7	LEU7	0.100	
103	2HD1	1685.870	500.204	-1725.293	 H	7	LEU7	0.100	
104	3HD1	1685.664	499.203	-1723.836	 H	7	LEU7	0.100	
105	1HD2	1688.529	500.202	-1724.888	 H	7	LEU7	0.100	
106	2HD2	1689.108	500.583	-1723.247	 H	7	LEU7	0.100	
107	3HD2	1688.173	499.109	-1723.522	 H	7	LEU7	0.100	
108	   N	1687.327	505.526	-1723.578	N.am	8	ASP8	-0.516	
109	  CA	1687.256	506.875	-1724.131	C.3	8	ASP8	0.038	
110	   C	1688.603	507.555	-1724.073	C.2	8	ASP8	0.537	
111	   O	1689.075	508.161	-1725.048	O.2	8	ASP8	-0.582	
112	  CB	1686.178	507.714	-1723.389	C.3	8	ASP8	-0.030	
113	  CG	1685.959	509.135	-1723.929	C.2	8	ASP8	0.799	
114	 OD1	1686.023	509.334	-1725.159	O.co2	8	ASP8	-0.801	
115	 OD2	1685.767	510.061	-1723.113	O.co2	8	ASP8	-0.801	
116	   H	1686.729	505.254	-1722.810	 H	8	ASP8	0.294	
117	  HA	1686.973	506.798	-1725.198	 H	8	ASP8	0.088	
118	 2HB	1686.435	507.797	-1722.317	 H	8	ASP8	-0.012	
119	 3HB	1685.199	507.209	-1723.422	 H	8	ASP8	-0.012	
120	   N	1689.282	507.505	-1722.978	N.am	9	GLU9	-0.516	
121	  CA	1690.585	508.163	-1722.923	C.3	9	GLU9	0.040	
122	   C	1691.503	507.636	-1723.999	C.2	9	GLU9	0.537	
123	   O	1692.167	508.390	-1724.724	O.2	9	GLU9	-0.582	
124	  CB	1691.219	507.955	-1721.517	C.3	9	GLU9	0.056	
125	  CG	1692.601	508.647	-1721.288	C.3	9	GLU9	0.014	
126	  CD	1693.303	508.433	-1719.960	C.2	9	GLU9	0.805	
127	 OE1	1692.782	507.742	-1719.064	O.co2	9	GLU9	-0.819	
128	 OE2	1694.422	508.971	-1719.828	O.co2	9	GLU9	-0.819	
129	   H	1688.919	507.018	-1722.171	 H	9	GLU9	0.294	
130	  HA	1690.443	509.245	-1723.098	 H	9	GLU9	0.111	
131	 2HB	1691.332	506.870	-1721.315	 H	9	GLU9	-0.017	
132	 3HB	1690.522	508.308	-1720.733	 H	9	GLU9	-0.017	
133	 2HG	1692.529	509.738	-1721.427	 H	9	GLU9	-0.043	
134	 3HG	1693.348	508.302	-1722.022	 H	9	GLU9	-0.043	
135	   N	1691.600	506.361	-1724.169	N.am	10	HIS10	-0.416	
136	  CA	1692.487	505.850	-1725.210	C.3	10	HIS10	-0.058	
137	   C	1692.120	506.415	-1726.561	C.2	10	HIS10	0.597	
138	   O	1692.973	506.880	-1727.332	O.2	10	HIS10	-0.568	
139	  CB	1692.323	504.321	-1725.206	C.3	10	HIS10	-0.007	
140	  CG	1693.609	503.610	-1724.899	C.2	10	HIS10	0.187	
141	 CD2	1693.990	503.274	-1723.606	C.2	10	HIS10	-0.221	
142	 ND1	1694.561	503.205	-1725.832	N.2	10	HIS10	-0.543	
143	 CE1	1695.467	502.646	-1725.009	C.2	10	HIS10	0.163	
144	 NE2	1695.205	502.643	-1723.673	N.pl3	10	HIS10	-0.280	
145	   H	1691.069	505.725	-1723.591	 H	10	HIS10	0.272	
146	  HA	1693.507	506.207	-1724.985	 H	10	HIS10	0.136	
147	 2HB	1691.958	503.955	-1726.186	 H	10	HIS10	0.037	
148	 3HB	1691.568	503.983	-1724.466	 H	10	HIS10	0.037	
149	 2HD	1693.404	503.489	-1722.717	 H	10	HIS10	0.186	
150	 1HE	1696.358	502.225	-1725.456	 H	10	HIS10	0.144	
151	 2HE	1695.771	502.265	-1722.901	 H	10	HIS10	0.334	
152	   N	1690.882	506.414	-1726.924	N.am	11	ALA11	-0.416	
153	  CA	1690.528	506.961	-1728.230	C.3	11	ALA11	0.034	
154	   C	1690.993	508.392	-1728.361	C.2	11	ALA11	0.597	
155	   O	1691.594	508.797	-1729.364	O.2	11	ALA11	-0.568	
156	  CB	1689.007	506.811	-1728.402	C.3	11	ALA11	-0.183	
157	   H	1690.169	506.041	-1726.313	 H	11	ALA11	0.272	
158	  HA	1691.047	506.375	-1729.011	 H	11	ALA11	0.082	
159	 1HB	1688.689	505.752	-1728.340	 H	11	ALA11	0.060	
160	 2HB	1688.443	507.363	-1727.625	 H	11	ALA11	0.060	
161	 3HB	1688.664	507.188	-1729.382	 H	11	ALA11	0.060	
162	   N	1690.755	509.217	-1727.399	N.am	12	GLN12	-0.416	
163	  CA	1691.204	510.600	-1727.525	C.3	12	GLN12	-0.003	
164	   C	1692.694	510.667	-1727.762	C.2	12	GLN12	0.597	
165	   O	1693.182	511.376	-1728.640	O.2	12	GLN12	-0.568	
166	  CB	1690.813	511.367	-1726.242	C.3	12	GLN12	-0.004	
167	  CG	1691.174	512.888	-1726.209	C.3	12	GLN12	-0.064	
168	  CD	1690.871	513.701	-1724.944	C.2	12	GLN12	0.695	
169	 NE2	1690.303	513.124	-1723.916	N.pl3	12	GLN12	-0.941	
170	 OE1	1691.173	514.882	-1724.866	O.2	12	GLN12	-0.609	
171	   H	1690.266	508.910	-1726.570	 H	12	GLN12	0.272	
172	  HA	1690.705	511.057	-1728.400	 H	12	GLN12	0.085	
173	 2HB	1691.289	510.866	-1725.372	 H	12	GLN12	0.017	
174	 3HB	1689.723	511.259	-1726.079	 H	12	GLN12	0.017	
175	 2HG	1690.697	513.410	-1727.060	 H	12	GLN12	0.035	
176	 3HG	1692.257	513.030	-1726.375	 H	12	GLN12	0.035	
177	1HE2	1690.196	513.718	-1723.092	 H	12	GLN12	0.425	
178	2HE2	1690.140	512.121	-1724.020	 H	12	GLN12	0.425	
179	   N	1693.478	509.959	-1727.021	N.am	13	ARG13	-0.348	
180	  CA	1694.919	510.025	-1727.251	C.3	13	ARG13	-0.264	
181	   C	1695.255	509.654	-1728.676	C.2	13	ARG13	0.734	
182	   O	1696.025	510.326	-1729.359	O.2	13	ARG13	-0.589	
183	  CB	1695.631	509.085	-1726.237	C.3	13	ARG13	-0.001	
184	  CG	1697.176	509.238	-1726.156	C.3	13	ARG13	0.039	
185	  CD	1697.802	508.249	-1725.158	C.3	13	ARG13	0.049	
186	  NE	1699.280	508.456	-1725.107	N.pl3	13	ARG13	-0.530	
187	  CZ	1700.127	507.764	-1724.352	C.cat	13	ARG13	0.808	
188	 NH1	1699.762	506.799	-1723.555	N.pl3	13	ARG13	-0.863	
189	 NH2	1701.387	508.063	-1724.408	N.pl3	13	ARG13	-0.863	
190	   H	1693.102	509.369	-1726.293	 H	13	ARG13	0.275	
191	  HA	1695.243	511.071	-1727.092	 H	13	ARG13	0.156	
192	 2HB	1695.365	508.035	-1726.477	 H	13	ARG13	0.033	
193	 3HB	1695.206	509.251	-1725.227	 H	13	ARG13	0.033	
194	 2HG	1697.424	510.282	-1725.875	 H	13	ARG13	0.029	
195	 3HG	1697.627	509.082	-1727.157	 H	13	ARG13	0.029	
196	 2HD	1697.558	507.210	-1725.468	 H	13	ARG13	0.069	
197	 3HD	1697.346	508.395	-1724.156	 H	13	ARG13	0.069	
198	  HE	1699.731	509.179	-1725.677	 H	13	ARG13	0.346	
199	1HH1	1698.756	506.613	-1723.559	 H	13	ARG13	0.448	
200	2HH1	1700.474	506.316	-1723.006	 H	13	ARG13	0.448	
201	1HH2	1701.655	508.821	-1725.038	 H	13	ARG13	0.448	
202	2HH2	1702.022	507.521	-1723.819	 H	13	ARG13	0.448	
203	   N	1694.719	508.600	-1729.192	N.am	14	VAL14	-0.416	
204	  CA	1695.045	508.242	-1730.569	C.3	14	VAL14	-0.087	
205	   C	1694.715	509.372	-1731.514	C.2	14	VAL14	0.597	
206	   O	1695.510	509.754	-1732.383	O.2	14	VAL14	-0.568	
207	  CB	1694.272	506.925	-1730.977	C.3	14	VAL14	0.299	
208	 CG1	1694.362	506.508	-1732.471	C.3	14	VAL14	-0.319	
209	 CG2	1694.703	505.672	-1730.177	C.3	14	VAL14	-0.319	
210	   H	1694.084	508.032	-1728.650	 H	14	VAL14	0.272	
211	  HA	1696.133	508.065	-1730.643	 H	14	VAL14	0.097	
212	  HB	1693.196	507.096	-1730.762	 H	14	VAL14	-0.030	
213	1HG1	1695.403	506.330	-1732.799	 H	14	VAL14	0.079	
214	2HG1	1693.789	505.585	-1732.684	 H	14	VAL14	0.079	
215	3HG1	1693.933	507.270	-1733.149	 H	14	VAL14	0.079	
216	1HG2	1694.616	505.830	-1729.087	 H	14	VAL14	0.079	
217	2HG2	1694.067	504.796	-1730.411	 H	14	VAL14	0.079	
218	3HG2	1695.751	505.382	-1730.383	 H	14	VAL14	0.079	
219	   N	1693.571	509.959	-1731.413	N.am	15	MET15	-0.416	
220	  CA	1693.251	511.052	-1732.326	C.3	15	MET15	-0.024	
221	   C	1694.282	512.151	-1732.237	C.2	15	MET15	0.597	
222	   O	1694.785	512.662	-1733.250	O.2	15	MET15	-0.568	
223	  CB	1691.830	511.598	-1732.018	C.3	15	MET15	0.034	
224	  CG	1690.668	510.600	-1732.211	C.3	15	MET15	0.002	
225	  SD	1689.094	511.467	-1732.097	S.3	15	MET15	-0.274	
226	  CE	1688.012	510.038	-1731.961	C.3	15	MET15	-0.054	
227	   H	1692.906	509.666	-1730.712	 H	15	MET15	0.272	
228	  HA	1693.278	510.665	-1733.362	 H	15	MET15	0.088	
229	 2HB	1691.628	512.477	-1732.660	 H	15	MET15	0.024	
230	 3HB	1691.794	511.990	-1730.981	 H	15	MET15	0.024	
231	 2HG	1690.710	509.814	-1731.433	 H	15	MET15	0.044	
232	 3HG	1690.731	510.086	-1733.187	 H	15	MET15	0.044	
233	 1HE	1688.156	509.350	-1732.814	 H	15	MET15	0.068	
234	 2HE	1688.221	509.484	-1731.029	 H	15	MET15	0.068	
235	 3HE	1686.955	510.353	-1731.945	 H	15	MET15	0.068	
236	   N	1694.651	512.571	-1731.075	N.am	16	ARG16	-0.348	
237	  CA	1695.648	513.635	-1730.990	C.3	16	ARG16	-0.264	
238	   C	1696.918	513.242	-1731.706	C.2	16	ARG16	0.734	
239	   O	1697.032	512.165	-1732.288	O.2	16	ARG16	-0.589	
240	  CB	1695.916	513.952	-1729.492	C.3	16	ARG16	-0.001	
241	  CG	1696.742	515.240	-1729.218	C.3	16	ARG16	0.039	
242	  CD	1696.992	515.459	-1727.717	C.3	16	ARG16	0.049	
243	  NE	1697.768	516.717	-1727.515	N.pl3	16	ARG16	-0.530	
244	  CZ	1698.160	517.199	-1726.339	C.cat	16	ARG16	0.808	
245	 NH1	1697.911	516.614	-1725.201	N.pl3	16	ARG16	-0.863	
246	 NH2	1698.824	518.311	-1726.320	N.pl3	16	ARG16	-0.863	
247	   H	1694.255	512.171	-1730.236	 H	16	ARG16	0.275	
248	  HA	1695.239	514.528	-1731.500	 H	16	ARG16	0.156	
249	 2HB	1696.413	513.075	-1729.026	 H	16	ARG16	0.033	
250	 3HB	1694.948	514.033	-1728.958	 H	16	ARG16	0.033	
251	 2HG	1696.213	516.112	-1729.655	 H	16	ARG16	0.029	
252	 3HG	1697.716	515.187	-1729.747	 H	16	ARG16	0.029	
253	 2HD	1697.540	514.584	-1727.304	 H	16	ARG16	0.069	
254	 3HD	1696.019	515.502	-1727.182	 H	16	ARG16	0.069	
255	  HE	1698.047	517.298	-1728.312	 H	16	ARG16	0.346	
256	1HH1	1697.385	515.741	-1725.286	 H	16	ARG16	0.448	
257	2HH1	1698.246	517.049	-1724.339	 H	16	ARG16	0.448	
258	1HH2	1699.010	518.754	-1727.221	 H	16	ARG16	0.448	
259	2HH2	1699.115	518.665	-1725.407	 H	16	ARG16	0.448	
@<TRIPOS>BOND
1 1 2 1
2 1 10 1
3 2 3 1
4 2 5 1
5 2 11 1
6 3 4 2
7 3 16 1
8 5 6 1
9 6 7 1
10 7 8 2
11 7 9 1
12 5 12 1
13 5 13 1
14 6 14 1
15 6 15 1
16 16 17 1
17 16 24 1
18 17 18 1
19 17 20 1
20 17 25 1
21 18 19 2
22 18 30 1
23 20 21 1
24 21 22 1
25 21 23 2
26 20 26 1
27 20 27 1
28 22 28 1
29 22 29 1
30 30 31 1
31 30 36 1
32 31 32 1
33 31 34 1
34 31 37 1
35 32 33 2
36 32 44 1
37 34 35 1
38 35 36 1
39 34 38 1
40 34 39 1
41 35 40 1
42 35 41 1
43 36 42 1
44 36 43 1
45 44 45 1
46 44 53 1
47 45 46 1
48 45 48 1
49 45 54 1
50 46 47 2
51 46 59 1
52 48 49 1
53 49 50 1
54 50 51 2
55 50 52 1
56 48 55 1
57 48 56 1
58 49 57 1
59 49 58 1
60 59 60 1
61 59 65 1
62 60 61 1
63 60 63 1
64 60 66 1
65 61 62 2
66 61 70 1
67 63 64 1
68 63 67 1
69 63 68 1
70 64 69 1
71 70 71 1
72 70 78 1
73 71 72 1
74 71 74 1
75 71 79 1
76 72 73 2
77 72 89 1
78 74 75 1
79 74 76 1
80 75 77 1
81 74 80 1
82 75 81 1
83 75 82 1
84 76 83 1
85 76 84 1
86 76 85 1
87 77 86 1
88 77 87 1
89 77 88 1
90 89 90 1
91 89 97 1
92 90 91 1
93 90 93 1
94 90 98 1
95 91 92 2
96 91 108 1
97 93 94 1
98 94 95 1
99 94 96 1
100 93 99 1
101 93 100 1
102 94 101 1
103 95 102 1
104 95 103 1
105 95 104 1
106 96 105 1
107 96 106 1
108 96 107 1
109 108 109 1
110 108 116 1
111 109 110 1
112 109 112 1
113 109 117 1
114 110 111 2
115 110 120 1
116 112 113 1
117 113 114 2
118 113 115 1
119 112 118 1
120 112 119 1
121 120 121 1
122 120 129 1
123 121 122 1
124 121 124 1
125 121 130 1
126 122 123 2
127 122 135 1
128 124 125 1
129 125 126 1
130 126 127 2
131 126 128 1
132 124 131 1
133 124 132 1
134 125 133 1
135 125 134 1
136 135 136 1
137 135 145 1
138 136 137 1
139 136 139 1
140 136 146 1
141 137 138 2
142 137 152 1
143 139 140 1
144 140 141 2
145 141 144 1
146 140 142 1
147 142 143 2
148 143 144 1
149 139 147 1
150 139 148 1
151 141 149 1
152 143 150 1
153 144 151 1
154 152 153 1
155 152 157 1
156 153 154 1
157 153 156 1
158 153 158 1
159 154 155 2
160 154 162 1
161 156 159 1
162 156 160 1
163 156 161 1
164 162 163 1
165 162 171 1
166 163 164 1
167 163 166 1
168 163 172 1
169 164 165 2
170 164 179 1
171 166 167 1
172 167 168 1
173 168 169 1
174 168 170 2
175 166 173 1
176 166 174 1
177 167 175 1
178 167 176 1
179 169 177 1
180 169 178 1
181 179 180 1
182 179 190 1
183 180 181 1
184 180 183 1
185 180 191 1
186 181 182 2
187 181 203 1
188 183 184 1
189 184 185 1
190 185 186 1
191 186 187 1
192 187 188 2
193 187 189 1
194 183 192 1
195 183 193 1
196 184 194 1
197 184 195 1
198 185 196 1
199 185 197 1
200 186 198 1
201 188 199 1
202 188 200 1
203 189 201 1
204 189 202 1
205 203 204 1
206 203 210 1
207 204 205 1
208 204 207 1
209 204 211 1
210 205 206 2
211 205 219 1
212 207 208 1
213 207 209 1
214 207 212 1
215 208 213 1
216 208 214 1
217 208 215 1
218 209 216 1
219 209 217 1
220 209 218 1
221 219 220 1
222 219 227 1
223 220 221 1
224 220 223 1
225 220 228 1
226 221 222 2
227 221 236 1
228 223 224 1
229 224 225 1
230 225 226 1
231 223 229 1
232 223 230 1
233 224 231 1
234 224 232 1
235 226 233 1
236 226 234 1
237 226 235 1
238 236 237 1
239 236 247 1
240 237 238 1
241 237 240 1
242 237 248 1
243 238 239 2
244 240 241 1
245 241 242 1
246 242 243 1
247 243 244 1
248 244 245 2
249 244 246 1
250 240 249 1
251 240 250 1
252 241 251 1
253 241 252 1
254 242 253 1
255 242 254 1
256 243 255 1
257 245 256 1
258 245 257 1
259 246 258 1
260 246 259 1
@<TRIPOS>SUBSTRUCTURE
1	GLU1	1	RESIDUE	1 ****	GLU
2	ASN2	16	RESIDUE	1 ****	ASN
3	PRO3	30	RESIDUE	1 ****	PRO
4	GLU4	44	RESIDUE	1 ****	GLU
5	SER5	59	RESIDUE	1 ****	SER
6	ILE6	70	RESIDUE	1 ****	ILE
7	LEU7	89	RESIDUE	1 ****	LEU
8	ASP8	108	RESIDUE	1 ****	ASP
9	GLU9	120	RESIDUE	1 ****	GLU
10	HIS10	135	RESIDUE	1 ****	HIS
11	ALA11	152	RESIDUE	1 ****	ALA
12	GLN12	162	RESIDUE	1 ****	GLN
13	ARG13	179	RESIDUE	1 ****	ARG
14	VAL14	203	RESIDUE	1 ****	VAL
15	MET15	219	RESIDUE	1 ****	MET
16	ARG16	236	RESIDUE	1 ****	ARG
