REMARK WARNING: 32 MAX_TORS EXCEEDED!!!
REMARK  68 active torsions:
REMARK  status: ('A' for Active; 'I' for Inactive)
REMARK    1  A    between atoms: N_1  and  CA_2 
REMARK    2  A    between atoms: CA_2  and  C_3 
REMARK    3  A    between atoms: CA_2  and  CB_5 
REMARK       I    between atoms: C_3  and  N_11 
REMARK    4  A    between atoms: CB_5  and  CG_6 
REMARK    5  A    between atoms: CG_6  and  CD_7 
REMARK    6  A    between atoms: N_11  and  CA_12 
REMARK    7  A    between atoms: CA_12  and  C_13 
REMARK    8  A    between atoms: CA_12  and  CB_15 
REMARK       I    between atoms: C_13  and  N_22 
REMARK    9  A    between atoms: CB_15  and  CG_16 
REMARK       I    between atoms: CG_16  and  ND2_17 
REMARK   10  A    between atoms: CA_23  and  C_24 
REMARK       I    between atoms: C_24  and  N_29 
REMARK   11  A    between atoms: N_29  and  CA_30 
REMARK   12  A    between atoms: CA_30  and  C_31 
REMARK   13  A    between atoms: CA_30  and  CB_33 
REMARK       I    between atoms: C_31  and  N_39 
REMARK   14  A    between atoms: CB_33  and  CG_34 
REMARK   15  A    between atoms: CG_34  and  CD_35 
REMARK   16  A    between atoms: N_39  and  CA_40 
REMARK   17  A    between atoms: CA_40  and  C_41 
REMARK   18  A    between atoms: CA_40  and  CB_43 
REMARK       I    between atoms: C_41  and  N_47 
REMARK   19  A    between atoms: CB_43  and  OG_44 
REMARK   20  A    between atoms: N_47  and  CA_48 
REMARK   21  A    between atoms: CA_48  and  C_49 
REMARK   22  A    between atoms: CA_48  and  CB_51 
REMARK       I    between atoms: C_49  and  N_56 
REMARK   23  A    between atoms: CB_51  and  CG1_52 
REMARK   24  A    between atoms: N_56  and  CA_57 
REMARK   25  A    between atoms: CA_57  and  C_58 
REMARK   26  A    between atoms: CA_57  and  CB_60 
REMARK       I    between atoms: C_58  and  N_68 
REMARK   27  A    between atoms: CB_60  and  CG_61 
REMARK   28  A    between atoms: N_68  and  CA_69 
REMARK   29  A    between atoms: CA_69  and  C_70 
REMARK   30  A    between atoms: CA_69  and  CB_72 
REMARK       I    between atoms: C_70  and  N_77 
REMARK   31  A    between atoms: CB_72  and  CG_73 
REMARK   32  A    between atoms: N_77  and  CA_78 
REMARK   33  A    between atoms: CA_78  and  C_79 
REMARK   34  A    between atoms: CA_78  and  CB_81 
REMARK       I    between atoms: C_79  and  N_87 
REMARK   35  A    between atoms: CB_81  and  CG_82 
REMARK   36  A    between atoms: CG_82  and  CD_83 
REMARK   37  A    between atoms: N_87  and  CA_88 
REMARK   38  A    between atoms: CA_88  and  C_89 
REMARK   39  A    between atoms: CA_88  and  CB_91 
REMARK       I    between atoms: C_89  and  N_99 
REMARK   40  A    between atoms: CB_91  and  CG_92 
REMARK   41  A    between atoms: N_99  and  CA_100 
REMARK   42  A    between atoms: CA_100  and  C_101 
REMARK   43  A    between atoms: CA_100  and  CB_103 
REMARK       I    between atoms: C_101  and  N_107 
REMARK   44  A    between atoms: N_107  and  CA_108 
REMARK   45  A    between atoms: CA_108  and  C_109 
REMARK   46  A    between atoms: CA_108  and  CB_111 
REMARK       I    between atoms: C_109  and  N_119 
REMARK   47  A    between atoms: CB_111  and  CG_112 
REMARK   48  A    between atoms: CG_112  and  CD_113 
REMARK       I    between atoms: CD_113  and  NE2_114 
REMARK   49  A    between atoms: N_119  and  CA_120 
REMARK   50  A    between atoms: CA_120  and  C_121 
REMARK   51  A    between atoms: CA_120  and  CB_123 
REMARK       I    between atoms: C_121  and  N_136 
REMARK   52  A    between atoms: CB_123  and  CG_124 
REMARK   53  A    between atoms: CG_124  and  CD_125 
REMARK   54  A    between atoms: CD_125  and  NE_126 
REMARK       I    between atoms: NE_126  and  CZ_127 
REMARK       I    between atoms: CZ_127  and  NH1_128 
REMARK       I    between atoms: CZ_127  and  NH2_129 
REMARK   55  A    between atoms: N_136  and  CA_137 
REMARK   56  A    between atoms: CA_137  and  C_138 
REMARK   57  A    between atoms: CA_137  and  CB_140 
REMARK       I    between atoms: C_138  and  N_144 
REMARK   58  A    between atoms: N_144  and  CA_145 
REMARK   59  A    between atoms: CA_145  and  C_146 
REMARK   60  A    between atoms: CA_145  and  CB_148 
REMARK       I    between atoms: C_146  and  N_153 
REMARK   61  A    between atoms: CB_148  and  CG_149 
REMARK   62  A    between atoms: CG_149  and  SD_150 
REMARK   63  A    between atoms: N_153  and  CA_154 
REMARK   64  A    between atoms: CA_154  and  C_155 
REMARK   65  A    between atoms: CA_154  and  CB_157 
REMARK   66  A    between atoms: CB_157  and  CG_158 
REMARK   67  A    between atoms: CG_158  and  CD_159 
REMARK   68  A    between atoms: CD_159  and  NE_160 
REMARK       I    between atoms: NE_160  and  CZ_161 
REMARK       I    between atoms: CZ_161  and  NH1_162 
ROOT
ATOM      1  C   GLU d   9    1092.721 310.959-1075.256  0.00  0.00     0.241 C 
ATOM      2  O   GLU d   9    1093.385 311.712-1075.984  0.00  0.00    -0.271 OA
ATOM      3  N   HIS d  10    1092.817 309.684-1075.423  0.00  0.00    -0.346 N 
ATOM      4  H   HIS d  10    1092.286 309.050-1074.843  0.00  0.00     0.163 HD
ENDROOT
BRANCH   1   5
ATOM      5  CA  GLU d   9    1091.803 311.490-1074.182  0.00  0.00     0.177 C 
BRANCH   5   6
ATOM      6  N   GLU d   9    1090.500 310.833-1074.235  0.00  0.00    -0.346 N 
ATOM      7  C   ASP d   8    1089.820 310.880-1075.330  0.00  0.00     0.241 C 
ATOM      8  O   ASP d   8    1090.293 311.483-1076.306  0.00  0.00    -0.271 OA
ATOM      9  H   GLU d   9    1090.136 310.348-1073.427  0.00  0.00     0.163 HD
BRANCH   7  10
ATOM     10  CA  ASP d   8    1088.473 310.201-1075.386  0.00  0.00     0.186 C 
BRANCH  10  11
ATOM     11  N   ASP d   8    1088.543 308.853-1074.829  0.00  0.00    -0.345 N 
ATOM     12  C   PHE d   7    1089.380 308.011-1075.334  0.00  0.00     0.241 C 
ATOM     13  O   PHE d   7    1090.114 308.376-1076.294  0.00  0.00    -0.271 OA
ATOM     14  H   ASP d   8    1087.945 308.584-1074.061  0.00  0.00     0.163 HD
BRANCH  12  15
ATOM     15  CA  PHE d   7    1089.452 306.616-1074.759  0.00  0.00     0.180 C 
BRANCH  15  16
ATOM     16  N   PHE d   7    1089.508 306.652-1073.301  0.00  0.00    -0.346 N 
ATOM     17  C   ILE d   6    1090.454 307.316-1072.727  0.00  0.00     0.241 C 
ATOM     18  O   ILE d   6    1091.289 307.904-1073.431  0.00  0.00    -0.271 OA
ATOM     19  H   PHE d   7    1088.816 306.165-1072.749  0.00  0.00     0.163 HD
BRANCH  17  20
ATOM     20  CA  ILE d   6    1090.511 307.353-1071.219  0.00  0.00     0.180 C 
BRANCH  20  21
ATOM     21  N   ILE d   6    1089.198 307.648-1070.653  0.00  0.00    -0.346 N 
ATOM     22  C   SER d   5    1088.593 308.731-1071.007  0.00  0.00     0.243 C 
ATOM     23  O   SER d   5    1089.140 309.485-1071.812  0.00  0.00    -0.271 OA
ATOM     24  H   ILE d   6    1088.770 307.014-1069.994  0.00  0.00     0.163 HD
BRANCH  22  25
ATOM     25  CA  SER d   5    1087.235 309.036-1070.421  0.00  0.00     0.200 C 
BRANCH  25  26
ATOM     26  N   SER d   5    1086.365 307.865-1070.479  0.00  0.00    -0.344 N 
ATOM     27  C   GLU d   4    1086.138 307.312-1071.623  0.00  0.00     0.241 C 
ATOM     28  O   GLU d   4    1086.664 307.792-1072.637  0.00  0.00    -0.271 OA
ATOM     29  H   SER d   5    1085.948 307.493-1069.638  0.00  0.00     0.163 HD
BRANCH  27  30
ATOM     30  CA  GLU d   4    1085.239 306.101-1071.684  0.00  0.00     0.177 C 
BRANCH  30  31
ATOM     31  N   GLU d   4    1085.599 305.130-1070.654  0.00  0.00    -0.346 N 
ATOM     32  C   PRO d   3    1086.803 304.670-1070.622  0.00  0.00     0.241 C 
ATOM     33  O   PRO d   3    1087.627 305.053-1071.453  0.00  0.00    -0.271 OA
ATOM     34  H   GLU d   4    1084.915 304.823-1069.977  0.00  0.00     0.163 HD
BRANCH  32  35
ATOM     35  CA  PRO d   3    1087.202 303.647-1069.545  0.00  0.00     0.179 C 
ATOM     36  N   PRO d   3    1086.750 304.056-1068.224  0.00  0.00    -0.337 N 
ATOM     37  C   ASN d   2    1087.271 305.051-1067.589  0.00  0.00     0.243 C 
ATOM     38  CD  PRO d   3    1085.672 303.263-1067.674  0.00  0.00     0.127 C 
ATOM     39  O   ASN d   2    1088.186 305.681-1068.118  0.00  0.00    -0.271 OA
ATOM     40  CG  PRO d   3    1085.214 302.444-1068.884  0.00  0.00     0.022 C 
ATOM     41  CB  PRO d   3    1086.497 302.292-1069.714  0.00  0.00     0.037 C 
BRANCH  37  42
ATOM     42  CA  ASN d   2    1086.740 305.407-1066.221  0.00  0.00     0.185 C 
BRANCH  42  43
ATOM     43  N   ASN d   2    1085.281 305.445-1066.221  0.00  0.00    -0.346 N 
ATOM     44  C   GLU d   1    1084.676 306.231-1067.046  0.00  0.00     0.242 C 
ATOM     45  O   GLU d   1    1085.352 306.930-1067.814  0.00  0.00    -0.271 OA
ATOM     46  H   ASN d   2    1084.753 304.866-1065.584  0.00  0.00     0.163 HD
BRANCH  44  47
ATOM     47  CA  GLU d   1    1083.167 306.271-1067.046  0.00  0.00     0.191 C 
BRANCH  47  48
ATOM     48  N   GLU d   1    1082.608 304.922-1067.046  0.00  0.00    -0.326 NA
ATOM     49  H   GLU d   1    1083.235 304.043-1067.046  0.00  0.00     0.180 HD
ENDBRANCH  47  48
BRANCH  47  50
ATOM     50  CB  GLU d   1    1082.644 307.056-1065.809  0.00  0.00     0.047 C 
BRANCH  50  51
ATOM     51  CG  GLU d   1    1083.119 308.541-1065.698  0.00  0.00     0.116 C 
BRANCH  51  52
ATOM     52  CD  GLU d   1    1082.695 309.345-1064.483  0.00  0.00     0.172 C 
ATOM     53  OE1 GLU d   1    1081.967 308.843-1063.605  0.00  0.00    -0.648 OA
ATOM     54  OE2 GLU d   1    1083.125 310.515-1064.411  0.00  0.00    -0.648 OA
ENDBRANCH  51  52
ENDBRANCH  50  51
ENDBRANCH  47  50
ENDBRANCH  44  47
ENDBRANCH  42  43
BRANCH  42  55
ATOM     55  CB  ASN d   2    1087.232 304.384-1065.156  0.00  0.00     0.137 C 
BRANCH  55  56
ATOM     56  CG  ASN d   2    1086.769 304.607-1063.713  0.00  0.00     0.217 C 
ATOM     57  ND2 ASN d   2    1087.363 305.522-1062.995  0.00  0.00    -0.370 N 
ATOM     58 21HD ASN d   2    1086.883 305.695-1062.108  0.00  0.00     0.159 HD
ATOM     59 22HD ASN d   2    1088.065 306.094-1063.464  0.00  0.00     0.159 HD
ATOM     60  OD1 ASN d   2    1085.849 303.974-1063.219  0.00  0.00    -0.274 OA
ENDBRANCH  55  56
ENDBRANCH  42  55
ENDBRANCH  37  42
ENDBRANCH  32  35
ENDBRANCH  30  31
BRANCH  30  61
ATOM     61  CB  GLU d   4    1083.750 306.520-1071.513  0.00  0.00     0.045 C 
BRANCH  61  62
ATOM     62  CG  GLU d   4    1083.202 307.523-1072.579  0.00  0.00     0.116 C 
BRANCH  62  63
ATOM     63  CD  GLU d   4    1081.775 308.020-1072.435  0.00  0.00     0.172 C 
ATOM     64  OE1 GLU d   4    1081.049 307.622-1071.504  0.00  0.00    -0.648 OA
ATOM     65  OE2 GLU d   4    1081.386 308.849-1073.283  0.00  0.00    -0.648 OA
ENDBRANCH  62  63
ENDBRANCH  61  62
ENDBRANCH  30  61
ENDBRANCH  27  30
ENDBRANCH  25  26
BRANCH  25  66
ATOM     66  CB  SER d   5    1087.346 309.569-1068.970  0.00  0.00     0.199 C 
BRANCH  66  67
ATOM     67  OG  SER d   5    1088.078 308.689-1068.110  0.00  0.00    -0.398 OA
ATOM     68  HG  SER d   5    1087.589 307.864-1068.059  0.00  0.00     0.209 HD
ENDBRANCH  66  67
ENDBRANCH  25  66
ENDBRANCH  22  25
ENDBRANCH  20  21
BRANCH  20  69
ATOM     69  CB  ILE d   6    1091.111 306.017-1070.620  0.00  0.00     0.013 C 
ATOM     70  CG2 ILE d   6    1092.552 305.716-1071.135  0.00  0.00     0.012 C 
BRANCH  69  71
ATOM     71  CG1 ILE d   6    1091.131 305.955-1069.058  0.00  0.00     0.002 C 
ATOM     72  CD1 ILE d   6    1091.401 304.566-1068.444  0.00  0.00     0.005 C 
ENDBRANCH  69  71
ENDBRANCH  20  69
ENDBRANCH  17  20
ENDBRANCH  15  16
BRANCH  15  73
ATOM     73  CB  PHE d   7    1088.200 305.814-1075.227  0.00  0.00     0.073 C 
BRANCH  73  74
ATOM     74  CG  PHE d   7    1088.097 304.360-1074.737  0.00  0.00    -0.056 A 
ATOM     75  CD1 PHE d   7    1087.472 304.086-1073.515  0.00  0.00     0.007 A 
ATOM     76  CE1 PHE d   7    1087.442 302.786-1073.020  0.00  0.00     0.001 A 
ATOM     77  CZ  PHE d   7    1088.019 301.751-1073.750  0.00  0.00     0.000 A 
ATOM     78  CE2 PHE d   7    1088.632 302.015-1074.974  0.00  0.00     0.001 A 
ATOM     79  CD2 PHE d   7    1088.673 303.317-1075.466  0.00  0.00     0.007 A 
ENDBRANCH  73  74
ENDBRANCH  15  73
ENDBRANCH  12  15
ENDBRANCH  10  11
BRANCH  10  80
ATOM     80  CB  ASP d   8    1087.396 311.042-1074.646  0.00  0.00     0.147 C 
BRANCH  80  81
ATOM     81  CG  ASP d   8    1087.177 312.462-1075.190  0.00  0.00     0.175 C 
ATOM     82  OD1 ASP d   8    1087.241 312.658-1076.421  0.00  0.00    -0.648 OA
ATOM     83  OD2 ASP d   8    1086.986 313.390-1074.377  0.00  0.00    -0.648 OA
ENDBRANCH  80  81
ENDBRANCH  10  80
ENDBRANCH   7  10
ENDBRANCH   5   6
BRANCH   5  84
ATOM     84  CB  GLU d   9    1092.437 311.285-1072.776  0.00  0.00     0.045 C 
BRANCH  84  85
ATOM     85  CG  GLU d   9    1093.820 311.977-1072.548  0.00  0.00     0.116 C 
BRANCH  85  86
ATOM     86  CD  GLU d   9    1094.521 311.767-1071.220  0.00  0.00     0.172 C 
ATOM     87  OE1 GLU d   9    1094.000 311.078-1070.322  0.00  0.00    -0.648 OA
ATOM     88  OE2 GLU d   9    1095.641 312.304-1071.089  0.00  0.00    -0.648 OA
ENDBRANCH  85  86
ENDBRANCH  84  85
ENDBRANCH   5  84
ENDBRANCH   1   5
BRANCH   3  89
ATOM     89  CA  HIS d  10    1093.704 309.170-1076.462  0.00  0.00     0.182 C 
BRANCH  89  90
ATOM     90  C   HIS d  10    1093.337 309.732-1077.815  0.00  0.00     0.241 C 
ATOM     91  O   HIS d  10    1094.190 310.195-1078.588  0.00  0.00    -0.271 OA
ATOM     92  N   VAL d  11    1092.099 309.731-1078.177  0.00  0.00    -0.346 N 
ATOM     93  H   VAL d  11    1091.387 309.359-1077.566  0.00  0.00     0.163 HD
BRANCH  92  94
ATOM     94  CA  VAL d  11    1091.745 310.274-1079.485  0.00  0.00     0.180 C 
BRANCH  94  95
ATOM     95  C   VAL d  11    1092.209 311.704-1079.621  0.00  0.00     0.241 C 
ATOM     96  O   VAL d  11    1092.811 312.107-1080.625  0.00  0.00    -0.271 OA
ATOM     97  N   GLN d  12    1091.973 312.532-1078.660  0.00  0.00    -0.346 N 
ATOM     98  H   GLN d  12    1091.484 312.228-1077.831  0.00  0.00     0.163 HD
BRANCH  97  99
ATOM     99  CA  GLN d  12    1092.422 313.915-1078.791  0.00  0.00     0.177 C 
BRANCH  99 100
ATOM    100  C   GLN d  12    1093.912 313.981-1079.029  0.00  0.00     0.241 C 
ATOM    101  O   GLN d  12    1094.399 314.687-1079.909  0.00  0.00    -0.271 OA
ATOM    102  N   ARG d  13    1094.696 313.275-1078.286  0.00  0.00    -0.346 N 
ATOM    103  H   ARG d  13    1094.320 312.687-1077.557  0.00  0.00     0.163 HD
BRANCH 102 104
ATOM    104  CA  ARG d  13    1096.136 313.340-1078.518  0.00  0.00     0.176 C 
BRANCH 104 105
ATOM    105  C   ARG d  13    1096.472 312.965-1079.942  0.00  0.00     0.241 C 
ATOM    106  O   ARG d  13    1097.240 313.634-1080.628  0.00  0.00    -0.271 OA
ATOM    107  N   VAL d  14    1095.935 311.909-1080.453  0.00  0.00    -0.346 N 
ATOM    108  H   VAL d  14    1095.300 311.343-1079.910  0.00  0.00     0.163 HD
BRANCH 107 109
ATOM    109  CA  VAL d  14    1096.259 311.547-1081.830  0.00  0.00     0.180 C 
BRANCH 109 110
ATOM    110  C   VAL d  14    1095.930 312.675-1082.778  0.00  0.00     0.241 C 
ATOM    111  O   VAL d  14    1096.723 313.054-1083.649  0.00  0.00    -0.271 OA
ATOM    112  N   MET d  15    1094.785 313.262-1082.677  0.00  0.00    -0.346 N 
ATOM    113  H   MET d  15    1094.120 312.970-1081.975  0.00  0.00     0.163 HD
BRANCH 112 114
ATOM    114  CA  MET d  15    1094.465 314.352-1083.594  0.00  0.00     0.177 C 
BRANCH 114 115
ATOM    115  C   MET d  15    1095.496 315.452-1083.509  0.00  0.00     0.241 C 
ATOM    116  O   MET d  15    1095.998 315.960-1084.523  0.00  0.00    -0.271 OA
ATOM    117  N   ARG d  16    1095.865 315.875-1082.348  0.00  0.00    -0.347 N 
ATOM    118  H   ARG d  16    1095.471 315.477-1081.507  0.00  0.00     0.163 HD
BRANCH 117 119
ATOM    119  CA  ARG d  16    1096.862 316.939-1082.267  0.00  0.00     0.162 C 
BRANCH 119 120
ATOM    120  C   ARG d  16    1098.132 316.544-1082.983  0.00  0.00     0.219 C 
ATOM    121  O   ARG d  16    1098.245 315.466-1083.562  0.00  0.00    -0.287 OA
ENDBRANCH 119 120
BRANCH 119 122
ATOM    122  CB  ARG d  16    1097.132 317.260-1080.770  0.00  0.00     0.035 C 
BRANCH 122 123
ATOM    123  CG  ARG d  16    1097.958 318.549-1080.500  0.00  0.00     0.023 C 
BRANCH 123 124
ATOM    124  CD  ARG d  16    1098.209 318.772-1079.000  0.00  0.00     0.138 C 
BRANCH 124 125
ATOM    125  NE  ARG d  16    1098.986 320.031-1078.802  0.00  0.00    -0.227 N 
ATOM    126  CZ  ARG d  16    1099.378 320.516-1077.628  0.00  0.00     0.665 C 
ATOM    127  NH1 ARG d  16    1099.131 319.934-1076.488  0.00  0.00    -0.235 N 
ATOM    128  NH2 ARG d  16    1100.043 321.628-1077.613  0.00  0.00    -0.235 N 
ATOM    129 11HH ARG d  16    1098.605 319.061-1076.570  0.00  0.00     0.174 HD
ATOM    130 12HH ARG d  16    1099.467 320.372-1075.628  0.00  0.00     0.174 HD
ATOM    131 21HH ARG d  16    1100.228 322.069-1078.516  0.00  0.00     0.174 HD
ATOM    132 22HH ARG d  16    1100.334 321.985-1076.701  0.00  0.00     0.174 HD
ATOM    133  HE  ARG d  16    1099.264 320.610-1079.601  0.00  0.00     0.177 HD
ENDBRANCH 124 125
ENDBRANCH 123 124
ENDBRANCH 122 123
ENDBRANCH 119 122
ENDBRANCH 117 119
ENDBRANCH 114 115
BRANCH 114 134
ATOM    134  CB  MET d  15    1093.044 314.899-1083.286  0.00  0.00     0.045 C 
BRANCH 134 135
ATOM    135  CG  MET d  15    1091.881 313.901-1083.475  0.00  0.00     0.076 C 
BRANCH 135 136
ATOM    136  SD  MET d  15    1090.308 314.768-1083.362  0.00  0.00    -0.173 SA
ATOM    137  CE  MET d  15    1089.226 313.339-1083.222  0.00  0.00     0.089 C 
ENDBRANCH 135 136
ENDBRANCH 134 135
ENDBRANCH 114 134
ENDBRANCH 112 114
ENDBRANCH 109 110
BRANCH 109 138
ATOM    138  CB  VAL d  14    1095.486 310.229-1082.234  0.00  0.00     0.009 C 
ATOM    139  CG1 VAL d  14    1095.575 309.807-1083.726  0.00  0.00     0.012 C 
ATOM    140  CG2 VAL d  14    1095.917 308.978-1081.431  0.00  0.00     0.012 C 
ENDBRANCH 109 138
ENDBRANCH 107 109
ENDBRANCH 104 105
BRANCH 104 141
ATOM    141  CB  ARG d  13    1096.849 312.403-1077.502  0.00  0.00     0.036 C 
BRANCH 141 142
ATOM    142  CG  ARG d  13    1098.394 312.555-1077.421  0.00  0.00     0.023 C 
BRANCH 142 143
ATOM    143  CD  ARG d  13    1099.021 311.569-1076.421  0.00  0.00     0.138 C 
BRANCH 143 144
ATOM    144  NE  ARG d  13    1100.498 311.776-1076.371  0.00  0.00    -0.227 N 
ATOM    145  CZ  ARG d  13    1101.346 311.086-1075.615  0.00  0.00     0.665 C 
ATOM    146  NH1 ARG d  13    1100.980 310.123-1074.815  0.00  0.00    -0.235 N 
ATOM    147  NH2 ARG d  13    1102.606 311.384-1075.673  0.00  0.00    -0.235 N 
ATOM    148 11HH ARG d  13    1099.975 309.938-1074.818  0.00  0.00     0.174 HD
ATOM    149 12HH ARG d  13    1101.693 309.641-1074.266  0.00  0.00     0.174 HD
ATOM    150 21HH ARG d  13    1102.873 312.140-1076.305  0.00  0.00     0.174 HD
ATOM    151 22HH ARG d  13    1103.241 310.843-1075.083  0.00  0.00     0.174 HD
ATOM    152  HE  ARG d  13    1100.950 312.497-1076.944  0.00  0.00     0.177 HD
ENDBRANCH 143 144
ENDBRANCH 142 143
ENDBRANCH 141 142
ENDBRANCH 104 141
ENDBRANCH 102 104
ENDBRANCH  99 100
BRANCH  99 153
ATOM    153  CB  GLN d  12    1092.031 314.685-1077.510  0.00  0.00     0.044 C 
BRANCH 153 154
ATOM    154  CG  GLN d  12    1092.392 316.207-1077.482  0.00  0.00     0.105 C 
BRANCH 154 155
ATOM    155  CD  GLN d  12    1092.090 317.023-1076.219  0.00  0.00     0.215 C 
ATOM    156  NE2 GLN d  12    1091.523 316.449-1075.189  0.00  0.00    -0.370 N 
ATOM    157 21HE GLN d  12    1091.416 317.046-1074.367  0.00  0.00     0.159 HD
ATOM    158 22HE GLN d  12    1091.359 315.446-1075.290  0.00  0.00     0.159 HD
ATOM    159  OE1 GLN d  12    1092.393 318.204-1076.144  0.00  0.00    -0.274 OA
ENDBRANCH 154 155
ENDBRANCH 153 154
ENDBRANCH  99 153
ENDBRANCH  97  99
ENDBRANCH  94  95
BRANCH  94 160
ATOM    160  CB  VAL d  11    1090.183 310.167-1079.704  0.00  0.00     0.009 C 
ATOM    161  CG1 VAL d  11    1089.615 310.869-1080.969  0.00  0.00     0.012 C 
ATOM    162  CG2 VAL d  11    1089.658 308.714-1079.775  0.00  0.00     0.012 C 
ENDBRANCH  94 160
ENDBRANCH  92  94
ENDBRANCH  89  90
BRANCH  89 163
ATOM    163  CB  HIS d  10    1093.540 307.641-1076.454  0.00  0.00     0.095 C 
BRANCH 163 164
ATOM    164  CG  HIS d  10    1094.825 306.931-1076.145  0.00  0.00     0.053 A 
ATOM    165  CD2 HIS d  10    1095.206 306.598-1074.852  0.00  0.00     0.116 A 
ATOM    166  NE2 HIS d  10    1096.421 305.966-1074.917  0.00  0.00    -0.359 N 
ATOM    167  CE1 HIS d  10    1096.683 305.966-1076.252  0.00  0.00     0.207 A 
ATOM    168  2HE HIS d  10    1096.987 305.590-1074.143  0.00  0.00     0.166 HD
ATOM    169  ND1 HIS d  10    1095.777 306.523-1077.077  0.00  0.00    -0.247 NA
ENDBRANCH 163 164
ENDBRANCH  89 163
ENDBRANCH   3  89
TORSDOF 68
