REMARK WARNING: 32 MAX_TORS EXCEEDED!!!
REMARK  65 active torsions:
REMARK  status: ('A' for Active; 'I' for Inactive)
REMARK    1  A    between atoms: N_1  and  CA_2 
REMARK    2  A    between atoms: CA_2  and  C_3 
REMARK    3  A    between atoms: CA_2  and  CB_5 
REMARK       I    between atoms: C_3  and  N_11 
REMARK    4  A    between atoms: CB_5  and  CG_6 
REMARK    5  A    between atoms: CG_6  and  CD_7 
REMARK    6  A    between atoms: N_11  and  CA_12 
REMARK    7  A    between atoms: CA_12  and  C_13 
REMARK    8  A    between atoms: CA_12  and  CB_15 
REMARK       I    between atoms: C_13  and  N_22 
REMARK    9  A    between atoms: CB_15  and  CG_16 
REMARK       I    between atoms: CG_16  and  ND2_17 
REMARK   10  A    between atoms: CA_23  and  C_24 
REMARK       I    between atoms: C_24  and  N_29 
REMARK   11  A    between atoms: N_29  and  CA_30 
REMARK   12  A    between atoms: CA_30  and  C_31 
REMARK   13  A    between atoms: CA_30  and  CB_33 
REMARK       I    between atoms: C_31  and  N_39 
REMARK   14  A    between atoms: CB_33  and  CG_34 
REMARK   15  A    between atoms: CG_34  and  CD_35 
REMARK   16  A    between atoms: N_39  and  CA_40 
REMARK   17  A    between atoms: CA_40  and  C_41 
REMARK   18  A    between atoms: CA_40  and  CB_43 
REMARK       I    between atoms: C_41  and  N_47 
REMARK   19  A    between atoms: CB_43  and  OG_44 
REMARK   20  A    between atoms: N_47  and  CA_48 
REMARK   21  A    between atoms: CA_48  and  C_49 
REMARK   22  A    between atoms: CA_48  and  CB_51 
REMARK       I    between atoms: C_49  and  N_56 
REMARK   23  A    between atoms: CB_51  and  CG1_52 
REMARK   24  A    between atoms: N_56  and  CA_57 
REMARK   25  A    between atoms: CA_57  and  C_58 
REMARK   26  A    between atoms: CA_57  and  CB_60 
REMARK       I    between atoms: C_58  and  N_65 
REMARK   27  A    between atoms: CB_60  and  CG_61 
REMARK   28  A    between atoms: N_65  and  CA_66 
REMARK   29  A    between atoms: CA_66  and  C_67 
REMARK   30  A    between atoms: CA_66  and  CB_69 
REMARK       I    between atoms: C_67  and  N_74 
REMARK   31  A    between atoms: CB_69  and  CG_70 
REMARK   32  A    between atoms: N_74  and  CA_75 
REMARK   33  A    between atoms: CA_75  and  C_76 
REMARK   34  A    between atoms: CA_75  and  CB_78 
REMARK       I    between atoms: C_76  and  N_84 
REMARK   35  A    between atoms: CB_78  and  CG_79 
REMARK   36  A    between atoms: CG_79  and  CD_80 
REMARK   37  A    between atoms: CA_85  and  C_86 
REMARK       I    between atoms: C_86  and  N_91 
REMARK   38  A    between atoms: N_91  and  CA_92 
REMARK   39  A    between atoms: CA_92  and  C_93 
REMARK   40  A    between atoms: CA_92  and  CB_95 
REMARK       I    between atoms: C_93  and  N_99 
REMARK   41  A    between atoms: N_99  and  CA_100 
REMARK   42  A    between atoms: CA_100  and  C_101 
REMARK   43  A    between atoms: CA_100  and  CB_103 
REMARK       I    between atoms: C_101  and  N_111 
REMARK   44  A    between atoms: CB_103  and  CG_104 
REMARK   45  A    between atoms: CG_104  and  CD_105 
REMARK       I    between atoms: CD_105  and  NE2_106 
REMARK   46  A    between atoms: N_111  and  CA_112 
REMARK   47  A    between atoms: CA_112  and  C_113 
REMARK   48  A    between atoms: CA_112  and  CB_115 
REMARK       I    between atoms: C_113  and  N_128 
REMARK   49  A    between atoms: CB_115  and  CG_116 
REMARK   50  A    between atoms: CG_116  and  CD_117 
REMARK   51  A    between atoms: CD_117  and  NE_118 
REMARK       I    between atoms: NE_118  and  CZ_119 
REMARK       I    between atoms: CZ_119  and  NH1_120 
REMARK       I    between atoms: CZ_119  and  NH2_121 
REMARK   52  A    between atoms: N_128  and  CA_129 
REMARK   53  A    between atoms: CA_129  and  C_130 
REMARK   54  A    between atoms: CA_129  and  CB_132 
REMARK       I    between atoms: C_130  and  N_136 
REMARK   55  A    between atoms: N_136  and  CA_137 
REMARK   56  A    between atoms: CA_137  and  C_138 
REMARK   57  A    between atoms: CA_137  and  CB_140 
REMARK       I    between atoms: C_138  and  N_145 
REMARK   58  A    between atoms: CB_140  and  CG_141 
REMARK   59  A    between atoms: CG_141  and  SD_142 
REMARK   60  A    between atoms: N_145  and  CA_146 
REMARK   61  A    between atoms: CA_146  and  C_147 
REMARK   62  A    between atoms: CA_146  and  CB_149 
REMARK   63  A    between atoms: CB_149  and  CG_150 
REMARK   64  A    between atoms: CG_150  and  CD_151 
REMARK   65  A    between atoms: CD_151  and  NE_152 
REMARK       I    between atoms: NE_152  and  CZ_153 
REMARK       I    between atoms: CZ_153  and  NH1_154 
ROOT
ATOM      1  CA  GLU d   9    1535.005 457.565-1553.322  0.00  0.00     0.177 C 
ENDROOT
BRANCH   1   2
ATOM      2  N   GLU d   9    1533.702 456.907-1553.377  0.00  0.00    -0.346 N 
ATOM      3  C   ASP d   8    1533.022 456.957-1554.472  0.00  0.00     0.241 C 
ATOM      4  O   ASP d   8    1533.495 457.563-1555.447  0.00  0.00    -0.271 OA
ATOM      5  H   GLU d   9    1533.339 456.421-1552.570  0.00  0.00     0.163 HD
BRANCH   3   6
ATOM      6  CA  ASP d   8    1531.676 456.278-1554.530  0.00  0.00     0.186 C 
BRANCH   6   7
ATOM      7  N   ASP d   8    1531.746 454.928-1553.977  0.00  0.00    -0.346 N 
ATOM      8  C   LEU d   7    1532.583 454.087-1554.483  0.00  0.00     0.241 C 
ATOM      9  O   LEU d   7    1533.304 454.450-1555.425  0.00  0.00    -0.271 OA
ATOM     10  H   ASP d   8    1531.148 454.657-1553.209  0.00  0.00     0.163 HD
BRANCH   8  11
ATOM     11  CA  LEU d   7    1532.656 452.692-1553.911  0.00  0.00     0.177 C 
BRANCH  11  12
ATOM     12  N   LEU d   7    1532.711 452.728-1552.453  0.00  0.00    -0.346 N 
ATOM     13  C   ILE d   6    1533.657 453.391-1551.879  0.00  0.00     0.241 C 
ATOM     14  O   ILE d   6    1534.491 453.979-1552.583  0.00  0.00    -0.271 OA
ATOM     15  H   LEU d   7    1532.019 452.241-1551.901  0.00  0.00     0.163 HD
BRANCH  13  16
ATOM     16  CA  ILE d   6    1533.714 453.429-1550.371  0.00  0.00     0.180 C 
BRANCH  16  17
ATOM     17  N   ILE d   6    1532.401 453.723-1549.805  0.00  0.00    -0.346 N 
ATOM     18  C   SER d   5    1531.796 454.806-1550.159  0.00  0.00     0.243 C 
ATOM     19  O   SER d   5    1532.343 455.560-1550.964  0.00  0.00    -0.271 OA
ATOM     20  H   ILE d   6    1531.973 453.089-1549.146  0.00  0.00     0.163 HD
BRANCH  18  21
ATOM     21  CA  SER d   5    1530.437 455.112-1549.573  0.00  0.00     0.200 C 
BRANCH  21  22
ATOM     22  N   SER d   5    1529.568 453.940-1549.631  0.00  0.00    -0.344 N 
ATOM     23  C   GLU d   4    1529.340 453.388-1550.774  0.00  0.00     0.241 C 
ATOM     24  O   GLU d   4    1529.867 453.867-1551.789  0.00  0.00    -0.271 OA
ATOM     25  H   SER d   5    1529.151 453.569-1548.790  0.00  0.00     0.163 HD
BRANCH  23  26
ATOM     26  CA  GLU d   4    1528.442 452.176-1550.836  0.00  0.00     0.177 C 
BRANCH  26  27
ATOM     27  N   GLU d   4    1528.801 451.205-1549.806  0.00  0.00    -0.346 N 
ATOM     28  C   PRO d   3    1530.006 450.745-1549.774  0.00  0.00     0.241 C 
ATOM     29  O   PRO d   3    1530.829 451.129-1550.605  0.00  0.00    -0.271 OA
ATOM     30  H   GLU d   4    1528.117 450.899-1549.129  0.00  0.00     0.163 HD
BRANCH  28  31
ATOM     31  CA  PRO d   3    1530.404 449.722-1548.697  0.00  0.00     0.179 C 
ATOM     32  N   PRO d   3    1529.953 450.131-1547.375  0.00  0.00    -0.337 N 
ATOM     33  C   ASN d   2    1530.474 451.126-1546.741  0.00  0.00     0.243 C 
ATOM     34  CD  PRO d   3    1528.875 449.338-1546.826  0.00  0.00     0.127 C 
ATOM     35  O   ASN d   2    1531.389 451.757-1547.270  0.00  0.00    -0.271 OA
ATOM     36  CG  PRO d   3    1528.417 448.519-1548.036  0.00  0.00     0.022 C 
ATOM     37  CB  PRO d   3    1529.700 448.367-1548.866  0.00  0.00     0.037 C 
BRANCH  33  38
ATOM     38  CA  ASN d   2    1529.943 451.482-1545.373  0.00  0.00     0.185 C 
BRANCH  38  39
ATOM     39  N   ASN d   2    1528.484 451.521-1545.373  0.00  0.00    -0.346 N 
ATOM     40  C   GLU d   1    1527.879 452.306-1546.198  0.00  0.00     0.242 C 
ATOM     41  O   GLU d   1    1528.555 453.005-1546.966  0.00  0.00    -0.271 OA
ATOM     42  H   ASN d   2    1527.955 450.941-1544.736  0.00  0.00     0.163 HD
BRANCH  40  43
ATOM     43  CA  GLU d   1    1526.370 452.346-1546.198  0.00  0.00     0.191 C 
BRANCH  43  44
ATOM     44  N   GLU d   1    1525.811 450.997-1546.198  0.00  0.00    -0.326 NA
ATOM     45  H   GLU d   1    1526.438 450.118-1546.198  0.00  0.00     0.180 HD
ENDBRANCH  43  44
BRANCH  43  46
ATOM     46  CB  GLU d   1    1525.847 453.131-1544.961  0.00  0.00     0.047 C 
BRANCH  46  47
ATOM     47  CG  GLU d   1    1526.322 454.616-1544.850  0.00  0.00     0.116 C 
BRANCH  47  48
ATOM     48  CD  GLU d   1    1525.898 455.420-1543.635  0.00  0.00     0.172 C 
ATOM     49  OE1 GLU d   1    1525.170 454.918-1542.757  0.00  0.00    -0.648 OA
ATOM     50  OE2 GLU d   1    1526.328 456.590-1543.563  0.00  0.00    -0.648 OA
ENDBRANCH  47  48
ENDBRANCH  46  47
ENDBRANCH  43  46
ENDBRANCH  40  43
ENDBRANCH  38  39
BRANCH  38  51
ATOM     51  CB  ASN d   2    1530.435 450.459-1544.308  0.00  0.00     0.137 C 
BRANCH  51  52
ATOM     52  CG  ASN d   2    1529.972 450.683-1542.865  0.00  0.00     0.217 C 
ATOM     53  ND2 ASN d   2    1530.566 451.598-1542.147  0.00  0.00    -0.370 N 
ATOM     54 21HD ASN d   2    1530.086 451.771-1541.260  0.00  0.00     0.159 HD
ATOM     55 22HD ASN d   2    1531.268 452.169-1542.616  0.00  0.00     0.159 HD
ATOM     56  OD1 ASN d   2    1529.051 450.049-1542.371  0.00  0.00    -0.274 OA
ENDBRANCH  51  52
ENDBRANCH  38  51
ENDBRANCH  33  38
ENDBRANCH  28  31
ENDBRANCH  26  27
BRANCH  26  57
ATOM     57  CB  GLU d   4    1526.953 452.595-1550.665  0.00  0.00     0.045 C 
BRANCH  57  58
ATOM     58  CG  GLU d   4    1526.405 453.599-1551.731  0.00  0.00     0.116 C 
BRANCH  58  59
ATOM     59  CD  GLU d   4    1524.978 454.095-1551.587  0.00  0.00     0.172 C 
ATOM     60  OE1 GLU d   4    1524.252 453.697-1550.656  0.00  0.00    -0.648 OA
ATOM     61  OE2 GLU d   4    1524.588 454.925-1552.435  0.00  0.00    -0.648 OA
ENDBRANCH  58  59
ENDBRANCH  57  58
ENDBRANCH  26  57
ENDBRANCH  23  26
ENDBRANCH  21  22
BRANCH  21  62
ATOM     62  CB  SER d   5    1530.549 455.644-1548.122  0.00  0.00     0.199 C 
BRANCH  62  63
ATOM     63  OG  SER d   5    1531.281 454.764-1547.261  0.00  0.00    -0.398 OA
ATOM     64  HG  SER d   5    1530.792 453.939-1547.211  0.00  0.00     0.209 HD
ENDBRANCH  62  63
ENDBRANCH  21  62
ENDBRANCH  18  21
ENDBRANCH  16  17
BRANCH  16  65
ATOM     65  CB  ILE d   6    1534.314 452.092-1549.771  0.00  0.00     0.013 C 
ATOM     66  CG2 ILE d   6    1535.755 451.791-1550.287  0.00  0.00     0.012 C 
BRANCH  65  67
ATOM     67  CG1 ILE d   6    1534.333 452.030-1548.210  0.00  0.00     0.002 C 
ATOM     68  CD1 ILE d   6    1534.604 450.641-1547.596  0.00  0.00     0.005 C 
ENDBRANCH  65  67
ENDBRANCH  16  65
ENDBRANCH  13  16
ENDBRANCH  11  12
BRANCH  11  69
ATOM     69  CB  LEU d   7    1531.453 451.832-1554.391  0.00  0.00     0.038 C 
BRANCH  69  70
ATOM     70  CG  LEU d   7    1531.380 450.352-1553.925  0.00  0.00    -0.020 C 
ATOM     71  CD1 LEU d   7    1530.190 449.646-1554.591  0.00  0.00     0.009 C 
ATOM     72  CD2 LEU d   7    1532.674 449.573-1554.217  0.00  0.00     0.009 C 
ENDBRANCH  69  70
ENDBRANCH  11  69
ENDBRANCH   8  11
ENDBRANCH   6   7
BRANCH   6  73
ATOM     73  CB  ASP d   8    1530.597 457.116-1553.788  0.00  0.00     0.147 C 
BRANCH  73  74
ATOM     74  CG  ASP d   8    1530.378 458.537-1554.328  0.00  0.00     0.175 C 
ATOM     75  OD1 ASP d   8    1530.442 458.737-1555.558  0.00  0.00    -0.648 OA
ATOM     76  OD2 ASP d   8    1530.186 459.463-1553.512  0.00  0.00    -0.648 OA
ENDBRANCH  73  74
ENDBRANCH   6  73
ENDBRANCH   3   6
ENDBRANCH   1   2
BRANCH   1  77
ATOM     77  C   GLU d   9    1535.923 457.038-1554.398  0.00  0.00     0.243 C 
ATOM     78  O   GLU d   9    1536.586 457.793-1555.123  0.00  0.00    -0.271 OA
ATOM     79  N   PRO d  10    1536.019 455.763-1554.568  0.00  0.00    -0.337 N 
ATOM     80  CA  PRO d  10    1536.880 455.172-1555.582  0.00  0.00     0.179 C 
ATOM     81  CD  PRO d  10    1535.280 454.813-1553.766  0.00  0.00     0.127 C 
ATOM     82  CB  PRO d  10    1536.863 453.688-1555.184  0.00  0.00     0.037 C 
ATOM     83  CG  PRO d  10    1535.486 453.503-1554.531  0.00  0.00     0.022 C 
BRANCH  80  84
ATOM     84  C   PRO d  10    1536.339 455.420-1557.000  0.00  0.00     0.241 C 
ATOM     85  O   PRO d  10    1537.087 455.819-1557.893  0.00  0.00    -0.271 OA
ATOM     86  N   VAL d  11    1535.092 455.210-1557.256  0.00  0.00    -0.346 N 
ATOM     87  H   VAL d  11    1534.468 454.884-1556.532  0.00  0.00     0.163 HD
BRANCH  86  88
ATOM     88  CA  VAL d  11    1534.596 455.452-1558.608  0.00  0.00     0.180 C 
BRANCH  88  89
ATOM     89  C   VAL d  11    1534.868 456.874-1559.037  0.00  0.00     0.241 C 
ATOM     90  O   VAL d  11    1535.354 457.144-1560.143  0.00  0.00    -0.271 OA
ATOM     91  N   GLN d  12    1534.585 457.837-1558.227  0.00  0.00    -0.346 N 
ATOM     92  H   GLN d  12    1534.188 457.642-1557.319  0.00  0.00     0.163 HD
BRANCH  91  93
ATOM     93  CA  GLN d  12    1534.848 459.211-1558.642  0.00  0.00     0.177 C 
BRANCH  93  94
ATOM     94  C   GLN d  12    1536.301 459.399-1559.007  0.00  0.00     0.241 C 
ATOM     95  O   GLN d  12    1536.644 459.975-1560.037  0.00  0.00    -0.271 OA
ATOM     96  N   ARG d  13    1537.210 458.940-1558.215  0.00  0.00    -0.346 N 
ATOM     97  H   ARG d  13    1536.954 458.463-1557.362  0.00  0.00     0.163 HD
BRANCH  96  98
ATOM     98  CA  ARG d  13    1538.615 459.122-1558.568  0.00  0.00     0.176 C 
BRANCH  98  99
ATOM     99  C   ARG d  13    1538.912 458.524-1559.923  0.00  0.00     0.241 C 
ATOM    100  O   ARG d  13    1539.550 459.134-1560.779  0.00  0.00    -0.271 OA
ATOM    101  N   VAL d  14    1538.484 457.337-1560.191  0.00  0.00    -0.346 N 
ATOM    102  H   VAL d  14    1537.958 456.815-1559.504  0.00  0.00     0.163 HD
BRANCH 101 103
ATOM    103  CA  VAL d  14    1538.772 456.759-1561.500  0.00  0.00     0.180 C 
BRANCH 103 104
ATOM    104  C   VAL d  14    1538.248 457.642-1562.608  0.00  0.00     0.241 C 
ATOM    105  O   VAL d  14    1538.936 457.936-1563.594  0.00  0.00    -0.271 OA
ATOM    106  N   MET d  15    1537.047 458.104-1562.523  0.00  0.00    -0.346 N 
ATOM    107  H   MET d  15    1536.465 457.878-1561.729  0.00  0.00     0.163 HD
BRANCH 106 108
ATOM    108  CA  MET d  15    1536.539 458.957-1563.594  0.00  0.00     0.177 C 
BRANCH 108 109
ATOM    109  C   MET d  15    1537.426 460.162-1563.793  0.00  0.00     0.241 C 
ATOM    110  O   MET d  15    1537.802 460.522-1564.919  0.00  0.00    -0.271 OA
ATOM    111  N   ARG d  16    1537.806 460.837-1562.761  0.00  0.00    -0.347 N 
ATOM    112  H   ARG d  16    1537.513 460.564-1561.834  0.00  0.00     0.163 HD
BRANCH 111 113
ATOM    113  CA  ARG d  16    1538.664 462.003-1562.955  0.00  0.00     0.162 C 
BRANCH 113 114
ATOM    114  C   ARG d  16    1539.930 461.625-1563.687  0.00  0.00     0.219 C 
ATOM    115  O   ARG d  16    1540.145 460.477-1564.068  0.00  0.00    -0.287 OA
ENDBRANCH 113 114
BRANCH 113 116
ATOM    116  CB  ARG d  16    1538.977 462.631-1561.567  0.00  0.00     0.035 C 
BRANCH 116 117
ATOM    117  CG  ARG d  16    1539.648 464.033-1561.603  0.00  0.00     0.023 C 
BRANCH 117 118
ATOM    118  CD  ARG d  16    1539.955 464.563-1560.193  0.00  0.00     0.138 C 
BRANCH 118 119
ATOM    119  NE  ARG d  16    1540.577 465.916-1560.290  0.00  0.00    -0.227 N 
ATOM    120  CZ  ARG d  16    1540.972 466.656-1559.258  0.00  0.00     0.665 C 
ATOM    121  NH1 ARG d  16    1540.866 466.277-1558.015  0.00  0.00    -0.235 N 
ATOM    122  NH2 ARG d  16    1541.491 467.819-1559.498  0.00  0.00    -0.235 N 
ATOM    123 11HH ARG d  16    1540.450 465.351-1557.895  0.00  0.00     0.174 HD
ATOM    124 12HH ARG d  16    1541.192 466.905-1557.279  0.00  0.00     0.174 HD
ATOM    125 21HH ARG d  16    1541.567 468.099-1560.478  0.00  0.00     0.174 HD
ATOM    126 22HH ARG d  16    1541.786 468.373-1558.692  0.00  0.00     0.174 HD
ATOM    127  HE  ARG d  16    1540.734 466.361-1561.200  0.00  0.00     0.177 HD
ENDBRANCH 118 119
ENDBRANCH 117 118
ENDBRANCH 116 117
ENDBRANCH 113 116
ENDBRANCH 111 113
ENDBRANCH 108 109
BRANCH 108 128
ATOM    128  CB  MET d  15    1535.081 459.389-1563.277  0.00  0.00     0.045 C 
BRANCH 128 129
ATOM    129  CG  MET d  15    1534.044 458.248-1563.188  0.00  0.00     0.076 C 
BRANCH 129 130
ATOM    130  SD  MET d  15    1532.383 458.937-1563.108  0.00  0.00    -0.173 SA
ATOM    131  CE  MET d  15    1531.500 457.448-1562.624  0.00  0.00     0.089 C 
ENDBRANCH 129 130
ENDBRANCH 128 129
ENDBRANCH 108 128
ENDBRANCH 106 108
ENDBRANCH 103 104
BRANCH 103 132
ATOM    132  CB  VAL d  14    1538.149 455.310-1561.595  0.00  0.00     0.009 C 
ATOM    133  CG1 VAL d  14    1538.203 454.625-1562.988  0.00  0.00     0.012 C 
ATOM    134  CG2 VAL d  14    1538.780 454.291-1560.615  0.00  0.00     0.012 C 
ENDBRANCH 103 132
ENDBRANCH 101 103
ENDBRANCH  98  99
BRANCH  98 135
ATOM    135  CB  ARG d  13    1539.498 458.482-1557.460  0.00  0.00     0.036 C 
BRANCH 135 136
ATOM    136  CG  ARG d  13    1541.014 458.821-1557.533  0.00  0.00     0.023 C 
BRANCH 136 137
ATOM    137  CD  ARG d  13    1541.816 458.120-1556.425  0.00  0.00     0.138 C 
BRANCH 137 138
ATOM    138  NE  ARG d  13    1543.256 458.498-1556.532  0.00  0.00    -0.227 N 
ATOM    139  CZ  ARG d  13    1544.227 458.065-1555.734  0.00  0.00     0.665 C 
ATOM    140  NH1 ARG d  13    1544.032 457.237-1554.746  0.00  0.00    -0.235 N 
ATOM    141  NH2 ARG d  13    1545.433 458.487-1555.946  0.00  0.00    -0.235 N 
ATOM    142 11HH ARG d  13    1543.060 456.941-1554.634  0.00  0.00     0.174 HD
ATOM    143 12HH ARG d  13    1544.831 456.951-1554.177  0.00  0.00     0.174 HD
ATOM    144 21HH ARG d  13    1545.566 459.135-1556.724  0.00  0.00     0.174 HD
ATOM    145 22HH ARG d  13    1546.164 458.144-1555.320  0.00  0.00     0.174 HD
ATOM    146  HE  ARG d  13    1543.579 459.144-1557.260  0.00  0.00     0.177 HD
ENDBRANCH 137 138
ENDBRANCH 136 137
ENDBRANCH 135 136
ENDBRANCH  98 135
ENDBRANCH  96  98
ENDBRANCH  93  94
BRANCH  93 147
ATOM    147  CB  GLN d  12    1534.439 460.161-1557.494  0.00  0.00     0.044 C 
BRANCH 147 148
ATOM    148  CG  GLN d  12    1534.606 461.692-1557.772  0.00  0.00     0.105 C 
BRANCH 148 149
ATOM    149  CD  GLN d  12    1534.277 462.693-1556.658  0.00  0.00     0.215 C 
ATOM    150  NE2 GLN d  12    1533.847 462.265-1555.498  0.00  0.00    -0.370 N 
ATOM    151 21HE GLN d  12    1533.714 462.990-1554.792  0.00  0.00     0.159 HD
ATOM    152 22HE GLN d  12    1533.806 461.248-1555.402  0.00  0.00     0.159 HD
ATOM    153  OE1 GLN d  12    1534.432 463.894-1556.823  0.00  0.00    -0.274 OA
ENDBRANCH 148 149
ENDBRANCH 147 148
ENDBRANCH  93 147
ENDBRANCH  91  93
ENDBRANCH  88  89
BRANCH  88 154
ATOM    154  CB  VAL d  11    1533.051 455.130-1558.677  0.00  0.00     0.009 C 
ATOM    155  CG1 VAL d  11    1532.326 455.510-1559.998  0.00  0.00     0.012 C 
ATOM    156  CG2 VAL d  11    1532.710 453.639-1558.440  0.00  0.00     0.012 C 
ENDBRANCH  88 154
ENDBRANCH  86  88
ENDBRANCH  80  84
ENDBRANCH   1  77
BRANCH   1 157
ATOM    157  CB  GLU d   9    1535.638 457.357-1551.916  0.00  0.00     0.045 C 
BRANCH 157 158
ATOM    158  CG  GLU d   9    1537.021 458.049-1551.687  0.00  0.00     0.116 C 
BRANCH 158 159
ATOM    159  CD  GLU d   9    1537.723 457.836-1550.359  0.00  0.00     0.172 C 
ATOM    160  OE1 GLU d   9    1537.201 457.144-1549.463  0.00  0.00    -0.648 OA
ATOM    161  OE2 GLU d   9    1538.842 458.373-1550.227  0.00  0.00    -0.648 OA
ENDBRANCH 158 159
ENDBRANCH 157 158
ENDBRANCH   1 157
TORSDOF 65
