@<TRIPOS>MOLECULE
15-16
265 266 16              
SMALL
USER_CHARGES
@<TRIPOS>ATOM
1	   N	2457.178	753.600	-2559.854	N.3	1	GLU1	-0.516	
2	  CA	2457.738	754.949	-2559.854	C.3	1	GLU1	0.040	
3	   C	2459.247	754.909	-2559.854	C.2	1	GLU1	0.537	
4	   O	2459.922	755.608	-2560.623	O.2	1	GLU1	-0.582	
5	  CB	2457.214	755.734	-2558.617	C.3	1	GLU1	0.056	
6	  CG	2457.689	757.219	-2558.506	C.3	1	GLU1	0.014	
7	  CD	2457.265	758.023	-2557.291	C.2	1	GLU1	0.805	
8	 OE1	2456.537	757.521	-2556.413	O.co2	1	GLU1	-0.819	
9	 OE2	2457.696	759.193	-2557.219	O.co2	1	GLU1	-0.819	
10	   H	2457.805	752.721	-2559.854	 H	1	GLU1	0.294	
11	  HA	2457.411	755.467	-2560.774	 H	1	GLU1	0.111	
12	 2HB	2457.503	755.203	-2557.687	 H	1	GLU1	-0.017	
13	 3HB	2456.107	755.724	-2558.604	 H	1	GLU1	-0.017	
14	 2HG	2457.379	757.804	-2559.387	 H	1	GLU1	-0.043	
15	 3HG	2458.790	757.286	-2558.477	 H	1	GLU1	-0.043	
16	   N	2459.851	754.124	-2559.029	N.am	2	ASN2	-0.416	
17	  CA	2461.310	754.085	-2559.029	C.3	2	ASN2	0.014	
18	   C	2461.842	753.729	-2560.397	C.2	2	ASN2	0.597	
19	   O	2462.757	754.359	-2560.925	O.2	2	ASN2	-0.568	
20	  CB	2461.802	753.062	-2557.964	C.3	2	ASN2	-0.204	
21	  CG	2461.339	753.285	-2556.521	C.2	2	ASN2	0.713	
22	 ND2	2461.933	754.200	-2555.802	N.pl3	2	ASN2	-0.919	
23	 OD1	2460.417	752.652	-2556.027	O.2	2	ASN2	-0.593	
24	   H	2459.323	753.544	-2558.392	 H	2	ASN2	0.272	
25	  HA	2461.688	755.094	-2558.783	 H	2	ASN2	0.105	
26	 2HB	2462.906	753.003	-2557.967	 H	2	ASN2	0.080	
27	 3HB	2461.473	752.043	-2558.250	 H	2	ASN2	0.080	
28	1HD2	2461.452	754.374	-2554.916	 H	2	ASN2	0.420	
29	2HD2	2462.635	754.772	-2556.271	 H	2	ASN2	0.420	
30	   N	2461.320	752.734	-2561.031	N.am	3	PRO3	-0.255	
31	  CA	2461.772	752.325	-2562.353	C.3	3	PRO3	-0.027	
32	   C	2461.375	753.348	-2563.430	C.2	3	PRO3	0.590	
33	   O	2462.198	753.731	-2564.261	O.2	3	PRO3	-0.575	
34	  CB	2461.068	750.970	-2562.522	C.3	3	PRO3	-0.007	
35	  CG	2459.784	751.123	-2561.693	C.3	3	PRO3	0.019	
36	  CD	2460.242	751.941	-2560.483	C.3	3	PRO3	0.019	
37	  HA	2462.858	752.205	-2562.366	 H	3	PRO3	0.064	
38	 2HB	2461.691	750.189	-2562.082	 H	3	PRO3	0.025	
39	 3HB	2460.870	750.722	-2563.568	 H	3	PRO3	0.025	
40	 2HG	2459.357	750.161	-2561.402	 H	3	PRO3	0.021	
41	 3HG	2459.047	751.694	-2562.260	 H	3	PRO3	0.021	
42	 2HD	2460.631	751.291	-2559.695	 H	3	PRO3	0.039	
43	 3HD	2459.445	752.577	-2560.090	 H	3	PRO3	0.039	
44	   N	2460.170	753.809	-2563.463	N.am	4	GLU4	-0.516	
45	  CA	2459.811	754.780	-2564.492	C.3	4	GLU4	0.040	
46	   C	2460.710	755.990	-2564.431	C.2	4	GLU4	0.537	
47	   O	2461.237	756.470	-2565.445	O.2	4	GLU4	-0.582	
48	  CB	2458.322	755.199	-2564.323	C.3	4	GLU4	0.056	
49	  CG	2457.775	756.203	-2565.388	C.3	4	GLU4	0.014	
50	  CD	2456.348	756.700	-2565.245	C.2	4	GLU4	0.805	
51	 OE1	2455.622	756.301	-2564.315	O.co2	4	GLU4	-0.819	
52	 OE2	2455.959	757.529	-2566.094	O.co2	4	GLU4	-0.819	
53	   H	2459.485	753.502	-2562.786	 H	4	GLU4	0.294	
54	  HA	2459.942	754.309	-2565.484	 H	4	GLU4	0.111	
55	 2HB	2458.169	755.638	-2563.316	 H	4	GLU4	-0.017	
56	 3HB	2457.674	754.301	-2564.329	 H	4	GLU4	-0.017	
57	 2HG	2457.857	755.788	-2566.406	 H	4	GLU4	-0.043	
58	 3HG	2458.363	757.135	-2565.399	 H	4	GLU4	-0.043	
59	   N	2460.937	756.543	-2563.288	N.am	5	SER5	-0.416	
60	  CA	2461.807	757.714	-2563.229	C.3	5	SER5	-0.025	
61	   C	2463.166	757.408	-2563.814	C.2	5	SER5	0.597	
62	   O	2463.714	758.161	-2564.619	O.2	5	SER5	-0.568	
63	  CB	2461.918	758.246	-2561.778	C.3	5	SER5	0.212	
64	  OG	2462.649	757.367	-2560.917	O.3	5	SER5	-0.655	
65	   H	2460.520	756.172	-2562.446	 H	5	SER5	0.272	
66	  HA	2461.358	758.505	-2563.858	 H	5	SER5	0.084	
67	 2HB	2460.918	758.440	-2561.345	 H	5	SER5	0.035	
68	 3HB	2462.424	759.232	-2561.780	 H	5	SER5	0.035	
69	  HG	2462.160	756.542	-2560.866	 H	5	SER5	0.428	
70	   N	2463.770	756.325	-2563.460	N.am	6	ILE6	-0.416	
71	  CA	2465.083	756.029	-2564.026	C.3	6	ILE6	-0.060	
72	   C	2465.026	755.992	-2565.533	C.2	6	ILE6	0.597	
73	   O	2465.861	756.579	-2566.237	O.2	6	ILE6	-0.568	
74	  CB	2465.682	754.693	-2563.425	C.3	6	ILE6	0.130	
75	 CG1	2465.701	754.631	-2561.865	C.3	6	ILE6	-0.043	
76	 CG2	2467.124	754.391	-2563.940	C.3	6	ILE6	-0.320	
77	 CD1	2465.971	753.241	-2561.249	C.3	6	ILE6	-0.066	
78	   H	2463.341	755.690	-2562.801	 H	6	ILE6	0.272	
79	  HA	2465.758	756.863	-2563.758	 H	6	ILE6	0.087	
80	  HB	2465.024	753.867	-2563.770	 H	6	ILE6	0.019	
81	2HG1	2464.719	754.951	-2561.469	 H	6	ILE6	0.024	
82	3HG1	2466.417	755.373	-2561.459	 H	6	ILE6	0.024	
83	1HG2	2467.183	754.297	-2565.039	 H	6	ILE6	0.088	
84	2HG2	2467.846	755.173	-2563.638	 H	6	ILE6	0.088	
85	3HG2	2467.513	753.428	-2563.562	 H	6	ILE6	0.088	
86	1HD1	2465.242	752.488	-2561.604	 H	6	ILE6	0.019	
87	2HD1	2466.981	752.862	-2561.485	 H	6	ILE6	0.019	
88	3HD1	2465.894	753.271	-2560.147	 H	6	ILE6	0.019	
89	   N	2464.080	755.328	-2566.107	N.am	7	LEU7	-0.416	
90	  CA	2464.025	755.292	-2567.565	C.3	7	LEU7	-0.052	
91	   C	2463.953	756.688	-2568.138	C.2	7	LEU7	0.597	
92	   O	2464.674	757.049	-2569.081	O.2	7	LEU7	-0.568	
93	  CB	2462.822	754.432	-2568.046	C.3	7	LEU7	-0.110	
94	  CG	2462.749	752.953	-2567.579	C.3	7	LEU7	0.353	
95	 CD1	2461.559	752.248	-2568.245	C.3	7	LEU7	-0.412	
96	 CD2	2464.042	752.173	-2567.871	C.3	7	LEU7	-0.412	
97	   H	2463.388	754.842	-2565.556	 H	7	LEU7	0.272	
98	  HA	2464.967	754.852	-2567.940	 H	7	LEU7	0.092	
99	 2HB	2462.799	754.448	-2569.154	 H	7	LEU7	0.046	
100	 3HB	2461.882	754.935	-2567.742	 H	7	LEU7	0.046	
101	  HG	2462.579	752.945	-2566.482	 H	7	LEU7	-0.036	
102	1HD1	2460.601	752.757	-2568.022	 H	7	LEU7	0.100	
103	2HD1	2461.658	752.207	-2569.346	 H	7	LEU7	0.100	
104	3HD1	2461.451	751.207	-2567.889	 H	7	LEU7	0.100	
105	1HD2	2464.317	752.204	-2568.941	 H	7	LEU7	0.100	
106	2HD2	2464.895	752.585	-2567.299	 H	7	LEU7	0.100	
107	3HD2	2463.960	751.111	-2567.575	 H	7	LEU7	0.100	
108	   N	2463.116	757.529	-2567.633	N.am	8	ASP8	-0.516	
109	  CA	2463.046	758.878	-2568.187	C.3	8	ASP8	0.038	
110	   C	2464.394	759.557	-2568.130	C.2	8	ASP8	0.537	
111	   O	2464.866	760.161	-2569.105	O.2	8	ASP8	-0.582	
112	  CB	2461.969	759.718	-2567.446	C.3	8	ASP8	-0.030	
113	  CG	2461.751	761.139	-2567.987	C.2	8	ASP8	0.799	
114	 OD1	2461.815	761.337	-2569.218	O.co2	8	ASP8	-0.801	
115	 OD2	2461.559	762.065	-2567.172	O.co2	8	ASP8	-0.801	
116	   H	2462.518	757.258	-2566.865	 H	8	ASP8	0.294	
117	  HA	2462.763	758.800	-2569.254	 H	8	ASP8	0.088	
118	 2HB	2462.226	759.802	-2566.374	 H	8	ASP8	-0.012	
119	 3HB	2460.990	759.213	-2567.478	 H	8	ASP8	-0.012	
120	   N	2465.073	759.508	-2567.035	N.am	9	GLU9	-0.516	
121	  CA	2466.377	760.165	-2566.980	C.3	9	GLU9	0.040	
122	   C	2467.294	759.636	-2568.056	C.2	9	GLU9	0.537	
123	   O	2467.958	760.390	-2568.782	O.2	9	GLU9	-0.582	
124	  CB	2467.010	759.957	-2565.575	C.3	9	GLU9	0.056	
125	  CG	2468.393	760.649	-2565.346	C.3	9	GLU9	0.014	
126	  CD	2469.095	760.436	-2564.018	C.2	9	GLU9	0.805	
127	 OE1	2468.573	759.746	-2563.121	O.co2	9	GLU9	-0.819	
128	 OE2	2470.215	760.974	-2563.886	O.co2	9	GLU9	-0.819	
129	   H	2464.710	759.022	-2566.227	 H	9	GLU9	0.294	
130	  HA	2466.235	761.246	-2567.156	 H	9	GLU9	0.111	
131	 2HB	2467.123	758.873	-2565.371	 H	9	GLU9	-0.017	
132	 3HB	2466.313	760.311	-2564.790	 H	9	GLU9	-0.017	
133	 2HG	2468.322	761.740	-2565.486	 H	9	GLU9	-0.043	
134	 3HG	2469.140	760.303	-2566.080	 H	9	GLU9	-0.043	
135	   N	2467.390	758.361	-2568.225	N.am	10	HIS10	-0.416	
136	  CA	2468.277	757.848	-2569.265	C.3	10	HIS10	-0.058	
137	   C	2467.910	758.412	-2570.616	C.2	10	HIS10	0.597	
138	   O	2468.763	758.876	-2571.389	O.2	10	HIS10	-0.568	
139	  CB	2468.113	756.320	-2569.260	C.3	10	HIS10	-0.007	
140	  CG	2469.398	755.609	-2568.951	C.2	10	HIS10	0.187	
141	 CD2	2469.780	755.274	-2567.659	C.2	10	HIS10	-0.221	
142	 ND1	2470.350	755.202	-2569.884	N.2	10	HIS10	-0.543	
143	 CE1	2471.256	754.644	-2569.061	C.2	10	HIS10	0.163	
144	 NE2	2470.994	754.642	-2567.726	N.pl3	10	HIS10	-0.280	
145	   H	2466.859	757.726	-2567.646	 H	10	HIS10	0.272	
146	  HA	2469.297	758.206	-2569.041	 H	10	HIS10	0.136	
147	 2HB	2467.747	755.952	-2570.239	 H	10	HIS10	0.037	
148	 3HB	2467.357	755.983	-2568.519	 H	10	HIS10	0.037	
149	 2HD	2469.194	755.490	-2566.770	 H	10	HIS10	0.186	
150	 1HE	2472.147	754.222	-2569.508	 H	10	HIS10	0.144	
151	 2HE	2471.561	754.265	-2566.952	 H	10	HIS10	0.334	
152	   N	2466.673	758.412	-2570.979	N.am	11	VAL11	-0.416	
153	  CA	2466.317	758.958	-2572.286	C.3	11	VAL11	-0.087	
154	   C	2466.783	760.388	-2572.420	C.2	11	VAL11	0.597	
155	   O	2467.384	760.792	-2573.423	O.2	11	VAL11	-0.568	
156	  CB	2464.756	758.852	-2572.505	C.3	11	VAL11	0.299	
157	 CG1	2464.188	759.555	-2573.768	C.3	11	VAL11	-0.319	
158	 CG2	2464.231	757.398	-2572.577	C.3	11	VAL11	-0.319	
159	   H	2465.959	758.040	-2570.368	 H	11	VAL11	0.272	
160	  HA	2466.837	758.374	-2573.069	 H	11	VAL11	0.097	
161	  HB	2464.269	759.333	-2571.630	 H	11	VAL11	-0.030	
162	1HG1	2464.626	759.162	-2574.705	 H	11	VAL11	0.079	
163	2HG1	2463.089	759.448	-2573.850	 H	11	VAL11	0.079	
164	3HG1	2464.366	760.647	-2573.760	 H	11	VAL11	0.079	
165	1HG2	2464.521	756.811	-2571.687	 H	11	VAL11	0.079	
166	2HG2	2463.125	757.361	-2572.620	 H	11	VAL11	0.079	
167	3HG2	2464.612	756.856	-2573.464	 H	11	VAL11	0.079	
168	   N	2466.546	761.214	-2571.458	N.am	12	GLN12	-0.416	
169	  CA	2466.996	762.597	-2571.585	C.3	12	GLN12	-0.003	
170	   C	2468.485	762.663	-2571.824	C.2	12	GLN12	0.597	
171	   O	2468.973	763.371	-2572.703	O.2	12	GLN12	-0.568	
172	  CB	2466.605	763.365	-2570.303	C.3	12	GLN12	-0.004	
173	  CG	2466.967	764.887	-2570.273	C.3	12	GLN12	-0.064	
174	  CD	2466.665	765.701	-2569.009	C.2	12	GLN12	0.695	
175	 NE2	2466.098	765.125	-2567.979	N.pl3	12	GLN12	-0.941	
176	 OE1	2466.968	766.882	-2568.932	O.2	12	GLN12	-0.609	
177	   H	2466.058	760.909	-2570.628	 H	12	GLN12	0.272	
178	  HA	2466.496	763.053	-2572.461	 H	12	GLN12	0.085	
179	 2HB	2467.081	762.865	-2569.434	 H	12	GLN12	0.017	
180	 3HB	2465.515	763.258	-2570.140	 H	12	GLN12	0.017	
181	 2HG	2466.489	765.407	-2571.124	 H	12	GLN12	0.035	
182	 3HG	2468.050	765.028	-2570.439	 H	12	GLN12	0.035	
183	1HE2	2465.991	765.720	-2567.156	 H	12	GLN12	0.425	
184	2HE2	2465.934	764.122	-2568.082	 H	12	GLN12	0.425	
185	   N	2469.270	761.956	-2571.083	N.am	13	ARG13	-0.348	
186	  CA	2470.710	762.022	-2571.314	C.3	13	ARG13	-0.264	
187	   C	2471.046	761.649	-2572.739	C.2	13	ARG13	0.734	
188	   O	2471.815	762.320	-2573.423	O.2	13	ARG13	-0.589	
189	  CB	2471.423	761.083	-2570.299	C.3	13	ARG13	-0.001	
190	  CG	2472.969	761.236	-2570.219	C.3	13	ARG13	0.039	
191	  CD	2473.595	760.249	-2569.221	C.3	13	ARG13	0.049	
192	  NE	2475.073	760.456	-2569.171	N.pl3	13	ARG13	-0.530	
193	  CZ	2475.921	759.764	-2568.415	C.cat	13	ARG13	0.808	
194	 NH1	2475.556	758.801	-2567.617	N.pl3	13	ARG13	-0.863	
195	 NH2	2477.180	760.063	-2568.473	N.pl3	13	ARG13	-0.863	
196	   H	2468.894	761.367	-2570.354	 H	13	ARG13	0.275	
197	  HA	2471.035	763.068	-2571.156	 H	13	ARG13	0.156	
198	 2HB	2471.157	760.033	-2570.538	 H	13	ARG13	0.033	
199	 3HB	2470.999	761.251	-2569.289	 H	13	ARG13	0.033	
200	 2HG	2473.217	762.281	-2569.940	 H	13	ARG13	0.029	
201	 3HG	2473.419	761.079	-2571.220	 H	13	ARG13	0.029	
202	 2HD	2473.351	759.209	-2569.529	 H	13	ARG13	0.069	
203	 3HD	2473.140	760.395	-2568.218	 H	13	ARG13	0.069	
204	  HE	2475.524	761.177	-2569.742	 H	13	ARG13	0.346	
205	1HH1	2474.550	758.615	-2567.620	 H	13	ARG13	0.448	
206	2HH1	2476.269	758.318	-2567.068	 H	13	ARG13	0.448	
207	1HH2	2477.448	760.820	-2569.104	 H	13	ARG13	0.448	
208	2HH2	2477.816	759.522	-2567.884	 H	13	ARG13	0.448	
209	   N	2470.509	760.595	-2573.252	N.am	14	VAL14	-0.416	
210	  CA	2470.834	760.234	-2574.630	C.3	14	VAL14	-0.087	
211	   C	2470.504	761.364	-2575.576	C.2	14	VAL14	0.597	
212	   O	2471.297	761.745	-2576.445	O.2	14	VAL14	-0.568	
213	  CB	2470.061	758.917	-2575.036	C.3	14	VAL14	0.299	
214	 CG1	2470.149	758.498	-2576.529	C.3	14	VAL14	-0.319	
215	 CG2	2470.492	757.665	-2574.235	C.3	14	VAL14	-0.319	
216	   H	2469.874	760.026	-2572.710	 H	14	VAL14	0.272	
217	  HA	2471.922	760.057	-2574.705	 H	14	VAL14	0.097	
218	  HB	2468.985	759.089	-2574.819	 H	14	VAL14	-0.030	
219	1HG1	2471.191	758.321	-2576.858	 H	14	VAL14	0.079	
220	2HG1	2469.576	757.575	-2576.741	 H	14	VAL14	0.079	
221	3HG1	2469.720	759.260	-2577.207	 H	14	VAL14	0.079	
222	1HG2	2470.406	757.825	-2573.144	 H	14	VAL14	0.079	
223	2HG2	2469.856	756.789	-2574.466	 H	14	VAL14	0.079	
224	3HG2	2471.540	757.375	-2574.440	 H	14	VAL14	0.079	
225	   N	2469.359	761.950	-2575.474	N.am	15	GLN15	-0.416	
226	  CA	2469.039	763.042	-2576.388	C.3	15	GLN15	-0.003	
227	   C	2470.071	764.142	-2576.300	C.2	15	GLN15	0.597	
228	   O	2470.569	764.648	-2577.303	O.2	15	GLN15	-0.568	
229	  CB	2467.630	763.576	-2576.047	C.3	15	GLN15	-0.004	
230	  CG	2467.090	764.729	-2576.956	C.3	15	GLN15	-0.064	
231	  CD	2465.724	765.351	-2576.641	C.2	15	GLN15	0.695	
232	 NE2	2465.019	764.906	-2575.633	N.pl3	15	GLN15	-0.941	
233	 OE1	2465.286	766.279	-2577.303	O.2	15	GLN15	-0.609	
234	   H	2468.694	761.658	-2574.772	 H	15	GLN15	0.272	
235	  HA	2469.052	762.654	-2577.423	 H	15	GLN15	0.085	
236	 2HB	2467.629	763.920	-2574.991	 H	15	GLN15	0.017	
237	 3HB	2466.911	762.735	-2576.081	 H	15	GLN15	0.017	
238	 2HG	2467.070	764.401	-2578.013	 H	15	GLN15	0.035	
239	 3HG	2467.790	765.584	-2576.949	 H	15	GLN15	0.035	
240	1HE2	2464.153	765.417	-2575.452	 H	15	GLN15	0.425	
241	2HE2	2465.472	764.177	-2575.078	 H	15	GLN15	0.425	
242	   N	2470.440	764.564	-2575.138	N.am	16	ARG16	-0.348	
243	  CA	2471.437	765.627	-2575.055	C.3	16	ARG16	-0.264	
244	   C	2472.707	765.234	-2575.771	C.2	16	ARG16	0.734	
245	   O	2472.821	764.157	-2576.352	O.2	16	ARG16	-0.589	
246	  CB	2471.706	765.946	-2573.557	C.3	16	ARG16	-0.001	
247	  CG	2472.531	767.234	-2573.284	C.3	16	ARG16	0.039	
248	  CD	2472.781	767.454	-2571.783	C.3	16	ARG16	0.049	
249	  NE	2473.558	768.712	-2571.583	N.pl3	16	ARG16	-0.530	
250	  CZ	2473.949	769.195	-2570.407	C.cat	16	ARG16	0.808	
251	 NH1	2473.701	768.611	-2569.268	N.pl3	16	ARG16	-0.863	
252	 NH2	2474.614	770.308	-2570.389	N.pl3	16	ARG16	-0.863	
253	   H	2470.045	764.164	-2574.299	 H	16	ARG16	0.275	
254	  HA	2471.028	766.520	-2575.565	 H	16	ARG16	0.156	
255	 2HB	2472.202	765.069	-2573.090	 H	16	ARG16	0.033	
256	 3HB	2470.737	766.027	-2573.023	 H	16	ARG16	0.033	
257	 2HG	2472.002	768.105	-2573.722	 H	16	ARG16	0.029	
258	 3HG	2473.505	767.181	-2573.813	 H	16	ARG16	0.029	
259	 2HD	2473.330	766.579	-2571.370	 H	16	ARG16	0.069	
260	 3HD	2471.809	767.497	-2571.248	 H	16	ARG16	0.069	
261	  HE	2473.836	769.293	-2572.380	 H	16	ARG16	0.346	
262	1HH1	2473.176	767.739	-2569.353	 H	16	ARG16	0.448	
263	2HH1	2474.036	769.047	-2568.407	 H	16	ARG16	0.448	
264	1HH2	2474.800	770.750	-2571.291	 H	16	ARG16	0.448	
265	2HH2	2474.904	770.663	-2569.476	 H	16	ARG16	0.448	
@<TRIPOS>BOND
1 1 2 1
2 1 10 1
3 2 3 1
4 2 5 1
5 2 11 1
6 3 4 2
7 3 16 1
8 5 6 1
9 6 7 1
10 7 8 2
11 7 9 1
12 5 12 1
13 5 13 1
14 6 14 1
15 6 15 1
16 16 17 1
17 16 24 1
18 17 18 1
19 17 20 1
20 17 25 1
21 18 19 2
22 18 30 1
23 20 21 1
24 21 22 1
25 21 23 2
26 20 26 1
27 20 27 1
28 22 28 1
29 22 29 1
30 30 31 1
31 30 36 1
32 31 32 1
33 31 34 1
34 31 37 1
35 32 33 2
36 32 44 1
37 34 35 1
38 35 36 1
39 34 38 1
40 34 39 1
41 35 40 1
42 35 41 1
43 36 42 1
44 36 43 1
45 44 45 1
46 44 53 1
47 45 46 1
48 45 48 1
49 45 54 1
50 46 47 2
51 46 59 1
52 48 49 1
53 49 50 1
54 50 51 2
55 50 52 1
56 48 55 1
57 48 56 1
58 49 57 1
59 49 58 1
60 59 60 1
61 59 65 1
62 60 61 1
63 60 63 1
64 60 66 1
65 61 62 2
66 61 70 1
67 63 64 1
68 63 67 1
69 63 68 1
70 64 69 1
71 70 71 1
72 70 78 1
73 71 72 1
74 71 74 1
75 71 79 1
76 72 73 2
77 72 89 1
78 74 75 1
79 74 76 1
80 75 77 1
81 74 80 1
82 75 81 1
83 75 82 1
84 76 83 1
85 76 84 1
86 76 85 1
87 77 86 1
88 77 87 1
89 77 88 1
90 89 90 1
91 89 97 1
92 90 91 1
93 90 93 1
94 90 98 1
95 91 92 2
96 91 108 1
97 93 94 1
98 94 95 1
99 94 96 1
100 93 99 1
101 93 100 1
102 94 101 1
103 95 102 1
104 95 103 1
105 95 104 1
106 96 105 1
107 96 106 1
108 96 107 1
109 108 109 1
110 108 116 1
111 109 110 1
112 109 112 1
113 109 117 1
114 110 111 2
115 110 120 1
116 112 113 1
117 113 114 2
118 113 115 1
119 112 118 1
120 112 119 1
121 120 121 1
122 120 129 1
123 121 122 1
124 121 124 1
125 121 130 1
126 122 123 2
127 122 135 1
128 124 125 1
129 125 126 1
130 126 127 2
131 126 128 1
132 124 131 1
133 124 132 1
134 125 133 1
135 125 134 1
136 135 136 1
137 135 145 1
138 136 137 1
139 136 139 1
140 136 146 1
141 137 138 2
142 137 152 1
143 139 140 1
144 140 141 2
145 141 144 1
146 140 142 1
147 142 143 2
148 143 144 1
149 139 147 1
150 139 148 1
151 141 149 1
152 143 150 1
153 144 151 1
154 152 153 1
155 152 159 1
156 153 154 1
157 153 156 1
158 153 160 1
159 154 155 2
160 154 168 1
161 156 157 1
162 156 158 1
163 156 161 1
164 157 162 1
165 157 163 1
166 157 164 1
167 158 165 1
168 158 166 1
169 158 167 1
170 168 169 1
171 168 177 1
172 169 170 1
173 169 172 1
174 169 178 1
175 170 171 2
176 170 185 1
177 172 173 1
178 173 174 1
179 174 175 1
180 174 176 2
181 172 179 1
182 172 180 1
183 173 181 1
184 173 182 1
185 175 183 1
186 175 184 1
187 185 186 1
188 185 196 1
189 186 187 1
190 186 189 1
191 186 197 1
192 187 188 2
193 187 209 1
194 189 190 1
195 190 191 1
196 191 192 1
197 192 193 1
198 193 194 2
199 193 195 1
200 189 198 1
201 189 199 1
202 190 200 1
203 190 201 1
204 191 202 1
205 191 203 1
206 192 204 1
207 194 205 1
208 194 206 1
209 195 207 1
210 195 208 1
211 209 210 1
212 209 216 1
213 210 211 1
214 210 213 1
215 210 217 1
216 211 212 2
217 211 225 1
218 213 214 1
219 213 215 1
220 213 218 1
221 214 219 1
222 214 220 1
223 214 221 1
224 215 222 1
225 215 223 1
226 215 224 1
227 225 226 1
228 225 234 1
229 226 227 1
230 226 229 1
231 226 235 1
232 227 228 2
233 227 242 1
234 229 230 1
235 230 231 1
236 231 232 1
237 231 233 2
238 229 236 1
239 229 237 1
240 230 238 1
241 230 239 1
242 232 240 1
243 232 241 1
244 242 243 1
245 242 253 1
246 243 244 1
247 243 246 1
248 243 254 1
249 244 245 2
250 246 247 1
251 247 248 1
252 248 249 1
253 249 250 1
254 250 251 2
255 250 252 1
256 246 255 1
257 246 256 1
258 247 257 1
259 247 258 1
260 248 259 1
261 248 260 1
262 249 261 1
263 251 262 1
264 251 263 1
265 252 264 1
266 252 265 1
@<TRIPOS>SUBSTRUCTURE
1	GLU1	1	RESIDUE	1 ****	GLU
2	ASN2	16	RESIDUE	1 ****	ASN
3	PRO3	30	RESIDUE	1 ****	PRO
4	GLU4	44	RESIDUE	1 ****	GLU
5	SER5	59	RESIDUE	1 ****	SER
6	ILE6	70	RESIDUE	1 ****	ILE
7	LEU7	89	RESIDUE	1 ****	LEU
8	ASP8	108	RESIDUE	1 ****	ASP
9	GLU9	120	RESIDUE	1 ****	GLU
10	HIS10	135	RESIDUE	1 ****	HIS
11	VAL11	152	RESIDUE	1 ****	VAL
12	GLN12	168	RESIDUE	1 ****	GLN
13	ARG13	185	RESIDUE	1 ****	ARG
14	VAL14	209	RESIDUE	1 ****	VAL
15	GLN15	225	RESIDUE	1 ****	GLN
16	ARG16	242	RESIDUE	1 ****	ARG
