@<TRIPOS>MOLECULE
11-12
260 261 16              
SMALL
USER_CHARGES
@<TRIPOS>ATOM
1	   N	1771.555	530.821	-1813.623	N.3	1	GLU1	-0.516	
2	  CA	1772.114	532.170	-1813.623	C.3	1	GLU1	0.040	
3	   C	1773.623	532.130	-1813.623	C.2	1	GLU1	0.537	
4	   O	1774.299	532.829	-1814.391	O.2	1	GLU1	-0.582	
5	  CB	1771.591	532.955	-1812.386	C.3	1	GLU1	0.056	
6	  CG	1772.066	534.440	-1812.275	C.3	1	GLU1	0.014	
7	  CD	1771.642	535.244	-1811.060	C.2	1	GLU1	0.805	
8	 OE1	1770.914	534.742	-1810.182	O.co2	1	GLU1	-0.819	
9	 OE2	1772.072	536.414	-1810.988	O.co2	1	GLU1	-0.819	
10	   H	1772.182	529.942	-1813.623	 H	1	GLU1	0.294	
11	  HA	1771.788	532.688	-1814.543	 H	1	GLU1	0.111	
12	 2HB	1771.880	532.424	-1811.456	 H	1	GLU1	-0.017	
13	 3HB	1770.484	532.945	-1812.373	 H	1	GLU1	-0.017	
14	 2HG	1771.756	535.025	-1813.156	 H	1	GLU1	-0.043	
15	 3HG	1773.166	534.507	-1812.246	 H	1	GLU1	-0.043	
16	   N	1774.228	531.344	-1812.797	N.am	2	ASN2	-0.416	
17	  CA	1775.687	531.306	-1812.797	C.3	2	ASN2	0.014	
18	   C	1776.218	530.950	-1814.166	C.2	2	ASN2	0.597	
19	   O	1777.133	531.580	-1814.695	O.2	2	ASN2	-0.568	
20	  CB	1776.179	530.282	-1811.733	C.3	2	ASN2	-0.204	
21	  CG	1775.716	530.506	-1810.290	C.2	2	ASN2	0.713	
22	 ND2	1776.310	531.421	-1809.572	N.pl3	2	ASN2	-0.919	
23	 OD1	1774.795	529.873	-1809.796	O.2	2	ASN2	-0.593	
24	   H	1773.700	530.765	-1812.161	 H	2	ASN2	0.272	
25	  HA	1776.064	532.316	-1812.552	 H	2	ASN2	0.105	
26	 2HB	1777.283	530.223	-1811.737	 H	2	ASN2	0.080	
27	 3HB	1775.850	529.264	-1812.019	 H	2	ASN2	0.080	
28	1HD2	1775.830	531.594	-1808.685	 H	2	ASN2	0.420	
29	2HD2	1777.012	531.993	-1810.041	 H	2	ASN2	0.420	
30	   N	1775.697	529.955	-1814.800	N.am	3	PRO3	-0.255	
31	  CA	1776.149	529.546	-1816.122	C.3	3	PRO3	-0.027	
32	   C	1775.750	530.569	-1817.199	C.2	3	PRO3	0.590	
33	   O	1776.574	530.952	-1818.030	O.2	3	PRO3	-0.575	
34	  CB	1775.444	528.191	-1816.291	C.3	3	PRO3	-0.007	
35	  CG	1774.161	528.343	-1815.461	C.3	3	PRO3	0.019	
36	  CD	1774.619	529.162	-1814.251	C.3	3	PRO3	0.019	
37	  HA	1777.234	529.426	-1816.135	 H	3	PRO3	0.064	
38	 2HB	1776.067	527.410	-1815.850	 H	3	PRO3	0.025	
39	 3HB	1775.246	527.942	-1817.336	 H	3	PRO3	0.025	
40	 2HG	1773.734	527.381	-1815.170	 H	3	PRO3	0.021	
41	 3HG	1773.424	528.914	-1816.028	 H	3	PRO3	0.021	
42	 2HD	1775.008	528.512	-1813.464	 H	3	PRO3	0.039	
43	 3HD	1773.822	529.798	-1813.858	 H	3	PRO3	0.039	
44	   N	1774.546	531.029	-1817.231	N.am	4	GLU4	-0.516	
45	  CA	1774.186	532.000	-1818.260	C.3	4	GLU4	0.040	
46	   C	1775.085	533.211	-1818.199	C.2	4	GLU4	0.537	
47	   O	1775.611	533.691	-1819.214	O.2	4	GLU4	-0.582	
48	  CB	1772.698	532.419	-1818.090	C.3	4	GLU4	0.056	
49	  CG	1772.150	533.423	-1819.156	C.3	4	GLU4	0.014	
50	  CD	1770.723	533.919	-1819.012	C.2	4	GLU4	0.805	
51	 OE1	1769.997	533.521	-1818.081	O.co2	4	GLU4	-0.819	
52	 OE2	1770.333	534.749	-1819.860	O.co2	4	GLU4	-0.819	
53	   H	1773.862	530.722	-1816.554	 H	4	GLU4	0.294	
54	  HA	1774.317	531.530	-1819.252	 H	4	GLU4	0.111	
55	 2HB	1772.545	532.859	-1817.083	 H	4	GLU4	-0.017	
56	 3HB	1772.050	531.521	-1818.097	 H	4	GLU4	-0.017	
57	 2HG	1772.231	533.008	-1820.174	 H	4	GLU4	-0.043	
58	 3HG	1772.738	534.355	-1819.167	 H	4	GLU4	-0.043	
59	   N	1775.312	533.764	-1817.056	N.am	5	SER5	-0.416	
60	  CA	1776.182	534.935	-1816.998	C.3	5	SER5	-0.025	
61	   C	1777.541	534.630	-1817.583	C.2	5	SER5	0.597	
62	   O	1778.088	535.383	-1818.388	O.2	5	SER5	-0.568	
63	  CB	1776.293	535.468	-1815.547	C.3	5	SER5	0.212	
64	  OG	1777.025	534.588	-1814.686	O.3	5	SER5	-0.655	
65	   H	1774.896	533.392	-1816.215	 H	5	SER5	0.272	
66	  HA	1775.732	535.725	-1817.627	 H	5	SER5	0.084	
67	 2HB	1775.294	535.661	-1815.114	 H	5	SER5	0.035	
68	 3HB	1776.799	536.453	-1815.550	 H	5	SER5	0.035	
69	  HG	1776.537	533.763	-1814.636	 H	5	SER5	0.428	
70	   N	1778.146	533.547	-1817.229	N.am	6	ILE6	-0.416	
71	  CA	1779.459	533.252	-1817.795	C.3	6	ILE6	-0.060	
72	   C	1779.402	533.214	-1819.303	C.2	6	ILE6	0.597	
73	   O	1780.236	533.802	-1820.007	O.2	6	ILE6	-0.568	
74	  CB	1780.059	531.916	-1817.195	C.3	6	ILE6	0.130	
75	 CG1	1780.078	531.854	-1815.634	C.3	6	ILE6	-0.043	
76	 CG2	1781.500	531.614	-1817.711	C.3	6	ILE6	-0.320	
77	 CD1	1780.348	530.465	-1815.019	C.3	6	ILE6	-0.066	
78	   H	1777.718	532.912	-1816.570	 H	6	ILE6	0.272	
79	  HA	1780.133	534.086	-1817.528	 H	6	ILE6	0.087	
80	  HB	1779.401	531.090	-1817.539	 H	6	ILE6	0.019	
81	2HG1	1779.096	532.173	-1815.239	 H	6	ILE6	0.024	
82	3HG1	1780.794	532.596	-1815.230	 H	6	ILE6	0.024	
83	1HG2	1781.559	531.521	-1818.809	 H	6	ILE6	0.088	
84	2HG2	1782.222	532.397	-1817.409	 H	6	ILE6	0.088	
85	3HG2	1781.890	530.652	-1817.332	 H	6	ILE6	0.088	
86	1HD1	1779.620	529.710	-1815.374	 H	6	ILE6	0.019	
87	2HD1	1781.359	530.086	-1815.255	 H	6	ILE6	0.019	
88	3HD1	1780.272	530.494	-1813.917	 H	6	ILE6	0.019	
89	   N	1778.456	532.551	-1819.877	N.am	7	LEU7	-0.416	
90	  CA	1778.401	532.515	-1821.335	C.3	7	LEU7	-0.052	
91	   C	1778.328	533.910	-1821.908	C.2	7	LEU7	0.597	
92	   O	1779.049	534.273	-1822.850	O.2	7	LEU7	-0.568	
93	  CB	1777.198	531.654	-1821.816	C.3	7	LEU7	-0.110	
94	  CG	1777.125	530.175	-1821.349	C.3	7	LEU7	0.353	
95	 CD1	1775.936	529.469	-1822.015	C.3	7	LEU7	-0.412	
96	 CD2	1778.419	529.396	-1821.641	C.3	7	LEU7	-0.412	
97	   H	1777.764	532.064	-1819.326	 H	7	LEU7	0.272	
98	  HA	1779.343	532.075	-1821.710	 H	7	LEU7	0.092	
99	 2HB	1777.175	531.670	-1822.923	 H	7	LEU7	0.046	
100	 3HB	1776.258	532.157	-1821.512	 H	7	LEU7	0.046	
101	  HG	1776.956	530.167	-1820.252	 H	7	LEU7	-0.036	
102	1HD1	1774.979	529.978	-1821.792	 H	7	LEU7	0.100	
103	2HD1	1776.035	529.429	-1823.116	 H	7	LEU7	0.100	
104	3HD1	1775.829	528.428	-1821.659	 H	7	LEU7	0.100	
105	1HD2	1778.694	529.426	-1822.711	 H	7	LEU7	0.100	
106	2HD2	1779.273	529.808	-1821.070	 H	7	LEU7	0.100	
107	3HD2	1778.338	528.334	-1821.345	 H	7	LEU7	0.100	
108	   N	1777.491	534.750	-1821.402	N.am	8	ASP8	-0.516	
109	  CA	1777.420	536.100	-1821.955	C.3	8	ASP8	0.038	
110	   C	1778.767	536.780	-1821.897	C.2	8	ASP8	0.537	
111	   O	1779.239	537.385	-1822.872	O.2	8	ASP8	-0.582	
112	  CB	1776.342	536.939	-1821.213	C.3	8	ASP8	-0.030	
113	  CG	1776.123	538.359	-1821.753	C.2	8	ASP8	0.799	
114	 OD1	1776.187	538.559	-1822.984	O.co2	8	ASP8	-0.801	
115	 OD2	1775.931	539.285	-1820.938	O.co2	8	ASP8	-0.801	
116	   H	1776.893	534.479	-1820.634	 H	8	ASP8	0.294	
117	  HA	1777.137	536.022	-1823.022	 H	8	ASP8	0.088	
118	 2HB	1776.599	537.022	-1820.141	 H	8	ASP8	-0.012	
119	 3HB	1775.363	536.433	-1821.246	 H	8	ASP8	-0.012	
120	   N	1779.447	536.730	-1820.802	N.am	9	GLU9	-0.516	
121	  CA	1780.749	537.388	-1820.747	C.3	9	GLU9	0.040	
122	   C	1781.667	536.861	-1821.822	C.2	9	GLU9	0.537	
123	   O	1782.331	537.616	-1822.547	O.2	9	GLU9	-0.582	
124	  CB	1781.382	537.180	-1819.341	C.3	9	GLU9	0.056	
125	  CG	1782.765	537.873	-1819.111	C.3	9	GLU9	0.014	
126	  CD	1783.466	537.660	-1817.783	C.2	9	GLU9	0.805	
127	 OE1	1782.945	536.968	-1816.887	O.co2	9	GLU9	-0.819	
128	 OE2	1784.585	538.198	-1817.651	O.co2	9	GLU9	-0.819	
129	   H	1779.083	536.243	-1819.995	 H	9	GLU9	0.294	
130	  HA	1780.607	538.470	-1820.922	 H	9	GLU9	0.111	
131	 2HB	1781.496	536.096	-1819.138	 H	9	GLU9	-0.017	
132	 3HB	1780.685	537.533	-1818.557	 H	9	GLU9	-0.017	
133	 2HG	1782.693	538.964	-1819.251	 H	9	GLU9	-0.043	
134	 3HG	1783.512	537.528	-1819.845	 H	9	GLU9	-0.043	
135	   N	1781.765	535.586	-1821.992	N.am	10	HIS10	-0.416	
136	  CA	1782.653	535.075	-1823.033	C.3	10	HIS10	-0.058	
137	   C	1782.286	535.640	-1824.384	C.2	10	HIS10	0.597	
138	   O	1783.138	536.106	-1825.155	O.2	10	HIS10	-0.568	
139	  CB	1782.490	533.546	-1823.028	C.3	10	HIS10	-0.007	
140	  CG	1783.776	532.837	-1822.720	C.2	10	HIS10	0.187	
141	 CD2	1784.156	532.501	-1821.428	C.2	10	HIS10	-0.221	
142	 ND1	1784.728	532.432	-1823.653	N.2	10	HIS10	-0.543	
143	 CE1	1785.635	531.873	-1822.829	C.2	10	HIS10	0.163	
144	 NE2	1785.372	531.870	-1821.494	N.pl3	10	HIS10	-0.280	
145	   H	1781.234	534.950	-1821.414	 H	10	HIS10	0.272	
146	  HA	1783.672	535.433	-1822.807	 H	10	HIS10	0.136	
147	 2HB	1782.125	533.180	-1824.008	 H	10	HIS10	0.037	
148	 3HB	1781.734	533.209	-1822.288	 H	10	HIS10	0.037	
149	 2HD	1783.570	532.716	-1820.539	 H	10	HIS10	0.186	
150	 1HE	1786.526	531.453	-1823.276	 H	10	HIS10	0.144	
151	 2HE	1785.938	531.493	-1820.721	 H	10	HIS10	0.334	
152	   N	1781.048	535.639	-1824.747	N.am	11	CYS11	-0.416	
153	  CA	1780.692	536.185	-1826.053	C.3	11	CYS11	0.021	
154	   C	1781.156	537.617	-1826.186	C.2	11	CYS11	0.597	
155	   O	1781.757	538.022	-1827.191	O.2	11	CYS11	-0.568	
156	  CB	1779.171	536.038	-1826.248	C.3	11	CYS11	-0.123	
157	  SG	1778.689	536.530	-1827.919	S.3	11	CYS11	-0.312	
158	   H	1780.335	535.265	-1824.136	 H	11	CYS11	0.272	
159	  HA	1781.216	535.597	-1826.829	 H	11	CYS11	0.112	
160	 2HB	1778.607	536.644	-1825.510	 H	11	CYS11	0.111	
161	 3HB	1778.847	534.993	-1826.095	 H	11	CYS11	0.111	
162	  HG	1778.147	537.700	-1827.591	 H	11	CYS11	0.193	
163	   N	1780.919	538.442	-1825.224	N.am	12	GLN12	-0.416	
164	  CA	1781.366	539.826	-1825.351	C.3	12	GLN12	-0.003	
165	   C	1782.856	539.894	-1825.590	C.2	12	GLN12	0.597	
166	   O	1783.342	540.602	-1826.469	O.2	12	GLN12	-0.568	
167	  CB	1780.975	540.593	-1824.069	C.3	12	GLN12	-0.004	
168	  CG	1781.334	542.115	-1824.038	C.3	12	GLN12	-0.064	
169	  CD	1781.032	542.928	-1822.773	C.2	12	GLN12	0.695	
170	 NE2	1780.465	542.352	-1821.744	N.pl3	12	GLN12	-0.941	
171	 OE1	1781.333	544.110	-1822.696	O.2	12	GLN12	-0.609	
172	   H	1780.430	538.136	-1824.394	 H	12	GLN12	0.272	
173	  HA	1780.866	540.281	-1826.226	 H	12	GLN12	0.085	
174	 2HB	1781.452	540.093	-1823.199	 H	12	GLN12	0.017	
175	 3HB	1779.885	540.485	-1823.905	 H	12	GLN12	0.017	
176	 2HG	1780.856	542.635	-1824.889	 H	12	GLN12	0.035	
177	 3HG	1782.418	542.258	-1824.204	 H	12	GLN12	0.035	
178	1HE2	1780.358	542.947	-1820.921	 H	12	GLN12	0.425	
179	2HE2	1780.303	541.348	-1821.847	 H	12	GLN12	0.425	
180	   N	1783.641	539.188	-1824.849	N.am	13	ARG13	-0.348	
181	  CA	1785.081	539.254	-1825.080	C.3	13	ARG13	-0.264	
182	   C	1785.417	538.883	-1826.505	C.2	13	ARG13	0.734	
183	   O	1786.185	539.555	-1827.190	O.2	13	ARG13	-0.589	
184	  CB	1785.796	538.316	-1824.066	C.3	13	ARG13	-0.001	
185	  CG	1787.341	538.470	-1823.986	C.3	13	ARG13	0.039	
186	  CD	1787.969	537.483	-1822.988	C.3	13	ARG13	0.049	
187	  NE	1789.446	537.691	-1822.938	N.pl3	13	ARG13	-0.530	
188	  CZ	1790.294	537.000	-1822.183	C.cat	13	ARG13	0.808	
189	 NH1	1789.930	536.036	-1821.385	N.pl3	13	ARG13	-0.863	
190	 NH2	1791.554	537.300	-1822.240	N.pl3	13	ARG13	-0.863	
191	   H	1783.266	538.598	-1824.120	 H	13	ARG13	0.275	
192	  HA	1785.405	540.301	-1824.922	 H	13	ARG13	0.156	
193	 2HB	1785.530	537.265	-1824.305	 H	13	ARG13	0.033	
194	 3HB	1785.371	538.483	-1823.056	 H	13	ARG13	0.033	
195	 2HG	1787.588	539.515	-1823.707	 H	13	ARG13	0.029	
196	 3HG	1787.791	538.314	-1824.987	 H	13	ARG13	0.029	
197	 2HD	1787.725	536.443	-1823.297	 H	13	ARG13	0.069	
198	 3HD	1787.512	537.629	-1821.985	 H	13	ARG13	0.069	
199	  HE	1789.896	538.414	-1823.509	 H	13	ARG13	0.346	
200	1HH1	1788.925	535.849	-1821.388	 H	13	ARG13	0.448	
201	2HH1	1790.644	535.553	-1820.837	 H	13	ARG13	0.448	
202	1HH2	1791.821	538.058	-1822.872	 H	13	ARG13	0.448	
203	2HH2	1792.189	536.760	-1821.652	 H	13	ARG13	0.448	
204	   N	1784.882	537.828	-1827.019	N.am	14	VAL14	-0.416	
205	  CA	1785.206	537.469	-1828.397	C.3	14	VAL14	-0.087	
206	   C	1784.875	538.598	-1829.342	C.2	14	VAL14	0.597	
207	   O	1785.668	538.981	-1830.212	O.2	14	VAL14	-0.568	
208	  CB	1784.435	536.151	-1828.803	C.3	14	VAL14	0.299	
209	 CG1	1784.523	535.733	-1830.297	C.3	14	VAL14	-0.319	
210	 CG2	1784.868	534.899	-1828.003	C.3	14	VAL14	-0.319	
211	   H	1784.247	537.259	-1826.477	 H	14	VAL14	0.272	
212	  HA	1786.295	537.293	-1828.472	 H	14	VAL14	0.097	
213	  HB	1783.358	536.322	-1828.587	 H	14	VAL14	-0.030	
214	1HG1	1785.565	535.556	-1830.626	 H	14	VAL14	0.079	
215	2HG1	1783.951	534.809	-1830.509	 H	14	VAL14	0.079	
216	3HG1	1784.094	536.495	-1830.975	 H	14	VAL14	0.079	
217	1HG2	1784.781	535.058	-1826.913	 H	14	VAL14	0.079	
218	2HG2	1784.232	534.023	-1828.235	 H	14	VAL14	0.079	
219	3HG2	1785.916	534.610	-1828.209	 H	14	VAL14	0.079	
220	   N	1783.730	539.183	-1829.240	N.am	15	MET15	-0.416	
221	  CA	1783.409	540.276	-1830.154	C.3	15	MET15	-0.024	
222	   C	1784.438	541.377	-1830.066	C.2	15	MET15	0.597	
223	   O	1784.940	541.888	-1831.079	O.2	15	MET15	-0.568	
224	  CB	1781.987	540.820	-1829.844	C.3	15	MET15	0.034	
225	  CG	1780.826	539.821	-1830.036	C.3	15	MET15	0.002	
226	  SD	1779.251	540.686	-1829.921	S.3	15	MET15	-0.274	
227	  CE	1778.171	539.256	-1829.784	C.3	15	MET15	-0.054	
228	   H	1783.066	538.890	-1828.538	 H	15	MET15	0.272	
229	  HA	1783.434	539.889	-1831.189	 H	15	MET15	0.088	
230	 2HB	1781.784	541.699	-1830.486	 H	15	MET15	0.024	
231	 3HB	1781.951	541.213	-1828.808	 H	15	MET15	0.024	
232	 2HG	1780.870	539.036	-1829.258	 H	15	MET15	0.044	
233	 3HG	1780.889	539.306	-1831.012	 H	15	MET15	0.044	
234	 1HE	1778.315	538.568	-1830.636	 H	15	MET15	0.068	
235	 2HE	1778.381	538.703	-1828.851	 H	15	MET15	0.068	
236	 3HE	1777.113	539.570	-1829.767	 H	15	MET15	0.068	
237	   N	1784.807	541.798	-1828.904	N.am	16	ARG16	-0.348	
238	  CA	1785.802	542.862	-1828.820	C.3	16	ARG16	-0.264	
239	   C	1787.073	542.471	-1829.537	C.2	16	ARG16	0.734	
240	   O	1787.188	541.395	-1830.118	O.2	16	ARG16	-0.589	
241	  CB	1786.072	543.181	-1827.322	C.3	16	ARG16	-0.001	
242	  CG	1786.896	544.470	-1827.049	C.3	16	ARG16	0.039	
243	  CD	1787.146	544.690	-1825.548	C.3	16	ARG16	0.049	
244	  NE	1787.921	545.949	-1825.347	N.pl3	16	ARG16	-0.530	
245	  CZ	1788.312	546.432	-1824.172	C.cat	16	ARG16	0.808	
246	 NH1	1788.065	545.847	-1823.033	N.pl3	16	ARG16	-0.863	
247	 NH2	1788.975	547.545	-1824.153	N.pl3	16	ARG16	-0.863	
248	   H	1784.413	541.397	-1828.064	 H	16	ARG16	0.275	
249	  HA	1785.392	543.755	-1829.330	 H	16	ARG16	0.156	
250	 2HB	1786.569	542.305	-1826.856	 H	16	ARG16	0.033	
251	 3HB	1785.103	543.261	-1826.788	 H	16	ARG16	0.033	
252	 2HG	1786.365	545.341	-1827.486	 H	16	ARG16	0.029	
253	 3HG	1787.869	544.418	-1827.579	 H	16	ARG16	0.029	
254	 2HD	1787.695	543.815	-1825.135	 H	16	ARG16	0.069	
255	 3HD	1786.173	544.732	-1825.013	 H	16	ARG16	0.069	
256	  HE	1788.199	546.531	-1826.145	 H	16	ARG16	0.346	
257	1HH1	1787.540	544.974	-1823.118	 H	16	ARG16	0.448	
258	2HH1	1788.399	546.283	-1822.172	 H	16	ARG16	0.448	
259	1HH2	1789.160	547.988	-1825.055	 H	16	ARG16	0.448	
260	2HH2	1789.265	547.900	-1823.241	 H	16	ARG16	0.448	
@<TRIPOS>BOND
1 1 2 1
2 1 10 1
3 2 3 1
4 2 5 1
5 2 11 1
6 3 4 2
7 3 16 1
8 5 6 1
9 6 7 1
10 7 8 2
11 7 9 1
12 5 12 1
13 5 13 1
14 6 14 1
15 6 15 1
16 16 17 1
17 16 24 1
18 17 18 1
19 17 20 1
20 17 25 1
21 18 19 2
22 18 30 1
23 20 21 1
24 21 22 1
25 21 23 2
26 20 26 1
27 20 27 1
28 22 28 1
29 22 29 1
30 30 31 1
31 30 36 1
32 31 32 1
33 31 34 1
34 31 37 1
35 32 33 2
36 32 44 1
37 34 35 1
38 35 36 1
39 34 38 1
40 34 39 1
41 35 40 1
42 35 41 1
43 36 42 1
44 36 43 1
45 44 45 1
46 44 53 1
47 45 46 1
48 45 48 1
49 45 54 1
50 46 47 2
51 46 59 1
52 48 49 1
53 49 50 1
54 50 51 2
55 50 52 1
56 48 55 1
57 48 56 1
58 49 57 1
59 49 58 1
60 59 60 1
61 59 65 1
62 60 61 1
63 60 63 1
64 60 66 1
65 61 62 2
66 61 70 1
67 63 64 1
68 63 67 1
69 63 68 1
70 64 69 1
71 70 71 1
72 70 78 1
73 71 72 1
74 71 74 1
75 71 79 1
76 72 73 2
77 72 89 1
78 74 75 1
79 74 76 1
80 75 77 1
81 74 80 1
82 75 81 1
83 75 82 1
84 76 83 1
85 76 84 1
86 76 85 1
87 77 86 1
88 77 87 1
89 77 88 1
90 89 90 1
91 89 97 1
92 90 91 1
93 90 93 1
94 90 98 1
95 91 92 2
96 91 108 1
97 93 94 1
98 94 95 1
99 94 96 1
100 93 99 1
101 93 100 1
102 94 101 1
103 95 102 1
104 95 103 1
105 95 104 1
106 96 105 1
107 96 106 1
108 96 107 1
109 108 109 1
110 108 116 1
111 109 110 1
112 109 112 1
113 109 117 1
114 110 111 2
115 110 120 1
116 112 113 1
117 113 114 2
118 113 115 1
119 112 118 1
120 112 119 1
121 120 121 1
122 120 129 1
123 121 122 1
124 121 124 1
125 121 130 1
126 122 123 2
127 122 135 1
128 124 125 1
129 125 126 1
130 126 127 2
131 126 128 1
132 124 131 1
133 124 132 1
134 125 133 1
135 125 134 1
136 135 136 1
137 135 145 1
138 136 137 1
139 136 139 1
140 136 146 1
141 137 138 2
142 137 152 1
143 139 140 1
144 140 141 2
145 141 144 1
146 140 142 1
147 142 143 2
148 143 144 1
149 139 147 1
150 139 148 1
151 141 149 1
152 143 150 1
153 144 151 1
154 152 153 1
155 152 158 1
156 153 154 1
157 153 156 1
158 153 159 1
159 154 155 2
160 154 163 1
161 156 157 1
162 156 160 1
163 156 161 1
164 157 162 1
165 163 164 1
166 163 172 1
167 164 165 1
168 164 167 1
169 164 173 1
170 165 166 2
171 165 180 1
172 167 168 1
173 168 169 1
174 169 170 1
175 169 171 2
176 167 174 1
177 167 175 1
178 168 176 1
179 168 177 1
180 170 178 1
181 170 179 1
182 180 181 1
183 180 191 1
184 181 182 1
185 181 184 1
186 181 192 1
187 182 183 2
188 182 204 1
189 184 185 1
190 185 186 1
191 186 187 1
192 187 188 1
193 188 189 2
194 188 190 1
195 184 193 1
196 184 194 1
197 185 195 1
198 185 196 1
199 186 197 1
200 186 198 1
201 187 199 1
202 189 200 1
203 189 201 1
204 190 202 1
205 190 203 1
206 204 205 1
207 204 211 1
208 205 206 1
209 205 208 1
210 205 212 1
211 206 207 2
212 206 220 1
213 208 209 1
214 208 210 1
215 208 213 1
216 209 214 1
217 209 215 1
218 209 216 1
219 210 217 1
220 210 218 1
221 210 219 1
222 220 221 1
223 220 228 1
224 221 222 1
225 221 224 1
226 221 229 1
227 222 223 2
228 222 237 1
229 224 225 1
230 225 226 1
231 226 227 1
232 224 230 1
233 224 231 1
234 225 232 1
235 225 233 1
236 227 234 1
237 227 235 1
238 227 236 1
239 237 238 1
240 237 248 1
241 238 239 1
242 238 241 1
243 238 249 1
244 239 240 2
245 241 242 1
246 242 243 1
247 243 244 1
248 244 245 1
249 245 246 2
250 245 247 1
251 241 250 1
252 241 251 1
253 242 252 1
254 242 253 1
255 243 254 1
256 243 255 1
257 244 256 1
258 246 257 1
259 246 258 1
260 247 259 1
261 247 260 1
@<TRIPOS>SUBSTRUCTURE
1	GLU1	1	RESIDUE	1 ****	GLU
2	ASN2	16	RESIDUE	1 ****	ASN
3	PRO3	30	RESIDUE	1 ****	PRO
4	GLU4	44	RESIDUE	1 ****	GLU
5	SER5	59	RESIDUE	1 ****	SER
6	ILE6	70	RESIDUE	1 ****	ILE
7	LEU7	89	RESIDUE	1 ****	LEU
8	ASP8	108	RESIDUE	1 ****	ASP
9	GLU9	120	RESIDUE	1 ****	GLU
10	HIS10	135	RESIDUE	1 ****	HIS
11	CYS11	152	RESIDUE	1 ****	CYS
12	GLN12	163	RESIDUE	1 ****	GLN
13	ARG13	180	RESIDUE	1 ****	ARG
14	VAL14	204	RESIDUE	1 ****	VAL
15	MET15	220	RESIDUE	1 ****	MET
16	ARG16	237	RESIDUE	1 ****	ARG
