@<TRIPOS>MOLECULE
15-10
272 275 16              
SMALL
USER_CHARGES
@<TRIPOS>ATOM
1	   N	2407.481	737.666	-2506.652	N.3	1	GLU1	-0.516	
2	  CA	2408.040	739.015	-2506.652	C.3	1	GLU1	0.040	
3	   C	2409.549	738.975	-2506.652	C.2	1	GLU1	0.537	
4	   O	2410.225	739.674	-2507.421	O.2	1	GLU1	-0.582	
5	  CB	2407.517	739.800	-2505.416	C.3	1	GLU1	0.056	
6	  CG	2407.992	741.285	-2505.304	C.3	1	GLU1	0.014	
7	  CD	2407.568	742.089	-2504.089	C.2	1	GLU1	0.805	
8	 OE1	2406.840	741.587	-2503.211	O.co2	1	GLU1	-0.819	
9	 OE2	2407.998	743.259	-2504.017	O.co2	1	GLU1	-0.819	
10	   H	2408.108	736.787	-2506.652	 H	1	GLU1	0.294	
11	  HA	2407.714	739.533	-2507.573	 H	1	GLU1	0.111	
12	 2HB	2407.806	739.269	-2504.485	 H	1	GLU1	-0.017	
13	 3HB	2406.410	739.790	-2505.402	 H	1	GLU1	-0.017	
14	 2HG	2407.682	741.870	-2506.185	 H	1	GLU1	-0.043	
15	 3HG	2409.092	741.352	-2505.275	 H	1	GLU1	-0.043	
16	   N	2410.154	738.189	-2505.827	N.am	2	ASN2	-0.416	
17	  CA	2411.613	738.150	-2505.827	C.3	2	ASN2	0.014	
18	   C	2412.145	737.794	-2507.196	C.2	2	ASN2	0.597	
19	   O	2413.060	738.424	-2507.724	O.2	2	ASN2	-0.568	
20	  CB	2412.105	737.127	-2504.762	C.3	2	ASN2	-0.204	
21	  CG	2411.641	737.351	-2503.319	C.2	2	ASN2	0.713	
22	 ND2	2412.235	738.265	-2502.601	N.pl3	2	ASN2	-0.919	
23	 OD1	2410.720	736.717	-2502.825	O.2	2	ASN2	-0.593	
24	   H	2409.625	737.609	-2505.191	 H	2	ASN2	0.272	
25	  HA	2411.991	739.159	-2505.582	 H	2	ASN2	0.105	
26	 2HB	2413.209	737.068	-2504.766	 H	2	ASN2	0.080	
27	 3HB	2411.776	736.108	-2505.048	 H	2	ASN2	0.080	
28	1HD2	2411.754	738.439	-2501.715	 H	2	ASN2	0.420	
29	2HD2	2412.937	738.837	-2503.070	 H	2	ASN2	0.420	
30	   N	2411.623	736.799	-2507.830	N.am	3	PRO3	-0.255	
31	  CA	2412.075	736.390	-2509.151	C.3	3	PRO3	-0.027	
32	   C	2411.677	737.414	-2510.228	C.2	3	PRO3	0.590	
33	   O	2412.501	737.797	-2511.060	O.2	3	PRO3	-0.575	
34	  CB	2411.371	735.035	-2509.321	C.3	3	PRO3	-0.007	
35	  CG	2410.087	735.188	-2508.491	C.3	3	PRO3	0.019	
36	  CD	2410.545	736.006	-2507.281	C.3	3	PRO3	0.019	
37	  HA	2413.161	736.270	-2509.165	 H	3	PRO3	0.064	
38	 2HB	2411.994	734.254	-2508.880	 H	3	PRO3	0.025	
39	 3HB	2411.173	734.787	-2510.366	 H	3	PRO3	0.025	
40	 2HG	2409.659	734.226	-2508.200	 H	3	PRO3	0.021	
41	 3HG	2409.350	735.759	-2509.059	 H	3	PRO3	0.021	
42	 2HD	2410.934	735.357	-2506.494	 H	3	PRO3	0.039	
43	 3HD	2409.748	736.642	-2506.888	 H	3	PRO3	0.039	
44	   N	2410.473	737.874	-2510.261	N.am	4	GLU4	-0.516	
45	  CA	2410.114	738.845	-2511.291	C.3	4	GLU4	0.040	
46	   C	2411.013	740.056	-2511.229	C.2	4	GLU4	0.537	
47	   O	2411.540	740.535	-2512.243	O.2	4	GLU4	-0.582	
48	  CB	2408.625	739.264	-2511.121	C.3	4	GLU4	0.056	
49	  CG	2408.078	740.268	-2512.187	C.3	4	GLU4	0.014	
50	  CD	2406.651	740.765	-2512.044	C.2	4	GLU4	0.805	
51	 OE1	2405.924	740.367	-2511.113	O.co2	4	GLU4	-0.819	
52	 OE2	2406.262	741.594	-2512.892	O.co2	4	GLU4	-0.819	
53	   H	2409.788	737.567	-2509.584	 H	4	GLU4	0.294	
54	  HA	2410.245	738.374	-2512.282	 H	4	GLU4	0.111	
55	 2HB	2408.472	739.704	-2510.115	 H	4	GLU4	-0.017	
56	 3HB	2407.977	738.366	-2511.127	 H	4	GLU4	-0.017	
57	 2HG	2408.159	739.853	-2513.205	 H	4	GLU4	-0.043	
58	 3HG	2408.666	741.200	-2512.198	 H	4	GLU4	-0.043	
59	   N	2411.240	740.608	-2510.086	N.am	5	SER5	-0.416	
60	  CA	2412.110	741.779	-2510.027	C.3	5	SER5	-0.025	
61	   C	2413.469	741.473	-2510.612	C.2	5	SER5	0.597	
62	   O	2414.016	742.227	-2511.417	O.2	5	SER5	-0.568	
63	  CB	2412.221	742.311	-2508.577	C.3	5	SER5	0.212	
64	  OG	2412.952	741.432	-2507.716	O.3	5	SER5	-0.655	
65	   H	2410.822	740.237	-2509.245	 H	5	SER5	0.272	
66	  HA	2411.661	742.570	-2510.656	 H	5	SER5	0.084	
67	 2HB	2411.221	742.505	-2508.144	 H	5	SER5	0.035	
68	 3HB	2412.726	743.297	-2508.579	 H	5	SER5	0.035	
69	  HG	2412.463	740.607	-2507.665	 H	5	SER5	0.428	
70	   N	2414.073	740.390	-2510.258	N.am	6	ILE6	-0.416	
71	  CA	2415.386	740.094	-2510.824	C.3	6	ILE6	-0.060	
72	   C	2415.329	740.057	-2512.332	C.2	6	ILE6	0.597	
73	   O	2416.164	740.644	-2513.036	O.2	6	ILE6	-0.568	
74	  CB	2415.985	738.758	-2510.224	C.3	6	ILE6	0.130	
75	 CG1	2416.004	738.696	-2508.663	C.3	6	ILE6	-0.043	
76	 CG2	2417.426	738.456	-2510.739	C.3	6	ILE6	-0.320	
77	 CD1	2416.273	737.307	-2508.048	C.3	6	ILE6	-0.066	
78	   H	2413.644	739.756	-2509.599	 H	6	ILE6	0.272	
79	  HA	2416.060	740.928	-2510.556	 H	6	ILE6	0.087	
80	  HB	2415.327	737.932	-2510.568	 H	6	ILE6	0.019	
81	2HG1	2415.022	739.016	-2508.267	 H	6	ILE6	0.024	
82	3HG1	2416.720	739.438	-2508.258	 H	6	ILE6	0.024	
83	1HG2	2417.485	738.362	-2511.837	 H	6	ILE6	0.088	
84	2HG2	2418.149	739.238	-2510.436	 H	6	ILE6	0.088	
85	3HG2	2417.816	737.494	-2510.360	 H	6	ILE6	0.088	
86	1HD1	2415.545	736.553	-2508.403	 H	6	ILE6	0.019	
87	2HD1	2417.284	736.928	-2508.283	 H	6	ILE6	0.019	
88	3HD1	2416.197	737.337	-2506.945	 H	6	ILE6	0.019	
89	   N	2414.383	739.394	-2512.905	N.am	7	LEU7	-0.416	
90	  CA	2414.328	739.357	-2514.364	C.3	7	LEU7	-0.052	
91	   C	2414.256	740.753	-2514.937	C.2	7	LEU7	0.597	
92	   O	2414.977	741.115	-2515.879	O.2	7	LEU7	-0.568	
93	  CB	2413.125	738.498	-2514.844	C.3	7	LEU7	-0.110	
94	  CG	2413.051	737.018	-2514.378	C.3	7	LEU7	0.353	
95	 CD1	2411.861	736.313	-2515.043	C.3	7	LEU7	-0.412	
96	 CD2	2414.345	736.239	-2514.669	C.3	7	LEU7	-0.412	
97	   H	2413.691	738.907	-2512.354	 H	7	LEU7	0.272	
98	  HA	2415.270	738.917	-2514.738	 H	7	LEU7	0.092	
99	 2HB	2413.101	738.513	-2515.952	 H	7	LEU7	0.046	
100	 3HB	2412.185	739.000	-2514.540	 H	7	LEU7	0.046	
101	  HG	2412.881	737.010	-2513.281	 H	7	LEU7	-0.036	
102	1HD1	2410.904	736.822	-2514.821	 H	7	LEU7	0.100	
103	2HD1	2411.960	736.272	-2516.145	 H	7	LEU7	0.100	
104	3HD1	2411.754	735.272	-2514.687	 H	7	LEU7	0.100	
105	1HD2	2414.620	736.269	-2515.739	 H	7	LEU7	0.100	
106	2HD2	2415.198	736.650	-2514.098	 H	7	LEU7	0.100	
107	3HD2	2414.263	735.176	-2514.373	 H	7	LEU7	0.100	
108	   N	2413.419	741.594	-2514.431	N.am	8	ASP8	-0.516	
109	  CA	2413.349	742.943	-2514.985	C.3	8	ASP8	0.038	
110	   C	2414.696	743.622	-2514.928	C.2	8	ASP8	0.537	
111	   O	2415.169	744.227	-2515.903	O.2	8	ASP8	-0.582	
112	  CB	2412.271	743.783	-2514.244	C.3	8	ASP8	-0.030	
113	  CG	2412.053	745.204	-2514.785	C.2	8	ASP8	0.799	
114	 OD1	2412.118	745.402	-2516.016	O.co2	8	ASP8	-0.801	
115	 OD2	2411.862	746.130	-2513.970	O.co2	8	ASP8	-0.801	
116	   H	2412.821	741.324	-2513.663	 H	8	ASP8	0.294	
117	  HA	2413.066	742.865	-2516.052	 H	8	ASP8	0.088	
118	 2HB	2412.529	743.867	-2513.172	 H	8	ASP8	-0.012	
119	 3HB	2411.292	743.279	-2514.277	 H	8	ASP8	-0.012	
120	   N	2415.376	743.573	-2513.833	N.am	9	GLU9	-0.516	
121	  CA	2416.679	744.230	-2513.778	C.3	9	GLU9	0.040	
122	   C	2417.597	743.701	-2514.854	C.2	9	GLU9	0.537	
123	   O	2418.261	744.455	-2515.580	O.2	9	GLU9	-0.582	
124	  CB	2417.313	744.022	-2512.373	C.3	9	GLU9	0.056	
125	  CG	2418.696	744.714	-2512.144	C.3	9	GLU9	0.014	
126	  CD	2419.398	744.501	-2510.816	C.2	9	GLU9	0.805	
127	 OE1	2418.876	743.811	-2509.919	O.co2	9	GLU9	-0.819	
128	 OE2	2420.517	745.039	-2510.685	O.co2	9	GLU9	-0.819	
129	   H	2415.013	743.087	-2513.026	 H	9	GLU9	0.294	
130	  HA	2416.538	745.312	-2513.954	 H	9	GLU9	0.111	
131	 2HB	2417.425	742.938	-2512.169	 H	9	GLU9	-0.017	
132	 3HB	2416.616	744.377	-2511.589	 H	9	GLU9	-0.017	
133	 2HG	2418.624	745.805	-2512.284	 H	9	GLU9	-0.043	
134	 3HG	2419.442	744.369	-2512.878	 H	9	GLU9	-0.043	
135	   N	2417.693	742.426	-2515.023	N.am	10	HIS10	-0.416	
136	  CA	2418.580	741.914	-2516.063	C.3	10	HIS10	-0.058	
137	   C	2418.213	742.478	-2517.415	C.2	10	HIS10	0.597	
138	   O	2419.066	742.942	-2518.187	O.2	10	HIS10	-0.568	
139	  CB	2418.416	740.385	-2516.058	C.3	10	HIS10	-0.007	
140	  CG	2419.701	739.674	-2515.750	C.2	10	HIS10	0.187	
141	 CD2	2420.082	739.339	-2514.457	C.2	10	HIS10	-0.221	
142	 ND1	2420.652	739.267	-2516.682	N.2	10	HIS10	-0.543	
143	 CE1	2421.559	738.709	-2515.859	C.2	10	HIS10	0.163	
144	 NE2	2421.297	738.707	-2514.524	N.pl3	10	HIS10	-0.280	
145	   H	2417.162	741.791	-2514.444	 H	10	HIS10	0.272	
146	  HA	2419.600	742.271	-2515.839	 H	10	HIS10	0.136	
147	 2HB	2418.050	740.017	-2517.037	 H	10	HIS10	0.037	
148	 3HB	2417.660	740.048	-2515.317	 H	10	HIS10	0.037	
149	 2HD	2419.497	739.555	-2513.568	 H	10	HIS10	0.186	
150	 1HE	2422.449	738.287	-2516.306	 H	10	HIS10	0.144	
151	 2HE	2421.864	738.330	-2513.751	 H	10	HIS10	0.334	
152	   N	2416.975	742.477	-2517.778	N.am	11	VAL11	-0.416	
153	  CA	2416.620	743.023	-2519.085	C.3	11	VAL11	-0.087	
154	   C	2417.085	744.453	-2519.218	C.2	11	VAL11	0.597	
155	   O	2417.687	744.857	-2520.221	O.2	11	VAL11	-0.568	
156	  CB	2415.059	742.917	-2519.304	C.3	11	VAL11	0.299	
157	 CG1	2414.490	743.620	-2520.567	C.3	11	VAL11	-0.319	
158	 CG2	2414.534	741.463	-2519.376	C.3	11	VAL11	-0.319	
159	   H	2416.262	742.105	-2517.167	 H	11	VAL11	0.272	
160	  HA	2417.139	742.440	-2519.867	 H	11	VAL11	0.097	
161	  HB	2414.572	743.398	-2518.429	 H	11	VAL11	-0.030	
162	1HG1	2414.929	743.228	-2521.504	 H	11	VAL11	0.079	
163	2HG1	2413.391	743.513	-2520.649	 H	11	VAL11	0.079	
164	3HG1	2414.669	744.713	-2520.558	 H	11	VAL11	0.079	
165	1HG2	2414.823	740.876	-2518.485	 H	11	VAL11	0.079	
166	2HG2	2413.428	741.426	-2519.418	 H	11	VAL11	0.079	
167	3HG2	2414.915	740.921	-2520.262	 H	11	VAL11	0.079	
168	   N	2416.849	745.279	-2518.256	N.am	12	GLN12	-0.416	
169	  CA	2417.298	746.662	-2518.384	C.3	12	GLN12	-0.003	
170	   C	2418.788	746.728	-2518.622	C.2	12	GLN12	0.597	
171	   O	2419.275	747.436	-2519.501	O.2	12	GLN12	-0.568	
172	  CB	2416.908	747.430	-2517.102	C.3	12	GLN12	-0.004	
173	  CG	2417.269	748.952	-2517.071	C.3	12	GLN12	-0.064	
174	  CD	2416.968	749.766	-2515.807	C.2	12	GLN12	0.695	
175	 NE2	2416.401	749.191	-2514.778	N.pl3	12	GLN12	-0.941	
176	 OE1	2417.270	750.947	-2515.730	O.2	12	GLN12	-0.609	
177	   H	2416.360	744.974	-2517.427	 H	12	GLN12	0.272	
178	  HA	2416.799	747.118	-2519.259	 H	12	GLN12	0.085	
179	 2HB	2417.384	746.930	-2516.232	 H	12	GLN12	0.017	
180	 3HB	2415.818	747.324	-2516.938	 H	12	GLN12	0.017	
181	 2HG	2416.792	749.473	-2517.922	 H	12	GLN12	0.035	
182	 3HG	2418.353	749.093	-2517.237	 H	12	GLN12	0.035	
183	1HE2	2416.294	749.786	-2513.954	 H	12	GLN12	0.425	
184	2HE2	2416.236	748.187	-2514.880	 H	12	GLN12	0.425	
185	   N	2419.573	746.022	-2517.881	N.am	13	ARG13	-0.348	
186	  CA	2421.013	746.087	-2518.112	C.3	13	ARG13	-0.264	
187	   C	2421.349	745.714	-2519.537	C.2	13	ARG13	0.734	
188	   O	2422.117	746.385	-2520.222	O.2	13	ARG13	-0.589	
189	  CB	2421.726	745.148	-2517.098	C.3	13	ARG13	-0.001	
190	  CG	2423.271	745.301	-2517.017	C.3	13	ARG13	0.039	
191	  CD	2423.898	744.314	-2516.019	C.3	13	ARG13	0.049	
192	  NE	2425.375	744.521	-2515.969	N.pl3	13	ARG13	-0.530	
193	  CZ	2426.224	743.830	-2515.214	C.cat	13	ARG13	0.808	
194	 NH1	2425.859	742.866	-2514.415	N.pl3	13	ARG13	-0.863	
195	 NH2	2427.483	744.128	-2515.271	N.pl3	13	ARG13	-0.863	
196	   H	2419.196	745.432	-2517.152	 H	13	ARG13	0.275	
197	  HA	2421.338	747.133	-2517.955	 H	13	ARG13	0.156	
198	 2HB	2421.460	744.098	-2517.336	 H	13	ARG13	0.033	
199	 3HB	2421.301	745.316	-2516.087	 H	13	ARG13	0.033	
200	 2HG	2423.520	746.346	-2516.739	 H	13	ARG13	0.029	
201	 3HG	2423.722	745.144	-2518.019	 H	13	ARG13	0.029	
202	 2HD	2423.653	743.274	-2516.327	 H	13	ARG13	0.069	
203	 3HD	2423.442	744.461	-2515.016	 H	13	ARG13	0.069	
204	  HE	2425.827	745.242	-2516.541	 H	13	ARG13	0.346	
205	1HH1	2424.853	742.680	-2514.418	 H	13	ARG13	0.448	
206	2HH1	2426.572	742.383	-2513.866	 H	13	ARG13	0.448	
207	1HH2	2427.751	744.886	-2515.903	 H	13	ARG13	0.448	
208	2HH2	2428.119	743.587	-2514.682	 H	13	ARG13	0.448	
209	   N	2420.812	744.660	-2520.051	N.am	14	VAL14	-0.416	
210	  CA	2421.136	744.299	-2521.428	C.3	14	VAL14	-0.087	
211	   C	2420.807	745.429	-2522.374	C.2	14	VAL14	0.597	
212	   O	2421.600	745.810	-2523.244	O.2	14	VAL14	-0.568	
213	  CB	2420.364	742.982	-2521.834	C.3	14	VAL14	0.299	
214	 CG1	2420.452	742.563	-2523.327	C.3	14	VAL14	-0.319	
215	 CG2	2420.795	741.730	-2521.033	C.3	14	VAL14	-0.319	
216	   H	2420.177	744.091	-2519.508	 H	14	VAL14	0.272	
217	  HA	2422.225	744.122	-2521.503	 H	14	VAL14	0.097	
218	  HB	2419.287	743.154	-2521.618	 H	14	VAL14	-0.030	
219	1HG1	2421.493	742.386	-2523.656	 H	14	VAL14	0.079	
220	2HG1	2419.879	741.640	-2523.539	 H	14	VAL14	0.079	
221	3HG1	2420.023	743.325	-2524.006	 H	14	VAL14	0.079	
222	1HG2	2420.708	741.890	-2519.942	 H	14	VAL14	0.079	
223	2HG2	2420.159	740.854	-2521.264	 H	14	VAL14	0.079	
224	3HG2	2421.843	741.440	-2521.239	 H	14	VAL14	0.079	
225	   N	2419.662	746.015	-2522.272	N.am	15	TRP15	-0.416	
226	  CA	2419.342	747.108	-2523.186	C.3	15	TRP15	-0.027	
227	   C	2420.374	748.208	-2523.098	C.2	15	TRP15	0.597	
228	   O	2420.874	748.714	-2524.102	O.2	15	TRP15	-0.568	
229	  CB	2417.939	747.674	-2522.831	C.3	15	TRP15	-0.005	
230	  CG	2416.778	746.705	-2523.068	C.2	15	TRP15	-0.141	
231	 CD1	2416.178	745.885	-2522.089	C.2	15	TRP15	-0.164	
232	 CD2	2416.166	746.378	-2524.260	C.2	15	TRP15	0.124	
233	 CE2	2415.204	745.373	-2523.994	C.2	15	TRP15	0.138	
234	 CE3	2416.374	746.847	-2525.583	C.2	15	TRP15	-0.239	
235	 NE1	2415.191	745.049	-2522.646	N.pl3	15	TRP15	-0.342	
236	 CZ2	2414.433	744.837	-2525.049	C.2	15	TRP15	-0.260	
237	 CZ3	2415.595	746.307	-2526.607	C.2	15	TRP15	-0.197	
238	 CH2	2414.636	745.318	-2526.345	C.2	15	TRP15	-0.113	
239	   H	2418.997	745.723	-2521.570	 H	15	TRP15	0.272	
240	  HA	2419.349	746.725	-2524.225	 H	15	TRP15	0.112	
241	 2HB	2417.735	748.589	-2523.419	 H	15	TRP15	0.034	
242	 3HB	2417.923	748.017	-2521.777	 H	15	TRP15	0.034	
243	 1HD	2416.478	745.870	-2521.049	 H	15	TRP15	0.206	
244	 1HE	2414.628	744.331	-2522.177	 H	15	TRP15	0.341	
245	 3HE	2417.115	747.604	-2525.796	 H	15	TRP15	0.170	
246	 2HZ	2413.699	744.070	-2524.852	 H	15	TRP15	0.157	
247	 3HZ	2415.735	746.659	-2527.619	 H	15	TRP15	0.145	
248	 2HH	2414.046	744.923	-2527.157	 H	15	TRP15	0.142	
249	   N	2420.743	748.628	-2521.936	N.am	16	ARG16	-0.348	
250	  CA	2421.740	749.691	-2521.852	C.3	16	ARG16	-0.264	
251	   C	2423.011	749.298	-2522.567	C.2	16	ARG16	0.734	
252	   O	2423.124	748.221	-2523.149	O.2	16	ARG16	-0.589	
253	  CB	2422.009	750.009	-2520.353	C.3	16	ARG16	-0.001	
254	  CG	2422.835	751.297	-2520.080	C.3	16	ARG16	0.039	
255	  CD	2423.084	751.517	-2518.579	C.3	16	ARG16	0.049	
256	  NE	2423.862	752.775	-2518.377	N.pl3	16	ARG16	-0.530	
257	  CZ	2424.253	753.257	-2517.202	C.cat	16	ARG16	0.808	
258	 NH1	2424.004	752.672	-2516.063	N.pl3	16	ARG16	-0.863	
259	 NH2	2424.918	754.369	-2517.183	N.pl3	16	ARG16	-0.863	
260	   H	2420.347	748.229	-2521.097	 H	16	ARG16	0.275	
261	  HA	2421.332	750.585	-2522.362	 H	16	ARG16	0.156	
262	 2HB	2422.505	749.133	-2519.886	 H	16	ARG16	0.033	
263	 3HB	2421.040	750.091	-2519.820	 H	16	ARG16	0.033	
264	 2HG	2422.306	752.169	-2520.517	 H	16	ARG16	0.029	
265	 3HG	2423.809	751.244	-2520.609	 H	16	ARG16	0.029	
266	 2HD	2423.632	750.641	-2518.165	 H	16	ARG16	0.069	
267	 3HD	2422.112	751.560	-2518.044	 H	16	ARG16	0.069	
268	  HE	2424.141	753.356	-2519.175	 H	16	ARG16	0.346	
269	1HH1	2423.478	751.800	-2516.148	 H	16	ARG16	0.448	
270	2HH1	2424.339	753.108	-2515.202	 H	16	ARG16	0.448	
271	1HH2	2425.104	754.812	-2518.085	 H	16	ARG16	0.448	
272	2HH2	2425.208	754.724	-2516.270	 H	16	ARG16	0.448	
@<TRIPOS>BOND
1 1 2 1
2 1 10 1
3 2 3 1
4 2 5 1
5 2 11 1
6 3 4 2
7 3 16 1
8 5 6 1
9 6 7 1
10 7 8 2
11 7 9 1
12 5 12 1
13 5 13 1
14 6 14 1
15 6 15 1
16 16 17 1
17 16 24 1
18 17 18 1
19 17 20 1
20 17 25 1
21 18 19 2
22 18 30 1
23 20 21 1
24 21 22 1
25 21 23 2
26 20 26 1
27 20 27 1
28 22 28 1
29 22 29 1
30 30 31 1
31 30 36 1
32 31 32 1
33 31 34 1
34 31 37 1
35 32 33 2
36 32 44 1
37 34 35 1
38 35 36 1
39 34 38 1
40 34 39 1
41 35 40 1
42 35 41 1
43 36 42 1
44 36 43 1
45 44 45 1
46 44 53 1
47 45 46 1
48 45 48 1
49 45 54 1
50 46 47 2
51 46 59 1
52 48 49 1
53 49 50 1
54 50 51 2
55 50 52 1
56 48 55 1
57 48 56 1
58 49 57 1
59 49 58 1
60 59 60 1
61 59 65 1
62 60 61 1
63 60 63 1
64 60 66 1
65 61 62 2
66 61 70 1
67 63 64 1
68 63 67 1
69 63 68 1
70 64 69 1
71 70 71 1
72 70 78 1
73 71 72 1
74 71 74 1
75 71 79 1
76 72 73 2
77 72 89 1
78 74 75 1
79 74 76 1
80 75 77 1
81 74 80 1
82 75 81 1
83 75 82 1
84 76 83 1
85 76 84 1
86 76 85 1
87 77 86 1
88 77 87 1
89 77 88 1
90 89 90 1
91 89 97 1
92 90 91 1
93 90 93 1
94 90 98 1
95 91 92 2
96 91 108 1
97 93 94 1
98 94 95 1
99 94 96 1
100 93 99 1
101 93 100 1
102 94 101 1
103 95 102 1
104 95 103 1
105 95 104 1
106 96 105 1
107 96 106 1
108 96 107 1
109 108 109 1
110 108 116 1
111 109 110 1
112 109 112 1
113 109 117 1
114 110 111 2
115 110 120 1
116 112 113 1
117 113 114 2
118 113 115 1
119 112 118 1
120 112 119 1
121 120 121 1
122 120 129 1
123 121 122 1
124 121 124 1
125 121 130 1
126 122 123 2
127 122 135 1
128 124 125 1
129 125 126 1
130 126 127 2
131 126 128 1
132 124 131 1
133 124 132 1
134 125 133 1
135 125 134 1
136 135 136 1
137 135 145 1
138 136 137 1
139 136 139 1
140 136 146 1
141 137 138 2
142 137 152 1
143 139 140 1
144 140 141 2
145 141 144 1
146 140 142 1
147 142 143 2
148 143 144 1
149 139 147 1
150 139 148 1
151 141 149 1
152 143 150 1
153 144 151 1
154 152 153 1
155 152 159 1
156 153 154 1
157 153 156 1
158 153 160 1
159 154 155 2
160 154 168 1
161 156 157 1
162 156 158 1
163 156 161 1
164 157 162 1
165 157 163 1
166 157 164 1
167 158 165 1
168 158 166 1
169 158 167 1
170 168 169 1
171 168 177 1
172 169 170 1
173 169 172 1
174 169 178 1
175 170 171 2
176 170 185 1
177 172 173 1
178 173 174 1
179 174 175 1
180 174 176 2
181 172 179 1
182 172 180 1
183 173 181 1
184 173 182 1
185 175 183 1
186 175 184 1
187 185 186 1
188 185 196 1
189 186 187 1
190 186 189 1
191 186 197 1
192 187 188 2
193 187 209 1
194 189 190 1
195 190 191 1
196 191 192 1
197 192 193 1
198 193 194 2
199 193 195 1
200 189 198 1
201 189 199 1
202 190 200 1
203 190 201 1
204 191 202 1
205 191 203 1
206 192 204 1
207 194 205 1
208 194 206 1
209 195 207 1
210 195 208 1
211 209 210 1
212 209 216 1
213 210 211 1
214 210 213 1
215 210 217 1
216 211 212 2
217 211 225 1
218 213 214 1
219 213 215 1
220 213 218 1
221 214 219 1
222 214 220 1
223 214 221 1
224 215 222 1
225 215 223 1
226 215 224 1
227 225 226 1
228 225 239 1
229 226 227 1
230 226 229 1
231 226 240 1
232 227 228 2
233 227 249 1
234 229 230 1
235 230 232 1
236 230 231 2
237 232 234 1
238 232 233 2
239 233 235 1
240 234 237 2
241 231 235 1
242 233 236 1
243 237 238 1
244 236 238 2
245 229 241 1
246 229 242 1
247 231 243 1
248 235 244 1
249 234 245 1
250 236 246 1
251 237 247 1
252 238 248 1
253 249 250 1
254 249 260 1
255 250 251 1
256 250 253 1
257 250 261 1
258 251 252 2
259 253 254 1
260 254 255 1
261 255 256 1
262 256 257 1
263 257 258 2
264 257 259 1
265 253 262 1
266 253 263 1
267 254 264 1
268 254 265 1
269 255 266 1
270 255 267 1
271 256 268 1
272 258 269 1
273 258 270 1
274 259 271 1
275 259 272 1
@<TRIPOS>SUBSTRUCTURE
1	GLU1	1	RESIDUE	1 ****	GLU
2	ASN2	16	RESIDUE	1 ****	ASN
3	PRO3	30	RESIDUE	1 ****	PRO
4	GLU4	44	RESIDUE	1 ****	GLU
5	SER5	59	RESIDUE	1 ****	SER
6	ILE6	70	RESIDUE	1 ****	ILE
7	LEU7	89	RESIDUE	1 ****	LEU
8	ASP8	108	RESIDUE	1 ****	ASP
9	GLU9	120	RESIDUE	1 ****	GLU
10	HIS10	135	RESIDUE	1 ****	HIS
11	VAL11	152	RESIDUE	1 ****	VAL
12	GLN12	168	RESIDUE	1 ****	GLN
13	ARG13	185	RESIDUE	1 ****	ARG
14	VAL14	209	RESIDUE	1 ****	VAL
15	TRP15	225	RESIDUE	1 ****	TRP
16	ARG16	249	RESIDUE	1 ****	ARG
