REMARK WARNING: 32 MAX_TORS EXCEEDED!!!
REMARK  68 active torsions:
REMARK  status: ('A' for Active; 'I' for Inactive)
REMARK    1  A    between atoms: N_1  and  CA_2 
REMARK    2  A    between atoms: CA_2  and  C_3 
REMARK    3  A    between atoms: CA_2  and  CB_5 
REMARK       I    between atoms: C_3  and  N_11 
REMARK    4  A    between atoms: CB_5  and  CG_6 
REMARK    5  A    between atoms: CG_6  and  CD_7 
REMARK    6  A    between atoms: N_11  and  CA_12 
REMARK    7  A    between atoms: CA_12  and  C_13 
REMARK    8  A    between atoms: CA_12  and  CB_15 
REMARK       I    between atoms: C_13  and  N_22 
REMARK    9  A    between atoms: CB_15  and  CG_16 
REMARK       I    between atoms: CG_16  and  ND2_17 
REMARK   10  A    between atoms: CA_23  and  C_24 
REMARK       I    between atoms: C_24  and  N_29 
REMARK   11  A    between atoms: N_29  and  CA_30 
REMARK   12  A    between atoms: CA_30  and  C_31 
REMARK   13  A    between atoms: CA_30  and  CB_33 
REMARK       I    between atoms: C_31  and  N_39 
REMARK   14  A    between atoms: CB_33  and  CG_34 
REMARK   15  A    between atoms: CG_34  and  CD_35 
REMARK   16  A    between atoms: N_39  and  CA_40 
REMARK   17  A    between atoms: CA_40  and  C_41 
REMARK   18  A    between atoms: CA_40  and  CB_43 
REMARK       I    between atoms: C_41  and  N_47 
REMARK   19  A    between atoms: CB_43  and  OG_44 
REMARK   20  A    between atoms: N_47  and  CA_48 
REMARK   21  A    between atoms: CA_48  and  C_49 
REMARK   22  A    between atoms: CA_48  and  CB_51 
REMARK       I    between atoms: C_49  and  N_56 
REMARK   23  A    between atoms: CB_51  and  CG1_52 
REMARK   24  A    between atoms: N_56  and  CA_57 
REMARK   25  A    between atoms: CA_57  and  C_58 
REMARK   26  A    between atoms: CA_57  and  CB_60 
REMARK       I    between atoms: C_58  and  N_65 
REMARK   27  A    between atoms: CB_60  and  CG_61 
REMARK   28  A    between atoms: N_65  and  CA_66 
REMARK   29  A    between atoms: CA_66  and  C_67 
REMARK   30  A    between atoms: CA_66  and  CB_69 
REMARK       I    between atoms: C_67  and  N_74 
REMARK   31  A    between atoms: CB_69  and  CG_70 
REMARK   32  A    between atoms: N_74  and  CA_75 
REMARK   33  A    between atoms: CA_75  and  C_76 
REMARK   34  A    between atoms: CA_75  and  CB_78 
REMARK       I    between atoms: C_76  and  N_84 
REMARK   35  A    between atoms: CB_78  and  CG_79 
REMARK   36  A    between atoms: CG_79  and  CD_80 
REMARK   37  A    between atoms: N_84  and  CA_85 
REMARK   38  A    between atoms: CA_85  and  C_86 
REMARK   39  A    between atoms: CA_85  and  CB_88 
REMARK       I    between atoms: C_86  and  N_96 
REMARK   40  A    between atoms: CB_88  and  CG_89 
REMARK   41  A    between atoms: N_96  and  CA_97 
REMARK   42  A    between atoms: CA_97  and  C_98 
REMARK   43  A    between atoms: CA_97  and  CB_100 
REMARK       I    between atoms: C_98  and  N_104 
REMARK   44  A    between atoms: N_104  and  CA_105 
REMARK   45  A    between atoms: CA_105  and  C_106 
REMARK   46  A    between atoms: CA_105  and  CB_108 
REMARK       I    between atoms: C_106  and  N_116 
REMARK   47  A    between atoms: CB_108  and  CG_109 
REMARK   48  A    between atoms: CG_109  and  CD_110 
REMARK       I    between atoms: CD_110  and  NE2_111 
REMARK   49  A    between atoms: N_116  and  CA_117 
REMARK   50  A    between atoms: CA_117  and  C_118 
REMARK   51  A    between atoms: CA_117  and  CB_120 
REMARK       I    between atoms: C_118  and  N_133 
REMARK   52  A    between atoms: CB_120  and  CG_121 
REMARK   53  A    between atoms: CG_121  and  CD_122 
REMARK   54  A    between atoms: CD_122  and  NE_123 
REMARK       I    between atoms: NE_123  and  CZ_124 
REMARK       I    between atoms: CZ_124  and  NH1_125 
REMARK       I    between atoms: CZ_124  and  NH2_126 
REMARK   55  A    between atoms: N_133  and  CA_134 
REMARK   56  A    between atoms: CA_134  and  C_135 
REMARK   57  A    between atoms: CA_134  and  CB_137 
REMARK       I    between atoms: C_135  and  N_141 
REMARK   58  A    between atoms: N_141  and  CA_142 
REMARK   59  A    between atoms: CA_142  and  C_143 
REMARK   60  A    between atoms: CA_142  and  CB_145 
REMARK       I    between atoms: C_143  and  N_150 
REMARK   61  A    between atoms: CB_145  and  CG_146 
REMARK   62  A    between atoms: CG_146  and  SD_147 
REMARK   63  A    between atoms: N_150  and  CA_151 
REMARK   64  A    between atoms: CA_151  and  C_152 
REMARK   65  A    between atoms: CA_151  and  CB_154 
REMARK   66  A    between atoms: CB_154  and  CG_155 
REMARK   67  A    between atoms: CG_155  and  CD_156 
REMARK   68  A    between atoms: CD_156  and  NE_157 
REMARK       I    between atoms: NE_157  and  CZ_158 
REMARK       I    between atoms: CZ_158  and  NH1_159 
ROOT
ATOM      1  C   GLU d   9     805.095 215.735-763.029  0.00  0.00     0.241 C 
ATOM      2  O   GLU d   9     805.759 216.490-763.754  0.00  0.00    -0.271 OA
ATOM      3  N   HIS d  10     805.192 214.460-763.198  0.00  0.00    -0.346 N 
ATOM      4  H   HIS d  10     804.662 213.824-762.620  0.00  0.00     0.163 HD
ENDROOT
BRANCH   1   5
ATOM      5  CA  GLU d   9     804.177 216.262-761.953  0.00  0.00     0.177 C 
BRANCH   5   6
ATOM      6  N   GLU d   9     802.874 215.604-762.009  0.00  0.00    -0.346 N 
ATOM      7  C   ASP d   8     802.195 215.654-763.104  0.00  0.00     0.241 C 
ATOM      8  O   ASP d   8     802.667 216.259-764.078  0.00  0.00    -0.271 OA
ATOM      9  H   GLU d   9     802.511 215.117-761.202  0.00  0.00     0.163 HD
BRANCH   7  10
ATOM     10  CA  ASP d   8     800.848 214.973-763.161  0.00  0.00     0.186 C 
BRANCH  10  11
ATOM     11  N   ASP d   8     800.919 213.624-762.608  0.00  0.00    -0.346 N 
ATOM     12  C   LEU d   7     801.757 212.784-763.115  0.00  0.00     0.241 C 
ATOM     13  O   LEU d   7     802.478 213.147-764.056  0.00  0.00    -0.271 OA
ATOM     14  H   ASP d   8     800.322 213.352-761.841  0.00  0.00     0.163 HD
BRANCH  12  15
ATOM     15  CA  LEU d   7     801.830 211.388-762.542  0.00  0.00     0.177 C 
BRANCH  15  16
ATOM     16  N   LEU d   7     801.885 211.424-761.084  0.00  0.00    -0.346 N 
ATOM     17  C   ILE d   6     802.830 212.088-760.510  0.00  0.00     0.241 C 
ATOM     18  O   ILE d   6     803.665 212.676-761.214  0.00  0.00    -0.271 OA
ATOM     19  H   LEU d   7     801.193 210.937-760.532  0.00  0.00     0.163 HD
BRANCH  17  20
ATOM     20  CA  ILE d   6     802.887 212.126-759.002  0.00  0.00     0.180 C 
BRANCH  20  21
ATOM     21  N   ILE d   6     801.574 212.420-758.436  0.00  0.00    -0.346 N 
ATOM     22  C   SER d   5     800.969 213.503-758.790  0.00  0.00     0.243 C 
ATOM     23  O   SER d   5     801.516 214.257-759.595  0.00  0.00    -0.271 OA
ATOM     24  H   ILE d   6     801.146 211.786-757.777  0.00  0.00     0.163 HD
BRANCH  22  25
ATOM     25  CA  SER d   5     799.610 213.809-758.205  0.00  0.00     0.200 C 
BRANCH  25  26
ATOM     26  N   SER d   5     798.741 212.637-758.263  0.00  0.00    -0.344 N 
ATOM     27  C   GLU d   4     798.514 212.084-759.406  0.00  0.00     0.241 C 
ATOM     28  O   GLU d   4     799.040 212.564-760.421  0.00  0.00    -0.271 OA
ATOM     29  H   SER d   5     798.324 212.266-757.422  0.00  0.00     0.163 HD
BRANCH  27  30
ATOM     30  CA  GLU d   4     797.615 210.873-759.467  0.00  0.00     0.177 C 
BRANCH  30  31
ATOM     31  N   GLU d   4     797.975 209.902-758.438  0.00  0.00    -0.346 N 
ATOM     32  C   PRO d   3     799.180 209.442-758.405  0.00  0.00     0.241 C 
ATOM     33  O   PRO d   3     800.003 209.826-759.237  0.00  0.00    -0.271 OA
ATOM     34  H   GLU d   4     797.291 209.595-757.761  0.00  0.00     0.163 HD
BRANCH  32  35
ATOM     35  CA  PRO d   3     799.578 208.419-757.328  0.00  0.00     0.179 C 
ATOM     36  N   PRO d   3     799.126 208.828-756.007  0.00  0.00    -0.337 N 
ATOM     37  C   ASN d   2     799.647 209.823-755.373  0.00  0.00     0.243 C 
ATOM     38  CD  PRO d   3     798.048 208.035-755.458  0.00  0.00     0.127 C 
ATOM     39  O   ASN d   2     800.562 210.454-755.901  0.00  0.00    -0.271 OA
ATOM     40  CG  PRO d   3     797.590 207.216-756.668  0.00  0.00     0.022 C 
ATOM     41  CB  PRO d   3     798.874 207.064-757.498  0.00  0.00     0.037 C 
BRANCH  37  42
ATOM     42  CA  ASN d   2     799.116 210.179-754.004  0.00  0.00     0.185 C 
BRANCH  42  43
ATOM     43  N   ASN d   2     797.657 210.217-754.004  0.00  0.00    -0.346 N 
ATOM     44  C   GLU d   1     797.052 211.003-754.829  0.00  0.00     0.242 C 
ATOM     45  O   GLU d   1     797.728 211.702-755.598  0.00  0.00    -0.271 OA
ATOM     46  H   ASN d   2     797.128 209.638-753.368  0.00  0.00     0.163 HD
BRANCH  44  47
ATOM     47  CA  GLU d   1     795.543 211.043-754.829  0.00  0.00     0.191 C 
BRANCH  47  48
ATOM     48  N   GLU d   1     794.984 209.694-754.829  0.00  0.00    -0.326 NA
ATOM     49  H   GLU d   1     795.611 208.815-754.829  0.00  0.00     0.180 HD
ENDBRANCH  47  48
BRANCH  47  50
ATOM     50  CB  GLU d   1     795.020 211.828-753.592  0.00  0.00     0.047 C 
BRANCH  50  51
ATOM     51  CG  GLU d   1     795.495 213.313-753.481  0.00  0.00     0.116 C 
BRANCH  51  52
ATOM     52  CD  GLU d   1     795.071 214.117-752.266  0.00  0.00     0.172 C 
ATOM     53  OE1 GLU d   1     794.343 213.615-751.388  0.00  0.00    -0.648 OA
ATOM     54  OE2 GLU d   1     795.501 215.287-752.194  0.00  0.00    -0.648 OA
ENDBRANCH  51  52
ENDBRANCH  50  51
ENDBRANCH  47  50
ENDBRANCH  44  47
ENDBRANCH  42  43
BRANCH  42  55
ATOM     55  CB  ASN d   2     799.608 209.156-752.940  0.00  0.00     0.137 C 
BRANCH  55  56
ATOM     56  CG  ASN d   2     799.145 209.380-751.497  0.00  0.00     0.217 C 
ATOM     57  ND2 ASN d   2     799.739 210.295-750.778  0.00  0.00    -0.370 N 
ATOM     58 21HD ASN d   2     799.259 210.467-749.892  0.00  0.00     0.159 HD
ATOM     59 22HD ASN d   2     800.441 210.866-751.248  0.00  0.00     0.159 HD
ATOM     60  OD1 ASN d   2     798.224 208.746-751.002  0.00  0.00    -0.274 OA
ENDBRANCH  55  56
ENDBRANCH  42  55
ENDBRANCH  37  42
ENDBRANCH  32  35
ENDBRANCH  30  31
BRANCH  30  61
ATOM     61  CB  GLU d   4     796.126 211.292-759.297  0.00  0.00     0.045 C 
BRANCH  61  62
ATOM     62  CG  GLU d   4     795.578 212.295-760.363  0.00  0.00     0.116 C 
BRANCH  62  63
ATOM     63  CD  GLU d   4     794.151 212.791-760.219  0.00  0.00     0.172 C 
ATOM     64  OE1 GLU d   4     793.425 212.393-759.289  0.00  0.00    -0.648 OA
ATOM     65  OE2 GLU d   4     793.762 213.621-761.068  0.00  0.00    -0.648 OA
ENDBRANCH  62  63
ENDBRANCH  61  62
ENDBRANCH  30  61
ENDBRANCH  27  30
ENDBRANCH  25  26
BRANCH  25  66
ATOM     66  CB  SER d   5     799.722 214.341-756.754  0.00  0.00     0.199 C 
BRANCH  66  67
ATOM     67  OG  SER d   5     800.453 213.462-755.893  0.00  0.00    -0.398 OA
ATOM     68  HG  SER d   5     799.965 212.637-755.842  0.00  0.00     0.209 HD
ENDBRANCH  66  67
ENDBRANCH  25  66
ENDBRANCH  22  25
ENDBRANCH  20  21
BRANCH  20  69
ATOM     69  CB  ILE d   6     803.487 210.790-758.402  0.00  0.00     0.013 C 
ATOM     70  CG2 ILE d   6     804.929 210.488-758.917  0.00  0.00     0.012 C 
BRANCH  69  71
ATOM     71  CG1 ILE d   6     803.507 210.728-756.841  0.00  0.00     0.002 C 
ATOM     72  CD1 ILE d   6     803.777 209.339-756.226  0.00  0.00     0.005 C 
ENDBRANCH  69  71
ENDBRANCH  20  69
ENDBRANCH  17  20
ENDBRANCH  15  16
BRANCH  15  73
ATOM     73  CB  LEU d   7     800.627 210.528-763.023  0.00  0.00     0.038 C 
BRANCH  73  74
ATOM     74  CG  LEU d   7     800.555 209.048-762.556  0.00  0.00    -0.020 C 
ATOM     75  CD1 LEU d   7     799.365 208.342-763.222  0.00  0.00     0.009 C 
ATOM     76  CD2 LEU d   7     801.849 208.270-762.848  0.00  0.00     0.009 C 
ENDBRANCH  73  74
ENDBRANCH  15  73
ENDBRANCH  12  15
ENDBRANCH  10  11
BRANCH  10  77
ATOM     77  CB  ASP d   8     799.770 215.812-762.420  0.00  0.00     0.147 C 
BRANCH  77  78
ATOM     78  CG  ASP d   8     799.550 217.233-762.960  0.00  0.00     0.175 C 
ATOM     79  OD1 ASP d   8     799.614 217.432-764.190  0.00  0.00    -0.648 OA
ATOM     80  OD2 ASP d   8     799.358 218.158-762.144  0.00  0.00    -0.648 OA
ENDBRANCH  77  78
ENDBRANCH  10  77
ENDBRANCH   7  10
ENDBRANCH   5   6
BRANCH   5  81
ATOM     81  CB  GLU d   9     804.810 216.055-760.548  0.00  0.00     0.045 C 
BRANCH  81  82
ATOM     82  CG  GLU d   9     806.193 216.748-760.318  0.00  0.00     0.116 C 
BRANCH  82  83
ATOM     83  CD  GLU d   9     806.894 216.534-758.990  0.00  0.00     0.172 C 
ATOM     84  OE1 GLU d   9     806.373 215.843-758.094  0.00  0.00    -0.648 OA
ATOM     85  OE2 GLU d   9     808.013 217.073-758.858  0.00  0.00    -0.648 OA
ENDBRANCH  82  83
ENDBRANCH  81  82
ENDBRANCH   5  81
ENDBRANCH   1   5
BRANCH   3  86
ATOM     86  CA  HIS d  10     806.081 213.949-764.239  0.00  0.00     0.182 C 
BRANCH  86  87
ATOM     87  C   HIS d  10     805.714 214.514-765.590  0.00  0.00     0.241 C 
ATOM     88  O   HIS d  10     806.566 214.979-766.361  0.00  0.00    -0.271 OA
ATOM     89  N   VAL d  11     804.476 214.513-765.953  0.00  0.00    -0.346 N 
ATOM     90  H   VAL d  11     803.763 214.139-765.343  0.00  0.00     0.163 HD
BRANCH  89  91
ATOM     91  CA  VAL d  11     804.121 215.059-767.260  0.00  0.00     0.180 C 
BRANCH  91  92
ATOM     92  C   VAL d  11     804.585 216.490-767.392  0.00  0.00     0.241 C 
ATOM     93  O   VAL d  11     805.186 216.895-768.395  0.00  0.00    -0.271 OA
ATOM     94  N   GLN d  12     804.347 217.315-766.429  0.00  0.00    -0.346 N 
ATOM     95  H   GLN d  12     803.858 217.008-765.600  0.00  0.00     0.163 HD
BRANCH  94  96
ATOM     96  CA  GLN d  12     804.795 218.698-766.556  0.00  0.00     0.177 C 
BRANCH  96  97
ATOM     97  C   GLN d  12     806.285 218.766-766.794  0.00  0.00     0.241 C 
ATOM     98  O   GLN d  12     806.772 219.475-767.672  0.00  0.00    -0.271 OA
ATOM     99  N   ARG d  13     807.070 218.059-766.053  0.00  0.00    -0.346 N 
ATOM    100  H   ARG d  13     806.694 217.469-765.325  0.00  0.00     0.163 HD
BRANCH  99 101
ATOM    101  CA  ARG d  13     808.510 218.126-766.283  0.00  0.00     0.176 C 
BRANCH 101 102
ATOM    102  C   ARG d  13     808.847 217.755-767.708  0.00  0.00     0.241 C 
ATOM    103  O   ARG d  13     809.615 218.427-768.392  0.00  0.00    -0.271 OA
ATOM    104  N   VAL d  14     808.311 216.700-768.223  0.00  0.00    -0.346 N 
ATOM    105  H   VAL d  14     807.676 216.131-767.681  0.00  0.00     0.163 HD
BRANCH 104 106
ATOM    106  CA  VAL d  14     808.636 216.341-769.601  0.00  0.00     0.180 C 
BRANCH 106 107
ATOM    107  C   VAL d  14     808.306 217.471-770.546  0.00  0.00     0.241 C 
ATOM    108  O   VAL d  14     809.099 217.853-771.415  0.00  0.00    -0.271 OA
ATOM    109  N   MET d  15     807.161 218.057-770.444  0.00  0.00    -0.346 N 
ATOM    110  H   MET d  15     806.496 217.764-769.743  0.00  0.00     0.163 HD
BRANCH 109 111
ATOM    111  CA  MET d  15     806.840 219.150-771.358  0.00  0.00     0.177 C 
BRANCH 111 112
ATOM    112  C   MET d  15     807.870 220.250-771.270  0.00  0.00     0.241 C 
ATOM    113  O   MET d  15     808.372 220.761-772.282  0.00  0.00    -0.271 OA
ATOM    114  N   ARG d  16     808.238 220.671-770.107  0.00  0.00    -0.347 N 
ATOM    115  H   ARG d  16     807.844 220.270-769.268  0.00  0.00     0.163 HD
BRANCH 114 116
ATOM    116  CA  ARG d  16     809.234 221.735-770.023  0.00  0.00     0.162 C 
BRANCH 116 117
ATOM    117  C   ARG d  16     810.505 221.343-770.740  0.00  0.00     0.219 C 
ATOM    118  O   ARG d  16     810.619 220.267-771.321  0.00  0.00    -0.287 OA
ENDBRANCH 116 117
BRANCH 116 119
ATOM    119  CB  ARG d  16     809.503 222.052-768.525  0.00  0.00     0.035 C 
BRANCH 119 120
ATOM    120  CG  ARG d  16     810.328 223.342-768.252  0.00  0.00     0.023 C 
BRANCH 120 121
ATOM    121  CD  ARG d  16     810.578 223.561-766.750  0.00  0.00     0.138 C 
BRANCH 121 122
ATOM    122  NE  ARG d  16     811.354 224.820-766.549  0.00  0.00    -0.227 N 
ATOM    123  CZ  ARG d  16     811.745 225.302-765.373  0.00  0.00     0.665 C 
ATOM    124  NH1 ARG d  16     811.497 224.717-764.235  0.00  0.00    -0.235 N 
ATOM    125  NH2 ARG d  16     812.408 226.415-765.354  0.00  0.00    -0.235 N 
ATOM    126 11HH ARG d  16     810.972 223.844-764.320  0.00  0.00     0.174 HD
ATOM    127 12HH ARG d  16     811.832 225.152-763.374  0.00  0.00     0.174 HD
ATOM    128 21HH ARG d  16     812.594 226.858-766.256  0.00  0.00     0.174 HD
ATOM    129 22HH ARG d  16     812.699 226.769-764.442  0.00  0.00     0.174 HD
ATOM    130  HE  ARG d  16     811.632 225.401-767.346  0.00  0.00     0.177 HD
ENDBRANCH 121 122
ENDBRANCH 120 121
ENDBRANCH 119 120
ENDBRANCH 116 119
ENDBRANCH 114 116
ENDBRANCH 111 112
BRANCH 111 131
ATOM    131  CB  MET d  15     805.418 219.695-771.048  0.00  0.00     0.045 C 
BRANCH 131 132
ATOM    132  CG  MET d  15     804.257 218.696-771.240  0.00  0.00     0.076 C 
BRANCH 132 133
ATOM    133  SD  MET d  15     802.682 219.562-771.126  0.00  0.00    -0.173 SA
ATOM    134  CE  MET d  15     801.602 218.131-770.990  0.00  0.00     0.089 C 
ENDBRANCH 132 133
ENDBRANCH 131 132
ENDBRANCH 111 131
ENDBRANCH 109 111
ENDBRANCH 106 107
BRANCH 106 135
ATOM    135  CB  VAL d  14     807.864 215.024-770.008  0.00  0.00     0.009 C 
ATOM    136  CG1 VAL d  14     807.954 214.606-771.501  0.00  0.00     0.012 C 
ATOM    137  CG2 VAL d  14     808.296 213.772-769.208  0.00  0.00     0.012 C 
ENDBRANCH 106 135
ENDBRANCH 104 106
ENDBRANCH 101 102
BRANCH 101 138
ATOM    138  CB  ARG d  13     809.224 217.187-765.270  0.00  0.00     0.036 C 
BRANCH 138 139
ATOM    139  CG  ARG d  13     810.769 217.341-765.188  0.00  0.00     0.023 C 
BRANCH 139 140
ATOM    140  CD  ARG d  13     811.396 216.353-764.191  0.00  0.00     0.138 C 
BRANCH 140 141
ATOM    141  NE  ARG d  13     812.873 216.561-764.140  0.00  0.00    -0.227 N 
ATOM    142  CZ  ARG d  13     813.721 215.869-763.385  0.00  0.00     0.665 C 
ATOM    143  NH1 ARG d  13     813.356 214.904-762.588  0.00  0.00    -0.235 N 
ATOM    144  NH2 ARG d  13     814.980 216.169-763.441  0.00  0.00    -0.235 N 
ATOM    145 11HH ARG d  13     812.351 214.718-762.591  0.00  0.00     0.174 HD
ATOM    146 12HH ARG d  13     814.069 214.421-762.039  0.00  0.00     0.174 HD
ATOM    147 21HH ARG d  13     815.248 216.927-764.072  0.00  0.00     0.174 HD
ATOM    148 22HH ARG d  13     815.616 215.627-762.853  0.00  0.00     0.174 HD
ATOM    149  HE  ARG d  13     813.324 217.283-764.710  0.00  0.00     0.177 HD
ENDBRANCH 140 141
ENDBRANCH 139 140
ENDBRANCH 138 139
ENDBRANCH 101 138
ENDBRANCH  99 101
ENDBRANCH  96  97
BRANCH  96 150
ATOM    150  CB  GLN d  12     804.404 219.465-765.273  0.00  0.00     0.044 C 
BRANCH 150 151
ATOM    151  CG  GLN d  12     804.763 220.987-765.242  0.00  0.00     0.105 C 
BRANCH 151 152
ATOM    152  CD  GLN d  12     804.461 221.800-763.977  0.00  0.00     0.215 C 
ATOM    153  NE2 GLN d  12     803.893 221.223-762.948  0.00  0.00    -0.370 N 
ATOM    154 21HE GLN d  12     803.786 221.818-762.124  0.00  0.00     0.159 HD
ATOM    155 22HE GLN d  12     803.730 220.220-763.052  0.00  0.00     0.159 HD
ATOM    156  OE1 GLN d  12     804.762 222.981-763.899  0.00  0.00    -0.274 OA
ENDBRANCH 151 152
ENDBRANCH 150 151
ENDBRANCH  96 150
ENDBRANCH  94  96
ENDBRANCH  91  92
BRANCH  91 157
ATOM    157  CB  VAL d  11     802.560 214.951-767.479  0.00  0.00     0.009 C 
ATOM    158  CG1 VAL d  11     801.991 215.655-768.742  0.00  0.00     0.012 C 
ATOM    159  CG2 VAL d  11     802.036 213.497-767.553  0.00  0.00     0.012 C 
ENDBRANCH  91 157
ENDBRANCH  89  91
ENDBRANCH  86  87
BRANCH  86 160
ATOM    160  CB  HIS d  10     805.917 212.420-764.234  0.00  0.00     0.095 C 
BRANCH 160 161
ATOM    161  CG  HIS d  10     807.203 211.711-763.926  0.00  0.00     0.053 A 
ATOM    162  CD2 HIS d  10     807.584 211.375-762.633  0.00  0.00     0.116 A 
ATOM    163  NE2 HIS d  10     808.799 210.744-762.700  0.00  0.00    -0.359 N 
ATOM    164  CE1 HIS d  10     809.062 210.747-764.035  0.00  0.00     0.207 A 
ATOM    165  2HE HIS d  10     809.366 210.367-761.927  0.00  0.00     0.166 HD
ATOM    166  ND1 HIS d  10     808.156 211.305-764.858  0.00  0.00    -0.247 NA
ENDBRANCH 160 161
ENDBRANCH  86 160
ENDBRANCH   3  86
TORSDOF 68
