@<TRIPOS>MOLECULE
4-16
267 268 16              
SMALL
USER_CHARGES
@<TRIPOS>ATOM
1	   N	655.844	164.220	-606.406	N.3	1	GLU1	-0.516	
2	  CA	656.403	165.569	-606.406	C.3	1	GLU1	0.040	
3	   C	657.912	165.529	-606.406	C.2	1	GLU1	0.537	
4	   O	658.588	166.228	-607.175	O.2	1	GLU1	-0.582	
5	  CB	655.880	166.354	-605.169	C.3	1	GLU1	0.056	
6	  CG	656.355	167.839	-605.058	C.3	1	GLU1	0.014	
7	  CD	655.931	168.643	-603.843	C.2	1	GLU1	0.805	
8	 OE1	655.203	168.141	-602.965	O.co2	1	GLU1	-0.819	
9	 OE2	656.361	169.813	-603.771	O.co2	1	GLU1	-0.819	
10	   H	656.471	163.341	-606.406	 H	1	GLU1	0.294	
11	  HA	656.077	166.087	-607.326	 H	1	GLU1	0.111	
12	 2HB	656.169	165.823	-604.239	 H	1	GLU1	-0.017	
13	 3HB	654.773	166.344	-605.156	 H	1	GLU1	-0.017	
14	 2HG	656.045	168.424	-605.939	 H	1	GLU1	-0.043	
15	 3HG	657.455	167.906	-605.029	 H	1	GLU1	-0.043	
16	   N	658.517	164.744	-605.581	N.am	2	ASN2	-0.416	
17	  CA	659.976	164.705	-605.581	C.3	2	ASN2	0.014	
18	   C	660.508	164.349	-606.950	C.2	2	ASN2	0.597	
19	   O	661.422	164.980	-607.479	O.2	2	ASN2	-0.568	
20	  CB	660.468	163.682	-604.517	C.3	2	ASN2	-0.204	
21	  CG	660.005	163.906	-603.074	C.2	2	ASN2	0.713	
22	 ND2	660.600	164.821	-602.355	N.pl3	2	ASN2	-0.919	
23	 OD1	659.085	163.272	-602.579	O.2	2	ASN2	-0.593	
24	   H	657.989	164.164	-604.945	 H	2	ASN2	0.272	
25	  HA	660.354	165.715	-605.336	 H	2	ASN2	0.105	
26	 2HB	661.573	163.623	-604.521	 H	2	ASN2	0.080	
27	 3HB	660.139	162.664	-604.803	 H	2	ASN2	0.080	
28	1HD2	660.119	164.994	-601.469	 H	2	ASN2	0.420	
29	2HD2	661.301	165.392	-602.825	 H	2	ASN2	0.420	
30	   N	659.986	163.354	-607.584	N.am	3	PRO3	-0.255	
31	  CA	660.438	162.945	-608.906	C.3	3	PRO3	-0.027	
32	   C	660.040	163.969	-609.982	C.2	3	PRO3	0.590	
33	   O	660.863	164.352	-610.814	O.2	3	PRO3	-0.575	
34	  CB	659.734	161.590	-609.075	C.3	3	PRO3	-0.007	
35	  CG	658.451	161.742	-608.245	C.3	3	PRO3	0.019	
36	  CD	658.908	162.561	-607.035	C.3	3	PRO3	0.019	
37	  HA	661.524	162.825	-608.919	 H	3	PRO3	0.064	
38	 2HB	660.357	160.809	-608.634	 H	3	PRO3	0.025	
39	 3HB	659.536	161.342	-610.120	 H	3	PRO3	0.025	
40	 2HG	658.023	160.780	-607.954	 H	3	PRO3	0.021	
41	 3HG	657.713	162.313	-608.812	 H	3	PRO3	0.021	
42	 2HD	659.298	161.912	-606.247	 H	3	PRO3	0.039	
43	 3HD	658.112	163.197	-606.642	 H	3	PRO3	0.039	
44	   N	658.835	164.428	-610.015	N.am	4	GLN4	-0.416	
45	  CA	658.475	165.399	-611.044	C.3	4	GLN4	-0.003	
46	   C	659.374	166.611	-610.984	C.2	4	GLN4	0.597	
47	   O	659.894	167.086	-611.991	O.2	4	GLN4	-0.568	
48	  CB	656.995	165.797	-610.853	C.3	4	GLN4	-0.004	
49	  CG	656.410	166.803	-611.899	C.3	4	GLN4	-0.064	
50	  CD	654.965	167.291	-611.738	C.2	4	GLN4	0.695	
51	 NE2	654.233	166.854	-610.745	N.pl3	4	GLN4	-0.941	
52	 OE1	654.485	168.107	-612.511	O.2	4	GLN4	-0.609	
53	   H	658.151	164.122	-609.338	 H	4	GLN4	0.272	
54	  HA	658.611	164.931	-612.037	 H	4	GLN4	0.085	
55	 2HB	656.872	166.224	-609.836	 H	4	GLN4	0.017	
56	 3HB	656.373	164.880	-610.861	 H	4	GLN4	0.017	
57	 2HG	656.508	166.390	-612.920	 H	4	GLN4	0.035	
58	 3HG	657.012	167.730	-611.919	 H	4	GLN4	0.035	
59	1HE2	653.306	167.277	-610.673	 H	4	GLN4	0.425	
60	2HE2	654.715	166.228	-610.096	 H	4	GLN4	0.425	
61	   N	659.602	167.166	-609.842	N.am	5	SER5	-0.416	
62	  CA	660.470	168.338	-609.785	C.3	5	SER5	-0.025	
63	   C	661.829	168.033	-610.372	C.2	5	SER5	0.597	
64	   O	662.375	168.786	-611.178	O.2	5	SER5	-0.568	
65	  CB	660.582	168.872	-608.335	C.3	5	SER5	0.212	
66	  OG	661.316	167.994	-607.474	O.3	5	SER5	-0.655	
67	   H	659.186	166.794	-608.999	 H	5	SER5	0.272	
68	  HA	660.019	169.127	-610.415	 H	5	SER5	0.084	
69	 2HB	659.583	169.065	-607.901	 H	5	SER5	0.035	
70	 3HB	661.087	169.858	-608.339	 H	5	SER5	0.035	
71	  HG	660.828	167.169	-607.422	 H	5	SER5	0.428	
72	   N	662.435	166.951	-610.017	N.am	6	ILE6	-0.416	
73	  CA	663.748	166.657	-610.584	C.3	6	ILE6	-0.060	
74	   C	663.689	166.617	-612.092	C.2	6	ILE6	0.597	
75	   O	664.523	167.205	-612.797	O.2	6	ILE6	-0.568	
76	  CB	664.349	165.321	-609.983	C.3	6	ILE6	0.130	
77	 CG1	664.370	165.261	-608.422	C.3	6	ILE6	-0.043	
78	 CG2	665.791	165.021	-610.499	C.3	6	ILE6	-0.320	
79	 CD1	664.642	163.873	-607.806	C.3	6	ILE6	-0.066	
80	   H	662.008	166.317	-609.357	 H	6	ILE6	0.272	
81	  HA	664.421	167.492	-610.318	 H	6	ILE6	0.087	
82	  HB	663.692	164.495	-610.326	 H	6	ILE6	0.019	
83	2HG1	663.388	165.580	-608.026	 H	6	ILE6	0.024	
84	3HG1	665.086	166.004	-608.019	 H	6	ILE6	0.024	
85	1HG2	665.849	164.926	-611.598	 H	6	ILE6	0.088	
86	2HG2	666.512	165.804	-610.198	 H	6	ILE6	0.088	
87	3HG2	666.182	164.059	-610.120	 H	6	ILE6	0.088	
88	1HD1	663.914	163.118	-608.159	 H	6	ILE6	0.019	
89	2HD1	665.653	163.495	-608.042	 H	6	ILE6	0.019	
90	3HD1	664.567	163.904	-606.703	 H	6	ILE6	0.019	
91	   N	662.744	165.952	-612.664	N.am	7	LEU7	-0.416	
92	  CA	662.688	165.915	-614.122	C.3	7	LEU7	-0.052	
93	   C	662.613	167.309	-614.696	C.2	7	LEU7	0.597	
94	   O	663.333	167.672	-615.639	O.2	7	LEU7	-0.568	
95	  CB	661.485	165.053	-614.601	C.3	7	LEU7	-0.110	
96	  CG	661.414	163.574	-614.133	C.3	7	LEU7	0.353	
97	 CD1	660.224	162.866	-614.797	C.3	7	LEU7	-0.412	
98	 CD2	662.708	162.796	-614.424	C.3	7	LEU7	-0.412	
99	   H	662.053	165.465	-612.111	 H	7	LEU7	0.272	
100	  HA	663.629	165.475	-614.497	 H	7	LEU7	0.092	
101	 2HB	661.461	165.067	-615.708	 H	7	LEU7	0.046	
102	 3HB	660.545	165.555	-614.296	 H	7	LEU7	0.046	
103	  HG	661.245	163.567	-613.035	 H	7	LEU7	-0.036	
104	1HD1	659.267	163.374	-614.574	 H	7	LEU7	0.100	
105	2HD1	660.323	162.825	-615.898	 H	7	LEU7	0.100	
106	3HD1	660.119	161.825	-614.439	 H	7	LEU7	0.100	
107	1HD2	662.982	162.825	-615.495	 H	7	LEU7	0.100	
108	2HD2	663.562	163.208	-613.854	 H	7	LEU7	0.100	
109	3HD2	662.628	161.733	-614.127	 H	7	LEU7	0.100	
110	   N	661.776	168.150	-614.190	N.am	8	ASP8	-0.516	
111	  CA	661.703	169.498	-614.744	C.3	8	ASP8	0.038	
112	   C	663.049	170.180	-614.689	C.2	8	ASP8	0.537	
113	   O	663.521	170.784	-615.665	O.2	8	ASP8	-0.582	
114	  CB	660.625	170.337	-614.003	C.3	8	ASP8	-0.030	
115	  CG	660.404	171.757	-614.544	C.2	8	ASP8	0.799	
116	 OD1	660.467	171.955	-615.775	O.co2	8	ASP8	-0.801	
117	 OD2	660.212	172.684	-613.730	O.co2	8	ASP8	-0.801	
118	   H	661.179	167.879	-613.422	 H	8	ASP8	0.294	
119	  HA	661.420	169.419	-615.811	 H	8	ASP8	0.088	
120	 2HB	660.883	170.422	-612.931	 H	8	ASP8	-0.012	
121	 3HB	659.646	169.831	-614.034	 H	8	ASP8	-0.012	
122	   N	663.730	170.132	-613.594	N.am	9	GLU9	-0.516	
123	  CA	665.032	170.790	-613.541	C.3	9	GLU9	0.040	
124	   C	665.950	170.263	-614.617	C.2	9	GLU9	0.537	
125	   O	666.613	171.017	-615.343	O.2	9	GLU9	-0.582	
126	  CB	665.667	170.585	-612.135	C.3	9	GLU9	0.056	
127	  CG	667.049	171.279	-611.908	C.3	9	GLU9	0.014	
128	  CD	667.752	171.067	-610.580	C.2	9	GLU9	0.805	
129	 OE1	667.232	170.377	-609.683	O.co2	9	GLU9	-0.819	
130	 OE2	668.871	171.606	-610.450	O.co2	9	GLU9	-0.819	
131	   H	663.368	169.645	-612.786	 H	9	GLU9	0.294	
132	  HA	664.889	171.872	-613.717	 H	9	GLU9	0.111	
133	 2HB	665.781	169.500	-611.931	 H	9	GLU9	-0.017	
134	 3HB	664.970	170.938	-611.351	 H	9	GLU9	-0.017	
135	 2HG	666.976	172.369	-612.049	 H	9	GLU9	-0.043	
136	 3HG	667.795	170.934	-612.642	 H	9	GLU9	-0.043	
137	   N	666.048	168.987	-614.785	N.am	10	HIS10	-0.416	
138	  CA	666.935	168.476	-615.826	C.3	10	HIS10	-0.058	
139	   C	666.567	169.039	-617.177	C.2	10	HIS10	0.597	
140	   O	667.418	169.504	-617.950	O.2	10	HIS10	-0.568	
141	  CB	666.773	166.947	-615.819	C.3	10	HIS10	-0.007	
142	  CG	668.060	166.239	-615.512	C.2	10	HIS10	0.187	
143	 CD2	668.442	165.905	-614.219	C.2	10	HIS10	-0.221	
144	 ND1	669.012	165.833	-616.445	N.2	10	HIS10	-0.543	
145	 CE1	669.919	165.277	-615.621	C.2	10	HIS10	0.163	
146	 NE2	669.658	165.275	-614.286	N.pl3	10	HIS10	-0.280	
147	   H	665.518	168.352	-614.206	 H	10	HIS10	0.272	
148	  HA	667.954	168.835	-615.602	 H	10	HIS10	0.136	
149	 2HB	666.408	166.579	-616.799	 H	10	HIS10	0.037	
150	 3HB	666.018	166.610	-615.079	 H	10	HIS10	0.037	
151	 2HD	667.857	166.120	-613.330	 H	10	HIS10	0.186	
152	 1HE	670.810	164.856	-616.069	 H	10	HIS10	0.144	
153	 2HE	670.225	164.899	-613.513	 H	10	HIS10	0.334	
154	   N	665.329	169.037	-617.539	N.am	11	VAL11	-0.416	
155	  CA	664.972	169.581	-618.846	C.3	11	VAL11	-0.087	
156	   C	665.435	171.012	-618.980	C.2	11	VAL11	0.597	
157	   O	666.035	171.417	-619.984	O.2	11	VAL11	-0.568	
158	  CB	663.411	169.473	-619.064	C.3	11	VAL11	0.299	
159	 CG1	662.841	170.175	-620.327	C.3	11	VAL11	-0.319	
160	 CG2	662.888	168.018	-619.136	C.3	11	VAL11	-0.319	
161	   H	664.617	168.664	-616.928	 H	11	VAL11	0.272	
162	  HA	665.492	168.999	-619.628	 H	11	VAL11	0.097	
163	  HB	662.923	169.953	-618.189	 H	11	VAL11	-0.030	
164	1HG1	663.279	169.783	-621.264	 H	11	VAL11	0.079	
165	2HG1	661.742	170.066	-620.408	 H	11	VAL11	0.079	
166	3HG1	663.018	171.268	-620.319	 H	11	VAL11	0.079	
167	1HG2	663.179	167.432	-618.245	 H	11	VAL11	0.079	
168	2HG2	661.782	167.980	-619.178	 H	11	VAL11	0.079	
169	3HG2	663.270	167.477	-620.022	 H	11	VAL11	0.079	
170	   N	665.198	171.839	-618.018	N.am	12	GLN12	-0.416	
171	  CA	665.644	173.222	-618.147	C.3	12	GLN12	-0.003	
172	   C	667.134	173.291	-618.386	C.2	12	GLN12	0.597	
173	   O	667.620	173.999	-619.266	O.2	12	GLN12	-0.568	
174	  CB	665.254	173.990	-616.865	C.3	12	GLN12	-0.004	
175	  CG	665.612	175.512	-616.835	C.3	12	GLN12	-0.064	
176	  CD	665.310	176.326	-615.571	C.2	12	GLN12	0.695	
177	 NE2	664.744	175.750	-614.541	N.pl3	12	GLN12	-0.941	
178	 OE1	665.610	177.508	-615.495	O.2	12	GLN12	-0.609	
179	   H	664.710	171.533	-617.189	 H	12	GLN12	0.272	
180	  HA	665.144	173.677	-619.022	 H	12	GLN12	0.085	
181	 2HB	665.731	173.491	-615.995	 H	12	GLN12	0.017	
182	 3HB	664.164	173.882	-616.701	 H	12	GLN12	0.017	
183	 2HG	665.134	176.032	-617.686	 H	12	GLN12	0.035	
184	 3HG	666.695	175.655	-617.002	 H	12	GLN12	0.035	
185	1HE2	664.637	176.345	-613.718	 H	12	GLN12	0.425	
186	2HE2	664.581	174.747	-614.644	 H	12	GLN12	0.425	
187	   N	667.920	172.585	-617.645	N.am	13	ARG13	-0.348	
188	  CA	669.360	172.652	-617.877	C.3	13	ARG13	-0.264	
189	   C	669.696	172.280	-619.302	C.2	13	ARG13	0.734	
190	   O	670.463	172.952	-619.987	O.2	13	ARG13	-0.589	
191	  CB	670.075	171.715	-616.863	C.3	13	ARG13	-0.001	
192	  CG	671.620	171.870	-616.783	C.3	13	ARG13	0.039	
193	  CD	672.249	170.884	-615.785	C.3	13	ARG13	0.049	
194	  NE	673.726	171.092	-615.735	N.pl3	13	ARG13	-0.530	
195	  CZ	674.575	170.402	-614.980	C.cat	13	ARG13	0.808	
196	 NH1	674.211	169.438	-614.182	N.pl3	13	ARG13	-0.863	
197	 NH2	675.834	170.702	-615.038	N.pl3	13	ARG13	-0.863	
198	   H	667.545	171.996	-616.916	 H	13	ARG13	0.275	
199	  HA	669.684	173.699	-617.720	 H	13	ARG13	0.156	
200	 2HB	669.810	170.664	-617.101	 H	13	ARG13	0.033	
201	 3HB	669.650	171.882	-615.852	 H	13	ARG13	0.033	
202	 2HG	671.867	172.915	-616.504	 H	13	ARG13	0.029	
203	 3HG	672.070	171.713	-617.785	 H	13	ARG13	0.029	
204	 2HD	672.005	169.843	-616.093	 H	13	ARG13	0.069	
205	 3HD	671.793	171.030	-614.782	 H	13	ARG13	0.069	
206	  HE	674.176	171.814	-616.307	 H	13	ARG13	0.346	
207	1HH1	673.206	169.251	-614.184	 H	13	ARG13	0.448	
208	2HH1	674.925	168.956	-613.633	 H	13	ARG13	0.448	
209	1HH2	676.100	171.460	-615.670	 H	13	ARG13	0.448	
210	2HH2	676.470	170.162	-614.450	 H	13	ARG13	0.448	
211	   N	669.160	171.225	-619.815	N.am	14	VAL14	-0.416	
212	  CA	669.485	170.865	-621.192	C.3	14	VAL14	-0.087	
213	   C	669.153	171.993	-622.139	C.2	14	VAL14	0.597	
214	   O	669.945	172.375	-623.009	O.2	14	VAL14	-0.568	
215	  CB	668.713	169.546	-621.598	C.3	14	VAL14	0.299	
216	 CG1	668.802	169.127	-623.091	C.3	14	VAL14	-0.319	
217	 CG2	669.147	168.295	-620.797	C.3	14	VAL14	-0.319	
218	   H	668.526	170.656	-619.272	 H	14	VAL14	0.272	
219	  HA	670.573	170.689	-621.268	 H	14	VAL14	0.097	
220	  HB	667.637	169.717	-621.381	 H	14	VAL14	-0.030	
221	1HG1	669.843	168.951	-623.421	 H	14	VAL14	0.079	
222	2HG1	668.230	168.203	-623.303	 H	14	VAL14	0.079	
223	3HG1	668.372	169.888	-623.770	 H	14	VAL14	0.079	
224	1HG2	669.061	168.454	-619.706	 H	14	VAL14	0.079	
225	2HG2	668.512	167.418	-621.028	 H	14	VAL14	0.079	
226	3HG2	670.195	168.006	-621.003	 H	14	VAL14	0.079	
227	   N	668.007	172.578	-622.037	N.am	15	MET15	-0.416	
228	  CA	667.685	173.670	-622.951	C.3	15	MET15	-0.024	
229	   C	668.714	174.771	-622.865	C.2	15	MET15	0.597	
230	   O	669.216	175.281	-623.878	O.2	15	MET15	-0.568	
231	  CB	666.263	174.214	-622.641	C.3	15	MET15	0.034	
232	  CG	665.102	173.215	-622.832	C.3	15	MET15	0.002	
233	  SD	663.528	174.079	-622.717	S.3	15	MET15	-0.274	
234	  CE	662.448	172.648	-622.579	C.3	15	MET15	-0.054	
235	   H	667.343	172.285	-621.334	 H	15	MET15	0.272	
236	  HA	667.711	173.282	-623.986	 H	15	MET15	0.088	
237	 2HB	666.060	175.092	-623.284	 H	15	MET15	0.024	
238	 3HB	666.228	174.607	-621.605	 H	15	MET15	0.024	
239	 2HG	665.147	172.430	-622.053	 H	15	MET15	0.044	
240	 3HG	665.165	172.699	-623.808	 H	15	MET15	0.044	
241	 1HE	662.592	171.960	-623.431	 H	15	MET15	0.068	
242	 2HE	662.659	172.097	-621.646	 H	15	MET15	0.068	
243	 3HE	661.390	172.962	-622.562	 H	15	MET15	0.068	
244	   N	669.083	175.193	-621.703	N.am	16	ARG16	-0.348	
245	  CA	670.079	176.258	-621.621	C.3	16	ARG16	-0.264	
246	   C	671.349	175.866	-622.338	C.2	16	ARG16	0.734	
247	   O	671.464	174.790	-622.918	O.2	16	ARG16	-0.589	
248	  CB	670.348	176.578	-620.123	C.3	16	ARG16	-0.001	
249	  CG	671.172	177.868	-619.852	C.3	16	ARG16	0.039	
250	  CD	671.423	178.089	-618.351	C.3	16	ARG16	0.049	
251	  NE	672.198	179.349	-618.151	N.pl3	16	ARG16	-0.530	
252	  CZ	672.589	179.832	-616.976	C.cat	16	ARG16	0.808	
253	 NH1	672.343	179.248	-615.837	N.pl3	16	ARG16	-0.863	
254	 NH2	673.252	180.946	-616.959	N.pl3	16	ARG16	-0.863	
255	   H	668.690	174.794	-620.863	 H	16	ARG16	0.275	
256	  HA	669.668	177.150	-622.131	 H	16	ARG16	0.156	
257	 2HB	670.847	175.703	-619.656	 H	16	ARG16	0.033	
258	 3HB	669.380	176.658	-619.588	 H	16	ARG16	0.033	
259	 2HG	670.641	178.738	-620.289	 H	16	ARG16	0.029	
260	 3HG	672.146	177.816	-620.381	 H	16	ARG16	0.029	
261	 2HD	671.973	177.215	-617.937	 H	16	ARG16	0.069	
262	 3HD	670.450	178.131	-617.815	 H	16	ARG16	0.069	
263	  HE	672.475	179.929	-618.949	 H	16	ARG16	0.346	
264	1HH1	671.818	178.375	-615.921	 H	16	ARG16	0.448	
265	2HH1	672.678	179.685	-614.977	 H	16	ARG16	0.448	
266	1HH2	673.436	181.388	-617.861	 H	16	ARG16	0.448	
267	2HH2	673.543	181.302	-616.047	 H	16	ARG16	0.448	
@<TRIPOS>BOND
1 1 2 1
2 1 10 1
3 2 3 1
4 2 5 1
5 2 11 1
6 3 4 2
7 3 16 1
8 5 6 1
9 6 7 1
10 7 8 2
11 7 9 1
12 5 12 1
13 5 13 1
14 6 14 1
15 6 15 1
16 16 17 1
17 16 24 1
18 17 18 1
19 17 20 1
20 17 25 1
21 18 19 2
22 18 30 1
23 20 21 1
24 21 22 1
25 21 23 2
26 20 26 1
27 20 27 1
28 22 28 1
29 22 29 1
30 30 31 1
31 30 36 1
32 31 32 1
33 31 34 1
34 31 37 1
35 32 33 2
36 32 44 1
37 34 35 1
38 35 36 1
39 34 38 1
40 34 39 1
41 35 40 1
42 35 41 1
43 36 42 1
44 36 43 1
45 44 45 1
46 44 53 1
47 45 46 1
48 45 48 1
49 45 54 1
50 46 47 2
51 46 61 1
52 48 49 1
53 49 50 1
54 50 51 1
55 50 52 2
56 48 55 1
57 48 56 1
58 49 57 1
59 49 58 1
60 51 59 1
61 51 60 1
62 61 62 1
63 61 67 1
64 62 63 1
65 62 65 1
66 62 68 1
67 63 64 2
68 63 72 1
69 65 66 1
70 65 69 1
71 65 70 1
72 66 71 1
73 72 73 1
74 72 80 1
75 73 74 1
76 73 76 1
77 73 81 1
78 74 75 2
79 74 91 1
80 76 77 1
81 76 78 1
82 77 79 1
83 76 82 1
84 77 83 1
85 77 84 1
86 78 85 1
87 78 86 1
88 78 87 1
89 79 88 1
90 79 89 1
91 79 90 1
92 91 92 1
93 91 99 1
94 92 93 1
95 92 95 1
96 92 100 1
97 93 94 2
98 93 110 1
99 95 96 1
100 96 97 1
101 96 98 1
102 95 101 1
103 95 102 1
104 96 103 1
105 97 104 1
106 97 105 1
107 97 106 1
108 98 107 1
109 98 108 1
110 98 109 1
111 110 111 1
112 110 118 1
113 111 112 1
114 111 114 1
115 111 119 1
116 112 113 2
117 112 122 1
118 114 115 1
119 115 116 2
120 115 117 1
121 114 120 1
122 114 121 1
123 122 123 1
124 122 131 1
125 123 124 1
126 123 126 1
127 123 132 1
128 124 125 2
129 124 137 1
130 126 127 1
131 127 128 1
132 128 129 2
133 128 130 1
134 126 133 1
135 126 134 1
136 127 135 1
137 127 136 1
138 137 138 1
139 137 147 1
140 138 139 1
141 138 141 1
142 138 148 1
143 139 140 2
144 139 154 1
145 141 142 1
146 142 143 2
147 143 146 1
148 142 144 1
149 144 145 2
150 145 146 1
151 141 149 1
152 141 150 1
153 143 151 1
154 145 152 1
155 146 153 1
156 154 155 1
157 154 161 1
158 155 156 1
159 155 158 1
160 155 162 1
161 156 157 2
162 156 170 1
163 158 159 1
164 158 160 1
165 158 163 1
166 159 164 1
167 159 165 1
168 159 166 1
169 160 167 1
170 160 168 1
171 160 169 1
172 170 171 1
173 170 179 1
174 171 172 1
175 171 174 1
176 171 180 1
177 172 173 2
178 172 187 1
179 174 175 1
180 175 176 1
181 176 177 1
182 176 178 2
183 174 181 1
184 174 182 1
185 175 183 1
186 175 184 1
187 177 185 1
188 177 186 1
189 187 188 1
190 187 198 1
191 188 189 1
192 188 191 1
193 188 199 1
194 189 190 2
195 189 211 1
196 191 192 1
197 192 193 1
198 193 194 1
199 194 195 1
200 195 196 2
201 195 197 1
202 191 200 1
203 191 201 1
204 192 202 1
205 192 203 1
206 193 204 1
207 193 205 1
208 194 206 1
209 196 207 1
210 196 208 1
211 197 209 1
212 197 210 1
213 211 212 1
214 211 218 1
215 212 213 1
216 212 215 1
217 212 219 1
218 213 214 2
219 213 227 1
220 215 216 1
221 215 217 1
222 215 220 1
223 216 221 1
224 216 222 1
225 216 223 1
226 217 224 1
227 217 225 1
228 217 226 1
229 227 228 1
230 227 235 1
231 228 229 1
232 228 231 1
233 228 236 1
234 229 230 2
235 229 244 1
236 231 232 1
237 232 233 1
238 233 234 1
239 231 237 1
240 231 238 1
241 232 239 1
242 232 240 1
243 234 241 1
244 234 242 1
245 234 243 1
246 244 245 1
247 244 255 1
248 245 246 1
249 245 248 1
250 245 256 1
251 246 247 2
252 248 249 1
253 249 250 1
254 250 251 1
255 251 252 1
256 252 253 2
257 252 254 1
258 248 257 1
259 248 258 1
260 249 259 1
261 249 260 1
262 250 261 1
263 250 262 1
264 251 263 1
265 253 264 1
266 253 265 1
267 254 266 1
268 254 267 1
@<TRIPOS>SUBSTRUCTURE
1	GLU1	1	RESIDUE	1 ****	GLU
2	ASN2	16	RESIDUE	1 ****	ASN
3	PRO3	30	RESIDUE	1 ****	PRO
4	GLN4	44	RESIDUE	1 ****	GLN
5	SER5	61	RESIDUE	1 ****	SER
6	ILE6	72	RESIDUE	1 ****	ILE
7	LEU7	91	RESIDUE	1 ****	LEU
8	ASP8	110	RESIDUE	1 ****	ASP
9	GLU9	122	RESIDUE	1 ****	GLU
10	HIS10	137	RESIDUE	1 ****	HIS
11	VAL11	154	RESIDUE	1 ****	VAL
12	GLN12	170	RESIDUE	1 ****	GLN
13	ARG13	187	RESIDUE	1 ****	ARG
14	VAL14	211	RESIDUE	1 ****	VAL
15	MET15	227	RESIDUE	1 ****	MET
16	ARG16	244	RESIDUE	1 ****	ARG
