REMARK WARNING: 32 MAX_TORS EXCEEDED!!!
REMARK  67 active torsions:
REMARK  status: ('A' for Active; 'I' for Inactive)
REMARK    1  A    between atoms: N_1  and  CA_2 
REMARK    2  A    between atoms: CA_2  and  C_3 
REMARK    3  A    between atoms: CA_2  and  CB_5 
REMARK       I    between atoms: C_3  and  N_11 
REMARK    4  A    between atoms: CB_5  and  CG_6 
REMARK    5  A    between atoms: CG_6  and  CD_7 
REMARK    6  A    between atoms: N_11  and  CA_12 
REMARK    7  A    between atoms: CA_12  and  C_13 
REMARK    8  A    between atoms: CA_12  and  CB_15 
REMARK       I    between atoms: C_13  and  N_22 
REMARK    9  A    between atoms: CB_15  and  CG_16 
REMARK       I    between atoms: CG_16  and  ND2_17 
REMARK   10  A    between atoms: CA_23  and  C_24 
REMARK       I    between atoms: C_24  and  N_29 
REMARK   11  A    between atoms: N_29  and  CA_30 
REMARK   12  A    between atoms: CA_30  and  C_31 
REMARK   13  A    between atoms: CA_30  and  CB_33 
REMARK       I    between atoms: C_31  and  N_39 
REMARK   14  A    between atoms: CB_33  and  CG_34 
REMARK   15  A    between atoms: CG_34  and  CD_35 
REMARK   16  A    between atoms: N_39  and  CA_40 
REMARK   17  A    between atoms: CA_40  and  C_41 
REMARK   18  A    between atoms: CA_40  and  CB_43 
REMARK       I    between atoms: C_41  and  N_47 
REMARK   19  A    between atoms: CB_43  and  OG_44 
REMARK   20  A    between atoms: N_47  and  CA_48 
REMARK   21  A    between atoms: CA_48  and  C_49 
REMARK   22  A    between atoms: CA_48  and  CB_51 
REMARK       I    between atoms: C_49  and  N_56 
REMARK   23  A    between atoms: CB_51  and  CG1_52 
REMARK   24  A    between atoms: N_56  and  CA_57 
REMARK   25  A    between atoms: CA_57  and  C_58 
REMARK   26  A    between atoms: CA_57  and  CB_60 
REMARK       I    between atoms: C_58  and  N_65 
REMARK   27  A    between atoms: CB_60  and  CG_61 
REMARK   28  A    between atoms: N_65  and  CA_66 
REMARK   29  A    between atoms: CA_66  and  C_67 
REMARK   30  A    between atoms: CA_66  and  CB_69 
REMARK       I    between atoms: C_67  and  N_74 
REMARK   31  A    between atoms: CB_69  and  CG_70 
REMARK   32  A    between atoms: N_74  and  CA_75 
REMARK   33  A    between atoms: CA_75  and  C_76 
REMARK   34  A    between atoms: CA_75  and  CB_78 
REMARK       I    between atoms: C_76  and  N_83 
REMARK   35  A    between atoms: CB_78  and  CG_79 
REMARK   36  A    between atoms: N_83  and  CA_84 
REMARK   37  A    between atoms: CA_84  and  C_85 
REMARK   38  A    between atoms: CA_84  and  CB_87 
REMARK       I    between atoms: C_85  and  N_95 
REMARK   39  A    between atoms: CB_87  and  CG_88 
REMARK   40  A    between atoms: N_95  and  CA_96 
REMARK   41  A    between atoms: CA_96  and  C_97 
REMARK   42  A    between atoms: CA_96  and  CB_99 
REMARK       I    between atoms: C_97  and  N_103 
REMARK   43  A    between atoms: N_103  and  CA_104 
REMARK   44  A    between atoms: CA_104  and  C_105 
REMARK   45  A    between atoms: CA_104  and  CB_107 
REMARK       I    between atoms: C_105  and  N_115 
REMARK   46  A    between atoms: CB_107  and  CG_108 
REMARK   47  A    between atoms: CG_108  and  CD_109 
REMARK       I    between atoms: CD_109  and  NE2_110 
REMARK   48  A    between atoms: N_115  and  CA_116 
REMARK   49  A    between atoms: CA_116  and  C_117 
REMARK   50  A    between atoms: CA_116  and  CB_119 
REMARK       I    between atoms: C_117  and  N_132 
REMARK   51  A    between atoms: CB_119  and  CG_120 
REMARK   52  A    between atoms: CG_120  and  CD_121 
REMARK   53  A    between atoms: CD_121  and  NE_122 
REMARK       I    between atoms: NE_122  and  CZ_123 
REMARK       I    between atoms: CZ_123  and  NH1_124 
REMARK       I    between atoms: CZ_123  and  NH2_125 
REMARK   54  A    between atoms: N_132  and  CA_133 
REMARK   55  A    between atoms: CA_133  and  C_134 
REMARK   56  A    between atoms: CA_133  and  CB_136 
REMARK       I    between atoms: C_134  and  N_140 
REMARK   57  A    between atoms: N_140  and  CA_141 
REMARK   58  A    between atoms: CA_141  and  C_142 
REMARK   59  A    between atoms: CA_141  and  CB_144 
REMARK       I    between atoms: C_142  and  N_149 
REMARK   60  A    between atoms: CB_144  and  CG_145 
REMARK   61  A    between atoms: CG_145  and  SD_146 
REMARK   62  A    between atoms: N_149  and  CA_150 
REMARK   63  A    between atoms: CA_150  and  C_151 
REMARK   64  A    between atoms: CA_150  and  CB_153 
REMARK   65  A    between atoms: CB_153  and  CG_154 
REMARK   66  A    between atoms: CG_154  and  CD_155 
REMARK   67  A    between atoms: CD_155  and  NE_156 
REMARK       I    between atoms: NE_156  and  CZ_157 
REMARK       I    between atoms: CZ_157  and  NH1_158 
ROOT
ATOM      1  C   LEU d   9    1412.552 416.321-1421.630  0.00  0.00     0.241 C 
ATOM      2  O   LEU d   9    1413.217 417.075-1422.357  0.00  0.00    -0.271 OA
ATOM      3  N   HIS d  10    1412.648 415.045-1421.799  0.00  0.00    -0.346 N 
ATOM      4  H   HIS d  10    1412.118 414.410-1421.220  0.00  0.00     0.163 HD
ENDROOT
BRANCH   3   5
ATOM      5  CA  HIS d  10    1413.535 414.533-1422.840  0.00  0.00     0.182 C 
BRANCH   5   6
ATOM      6  C   HIS d  10    1413.168 415.097-1424.191  0.00  0.00     0.241 C 
ATOM      7  O   HIS d  10    1414.020 415.561-1424.964  0.00  0.00    -0.271 OA
ATOM      8  N   VAL d  11    1411.929 415.097-1424.553  0.00  0.00    -0.346 N 
ATOM      9  H   VAL d  11    1411.217 414.725-1423.942  0.00  0.00     0.163 HD
BRANCH   8  10
ATOM     10  CA  VAL d  11    1411.574 415.643-1425.860  0.00  0.00     0.180 C 
BRANCH  10  11
ATOM     11  C   VAL d  11    1412.039 417.073-1425.993  0.00  0.00     0.241 C 
ATOM     12  O   VAL d  11    1412.640 417.477-1426.997  0.00  0.00    -0.271 OA
ATOM     13  N   GLN d  12    1411.802 417.899-1425.031  0.00  0.00    -0.346 N 
ATOM     14  H   GLN d  12    1411.314 417.594-1424.202  0.00  0.00     0.163 HD
BRANCH  13  15
ATOM     15  CA  GLN d  12    1412.251 419.282-1425.160  0.00  0.00     0.177 C 
BRANCH  15  16
ATOM     16  C   GLN d  12    1413.741 419.349-1425.398  0.00  0.00     0.241 C 
ATOM     17  O   GLN d  12    1414.228 420.056-1426.277  0.00  0.00    -0.271 OA
ATOM     18  N   ARG d  13    1414.526 418.642-1424.657  0.00  0.00    -0.346 N 
ATOM     19  H   ARG d  13    1414.150 418.053-1423.928  0.00  0.00     0.163 HD
BRANCH  18  20
ATOM     20  CA  ARG d  13    1415.966 418.707-1424.889  0.00  0.00     0.176 C 
BRANCH  20  21
ATOM     21  C   ARG d  13    1416.302 418.335-1426.314  0.00  0.00     0.241 C 
ATOM     22  O   ARG d  13    1417.070 419.006-1426.999  0.00  0.00    -0.271 OA
ATOM     23  N   VAL d  14    1415.765 417.280-1426.828  0.00  0.00    -0.346 N 
ATOM     24  H   VAL d  14    1415.130 416.712-1426.285  0.00  0.00     0.163 HD
BRANCH  23  25
ATOM     25  CA  VAL d  14    1416.089 416.920-1428.205  0.00  0.00     0.180 C 
BRANCH  25  26
ATOM     26  C   VAL d  14    1415.759 418.050-1429.151  0.00  0.00     0.241 C 
ATOM     27  O   VAL d  14    1416.552 418.431-1430.021  0.00  0.00    -0.271 OA
ATOM     28  N   MET d  15    1414.615 418.636-1429.049  0.00  0.00    -0.346 N 
ATOM     29  H   MET d  15    1413.950 418.344-1428.347  0.00  0.00     0.163 HD
BRANCH  28  30
ATOM     30  CA  MET d  15    1414.294 419.728-1429.963  0.00  0.00     0.177 C 
BRANCH  30  31
ATOM     31  C   MET d  15    1415.325 420.828-1429.877  0.00  0.00     0.241 C 
ATOM     32  O   MET d  15    1415.827 421.338-1430.890  0.00  0.00    -0.271 OA
ATOM     33  N   ARG d  16    1415.694 421.250-1428.715  0.00  0.00    -0.347 N 
ATOM     34  H   ARG d  16    1415.299 420.850-1427.875  0.00  0.00     0.163 HD
BRANCH  33  35
ATOM     35  CA  ARG d  16    1416.691 422.313-1428.632  0.00  0.00     0.162 C 
BRANCH  35  36
ATOM     36  C   ARG d  16    1417.961 421.920-1429.349  0.00  0.00     0.219 C 
ATOM     37  O   ARG d  16    1418.074 420.843-1429.930  0.00  0.00    -0.287 OA
ENDBRANCH  35  36
BRANCH  35  38
ATOM     38  CB  ARG d  16    1416.961 422.632-1427.134  0.00  0.00     0.035 C 
BRANCH  38  39
ATOM     39  CG  ARG d  16    1417.787 423.921-1426.862  0.00  0.00     0.023 C 
BRANCH  39  40
ATOM     40  CD  ARG d  16    1418.037 424.141-1425.361  0.00  0.00     0.138 C 
BRANCH  40  41
ATOM     41  NE  ARG d  16    1418.814 425.400-1425.161  0.00  0.00    -0.227 N 
ATOM     42  CZ  ARG d  16    1419.206 425.882-1423.986  0.00  0.00     0.665 C 
ATOM     43  NH1 ARG d  16    1418.958 425.299-1422.847  0.00  0.00    -0.235 N 
ATOM     44  NH2 ARG d  16    1419.870 426.995-1423.969  0.00  0.00    -0.235 N 
ATOM     45 11HH ARG d  16    1418.433 424.426-1422.931  0.00  0.00     0.174 HD
ATOM     46 12HH ARG d  16    1419.294 425.734-1421.986  0.00  0.00     0.174 HD
ATOM     47 21HH ARG d  16    1420.055 427.437-1424.871  0.00  0.00     0.174 HD
ATOM     48 22HH ARG d  16    1420.161 427.350-1423.056  0.00  0.00     0.174 HD
ATOM     49  HE  ARG d  16    1419.092 425.980-1425.959  0.00  0.00     0.177 HD
ENDBRANCH  40  41
ENDBRANCH  39  40
ENDBRANCH  38  39
ENDBRANCH  35  38
ENDBRANCH  33  35
ENDBRANCH  30  31
BRANCH  30  50
ATOM     50  CB  MET d  15    1412.873 420.274-1429.654  0.00  0.00     0.045 C 
BRANCH  50  51
ATOM     51  CG  MET d  15    1411.711 419.276-1429.845  0.00  0.00     0.076 C 
BRANCH  51  52
ATOM     52  SD  MET d  15    1410.137 420.143-1429.731  0.00  0.00    -0.173 SA
ATOM     53  CE  MET d  15    1409.056 418.713-1429.593  0.00  0.00     0.089 C 
ENDBRANCH  51  52
ENDBRANCH  50  51
ENDBRANCH  30  50
ENDBRANCH  28  30
ENDBRANCH  25  26
BRANCH  25  54
ATOM     54  CB  VAL d  14    1415.316 415.603-1428.611  0.00  0.00     0.009 C 
ATOM     55  CG1 VAL d  14    1415.405 415.184-1430.104  0.00  0.00     0.012 C 
ATOM     56  CG2 VAL d  14    1415.748 414.351-1427.810  0.00  0.00     0.012 C 
ENDBRANCH  25  54
ENDBRANCH  23  25
ENDBRANCH  20  21
BRANCH  20  57
ATOM     57  CB  ARG d  13    1416.680 417.769-1423.875  0.00  0.00     0.036 C 
BRANCH  57  58
ATOM     58  CG  ARG d  13    1418.225 417.921-1423.795  0.00  0.00     0.023 C 
BRANCH  58  59
ATOM     59  CD  ARG d  13    1418.852 416.934-1422.797  0.00  0.00     0.138 C 
BRANCH  59  60
ATOM     60  NE  ARG d  13    1420.329 417.141-1422.747  0.00  0.00    -0.227 N 
ATOM     61  CZ  ARG d  13    1421.177 416.449-1421.992  0.00  0.00     0.665 C 
ATOM     62  NH1 ARG d  13    1420.812 415.485-1421.194  0.00  0.00    -0.235 N 
ATOM     63  NH2 ARG d  13    1422.437 416.748-1422.049  0.00  0.00    -0.235 N 
ATOM     64 11HH ARG d  13    1419.807 415.299-1421.196  0.00  0.00     0.174 HD
ATOM     65 12HH ARG d  13    1421.525 415.002-1420.645  0.00  0.00     0.174 HD
ATOM     66 21HH ARG d  13    1422.704 417.505-1422.681  0.00  0.00     0.174 HD
ATOM     67 22HH ARG d  13    1423.072 416.206-1421.461  0.00  0.00     0.174 HD
ATOM     68  HE  ARG d  13    1420.780 417.862-1423.318  0.00  0.00     0.177 HD
ENDBRANCH  59  60
ENDBRANCH  58  59
ENDBRANCH  57  58
ENDBRANCH  20  57
ENDBRANCH  18  20
ENDBRANCH  15  16
BRANCH  15  69
ATOM     69  CB  GLN d  12    1411.861 420.051-1423.877  0.00  0.00     0.044 C 
BRANCH  69  70
ATOM     70  CG  GLN d  12    1412.222 421.572-1423.847  0.00  0.00     0.105 C 
BRANCH  70  71
ATOM     71  CD  GLN d  12    1411.920 422.387-1422.583  0.00  0.00     0.215 C 
ATOM     72  NE2 GLN d  12    1411.354 421.811-1421.553  0.00  0.00    -0.370 N 
ATOM     73 21HE GLN d  12    1411.247 422.406-1420.730  0.00  0.00     0.159 HD
ATOM     74 22HE GLN d  12    1411.190 420.807-1421.656  0.00  0.00     0.159 HD
ATOM     75  OE1 GLN d  12    1412.223 423.567-1422.506  0.00  0.00    -0.274 OA
ENDBRANCH  70  71
ENDBRANCH  69  70
ENDBRANCH  15  69
ENDBRANCH  13  15
ENDBRANCH  10  11
BRANCH  10  76
ATOM     76  CB  VAL d  11    1410.012 415.536-1426.078  0.00  0.00     0.009 C 
ATOM     77  CG1 VAL d  11    1409.443 416.240-1427.341  0.00  0.00     0.012 C 
ATOM     78  CG2 VAL d  11    1409.487 414.083-1426.151  0.00  0.00     0.012 C 
ENDBRANCH  10  76
ENDBRANCH   8  10
ENDBRANCH   5   6
BRANCH   5  79
ATOM     79  CB  HIS d  10    1413.370 413.004-1422.834  0.00  0.00     0.095 C 
BRANCH  79  80
ATOM     80  CG  HIS d  10    1414.656 412.294-1422.527  0.00  0.00     0.053 A 
ATOM     81  CD2 HIS d  10    1415.038 411.959-1421.235  0.00  0.00     0.116 A 
ATOM     82  NE2 HIS d  10    1416.252 411.326-1421.302  0.00  0.00    -0.359 N 
ATOM     83  CE1 HIS d  10    1416.514 411.329-1422.637  0.00  0.00     0.207 A 
ATOM     84  2HE HIS d  10    1416.819 410.949-1420.529  0.00  0.00     0.166 HD
ATOM     85  ND1 HIS d  10    1415.607 411.887-1423.460  0.00  0.00    -0.247 NA
ENDBRANCH  79  80
ENDBRANCH   5  79
ENDBRANCH   3   5
BRANCH   1  86
ATOM     86  CA  LEU d   9    1411.635 416.849-1420.553  0.00  0.00     0.177 C 
BRANCH  86  87
ATOM     87  N   LEU d   9    1410.333 416.191-1420.608  0.00  0.00    -0.346 N 
ATOM     88  C   ASP d   8    1409.653 416.241-1421.703  0.00  0.00     0.241 C 
ATOM     89  O   ASP d   8    1410.125 416.846-1422.678  0.00  0.00    -0.271 OA
ATOM     90  H   LEU d   9    1409.969 415.704-1419.801  0.00  0.00     0.163 HD
BRANCH  88  91
ATOM     91  CA  ASP d   8    1408.306 415.561-1421.761  0.00  0.00     0.186 C 
BRANCH  91  92
ATOM     92  N   ASP d   8    1408.377 414.211-1421.208  0.00  0.00    -0.346 N 
ATOM     93  C   LEU d   7    1409.214 413.371-1421.714  0.00  0.00     0.241 C 
ATOM     94  O   LEU d   7    1409.934 413.734-1422.656  0.00  0.00    -0.271 OA
ATOM     95  H   ASP d   8    1407.779 413.940-1420.440  0.00  0.00     0.163 HD
BRANCH  93  96
ATOM     96  CA  LEU d   7    1409.286 411.976-1421.142  0.00  0.00     0.177 C 
BRANCH  96  97
ATOM     97  N   LEU d   7    1409.342 412.011-1419.683  0.00  0.00    -0.346 N 
ATOM     98  C   ILE d   6    1410.287 412.675-1419.110  0.00  0.00     0.241 C 
ATOM     99  O   ILE d   6    1411.122 413.263-1419.814  0.00  0.00    -0.271 OA
ATOM    100  H   LEU d   7    1408.650 411.524-1419.132  0.00  0.00     0.163 HD
BRANCH  98 101
ATOM    101  CA  ILE d   6    1410.345 412.712-1417.602  0.00  0.00     0.180 C 
BRANCH 101 102
ATOM    102  N   ILE d   6    1409.032 413.007-1417.036  0.00  0.00    -0.346 N 
ATOM    103  C   SER d   5    1408.427 414.090-1417.390  0.00  0.00     0.243 C 
ATOM    104  O   SER d   5    1408.974 414.844-1418.194  0.00  0.00    -0.271 OA
ATOM    105  H   ILE d   6    1408.603 412.372-1416.377  0.00  0.00     0.163 HD
BRANCH 103 106
ATOM    106  CA  SER d   5    1407.068 414.395-1416.804  0.00  0.00     0.200 C 
BRANCH 106 107
ATOM    107  N   SER d   5    1406.199 413.224-1416.862  0.00  0.00    -0.344 N 
ATOM    108  C   GLU d   4    1405.971 412.671-1418.005  0.00  0.00     0.241 C 
ATOM    109  O   GLU d   4    1406.497 413.151-1419.020  0.00  0.00    -0.271 OA
ATOM    110  H   SER d   5    1405.782 412.852-1416.021  0.00  0.00     0.163 HD
BRANCH 108 111
ATOM    111  CA  GLU d   4    1405.072 411.460-1418.067  0.00  0.00     0.177 C 
BRANCH 111 112
ATOM    112  N   GLU d   4    1405.432 410.489-1417.037  0.00  0.00    -0.346 N 
ATOM    113  C   PRO d   3    1406.637 410.029-1417.005  0.00  0.00     0.241 C 
ATOM    114  O   PRO d   3    1407.460 410.412-1417.836  0.00  0.00    -0.271 OA
ATOM    115  H   GLU d   4    1404.748 410.182-1416.360  0.00  0.00     0.163 HD
BRANCH 113 116
ATOM    116  CA  PRO d   3    1407.035 409.006-1415.928  0.00  0.00     0.179 C 
ATOM    117  N   PRO d   3    1406.583 409.415-1414.606  0.00  0.00    -0.337 N 
ATOM    118  C   ASN d   2    1407.105 410.410-1413.972  0.00  0.00     0.243 C 
ATOM    119  CD  PRO d   3    1405.505 408.622-1414.057  0.00  0.00     0.127 C 
ATOM    120  O   ASN d   2    1408.020 411.040-1414.501  0.00  0.00    -0.271 OA
ATOM    121  CG  PRO d   3    1405.048 407.803-1415.267  0.00  0.00     0.022 C 
ATOM    122  CB  PRO d   3    1406.331 407.651-1416.097  0.00  0.00     0.037 C 
BRANCH 118 123
ATOM    123  CA  ASN d   2    1406.574 410.765-1412.604  0.00  0.00     0.185 C 
BRANCH 123 124
ATOM    124  N   ASN d   2    1405.114 410.804-1412.604  0.00  0.00    -0.346 N 
ATOM    125  C   GLU d   1    1404.510 411.590-1413.429  0.00  0.00     0.242 C 
ATOM    126  O   GLU d   1    1405.186 412.289-1414.197  0.00  0.00    -0.271 OA
ATOM    127  H   ASN d   2    1404.586 410.224-1411.967  0.00  0.00     0.163 HD
BRANCH 125 128
ATOM    128  CA  GLU d   1    1403.001 411.630-1413.429  0.00  0.00     0.191 C 
BRANCH 128 129
ATOM    129  N   GLU d   1    1402.442 410.281-1413.429  0.00  0.00    -0.326 NA
ATOM    130  H   GLU d   1    1403.069 409.402-1413.429  0.00  0.00     0.180 HD
ENDBRANCH 128 129
BRANCH 128 131
ATOM    131  CB  GLU d   1    1402.478 412.415-1412.192  0.00  0.00     0.047 C 
BRANCH 131 132
ATOM    132  CG  GLU d   1    1402.953 413.900-1412.081  0.00  0.00     0.116 C 
BRANCH 132 133
ATOM    133  CD  GLU d   1    1402.529 414.704-1410.866  0.00  0.00     0.172 C 
ATOM    134  OE1 GLU d   1    1401.801 414.202-1409.988  0.00  0.00    -0.648 OA
ATOM    135  OE2 GLU d   1    1402.959 415.874-1410.794  0.00  0.00    -0.648 OA
ENDBRANCH 132 133
ENDBRANCH 131 132
ENDBRANCH 128 131
ENDBRANCH 125 128
ENDBRANCH 123 124
BRANCH 123 136
ATOM    136  CB  ASN d   2    1407.066 409.742-1411.539  0.00  0.00     0.137 C 
BRANCH 136 137
ATOM    137  CG  ASN d   2    1406.603 409.966-1410.096  0.00  0.00     0.217 C 
ATOM    138  ND2 ASN d   2    1407.197 410.881-1409.378  0.00  0.00    -0.370 N 
ATOM    139 21HD ASN d   2    1406.716 411.054-1408.491  0.00  0.00     0.159 HD
ATOM    140 22HD ASN d   2    1407.899 411.453-1409.847  0.00  0.00     0.159 HD
ATOM    141  OD1 ASN d   2    1405.682 409.332-1409.602  0.00  0.00    -0.274 OA
ENDBRANCH 136 137
ENDBRANCH 123 136
ENDBRANCH 118 123
ENDBRANCH 113 116
ENDBRANCH 111 112
BRANCH 111 142
ATOM    142  CB  GLU d   4    1403.584 411.879-1417.896  0.00  0.00     0.045 C 
BRANCH 142 143
ATOM    143  CG  GLU d   4    1403.035 412.882-1418.962  0.00  0.00     0.116 C 
BRANCH 143 144
ATOM    144  CD  GLU d   4    1401.609 413.379-1418.818  0.00  0.00     0.172 C 
ATOM    145  OE1 GLU d   4    1400.883 412.980-1417.887  0.00  0.00    -0.648 OA
ATOM    146  OE2 GLU d   4    1401.219 414.208-1419.666  0.00  0.00    -0.648 OA
ENDBRANCH 143 144
ENDBRANCH 142 143
ENDBRANCH 111 142
ENDBRANCH 108 111
ENDBRANCH 106 107
BRANCH 106 147
ATOM    147  CB  SER d   5    1407.180 414.927-1415.353  0.00  0.00     0.199 C 
BRANCH 147 148
ATOM    148  OG  SER d   5    1407.912 414.048-1414.492  0.00  0.00    -0.398 OA
ATOM    149  HG  SER d   5    1407.423 413.223-1414.442  0.00  0.00     0.209 HD
ENDBRANCH 147 148
ENDBRANCH 106 147
ENDBRANCH 103 106
ENDBRANCH 101 102
BRANCH 101 150
ATOM    150  CB  ILE d   6    1410.945 411.376-1417.002  0.00  0.00     0.013 C 
ATOM    151  CG2 ILE d   6    1412.386 411.075-1417.518  0.00  0.00     0.012 C 
BRANCH 150 152
ATOM    152  CG1 ILE d   6    1410.964 411.314-1415.441  0.00  0.00     0.002 C 
ATOM    153  CD1 ILE d   6    1411.234 409.924-1414.827  0.00  0.00     0.005 C 
ENDBRANCH 150 152
ENDBRANCH 101 150
ENDBRANCH  98 101
ENDBRANCH  96  97
BRANCH  96 154
ATOM    154  CB  LEU d   7    1408.083 411.115-1421.622  0.00  0.00     0.038 C 
BRANCH 154 155
ATOM    155  CG  LEU d   7    1408.011 409.636-1421.156  0.00  0.00    -0.020 C 
ATOM    156  CD1 LEU d   7    1406.821 408.930-1421.822  0.00  0.00     0.009 C 
ATOM    157  CD2 LEU d   7    1409.304 408.857-1421.448  0.00  0.00     0.009 C 
ENDBRANCH 154 155
ENDBRANCH  96 154
ENDBRANCH  93  96
ENDBRANCH  91  92
BRANCH  91 158
ATOM    158  CB  ASP d   8    1407.228 416.400-1421.019  0.00  0.00     0.147 C 
BRANCH 158 159
ATOM    159  CG  ASP d   8    1407.009 417.821-1421.559  0.00  0.00     0.175 C 
ATOM    160  OD1 ASP d   8    1407.073 418.020-1422.789  0.00  0.00    -0.648 OA
ATOM    161  OD2 ASP d   8    1406.817 418.746-1420.743  0.00  0.00    -0.648 OA
ENDBRANCH 158 159
ENDBRANCH  91 158
ENDBRANCH  88  91
ENDBRANCH  86  87
BRANCH  86 162
ATOM    162  CB  LEU d   9    1412.274 416.678-1419.146  0.00  0.00     0.038 C 
BRANCH 162 163
ATOM    163  CG  LEU d   9    1411.482 417.197-1417.916  0.00  0.00    -0.020 C 
ATOM    164  CD1 LEU d   9    1412.323 417.040-1416.641  0.00  0.00     0.009 C 
ATOM    165  CD2 LEU d   9    1411.042 418.663-1418.068  0.00  0.00     0.009 C 
ENDBRANCH 162 163
ENDBRANCH  86 162
ENDBRANCH   1  86
TORSDOF 67
