@<TRIPOS>MOLECULE
2-8
271 273 16              
SMALL
USER_CHARGES
@<TRIPOS>ATOM
1	   N	231.716	42.213	-205.397	N.3	1	GLU1	-0.516	
2	  CA	232.275	43.562	-205.397	C.3	1	GLU1	0.040	
3	   C	233.784	43.522	-205.397	C.2	1	GLU1	0.537	
4	   O	234.460	44.221	-206.166	O.2	1	GLU1	-0.582	
5	  CB	231.752	44.347	-204.160	C.3	1	GLU1	0.056	
6	  CG	232.227	45.832	-204.049	C.3	1	GLU1	0.014	
7	  CD	231.803	46.636	-202.834	C.2	1	GLU1	0.805	
8	 OE1	231.075	46.134	-201.956	O.co2	1	GLU1	-0.819	
9	 OE2	232.233	47.806	-202.762	O.co2	1	GLU1	-0.819	
10	   H	232.343	41.334	-205.397	 H	1	GLU1	0.294	
11	  HA	231.949	44.080	-206.317	 H	1	GLU1	0.111	
12	 2HB	232.041	43.816	-203.230	 H	1	GLU1	-0.017	
13	 3HB	230.645	44.337	-204.147	 H	1	GLU1	-0.017	
14	 2HG	231.917	46.417	-204.930	 H	1	GLU1	-0.043	
15	 3HG	233.327	45.899	-204.020	 H	1	GLU1	-0.043	
16	   N	234.388	42.736	-204.572	N.am	2	PHE2	-0.416	
17	  CA	235.848	42.697	-204.571	C.3	2	PHE2	-0.002	
18	   C	236.381	42.342	-205.939	C.2	2	PHE2	0.597	
19	   O	237.320	42.990	-206.479	O.2	2	PHE2	-0.568	
20	  CB	236.354	41.640	-203.544	C.3	2	PHE2	-0.034	
21	  CG	235.910	41.835	-202.085	C.2	2	PHE2	0.012	
22	 CD1	234.705	41.274	-201.649	C.2	2	PHE2	-0.126	
23	 CD2	236.663	42.617	-201.207	C.2	2	PHE2	-0.126	
24	 CE1	234.249	41.508	-200.356	C.2	2	PHE2	-0.170	
25	 CE2	236.212	42.843	-199.909	C.2	2	PHE2	-0.170	
26	  CZ	235.004	42.291	-199.486	C.2	2	PHE2	-0.107	
27	   H	233.860	42.156	-203.935	 H	2	PHE2	0.272	
28	  HA	236.233	43.699	-204.303	 H	2	PHE2	0.098	
29	 2HB	237.461	41.603	-203.570	 H	2	PHE2	0.030	
30	 3HB	236.055	40.625	-203.876	 H	2	PHE2	0.030	
31	 1HD	234.098	40.691	-202.330	 H	2	PHE2	0.133	
32	 2HD	237.590	43.066	-201.535	 H	2	PHE2	0.133	
33	 1HE	233.302	41.096	-200.039	 H	2	PHE2	0.143	
34	 2HE	236.794	43.455	-199.235	 H	2	PHE2	0.143	
35	  HZ	234.645	42.476	-198.484	 H	2	PHE2	0.130	
36	   N	235.861	41.347	-206.574	N.am	3	PRO3	-0.255	
37	  CA	236.315	40.938	-207.895	C.3	3	PRO3	-0.027	
38	   C	235.919	41.962	-208.972	C.2	3	PRO3	0.590	
39	   O	236.743	42.346	-209.802	O.2	3	PRO3	-0.575	
40	  CB	235.612	39.583	-208.066	C.3	3	PRO3	-0.007	
41	  CG	234.327	39.734	-207.238	C.3	3	PRO3	0.019	
42	  CD	234.782	40.553	-206.028	C.3	3	PRO3	0.019	
43	  HA	237.401	40.819	-207.907	 H	3	PRO3	0.064	
44	 2HB	236.235	38.802	-207.625	 H	3	PRO3	0.025	
45	 3HB	235.416	39.335	-209.112	 H	3	PRO3	0.025	
46	 2HG	233.900	38.772	-206.949	 H	3	PRO3	0.021	
47	 3HG	233.590	40.305	-207.807	 H	3	PRO3	0.021	
48	 2HD	235.170	39.903	-205.239	 H	3	PRO3	0.039	
49	 3HD	233.985	41.188	-205.636	 H	3	PRO3	0.039	
50	   N	234.714	42.421	-209.007	N.am	4	GLU4	-0.516	
51	  CA	234.355	43.392	-210.037	C.3	4	GLU4	0.040	
52	   C	235.254	44.604	-209.973	C.2	4	GLU4	0.537	
53	   O	235.781	45.084	-210.987	O.2	4	GLU4	-0.582	
54	  CB	232.866	43.810	-209.869	C.3	4	GLU4	0.056	
55	  CG	232.320	44.814	-210.935	C.3	4	GLU4	0.014	
56	  CD	230.893	45.310	-210.794	C.2	4	GLU4	0.805	
57	 OE1	230.165	44.911	-209.864	O.co2	4	GLU4	-0.819	
58	 OE2	230.504	46.139	-211.642	O.co2	4	GLU4	-0.819	
59	   H	234.029	42.114	-208.331	 H	4	GLU4	0.294	
60	  HA	234.489	42.922	-211.028	 H	4	GLU4	0.111	
61	 2HB	232.712	44.250	-208.862	 H	4	GLU4	-0.017	
62	 3HB	232.219	42.912	-209.877	 H	4	GLU4	-0.017	
63	 2HG	232.403	44.400	-211.953	 H	4	GLU4	-0.043	
64	 3HG	232.907	45.747	-210.945	 H	4	GLU4	-0.043	
65	   N	235.479	45.156	-208.829	N.am	5	SER5	-0.416	
66	  CA	236.347	46.328	-208.769	C.3	5	SER5	-0.025	
67	   C	237.707	46.024	-209.352	C.2	5	SER5	0.597	
68	   O	238.256	46.778	-210.156	O.2	5	SER5	-0.568	
69	  CB	236.456	46.860	-207.318	C.3	5	SER5	0.212	
70	  OG	237.187	45.981	-206.456	O.3	5	SER5	-0.655	
71	   H	235.060	44.784	-207.989	 H	5	SER5	0.272	
72	  HA	235.899	47.118	-209.399	 H	5	SER5	0.084	
73	 2HB	235.455	47.053	-206.887	 H	5	SER5	0.035	
74	 3HB	236.961	47.846	-207.319	 H	5	SER5	0.035	
75	  HG	236.698	45.156	-206.407	 H	5	SER5	0.428	
76	   N	238.312	44.941	-208.997	N.am	6	ILE6	-0.416	
77	  CA	239.627	44.647	-209.562	C.3	6	ILE6	-0.060	
78	   C	239.572	44.610	-211.069	C.2	6	ILE6	0.597	
79	   O	240.408	45.199	-211.772	O.2	6	ILE6	-0.568	
80	  CB	240.226	43.311	-208.961	C.3	6	ILE6	0.130	
81	 CG1	240.243	43.248	-207.400	C.3	6	ILE6	-0.043	
82	 CG2	241.669	43.011	-209.474	C.3	6	ILE6	-0.320	
83	 CD1	240.513	41.859	-206.785	C.3	6	ILE6	-0.066	
84	   H	237.883	44.306	-208.340	 H	6	ILE6	0.272	
85	  HA	240.300	45.482	-209.292	 H	6	ILE6	0.087	
86	  HB	239.569	42.485	-209.306	 H	6	ILE6	0.019	
87	2HG1	239.260	43.567	-207.006	 H	6	ILE6	0.024	
88	3HG1	240.957	43.991	-206.994	 H	6	ILE6	0.024	
89	1HG2	241.729	42.917	-210.572	 H	6	ILE6	0.088	
90	2HG2	242.390	43.793	-209.170	 H	6	ILE6	0.088	
91	3HG2	242.059	42.049	-209.095	 H	6	ILE6	0.088	
92	1HD1	239.786	41.105	-207.141	 H	6	ILE6	0.019	
93	2HD1	241.524	41.481	-207.019	 H	6	ILE6	0.019	
94	3HD1	240.434	41.889	-205.682	 H	6	ILE6	0.019	
95	   N	238.628	43.946	-211.645	N.am	7	LEU7	-0.416	
96	  CA	238.576	43.911	-213.104	C.3	7	LEU7	-0.052	
97	   C	238.503	45.306	-213.676	C.2	7	LEU7	0.597	
98	   O	239.225	45.670	-214.616	O.2	7	LEU7	-0.568	
99	  CB	237.374	43.050	-213.587	C.3	7	LEU7	-0.110	
100	  CG	237.301	41.570	-213.121	C.3	7	LEU7	0.353	
101	 CD1	236.113	40.864	-213.789	C.3	7	LEU7	-0.412	
102	 CD2	238.596	40.792	-213.410	C.3	7	LEU7	-0.412	
103	   H	237.935	43.458	-211.095	 H	7	LEU7	0.272	
104	  HA	239.518	43.472	-213.476	 H	7	LEU7	0.092	
105	 2HB	237.353	43.066	-214.694	 H	7	LEU7	0.046	
106	 3HB	236.433	43.552	-213.284	 H	7	LEU7	0.046	
107	  HG	237.129	41.562	-212.024	 H	7	LEU7	-0.036	
108	1HD1	235.155	41.372	-213.568	 H	7	LEU7	0.100	
109	2HD1	236.214	40.824	-214.890	 H	7	LEU7	0.100	
110	3HD1	236.006	39.822	-213.433	 H	7	LEU7	0.100	
111	1HD2	238.873	40.823	-214.480	 H	7	LEU7	0.100	
112	2HD2	239.448	41.204	-212.837	 H	7	LEU7	0.100	
113	3HD2	238.515	39.729	-213.115	 H	7	LEU7	0.100	
114	   N	237.664	46.146	-213.170	N.am	8	ASP8	-0.516	
115	  CA	237.594	47.496	-213.723	C.3	8	ASP8	0.038	
116	   C	238.940	48.176	-213.663	C.2	8	ASP8	0.537	
117	   O	239.414	48.782	-214.637	O.2	8	ASP8	-0.582	
118	  CB	236.514	48.333	-212.983	C.3	8	ASP8	-0.030	
119	  CG	236.295	49.754	-213.523	C.2	8	ASP8	0.799	
120	 OD1	236.361	49.954	-214.754	O.co2	8	ASP8	-0.801	
121	 OD2	236.101	50.680	-212.708	O.co2	8	ASP8	-0.801	
122	   H	237.065	45.874	-212.404	 H	8	ASP8	0.294	
123	  HA	237.313	47.418	-214.791	 H	8	ASP8	0.088	
124	 2HB	236.769	48.416	-211.911	 H	8	ASP8	-0.012	
125	 3HB	235.535	47.828	-213.018	 H	8	ASP8	-0.012	
126	   N	239.618	48.127	-212.567	N.am	9	GLU9	-0.516	
127	  CA	240.920	48.785	-212.509	C.3	9	GLU9	0.040	
128	   C	241.840	48.259	-213.583	C.2	9	GLU9	0.537	
129	   O	242.505	49.014	-214.307	O.2	9	GLU9	-0.582	
130	  CB	241.551	48.577	-211.102	C.3	9	GLU9	0.056	
131	  CG	242.933	49.271	-210.870	C.3	9	GLU9	0.014	
132	  CD	243.632	49.057	-209.541	C.2	9	GLU9	0.805	
133	 OE1	243.110	48.365	-208.646	O.co2	9	GLU9	-0.819	
134	 OE2	244.751	49.596	-209.407	O.co2	9	GLU9	-0.819	
135	   H	239.253	47.639	-211.761	 H	9	GLU9	0.294	
136	  HA	240.777	49.867	-212.684	 H	9	GLU9	0.111	
137	 2HB	241.664	47.493	-210.899	 H	9	GLU9	-0.017	
138	 3HB	240.852	48.930	-210.319	 H	9	GLU9	-0.017	
139	 2HG	242.860	50.361	-211.009	 H	9	GLU9	-0.043	
140	 3HG	243.681	48.927	-211.603	 H	9	GLU9	-0.043	
141	   N	241.938	46.984	-213.753	N.am	10	HIS10	-0.416	
142	  CA	242.828	46.474	-214.792	C.3	10	HIS10	-0.058	
143	   C	242.464	47.039	-216.144	C.2	10	HIS10	0.597	
144	   O	243.317	47.505	-216.914	O.2	10	HIS10	-0.568	
145	  CB	242.666	44.945	-214.788	C.3	10	HIS10	-0.007	
146	  CG	243.951	44.235	-214.478	C.2	10	HIS10	0.187	
147	 CD2	244.330	43.900	-213.185	C.2	10	HIS10	-0.221	
148	 ND1	244.905	43.831	-215.409	N.2	10	HIS10	-0.543	
149	 CE1	245.811	43.273	-214.585	C.2	10	HIS10	0.163	
150	 NE2	245.546	43.269	-213.250	N.pl3	10	HIS10	-0.280	
151	   H	241.407	46.348	-213.176	 H	10	HIS10	0.272	
152	  HA	243.847	46.832	-214.565	 H	10	HIS10	0.136	
153	 2HB	242.303	44.578	-215.769	 H	10	HIS10	0.037	
154	 3HB	241.909	44.607	-214.050	 H	10	HIS10	0.037	
155	 2HD	243.743	44.114	-212.297	 H	10	HIS10	0.186	
156	 1HE	246.703	42.853	-215.030	 H	10	HIS10	0.144	
157	 2HE	246.111	42.892	-212.476	 H	10	HIS10	0.334	
158	   N	241.226	47.037	-216.509	N.am	11	VAL11	-0.416	
159	  CA	240.873	47.583	-217.816	C.3	11	VAL11	-0.087	
160	   C	241.337	49.014	-217.947	C.2	11	VAL11	0.597	
161	   O	241.939	49.421	-218.949	O.2	11	VAL11	-0.568	
162	  CB	239.313	47.475	-218.039	C.3	11	VAL11	0.299	
163	 CG1	238.746	48.179	-219.302	C.3	11	VAL11	-0.319	
164	 CG2	238.789	46.021	-218.113	C.3	11	VAL11	-0.319	
165	   H	240.513	46.663	-215.900	 H	11	VAL11	0.272	
166	  HA	241.395	47.002	-218.598	 H	11	VAL11	0.097	
167	  HB	238.823	47.955	-217.164	 H	11	VAL11	-0.030	
168	1HG1	239.186	47.789	-220.238	 H	11	VAL11	0.079	
169	2HG1	237.647	48.071	-219.386	 H	11	VAL11	0.079	
170	3HG1	238.923	49.272	-219.292	 H	11	VAL11	0.079	
171	1HG2	239.078	45.433	-217.223	 H	11	VAL11	0.079	
172	2HG2	237.684	45.983	-218.158	 H	11	VAL11	0.079	
173	3HG2	239.173	45.481	-219.000	 H	11	VAL11	0.079	
174	   N	241.097	49.839	-216.985	N.am	12	GLN12	-0.416	
175	  CA	241.544	51.223	-217.110	C.3	12	GLN12	-0.003	
176	   C	243.035	51.292	-217.345	C.2	12	GLN12	0.597	
177	   O	243.523	52.001	-218.223	O.2	12	GLN12	-0.568	
178	  CB	241.151	51.989	-215.828	C.3	12	GLN12	-0.004	
179	  CG	241.509	53.511	-215.795	C.3	12	GLN12	-0.064	
180	  CD	241.204	54.324	-214.531	C.2	12	GLN12	0.695	
181	 NE2	240.635	53.746	-213.503	N.pl3	12	GLN12	-0.941	
182	 OE1	241.504	55.505	-214.452	O.2	12	GLN12	-0.609	
183	   H	240.607	49.532	-216.157	 H	12	GLN12	0.272	
184	  HA	241.046	51.679	-217.986	 H	12	GLN12	0.085	
185	 2HB	241.625	51.489	-214.958	 H	12	GLN12	0.017	
186	 3HB	240.060	51.881	-215.667	 H	12	GLN12	0.017	
187	 2HG	241.033	54.032	-216.647	 H	12	GLN12	0.035	
188	 3HG	242.593	53.654	-215.959	 H	12	GLN12	0.035	
189	1HE2	240.526	54.340	-212.679	 H	12	GLN12	0.425	
190	2HE2	240.473	52.743	-213.607	 H	12	GLN12	0.425	
191	   N	243.819	50.585	-216.603	N.am	13	ARG13	-0.348	
192	  CA	245.259	50.652	-216.831	C.3	13	ARG13	-0.264	
193	   C	245.599	50.282	-218.256	C.2	13	ARG13	0.734	
194	   O	246.368	50.955	-218.938	O.2	13	ARG13	-0.589	
195	  CB	245.972	49.713	-215.817	C.3	13	ARG13	-0.001	
196	  CG	247.516	49.868	-215.733	C.3	13	ARG13	0.039	
197	  CD	248.142	48.880	-214.734	C.3	13	ARG13	0.049	
198	  NE	249.619	49.089	-214.681	N.pl3	13	ARG13	-0.530	
199	  CZ	250.466	48.397	-213.924	C.cat	13	ARG13	0.808	
200	 NH1	250.101	47.432	-213.128	N.pl3	13	ARG13	-0.863	
201	 NH2	251.726	48.698	-213.979	N.pl3	13	ARG13	-0.863	
202	   H	243.442	49.995	-215.876	 H	13	ARG13	0.275	
203	  HA	245.582	51.699	-216.672	 H	13	ARG13	0.156	
204	 2HB	245.707	48.663	-216.057	 H	13	ARG13	0.033	
205	 3HB	245.544	49.879	-214.807	 H	13	ARG13	0.033	
206	 2HG	247.763	50.913	-215.452	 H	13	ARG13	0.029	
207	 3HG	247.969	49.713	-216.733	 H	13	ARG13	0.029	
208	 2HD	247.899	47.840	-215.044	 H	13	ARG13	0.069	
209	 3HD	247.684	49.025	-213.732	 H	13	ARG13	0.069	
210	  HE	250.071	49.812	-215.250	 H	13	ARG13	0.346	
211	1HH1	249.095	47.245	-213.133	 H	13	ARG13	0.448	
212	2HH1	250.813	46.950	-212.578	 H	13	ARG13	0.448	
213	1HH2	251.994	49.456	-214.609	 H	13	ARG13	0.448	
214	2HH2	252.360	48.157	-213.389	 H	13	ARG13	0.448	
215	   N	245.064	49.227	-218.772	N.am	14	VAL14	-0.416	
216	  CA	245.392	48.869	-220.149	C.3	14	VAL14	-0.087	
217	   C	245.063	49.999	-221.095	C.2	14	VAL14	0.597	
218	   O	245.857	50.382	-221.962	O.2	14	VAL14	-0.568	
219	  CB	244.622	47.551	-220.558	C.3	14	VAL14	0.299	
220	 CG1	244.714	47.134	-222.052	C.3	14	VAL14	-0.319	
221	 CG2	245.053	46.299	-219.758	C.3	14	VAL14	-0.319	
222	   H	244.429	48.658	-218.232	 H	14	VAL14	0.272	
223	  HA	246.481	48.693	-220.222	 H	14	VAL14	0.097	
224	  HB	243.545	47.722	-220.344	 H	14	VAL14	-0.030	
225	1HG1	245.756	46.958	-222.379	 H	14	VAL14	0.079	
226	2HG1	244.142	46.211	-222.266	 H	14	VAL14	0.079	
227	3HG1	244.285	47.896	-222.730	 H	14	VAL14	0.079	
228	1HG2	244.964	46.457	-218.667	 H	14	VAL14	0.079	
229	2HG2	244.419	45.422	-219.992	 H	14	VAL14	0.079	
230	3HG2	246.102	46.010	-219.962	 H	14	VAL14	0.079	
231	   N	243.917	50.584	-220.995	N.am	15	MET15	-0.416	
232	  CA	243.598	51.677	-221.908	C.3	15	MET15	-0.024	
233	   C	244.627	52.778	-221.818	C.2	15	MET15	0.597	
234	   O	245.131	53.290	-222.829	O.2	15	MET15	-0.568	
235	  CB	242.175	52.221	-221.602	C.3	15	MET15	0.034	
236	  CG	241.014	51.222	-221.796	C.3	15	MET15	0.002	
237	  SD	239.440	52.087	-221.684	S.3	15	MET15	-0.274	
238	  CE	238.359	50.656	-221.551	C.3	15	MET15	-0.054	
239	   H	243.251	50.290	-220.295	 H	15	MET15	0.272	
240	  HA	243.626	51.290	-222.944	 H	15	MET15	0.088	
241	 2HB	241.973	53.100	-222.244	 H	15	MET15	0.024	
242	 3HB	242.137	52.613	-220.565	 H	15	MET15	0.024	
243	 2HG	241.057	50.436	-221.019	 H	15	MET15	0.044	
244	 3HG	241.080	50.708	-222.773	 H	15	MET15	0.044	
245	 1HE	238.505	49.969	-222.403	 H	15	MET15	0.068	
246	 2HE	238.567	50.103	-220.618	 H	15	MET15	0.068	
247	 3HE	237.301	50.971	-221.536	 H	15	MET15	0.068	
248	   N	244.993	53.198	-220.655	N.am	16	ARG16	-0.348	
249	  CA	245.988	54.263	-220.569	C.3	16	ARG16	-0.264	
250	   C	247.261	53.872	-221.283	C.2	16	ARG16	0.734	
251	   O	247.377	52.796	-221.865	O.2	16	ARG16	-0.589	
252	  CB	246.254	54.580	-219.070	C.3	16	ARG16	-0.001	
253	  CG	247.078	55.870	-218.795	C.3	16	ARG16	0.039	
254	  CD	247.324	56.089	-217.293	C.3	16	ARG16	0.049	
255	  NE	248.099	57.348	-217.089	N.pl3	16	ARG16	-0.530	
256	  CZ	248.488	57.830	-215.913	C.cat	16	ARG16	0.808	
257	 NH1	248.239	57.245	-214.775	N.pl3	16	ARG16	-0.863	
258	 NH2	249.151	58.943	-215.893	N.pl3	16	ARG16	-0.863	
259	   H	244.597	52.798	-219.817	 H	16	ARG16	0.275	
260	  HA	245.579	55.156	-221.079	 H	16	ARG16	0.156	
261	 2HB	246.751	53.705	-218.603	 H	16	ARG16	0.033	
262	 3HB	245.284	54.660	-218.538	 H	16	ARG16	0.033	
263	 2HG	246.548	56.741	-219.232	 H	16	ARG16	0.029	
264	 3HG	248.052	55.818	-219.322	 H	16	ARG16	0.029	
265	 2HD	247.873	55.214	-216.879	 H	16	ARG16	0.069	
266	 3HD	246.351	56.130	-216.759	 H	16	ARG16	0.069	
267	  HE	248.379	57.930	-217.886	 H	16	ARG16	0.346	
268	1HH1	247.714	56.372	-214.861	 H	16	ARG16	0.448	
269	2HH1	248.571	57.680	-213.913	 H	16	ARG16	0.448	
270	1HH2	249.338	59.387	-216.794	 H	16	ARG16	0.448	
271	2HH2	249.439	59.298	-214.979	 H	16	ARG16	0.448	
@<TRIPOS>BOND
1 1 2 1
2 1 10 1
3 2 3 1
4 2 5 1
5 2 11 1
6 3 4 2
7 3 16 1
8 5 6 1
9 6 7 1
10 7 8 2
11 7 9 1
12 5 12 1
13 5 13 1
14 6 14 1
15 6 15 1
16 16 17 1
17 16 27 1
18 17 18 1
19 17 20 1
20 17 28 1
21 18 19 2
22 18 36 1
23 20 21 1
24 21 22 2
25 21 23 1
26 23 25 2
27 22 24 1
28 25 26 1
29 24 26 2
30 20 29 1
31 20 30 1
32 22 31 1
33 23 32 1
34 24 33 1
35 25 34 1
36 26 35 1
37 36 37 1
38 36 42 1
39 37 38 1
40 37 40 1
41 37 43 1
42 38 39 2
43 38 50 1
44 40 41 1
45 41 42 1
46 40 44 1
47 40 45 1
48 41 46 1
49 41 47 1
50 42 48 1
51 42 49 1
52 50 51 1
53 50 59 1
54 51 52 1
55 51 54 1
56 51 60 1
57 52 53 2
58 52 65 1
59 54 55 1
60 55 56 1
61 56 57 2
62 56 58 1
63 54 61 1
64 54 62 1
65 55 63 1
66 55 64 1
67 65 66 1
68 65 71 1
69 66 67 1
70 66 69 1
71 66 72 1
72 67 68 2
73 67 76 1
74 69 70 1
75 69 73 1
76 69 74 1
77 70 75 1
78 76 77 1
79 76 84 1
80 77 78 1
81 77 80 1
82 77 85 1
83 78 79 2
84 78 95 1
85 80 81 1
86 80 82 1
87 81 83 1
88 80 86 1
89 81 87 1
90 81 88 1
91 82 89 1
92 82 90 1
93 82 91 1
94 83 92 1
95 83 93 1
96 83 94 1
97 95 96 1
98 95 103 1
99 96 97 1
100 96 99 1
101 96 104 1
102 97 98 2
103 97 114 1
104 99 100 1
105 100 101 1
106 100 102 1
107 99 105 1
108 99 106 1
109 100 107 1
110 101 108 1
111 101 109 1
112 101 110 1
113 102 111 1
114 102 112 1
115 102 113 1
116 114 115 1
117 114 122 1
118 115 116 1
119 115 118 1
120 115 123 1
121 116 117 2
122 116 126 1
123 118 119 1
124 119 120 2
125 119 121 1
126 118 124 1
127 118 125 1
128 126 127 1
129 126 135 1
130 127 128 1
131 127 130 1
132 127 136 1
133 128 129 2
134 128 141 1
135 130 131 1
136 131 132 1
137 132 133 2
138 132 134 1
139 130 137 1
140 130 138 1
141 131 139 1
142 131 140 1
143 141 142 1
144 141 151 1
145 142 143 1
146 142 145 1
147 142 152 1
148 143 144 2
149 143 158 1
150 145 146 1
151 146 147 2
152 147 150 1
153 146 148 1
154 148 149 2
155 149 150 1
156 145 153 1
157 145 154 1
158 147 155 1
159 149 156 1
160 150 157 1
161 158 159 1
162 158 165 1
163 159 160 1
164 159 162 1
165 159 166 1
166 160 161 2
167 160 174 1
168 162 163 1
169 162 164 1
170 162 167 1
171 163 168 1
172 163 169 1
173 163 170 1
174 164 171 1
175 164 172 1
176 164 173 1
177 174 175 1
178 174 183 1
179 175 176 1
180 175 178 1
181 175 184 1
182 176 177 2
183 176 191 1
184 178 179 1
185 179 180 1
186 180 181 1
187 180 182 2
188 178 185 1
189 178 186 1
190 179 187 1
191 179 188 1
192 181 189 1
193 181 190 1
194 191 192 1
195 191 202 1
196 192 193 1
197 192 195 1
198 192 203 1
199 193 194 2
200 193 215 1
201 195 196 1
202 196 197 1
203 197 198 1
204 198 199 1
205 199 200 2
206 199 201 1
207 195 204 1
208 195 205 1
209 196 206 1
210 196 207 1
211 197 208 1
212 197 209 1
213 198 210 1
214 200 211 1
215 200 212 1
216 201 213 1
217 201 214 1
218 215 216 1
219 215 222 1
220 216 217 1
221 216 219 1
222 216 223 1
223 217 218 2
224 217 231 1
225 219 220 1
226 219 221 1
227 219 224 1
228 220 225 1
229 220 226 1
230 220 227 1
231 221 228 1
232 221 229 1
233 221 230 1
234 231 232 1
235 231 239 1
236 232 233 1
237 232 235 1
238 232 240 1
239 233 234 2
240 233 248 1
241 235 236 1
242 236 237 1
243 237 238 1
244 235 241 1
245 235 242 1
246 236 243 1
247 236 244 1
248 238 245 1
249 238 246 1
250 238 247 1
251 248 249 1
252 248 259 1
253 249 250 1
254 249 252 1
255 249 260 1
256 250 251 2
257 252 253 1
258 253 254 1
259 254 255 1
260 255 256 1
261 256 257 2
262 256 258 1
263 252 261 1
264 252 262 1
265 253 263 1
266 253 264 1
267 254 265 1
268 254 266 1
269 255 267 1
270 257 268 1
271 257 269 1
272 258 270 1
273 258 271 1
@<TRIPOS>SUBSTRUCTURE
1	GLU1	1	RESIDUE	1 ****	GLU
2	PHE2	16	RESIDUE	1 ****	PHE
3	PRO3	36	RESIDUE	1 ****	PRO
4	GLU4	50	RESIDUE	1 ****	GLU
5	SER5	65	RESIDUE	1 ****	SER
6	ILE6	76	RESIDUE	1 ****	ILE
7	LEU7	95	RESIDUE	1 ****	LEU
8	ASP8	114	RESIDUE	1 ****	ASP
9	GLU9	126	RESIDUE	1 ****	GLU
10	HIS10	141	RESIDUE	1 ****	HIS
11	VAL11	158	RESIDUE	1 ****	VAL
12	GLN12	174	RESIDUE	1 ****	GLN
13	ARG13	191	RESIDUE	1 ****	ARG
14	VAL14	215	RESIDUE	1 ****	VAL
15	MET15	231	RESIDUE	1 ****	MET
16	ARG16	248	RESIDUE	1 ****	ARG
