REMARK WARNING: 32 MAX_TORS EXCEEDED!!!
REMARK  71 active torsions:
REMARK  status: ('A' for Active; 'I' for Inactive)
REMARK    1  A    between atoms: N_1  and  CA_2 
REMARK    2  A    between atoms: CA_2  and  C_3 
REMARK    3  A    between atoms: CA_2  and  CB_5 
REMARK       I    between atoms: C_3  and  N_11 
REMARK    4  A    between atoms: CB_5  and  CG_6 
REMARK    5  A    between atoms: CG_6  and  CD_7 
REMARK    6  A    between atoms: N_11  and  CA_12 
REMARK    7  A    between atoms: CA_12  and  C_13 
REMARK    8  A    between atoms: CA_12  and  CB_15 
REMARK       I    between atoms: C_13  and  N_22 
REMARK    9  A    between atoms: CB_15  and  CG_16 
REMARK       I    between atoms: CG_16  and  ND2_17 
REMARK   10  A    between atoms: CA_23  and  C_24 
REMARK       I    between atoms: C_24  and  N_29 
REMARK   11  A    between atoms: N_29  and  CA_30 
REMARK   12  A    between atoms: CA_30  and  C_31 
REMARK   13  A    between atoms: CA_30  and  CB_33 
REMARK       I    between atoms: C_31  and  N_39 
REMARK   14  A    between atoms: CB_33  and  CG_34 
REMARK   15  A    between atoms: CG_34  and  CD_35 
REMARK   16  A    between atoms: N_39  and  CA_40 
REMARK   17  A    between atoms: CA_40  and  C_41 
REMARK   18  A    between atoms: CA_40  and  CB_43 
REMARK       I    between atoms: C_41  and  N_47 
REMARK   19  A    between atoms: CB_43  and  OG_44 
REMARK   20  A    between atoms: N_47  and  CA_48 
REMARK   21  A    between atoms: CA_48  and  C_49 
REMARK   22  A    between atoms: CA_48  and  CB_51 
REMARK       I    between atoms: C_49  and  N_56 
REMARK   23  A    between atoms: CB_51  and  CG1_52 
REMARK   24  A    between atoms: N_56  and  CA_57 
REMARK   25  A    between atoms: CA_57  and  C_58 
REMARK   26  A    between atoms: CA_57  and  CB_60 
REMARK       I    between atoms: C_58  and  N_65 
REMARK   27  A    between atoms: CB_60  and  CG_61 
REMARK   28  A    between atoms: N_65  and  CA_66 
REMARK   29  A    between atoms: CA_66  and  C_67 
REMARK   30  A    between atoms: CA_66  and  CB_69 
REMARK       I    between atoms: C_67  and  N_74 
REMARK   31  A    between atoms: CB_69  and  CG_70 
REMARK   32  A    between atoms: N_74  and  CA_75 
REMARK   33  A    between atoms: CA_75  and  C_76 
REMARK   34  A    between atoms: CA_75  and  CB_78 
REMARK       I    between atoms: C_76  and  N_84 
REMARK   35  A    between atoms: CB_78  and  CG_79 
REMARK   36  A    between atoms: CG_79  and  CD_80 
REMARK   37  A    between atoms: N_84  and  CA_85 
REMARK   38  A    between atoms: CA_85  and  C_86 
REMARK   39  A    between atoms: CA_85  and  CB_88 
REMARK       I    between atoms: C_86  and  N_96 
REMARK   40  A    between atoms: CB_88  and  CG_89 
REMARK   41  A    between atoms: N_96  and  CA_97 
REMARK   42  A    between atoms: CA_97  and  C_98 
REMARK   43  A    between atoms: CA_97  and  CB_100 
REMARK       I    between atoms: C_98  and  N_104 
REMARK   44  A    between atoms: N_104  and  CA_105 
REMARK   45  A    between atoms: CA_105  and  C_106 
REMARK   46  A    between atoms: CA_105  and  CB_108 
REMARK       I    between atoms: C_106  and  N_116 
REMARK   47  A    between atoms: CB_108  and  CG_109 
REMARK   48  A    between atoms: CG_109  and  CD_110 
REMARK       I    between atoms: CD_110  and  NE2_111 
REMARK   49  A    between atoms: N_116  and  CA_117 
REMARK   50  A    between atoms: CA_117  and  C_118 
REMARK   51  A    between atoms: CA_117  and  CB_120 
REMARK       I    between atoms: C_118  and  N_133 
REMARK   52  A    between atoms: CB_120  and  CG_121 
REMARK   53  A    between atoms: CG_121  and  CD_122 
REMARK   54  A    between atoms: CD_122  and  NE_123 
REMARK       I    between atoms: NE_123  and  CZ_124 
REMARK       I    between atoms: CZ_124  and  NH1_125 
REMARK       I    between atoms: CZ_124  and  NH2_126 
REMARK   55  A    between atoms: N_133  and  CA_134 
REMARK   56  A    between atoms: CA_134  and  C_135 
REMARK   57  A    between atoms: CA_134  and  CB_137 
REMARK       I    between atoms: C_135  and  N_150 
REMARK   58  A    between atoms: CB_137  and  CG_138 
REMARK   59  A    between atoms: CG_138  and  CD_139 
REMARK   60  A    between atoms: CD_139  and  NE_140 
REMARK       I    between atoms: NE_140  and  CZ_141 
REMARK       I    between atoms: CZ_141  and  NH1_142 
REMARK       I    between atoms: CZ_141  and  NH2_143 
REMARK   61  A    between atoms: N_150  and  CA_151 
REMARK   62  A    between atoms: CA_151  and  C_152 
REMARK   63  A    between atoms: CA_151  and  CB_154 
REMARK       I    between atoms: C_152  and  N_159 
REMARK   64  A    between atoms: CB_154  and  CG_155 
REMARK   65  A    between atoms: CG_155  and  SD_156 
REMARK   66  A    between atoms: N_159  and  CA_160 
REMARK   67  A    between atoms: CA_160  and  C_161 
REMARK   68  A    between atoms: CA_160  and  CB_163 
REMARK   69  A    between atoms: CB_163  and  CG_164 
REMARK   70  A    between atoms: CG_164  and  CD_165 
REMARK   71  A    between atoms: CD_165  and  NE_166 
REMARK       I    between atoms: NE_166  and  CZ_167 
REMARK       I    between atoms: CZ_167  and  NH1_168 
ROOT
ATOM      1  CA  HIS d  10    2335.860 715.407-2427.102  0.00  0.00     0.182 C 
ENDROOT
BRANCH   1   2
ATOM      2  N   HIS d  10    2334.973 715.919-2426.062  0.00  0.00    -0.346 N 
ATOM      3  C   GLU d   9    2334.877 717.194-2425.893  0.00  0.00     0.241 C 
ATOM      4  O   GLU d   9    2335.541 717.948-2426.619  0.00  0.00    -0.271 OA
ATOM      5  H   HIS d  10    2334.442 715.284-2425.483  0.00  0.00     0.163 HD
BRANCH   3   6
ATOM      6  CA  GLU d   9    2333.959 717.723-2424.817  0.00  0.00     0.177 C 
BRANCH   6   7
ATOM      7  N   GLU d   9    2332.656 717.066-2424.872  0.00  0.00    -0.346 N 
ATOM      8  C   ASP d   8    2331.976 717.116-2425.967  0.00  0.00     0.241 C 
ATOM      9  O   ASP d   8    2332.449 717.720-2426.942  0.00  0.00    -0.271 OA
ATOM     10  H   GLU d   9    2332.293 716.580-2424.064  0.00  0.00     0.163 HD
BRANCH   8  11
ATOM     11  CA  ASP d   8    2330.629 716.437-2426.024  0.00  0.00     0.186 C 
BRANCH  11  12
ATOM     12  N   ASP d   8    2330.699 715.087-2425.470  0.00  0.00    -0.346 N 
ATOM     13  C   LEU d   7    2331.536 714.246-2425.976  0.00  0.00     0.241 C 
ATOM     14  O   LEU d   7    2332.257 714.608-2426.918  0.00  0.00    -0.271 OA
ATOM     15  H   ASP d   8    2330.101 714.817-2424.702  0.00  0.00     0.163 HD
BRANCH  13  16
ATOM     16  CA  LEU d   7    2331.608 712.851-2425.403  0.00  0.00     0.177 C 
BRANCH  16  17
ATOM     17  N   LEU d   7    2331.663 712.887-2423.944  0.00  0.00    -0.346 N 
ATOM     18  C   ILE d   6    2332.609 713.550-2423.371  0.00  0.00     0.241 C 
ATOM     19  O   ILE d   6    2333.444 714.137-2424.074  0.00  0.00    -0.271 OA
ATOM     20  H   LEU d   7    2330.971 712.400-2423.393  0.00  0.00     0.163 HD
BRANCH  18  21
ATOM     21  CA  ILE d   6    2332.666 713.588-2421.863  0.00  0.00     0.180 C 
BRANCH  21  22
ATOM     22  N   ILE d   6    2331.353 713.883-2421.297  0.00  0.00    -0.346 N 
ATOM     23  C   SER d   5    2330.749 714.966-2421.651  0.00  0.00     0.243 C 
ATOM     24  O   SER d   5    2331.296 715.720-2422.456  0.00  0.00    -0.271 OA
ATOM     25  H   ILE d   6    2330.924 713.249-2420.638  0.00  0.00     0.163 HD
BRANCH  23  26
ATOM     26  CA  SER d   5    2329.390 715.273-2421.066  0.00  0.00     0.200 C 
BRANCH  26  27
ATOM     27  N   SER d   5    2328.520 714.102-2421.125  0.00  0.00    -0.344 N 
ATOM     28  C   GLU d   4    2328.293 713.549-2422.268  0.00  0.00     0.241 C 
ATOM     29  O   GLU d   4    2328.820 714.028-2423.282  0.00  0.00    -0.271 OA
ATOM     30  H   SER d   5    2328.102 713.730-2420.283  0.00  0.00     0.163 HD
BRANCH  28  31
ATOM     31  CA  GLU d   4    2327.394 712.338-2422.330  0.00  0.00     0.177 C 
BRANCH  31  32
ATOM     32  N   GLU d   4    2327.753 711.367-2421.300  0.00  0.00    -0.346 N 
ATOM     33  C   PRO d   3    2328.958 710.907-2421.267  0.00  0.00     0.241 C 
ATOM     34  O   PRO d   3    2329.781 711.290-2422.098  0.00  0.00    -0.271 OA
ATOM     35  H   GLU d   4    2327.068 711.061-2420.623  0.00  0.00     0.163 HD
BRANCH  33  36
ATOM     36  CA  PRO d   3    2329.355 709.883-2420.190  0.00  0.00     0.179 C 
ATOM     37  N   PRO d   3    2328.903 710.293-2418.869  0.00  0.00    -0.337 N 
ATOM     38  C   ASN d   2    2329.425 711.287-2418.234  0.00  0.00     0.243 C 
ATOM     39  CD  PRO d   3    2327.825 709.500-2418.320  0.00  0.00     0.127 C 
ATOM     40  O   ASN d   2    2330.340 711.918-2418.762  0.00  0.00    -0.271 OA
ATOM     41  CG  PRO d   3    2327.367 708.681-2419.530  0.00  0.00     0.022 C 
ATOM     42  CB  PRO d   3    2328.651 708.529-2420.360  0.00  0.00     0.037 C 
BRANCH  38  43
ATOM     43  CA  ASN d   2    2328.893 711.643-2416.866  0.00  0.00     0.185 C 
BRANCH  43  44
ATOM     44  N   ASN d   2    2327.434 711.682-2416.866  0.00  0.00    -0.346 N 
ATOM     45  C   GLU d   1    2326.829 712.468-2417.691  0.00  0.00     0.242 C 
ATOM     46  O   GLU d   1    2327.505 713.167-2418.460  0.00  0.00    -0.271 OA
ATOM     47  H   ASN d   2    2326.906 711.102-2416.229  0.00  0.00     0.163 HD
BRANCH  45  48
ATOM     48  CA  GLU d   1    2325.320 712.508-2417.691  0.00  0.00     0.191 C 
BRANCH  48  49
ATOM     49  N   GLU d   1    2324.761 711.159-2417.691  0.00  0.00    -0.326 NA
ATOM     50  H   GLU d   1    2325.388 710.280-2417.691  0.00  0.00     0.180 HD
ENDBRANCH  48  49
BRANCH  48  51
ATOM     51  CB  GLU d   1    2324.797 713.293-2416.454  0.00  0.00     0.047 C 
BRANCH  51  52
ATOM     52  CG  GLU d   1    2325.272 714.778-2416.343  0.00  0.00     0.116 C 
BRANCH  52  53
ATOM     53  CD  GLU d   1    2324.848 715.582-2415.128  0.00  0.00     0.172 C 
ATOM     54  OE1 GLU d   1    2324.120 715.080-2414.250  0.00  0.00    -0.648 OA
ATOM     55  OE2 GLU d   1    2325.278 716.752-2415.056  0.00  0.00    -0.648 OA
ENDBRANCH  52  53
ENDBRANCH  51  52
ENDBRANCH  48  51
ENDBRANCH  45  48
ENDBRANCH  43  44
BRANCH  43  56
ATOM     56  CB  ASN d   2    2329.385 710.620-2415.801  0.00  0.00     0.137 C 
BRANCH  56  57
ATOM     57  CG  ASN d   2    2328.921 710.844-2414.358  0.00  0.00     0.217 C 
ATOM     58  ND2 ASN d   2    2329.515 711.759-2413.640  0.00  0.00    -0.370 N 
ATOM     59 21HD ASN d   2    2329.034 711.932-2412.753  0.00  0.00     0.159 HD
ATOM     60 22HD ASN d   2    2330.217 712.330-2414.109  0.00  0.00     0.159 HD
ATOM     61  OD1 ASN d   2    2328.000 710.210-2413.864  0.00  0.00    -0.274 OA
ENDBRANCH  56  57
ENDBRANCH  43  56
ENDBRANCH  38  43
ENDBRANCH  33  36
ENDBRANCH  31  32
BRANCH  31  62
ATOM     62  CB  GLU d   4    2325.905 712.757-2422.160  0.00  0.00     0.045 C 
BRANCH  62  63
ATOM     63  CG  GLU d   4    2325.358 713.761-2423.226  0.00  0.00     0.116 C 
BRANCH  63  64
ATOM     64  CD  GLU d   4    2323.931 714.258-2423.083  0.00  0.00     0.172 C 
ATOM     65  OE1 GLU d   4    2323.204 713.860-2422.152  0.00  0.00    -0.648 OA
ATOM     66  OE2 GLU d   4    2323.542 715.087-2423.931  0.00  0.00    -0.648 OA
ENDBRANCH  63  64
ENDBRANCH  62  63
ENDBRANCH  31  62
ENDBRANCH  28  31
ENDBRANCH  26  27
BRANCH  26  67
ATOM     67  CB  SER d   5    2329.501 715.805-2419.615  0.00  0.00     0.199 C 
BRANCH  67  68
ATOM     68  OG  SER d   5    2330.232 714.925-2418.754  0.00  0.00    -0.398 OA
ATOM     69  HG  SER d   5    2329.743 714.100-2418.704  0.00  0.00     0.209 HD
ENDBRANCH  67  68
ENDBRANCH  26  67
ENDBRANCH  23  26
ENDBRANCH  21  22
BRANCH  21  70
ATOM     70  CB  ILE d   6    2333.265 712.251-2421.262  0.00  0.00     0.013 C 
ATOM     71  CG2 ILE d   6    2334.706 711.949-2421.778  0.00  0.00     0.012 C 
BRANCH  70  72
ATOM     72  CG1 ILE d   6    2333.284 712.189-2419.702  0.00  0.00     0.002 C 
ATOM     73  CD1 ILE d   6    2333.553 710.800-2419.086  0.00  0.00     0.005 C 
ENDBRANCH  70  72
ENDBRANCH  21  70
ENDBRANCH  18  21
ENDBRANCH  16  17
BRANCH  16  74
ATOM     74  CB  LEU d   7    2330.405 711.991-2425.883  0.00  0.00     0.038 C 
BRANCH  74  75
ATOM     75  CG  LEU d   7    2330.331 710.512-2425.417  0.00  0.00    -0.020 C 
ATOM     76  CD1 LEU d   7    2329.141 709.806-2426.082  0.00  0.00     0.009 C 
ATOM     77  CD2 LEU d   7    2331.625 709.732-2425.708  0.00  0.00     0.009 C 
ENDBRANCH  74  75
ENDBRANCH  16  74
ENDBRANCH  13  16
ENDBRANCH  11  12
BRANCH  11  78
ATOM     78  CB  ASP d   8    2329.552 717.277-2425.283  0.00  0.00     0.147 C 
BRANCH  78  79
ATOM     79  CG  ASP d   8    2329.333 718.697-2425.824  0.00  0.00     0.175 C 
ATOM     80  OD1 ASP d   8    2329.398 718.895-2427.055  0.00  0.00    -0.648 OA
ATOM     81  OD2 ASP d   8    2329.142 719.624-2425.009  0.00  0.00    -0.648 OA
ENDBRANCH  78  79
ENDBRANCH  11  78
ENDBRANCH   8  11
ENDBRANCH   6   7
BRANCH   6  82
ATOM     82  CB  GLU d   9    2334.593 717.516-2423.412  0.00  0.00     0.045 C 
BRANCH  82  83
ATOM     83  CG  GLU d   9    2335.976 718.208-2423.183  0.00  0.00     0.116 C 
BRANCH  83  84
ATOM     84  CD  GLU d   9    2336.678 717.994-2421.855  0.00  0.00     0.172 C 
ATOM     85  OE1 GLU d   9    2336.156 717.304-2420.958  0.00  0.00    -0.648 OA
ATOM     86  OE2 GLU d   9    2337.797 718.532-2421.724  0.00  0.00    -0.648 OA
ENDBRANCH  83  84
ENDBRANCH  82  83
ENDBRANCH   6  82
ENDBRANCH   3   6
ENDBRANCH   1   2
BRANCH   1  87
ATOM     87  C   HIS d  10    2335.493 715.971-2428.454  0.00  0.00     0.241 C 
ATOM     88  O   HIS d  10    2336.346 716.435-2429.226  0.00  0.00    -0.271 OA
ATOM     89  N   VAL d  11    2334.255 715.971-2428.816  0.00  0.00    -0.346 N 
ATOM     90  H   VAL d  11    2333.542 715.598-2428.206  0.00  0.00     0.163 HD
BRANCH  89  91
ATOM     91  CA  VAL d  11    2333.900 716.516-2430.124  0.00  0.00     0.180 C 
BRANCH  91  92
ATOM     92  C   VAL d  11    2334.365 717.946-2430.257  0.00  0.00     0.241 C 
ATOM     93  O   VAL d  11    2334.967 718.351-2431.260  0.00  0.00    -0.271 OA
ATOM     94  N   GLN d  12    2334.129 718.773-2429.295  0.00  0.00    -0.346 N 
ATOM     95  H   GLN d  12    2333.640 718.467-2428.465  0.00  0.00     0.163 HD
BRANCH  94  96
ATOM     96  CA  GLN d  12    2334.578 720.155-2429.423  0.00  0.00     0.177 C 
BRANCH  96  97
ATOM     97  C   GLN d  12    2336.068 720.222-2429.661  0.00  0.00     0.241 C 
ATOM     98  O   GLN d  12    2336.555 720.929-2430.540  0.00  0.00    -0.271 OA
ATOM     99  N   ARG d  13    2336.853 719.515-2428.920  0.00  0.00    -0.346 N 
ATOM    100  H   ARG d  13    2336.476 718.926-2428.191  0.00  0.00     0.163 HD
BRANCH  99 101
ATOM    101  CA  ARG d  13    2338.293 719.580-2429.151  0.00  0.00     0.176 C 
BRANCH 101 102
ATOM    102  C   ARG d  13    2338.629 719.208-2430.576  0.00  0.00     0.241 C 
ATOM    103  O   ARG d  13    2339.397 719.879-2431.260  0.00  0.00    -0.271 OA
ATOM    104  N   ARG d  14    2338.092 718.153-2431.089  0.00  0.00    -0.346 N 
ATOM    105  H   ARG d  14    2337.457 717.585-2430.547  0.00  0.00     0.163 HD
BRANCH 104 106
ATOM    106  CA  ARG d  14    2338.417 717.793-2432.467  0.00  0.00     0.176 C 
BRANCH 106 107
ATOM    107  C   ARG d  14    2338.087 718.924-2433.413  0.00  0.00     0.241 C 
ATOM    108  O   ARG d  14    2338.875 719.301-2434.276  0.00  0.00    -0.271 OA
ATOM    109  N   MET d  15    2336.942 719.510-2433.311  0.00  0.00    -0.346 N 
ATOM    110  H   MET d  15    2336.277 719.218-2432.609  0.00  0.00     0.163 HD
BRANCH 109 111
ATOM    111  CA  MET d  15    2336.622 720.603-2434.225  0.00  0.00     0.177 C 
BRANCH 111 112
ATOM    112  C   MET d  15    2337.653 721.702-2434.137  0.00  0.00     0.241 C 
ATOM    113  O   MET d  15    2338.156 722.213-2435.149  0.00  0.00    -0.271 OA
ATOM    114  N   ARG d  16    2338.022 722.123-2432.975  0.00  0.00    -0.347 N 
ATOM    115  H   ARG d  16    2337.627 721.723-2432.135  0.00  0.00     0.163 HD
BRANCH 114 116
ATOM    116  CA  ARG d  16    2339.019 723.186-2432.891  0.00  0.00     0.162 C 
BRANCH 116 117
ATOM    117  C   ARG d  16    2340.290 722.793-2433.607  0.00  0.00     0.219 C 
ATOM    118  O   ARG d  16    2340.403 721.716-2434.188  0.00  0.00    -0.287 OA
ENDBRANCH 116 117
BRANCH 116 119
ATOM    119  CB  ARG d  16    2339.288 723.504-2431.393  0.00  0.00     0.035 C 
BRANCH 119 120
ATOM    120  CG  ARG d  16    2340.115 724.792-2431.120  0.00  0.00     0.023 C 
BRANCH 120 121
ATOM    121  CD  ARG d  16    2340.364 725.012-2429.619  0.00  0.00     0.138 C 
BRANCH 121 122
ATOM    122  NE  ARG d  16    2341.141 726.270-2429.418  0.00  0.00    -0.227 N 
ATOM    123  CZ  ARG d  16    2341.533 726.752-2428.242  0.00  0.00     0.665 C 
ATOM    124  NH1 ARG d  16    2341.285 726.168-2427.104  0.00  0.00    -0.235 N 
ATOM    125  NH2 ARG d  16    2342.198 727.864-2428.224  0.00  0.00    -0.235 N 
ATOM    126 11HH ARG d  16    2340.759 725.295-2427.188  0.00  0.00     0.174 HD
ATOM    127 12HH ARG d  16    2341.619 726.603-2426.242  0.00  0.00     0.174 HD
ATOM    128 21HH ARG d  16    2342.383 728.307-2429.125  0.00  0.00     0.174 HD
ATOM    129 22HH ARG d  16    2342.488 728.219-2427.311  0.00  0.00     0.174 HD
ATOM    130  HE  ARG d  16    2341.420 726.851-2430.215  0.00  0.00     0.177 HD
ENDBRANCH 121 122
ENDBRANCH 120 121
ENDBRANCH 119 120
ENDBRANCH 116 119
ENDBRANCH 114 116
ENDBRANCH 111 112
BRANCH 111 131
ATOM    131  CB  MET d  15    2335.201 721.149-2433.916  0.00  0.00     0.045 C 
BRANCH 131 132
ATOM    132  CG  MET d  15    2334.039 720.151-2434.108  0.00  0.00     0.076 C 
BRANCH 132 133
ATOM    133  SD  MET d  15    2332.465 721.019-2433.994  0.00  0.00    -0.173 SA
ATOM    134  CE  MET d  15    2331.383 719.590-2433.857  0.00  0.00     0.089 C 
ENDBRANCH 132 133
ENDBRANCH 131 132
ENDBRANCH 111 131
ENDBRANCH 109 111
ENDBRANCH 106 107
BRANCH 106 135
ATOM    135  CB  ARG d  14    2337.644 716.497-2432.841  0.00  0.00     0.036 C 
BRANCH 135 136
ATOM    136  CG  ARG d  14    2338.080 715.818-2434.171  0.00  0.00     0.023 C 
BRANCH 136 137
ATOM    137  CD  ARG d  14    2337.243 714.567-2434.482  0.00  0.00     0.138 C 
BRANCH 137 138
ATOM    138  NE  ARG d  14    2337.719 713.948-2435.755  0.00  0.00    -0.227 N 
ATOM    139  CZ  ARG d  14    2337.209 712.857-2436.317  0.00  0.00     0.665 C 
ATOM    140  NH1 ARG d  14    2336.209 712.187-2435.816  0.00  0.00    -0.235 N 
ATOM    141  NH2 ARG d  14    2337.733 712.432-2437.423  0.00  0.00    -0.235 N 
ATOM    142 11HH ARG d  14    2335.842 712.575-2434.944  0.00  0.00     0.174 HD
ATOM    143 12HH ARG d  14    2335.875 711.357-2436.308  0.00  0.00     0.174 HD
ATOM    144 21HH ARG d  14    2338.515 712.971-2437.802  0.00  0.00     0.174 HD
ATOM    145 22HH ARG d  14    2337.329 711.591-2437.839  0.00  0.00     0.174 HD
ATOM    146  HE  ARG d  14    2338.500 714.355-2436.279  0.00  0.00     0.177 HD
ENDBRANCH 137 138
ENDBRANCH 136 137
ENDBRANCH 135 136
ENDBRANCH 106 135
ENDBRANCH 104 106
ENDBRANCH 101 102
BRANCH 101 147
ATOM    147  CB  ARG d  13    2339.006 718.642-2428.136  0.00  0.00     0.036 C 
BRANCH 147 148
ATOM    148  CG  ARG d  13    2340.551 718.794-2428.056  0.00  0.00     0.023 C 
BRANCH 148 149
ATOM    149  CD  ARG d  13    2341.178 717.807-2427.058  0.00  0.00     0.138 C 
BRANCH 149 150
ATOM    150  NE  ARG d  13    2342.655 718.014-2427.008  0.00  0.00    -0.227 N 
ATOM    151  CZ  ARG d  13    2343.504 717.323-2426.252  0.00  0.00     0.665 C 
ATOM    152  NH1 ARG d  13    2343.139 716.359-2425.454  0.00  0.00    -0.235 N 
ATOM    153  NH2 ARG d  13    2344.763 717.621-2426.310  0.00  0.00    -0.235 N 
ATOM    154 11HH ARG d  13    2342.133 716.173-2425.457  0.00  0.00     0.174 HD
ATOM    155 12HH ARG d  13    2343.852 715.876-2424.905  0.00  0.00     0.174 HD
ATOM    156 21HH ARG d  13    2345.031 718.379-2426.942  0.00  0.00     0.174 HD
ATOM    157 22HH ARG d  13    2345.399 717.080-2425.721  0.00  0.00     0.174 HD
ATOM    158  HE  ARG d  13    2343.107 718.736-2427.579  0.00  0.00     0.177 HD
ENDBRANCH 149 150
ENDBRANCH 148 149
ENDBRANCH 147 148
ENDBRANCH 101 147
ENDBRANCH  99 101
ENDBRANCH  96  97
BRANCH  96 159
ATOM    159  CB  GLN d  12    2334.188 720.924-2428.140  0.00  0.00     0.044 C 
BRANCH 159 160
ATOM    160  CG  GLN d  12    2334.549 722.445-2428.110  0.00  0.00     0.105 C 
BRANCH 160 161
ATOM    161  CD  GLN d  12    2334.248 723.260-2426.846  0.00  0.00     0.215 C 
ATOM    162  NE2 GLN d  12    2333.681 722.684-2425.816  0.00  0.00    -0.370 N 
ATOM    163 21HE GLN d  12    2333.574 723.279-2424.993  0.00  0.00     0.159 HD
ATOM    164 22HE GLN d  12    2333.516 721.681-2425.919  0.00  0.00     0.159 HD
ATOM    165  OE1 GLN d  12    2334.550 724.440-2426.769  0.00  0.00    -0.274 OA
ENDBRANCH 160 161
ENDBRANCH 159 160
ENDBRANCH  96 159
ENDBRANCH  94  96
ENDBRANCH  91  92
BRANCH  91 166
ATOM    166  CB  VAL d  11    2332.339 716.410-2430.343  0.00  0.00     0.009 C 
ATOM    167  CG1 VAL d  11    2331.771 717.114-2431.605  0.00  0.00     0.012 C 
ATOM    168  CG2 VAL d  11    2331.814 714.956-2430.415  0.00  0.00     0.012 C 
ENDBRANCH  91 166
ENDBRANCH  89  91
ENDBRANCH   1  87
BRANCH   1 169
ATOM    169  CB  HIS d  10    2335.696 713.878-2427.097  0.00  0.00     0.095 C 
BRANCH 169 170
ATOM    170  CG  HIS d  10    2336.981 713.167-2426.789  0.00  0.00     0.053 A 
ATOM    171  CD2 HIS d  10    2337.362 712.833-2425.496  0.00  0.00     0.116 A 
ATOM    172  NE2 HIS d  10    2338.577 712.200-2425.563  0.00  0.00    -0.359 N 
ATOM    173  CE1 HIS d  10    2338.839 712.202-2426.898  0.00  0.00     0.207 A 
ATOM    174  2HE HIS d  10    2339.144 711.823-2424.790  0.00  0.00     0.166 HD
ATOM    175  ND1 HIS d  10    2337.932 712.760-2427.721  0.00  0.00    -0.247 NA
ENDBRANCH 169 170
ENDBRANCH   1 169
TORSDOF 71
