@<TRIPOS>MOLECULE
5-17
266 267 16              
SMALL
USER_CHARGES
@<TRIPOS>ATOM
1	   N	827.810	220.492	-790.095	N.3	1	GLU1	-0.516	
2	  CA	828.369	221.841	-790.095	C.3	1	GLU1	0.040	
3	   C	829.878	221.801	-790.095	C.2	1	GLU1	0.537	
4	   O	830.553	222.501	-790.864	O.2	1	GLU1	-0.582	
5	  CB	827.846	222.626	-788.858	C.3	1	GLU1	0.056	
6	  CG	828.320	224.111	-788.747	C.3	1	GLU1	0.014	
7	  CD	827.896	224.915	-787.532	C.2	1	GLU1	0.805	
8	 OE1	827.169	224.413	-786.654	O.co2	1	GLU1	-0.819	
9	 OE2	828.327	226.085	-787.460	O.co2	1	GLU1	-0.819	
10	   H	828.437	219.613	-790.095	 H	1	GLU1	0.294	
11	  HA	828.042	222.359	-791.015	 H	1	GLU1	0.111	
12	 2HB	828.135	222.095	-787.928	 H	1	GLU1	-0.017	
13	 3HB	826.739	222.616	-788.845	 H	1	GLU1	-0.017	
14	 2HG	828.010	224.696	-789.628	 H	1	GLU1	-0.043	
15	 3HG	829.421	224.178	-788.718	 H	1	GLU1	-0.043	
16	   N	830.482	221.016	-789.270	N.am	2	ASN2	-0.416	
17	  CA	831.941	220.977	-789.270	C.3	2	ASN2	0.014	
18	   C	832.473	220.622	-790.639	C.2	2	ASN2	0.597	
19	   O	833.388	221.252	-791.167	O.2	2	ASN2	-0.568	
20	  CB	832.434	219.954	-788.206	C.3	2	ASN2	-0.204	
21	  CG	831.971	220.178	-786.762	C.2	2	ASN2	0.713	
22	 ND2	832.565	221.093	-786.044	N.pl3	2	ASN2	-0.919	
23	 OD1	831.050	219.544	-786.268	O.2	2	ASN2	-0.593	
24	   H	829.954	220.436	-788.633	 H	2	ASN2	0.272	
25	  HA	832.319	221.987	-789.025	 H	2	ASN2	0.105	
26	 2HB	833.538	219.895	-788.209	 H	2	ASN2	0.080	
27	 3HB	832.105	218.936	-788.492	 H	2	ASN2	0.080	
28	1HD2	832.084	221.266	-785.158	 H	2	ASN2	0.420	
29	2HD2	833.266	221.664	-786.513	 H	2	ASN2	0.420	
30	   N	831.951	219.626	-791.273	N.am	3	PRO3	-0.255	
31	  CA	832.403	219.217	-792.594	C.3	3	PRO3	-0.027	
32	   C	832.005	220.241	-793.671	C.2	3	PRO3	0.590	
33	   O	832.828	220.624	-794.503	O.2	3	PRO3	-0.575	
34	  CB	831.699	217.862	-792.764	C.3	3	PRO3	-0.007	
35	  CG	830.416	218.014	-791.934	C.3	3	PRO3	0.019	
36	  CD	830.873	218.833	-790.724	C.3	3	PRO3	0.019	
37	  HA	833.489	219.097	-792.608	 H	3	PRO3	0.064	
38	 2HB	832.322	217.081	-792.323	 H	3	PRO3	0.025	
39	 3HB	831.501	217.614	-793.809	 H	3	PRO3	0.025	
40	 2HG	829.989	217.052	-791.643	 H	3	PRO3	0.021	
41	 3HG	829.678	218.585	-792.501	 H	3	PRO3	0.021	
42	 2HD	831.263	218.184	-789.936	 H	3	PRO3	0.039	
43	 3HD	830.077	219.469	-790.331	 H	3	PRO3	0.039	
44	   N	830.800	220.701	-793.704	N.am	4	GLU4	-0.516	
45	  CA	830.440	221.671	-794.733	C.3	4	GLU4	0.040	
46	   C	831.339	222.883	-794.672	C.2	4	GLU4	0.537	
47	   O	831.866	223.362	-795.687	O.2	4	GLU4	-0.582	
48	  CB	828.952	222.090	-794.563	C.3	4	GLU4	0.056	
49	  CG	828.404	223.093	-795.629	C.3	4	GLU4	0.014	
50	  CD	826.977	223.590	-795.485	C.2	4	GLU4	0.805	
51	 OE1	826.251	223.191	-794.554	O.co2	4	GLU4	-0.819	
52	 OE2	826.587	224.419	-796.334	O.co2	4	GLU4	-0.819	
53	   H	830.116	220.394	-793.027	 H	4	GLU4	0.294	
54	  HA	830.572	221.201	-795.724	 H	4	GLU4	0.111	
55	 2HB	828.799	222.530	-793.556	 H	4	GLU4	-0.017	
56	 3HB	828.304	221.192	-794.569	 H	4	GLU4	-0.017	
57	 2HG	828.485	222.679	-796.647	 H	4	GLU4	-0.043	
58	 3HG	828.992	224.026	-795.640	 H	4	GLU4	-0.043	
59	   N	831.566	223.436	-793.529	N.am	5	ASP5	-0.516	
60	  CA	832.436	224.607	-793.470	C.3	5	ASP5	0.038	
61	   C	833.794	224.304	-794.054	C.2	5	ASP5	0.537	
62	   O	834.346	225.065	-794.864	O.2	5	ASP5	-0.582	
63	  CB	832.562	225.121	-792.008	C.3	5	ASP5	-0.030	
64	  CG	833.396	226.397	-791.825	C.2	5	ASP5	0.799	
65	 OD1	833.335	227.293	-792.692	O.co2	5	ASP5	-0.801	
66	 OD2	834.149	226.481	-790.833	O.co2	5	ASP5	-0.801	
67	   H	831.149	223.064	-792.688	 H	5	ASP5	0.294	
68	  HA	831.984	225.406	-794.088	 H	5	ASP5	0.088	
69	 2HB	833.003	224.335	-791.368	 H	5	ASP5	-0.012	
70	 3HB	831.568	225.329	-791.580	 H	5	ASP5	-0.012	
71	   N	834.400	223.221	-793.700	N.am	6	ILE6	-0.416	
72	  CA	835.714	222.928	-794.265	C.3	6	ILE6	-0.060	
73	   C	835.658	222.891	-795.773	C.2	6	ILE6	0.597	
74	   O	836.492	223.480	-796.476	O.2	6	ILE6	-0.568	
75	  CB	836.314	221.592	-793.666	C.3	6	ILE6	0.130	
76	 CG1	836.332	221.529	-792.105	C.3	6	ILE6	-0.043	
77	 CG2	837.756	221.292	-794.180	C.3	6	ILE6	-0.320	
78	 CD1	836.603	220.140	-791.490	C.3	6	ILE6	-0.066	
79	   H	833.972	222.586	-793.042	 H	6	ILE6	0.272	
80	  HA	836.387	223.763	-793.997	 H	6	ILE6	0.087	
81	  HB	835.657	220.766	-794.011	 H	6	ILE6	0.019	
82	2HG1	835.350	221.848	-791.710	 H	6	ILE6	0.024	
83	3HG1	837.047	222.272	-791.699	 H	6	ILE6	0.024	
84	1HG2	837.816	221.199	-795.278	 H	6	ILE6	0.088	
85	2HG2	838.477	222.075	-793.877	 H	6	ILE6	0.088	
86	3HG2	838.147	220.330	-793.802	 H	6	ILE6	0.088	
87	1HD1	835.876	219.385	-791.846	 H	6	ILE6	0.019	
88	2HD1	837.615	219.762	-791.726	 H	6	ILE6	0.019	
89	3HD1	836.526	220.169	-790.388	 H	6	ILE6	0.019	
90	   N	834.713	222.227	-796.348	N.am	7	LEU7	-0.416	
91	  CA	834.659	222.192	-797.807	C.3	7	LEU7	-0.052	
92	   C	834.586	223.588	-798.378	C.2	7	LEU7	0.597	
93	   O	835.307	223.952	-799.319	O.2	7	LEU7	-0.568	
94	  CB	833.457	221.331	-798.289	C.3	7	LEU7	-0.110	
95	  CG	833.386	219.851	-797.823	C.3	7	LEU7	0.353	
96	 CD1	832.197	219.145	-798.490	C.3	7	LEU7	-0.412	
97	 CD2	834.680	219.074	-798.114	C.3	7	LEU7	-0.412	
98	   H	834.021	221.739	-795.798	 H	7	LEU7	0.272	
99	  HA	835.602	221.753	-798.180	 H	7	LEU7	0.092	
100	 2HB	833.435	221.348	-799.396	 H	7	LEU7	0.046	
101	 3HB	832.517	221.833	-797.985	 H	7	LEU7	0.046	
102	  HG	833.215	219.842	-796.726	 H	7	LEU7	-0.036	
103	1HD1	831.239	219.653	-798.268	 H	7	LEU7	0.100	
104	2HD1	832.297	219.105	-799.591	 H	7	LEU7	0.100	
105	3HD1	832.091	218.103	-798.135	 H	7	LEU7	0.100	
106	1HD2	834.956	219.105	-799.184	 H	7	LEU7	0.100	
107	2HD2	835.533	219.485	-797.542	 H	7	LEU7	0.100	
108	3HD2	834.600	218.011	-797.819	 H	7	LEU7	0.100	
109	   N	833.748	224.427	-797.872	N.am	8	ASP8	-0.516	
110	  CA	833.676	225.777	-798.425	C.3	8	ASP8	0.038	
111	   C	835.022	226.458	-798.366	C.2	8	ASP8	0.537	
112	   O	835.495	227.065	-799.339	O.2	8	ASP8	-0.582	
113	  CB	832.597	226.614	-797.683	C.3	8	ASP8	-0.030	
114	  CG	832.377	228.035	-798.223	C.2	8	ASP8	0.799	
115	 OD1	832.442	228.235	-799.453	O.co2	8	ASP8	-0.801	
116	 OD2	832.183	228.960	-797.407	O.co2	8	ASP8	-0.801	
117	   H	833.149	224.155	-797.105	 H	8	ASP8	0.294	
118	  HA	833.394	225.700	-799.492	 H	8	ASP8	0.088	
119	 2HB	832.853	226.697	-796.611	 H	8	ASP8	-0.012	
120	 3HB	831.618	226.108	-797.717	 H	8	ASP8	-0.012	
121	   N	835.701	226.408	-797.270	N.am	9	GLU9	-0.516	
122	  CA	837.003	227.067	-797.213	C.3	9	GLU9	0.040	
123	   C	837.923	226.541	-798.288	C.2	9	GLU9	0.537	
124	   O	838.586	227.297	-799.013	O.2	9	GLU9	-0.582	
125	  CB	837.635	226.859	-795.807	C.3	9	GLU9	0.056	
126	  CG	839.017	227.553	-795.576	C.3	9	GLU9	0.014	
127	  CD	839.718	227.339	-794.247	C.2	9	GLU9	0.805	
128	 OE1	839.196	226.647	-793.352	O.co2	9	GLU9	-0.819	
129	 OE2	840.836	227.878	-794.114	O.co2	9	GLU9	-0.819	
130	   H	835.337	225.921	-796.464	 H	9	GLU9	0.294	
131	  HA	836.860	228.149	-797.388	 H	9	GLU9	0.111	
132	 2HB	837.749	225.774	-795.605	 H	9	GLU9	-0.017	
133	 3HB	836.937	227.211	-795.023	 H	9	GLU9	-0.017	
134	 2HG	838.944	228.643	-795.715	 H	9	GLU9	-0.043	
135	 3HG	839.765	227.209	-796.310	 H	9	GLU9	-0.043	
136	   N	838.021	225.266	-798.459	N.am	10	HIS10	-0.416	
137	  CA	838.910	224.756	-799.499	C.3	10	HIS10	-0.058	
138	   C	838.544	225.322	-800.850	C.2	10	HIS10	0.597	
139	   O	839.397	225.788	-801.620	O.2	10	HIS10	-0.568	
140	  CB	838.748	223.227	-799.495	C.3	10	HIS10	-0.007	
141	  CG	840.034	222.518	-799.186	C.2	10	HIS10	0.187	
142	 CD2	840.414	222.182	-797.893	C.2	10	HIS10	-0.221	
143	 ND1	840.987	222.114	-800.118	N.2	10	HIS10	-0.543	
144	 CE1	841.893	221.556	-799.294	C.2	10	HIS10	0.163	
145	 NE2	841.629	221.552	-797.959	N.pl3	10	HIS10	-0.280	
146	   H	837.490	224.630	-797.881	 H	10	HIS10	0.272	
147	  HA	839.928	225.115	-799.272	 H	10	HIS10	0.136	
148	 2HB	838.384	222.861	-800.475	 H	10	HIS10	0.037	
149	 3HB	837.992	222.889	-798.756	 H	10	HIS10	0.037	
150	 2HD	839.827	222.396	-797.005	 H	10	HIS10	0.186	
151	 1HE	842.785	221.136	-799.740	 H	10	HIS10	0.144	
152	 2HE	842.195	221.175	-797.186	 H	10	HIS10	0.334	
153	   N	837.307	225.320	-801.214	N.am	11	VAL11	-0.416	
154	  CA	836.952	225.866	-802.521	C.3	11	VAL11	-0.087	
155	   C	837.415	227.298	-802.652	C.2	11	VAL11	0.597	
156	   O	838.017	227.704	-803.654	O.2	11	VAL11	-0.568	
157	  CB	835.391	225.758	-802.742	C.3	11	VAL11	0.299	
158	 CG1	834.823	226.463	-804.005	C.3	11	VAL11	-0.319	
159	 CG2	834.868	224.304	-802.817	C.3	11	VAL11	-0.319	
160	   H	836.593	224.946	-800.604	 H	11	VAL11	0.272	
161	  HA	837.473	225.285	-803.303	 H	11	VAL11	0.097	
162	  HB	834.902	226.237	-801.867	 H	11	VAL11	-0.030	
163	1HG1	835.263	226.072	-804.941	 H	11	VAL11	0.079	
164	2HG1	833.725	226.354	-804.088	 H	11	VAL11	0.079	
165	3HG1	835.000	227.555	-803.994	 H	11	VAL11	0.079	
166	1HG2	835.158	223.716	-801.926	 H	11	VAL11	0.079	
167	2HG2	833.763	224.266	-802.860	 H	11	VAL11	0.079	
168	3HG2	835.252	223.764	-803.703	 H	11	VAL11	0.079	
169	   N	837.176	228.122	-801.689	N.am	12	GLN12	-0.416	
170	  CA	837.624	229.506	-801.815	C.3	12	GLN12	-0.003	
171	   C	839.114	229.575	-802.051	C.2	12	GLN12	0.597	
172	   O	839.601	230.284	-802.929	O.2	12	GLN12	-0.568	
173	  CB	837.231	230.272	-800.532	C.3	12	GLN12	-0.004	
174	  CG	837.590	231.794	-800.499	C.3	12	GLN12	-0.064	
175	  CD	837.285	232.607	-799.234	C.2	12	GLN12	0.695	
176	 NE2	836.718	232.029	-798.206	N.pl3	12	GLN12	-0.941	
177	 OE1	837.586	233.788	-799.156	O.2	12	GLN12	-0.609	
178	   H	836.687	227.815	-800.860	 H	12	GLN12	0.272	
179	  HA	837.125	229.962	-802.690	 H	12	GLN12	0.085	
180	 2HB	837.707	229.772	-799.662	 H	12	GLN12	0.017	
181	 3HB	836.141	230.164	-800.370	 H	12	GLN12	0.017	
182	 2HG	837.112	232.315	-801.350	 H	12	GLN12	0.035	
183	 3HG	838.673	231.938	-800.664	 H	12	GLN12	0.035	
184	1HE2	836.609	232.623	-797.382	 H	12	GLN12	0.425	
185	2HE2	836.555	231.025	-798.311	 H	12	GLN12	0.425	
186	   N	839.898	228.868	-801.310	N.am	13	ARG13	-0.348	
187	  CA	841.339	228.936	-801.539	C.3	13	ARG13	-0.264	
188	   C	841.677	228.566	-802.964	C.2	13	ARG13	0.734	
189	   O	842.445	229.238	-803.647	O.2	13	ARG13	-0.589	
190	  CB	842.052	227.997	-800.525	C.3	13	ARG13	-0.001	
191	  CG	843.597	228.152	-800.443	C.3	13	ARG13	0.039	
192	  CD	844.224	227.164	-799.445	C.3	13	ARG13	0.049	
193	  NE	845.701	227.373	-799.393	N.pl3	13	ARG13	-0.530	
194	  CZ	846.549	226.681	-798.637	C.cat	13	ARG13	0.808	
195	 NH1	846.184	225.716	-797.841	N.pl3	13	ARG13	-0.863	
196	 NH2	847.808	226.982	-798.693	N.pl3	13	ARG13	-0.863	
197	   H	839.522	228.278	-800.582	 H	13	ARG13	0.275	
198	  HA	841.662	229.982	-801.380	 H	13	ARG13	0.156	
199	 2HB	841.787	226.946	-800.765	 H	13	ARG13	0.033	
200	 3HB	841.626	228.162	-799.515	 H	13	ARG13	0.033	
201	 2HG	843.844	229.196	-800.162	 H	13	ARG13	0.029	
202	 3HG	844.049	227.997	-801.444	 H	13	ARG13	0.029	
203	 2HD	843.981	226.124	-799.755	 H	13	ARG13	0.069	
204	 3HD	843.766	227.308	-798.443	 H	13	ARG13	0.069	
205	  HE	846.152	228.096	-799.963	 H	13	ARG13	0.346	
206	1HH1	845.179	225.529	-797.845	 H	13	ARG13	0.448	
207	2HH1	846.897	225.233	-797.292	 H	13	ARG13	0.448	
208	1HH2	848.076	227.740	-799.323	 H	13	ARG13	0.448	
209	2HH2	848.443	226.441	-798.104	 H	13	ARG13	0.448	
210	   N	841.142	227.511	-803.480	N.am	14	VAL14	-0.416	
211	  CA	841.469	227.153	-804.857	C.3	14	VAL14	-0.087	
212	   C	841.138	228.283	-805.802	C.2	14	VAL14	0.597	
213	   O	841.932	228.666	-806.671	O.2	14	VAL14	-0.568	
214	  CB	840.698	225.835	-805.266	C.3	14	VAL14	0.299	
215	 CG1	840.789	225.418	-806.759	C.3	14	VAL14	-0.319	
216	 CG2	841.130	224.583	-804.466	C.3	14	VAL14	-0.319	
217	   H	840.507	226.941	-802.939	 H	14	VAL14	0.272	
218	  HA	842.557	226.977	-804.931	 H	14	VAL14	0.097	
219	  HB	839.621	226.005	-805.050	 H	14	VAL14	-0.030	
220	1HG1	841.830	225.242	-807.087	 H	14	VAL14	0.079	
221	2HG1	840.217	224.495	-806.973	 H	14	VAL14	0.079	
222	3HG1	840.359	226.181	-807.437	 H	14	VAL14	0.079	
223	1HG2	841.042	224.741	-803.375	 H	14	VAL14	0.079	
224	2HG2	840.496	223.706	-804.699	 H	14	VAL14	0.079	
225	3HG2	842.179	224.294	-804.671	 H	14	VAL14	0.079	
226	   N	839.993	228.868	-805.701	N.am	15	MET15	-0.416	
227	  CA	839.672	229.961	-806.615	C.3	15	MET15	-0.024	
228	   C	840.701	231.062	-806.525	C.2	15	MET15	0.597	
229	   O	841.204	231.574	-807.537	O.2	15	MET15	-0.568	
230	  CB	838.250	230.505	-806.307	C.3	15	MET15	0.034	
231	  CG	837.089	229.506	-806.500	C.3	15	MET15	0.002	
232	  SD	835.514	230.370	-806.387	S.3	15	MET15	-0.274	
233	  CE	834.434	228.939	-806.252	C.3	15	MET15	-0.054	
234	   H	839.327	228.574	-805.000	 H	15	MET15	0.272	
235	  HA	839.699	229.574	-807.650	 H	15	MET15	0.088	
236	 2HB	838.047	231.384	-806.948	 H	15	MET15	0.024	
237	 3HB	838.213	230.897	-805.270	 H	15	MET15	0.024	
238	 2HG	837.132	228.719	-805.723	 H	15	MET15	0.044	
239	 3HG	837.153	228.991	-807.477	 H	15	MET15	0.044	
240	 1HE	834.579	228.252	-807.105	 H	15	MET15	0.068	
241	 2HE	834.643	228.386	-805.319	 H	15	MET15	0.068	
242	 3HE	833.376	229.253	-806.236	 H	15	MET15	0.068	
243	   N	841.068	231.482	-805.362	N.am	16	ARG16	-0.348	
244	  CA	842.064	232.547	-805.277	C.3	16	ARG16	-0.264	
245	   C	843.335	232.156	-805.992	C.2	16	ARG16	0.734	
246	   O	843.451	231.080	-806.574	O.2	16	ARG16	-0.589	
247	  CB	842.331	232.864	-803.778	C.3	16	ARG16	-0.001	
248	  CG	843.154	234.154	-803.503	C.3	16	ARG16	0.039	
249	  CD	843.402	234.373	-802.002	C.3	16	ARG16	0.049	
250	  NE	844.177	235.632	-801.799	N.pl3	16	ARG16	-0.530	
251	  CZ	844.567	236.114	-800.623	C.cat	16	ARG16	0.808	
252	 NH1	844.318	235.529	-799.485	N.pl3	16	ARG16	-0.863	
253	 NH2	845.229	237.227	-800.603	N.pl3	16	ARG16	-0.863	
254	   H	840.673	231.081	-804.524	 H	16	ARG16	0.275	
255	  HA	841.654	233.440	-805.786	 H	16	ARG16	0.156	
256	 2HB	842.828	231.989	-803.312	 H	16	ARG16	0.033	
257	 3HB	841.361	232.944	-803.245	 H	16	ARG16	0.033	
258	 2HG	842.624	235.025	-803.941	 H	16	ARG16	0.029	
259	 3HG	844.128	234.103	-804.031	 H	16	ARG16	0.029	
260	 2HD	843.952	233.498	-801.589	 H	16	ARG16	0.069	
261	 3HD	842.429	234.414	-801.467	 H	16	ARG16	0.069	
262	  HE	844.456	236.214	-802.596	 H	16	ARG16	0.346	
263	1HH1	843.794	234.655	-799.571	 H	16	ARG16	0.448	
264	2HH1	844.651	235.964	-798.623	 H	16	ARG16	0.448	
265	1HH2	845.415	237.671	-801.504	 H	16	ARG16	0.448	
266	2HH2	845.518	237.582	-799.690	 H	16	ARG16	0.448	
@<TRIPOS>BOND
1 1 2 1
2 1 10 1
3 2 3 1
4 2 5 1
5 2 11 1
6 3 4 2
7 3 16 1
8 5 6 1
9 6 7 1
10 7 8 2
11 7 9 1
12 5 12 1
13 5 13 1
14 6 14 1
15 6 15 1
16 16 17 1
17 16 24 1
18 17 18 1
19 17 20 1
20 17 25 1
21 18 19 2
22 18 30 1
23 20 21 1
24 21 22 1
25 21 23 2
26 20 26 1
27 20 27 1
28 22 28 1
29 22 29 1
30 30 31 1
31 30 36 1
32 31 32 1
33 31 34 1
34 31 37 1
35 32 33 2
36 32 44 1
37 34 35 1
38 35 36 1
39 34 38 1
40 34 39 1
41 35 40 1
42 35 41 1
43 36 42 1
44 36 43 1
45 44 45 1
46 44 53 1
47 45 46 1
48 45 48 1
49 45 54 1
50 46 47 2
51 46 59 1
52 48 49 1
53 49 50 1
54 50 51 2
55 50 52 1
56 48 55 1
57 48 56 1
58 49 57 1
59 49 58 1
60 59 60 1
61 59 67 1
62 60 61 1
63 60 63 1
64 60 68 1
65 61 62 2
66 61 71 1
67 63 64 1
68 64 65 2
69 64 66 1
70 63 69 1
71 63 70 1
72 71 72 1
73 71 79 1
74 72 73 1
75 72 75 1
76 72 80 1
77 73 74 2
78 73 90 1
79 75 76 1
80 75 77 1
81 76 78 1
82 75 81 1
83 76 82 1
84 76 83 1
85 77 84 1
86 77 85 1
87 77 86 1
88 78 87 1
89 78 88 1
90 78 89 1
91 90 91 1
92 90 98 1
93 91 92 1
94 91 94 1
95 91 99 1
96 92 93 2
97 92 109 1
98 94 95 1
99 95 96 1
100 95 97 1
101 94 100 1
102 94 101 1
103 95 102 1
104 96 103 1
105 96 104 1
106 96 105 1
107 97 106 1
108 97 107 1
109 97 108 1
110 109 110 1
111 109 117 1
112 110 111 1
113 110 113 1
114 110 118 1
115 111 112 2
116 111 121 1
117 113 114 1
118 114 115 2
119 114 116 1
120 113 119 1
121 113 120 1
122 121 122 1
123 121 130 1
124 122 123 1
125 122 125 1
126 122 131 1
127 123 124 2
128 123 136 1
129 125 126 1
130 126 127 1
131 127 128 2
132 127 129 1
133 125 132 1
134 125 133 1
135 126 134 1
136 126 135 1
137 136 137 1
138 136 146 1
139 137 138 1
140 137 140 1
141 137 147 1
142 138 139 2
143 138 153 1
144 140 141 1
145 141 142 2
146 142 145 1
147 141 143 1
148 143 144 2
149 144 145 1
150 140 148 1
151 140 149 1
152 142 150 1
153 144 151 1
154 145 152 1
155 153 154 1
156 153 160 1
157 154 155 1
158 154 157 1
159 154 161 1
160 155 156 2
161 155 169 1
162 157 158 1
163 157 159 1
164 157 162 1
165 158 163 1
166 158 164 1
167 158 165 1
168 159 166 1
169 159 167 1
170 159 168 1
171 169 170 1
172 169 178 1
173 170 171 1
174 170 173 1
175 170 179 1
176 171 172 2
177 171 186 1
178 173 174 1
179 174 175 1
180 175 176 1
181 175 177 2
182 173 180 1
183 173 181 1
184 174 182 1
185 174 183 1
186 176 184 1
187 176 185 1
188 186 187 1
189 186 197 1
190 187 188 1
191 187 190 1
192 187 198 1
193 188 189 2
194 188 210 1
195 190 191 1
196 191 192 1
197 192 193 1
198 193 194 1
199 194 195 2
200 194 196 1
201 190 199 1
202 190 200 1
203 191 201 1
204 191 202 1
205 192 203 1
206 192 204 1
207 193 205 1
208 195 206 1
209 195 207 1
210 196 208 1
211 196 209 1
212 210 211 1
213 210 217 1
214 211 212 1
215 211 214 1
216 211 218 1
217 212 213 2
218 212 226 1
219 214 215 1
220 214 216 1
221 214 219 1
222 215 220 1
223 215 221 1
224 215 222 1
225 216 223 1
226 216 224 1
227 216 225 1
228 226 227 1
229 226 234 1
230 227 228 1
231 227 230 1
232 227 235 1
233 228 229 2
234 228 243 1
235 230 231 1
236 231 232 1
237 232 233 1
238 230 236 1
239 230 237 1
240 231 238 1
241 231 239 1
242 233 240 1
243 233 241 1
244 233 242 1
245 243 244 1
246 243 254 1
247 244 245 1
248 244 247 1
249 244 255 1
250 245 246 2
251 247 248 1
252 248 249 1
253 249 250 1
254 250 251 1
255 251 252 2
256 251 253 1
257 247 256 1
258 247 257 1
259 248 258 1
260 248 259 1
261 249 260 1
262 249 261 1
263 250 262 1
264 252 263 1
265 252 264 1
266 253 265 1
267 253 266 1
@<TRIPOS>SUBSTRUCTURE
1	GLU1	1	RESIDUE	1 ****	GLU
2	ASN2	16	RESIDUE	1 ****	ASN
3	PRO3	30	RESIDUE	1 ****	PRO
4	GLU4	44	RESIDUE	1 ****	GLU
5	ASP5	59	RESIDUE	1 ****	ASP
6	ILE6	71	RESIDUE	1 ****	ILE
7	LEU7	90	RESIDUE	1 ****	LEU
8	ASP8	109	RESIDUE	1 ****	ASP
9	GLU9	121	RESIDUE	1 ****	GLU
10	HIS10	136	RESIDUE	1 ****	HIS
11	VAL11	153	RESIDUE	1 ****	VAL
12	GLN12	169	RESIDUE	1 ****	GLN
13	ARG13	186	RESIDUE	1 ****	ARG
14	VAL14	210	RESIDUE	1 ****	VAL
15	MET15	226	RESIDUE	1 ****	MET
16	ARG16	243	RESIDUE	1 ****	ARG
