REMARK WARNING: 32 MAX_TORS EXCEEDED!!!
REMARK  66 active torsions:
REMARK  status: ('A' for Active; 'I' for Inactive)
REMARK    1  A    between atoms: N_1  and  CA_2 
REMARK    2  A    between atoms: CA_2  and  C_3 
REMARK    3  A    between atoms: CA_2  and  CB_5 
REMARK       I    between atoms: C_3  and  N_11 
REMARK    4  A    between atoms: CB_5  and  CG_6 
REMARK    5  A    between atoms: CG_6  and  CD_7 
REMARK    6  A    between atoms: N_11  and  CA_12 
REMARK    7  A    between atoms: CA_12  and  C_13 
REMARK    8  A    between atoms: CA_12  and  CB_15 
REMARK       I    between atoms: C_13  and  N_22 
REMARK    9  A    between atoms: CB_15  and  CG_16 
REMARK       I    between atoms: CG_16  and  ND2_17 
REMARK   10  A    between atoms: CA_23  and  C_24 
REMARK       I    between atoms: C_24  and  N_29 
REMARK   11  A    between atoms: N_29  and  CA_30 
REMARK   12  A    between atoms: CA_30  and  C_31 
REMARK   13  A    between atoms: CA_30  and  CB_33 
REMARK       I    between atoms: C_31  and  N_39 
REMARK   14  A    between atoms: CB_33  and  CG_34 
REMARK   15  A    between atoms: CG_34  and  CD_35 
REMARK   16  A    between atoms: N_39  and  CA_40 
REMARK   17  A    between atoms: CA_40  and  C_41 
REMARK   18  A    between atoms: CA_40  and  CB_43 
REMARK       I    between atoms: C_41  and  N_47 
REMARK   19  A    between atoms: CB_43  and  OG_44 
REMARK   20  A    between atoms: N_47  and  CA_48 
REMARK   21  A    between atoms: CA_48  and  C_49 
REMARK   22  A    between atoms: CA_48  and  CB_51 
REMARK       I    between atoms: C_49  and  N_56 
REMARK   23  A    between atoms: CB_51  and  CG1_52 
REMARK   24  A    between atoms: N_56  and  CA_57 
REMARK   25  A    between atoms: CA_57  and  C_58 
REMARK   26  A    between atoms: CA_57  and  CB_60 
REMARK       I    between atoms: C_58  and  N_65 
REMARK   27  A    between atoms: CB_60  and  CG_61 
REMARK   28  A    between atoms: N_65  and  CA_66 
REMARK   29  A    between atoms: CA_66  and  C_67 
REMARK   30  A    between atoms: CA_66  and  CB_69 
REMARK       I    between atoms: C_67  and  N_74 
REMARK   31  A    between atoms: CB_69  and  CG_70 
REMARK   32  A    between atoms: N_74  and  CA_75 
REMARK   33  A    between atoms: CA_75  and  C_76 
REMARK   34  A    between atoms: CA_75  and  CB_78 
REMARK       I    between atoms: C_76  and  N_84 
REMARK   35  A    between atoms: CB_78  and  CG_79 
REMARK   36  A    between atoms: CG_79  and  CD_80 
REMARK   37  A    between atoms: N_84  and  CA_85 
REMARK   38  A    between atoms: CA_85  and  C_86 
REMARK   39  A    between atoms: CA_85  and  CB_88 
REMARK       I    between atoms: C_86  and  N_96 
REMARK   40  A    between atoms: CB_88  and  CG_89 
REMARK   41  A    between atoms: N_96  and  CA_97 
REMARK   42  A    between atoms: CA_97  and  C_98 
REMARK   43  A    between atoms: CA_97  and  CB_100 
REMARK       I    between atoms: C_98  and  N_104 
REMARK   44  A    between atoms: N_104  and  CA_105 
REMARK   45  A    between atoms: CA_105  and  C_106 
REMARK   46  A    between atoms: CA_105  and  CB_108 
REMARK       I    between atoms: C_106  and  N_116 
REMARK   47  A    between atoms: CB_108  and  CG_109 
REMARK   48  A    between atoms: CG_109  and  CD_110 
REMARK       I    between atoms: CD_110  and  NE2_111 
REMARK   49  A    between atoms: N_116  and  CA_117 
REMARK   50  A    between atoms: CA_117  and  C_118 
REMARK   51  A    between atoms: CA_117  and  CB_120 
REMARK       I    between atoms: C_118  and  N_133 
REMARK   52  A    between atoms: CB_120  and  CG_121 
REMARK   53  A    between atoms: CG_121  and  CD_122 
REMARK   54  A    between atoms: CD_122  and  NE_123 
REMARK       I    between atoms: NE_123  and  CZ_124 
REMARK       I    between atoms: CZ_124  and  NH1_125 
REMARK       I    between atoms: CZ_124  and  NH2_126 
REMARK   55  A    between atoms: N_133  and  CA_134 
REMARK   56  A    between atoms: CA_134  and  C_135 
REMARK   57  A    between atoms: CA_134  and  CB_137 
REMARK       I    between atoms: C_135  and  N_141 
REMARK   58  A    between atoms: N_141  and  CA_142 
REMARK   59  A    between atoms: CA_142  and  C_143 
REMARK   60  A    between atoms: CA_142  and  CB_145 
REMARK       I    between atoms: C_143  and  N_149 
REMARK   61  A    between atoms: N_149  and  CA_150 
REMARK   62  A    between atoms: CA_150  and  C_151 
REMARK   63  A    between atoms: CA_150  and  CB_153 
REMARK   64  A    between atoms: CB_153  and  CG_154 
REMARK   65  A    between atoms: CG_154  and  CD_155 
REMARK   66  A    between atoms: CD_155  and  NE_156 
REMARK       I    between atoms: NE_156  and  CZ_157 
REMARK       I    between atoms: CZ_157  and  NH1_158 
ROOT
ATOM      1  C   GLU d   9    2367.975 727.494-2461.091  0.00  0.00     0.241 C 
ATOM      2  O   GLU d   9    2368.638 728.248-2461.817  0.00  0.00    -0.271 OA
ATOM      3  N   HIS d  10    2368.071 726.219-2461.260  0.00  0.00    -0.346 N 
ATOM      4  H   HIS d  10    2367.540 725.584-2460.681  0.00  0.00     0.163 HD
ENDROOT
BRANCH   1   5
ATOM      5  CA  GLU d   9    2367.057 728.023-2460.015  0.00  0.00     0.177 C 
BRANCH   5   6
ATOM      6  N   GLU d   9    2365.754 727.366-2460.070  0.00  0.00    -0.346 N 
ATOM      7  C   ASP d   8    2365.074 727.415-2461.165  0.00  0.00     0.241 C 
ATOM      8  O   ASP d   8    2365.547 728.019-2462.140  0.00  0.00    -0.271 OA
ATOM      9  H   GLU d   9    2365.390 726.880-2459.262  0.00  0.00     0.163 HD
BRANCH   7  10
ATOM     10  CA  ASP d   8    2363.727 726.736-2461.222  0.00  0.00     0.186 C 
BRANCH  10  11
ATOM     11  N   ASP d   8    2363.797 725.387-2460.668  0.00  0.00    -0.346 N 
ATOM     12  C   LEU d   7    2364.634 724.546-2461.174  0.00  0.00     0.241 C 
ATOM     13  O   LEU d   7    2365.354 724.907-2462.116  0.00  0.00    -0.271 OA
ATOM     14  H   ASP d   8    2363.199 725.117-2459.900  0.00  0.00     0.163 HD
BRANCH  12  15
ATOM     15  CA  LEU d   7    2364.706 723.150-2460.601  0.00  0.00     0.177 C 
BRANCH  15  16
ATOM     16  N   LEU d   7    2364.760 723.187-2459.142  0.00  0.00    -0.346 N 
ATOM     17  C   ILE d   6    2365.707 723.850-2458.569  0.00  0.00     0.241 C 
ATOM     18  O   ILE d   6    2366.541 724.437-2459.272  0.00  0.00    -0.271 OA
ATOM     19  H   LEU d   7    2364.068 722.700-2458.591  0.00  0.00     0.163 HD
BRANCH  17  20
ATOM     20  CA  ILE d   6    2365.764 723.887-2457.061  0.00  0.00     0.180 C 
BRANCH  20  21
ATOM     21  N   ILE d   6    2364.450 724.183-2456.495  0.00  0.00    -0.346 N 
ATOM     22  C   SER d   5    2363.846 725.266-2456.849  0.00  0.00     0.243 C 
ATOM     23  O   SER d   5    2364.394 726.020-2457.654  0.00  0.00    -0.271 OA
ATOM     24  H   ILE d   6    2364.021 723.549-2455.836  0.00  0.00     0.163 HD
BRANCH  22  25
ATOM     25  CA  SER d   5    2362.487 725.572-2456.264  0.00  0.00     0.200 C 
BRANCH  25  26
ATOM     26  N   SER d   5    2361.617 724.401-2456.323  0.00  0.00    -0.344 N 
ATOM     27  C   GLU d   4    2361.390 723.849-2457.466  0.00  0.00     0.241 C 
ATOM     28  O   GLU d   4    2361.917 724.328-2458.480  0.00  0.00    -0.271 OA
ATOM     29  H   SER d   5    2361.200 724.030-2455.481  0.00  0.00     0.163 HD
BRANCH  27  30
ATOM     30  CA  GLU d   4    2360.491 722.638-2457.528  0.00  0.00     0.177 C 
BRANCH  30  31
ATOM     31  N   GLU d   4    2360.850 721.667-2456.498  0.00  0.00    -0.346 N 
ATOM     32  C   PRO d   3    2362.055 721.207-2456.465  0.00  0.00     0.241 C 
ATOM     33  O   PRO d   3    2362.879 721.590-2457.296  0.00  0.00    -0.271 OA
ATOM     34  H   GLU d   4    2360.166 721.360-2455.821  0.00  0.00     0.163 HD
BRANCH  32  35
ATOM     35  CA  PRO d   3    2362.453 720.183-2455.388  0.00  0.00     0.179 C 
ATOM     36  N   PRO d   3    2362.001 720.592-2454.067  0.00  0.00    -0.337 N 
ATOM     37  C   ASN d   2    2362.522 721.587-2453.432  0.00  0.00     0.243 C 
ATOM     38  CD  PRO d   3    2360.922 719.799-2453.518  0.00  0.00     0.127 C 
ATOM     39  O   ASN d   2    2363.437 722.217-2453.960  0.00  0.00    -0.271 OA
ATOM     40  CG  PRO d   3    2360.465 718.981-2454.728  0.00  0.00     0.022 C 
ATOM     41  CB  PRO d   3    2361.749 718.828-2455.558  0.00  0.00     0.037 C 
BRANCH  37  42
ATOM     42  CA  ASN d   2    2361.991 721.943-2452.064  0.00  0.00     0.185 C 
BRANCH  42  43
ATOM     43  N   ASN d   2    2360.531 721.982-2452.064  0.00  0.00    -0.346 N 
ATOM     44  C   GLU d   1    2359.927 722.768-2452.889  0.00  0.00     0.242 C 
ATOM     45  O   GLU d   1    2360.603 723.467-2453.658  0.00  0.00    -0.271 OA
ATOM     46  H   ASN d   2    2360.003 721.402-2451.427  0.00  0.00     0.163 HD
BRANCH  44  47
ATOM     47  CA  GLU d   1    2358.418 722.808-2452.889  0.00  0.00     0.191 C 
BRANCH  47  48
ATOM     48  N   GLU d   1    2357.859 721.459-2452.889  0.00  0.00    -0.326 NA
ATOM     49  H   GLU d   1    2358.486 720.580-2452.889  0.00  0.00     0.180 HD
ENDBRANCH  47  48
BRANCH  47  50
ATOM     50  CB  GLU d   1    2357.895 723.593-2451.652  0.00  0.00     0.047 C 
BRANCH  50  51
ATOM     51  CG  GLU d   1    2358.370 725.078-2451.541  0.00  0.00     0.116 C 
BRANCH  51  52
ATOM     52  CD  GLU d   1    2357.946 725.882-2450.326  0.00  0.00     0.172 C 
ATOM     53  OE1 GLU d   1    2357.218 725.380-2449.448  0.00  0.00    -0.648 OA
ATOM     54  OE2 GLU d   1    2358.376 727.052-2450.254  0.00  0.00    -0.648 OA
ENDBRANCH  51  52
ENDBRANCH  50  51
ENDBRANCH  47  50
ENDBRANCH  44  47
ENDBRANCH  42  43
BRANCH  42  55
ATOM     55  CB  ASN d   2    2362.482 720.920-2450.999  0.00  0.00     0.137 C 
BRANCH  55  56
ATOM     56  CG  ASN d   2    2362.019 721.144-2449.556  0.00  0.00     0.217 C 
ATOM     57  ND2 ASN d   2    2362.613 722.058-2448.838  0.00  0.00    -0.370 N 
ATOM     58 21HD ASN d   2    2362.132 722.232-2447.951  0.00  0.00     0.159 HD
ATOM     59 22HD ASN d   2    2363.315 722.630-2449.307  0.00  0.00     0.159 HD
ATOM     60  OD1 ASN d   2    2361.098 720.510-2449.062  0.00  0.00    -0.274 OA
ENDBRANCH  55  56
ENDBRANCH  42  55
ENDBRANCH  37  42
ENDBRANCH  32  35
ENDBRANCH  30  31
BRANCH  30  61
ATOM     61  CB  GLU d   4    2359.003 723.057-2457.358  0.00  0.00     0.045 C 
BRANCH  61  62
ATOM     62  CG  GLU d   4    2358.455 724.061-2458.424  0.00  0.00     0.116 C 
BRANCH  62  63
ATOM     63  CD  GLU d   4    2357.029 724.558-2458.281  0.00  0.00     0.172 C 
ATOM     64  OE1 GLU d   4    2356.302 724.159-2457.350  0.00  0.00    -0.648 OA
ATOM     65  OE2 GLU d   4    2356.640 725.387-2459.129  0.00  0.00    -0.648 OA
ENDBRANCH  62  63
ENDBRANCH  61  62
ENDBRANCH  30  61
ENDBRANCH  27  30
ENDBRANCH  25  26
BRANCH  25  66
ATOM     66  CB  SER d   5    2362.599 726.104-2454.813  0.00  0.00     0.199 C 
BRANCH  66  67
ATOM     67  OG  SER d   5    2363.330 725.225-2453.952  0.00  0.00    -0.398 OA
ATOM     68  HG  SER d   5    2362.841 724.400-2453.902  0.00  0.00     0.209 HD
ENDBRANCH  66  67
ENDBRANCH  25  66
ENDBRANCH  22  25
ENDBRANCH  20  21
BRANCH  20  69
ATOM     69  CB  ILE d   6    2366.363 722.551-2456.460  0.00  0.00     0.013 C 
ATOM     70  CG2 ILE d   6    2367.804 722.249-2456.976  0.00  0.00     0.012 C 
BRANCH  69  71
ATOM     71  CG1 ILE d   6    2366.382 722.489-2454.900  0.00  0.00     0.002 C 
ATOM     72  CD1 ILE d   6    2366.651 721.099-2454.284  0.00  0.00     0.005 C 
ENDBRANCH  69  71
ENDBRANCH  20  69
ENDBRANCH  17  20
ENDBRANCH  15  16
BRANCH  15  73
ATOM     73  CB  LEU d   7    2363.502 722.291-2461.081  0.00  0.00     0.038 C 
BRANCH  73  74
ATOM     74  CG  LEU d   7    2363.429 720.811-2460.615  0.00  0.00    -0.020 C 
ATOM     75  CD1 LEU d   7    2362.239 720.106-2461.280  0.00  0.00     0.009 C 
ATOM     76  CD2 LEU d   7    2364.722 720.032-2460.906  0.00  0.00     0.009 C 
ENDBRANCH  73  74
ENDBRANCH  15  73
ENDBRANCH  12  15
ENDBRANCH  10  11
BRANCH  10  77
ATOM     77  CB  ASP d   8    2362.649 727.576-2460.481  0.00  0.00     0.147 C 
BRANCH  77  78
ATOM     78  CG  ASP d   8    2362.431 728.997-2461.022  0.00  0.00     0.175 C 
ATOM     79  OD1 ASP d   8    2362.496 729.195-2462.253  0.00  0.00    -0.648 OA
ATOM     80  OD2 ASP d   8    2362.240 729.923-2460.207  0.00  0.00    -0.648 OA
ENDBRANCH  77  78
ENDBRANCH  10  77
ENDBRANCH   7  10
ENDBRANCH   5   6
BRANCH   5  81
ATOM     81  CB  GLU d   9    2367.691 727.815-2458.610  0.00  0.00     0.045 C 
BRANCH  81  82
ATOM     82  CG  GLU d   9    2369.074 728.507-2458.381  0.00  0.00     0.116 C 
BRANCH  82  83
ATOM     83  CD  GLU d   9    2369.776 728.294-2457.053  0.00  0.00     0.172 C 
ATOM     84  OE1 GLU d   9    2369.254 727.604-2456.156  0.00  0.00    -0.648 OA
ATOM     85  OE2 GLU d   9    2370.895 728.832-2456.922  0.00  0.00    -0.648 OA
ENDBRANCH  82  83
ENDBRANCH  81  82
ENDBRANCH   5  81
ENDBRANCH   1   5
BRANCH   3  86
ATOM     86  CA  HIS d  10    2368.958 725.706-2462.300  0.00  0.00     0.182 C 
BRANCH  86  87
ATOM     87  C   HIS d  10    2368.591 726.271-2463.652  0.00  0.00     0.241 C 
ATOM     88  O   HIS d  10    2369.444 726.735-2464.424  0.00  0.00    -0.271 OA
ATOM     89  N   VAL d  11    2367.353 726.270-2464.014  0.00  0.00    -0.346 N 
ATOM     90  H   VAL d  11    2366.640 725.898-2463.404  0.00  0.00     0.163 HD
BRANCH  89  91
ATOM     91  CA  VAL d  11    2366.998 726.816-2465.322  0.00  0.00     0.180 C 
BRANCH  91  92
ATOM     92  C   VAL d  11    2367.463 728.246-2465.455  0.00  0.00     0.241 C 
ATOM     93  O   VAL d  11    2368.064 728.650-2466.458  0.00  0.00    -0.271 OA
ATOM     94  N   GLN d  12    2367.227 729.072-2464.493  0.00  0.00    -0.346 N 
ATOM     95  H   GLN d  12    2366.738 728.767-2463.663  0.00  0.00     0.163 HD
BRANCH  94  96
ATOM     96  CA  GLN d  12    2367.676 730.455-2464.621  0.00  0.00     0.177 C 
BRANCH  96  97
ATOM     97  C   GLN d  12    2369.166 730.521-2464.859  0.00  0.00     0.241 C 
ATOM     98  O   GLN d  12    2369.653 731.229-2465.738  0.00  0.00    -0.271 OA
ATOM     99  N   ARG d  13    2369.950 729.815-2464.118  0.00  0.00    -0.346 N 
ATOM    100  H   ARG d  13    2369.574 729.225-2463.389  0.00  0.00     0.163 HD
BRANCH  99 101
ATOM    101  CA  ARG d  13    2371.391 729.880-2464.349  0.00  0.00     0.176 C 
BRANCH 101 102
ATOM    102  C   ARG d  13    2371.726 729.507-2465.774  0.00  0.00     0.241 C 
ATOM    103  O   ARG d  13    2372.495 730.178-2466.458  0.00  0.00    -0.271 OA
ATOM    104  N   VAL d  14    2371.190 728.453-2466.287  0.00  0.00    -0.346 N 
ATOM    105  H   VAL d  14    2370.555 727.884-2465.745  0.00  0.00     0.163 HD
BRANCH 104 106
ATOM    106  CA  VAL d  14    2371.514 728.092-2467.665  0.00  0.00     0.180 C 
BRANCH 106 107
ATOM    107  C   VAL d  14    2371.184 729.222-2468.611  0.00  0.00     0.241 C 
ATOM    108  O   VAL d  14    2371.977 729.603-2469.481  0.00  0.00    -0.271 OA
ATOM    109  N   VAL d  15    2370.040 729.808-2468.509  0.00  0.00    -0.346 N 
ATOM    110  H   VAL d  15    2369.375 729.516-2467.807  0.00  0.00     0.163 HD
BRANCH 109 111
ATOM    111  CA  VAL d  15    2369.720 730.901-2469.423  0.00  0.00     0.180 C 
BRANCH 111 112
ATOM    112  C   VAL d  15    2370.753 731.999-2469.335  0.00  0.00     0.241 C 
ATOM    113  O   VAL d  15    2371.257 732.510-2470.343  0.00  0.00    -0.271 OA
ATOM    114  N   ARG d  16    2371.121 732.419-2468.172  0.00  0.00    -0.347 N 
ATOM    115  H   ARG d  16    2370.724 732.019-2467.333  0.00  0.00     0.163 HD
BRANCH 114 116
ATOM    116  CA  ARG d  16    2372.119 733.481-2468.086  0.00  0.00     0.162 C 
BRANCH 116 117
ATOM    117  C   ARG d  16    2373.390 733.086-2468.801  0.00  0.00     0.219 C 
ATOM    118  O   ARG d  16    2373.502 732.010-2469.384  0.00  0.00    -0.287 OA
ENDBRANCH 116 117
BRANCH 116 119
ATOM    119  CB  ARG d  16    2372.387 733.797-2466.587  0.00  0.00     0.035 C 
BRANCH 119 120
ATOM    120  CG  ARG d  16    2373.215 735.084-2466.312  0.00  0.00     0.023 C 
BRANCH 120 121
ATOM    121  CD  ARG d  16    2373.463 735.301-2464.810  0.00  0.00     0.138 C 
BRANCH 121 122
ATOM    122  NE  ARG d  16    2374.241 736.559-2464.607  0.00  0.00    -0.227 N 
ATOM    123  CZ  ARG d  16    2374.632 737.039-2463.431  0.00  0.00     0.665 C 
ATOM    124  NH1 ARG d  16    2374.382 736.454-2462.293  0.00  0.00    -0.235 N 
ATOM    125  NH2 ARG d  16    2375.298 738.151-2463.410  0.00  0.00    -0.235 N 
ATOM    126 11HH ARG d  16    2373.855 735.582-2462.379  0.00  0.00     0.174 HD
ATOM    127 12HH ARG d  16    2374.717 736.888-2461.431  0.00  0.00     0.174 HD
ATOM    128 21HH ARG d  16    2375.486 738.594-2464.312  0.00  0.00     0.174 HD
ATOM    129 22HH ARG d  16    2375.588 738.504-2462.497  0.00  0.00     0.174 HD
ATOM    130  HE  ARG d  16    2374.522 737.140-2465.403  0.00  0.00     0.177 HD
ENDBRANCH 121 122
ENDBRANCH 120 121
ENDBRANCH 119 120
ENDBRANCH 116 119
ENDBRANCH 114 116
ENDBRANCH 111 112
BRANCH 111 131
ATOM    131  CB  VAL d  15    2368.277 731.460-2469.107  0.00  0.00     0.009 C 
ATOM    132  CG1 VAL d  15    2367.854 732.747-2469.866  0.00  0.00     0.012 C 
ATOM    133  CG2 VAL d  15    2367.140 730.442-2469.366  0.00  0.00     0.012 C 
ENDBRANCH 111 131
ENDBRANCH 109 111
ENDBRANCH 106 107
BRANCH 106 134
ATOM    134  CB  VAL d  14    2370.741 726.775-2468.071  0.00  0.00     0.009 C 
ATOM    135  CG1 VAL d  14    2370.830 726.356-2469.564  0.00  0.00     0.012 C 
ATOM    136  CG2 VAL d  14    2371.173 725.523-2467.270  0.00  0.00     0.012 C 
ENDBRANCH 106 134
ENDBRANCH 104 106
ENDBRANCH 101 102
BRANCH 101 137
ATOM    137  CB  ARG d  13    2372.104 728.941-2463.334  0.00  0.00     0.036 C 
BRANCH 137 138
ATOM    138  CG  ARG d  13    2373.649 729.094-2463.254  0.00  0.00     0.023 C 
BRANCH 138 139
ATOM    139  CD  ARG d  13    2374.276 728.107-2462.256  0.00  0.00     0.138 C 
BRANCH 139 140
ATOM    140  NE  ARG d  13    2375.753 728.314-2462.206  0.00  0.00    -0.227 N 
ATOM    141  CZ  ARG d  13    2376.601 727.622-2461.450  0.00  0.00     0.665 C 
ATOM    142  NH1 ARG d  13    2376.236 726.659-2460.652  0.00  0.00    -0.235 N 
ATOM    143  NH2 ARG d  13    2377.861 727.921-2461.508  0.00  0.00    -0.235 N 
ATOM    144 11HH ARG d  13    2375.231 726.473-2460.655  0.00  0.00     0.174 HD
ATOM    145 12HH ARG d  13    2376.949 726.176-2460.103  0.00  0.00     0.174 HD
ATOM    146 21HH ARG d  13    2378.129 728.679-2462.140  0.00  0.00     0.174 HD
ATOM    147 22HH ARG d  13    2378.496 727.380-2460.919  0.00  0.00     0.174 HD
ATOM    148  HE  ARG d  13    2376.204 729.035-2462.777  0.00  0.00     0.177 HD
ENDBRANCH 139 140
ENDBRANCH 138 139
ENDBRANCH 137 138
ENDBRANCH 101 137
ENDBRANCH  99 101
ENDBRANCH  96  97
BRANCH  96 149
ATOM    149  CB  GLN d  12    2367.286 731.223-2463.338  0.00  0.00     0.044 C 
BRANCH 149 150
ATOM    150  CG  GLN d  12    2367.647 732.745-2463.308  0.00  0.00     0.105 C 
BRANCH 150 151
ATOM    151  CD  GLN d  12    2367.345 733.559-2462.044  0.00  0.00     0.215 C 
ATOM    152  NE2 GLN d  12    2366.778 732.984-2461.014  0.00  0.00    -0.370 N 
ATOM    153 21HE GLN d  12    2366.672 733.578-2460.191  0.00  0.00     0.159 HD
ATOM    154 22HE GLN d  12    2366.614 731.980-2461.117  0.00  0.00     0.159 HD
ATOM    155  OE1 GLN d  12    2367.648 734.740-2461.967  0.00  0.00    -0.274 OA
ENDBRANCH 150 151
ENDBRANCH 149 150
ENDBRANCH  96 149
ENDBRANCH  94  96
ENDBRANCH  91  92
BRANCH  91 156
ATOM    156  CB  VAL d  11    2365.437 726.710-2465.541  0.00  0.00     0.009 C 
ATOM    157  CG1 VAL d  11    2364.868 727.413-2466.803  0.00  0.00     0.012 C 
ATOM    158  CG2 VAL d  11    2364.911 725.256-2465.613  0.00  0.00     0.012 C 
ENDBRANCH  91 156
ENDBRANCH  89  91
ENDBRANCH  86  87
BRANCH  86 159
ATOM    159  CB  HIS d  10    2368.793 724.178-2462.295  0.00  0.00     0.095 C 
BRANCH 159 160
ATOM    160  CG  HIS d  10    2370.079 723.467-2461.987  0.00  0.00     0.053 A 
ATOM    161  CD2 HIS d  10    2370.460 723.132-2460.694  0.00  0.00     0.116 A 
ATOM    162  NE2 HIS d  10    2371.674 722.500-2460.761  0.00  0.00    -0.359 N 
ATOM    163  CE1 HIS d  10    2371.937 722.502-2462.096  0.00  0.00     0.207 A 
ATOM    164  2HE HIS d  10    2372.241 722.123-2459.988  0.00  0.00     0.166 HD
ATOM    165  ND1 HIS d  10    2371.030 723.060-2462.919  0.00  0.00    -0.247 NA
ENDBRANCH 159 160
ENDBRANCH  86 159
ENDBRANCH   3  86
TORSDOF 66
