REMARK WARNING: 32 MAX_TORS EXCEEDED!!!
REMARK  65 active torsions:
REMARK  status: ('A' for Active; 'I' for Inactive)
REMARK    1  A    between atoms: N_1  and  CA_2 
REMARK    2  A    between atoms: CA_2  and  C_3 
REMARK    3  A    between atoms: CA_2  and  CB_5 
REMARK       I    between atoms: C_3  and  N_11 
REMARK    4  A    between atoms: CB_5  and  CG_6 
REMARK    5  A    between atoms: CG_6  and  CD_7 
REMARK    6  A    between atoms: N_11  and  CA_12 
REMARK    7  A    between atoms: CA_12  and  C_13 
REMARK    8  A    between atoms: CA_12  and  CB_15 
REMARK       I    between atoms: C_13  and  N_22 
REMARK    9  A    between atoms: CB_15  and  CG_16 
REMARK       I    between atoms: CG_16  and  ND2_17 
REMARK   10  A    between atoms: CA_23  and  C_24 
REMARK       I    between atoms: C_24  and  N_29 
REMARK   11  A    between atoms: N_29  and  CA_30 
REMARK   12  A    between atoms: CA_30  and  C_31 
REMARK   13  A    between atoms: CA_30  and  CB_33 
REMARK       I    between atoms: C_31  and  N_39 
REMARK   14  A    between atoms: CB_33  and  CG_34 
REMARK   15  A    between atoms: CG_34  and  CD_35 
REMARK   16  A    between atoms: N_39  and  CA_40 
REMARK   17  A    between atoms: CA_40  and  C_41 
REMARK   18  A    between atoms: CA_40  and  CB_43 
REMARK       I    between atoms: C_41  and  N_47 
REMARK   19  A    between atoms: CB_43  and  OG_44 
REMARK   20  A    between atoms: N_47  and  CA_48 
REMARK   21  A    between atoms: CA_48  and  C_49 
REMARK   22  A    between atoms: CA_48  and  CB_51 
REMARK       I    between atoms: C_49  and  N_56 
REMARK   23  A    between atoms: CB_51  and  CG1_52 
REMARK   24  A    between atoms: N_56  and  CA_57 
REMARK   25  A    between atoms: CA_57  and  C_58 
REMARK   26  A    between atoms: CA_57  and  CB_60 
REMARK       I    between atoms: C_58  and  N_65 
REMARK   27  A    between atoms: CB_60  and  CG_61 
REMARK   28  A    between atoms: N_65  and  CA_66 
REMARK   29  A    between atoms: CA_66  and  C_67 
REMARK   30  A    between atoms: CA_66  and  CB_69 
REMARK       I    between atoms: C_67  and  N_74 
REMARK   31  A    between atoms: CB_69  and  CG_70 
REMARK   32  A    between atoms: N_74  and  CA_75 
REMARK   33  A    between atoms: CA_75  and  C_76 
REMARK   34  A    between atoms: CA_75  and  CB_78 
REMARK       I    between atoms: C_76  and  N_84 
REMARK   35  A    between atoms: CB_78  and  CG_79 
REMARK   36  A    between atoms: CG_79  and  CD_80 
REMARK   37  A    between atoms: N_84  and  CA_85 
REMARK   38  A    between atoms: CA_85  and  C_86 
REMARK   39  A    between atoms: CA_85  and  CB_88 
REMARK       I    between atoms: C_86  and  N_96 
REMARK   40  A    between atoms: CB_88  and  CG_89 
REMARK   41  A    between atoms: N_96  and  CA_97 
REMARK   42  A    between atoms: CA_97  and  C_98 
REMARK   43  A    between atoms: CA_97  and  CB_100 
REMARK       I    between atoms: C_98  and  N_104 
REMARK   44  A    between atoms: N_104  and  CA_105 
REMARK   45  A    between atoms: CA_105  and  C_106 
REMARK   46  A    between atoms: CA_105  and  CB_108 
REMARK       I    between atoms: C_106  and  N_116 
REMARK   47  A    between atoms: CB_108  and  CG_109 
REMARK   48  A    between atoms: CG_109  and  CD_110 
REMARK       I    between atoms: CD_110  and  NE2_111 
REMARK   49  A    between atoms: N_116  and  CA_117 
REMARK   50  A    between atoms: CA_117  and  C_118 
REMARK   51  A    between atoms: CA_117  and  CB_120 
REMARK       I    between atoms: C_118  and  N_133 
REMARK   52  A    between atoms: CB_120  and  CG_121 
REMARK   53  A    between atoms: CG_121  and  CD_122 
REMARK   54  A    between atoms: CD_122  and  NE_123 
REMARK       I    between atoms: NE_123  and  CZ_124 
REMARK       I    between atoms: CZ_124  and  NH1_125 
REMARK       I    between atoms: CZ_124  and  NH2_126 
REMARK   55  A    between atoms: N_133  and  CA_134 
REMARK   56  A    between atoms: CA_134  and  C_135 
REMARK   57  A    between atoms: CA_134  and  CB_137 
REMARK       I    between atoms: C_135  and  N_141 
REMARK   58  A    between atoms: N_141  and  CA_142 
REMARK   59  A    between atoms: CA_142  and  C_143 
REMARK       I    between atoms: C_143  and  N_146 
REMARK   60  A    between atoms: N_146  and  CA_147 
REMARK   61  A    between atoms: CA_147  and  C_148 
REMARK   62  A    between atoms: CA_147  and  CB_150 
REMARK   63  A    between atoms: CB_150  and  CG_151 
REMARK   64  A    between atoms: CG_151  and  CD_152 
REMARK   65  A    between atoms: CD_152  and  NE_153 
REMARK       I    between atoms: NE_153  and  CZ_154 
REMARK       I    between atoms: CZ_154  and  NH1_155 
ROOT
ATOM      1  CA  GLU d   9    2358.780 725.507-2451.442  0.00  0.00     0.177 C 
ENDROOT
BRANCH   1   2
ATOM      2  N   GLU d   9    2357.477 724.850-2451.497  0.00  0.00    -0.346 N 
ATOM      3  C   ASP d   8    2356.797 724.900-2452.592  0.00  0.00     0.241 C 
ATOM      4  O   ASP d   8    2357.270 725.504-2453.567  0.00  0.00    -0.271 OA
ATOM      5  H   GLU d   9    2357.113 724.364-2450.689  0.00  0.00     0.163 HD
BRANCH   3   6
ATOM      6  CA  ASP d   8    2355.449 724.221-2452.649  0.00  0.00     0.186 C 
BRANCH   6   7
ATOM      7  N   ASP d   8    2355.519 722.871-2452.095  0.00  0.00    -0.346 N 
ATOM      8  C   LEU d   7    2356.356 722.030-2452.601  0.00  0.00     0.241 C 
ATOM      9  O   LEU d   7    2357.077 722.392-2453.543  0.00  0.00    -0.271 OA
ATOM     10  H   ASP d   8    2354.921 722.601-2451.327  0.00  0.00     0.163 HD
BRANCH   8  11
ATOM     11  CA  LEU d   7    2356.428 720.635-2452.028  0.00  0.00     0.177 C 
BRANCH  11  12
ATOM     12  N   LEU d   7    2356.483 720.671-2450.569  0.00  0.00    -0.346 N 
ATOM     13  C   ILE d   6    2357.429 721.334-2449.996  0.00  0.00     0.241 C 
ATOM     14  O   ILE d   6    2358.264 721.922-2450.699  0.00  0.00    -0.271 OA
ATOM     15  H   LEU d   7    2355.791 720.184-2450.018  0.00  0.00     0.163 HD
BRANCH  13  16
ATOM     16  CA  ILE d   6    2357.486 721.372-2448.488  0.00  0.00     0.180 C 
BRANCH  16  17
ATOM     17  N   ILE d   6    2356.173 721.667-2447.922  0.00  0.00    -0.346 N 
ATOM     18  C   SER d   5    2355.569 722.751-2448.276  0.00  0.00     0.243 C 
ATOM     19  O   SER d   5    2356.117 723.504-2449.081  0.00  0.00    -0.271 OA
ATOM     20  H   ILE d   6    2355.744 721.033-2447.263  0.00  0.00     0.163 HD
BRANCH  18  21
ATOM     21  CA  SER d   5    2354.210 723.057-2447.691  0.00  0.00     0.200 C 
BRANCH  21  22
ATOM     22  N   SER d   5    2353.340 721.886-2447.750  0.00  0.00    -0.344 N 
ATOM     23  C   GLU d   4    2353.113 721.333-2448.893  0.00  0.00     0.241 C 
ATOM     24  O   GLU d   4    2353.640 721.812-2449.907  0.00  0.00    -0.271 OA
ATOM     25  H   SER d   5    2352.923 721.514-2446.908  0.00  0.00     0.163 HD
BRANCH  23  26
ATOM     26  CA  GLU d   4    2352.214 720.122-2448.955  0.00  0.00     0.177 C 
BRANCH  26  27
ATOM     27  N   GLU d   4    2352.573 719.151-2447.925  0.00  0.00    -0.346 N 
ATOM     28  C   PRO d   3    2353.778 718.691-2447.892  0.00  0.00     0.241 C 
ATOM     29  O   PRO d   3    2354.601 719.074-2448.723  0.00  0.00    -0.271 OA
ATOM     30  H   GLU d   4    2351.888 718.845-2447.248  0.00  0.00     0.163 HD
BRANCH  28  31
ATOM     31  CA  PRO d   3    2354.176 717.667-2446.815  0.00  0.00     0.179 C 
ATOM     32  N   PRO d   3    2353.723 718.077-2445.494  0.00  0.00    -0.337 N 
ATOM     33  C   ASN d   2    2354.245 719.072-2444.859  0.00  0.00     0.243 C 
ATOM     34  CD  PRO d   3    2352.645 717.284-2444.945  0.00  0.00     0.127 C 
ATOM     35  O   ASN d   2    2355.160 719.702-2445.387  0.00  0.00    -0.271 OA
ATOM     36  CG  PRO d   3    2352.188 716.465-2446.155  0.00  0.00     0.022 C 
ATOM     37  CB  PRO d   3    2353.471 716.313-2446.985  0.00  0.00     0.037 C 
BRANCH  33  38
ATOM     38  CA  ASN d   2    2353.713 719.427-2443.491  0.00  0.00     0.185 C 
BRANCH  38  39
ATOM     39  N   ASN d   2    2352.254 719.466-2443.491  0.00  0.00    -0.346 N 
ATOM     40  C   GLU d   1    2351.650 720.252-2444.316  0.00  0.00     0.242 C 
ATOM     41  O   GLU d   1    2352.325 720.951-2445.085  0.00  0.00    -0.271 OA
ATOM     42  H   ASN d   2    2351.726 718.887-2442.854  0.00  0.00     0.163 HD
BRANCH  40  43
ATOM     43  CA  GLU d   1    2350.141 720.292-2444.316  0.00  0.00     0.191 C 
BRANCH  43  44
ATOM     44  N   GLU d   1    2349.582 718.943-2444.316  0.00  0.00    -0.326 NA
ATOM     45  H   GLU d   1    2350.208 718.064-2444.316  0.00  0.00     0.180 HD
ENDBRANCH  43  44
BRANCH  43  46
ATOM     46  CB  GLU d   1    2349.617 721.077-2443.079  0.00  0.00     0.047 C 
BRANCH  46  47
ATOM     47  CG  GLU d   1    2350.093 722.562-2442.968  0.00  0.00     0.116 C 
BRANCH  47  48
ATOM     48  CD  GLU d   1    2349.668 723.366-2441.753  0.00  0.00     0.172 C 
ATOM     49  OE1 GLU d   1    2348.940 722.864-2440.875  0.00  0.00    -0.648 OA
ATOM     50  OE2 GLU d   1    2350.099 724.536-2441.681  0.00  0.00    -0.648 OA
ENDBRANCH  47  48
ENDBRANCH  46  47
ENDBRANCH  43  46
ENDBRANCH  40  43
ENDBRANCH  38  39
BRANCH  38  51
ATOM     51  CB  ASN d   2    2354.205 718.404-2442.426  0.00  0.00     0.137 C 
BRANCH  51  52
ATOM     52  CG  ASN d   2    2353.742 718.628-2440.983  0.00  0.00     0.217 C 
ATOM     53  ND2 ASN d   2    2354.336 719.543-2440.265  0.00  0.00    -0.370 N 
ATOM     54 21HD ASN d   2    2353.855 719.716-2439.378  0.00  0.00     0.159 HD
ATOM     55 22HD ASN d   2    2355.038 720.114-2440.734  0.00  0.00     0.159 HD
ATOM     56  OD1 ASN d   2    2352.821 717.995-2440.489  0.00  0.00    -0.274 OA
ENDBRANCH  51  52
ENDBRANCH  38  51
ENDBRANCH  33  38
ENDBRANCH  28  31
ENDBRANCH  26  27
BRANCH  26  57
ATOM     57  CB  GLU d   4    2350.725 720.541-2448.785  0.00  0.00     0.045 C 
BRANCH  57  58
ATOM     58  CG  GLU d   4    2350.178 721.545-2449.851  0.00  0.00     0.116 C 
BRANCH  58  59
ATOM     59  CD  GLU d   4    2348.751 722.042-2449.708  0.00  0.00     0.172 C 
ATOM     60  OE1 GLU d   4    2348.025 721.644-2448.777  0.00  0.00    -0.648 OA
ATOM     61  OE2 GLU d   4    2348.363 722.871-2450.556  0.00  0.00    -0.648 OA
ENDBRANCH  58  59
ENDBRANCH  57  58
ENDBRANCH  26  57
ENDBRANCH  23  26
ENDBRANCH  21  22
BRANCH  21  62
ATOM     62  CB  SER d   5    2354.321 723.589-2446.240  0.00  0.00     0.199 C 
BRANCH  62  63
ATOM     63  OG  SER d   5    2355.052 722.709-2445.379  0.00  0.00    -0.398 OA
ATOM     64  HG  SER d   5    2354.563 721.884-2445.329  0.00  0.00     0.209 HD
ENDBRANCH  62  63
ENDBRANCH  21  62
ENDBRANCH  18  21
ENDBRANCH  16  17
BRANCH  16  65
ATOM     65  CB  ILE d   6    2358.085 720.036-2447.887  0.00  0.00     0.013 C 
ATOM     66  CG2 ILE d   6    2359.527 719.733-2448.403  0.00  0.00     0.012 C 
BRANCH  65  67
ATOM     67  CG1 ILE d   6    2358.104 719.973-2446.327  0.00  0.00     0.002 C 
ATOM     68  CD1 ILE d   6    2358.374 718.584-2445.711  0.00  0.00     0.005 C 
ENDBRANCH  65  67
ENDBRANCH  16  65
ENDBRANCH  13  16
ENDBRANCH  11  12
BRANCH  11  69
ATOM     69  CB  LEU d   7    2355.225 719.775-2452.508  0.00  0.00     0.038 C 
BRANCH  69  70
ATOM     70  CG  LEU d   7    2355.152 718.296-2452.042  0.00  0.00    -0.020 C 
ATOM     71  CD1 LEU d   7    2353.962 717.590-2452.707  0.00  0.00     0.009 C 
ATOM     72  CD2 LEU d   7    2356.445 717.516-2452.333  0.00  0.00     0.009 C 
ENDBRANCH  69  70
ENDBRANCH  11  69
ENDBRANCH   8  11
ENDBRANCH   6   7
BRANCH   6  73
ATOM     73  CB  ASP d   8    2354.372 725.061-2451.908  0.00  0.00     0.147 C 
BRANCH  73  74
ATOM     74  CG  ASP d   8    2354.154 726.481-2452.449  0.00  0.00     0.175 C 
ATOM     75  OD1 ASP d   8    2354.218 726.679-2453.680  0.00  0.00    -0.648 OA
ATOM     76  OD2 ASP d   8    2353.962 727.408-2451.634  0.00  0.00    -0.648 OA
ENDBRANCH  73  74
ENDBRANCH   6  73
ENDBRANCH   3   6
ENDBRANCH   1   2
BRANCH   1  77
ATOM     77  C   GLU d   9    2359.697 724.979-2452.518  0.00  0.00     0.241 C 
ATOM     78  O   GLU d   9    2360.361 725.732-2453.244  0.00  0.00    -0.271 OA
ATOM     79  N   HIS d  10    2359.793 723.703-2452.687  0.00  0.00    -0.346 N 
ATOM     80  H   HIS d  10    2359.262 723.068-2452.108  0.00  0.00     0.163 HD
BRANCH  79  81
ATOM     81  CA  HIS d  10    2360.680 723.191-2453.727  0.00  0.00     0.182 C 
BRANCH  81  82
ATOM     82  C   HIS d  10    2360.313 723.755-2455.079  0.00  0.00     0.241 C 
ATOM     83  O   HIS d  10    2361.166 724.219-2455.851  0.00  0.00    -0.271 OA
ATOM     84  N   VAL d  11    2359.076 723.755-2455.441  0.00  0.00    -0.346 N 
ATOM     85  H   VAL d  11    2358.363 723.383-2454.831  0.00  0.00     0.163 HD
BRANCH  84  86
ATOM     86  CA  VAL d  11    2358.720 724.300-2456.749  0.00  0.00     0.180 C 
BRANCH  86  87
ATOM     87  C   VAL d  11    2359.186 725.730-2456.882  0.00  0.00     0.241 C 
ATOM     88  O   VAL d  11    2359.787 726.135-2457.885  0.00  0.00    -0.271 OA
ATOM     89  N   GLN d  12    2358.949 726.557-2455.920  0.00  0.00    -0.346 N 
ATOM     90  H   GLN d  12    2358.461 726.251-2455.090  0.00  0.00     0.163 HD
BRANCH  89  91
ATOM     91  CA  GLN d  12    2359.399 727.939-2456.048  0.00  0.00     0.177 C 
BRANCH  91  92
ATOM     92  C   GLN d  12    2360.888 728.006-2456.286  0.00  0.00     0.241 C 
ATOM     93  O   GLN d  12    2361.376 728.713-2457.165  0.00  0.00    -0.271 OA
ATOM     94  N   ARG d  13    2361.673 727.299-2455.545  0.00  0.00    -0.346 N 
ATOM     95  H   ARG d  13    2361.297 726.710-2454.816  0.00  0.00     0.163 HD
BRANCH  94  96
ATOM     96  CA  ARG d  13    2363.113 727.364-2455.776  0.00  0.00     0.176 C 
BRANCH  96  97
ATOM     97  C   ARG d  13    2363.449 726.992-2457.201  0.00  0.00     0.241 C 
ATOM     98  O   ARG d  13    2364.218 727.663-2457.885  0.00  0.00    -0.271 OA
ATOM     99  N   VAL d  14    2362.912 725.937-2457.714  0.00  0.00    -0.346 N 
ATOM    100  H   VAL d  14    2362.277 725.369-2457.172  0.00  0.00     0.163 HD
BRANCH  99 101
ATOM    101  CA  VAL d  14    2363.237 725.577-2459.092  0.00  0.00     0.180 C 
BRANCH 101 102
ATOM    102  C   VAL d  14    2362.907 726.707-2460.038  0.00  0.00     0.241 C 
ATOM    103  O   VAL d  14    2363.700 727.087-2460.908  0.00  0.00    -0.271 OA
ATOM    104  N   GLY d  15    2361.762 727.293-2459.936  0.00  0.00    -0.351 N 
ATOM    105  H   GLY d  15    2361.097 727.000-2459.234  0.00  0.00     0.163 HD
BRANCH 104 106
ATOM    106  CA  GLY d  15    2361.443 728.385-2460.850  0.00  0.00     0.225 C 
BRANCH 106 107
ATOM    107  C   GLY d  15    2362.474 729.484-2460.762  0.00  0.00     0.235 C 
ATOM    108  O   GLY d  15    2362.976 729.992-2461.768  0.00  0.00    -0.272 OA
ATOM    109  N   ARG d  16    2362.842 729.904-2459.599  0.00  0.00    -0.348 N 
ATOM    110  H   ARG d  16    2362.446 729.504-2458.760  0.00  0.00     0.163 HD
BRANCH 109 111
ATOM    111  CA  ARG d  16    2363.840 730.967-2459.514  0.00  0.00     0.162 C 
BRANCH 111 112
ATOM    112  C   ARG d  16    2365.110 730.573-2460.229  0.00  0.00     0.219 C 
ATOM    113  O   ARG d  16    2365.224 729.497-2460.812  0.00  0.00    -0.287 OA
ENDBRANCH 111 112
BRANCH 111 114
ATOM    114  CB  ARG d  16    2364.107 731.284-2458.016  0.00  0.00     0.035 C 
BRANCH 114 115
ATOM    115  CG  ARG d  16    2364.934 732.572-2457.742  0.00  0.00     0.023 C 
BRANCH 115 116
ATOM    116  CD  ARG d  16    2365.182 732.791-2456.240  0.00  0.00     0.138 C 
BRANCH 116 117
ATOM    117  NE  ARG d  16    2365.959 734.049-2456.038  0.00  0.00    -0.227 N 
ATOM    118  CZ  ARG d  16    2366.350 734.531-2454.862  0.00  0.00     0.665 C 
ATOM    119  NH1 ARG d  16    2366.101 733.946-2453.724  0.00  0.00    -0.235 N 
ATOM    120  NH2 ARG d  16    2367.015 735.643-2454.843  0.00  0.00    -0.235 N 
ATOM    121 11HH ARG d  16    2365.574 733.074-2453.809  0.00  0.00     0.174 HD
ATOM    122 12HH ARG d  16    2366.435 734.381-2452.862  0.00  0.00     0.174 HD
ATOM    123 21HH ARG d  16    2367.201 736.086-2455.744  0.00  0.00     0.174 HD
ATOM    124 22HH ARG d  16    2367.304 735.997-2453.930  0.00  0.00     0.174 HD
ATOM    125  HE  ARG d  16    2366.239 734.630-2456.835  0.00  0.00     0.177 HD
ENDBRANCH 116 117
ENDBRANCH 115 116
ENDBRANCH 114 115
ENDBRANCH 111 114
ENDBRANCH 109 111
ENDBRANCH 106 107
ENDBRANCH 104 106
ENDBRANCH 101 102
BRANCH 101 126
ATOM    126  CB  VAL d  14    2362.464 724.260-2459.498  0.00  0.00     0.009 C 
ATOM    127  CG1 VAL d  14    2362.552 723.841-2460.991  0.00  0.00     0.012 C 
ATOM    128  CG2 VAL d  14    2362.896 723.008-2458.697  0.00  0.00     0.012 C 
ENDBRANCH 101 126
ENDBRANCH  99 101
ENDBRANCH  96  97
BRANCH  96 129
ATOM    129  CB  ARG d  13    2363.826 726.426-2454.761  0.00  0.00     0.036 C 
BRANCH 129 130
ATOM    130  CG  ARG d  13    2365.372 726.579-2454.681  0.00  0.00     0.023 C 
BRANCH 130 131
ATOM    131  CD  ARG d  13    2365.999 725.591-2453.683  0.00  0.00     0.138 C 
BRANCH 131 132
ATOM    132  NE  ARG d  13    2367.476 725.798-2453.633  0.00  0.00    -0.227 N 
ATOM    133  CZ  ARG d  13    2368.324 725.107-2452.877  0.00  0.00     0.665 C 
ATOM    134  NH1 ARG d  13    2367.959 724.143-2452.079  0.00  0.00    -0.235 N 
ATOM    135  NH2 ARG d  13    2369.583 725.406-2452.935  0.00  0.00    -0.235 N 
ATOM    136 11HH ARG d  13    2366.953 723.957-2452.082  0.00  0.00     0.174 HD
ATOM    137 12HH ARG d  13    2368.672 723.660-2451.530  0.00  0.00     0.174 HD
ATOM    138 21HH ARG d  13    2369.851 726.163-2453.567  0.00  0.00     0.174 HD
ATOM    139 22HH ARG d  13    2370.219 724.864-2452.346  0.00  0.00     0.174 HD
ATOM    140  HE  ARG d  13    2367.927 726.520-2454.204  0.00  0.00     0.177 HD
ENDBRANCH 131 132
ENDBRANCH 130 131
ENDBRANCH 129 130
ENDBRANCH  96 129
ENDBRANCH  94  96
ENDBRANCH  91  92
BRANCH  91 141
ATOM    141  CB  GLN d  12    2359.008 728.708-2454.765  0.00  0.00     0.044 C 
BRANCH 141 142
ATOM    142  CG  GLN d  12    2359.370 730.229-2454.735  0.00  0.00     0.105 C 
BRANCH 142 143
ATOM    143  CD  GLN d  12    2359.068 731.044-2453.471  0.00  0.00     0.215 C 
ATOM    144  NE2 GLN d  12    2358.501 730.468-2452.441  0.00  0.00    -0.370 N 
ATOM    145 21HE GLN d  12    2358.395 731.063-2451.618  0.00  0.00     0.159 HD
ATOM    146 22HE GLN d  12    2358.337 729.465-2452.544  0.00  0.00     0.159 HD
ATOM    147  OE1 GLN d  12    2359.371 732.224-2453.394  0.00  0.00    -0.274 OA
ENDBRANCH 142 143
ENDBRANCH 141 142
ENDBRANCH  91 141
ENDBRANCH  89  91
ENDBRANCH  86  87
BRANCH  86 148
ATOM    148  CB  VAL d  11    2357.159 724.194-2456.968  0.00  0.00     0.009 C 
ATOM    149  CG1 VAL d  11    2356.591 724.898-2458.230  0.00  0.00     0.012 C 
ATOM    150  CG2 VAL d  11    2356.634 722.740-2457.040  0.00  0.00     0.012 C 
ENDBRANCH  86 148
ENDBRANCH  84  86
ENDBRANCH  81  82
BRANCH  81 151
ATOM    151  CB  HIS d  10    2360.516 721.662-2453.722  0.00  0.00     0.095 C 
BRANCH 151 152
ATOM    152  CG  HIS d  10    2361.801 720.951-2453.414  0.00  0.00     0.053 A 
ATOM    153  CD2 HIS d  10    2362.183 720.617-2452.121  0.00  0.00     0.116 A 
ATOM    154  NE2 HIS d  10    2363.397 719.984-2452.188  0.00  0.00    -0.359 N 
ATOM    155  CE1 HIS d  10    2363.659 719.987-2453.523  0.00  0.00     0.207 A 
ATOM    156  2HE HIS d  10    2363.964 719.607-2451.415  0.00  0.00     0.166 HD
ATOM    157  ND1 HIS d  10    2362.753 720.545-2454.346  0.00  0.00    -0.247 NA
ENDBRANCH 151 152
ENDBRANCH  81 151
ENDBRANCH  79  81
ENDBRANCH   1  77
BRANCH   1 158
ATOM    158  CB  GLU d   9    2359.413 725.300-2450.037  0.00  0.00     0.045 C 
BRANCH 158 159
ATOM    159  CG  GLU d   9    2360.796 725.992-2449.808  0.00  0.00     0.116 C 
BRANCH 159 160
ATOM    160  CD  GLU d   9    2361.498 725.779-2448.480  0.00  0.00     0.172 C 
ATOM    161  OE1 GLU d   9    2360.977 725.088-2447.583  0.00  0.00    -0.648 OA
ATOM    162  OE2 GLU d   9    2362.618 726.316-2448.349  0.00  0.00    -0.648 OA
ENDBRANCH 159 160
ENDBRANCH 158 159
ENDBRANCH   1 158
TORSDOF 65
