@<TRIPOS>MOLECULE
16-5
258 259 16              
SMALL
USER_CHARGES
@<TRIPOS>ATOM
1	   N	2529.980	776.216	-2639.667	N.3	1	GLU1	-0.516	
2	  CA	2530.539	777.565	-2639.667	C.3	1	GLU1	0.040	
3	   C	2532.048	777.525	-2639.667	C.2	1	GLU1	0.537	
4	   O	2532.724	778.224	-2640.436	O.2	1	GLU1	-0.582	
5	  CB	2530.016	778.350	-2638.430	C.3	1	GLU1	0.056	
6	  CG	2530.491	779.835	-2638.319	C.3	1	GLU1	0.014	
7	  CD	2530.067	780.639	-2637.104	C.2	1	GLU1	0.805	
8	 OE1	2529.339	780.137	-2636.226	O.co2	1	GLU1	-0.819	
9	 OE2	2530.497	781.809	-2637.032	O.co2	1	GLU1	-0.819	
10	   H	2530.607	775.337	-2639.667	 H	1	GLU1	0.294	
11	  HA	2530.213	778.083	-2640.587	 H	1	GLU1	0.111	
12	 2HB	2530.305	777.819	-2637.500	 H	1	GLU1	-0.017	
13	 3HB	2528.909	778.340	-2638.417	 H	1	GLU1	-0.017	
14	 2HG	2530.181	780.420	-2639.200	 H	1	GLU1	-0.043	
15	 3HG	2531.591	779.902	-2638.290	 H	1	GLU1	-0.043	
16	   N	2532.653	776.739	-2638.842	N.am	2	ASN2	-0.416	
17	  CA	2534.112	776.700	-2638.842	C.3	2	ASN2	0.014	
18	   C	2534.644	776.344	-2640.210	C.2	2	ASN2	0.597	
19	   O	2535.559	776.975	-2640.738	O.2	2	ASN2	-0.568	
20	  CB	2534.604	775.677	-2637.777	C.3	2	ASN2	-0.204	
21	  CG	2534.140	775.901	-2636.334	C.2	2	ASN2	0.713	
22	 ND2	2534.734	776.816	-2635.615	N.pl3	2	ASN2	-0.919	
23	 OD1	2533.219	775.267	-2635.840	O.2	2	ASN2	-0.593	
24	   H	2532.125	776.159	-2638.205	 H	2	ASN2	0.272	
25	  HA	2534.490	777.710	-2638.596	 H	2	ASN2	0.105	
26	 2HB	2535.708	775.618	-2637.780	 H	2	ASN2	0.080	
27	 3HB	2534.275	774.659	-2638.063	 H	2	ASN2	0.080	
28	1HD2	2534.253	776.989	-2634.729	 H	2	ASN2	0.420	
29	2HD2	2535.436	777.387	-2636.084	 H	2	ASN2	0.420	
30	   N	2534.122	775.349	-2640.844	N.am	3	PRO3	-0.255	
31	  CA	2534.574	774.940	-2642.166	C.3	3	PRO3	-0.027	
32	   C	2534.177	775.964	-2643.243	C.2	3	PRO3	0.590	
33	   O	2535.000	776.347	-2644.074	O.2	3	PRO3	-0.575	
34	  CB	2533.870	773.586	-2642.335	C.3	3	PRO3	-0.007	
35	  CG	2532.586	773.738	-2641.506	C.3	3	PRO3	0.019	
36	  CD	2533.044	774.557	-2640.296	C.3	3	PRO3	0.019	
37	  HA	2535.660	774.820	-2642.179	 H	3	PRO3	0.064	
38	 2HB	2534.493	772.804	-2641.895	 H	3	PRO3	0.025	
39	 3HB	2533.672	773.337	-2643.381	 H	3	PRO3	0.025	
40	 2HG	2532.158	772.776	-2641.215	 H	3	PRO3	0.021	
41	 3HG	2531.849	774.309	-2642.073	 H	3	PRO3	0.021	
42	 2HD	2533.433	773.907	-2639.508	 H	3	PRO3	0.039	
43	 3HD	2532.247	775.192	-2639.903	 H	3	PRO3	0.039	
44	   N	2532.972	776.424	-2643.276	N.am	4	GLU4	-0.516	
45	  CA	2532.613	777.395	-2644.305	C.3	4	GLU4	0.040	
46	   C	2533.512	778.606	-2644.244	C.2	4	GLU4	0.537	
47	   O	2534.039	779.085	-2645.258	O.2	4	GLU4	-0.582	
48	  CB	2531.124	777.814	-2644.136	C.3	4	GLU4	0.056	
49	  CG	2530.577	778.818	-2645.201	C.3	4	GLU4	0.014	
50	  CD	2529.150	779.315	-2645.058	C.2	4	GLU4	0.805	
51	 OE1	2528.423	778.917	-2644.128	O.co2	4	GLU4	-0.819	
52	 OE2	2528.761	780.144	-2645.907	O.co2	4	GLU4	-0.819	
53	   H	2532.287	776.117	-2642.599	 H	4	GLU4	0.294	
54	  HA	2532.744	776.925	-2645.297	 H	4	GLU4	0.111	
55	 2HB	2530.971	778.254	-2643.129	 H	4	GLU4	-0.017	
56	 3HB	2530.476	776.916	-2644.142	 H	4	GLU4	-0.017	
57	 2HG	2530.658	778.403	-2646.219	 H	4	GLU4	-0.043	
58	 3HG	2531.165	779.750	-2645.212	 H	4	GLU4	-0.043	
59	   N	2533.739	779.158	-2643.101	N.am	5	SER5	-0.416	
60	  CA	2534.609	780.329	-2643.042	C.3	5	SER5	-0.025	
61	   C	2535.968	780.023	-2643.627	C.2	5	SER5	0.597	
62	   O	2536.515	780.777	-2644.432	O.2	5	SER5	-0.568	
63	  CB	2534.720	780.861	-2641.591	C.3	5	SER5	0.212	
64	  OG	2535.451	779.982	-2640.730	O.3	5	SER5	-0.655	
65	   H	2533.321	778.787	-2642.259	 H	5	SER5	0.272	
66	  HA	2534.160	781.120	-2643.671	 H	5	SER5	0.084	
67	 2HB	2533.720	781.056	-2641.158	 H	5	SER5	0.035	
68	 3HB	2535.225	781.847	-2641.593	 H	5	SER5	0.035	
69	  HG	2534.962	779.157	-2640.679	 H	5	SER5	0.428	
70	   N	2536.572	778.940	-2643.273	N.am	6	ILE6	-0.416	
71	  CA	2537.885	778.645	-2643.839	C.3	6	ILE6	-0.060	
72	   C	2537.828	778.607	-2645.346	C.2	6	ILE6	0.597	
73	   O	2538.663	779.194	-2646.050	O.2	6	ILE6	-0.568	
74	  CB	2538.484	777.308	-2643.238	C.3	6	ILE6	0.130	
75	 CG1	2538.503	777.246	-2641.677	C.3	6	ILE6	-0.043	
76	 CG2	2539.925	777.006	-2643.753	C.3	6	ILE6	-0.320	
77	 CD1	2538.772	775.857	-2641.062	C.3	6	ILE6	-0.066	
78	   H	2536.143	778.306	-2642.614	 H	6	ILE6	0.272	
79	  HA	2538.559	779.479	-2643.571	 H	6	ILE6	0.087	
80	  HB	2537.826	776.482	-2643.583	 H	6	ILE6	0.019	
81	2HG1	2537.521	777.566	-2641.282	 H	6	ILE6	0.024	
82	3HG1	2539.219	777.988	-2641.272	 H	6	ILE6	0.024	
83	1HG2	2539.984	776.912	-2644.852	 H	6	ILE6	0.088	
84	2HG2	2540.648	777.788	-2643.451	 H	6	ILE6	0.088	
85	3HG2	2540.315	776.044	-2643.375	 H	6	ILE6	0.088	
86	1HD1	2538.044	775.103	-2641.417	 H	6	ILE6	0.019	
87	2HD1	2539.783	775.478	-2641.298	 H	6	ILE6	0.019	
88	3HD1	2538.696	775.887	-2639.960	 H	6	ILE6	0.019	
89	   N	2536.882	777.944	-2645.920	N.am	7	LEU7	-0.416	
90	  CA	2536.827	777.908	-2647.378	C.3	7	LEU7	-0.052	
91	   C	2536.755	779.303	-2647.951	C.2	7	LEU7	0.597	
92	   O	2537.476	779.665	-2648.894	O.2	7	LEU7	-0.568	
93	  CB	2535.624	777.048	-2647.859	C.3	7	LEU7	-0.110	
94	  CG	2535.550	775.568	-2647.392	C.3	7	LEU7	0.353	
95	 CD1	2534.360	774.863	-2648.058	C.3	7	LEU7	-0.412	
96	 CD2	2536.844	774.789	-2647.684	C.3	7	LEU7	-0.412	
97	   H	2536.190	777.457	-2645.369	 H	7	LEU7	0.272	
98	  HA	2537.769	777.467	-2647.753	 H	7	LEU7	0.092	
99	 2HB	2535.600	777.064	-2648.967	 H	7	LEU7	0.046	
100	 3HB	2534.684	777.551	-2647.555	 H	7	LEU7	0.046	
101	  HG	2535.380	775.560	-2646.295	 H	7	LEU7	-0.036	
102	1HD1	2533.403	775.372	-2647.835	 H	7	LEU7	0.100	
103	2HD1	2534.459	774.822	-2649.159	 H	7	LEU7	0.100	
104	3HD1	2534.253	773.822	-2647.702	 H	7	LEU7	0.100	
105	1HD2	2537.119	774.819	-2648.754	 H	7	LEU7	0.100	
106	2HD2	2537.697	775.200	-2647.112	 H	7	LEU7	0.100	
107	3HD2	2536.762	773.726	-2647.388	 H	7	LEU7	0.100	
108	   N	2535.918	780.144	-2647.446	N.am	8	ASP8	-0.516	
109	  CA	2535.848	781.493	-2648.000	C.3	8	ASP8	0.038	
110	   C	2537.195	782.172	-2647.943	C.2	8	ASP8	0.537	
111	   O	2537.668	782.777	-2648.918	O.2	8	ASP8	-0.582	
112	  CB	2534.771	782.333	-2647.259	C.3	8	ASP8	-0.030	
113	  CG	2534.552	783.754	-2647.800	C.2	8	ASP8	0.799	
114	 OD1	2534.617	783.952	-2649.031	O.co2	8	ASP8	-0.801	
115	 OD2	2534.361	784.680	-2646.985	O.co2	8	ASP8	-0.801	
116	   H	2535.320	779.874	-2646.678	 H	8	ASP8	0.294	
117	  HA	2535.565	781.415	-2649.067	 H	8	ASP8	0.088	
118	 2HB	2535.028	782.417	-2646.187	 H	8	ASP8	-0.012	
119	 3HB	2533.791	781.829	-2647.291	 H	8	ASP8	-0.012	
120	   N	2537.875	782.123	-2646.848	N.am	9	GLU9	-0.516	
121	  CA	2539.178	782.780	-2646.793	C.3	9	GLU9	0.040	
122	   C	2540.096	782.251	-2647.869	C.2	9	GLU9	0.537	
123	   O	2540.760	783.005	-2648.595	O.2	9	GLU9	-0.582	
124	  CB	2539.812	782.572	-2645.388	C.3	9	GLU9	0.056	
125	  CG	2541.195	783.264	-2645.159	C.3	9	GLU9	0.014	
126	  CD	2541.897	783.051	-2643.831	C.2	9	GLU9	0.805	
127	 OE1	2541.375	782.361	-2642.934	O.co2	9	GLU9	-0.819	
128	 OE2	2543.016	783.589	-2643.699	O.co2	9	GLU9	-0.819	
129	   H	2537.512	781.637	-2646.040	 H	9	GLU9	0.294	
130	  HA	2539.037	783.862	-2646.969	 H	9	GLU9	0.111	
131	 2HB	2539.924	781.488	-2645.184	 H	9	GLU9	-0.017	
132	 3HB	2539.115	782.927	-2644.603	 H	9	GLU9	-0.017	
133	 2HG	2541.123	784.355	-2645.299	 H	9	GLU9	-0.043	
134	 3HG	2541.941	782.919	-2645.893	 H	9	GLU9	-0.043	
135	   N	2540.192	780.976	-2648.038	N.am	10	HIS10	-0.416	
136	  CA	2541.079	780.464	-2649.078	C.3	10	HIS10	-0.058	
137	   C	2540.712	781.028	-2650.429	C.2	10	HIS10	0.597	
138	   O	2541.565	781.492	-2651.202	O.2	10	HIS10	-0.568	
139	  CB	2540.915	778.935	-2649.073	C.3	10	HIS10	-0.007	
140	  CG	2542.200	778.224	-2648.764	C.2	10	HIS10	0.187	
141	 CD2	2542.581	777.890	-2647.472	C.2	10	HIS10	-0.221	
142	 ND1	2543.151	777.817	-2649.697	N.2	10	HIS10	-0.543	
143	 CE1	2544.058	777.259	-2648.874	C.2	10	HIS10	0.163	
144	 NE2	2543.796	777.257	-2647.539	N.pl3	10	HIS10	-0.280	
145	   H	2539.661	780.341	-2647.459	 H	10	HIS10	0.272	
146	  HA	2542.099	780.821	-2648.854	 H	10	HIS10	0.136	
147	 2HB	2540.549	778.568	-2650.052	 H	10	HIS10	0.037	
148	 3HB	2540.159	778.599	-2648.332	 H	10	HIS10	0.037	
149	 2HD	2541.996	778.105	-2646.583	 H	10	HIS10	0.186	
150	 1HE	2544.948	776.837	-2649.321	 H	10	HIS10	0.144	
151	 2HE	2544.363	776.880	-2646.765	 H	10	HIS10	0.334	
152	   N	2539.474	781.027	-2650.792	N.am	11	VAL11	-0.416	
153	  CA	2539.119	781.573	-2652.099	C.3	11	VAL11	-0.087	
154	   C	2539.584	783.003	-2652.233	C.2	11	VAL11	0.597	
155	   O	2540.186	783.407	-2653.236	O.2	11	VAL11	-0.568	
156	  CB	2537.558	781.467	-2652.318	C.3	11	VAL11	0.299	
157	 CG1	2536.990	782.170	-2653.581	C.3	11	VAL11	-0.319	
158	 CG2	2537.033	780.013	-2652.390	C.3	11	VAL11	-0.319	
159	   H	2538.761	780.655	-2650.181	 H	11	VAL11	0.272	
160	  HA	2539.638	780.990	-2652.882	 H	11	VAL11	0.097	
161	  HB	2537.071	781.948	-2651.443	 H	11	VAL11	-0.030	
162	1HG1	2537.428	781.778	-2654.518	 H	11	VAL11	0.079	
163	2HG1	2535.890	782.064	-2653.663	 H	11	VAL11	0.079	
164	3HG1	2537.168	783.263	-2653.573	 H	11	VAL11	0.079	
165	1HG2	2537.322	779.426	-2651.500	 H	11	VAL11	0.079	
166	2HG2	2535.927	779.976	-2652.433	 H	11	VAL11	0.079	
167	3HG2	2537.414	779.471	-2653.277	 H	11	VAL11	0.079	
168	   N	2539.348	783.829	-2651.271	N.am	12	GLN12	-0.416	
169	  CA	2539.797	785.212	-2651.398	C.3	12	GLN12	-0.003	
170	   C	2541.287	785.278	-2651.637	C.2	12	GLN12	0.597	
171	   O	2541.774	785.986	-2652.516	O.2	12	GLN12	-0.568	
172	  CB	2539.407	785.980	-2650.116	C.3	12	GLN12	-0.004	
173	  CG	2539.768	787.502	-2650.086	C.3	12	GLN12	-0.064	
174	  CD	2539.467	788.316	-2648.822	C.2	12	GLN12	0.695	
175	 NE2	2538.900	787.741	-2647.792	N.pl3	12	GLN12	-0.941	
176	 OE1	2539.769	789.497	-2648.745	O.2	12	GLN12	-0.609	
177	   H	2538.859	783.524	-2650.441	 H	12	GLN12	0.272	
178	  HA	2539.298	785.668	-2652.274	 H	12	GLN12	0.085	
179	 2HB	2539.883	785.480	-2649.247	 H	12	GLN12	0.017	
180	 3HB	2538.317	785.874	-2649.953	 H	12	GLN12	0.017	
181	 2HG	2539.291	788.023	-2650.937	 H	12	GLN12	0.035	
182	 3HG	2540.852	787.643	-2650.252	 H	12	GLN12	0.035	
183	1HE2	2538.793	788.336	-2646.969	 H	12	GLN12	0.425	
184	2HE2	2538.735	786.737	-2647.895	 H	12	GLN12	0.425	
185	   N	2542.072	784.572	-2650.896	N.am	13	ARG13	-0.348	
186	  CA	2543.512	784.637	-2651.127	C.3	13	ARG13	-0.264	
187	   C	2543.848	784.264	-2652.552	C.2	13	ARG13	0.734	
188	   O	2544.616	784.936	-2653.236	O.2	13	ARG13	-0.589	
189	  CB	2544.225	783.698	-2650.112	C.3	13	ARG13	-0.001	
190	  CG	2545.770	783.851	-2650.032	C.3	13	ARG13	0.039	
191	  CD	2546.397	782.864	-2649.034	C.3	13	ARG13	0.049	
192	  NE	2547.874	783.071	-2648.984	N.pl3	13	ARG13	-0.530	
193	  CZ	2548.723	782.380	-2648.228	C.cat	13	ARG13	0.808	
194	 NH1	2548.358	781.416	-2647.430	N.pl3	13	ARG13	-0.863	
195	 NH2	2549.982	782.678	-2648.286	N.pl3	13	ARG13	-0.863	
196	   H	2541.695	783.983	-2650.167	 H	13	ARG13	0.275	
197	  HA	2543.837	785.683	-2650.969	 H	13	ARG13	0.156	
198	 2HB	2543.959	782.648	-2650.351	 H	13	ARG13	0.033	
199	 3HB	2543.800	783.866	-2649.102	 H	13	ARG13	0.033	
200	 2HG	2546.019	784.896	-2649.753	 H	13	ARG13	0.029	
201	 3HG	2546.221	783.694	-2651.033	 H	13	ARG13	0.029	
202	 2HD	2546.152	781.824	-2649.342	 H	13	ARG13	0.069	
203	 3HD	2545.941	783.011	-2648.031	 H	13	ARG13	0.069	
204	  HE	2548.326	783.793	-2649.555	 H	13	ARG13	0.346	
205	1HH1	2547.352	781.230	-2647.433	 H	13	ARG13	0.448	
206	2HH1	2549.071	780.933	-2646.881	 H	13	ARG13	0.448	
207	1HH2	2550.250	783.436	-2648.917	 H	13	ARG13	0.448	
208	2HH2	2550.618	782.137	-2647.697	 H	13	ARG13	0.448	
209	   N	2543.311	783.210	-2653.065	N.am	14	VAL14	-0.416	
210	  CA	2543.635	782.850	-2654.443	C.3	14	VAL14	-0.087	
211	   C	2543.306	783.979	-2655.389	C.2	14	VAL14	0.597	
212	   O	2544.099	784.360	-2656.258	O.2	14	VAL14	-0.568	
213	  CB	2542.863	781.532	-2654.849	C.3	14	VAL14	0.299	
214	 CG1	2542.951	781.113	-2656.342	C.3	14	VAL14	-0.319	
215	 CG2	2543.294	780.281	-2654.048	C.3	14	VAL14	-0.319	
216	   H	2542.676	782.642	-2652.523	 H	14	VAL14	0.272	
217	  HA	2544.724	782.672	-2654.518	 H	14	VAL14	0.097	
218	  HB	2541.786	781.704	-2654.632	 H	14	VAL14	-0.030	
219	1HG1	2543.992	780.936	-2656.671	 H	14	VAL14	0.079	
220	2HG1	2542.378	780.190	-2656.554	 H	14	VAL14	0.079	
221	3HG1	2542.522	781.875	-2657.020	 H	14	VAL14	0.079	
222	1HG2	2543.207	780.440	-2652.957	 H	14	VAL14	0.079	
223	2HG2	2542.658	779.404	-2654.279	 H	14	VAL14	0.079	
224	3HG2	2544.342	779.990	-2654.253	 H	14	VAL14	0.079	
225	   N	2542.161	784.565	-2655.287	N.am	15	MET15	-0.416	
226	  CA	2541.841	785.658	-2656.201	C.3	15	MET15	-0.024	
227	   C	2542.871	786.758	-2656.114	C.2	15	MET15	0.597	
228	   O	2543.374	787.268	-2657.126	O.2	15	MET15	-0.568	
229	  CB	2540.419	786.204	-2655.892	C.3	15	MET15	0.034	
230	  CG	2539.257	785.206	-2656.083	C.3	15	MET15	0.002	
231	  SD	2537.683	786.072	-2655.969	S.3	15	MET15	-0.274	
232	  CE	2536.602	784.643	-2655.831	C.3	15	MET15	-0.054	
233	   H	2541.496	784.273	-2654.585	 H	15	MET15	0.272	
234	  HA	2541.866	785.270	-2657.236	 H	15	MET15	0.088	
235	 2HB	2540.217	787.082	-2656.534	 H	15	MET15	0.024	
236	 3HB	2540.384	786.597	-2654.855	 H	15	MET15	0.024	
237	 2HG	2539.300	784.420	-2655.305	 H	15	MET15	0.044	
238	 3HG	2539.320	784.690	-2657.059	 H	15	MET15	0.044	
239	 1HE	2536.745	783.954	-2656.683	 H	15	MET15	0.068	
240	 2HE	2536.812	784.090	-2654.898	 H	15	MET15	0.068	
241	 3HE	2535.545	784.958	-2655.814	 H	15	MET15	0.068	
242	   N	2543.240	787.179	-2654.951	N.am	16	MET16	-0.416	
243	  CA	2544.237	788.243	-2654.867	C.3	16	MET16	-0.024	
244	   C	2545.507	787.853	-2655.582	C.2	16	MET16	0.597	
245	   O	2545.632	786.757	-2656.150	O.2	16	MET16	-0.568	
246	  CB	2544.519	788.583	-2653.378	C.3	16	MET16	0.034	
247	  CG	2543.322	789.130	-2652.572	C.3	16	MET16	0.002	
248	  SD	2543.887	789.739	-2650.975	S.3	16	MET16	-0.274	
249	  CE	2542.287	789.913	-2650.174	C.3	16	MET16	-0.054	
250	   H	2542.845	786.779	-2654.112	 H	16	MET16	0.272	
251	  HA	2543.839	789.140	-2655.377	 H	16	MET16	0.088	
252	 2HB	2545.333	789.332	-2653.321	 H	16	MET16	0.024	
253	 3HB	2544.920	787.690	-2652.858	 H	16	MET16	0.024	
254	 2HG	2542.573	788.330	-2652.414	 H	16	MET16	0.044	
255	 3HG	2542.806	789.946	-2653.111	 H	16	MET16	0.044	
256	 1HE	2541.619	790.568	-2650.763	 H	16	MET16	0.068	
257	 2HE	2541.802	788.927	-2650.066	 H	16	MET16	0.068	
258	 3HE	2542.404	790.352	-2649.168	 H	16	MET16	0.068	
@<TRIPOS>BOND
1 1 2 1
2 1 10 1
3 2 3 1
4 2 5 1
5 2 11 1
6 3 4 2
7 3 16 1
8 5 6 1
9 6 7 1
10 7 8 2
11 7 9 1
12 5 12 1
13 5 13 1
14 6 14 1
15 6 15 1
16 16 17 1
17 16 24 1
18 17 18 1
19 17 20 1
20 17 25 1
21 18 19 2
22 18 30 1
23 20 21 1
24 21 22 1
25 21 23 2
26 20 26 1
27 20 27 1
28 22 28 1
29 22 29 1
30 30 31 1
31 30 36 1
32 31 32 1
33 31 34 1
34 31 37 1
35 32 33 2
36 32 44 1
37 34 35 1
38 35 36 1
39 34 38 1
40 34 39 1
41 35 40 1
42 35 41 1
43 36 42 1
44 36 43 1
45 44 45 1
46 44 53 1
47 45 46 1
48 45 48 1
49 45 54 1
50 46 47 2
51 46 59 1
52 48 49 1
53 49 50 1
54 50 51 2
55 50 52 1
56 48 55 1
57 48 56 1
58 49 57 1
59 49 58 1
60 59 60 1
61 59 65 1
62 60 61 1
63 60 63 1
64 60 66 1
65 61 62 2
66 61 70 1
67 63 64 1
68 63 67 1
69 63 68 1
70 64 69 1
71 70 71 1
72 70 78 1
73 71 72 1
74 71 74 1
75 71 79 1
76 72 73 2
77 72 89 1
78 74 75 1
79 74 76 1
80 75 77 1
81 74 80 1
82 75 81 1
83 75 82 1
84 76 83 1
85 76 84 1
86 76 85 1
87 77 86 1
88 77 87 1
89 77 88 1
90 89 90 1
91 89 97 1
92 90 91 1
93 90 93 1
94 90 98 1
95 91 92 2
96 91 108 1
97 93 94 1
98 94 95 1
99 94 96 1
100 93 99 1
101 93 100 1
102 94 101 1
103 95 102 1
104 95 103 1
105 95 104 1
106 96 105 1
107 96 106 1
108 96 107 1
109 108 109 1
110 108 116 1
111 109 110 1
112 109 112 1
113 109 117 1
114 110 111 2
115 110 120 1
116 112 113 1
117 113 114 2
118 113 115 1
119 112 118 1
120 112 119 1
121 120 121 1
122 120 129 1
123 121 122 1
124 121 124 1
125 121 130 1
126 122 123 2
127 122 135 1
128 124 125 1
129 125 126 1
130 126 127 2
131 126 128 1
132 124 131 1
133 124 132 1
134 125 133 1
135 125 134 1
136 135 136 1
137 135 145 1
138 136 137 1
139 136 139 1
140 136 146 1
141 137 138 2
142 137 152 1
143 139 140 1
144 140 141 2
145 141 144 1
146 140 142 1
147 142 143 2
148 143 144 1
149 139 147 1
150 139 148 1
151 141 149 1
152 143 150 1
153 144 151 1
154 152 153 1
155 152 159 1
156 153 154 1
157 153 156 1
158 153 160 1
159 154 155 2
160 154 168 1
161 156 157 1
162 156 158 1
163 156 161 1
164 157 162 1
165 157 163 1
166 157 164 1
167 158 165 1
168 158 166 1
169 158 167 1
170 168 169 1
171 168 177 1
172 169 170 1
173 169 172 1
174 169 178 1
175 170 171 2
176 170 185 1
177 172 173 1
178 173 174 1
179 174 175 1
180 174 176 2
181 172 179 1
182 172 180 1
183 173 181 1
184 173 182 1
185 175 183 1
186 175 184 1
187 185 186 1
188 185 196 1
189 186 187 1
190 186 189 1
191 186 197 1
192 187 188 2
193 187 209 1
194 189 190 1
195 190 191 1
196 191 192 1
197 192 193 1
198 193 194 2
199 193 195 1
200 189 198 1
201 189 199 1
202 190 200 1
203 190 201 1
204 191 202 1
205 191 203 1
206 192 204 1
207 194 205 1
208 194 206 1
209 195 207 1
210 195 208 1
211 209 210 1
212 209 216 1
213 210 211 1
214 210 213 1
215 210 217 1
216 211 212 2
217 211 225 1
218 213 214 1
219 213 215 1
220 213 218 1
221 214 219 1
222 214 220 1
223 214 221 1
224 215 222 1
225 215 223 1
226 215 224 1
227 225 226 1
228 225 233 1
229 226 227 1
230 226 229 1
231 226 234 1
232 227 228 2
233 227 242 1
234 229 230 1
235 230 231 1
236 231 232 1
237 229 235 1
238 229 236 1
239 230 237 1
240 230 238 1
241 232 239 1
242 232 240 1
243 232 241 1
244 242 243 1
245 242 250 1
246 243 244 1
247 243 246 1
248 243 251 1
249 244 245 2
250 246 247 1
251 247 248 1
252 248 249 1
253 246 252 1
254 246 253 1
255 247 254 1
256 247 255 1
257 249 256 1
258 249 257 1
259 249 258 1
@<TRIPOS>SUBSTRUCTURE
1	GLU1	1	RESIDUE	1 ****	GLU
2	ASN2	16	RESIDUE	1 ****	ASN
3	PRO3	30	RESIDUE	1 ****	PRO
4	GLU4	44	RESIDUE	1 ****	GLU
5	SER5	59	RESIDUE	1 ****	SER
6	ILE6	70	RESIDUE	1 ****	ILE
7	LEU7	89	RESIDUE	1 ****	LEU
8	ASP8	108	RESIDUE	1 ****	ASP
9	GLU9	120	RESIDUE	1 ****	GLU
10	HIS10	135	RESIDUE	1 ****	HIS
11	VAL11	152	RESIDUE	1 ****	VAL
12	GLN12	168	RESIDUE	1 ****	GLN
13	ARG13	185	RESIDUE	1 ****	ARG
14	VAL14	209	RESIDUE	1 ****	VAL
15	MET15	225	RESIDUE	1 ****	MET
16	MET16	242	RESIDUE	1 ****	MET
