@<TRIPOS>MOLECULE
10-18
263 263 16              
SMALL
USER_CHARGES
@<TRIPOS>ATOM
1	   N	1656.577	493.857	-1688.776	N.3	1	GLU1	-0.516	
2	  CA	1657.136	495.206	-1688.776	C.3	1	GLU1	0.040	
3	   C	1658.645	495.166	-1688.776	C.2	1	GLU1	0.537	
4	   O	1659.321	495.865	-1689.544	O.2	1	GLU1	-0.582	
5	  CB	1656.613	495.991	-1687.539	C.3	1	GLU1	0.056	
6	  CG	1657.088	497.476	-1687.428	C.3	1	GLU1	0.014	
7	  CD	1656.664	498.280	-1686.213	C.2	1	GLU1	0.805	
8	 OE1	1655.936	497.778	-1685.335	O.co2	1	GLU1	-0.819	
9	 OE2	1657.094	499.450	-1686.141	O.co2	1	GLU1	-0.819	
10	   H	1657.204	492.978	-1688.776	 H	1	GLU1	0.294	
11	  HA	1656.810	495.724	-1689.696	 H	1	GLU1	0.111	
12	 2HB	1656.902	495.460	-1686.609	 H	1	GLU1	-0.017	
13	 3HB	1655.506	495.981	-1687.526	 H	1	GLU1	-0.017	
14	 2HG	1656.778	498.061	-1688.309	 H	1	GLU1	-0.043	
15	 3HG	1658.188	497.543	-1687.399	 H	1	GLU1	-0.043	
16	   N	1659.250	494.380	-1687.950	N.am	2	ASN2	-0.416	
17	  CA	1660.709	494.341	-1687.950	C.3	2	ASN2	0.014	
18	   C	1661.240	493.986	-1689.319	C.2	2	ASN2	0.597	
19	   O	1662.155	494.616	-1689.848	O.2	2	ASN2	-0.568	
20	  CB	1661.201	493.318	-1686.886	C.3	2	ASN2	-0.204	
21	  CG	1660.738	493.542	-1685.443	C.2	2	ASN2	0.713	
22	 ND2	1661.332	494.457	-1684.725	N.pl3	2	ASN2	-0.919	
23	 OD1	1659.818	492.908	-1684.949	O.2	2	ASN2	-0.593	
24	   H	1658.722	493.800	-1687.314	 H	2	ASN2	0.272	
25	  HA	1661.086	495.351	-1687.705	 H	2	ASN2	0.105	
26	 2HB	1662.306	493.259	-1686.890	 H	2	ASN2	0.080	
27	 3HB	1660.872	492.300	-1687.172	 H	2	ASN2	0.080	
28	1HD2	1660.852	494.630	-1683.838	 H	2	ASN2	0.420	
29	2HD2	1662.034	495.029	-1685.194	 H	2	ASN2	0.420	
30	   N	1660.719	492.991	-1689.953	N.am	3	PRO3	-0.255	
31	  CA	1661.171	492.581	-1691.275	C.3	3	PRO3	-0.027	
32	   C	1660.772	493.605	-1692.352	C.2	3	PRO3	0.590	
33	   O	1661.596	493.988	-1693.183	O.2	3	PRO3	-0.575	
34	  CB	1660.466	491.227	-1691.444	C.3	3	PRO3	-0.007	
35	  CG	1659.183	491.379	-1690.614	C.3	3	PRO3	0.019	
36	  CD	1659.641	492.197	-1689.404	C.3	3	PRO3	0.019	
37	  HA	1662.256	492.461	-1691.289	 H	3	PRO3	0.064	
38	 2HB	1661.089	490.445	-1691.003	 H	3	PRO3	0.025	
39	 3HB	1660.268	490.978	-1692.489	 H	3	PRO3	0.025	
40	 2HG	1658.756	490.416	-1690.323	 H	3	PRO3	0.021	
41	 3HG	1658.446	491.950	-1691.181	 H	3	PRO3	0.021	
42	 2HD	1660.030	491.548	-1688.616	 H	3	PRO3	0.039	
43	 3HD	1658.844	492.833	-1689.011	 H	3	PRO3	0.039	
44	   N	1659.568	494.065	-1692.384	N.am	4	GLU4	-0.516	
45	  CA	1659.208	495.036	-1693.413	C.3	4	GLU4	0.040	
46	   C	1660.107	496.247	-1693.352	C.2	4	GLU4	0.537	
47	   O	1660.633	496.727	-1694.367	O.2	4	GLU4	-0.582	
48	  CB	1657.719	495.454	-1693.243	C.3	4	GLU4	0.056	
49	  CG	1657.171	496.458	-1694.308	C.3	4	GLU4	0.014	
50	  CD	1655.744	496.955	-1694.165	C.2	4	GLU4	0.805	
51	 OE1	1655.018	496.556	-1693.234	O.co2	4	GLU4	-0.819	
52	 OE2	1655.355	497.784	-1695.013	O.co2	4	GLU4	-0.819	
53	   H	1658.884	493.758	-1691.707	 H	4	GLU4	0.294	
54	  HA	1659.339	494.565	-1694.405	 H	4	GLU4	0.111	
55	 2HB	1657.567	495.894	-1692.236	 H	4	GLU4	-0.017	
56	 3HB	1657.072	494.557	-1693.249	 H	4	GLU4	-0.017	
57	 2HG	1657.252	496.043	-1695.326	 H	4	GLU4	-0.043	
58	 3HG	1657.759	497.390	-1694.320	 H	4	GLU4	-0.043	
59	   N	1660.334	496.800	-1692.209	N.am	5	SER5	-0.416	
60	  CA	1661.204	497.971	-1692.151	C.3	5	SER5	-0.025	
61	   C	1662.562	497.666	-1692.737	C.2	5	SER5	0.597	
62	   O	1663.109	498.419	-1693.541	O.2	5	SER5	-0.568	
63	  CB	1661.315	498.503	-1690.700	C.3	5	SER5	0.212	
64	  OG	1662.047	497.624	-1689.839	O.3	5	SER5	-0.655	
65	   H	1659.917	496.428	-1691.368	 H	5	SER5	0.272	
66	  HA	1660.754	498.761	-1692.780	 H	5	SER5	0.084	
67	 2HB	1660.316	498.697	-1690.267	 H	5	SER5	0.035	
68	 3HB	1661.821	499.489	-1690.702	 H	5	SER5	0.035	
69	  HG	1661.558	496.799	-1689.789	 H	5	SER5	0.428	
70	   N	1663.167	496.583	-1692.383	N.am	6	ILE6	-0.416	
71	  CA	1664.480	496.288	-1692.949	C.3	6	ILE6	-0.060	
72	   C	1664.423	496.251	-1694.457	C.2	6	ILE6	0.597	
73	   O	1665.258	496.838	-1695.161	O.2	6	ILE6	-0.568	
74	  CB	1665.080	494.952	-1692.349	C.3	6	ILE6	0.130	
75	 CG1	1665.100	494.889	-1690.788	C.3	6	ILE6	-0.043	
76	 CG2	1666.521	494.650	-1692.865	C.3	6	ILE6	-0.320	
77	 CD1	1665.370	493.500	-1690.173	C.3	6	ILE6	-0.066	
78	   H	1662.739	495.948	-1691.724	 H	6	ILE6	0.272	
79	  HA	1665.154	497.122	-1692.681	 H	6	ILE6	0.087	
80	  HB	1664.422	494.126	-1692.693	 H	6	ILE6	0.019	
81	2HG1	1664.118	495.209	-1690.392	 H	6	ILE6	0.024	
82	3HG1	1665.816	495.631	-1690.383	 H	6	ILE6	0.024	
83	1HG2	1666.580	494.557	-1693.963	 H	6	ILE6	0.088	
84	2HG2	1667.244	495.433	-1692.562	 H	6	ILE6	0.088	
85	3HG2	1666.912	493.688	-1692.486	 H	6	ILE6	0.088	
86	1HD1	1664.642	492.746	-1690.528	 H	6	ILE6	0.019	
87	2HD1	1666.380	493.122	-1690.409	 H	6	ILE6	0.019	
88	3HD1	1665.294	493.530	-1689.071	 H	6	ILE6	0.019	
89	   N	1663.477	495.587	-1695.030	N.am	7	LEU7	-0.416	
90	  CA	1663.422	495.551	-1696.489	C.3	7	LEU7	-0.052	
91	   C	1663.349	496.947	-1697.061	C.2	7	LEU7	0.597	
92	   O	1664.070	497.310	-1698.003	O.2	7	LEU7	-0.568	
93	  CB	1662.219	494.691	-1696.969	C.3	7	LEU7	-0.110	
94	  CG	1662.146	493.212	-1696.503	C.3	7	LEU7	0.353	
95	 CD1	1660.956	492.506	-1697.169	C.3	7	LEU7	-0.412	
96	 CD2	1663.440	492.433	-1696.795	C.3	7	LEU7	-0.412	
97	   H	1662.785	495.100	-1694.479	 H	7	LEU7	0.272	
98	  HA	1664.364	495.111	-1696.863	 H	7	LEU7	0.092	
99	 2HB	1662.196	494.707	-1698.077	 H	7	LEU7	0.046	
100	 3HB	1661.279	495.194	-1696.665	 H	7	LEU7	0.046	
101	  HG	1661.977	493.203	-1695.406	 H	7	LEU7	-0.036	
102	1HD1	1659.999	493.015	-1696.946	 H	7	LEU7	0.100	
103	2HD1	1661.056	492.466	-1698.270	 H	7	LEU7	0.100	
104	3HD1	1660.850	491.465	-1696.813	 H	7	LEU7	0.100	
105	1HD2	1663.715	492.463	-1697.865	 H	7	LEU7	0.100	
106	2HD2	1664.293	492.844	-1696.224	 H	7	LEU7	0.100	
107	3HD2	1663.359	491.370	-1696.499	 H	7	LEU7	0.100	
108	   N	1662.512	497.787	-1696.555	N.am	8	ASP8	-0.516	
109	  CA	1662.442	499.137	-1697.108	C.3	8	ASP8	0.038	
110	   C	1663.788	499.817	-1697.050	C.2	8	ASP8	0.537	
111	   O	1664.261	500.422	-1698.025	O.2	8	ASP8	-0.582	
112	  CB	1661.364	499.976	-1696.365	C.3	8	ASP8	-0.030	
113	  CG	1661.145	501.397	-1696.906	C.2	8	ASP8	0.799	
114	 OD1	1661.209	501.596	-1698.136	O.co2	8	ASP8	-0.801	
115	 OD2	1660.952	502.322	-1696.090	O.co2	8	ASP8	-0.801	
116	   H	1661.914	497.516	-1695.787	 H	8	ASP8	0.294	
117	  HA	1662.159	499.059	-1698.175	 H	8	ASP8	0.088	
118	 2HB	1661.621	500.059	-1695.294	 H	8	ASP8	-0.012	
119	 3HB	1660.385	499.470	-1696.399	 H	8	ASP8	-0.012	
120	   N	1664.468	499.767	-1695.955	N.am	9	GLU9	-0.516	
121	  CA	1665.771	500.424	-1695.900	C.3	9	GLU9	0.040	
122	   C	1666.689	499.897	-1696.976	C.2	9	GLU9	0.537	
123	   O	1667.353	500.652	-1697.701	O.2	9	GLU9	-0.582	
124	  CB	1666.405	500.216	-1694.494	C.3	9	GLU9	0.056	
125	  CG	1667.787	500.909	-1694.265	C.3	9	GLU9	0.014	
126	  CD	1668.489	500.695	-1692.937	C.2	9	GLU9	0.805	
127	 OE1	1667.968	500.003	-1692.041	O.co2	9	GLU9	-0.819	
128	 OE2	1669.608	501.232	-1692.805	O.co2	9	GLU9	-0.819	
129	   H	1664.105	499.280	-1695.148	 H	9	GLU9	0.294	
130	  HA	1665.629	501.506	-1696.074	 H	9	GLU9	0.111	
131	 2HB	1666.518	499.132	-1694.292	 H	9	GLU9	-0.017	
132	 3HB	1665.708	500.569	-1693.710	 H	9	GLU9	-0.017	
133	 2HG	1667.715	501.999	-1694.404	 H	9	GLU9	-0.043	
134	 3HG	1668.534	500.564	-1694.999	 H	9	GLU9	-0.043	
135	   N	1666.785	498.622	-1697.146	N.am	10	GLU10	-0.516	
136	  CA	1667.673	498.112	-1698.187	C.3	10	GLU10	0.040	
137	   C	1667.305	498.678	-1699.537	C.2	10	GLU10	0.537	
138	   O	1668.157	499.144	-1700.308	O.2	10	GLU10	-0.582	
139	  CB	1667.612	496.558	-1698.214	C.3	10	GLU10	0.056	
140	  CG	1668.551	495.860	-1699.250	C.3	10	GLU10	0.014	
141	  CD	1668.495	494.349	-1699.371	C.2	10	GLU10	0.805	
142	 OE1	1667.736	493.676	-1698.647	O.co2	10	GLU10	-0.819	
143	 OE2	1669.233	493.831	-1700.235	O.co2	10	GLU10	-0.819	
144	   H	1666.255	497.986	-1696.568	 H	10	GLU10	0.294	
145	  HA	1668.707	498.428	-1697.956	 H	10	GLU10	0.111	
146	 2HB	1666.570	496.228	-1698.408	 H	10	GLU10	-0.017	
147	 3HB	1667.844	496.153	-1697.210	 H	10	GLU10	-0.017	
148	 2HG	1669.607	496.116	-1699.067	 H	10	GLU10	-0.043	
149	 3HG	1668.337	496.200	-1700.277	 H	10	GLU10	-0.043	
150	   N	1666.067	498.677	-1699.899	N.am	11	VAL11	-0.416	
151	  CA	1665.711	499.225	-1701.205	C.3	11	VAL11	-0.087	
152	   C	1666.175	500.656	-1701.336	C.2	11	VAL11	0.597	
153	   O	1666.775	501.063	-1702.338	O.2	11	VAL11	-0.568	
154	  CB	1664.150	499.118	-1701.424	C.3	11	VAL11	0.299	
155	 CG1	1663.580	499.824	-1702.685	C.3	11	VAL11	-0.319	
156	 CG2	1663.625	497.664	-1701.498	C.3	11	VAL11	-0.319	
157	   H	1665.355	498.303	-1699.288	 H	11	VAL11	0.272	
158	  HA	1666.230	498.644	-1701.988	 H	11	VAL11	0.097	
159	  HB	1663.663	499.597	-1700.547	 H	11	VAL11	-0.030	
160	1HG1	1664.018	499.434	-1703.623	 H	11	VAL11	0.079	
161	2HG1	1662.481	499.717	-1702.766	 H	11	VAL11	0.079	
162	3HG1	1663.758	500.916	-1702.674	 H	11	VAL11	0.079	
163	1HG2	1663.916	497.076	-1700.609	 H	11	VAL11	0.079	
164	2HG2	1662.520	497.627	-1701.540	 H	11	VAL11	0.079	
165	3HG2	1664.007	497.125	-1702.386	 H	11	VAL11	0.079	
166	   N	1665.938	501.480	-1700.372	N.am	12	GLN12	-0.416	
167	  CA	1666.386	502.863	-1700.497	C.3	12	GLN12	-0.003	
168	   C	1667.876	502.932	-1700.736	C.2	12	GLN12	0.597	
169	   O	1668.362	503.642	-1701.614	O.2	12	GLN12	-0.568	
170	  CB	1665.996	503.629	-1699.213	C.3	12	GLN12	-0.004	
171	  CG	1666.355	505.151	-1699.179	C.3	12	GLN12	-0.064	
172	  CD	1666.053	505.962	-1697.913	C.2	12	GLN12	0.695	
173	 NE2	1665.487	505.383	-1696.885	N.pl3	12	GLN12	-0.941	
174	 OE1	1666.355	507.143	-1697.834	O.2	12	GLN12	-0.609	
175	   H	1665.450	501.173	-1699.543	 H	12	GLN12	0.272	
176	  HA	1665.886	503.321	-1701.371	 H	12	GLN12	0.085	
177	 2HB	1666.473	503.127	-1698.345	 H	12	GLN12	0.017	
178	 3HB	1664.906	503.521	-1699.049	 H	12	GLN12	0.017	
179	 2HG	1665.877	505.673	-1700.029	 H	12	GLN12	0.035	
180	 3HG	1667.439	505.293	-1699.345	 H	12	GLN12	0.035	
181	1HE2	1665.380	505.977	-1696.060	 H	12	GLN12	0.425	
182	2HE2	1665.324	504.380	-1696.990	 H	12	GLN12	0.425	
183	   N	1668.661	502.224	-1699.997	N.am	13	ARG13	-0.348	
184	  CA	1670.101	502.291	-1700.228	C.3	13	ARG13	-0.264	
185	   C	1670.437	501.922	-1701.654	C.2	13	ARG13	0.734	
186	   O	1671.205	502.596	-1702.338	O.2	13	ARG13	-0.589	
187	  CB	1670.816	501.351	-1699.217	C.3	13	ARG13	-0.001	
188	  CG	1672.361	501.505	-1699.136	C.3	13	ARG13	0.039	
189	  CD	1672.989	500.516	-1698.141	C.3	13	ARG13	0.049	
190	  NE	1674.466	500.723	-1698.091	N.pl3	13	ARG13	-0.530	
191	  CZ	1675.315	500.031	-1697.338	C.cat	13	ARG13	0.808	
192	 NH1	1674.952	499.065	-1696.542	N.pl3	13	ARG13	-0.863	
193	 NH2	1676.575	500.331	-1697.395	N.pl3	13	ARG13	-0.863	
194	   H	1668.286	501.633	-1699.269	 H	13	ARG13	0.275	
195	  HA	1670.425	503.337	-1700.068	 H	13	ARG13	0.156	
196	 2HB	1670.550	500.301	-1699.458	 H	13	ARG13	0.033	
197	 3HB	1670.391	501.515	-1698.205	 H	13	ARG13	0.033	
198	 2HG	1672.609	502.549	-1698.855	 H	13	ARG13	0.029	
199	 3HG	1672.811	501.351	-1700.139	 H	13	ARG13	0.029	
200	 2HD	1672.745	499.476	-1698.452	 H	13	ARG13	0.069	
201	 3HD	1672.533	500.659	-1697.138	 H	13	ARG13	0.069	
202	  HE	1674.917	501.447	-1698.661	 H	13	ARG13	0.346	
203	1HH1	1673.946	498.878	-1696.545	 H	13	ARG13	0.448	
204	2HH1	1675.665	498.581	-1695.995	 H	13	ARG13	0.448	
205	1HH2	1676.841	501.090	-1698.025	 H	13	ARG13	0.448	
206	2HH2	1677.211	499.789	-1696.808	 H	13	ARG13	0.448	
207	   N	1669.901	500.869	-1702.170	N.am	14	VAL14	-0.416	
208	  CA	1670.225	500.512	-1703.549	C.3	14	VAL14	-0.087	
209	   C	1669.894	501.644	-1704.492	C.2	14	VAL14	0.597	
210	   O	1670.686	502.028	-1705.361	O.2	14	VAL14	-0.568	
211	  CB	1669.453	499.195	-1703.958	C.3	14	VAL14	0.299	
212	 CG1	1669.542	498.780	-1705.452	C.3	14	VAL14	-0.319	
213	 CG2	1669.887	497.942	-1703.160	C.3	14	VAL14	-0.319	
214	   H	1669.267	500.299	-1701.629	 H	14	VAL14	0.272	
215	  HA	1671.314	500.336	-1703.625	 H	14	VAL14	0.097	
216	  HB	1668.377	499.365	-1703.741	 H	14	VAL14	-0.030	
217	1HG1	1670.583	498.604	-1705.782	 H	14	VAL14	0.079	
218	2HG1	1668.969	497.857	-1705.666	 H	14	VAL14	0.079	
219	3HG1	1669.112	499.543	-1706.128	 H	14	VAL14	0.079	
220	1HG2	1669.800	498.098	-1702.069	 H	14	VAL14	0.079	
221	2HG2	1669.251	497.065	-1703.393	 H	14	VAL14	0.079	
222	3HG2	1670.934	497.653	-1703.367	 H	14	VAL14	0.079	
223	   N	1668.749	502.228	-1704.388	N.am	15	MET15	-0.416	
224	  CA	1668.427	503.323	-1705.300	C.3	15	MET15	-0.024	
225	   C	1669.456	504.423	-1705.210	C.2	15	MET15	0.597	
226	   O	1669.958	504.936	-1706.222	O.2	15	MET15	-0.568	
227	  CB	1667.005	503.867	-1704.989	C.3	15	MET15	0.034	
228	  CG	1665.844	502.868	-1705.182	C.3	15	MET15	0.002	
229	  SD	1664.269	503.733	-1705.065	S.3	15	MET15	-0.274	
230	  CE	1663.189	502.302	-1704.931	C.3	15	MET15	-0.054	
231	   H	1668.084	501.934	-1703.687	 H	15	MET15	0.272	
232	  HA	1668.452	502.937	-1706.336	 H	15	MET15	0.088	
233	 2HB	1666.802	504.746	-1705.629	 H	15	MET15	0.024	
234	 3HB	1666.970	504.257	-1703.952	 H	15	MET15	0.024	
235	 2HG	1665.888	502.081	-1704.406	 H	15	MET15	0.044	
236	 3HG	1665.907	502.355	-1706.159	 H	15	MET15	0.044	
237	 1HE	1663.333	501.615	-1705.785	 H	15	MET15	0.068	
238	 2HE	1663.399	501.748	-1703.999	 H	15	MET15	0.068	
239	 3HE	1662.131	502.616	-1704.913	 H	15	MET15	0.068	
240	   N	1669.825	504.842	-1704.047	N.am	16	ARG16	-0.348	
241	  CA	1670.821	505.906	-1703.962	C.3	16	ARG16	-0.264	
242	   C	1672.092	505.516	-1704.680	C.2	16	ARG16	0.734	
243	   O	1672.206	504.441	-1705.263	O.2	16	ARG16	-0.589	
244	  CB	1671.091	506.221	-1702.463	C.3	16	ARG16	-0.001	
245	  CG	1671.916	507.510	-1702.188	C.3	16	ARG16	0.039	
246	  CD	1672.166	507.727	-1700.687	C.3	16	ARG16	0.049	
247	  NE	1672.941	508.986	-1700.484	N.pl3	16	ARG16	-0.530	
248	  CZ	1673.333	509.466	-1699.307	C.cat	16	ARG16	0.808	
249	 NH1	1673.086	508.880	-1698.170	N.pl3	16	ARG16	-0.863	
250	 NH2	1673.996	510.579	-1699.287	N.pl3	16	ARG16	-0.863	
251	   H	1669.431	504.440	-1703.209	 H	16	ARG16	0.275	
252	  HA	1670.411	506.800	-1704.470	 H	16	ARG16	0.156	
253	 2HB	1671.589	505.345	-1701.999	 H	16	ARG16	0.033	
254	 3HB	1670.122	506.301	-1701.929	 H	16	ARG16	0.033	
255	 2HG	1671.384	508.382	-1702.624	 H	16	ARG16	0.029	
256	 3HG	1672.889	507.459	-1702.718	 H	16	ARG16	0.029	
257	 2HD	1672.715	506.852	-1700.275	 H	16	ARG16	0.069	
258	 3HD	1671.193	507.768	-1700.151	 H	16	ARG16	0.069	
259	  HE	1673.219	509.569	-1701.280	 H	16	ARG16	0.346	
260	1HH1	1672.561	508.007	-1698.256	 H	16	ARG16	0.448	
261	2HH1	1673.421	509.314	-1697.308	 H	16	ARG16	0.448	
262	1HH2	1674.181	511.024	-1700.188	 H	16	ARG16	0.448	
263	2HH2	1674.287	510.933	-1698.374	 H	16	ARG16	0.448	
@<TRIPOS>BOND
1 1 2 1
2 1 10 1
3 2 3 1
4 2 5 1
5 2 11 1
6 3 4 2
7 3 16 1
8 5 6 1
9 6 7 1
10 7 8 2
11 7 9 1
12 5 12 1
13 5 13 1
14 6 14 1
15 6 15 1
16 16 17 1
17 16 24 1
18 17 18 1
19 17 20 1
20 17 25 1
21 18 19 2
22 18 30 1
23 20 21 1
24 21 22 1
25 21 23 2
26 20 26 1
27 20 27 1
28 22 28 1
29 22 29 1
30 30 31 1
31 30 36 1
32 31 32 1
33 31 34 1
34 31 37 1
35 32 33 2
36 32 44 1
37 34 35 1
38 35 36 1
39 34 38 1
40 34 39 1
41 35 40 1
42 35 41 1
43 36 42 1
44 36 43 1
45 44 45 1
46 44 53 1
47 45 46 1
48 45 48 1
49 45 54 1
50 46 47 2
51 46 59 1
52 48 49 1
53 49 50 1
54 50 51 2
55 50 52 1
56 48 55 1
57 48 56 1
58 49 57 1
59 49 58 1
60 59 60 1
61 59 65 1
62 60 61 1
63 60 63 1
64 60 66 1
65 61 62 2
66 61 70 1
67 63 64 1
68 63 67 1
69 63 68 1
70 64 69 1
71 70 71 1
72 70 78 1
73 71 72 1
74 71 74 1
75 71 79 1
76 72 73 2
77 72 89 1
78 74 75 1
79 74 76 1
80 75 77 1
81 74 80 1
82 75 81 1
83 75 82 1
84 76 83 1
85 76 84 1
86 76 85 1
87 77 86 1
88 77 87 1
89 77 88 1
90 89 90 1
91 89 97 1
92 90 91 1
93 90 93 1
94 90 98 1
95 91 92 2
96 91 108 1
97 93 94 1
98 94 95 1
99 94 96 1
100 93 99 1
101 93 100 1
102 94 101 1
103 95 102 1
104 95 103 1
105 95 104 1
106 96 105 1
107 96 106 1
108 96 107 1
109 108 109 1
110 108 116 1
111 109 110 1
112 109 112 1
113 109 117 1
114 110 111 2
115 110 120 1
116 112 113 1
117 113 114 2
118 113 115 1
119 112 118 1
120 112 119 1
121 120 121 1
122 120 129 1
123 121 122 1
124 121 124 1
125 121 130 1
126 122 123 2
127 122 135 1
128 124 125 1
129 125 126 1
130 126 127 2
131 126 128 1
132 124 131 1
133 124 132 1
134 125 133 1
135 125 134 1
136 135 136 1
137 135 144 1
138 136 137 1
139 136 139 1
140 136 145 1
141 137 138 2
142 137 150 1
143 139 140 1
144 140 141 1
145 141 142 2
146 141 143 1
147 139 146 1
148 139 147 1
149 140 148 1
150 140 149 1
151 150 151 1
152 150 157 1
153 151 152 1
154 151 154 1
155 151 158 1
156 152 153 2
157 152 166 1
158 154 155 1
159 154 156 1
160 154 159 1
161 155 160 1
162 155 161 1
163 155 162 1
164 156 163 1
165 156 164 1
166 156 165 1
167 166 167 1
168 166 175 1
169 167 168 1
170 167 170 1
171 167 176 1
172 168 169 2
173 168 183 1
174 170 171 1
175 171 172 1
176 172 173 1
177 172 174 2
178 170 177 1
179 170 178 1
180 171 179 1
181 171 180 1
182 173 181 1
183 173 182 1
184 183 184 1
185 183 194 1
186 184 185 1
187 184 187 1
188 184 195 1
189 185 186 2
190 185 207 1
191 187 188 1
192 188 189 1
193 189 190 1
194 190 191 1
195 191 192 2
196 191 193 1
197 187 196 1
198 187 197 1
199 188 198 1
200 188 199 1
201 189 200 1
202 189 201 1
203 190 202 1
204 192 203 1
205 192 204 1
206 193 205 1
207 193 206 1
208 207 208 1
209 207 214 1
210 208 209 1
211 208 211 1
212 208 215 1
213 209 210 2
214 209 223 1
215 211 212 1
216 211 213 1
217 211 216 1
218 212 217 1
219 212 218 1
220 212 219 1
221 213 220 1
222 213 221 1
223 213 222 1
224 223 224 1
225 223 231 1
226 224 225 1
227 224 227 1
228 224 232 1
229 225 226 2
230 225 240 1
231 227 228 1
232 228 229 1
233 229 230 1
234 227 233 1
235 227 234 1
236 228 235 1
237 228 236 1
238 230 237 1
239 230 238 1
240 230 239 1
241 240 241 1
242 240 251 1
243 241 242 1
244 241 244 1
245 241 252 1
246 242 243 2
247 244 245 1
248 245 246 1
249 246 247 1
250 247 248 1
251 248 249 2
252 248 250 1
253 244 253 1
254 244 254 1
255 245 255 1
256 245 256 1
257 246 257 1
258 246 258 1
259 247 259 1
260 249 260 1
261 249 261 1
262 250 262 1
263 250 263 1
@<TRIPOS>SUBSTRUCTURE
1	GLU1	1	RESIDUE	1 ****	GLU
2	ASN2	16	RESIDUE	1 ****	ASN
3	PRO3	30	RESIDUE	1 ****	PRO
4	GLU4	44	RESIDUE	1 ****	GLU
5	SER5	59	RESIDUE	1 ****	SER
6	ILE6	70	RESIDUE	1 ****	ILE
7	LEU7	89	RESIDUE	1 ****	LEU
8	ASP8	108	RESIDUE	1 ****	ASP
9	GLU9	120	RESIDUE	1 ****	GLU
10	GLU10	135	RESIDUE	1 ****	GLU
11	VAL11	150	RESIDUE	1 ****	VAL
12	GLN12	166	RESIDUE	1 ****	GLN
13	ARG13	183	RESIDUE	1 ****	ARG
14	VAL14	207	RESIDUE	1 ****	VAL
15	MET15	223	RESIDUE	1 ****	MET
16	ARG16	240	RESIDUE	1 ****	ARG
