@<TRIPOS>MOLECULE
16-17
253 254 16              
SMALL
USER_CHARGES
@<TRIPOS>ATOM
1	   N	2625.453	804.557	-2745.721	N.3	1	GLU1	-0.516	
2	  CA	2626.012	805.906	-2745.721	C.3	1	GLU1	0.040	
3	   C	2627.521	805.866	-2745.721	C.2	1	GLU1	0.537	
4	   O	2628.197	806.565	-2746.490	O.2	1	GLU1	-0.582	
5	  CB	2625.489	806.691	-2744.484	C.3	1	GLU1	0.056	
6	  CG	2625.964	808.176	-2744.373	C.3	1	GLU1	0.014	
7	  CD	2625.540	808.980	-2743.158	C.2	1	GLU1	0.805	
8	 OE1	2624.812	808.478	-2742.280	O.co2	1	GLU1	-0.819	
9	 OE2	2625.970	810.150	-2743.086	O.co2	1	GLU1	-0.819	
10	   H	2626.080	803.678	-2745.721	 H	1	GLU1	0.294	
11	  HA	2625.686	806.424	-2746.641	 H	1	GLU1	0.111	
12	 2HB	2625.778	806.160	-2743.554	 H	1	GLU1	-0.017	
13	 3HB	2624.382	806.681	-2744.471	 H	1	GLU1	-0.017	
14	 2HG	2625.654	808.761	-2745.254	 H	1	GLU1	-0.043	
15	 3HG	2627.064	808.243	-2744.344	 H	1	GLU1	-0.043	
16	   N	2628.125	805.080	-2744.896	N.am	2	ASN2	-0.416	
17	  CA	2629.584	805.041	-2744.896	C.3	2	ASN2	0.014	
18	   C	2630.116	804.685	-2746.264	C.2	2	ASN2	0.597	
19	   O	2631.031	805.316	-2746.792	O.2	2	ASN2	-0.568	
20	  CB	2630.076	804.018	-2743.831	C.3	2	ASN2	-0.204	
21	  CG	2629.613	804.242	-2742.388	C.2	2	ASN2	0.713	
22	 ND2	2630.207	805.157	-2741.669	N.pl3	2	ASN2	-0.919	
23	 OD1	2628.692	803.609	-2741.894	O.2	2	ASN2	-0.593	
24	   H	2627.597	804.500	-2744.259	 H	2	ASN2	0.272	
25	  HA	2629.962	806.051	-2744.650	 H	2	ASN2	0.105	
26	 2HB	2631.180	803.959	-2743.834	 H	2	ASN2	0.080	
27	 3HB	2629.747	803.000	-2744.117	 H	2	ASN2	0.080	
28	1HD2	2629.726	805.330	-2740.783	 H	2	ASN2	0.420	
29	2HD2	2630.909	805.728	-2742.138	 H	2	ASN2	0.420	
30	   N	2629.594	803.691	-2746.898	N.am	3	PRO3	-0.255	
31	  CA	2630.047	803.281	-2748.220	C.3	3	PRO3	-0.027	
32	   C	2629.649	804.305	-2749.297	C.2	3	PRO3	0.590	
33	   O	2630.472	804.688	-2750.128	O.2	3	PRO3	-0.575	
34	  CB	2629.342	801.927	-2748.389	C.3	3	PRO3	-0.007	
35	  CG	2628.059	802.079	-2747.560	C.3	3	PRO3	0.019	
36	  CD	2628.516	802.898	-2746.350	C.3	3	PRO3	0.019	
37	  HA	2631.133	803.161	-2748.233	 H	3	PRO3	0.064	
38	 2HB	2629.965	801.146	-2747.948	 H	3	PRO3	0.025	
39	 3HB	2629.144	801.678	-2749.435	 H	3	PRO3	0.025	
40	 2HG	2627.631	801.117	-2747.269	 H	3	PRO3	0.021	
41	 3HG	2627.322	802.650	-2748.127	 H	3	PRO3	0.021	
42	 2HD	2628.905	802.248	-2745.562	 H	3	PRO3	0.039	
43	 3HD	2627.719	803.534	-2745.957	 H	3	PRO3	0.039	
44	   N	2628.444	804.765	-2749.330	N.am	4	GLU4	-0.516	
45	  CA	2628.085	805.736	-2750.359	C.3	4	GLU4	0.040	
46	   C	2628.984	806.947	-2750.298	C.2	4	GLU4	0.537	
47	   O	2629.511	807.426	-2751.312	O.2	4	GLU4	-0.582	
48	  CB	2626.596	806.155	-2750.190	C.3	4	GLU4	0.056	
49	  CG	2626.049	807.159	-2751.255	C.3	4	GLU4	0.014	
50	  CD	2624.623	807.656	-2751.112	C.2	4	GLU4	0.805	
51	 OE1	2623.896	807.258	-2750.182	O.co2	4	GLU4	-0.819	
52	 OE2	2624.234	808.485	-2751.961	O.co2	4	GLU4	-0.819	
53	   H	2627.760	804.459	-2748.653	 H	4	GLU4	0.294	
54	  HA	2628.217	805.266	-2751.351	 H	4	GLU4	0.111	
55	 2HB	2626.444	806.595	-2749.183	 H	4	GLU4	-0.017	
56	 3HB	2625.948	805.258	-2750.196	 H	4	GLU4	-0.017	
57	 2HG	2626.131	806.744	-2752.273	 H	4	GLU4	-0.043	
58	 3HG	2626.637	808.091	-2751.266	 H	4	GLU4	-0.043	
59	   N	2629.211	807.500	-2749.155	N.am	5	SER5	-0.416	
60	  CA	2630.081	808.671	-2749.096	C.3	5	SER5	-0.025	
61	   C	2631.440	808.365	-2749.681	C.2	5	SER5	0.597	
62	   O	2631.988	809.118	-2750.486	O.2	5	SER5	-0.568	
63	  CB	2630.192	809.203	-2747.645	C.3	5	SER5	0.212	
64	  OG	2630.923	808.323	-2746.784	O.3	5	SER5	-0.655	
65	   H	2628.794	807.128	-2748.313	 H	5	SER5	0.272	
66	  HA	2629.632	809.461	-2749.725	 H	5	SER5	0.084	
67	 2HB	2629.192	809.397	-2747.212	 H	5	SER5	0.035	
68	 3HB	2630.698	810.188	-2747.647	 H	5	SER5	0.035	
69	  HG	2630.434	807.498	-2746.733	 H	5	SER5	0.428	
70	   N	2632.044	807.281	-2749.327	N.am	6	ILE6	-0.416	
71	  CA	2633.357	806.986	-2749.893	C.3	6	ILE6	-0.060	
72	   C	2633.300	806.948	-2751.400	C.2	6	ILE6	0.597	
73	   O	2634.135	807.535	-2752.104	O.2	6	ILE6	-0.568	
74	  CB	2633.957	805.649	-2749.292	C.3	6	ILE6	0.130	
75	 CG1	2633.975	805.587	-2747.731	C.3	6	ILE6	-0.043	
76	 CG2	2635.398	805.347	-2749.807	C.3	6	ILE6	-0.320	
77	 CD1	2634.245	804.198	-2747.116	C.3	6	ILE6	-0.066	
78	   H	2631.615	806.647	-2748.668	 H	6	ILE6	0.272	
79	  HA	2634.032	807.820	-2749.625	 H	6	ILE6	0.087	
80	  HB	2633.298	804.824	-2749.637	 H	6	ILE6	0.019	
81	2HG1	2632.993	805.907	-2747.336	 H	6	ILE6	0.024	
82	3HG1	2634.691	806.329	-2747.326	 H	6	ILE6	0.024	
83	1HG2	2635.457	805.254	-2750.906	 H	6	ILE6	0.088	
84	2HG2	2636.120	806.129	-2749.505	 H	6	ILE6	0.088	
85	3HG2	2635.787	804.385	-2749.428	 H	6	ILE6	0.088	
86	1HD1	2633.516	803.444	-2747.471	 H	6	ILE6	0.019	
87	2HD1	2635.255	803.819	-2747.352	 H	6	ILE6	0.019	
88	3HD1	2634.168	804.228	-2746.014	 H	6	ILE6	0.019	
89	   N	2632.354	806.285	-2751.974	N.am	7	LEU7	-0.416	
90	  CA	2632.299	806.249	-2753.432	C.3	7	LEU7	-0.052	
91	   C	2632.227	807.644	-2754.005	C.2	7	LEU7	0.597	
92	   O	2632.948	808.006	-2754.948	O.2	7	LEU7	-0.568	
93	  CB	2631.096	805.389	-2753.913	C.3	7	LEU7	-0.110	
94	  CG	2631.023	803.910	-2753.446	C.3	7	LEU7	0.353	
95	 CD1	2629.833	803.204	-2754.112	C.3	7	LEU7	-0.412	
96	 CD2	2632.316	803.130	-2753.738	C.3	7	LEU7	-0.412	
97	   H	2631.662	805.798	-2751.423	 H	7	LEU7	0.272	
98	  HA	2633.241	805.809	-2753.807	 H	7	LEU7	0.092	
99	 2HB	2631.073	805.405	-2755.021	 H	7	LEU7	0.046	
100	 3HB	2630.156	805.892	-2753.609	 H	7	LEU7	0.046	
101	  HG	2630.853	803.902	-2752.349	 H	7	LEU7	-0.036	
102	1HD1	2628.875	803.713	-2753.889	 H	7	LEU7	0.100	
103	2HD1	2629.932	803.164	-2755.213	 H	7	LEU7	0.100	
104	3HD1	2629.725	802.163	-2753.756	 H	7	LEU7	0.100	
105	1HD2	2632.591	803.160	-2754.808	 H	7	LEU7	0.100	
106	2HD2	2633.169	803.541	-2753.166	 H	7	LEU7	0.100	
107	3HD2	2632.234	802.068	-2753.442	 H	7	LEU7	0.100	
108	   N	2631.390	808.485	-2753.500	N.am	8	ASP8	-0.516	
109	  CA	2631.321	809.835	-2754.053	C.3	8	ASP8	0.038	
110	   C	2632.668	810.514	-2753.997	C.2	8	ASP8	0.537	
111	   O	2633.141	811.118	-2754.972	O.2	8	ASP8	-0.582	
112	  CB	2630.243	810.675	-2753.312	C.3	8	ASP8	-0.030	
113	  CG	2630.025	812.095	-2753.854	C.2	8	ASP8	0.799	
114	 OD1	2630.089	812.293	-2755.085	O.co2	8	ASP8	-0.801	
115	 OD2	2629.833	813.022	-2753.039	O.co2	8	ASP8	-0.801	
116	   H	2630.792	808.215	-2752.732	 H	8	ASP8	0.294	
117	  HA	2631.038	809.756	-2755.121	 H	8	ASP8	0.088	
118	 2HB	2630.500	810.758	-2752.241	 H	8	ASP8	-0.012	
119	 3HB	2629.264	810.170	-2753.345	 H	8	ASP8	-0.012	
120	   N	2633.348	810.464	-2752.902	N.am	9	GLU9	-0.516	
121	  CA	2634.651	811.121	-2752.847	C.3	9	GLU9	0.040	
122	   C	2635.568	810.593	-2753.923	C.2	9	GLU9	0.537	
123	   O	2636.232	811.346	-2754.649	O.2	9	GLU9	-0.582	
124	  CB	2635.284	810.914	-2751.442	C.3	9	GLU9	0.056	
125	  CG	2636.667	811.606	-2751.213	C.3	9	GLU9	0.014	
126	  CD	2637.369	811.393	-2749.885	C.2	9	GLU9	0.805	
127	 OE1	2636.848	810.702	-2748.988	O.co2	9	GLU9	-0.819	
128	 OE2	2638.489	811.930	-2749.753	O.co2	9	GLU9	-0.819	
129	   H	2632.984	809.978	-2752.094	 H	9	GLU9	0.294	
130	  HA	2634.509	812.203	-2753.023	 H	9	GLU9	0.111	
131	 2HB	2635.397	809.829	-2751.238	 H	9	GLU9	-0.017	
132	 3HB	2634.588	811.268	-2750.657	 H	9	GLU9	-0.017	
133	 2HG	2636.596	812.696	-2751.353	 H	9	GLU9	-0.043	
134	 3HG	2637.414	811.260	-2751.947	 H	9	GLU9	-0.043	
135	   N	2635.664	809.317	-2754.092	N.am	10	HIS10	-0.416	
136	  CA	2636.552	808.805	-2755.132	C.3	10	HIS10	-0.058	
137	   C	2636.185	809.369	-2756.483	C.2	10	HIS10	0.597	
138	   O	2637.037	809.833	-2757.256	O.2	10	HIS10	-0.568	
139	  CB	2636.387	807.276	-2755.126	C.3	10	HIS10	-0.007	
140	  CG	2637.672	806.565	-2754.818	C.2	10	HIS10	0.187	
141	 CD2	2638.054	806.231	-2753.526	C.2	10	HIS10	-0.221	
142	 ND1	2638.624	806.159	-2755.751	N.2	10	HIS10	-0.543	
143	 CE1	2639.530	805.601	-2754.928	C.2	10	HIS10	0.163	
144	 NE2	2639.268	805.598	-2753.593	N.pl3	10	HIS10	-0.280	
145	   H	2635.134	808.682	-2753.513	 H	10	HIS10	0.272	
146	  HA	2637.571	809.162	-2754.908	 H	10	HIS10	0.136	
147	 2HB	2636.021	806.909	-2756.106	 H	10	HIS10	0.037	
148	 3HB	2635.631	806.940	-2754.386	 H	10	HIS10	0.037	
149	 2HD	2637.469	806.446	-2752.637	 H	10	HIS10	0.186	
150	 1HE	2640.421	805.179	-2755.375	 H	10	HIS10	0.144	
151	 2HE	2639.835	805.221	-2752.819	 H	10	HIS10	0.334	
152	   N	2634.947	809.369	-2756.846	N.am	11	VAL11	-0.416	
153	  CA	2634.592	809.914	-2758.153	C.3	11	VAL11	-0.087	
154	   C	2635.057	811.344	-2758.287	C.2	11	VAL11	0.597	
155	   O	2635.658	811.749	-2759.290	O.2	11	VAL11	-0.568	
156	  CB	2633.030	809.808	-2758.372	C.3	11	VAL11	0.299	
157	 CG1	2632.462	810.512	-2759.635	C.3	11	VAL11	-0.319	
158	 CG2	2632.505	808.354	-2758.444	C.3	11	VAL11	-0.319	
159	   H	2634.234	808.996	-2756.235	 H	11	VAL11	0.272	
160	  HA	2635.111	809.331	-2758.936	 H	11	VAL11	0.097	
161	  HB	2632.543	810.289	-2757.497	 H	11	VAL11	-0.030	
162	1HG1	2632.900	810.119	-2760.572	 H	11	VAL11	0.079	
163	2HG1	2631.363	810.405	-2759.717	 H	11	VAL11	0.079	
164	3HG1	2632.641	811.604	-2759.627	 H	11	VAL11	0.079	
165	1HG2	2632.795	807.767	-2757.553	 H	11	VAL11	0.079	
166	2HG2	2631.399	808.318	-2758.487	 H	11	VAL11	0.079	
167	3HG2	2632.886	807.813	-2759.331	 H	11	VAL11	0.079	
168	   N	2634.821	812.171	-2757.324	N.am	12	GLN12	-0.416	
169	  CA	2635.270	813.553	-2757.452	C.3	12	GLN12	-0.003	
170	   C	2636.760	813.620	-2757.691	C.2	12	GLN12	0.597	
171	   O	2637.247	814.327	-2758.570	O.2	12	GLN12	-0.568	
172	  CB	2634.879	814.322	-2756.170	C.3	12	GLN12	-0.004	
173	  CG	2635.241	815.843	-2756.140	C.3	12	GLN12	-0.064	
174	  CD	2634.939	816.658	-2754.875	C.2	12	GLN12	0.695	
175	 NE2	2634.372	816.082	-2753.846	N.pl3	12	GLN12	-0.941	
176	 OE1	2635.242	817.838	-2754.799	O.2	12	GLN12	-0.609	
177	   H	2634.332	811.865	-2756.495	 H	12	GLN12	0.272	
178	  HA	2634.770	814.009	-2758.328	 H	12	GLN12	0.085	
179	 2HB	2635.355	813.822	-2755.301	 H	12	GLN12	0.017	
180	 3HB	2633.789	814.215	-2756.007	 H	12	GLN12	0.017	
181	 2HG	2634.763	816.364	-2756.991	 H	12	GLN12	0.035	
182	 3HG	2636.324	815.985	-2756.306	 H	12	GLN12	0.035	
183	1HE2	2634.266	816.677	-2753.023	 H	12	GLN12	0.425	
184	2HE2	2634.208	815.079	-2753.949	 H	12	GLN12	0.425	
185	   N	2637.544	812.913	-2756.949	N.am	13	ARG13	-0.348	
186	  CA	2638.984	812.978	-2757.181	C.3	13	ARG13	-0.264	
187	   C	2639.320	812.606	-2758.605	C.2	13	ARG13	0.734	
188	   O	2640.089	813.277	-2759.290	O.2	13	ARG13	-0.589	
189	  CB	2639.698	812.040	-2756.166	C.3	13	ARG13	-0.001	
190	  CG	2641.243	812.193	-2756.086	C.3	13	ARG13	0.039	
191	  CD	2641.870	811.205	-2755.088	C.3	13	ARG13	0.049	
192	  NE	2643.347	811.412	-2755.038	N.pl3	13	ARG13	-0.530	
193	  CZ	2644.195	810.721	-2754.282	C.cat	13	ARG13	0.808	
194	 NH1	2643.830	809.757	-2753.484	N.pl3	13	ARG13	-0.863	
195	 NH2	2645.455	811.019	-2754.340	N.pl3	13	ARG13	-0.863	
196	   H	2637.168	812.324	-2756.220	 H	13	ARG13	0.275	
197	  HA	2639.309	814.024	-2757.023	 H	13	ARG13	0.156	
198	 2HB	2639.431	810.989	-2756.405	 H	13	ARG13	0.033	
199	 3HB	2639.273	812.207	-2755.156	 H	13	ARG13	0.033	
200	 2HG	2641.491	813.237	-2755.807	 H	13	ARG13	0.029	
201	 3HG	2641.693	812.035	-2757.087	 H	13	ARG13	0.029	
202	 2HD	2641.625	810.165	-2755.396	 H	13	ARG13	0.069	
203	 3HD	2641.414	811.352	-2754.085	 H	13	ARG13	0.069	
204	  HE	2643.798	812.134	-2755.609	 H	13	ARG13	0.346	
205	1HH1	2642.824	809.571	-2753.487	 H	13	ARG13	0.448	
206	2HH1	2644.543	809.274	-2752.935	 H	13	ARG13	0.448	
207	1HH2	2645.722	811.777	-2754.971	 H	13	ARG13	0.448	
208	2HH2	2646.090	810.478	-2753.751	 H	13	ARG13	0.448	
209	   N	2638.783	811.551	-2759.119	N.am	14	VAL14	-0.416	
210	  CA	2639.108	811.191	-2760.497	C.3	14	VAL14	-0.087	
211	   C	2638.778	812.320	-2761.443	C.2	14	VAL14	0.597	
212	   O	2639.571	812.702	-2762.312	O.2	14	VAL14	-0.568	
213	  CB	2638.335	809.874	-2760.903	C.3	14	VAL14	0.299	
214	 CG1	2638.424	809.454	-2762.396	C.3	14	VAL14	-0.319	
215	 CG2	2638.767	808.622	-2760.102	C.3	14	VAL14	-0.319	
216	   H	2638.148	810.983	-2758.577	 H	14	VAL14	0.272	
217	  HA	2640.196	811.013	-2760.572	 H	14	VAL14	0.097	
218	  HB	2637.259	810.045	-2760.686	 H	14	VAL14	-0.030	
219	1HG1	2639.465	809.277	-2762.725	 H	14	VAL14	0.079	
220	2HG1	2637.850	808.531	-2762.608	 H	14	VAL14	0.079	
221	3HG1	2637.995	810.216	-2763.074	 H	14	VAL14	0.079	
222	1HG2	2638.680	808.781	-2759.011	 H	14	VAL14	0.079	
223	2HG2	2638.130	807.745	-2760.333	 H	14	VAL14	0.079	
224	3HG2	2639.814	808.331	-2760.307	 H	14	VAL14	0.079	
225	   N	2637.634	812.907	-2761.341	N.am	15	MET15	-0.416	
226	  CA	2637.313	813.999	-2762.255	C.3	15	MET15	-0.024	
227	   C	2638.344	815.099	-2762.167	C.2	15	MET15	0.597	
228	   O	2638.846	815.609	-2763.180	O.2	15	MET15	-0.568	
229	  CB	2635.892	814.545	-2761.946	C.3	15	MET15	0.034	
230	  CG	2634.729	813.547	-2762.137	C.3	15	MET15	0.002	
231	  SD	2633.156	814.413	-2762.022	S.3	15	MET15	-0.274	
232	  CE	2632.075	812.984	-2761.885	C.3	15	MET15	-0.054	
233	   H	2636.969	812.614	-2760.639	 H	15	MET15	0.272	
234	  HA	2637.339	813.611	-2763.290	 H	15	MET15	0.088	
235	 2HB	2635.689	815.424	-2762.588	 H	15	MET15	0.024	
236	 3HB	2635.856	814.938	-2760.909	 H	15	MET15	0.024	
237	 2HG	2634.773	812.761	-2761.359	 H	15	MET15	0.044	
238	 3HG	2634.792	813.031	-2763.113	 H	15	MET15	0.044	
239	 1HE	2632.218	812.295	-2762.737	 H	15	MET15	0.068	
240	 2HE	2632.284	812.431	-2760.952	 H	15	MET15	0.068	
241	 3HE	2631.017	813.299	-2761.868	 H	15	MET15	0.068	
242	   N	2638.712	815.520	-2761.005	N.am	16	ASP16	-0.516	
243	  CA	2639.709	816.584	-2760.922	C.3	16	ASP16	0.038	
244	   C	2640.980	816.194	-2761.637	C.2	16	ASP16	0.537	
245	   O	2641.104	815.097	-2762.205	O.2	16	ASP16	-0.582	
246	  CB	2639.996	816.949	-2759.438	C.3	16	ASP16	-0.030	
247	  CG	2640.979	818.109	-2759.221	C.2	16	ASP16	0.799	
248	 OD1	2640.956	819.080	-2760.005	O.co2	16	ASP16	-0.801	
249	 OD2	2641.806	818.024	-2758.290	O.co2	16	ASP16	-0.801	
250	   H	2638.318	815.121	-2760.166	 H	16	ASP16	0.294	
251	  HA	2639.306	817.478	-2761.435	 H	16	ASP16	0.088	
252	 2HB	2640.392	816.067	-2758.902	 H	16	ASP16	-0.012	
253	 3HB	2639.065	817.222	-2758.916	 H	16	ASP16	-0.012	
@<TRIPOS>BOND
1 1 2 1
2 1 10 1
3 2 3 1
4 2 5 1
5 2 11 1
6 3 4 2
7 3 16 1
8 5 6 1
9 6 7 1
10 7 8 2
11 7 9 1
12 5 12 1
13 5 13 1
14 6 14 1
15 6 15 1
16 16 17 1
17 16 24 1
18 17 18 1
19 17 20 1
20 17 25 1
21 18 19 2
22 18 30 1
23 20 21 1
24 21 22 1
25 21 23 2
26 20 26 1
27 20 27 1
28 22 28 1
29 22 29 1
30 30 31 1
31 30 36 1
32 31 32 1
33 31 34 1
34 31 37 1
35 32 33 2
36 32 44 1
37 34 35 1
38 35 36 1
39 34 38 1
40 34 39 1
41 35 40 1
42 35 41 1
43 36 42 1
44 36 43 1
45 44 45 1
46 44 53 1
47 45 46 1
48 45 48 1
49 45 54 1
50 46 47 2
51 46 59 1
52 48 49 1
53 49 50 1
54 50 51 2
55 50 52 1
56 48 55 1
57 48 56 1
58 49 57 1
59 49 58 1
60 59 60 1
61 59 65 1
62 60 61 1
63 60 63 1
64 60 66 1
65 61 62 2
66 61 70 1
67 63 64 1
68 63 67 1
69 63 68 1
70 64 69 1
71 70 71 1
72 70 78 1
73 71 72 1
74 71 74 1
75 71 79 1
76 72 73 2
77 72 89 1
78 74 75 1
79 74 76 1
80 75 77 1
81 74 80 1
82 75 81 1
83 75 82 1
84 76 83 1
85 76 84 1
86 76 85 1
87 77 86 1
88 77 87 1
89 77 88 1
90 89 90 1
91 89 97 1
92 90 91 1
93 90 93 1
94 90 98 1
95 91 92 2
96 91 108 1
97 93 94 1
98 94 95 1
99 94 96 1
100 93 99 1
101 93 100 1
102 94 101 1
103 95 102 1
104 95 103 1
105 95 104 1
106 96 105 1
107 96 106 1
108 96 107 1
109 108 109 1
110 108 116 1
111 109 110 1
112 109 112 1
113 109 117 1
114 110 111 2
115 110 120 1
116 112 113 1
117 113 114 2
118 113 115 1
119 112 118 1
120 112 119 1
121 120 121 1
122 120 129 1
123 121 122 1
124 121 124 1
125 121 130 1
126 122 123 2
127 122 135 1
128 124 125 1
129 125 126 1
130 126 127 2
131 126 128 1
132 124 131 1
133 124 132 1
134 125 133 1
135 125 134 1
136 135 136 1
137 135 145 1
138 136 137 1
139 136 139 1
140 136 146 1
141 137 138 2
142 137 152 1
143 139 140 1
144 140 141 2
145 141 144 1
146 140 142 1
147 142 143 2
148 143 144 1
149 139 147 1
150 139 148 1
151 141 149 1
152 143 150 1
153 144 151 1
154 152 153 1
155 152 159 1
156 153 154 1
157 153 156 1
158 153 160 1
159 154 155 2
160 154 168 1
161 156 157 1
162 156 158 1
163 156 161 1
164 157 162 1
165 157 163 1
166 157 164 1
167 158 165 1
168 158 166 1
169 158 167 1
170 168 169 1
171 168 177 1
172 169 170 1
173 169 172 1
174 169 178 1
175 170 171 2
176 170 185 1
177 172 173 1
178 173 174 1
179 174 175 1
180 174 176 2
181 172 179 1
182 172 180 1
183 173 181 1
184 173 182 1
185 175 183 1
186 175 184 1
187 185 186 1
188 185 196 1
189 186 187 1
190 186 189 1
191 186 197 1
192 187 188 2
193 187 209 1
194 189 190 1
195 190 191 1
196 191 192 1
197 192 193 1
198 193 194 2
199 193 195 1
200 189 198 1
201 189 199 1
202 190 200 1
203 190 201 1
204 191 202 1
205 191 203 1
206 192 204 1
207 194 205 1
208 194 206 1
209 195 207 1
210 195 208 1
211 209 210 1
212 209 216 1
213 210 211 1
214 210 213 1
215 210 217 1
216 211 212 2
217 211 225 1
218 213 214 1
219 213 215 1
220 213 218 1
221 214 219 1
222 214 220 1
223 214 221 1
224 215 222 1
225 215 223 1
226 215 224 1
227 225 226 1
228 225 233 1
229 226 227 1
230 226 229 1
231 226 234 1
232 227 228 2
233 227 242 1
234 229 230 1
235 230 231 1
236 231 232 1
237 229 235 1
238 229 236 1
239 230 237 1
240 230 238 1
241 232 239 1
242 232 240 1
243 232 241 1
244 242 243 1
245 242 250 1
246 243 244 1
247 243 246 1
248 243 251 1
249 244 245 2
250 246 247 1
251 247 248 2
252 247 249 1
253 246 252 1
254 246 253 1
@<TRIPOS>SUBSTRUCTURE
1	GLU1	1	RESIDUE	1 ****	GLU
2	ASN2	16	RESIDUE	1 ****	ASN
3	PRO3	30	RESIDUE	1 ****	PRO
4	GLU4	44	RESIDUE	1 ****	GLU
5	SER5	59	RESIDUE	1 ****	SER
6	ILE6	70	RESIDUE	1 ****	ILE
7	LEU7	89	RESIDUE	1 ****	LEU
8	ASP8	108	RESIDUE	1 ****	ASP
9	GLU9	120	RESIDUE	1 ****	GLU
10	HIS10	135	RESIDUE	1 ****	HIS
11	VAL11	152	RESIDUE	1 ****	VAL
12	GLN12	168	RESIDUE	1 ****	GLN
13	ARG13	185	RESIDUE	1 ****	ARG
14	VAL14	209	RESIDUE	1 ****	VAL
15	MET15	225	RESIDUE	1 ****	MET
16	ASP16	242	RESIDUE	1 ****	ASP
