@<TRIPOS>MOLECULE
10-20
272 272 16              
SMALL
USER_CHARGES
@<TRIPOS>ATOM
1	   N	1673.057	499.111	-1706.754	N.3	1	GLU1	-0.516	
2	  CA	1673.616	500.460	-1706.754	C.3	1	GLU1	0.040	
3	   C	1675.125	500.420	-1706.754	C.2	1	GLU1	0.537	
4	   O	1675.801	501.119	-1707.523	O.2	1	GLU1	-0.582	
5	  CB	1673.094	501.245	-1705.517	C.3	1	GLU1	0.056	
6	  CG	1673.568	502.730	-1705.406	C.3	1	GLU1	0.014	
7	  CD	1673.145	503.534	-1704.191	C.2	1	GLU1	0.805	
8	 OE1	1672.417	503.032	-1703.313	O.co2	1	GLU1	-0.819	
9	 OE2	1673.574	504.704	-1704.119	O.co2	1	GLU1	-0.819	
10	   H	1673.684	498.232	-1706.754	 H	1	GLU1	0.294	
11	  HA	1673.291	500.978	-1707.674	 H	1	GLU1	0.111	
12	 2HB	1673.382	500.714	-1704.587	 H	1	GLU1	-0.017	
13	 3HB	1671.986	501.235	-1705.504	 H	1	GLU1	-0.017	
14	 2HG	1673.259	503.315	-1706.287	 H	1	GLU1	-0.043	
15	 3HG	1674.668	502.797	-1705.377	 H	1	GLU1	-0.043	
16	   N	1675.730	499.634	-1705.929	N.am	2	ASN2	-0.416	
17	  CA	1677.189	499.595	-1705.929	C.3	2	ASN2	0.014	
18	   C	1677.721	499.240	-1707.298	C.2	2	ASN2	0.597	
19	   O	1678.635	499.870	-1707.826	O.2	2	ASN2	-0.568	
20	  CB	1677.681	498.572	-1704.865	C.3	2	ASN2	-0.204	
21	  CG	1677.219	498.796	-1703.421	C.2	2	ASN2	0.713	
22	 ND2	1677.813	499.711	-1702.703	N.pl3	2	ASN2	-0.919	
23	 OD1	1676.298	498.162	-1702.927	O.2	2	ASN2	-0.593	
24	   H	1675.202	499.054	-1705.292	 H	2	ASN2	0.272	
25	  HA	1677.567	500.605	-1705.684	 H	2	ASN2	0.105	
26	 2HB	1678.786	498.513	-1704.868	 H	2	ASN2	0.080	
27	 3HB	1677.353	497.554	-1705.150	 H	2	ASN2	0.080	
28	1HD2	1677.332	499.884	-1701.817	 H	2	ASN2	0.420	
29	2HD2	1678.514	500.283	-1703.172	 H	2	ASN2	0.420	
30	   N	1677.199	498.245	-1707.932	N.am	3	PRO3	-0.255	
31	  CA	1677.651	497.835	-1709.253	C.3	3	PRO3	-0.027	
32	   C	1677.253	498.859	-1710.330	C.2	3	PRO3	0.590	
33	   O	1678.076	499.242	-1711.162	O.2	3	PRO3	-0.575	
34	  CB	1676.947	496.481	-1709.423	C.3	3	PRO3	-0.007	
35	  CG	1675.663	496.633	-1708.592	C.3	3	PRO3	0.019	
36	  CD	1676.121	497.451	-1707.383	C.3	3	PRO3	0.019	
37	  HA	1678.737	497.716	-1709.267	 H	3	PRO3	0.064	
38	 2HB	1677.570	495.699	-1708.982	 H	3	PRO3	0.025	
39	 3HB	1676.749	496.232	-1710.468	 H	3	PRO3	0.025	
40	 2HG	1675.236	495.670	-1708.301	 H	3	PRO3	0.021	
41	 3HG	1674.926	497.204	-1709.160	 H	3	PRO3	0.021	
42	 2HD	1676.510	496.802	-1706.595	 H	3	PRO3	0.039	
43	 3HD	1675.325	498.087	-1706.990	 H	3	PRO3	0.039	
44	   N	1676.048	499.319	-1710.362	N.am	4	GLU4	-0.516	
45	  CA	1675.688	500.290	-1711.392	C.3	4	GLU4	0.040	
46	   C	1676.587	501.501	-1711.331	C.2	4	GLU4	0.537	
47	   O	1677.113	501.981	-1712.345	O.2	4	GLU4	-0.582	
48	  CB	1674.199	500.708	-1711.221	C.3	4	GLU4	0.056	
49	  CG	1673.651	501.712	-1712.287	C.3	4	GLU4	0.014	
50	  CD	1672.225	502.209	-1712.143	C.2	4	GLU4	0.805	
51	 OE1	1671.499	501.810	-1711.212	O.co2	4	GLU4	-0.819	
52	 OE2	1671.835	503.038	-1712.991	O.co2	4	GLU4	-0.819	
53	   H	1675.364	499.012	-1709.686	 H	4	GLU4	0.294	
54	  HA	1675.819	499.819	-1712.383	 H	4	GLU4	0.111	
55	 2HB	1674.047	501.148	-1710.215	 H	4	GLU4	-0.017	
56	 3HB	1673.552	499.811	-1711.228	 H	4	GLU4	-0.017	
57	 2HG	1673.733	501.297	-1713.305	 H	4	GLU4	-0.043	
58	 3HG	1674.239	502.645	-1712.298	 H	4	GLU4	-0.043	
59	   N	1676.814	502.054	-1710.188	N.am	5	SER5	-0.416	
60	  CA	1677.684	503.225	-1710.129	C.3	5	SER5	-0.025	
61	   C	1679.043	502.920	-1710.715	C.2	5	SER5	0.597	
62	   O	1679.590	503.673	-1711.520	O.2	5	SER5	-0.568	
63	  CB	1677.796	503.757	-1708.679	C.3	5	SER5	0.212	
64	  OG	1678.527	502.878	-1707.818	O.3	5	SER5	-0.655	
65	   H	1676.398	501.682	-1709.346	 H	5	SER5	0.272	
66	  HA	1677.234	504.015	-1710.758	 H	5	SER5	0.084	
67	 2HB	1676.796	503.951	-1708.245	 H	5	SER5	0.035	
68	 3HB	1678.301	504.743	-1708.681	 H	5	SER5	0.035	
69	  HG	1678.039	502.053	-1707.767	 H	5	SER5	0.428	
70	   N	1679.647	501.837	-1710.361	N.am	6	ILE6	-0.416	
71	  CA	1680.961	501.542	-1710.927	C.3	6	ILE6	-0.060	
72	   C	1680.903	501.505	-1712.435	C.2	6	ILE6	0.597	
73	   O	1681.738	502.093	-1713.139	O.2	6	ILE6	-0.568	
74	  CB	1681.560	500.206	-1710.328	C.3	6	ILE6	0.130	
75	 CG1	1681.580	500.143	-1708.767	C.3	6	ILE6	-0.043	
76	 CG2	1683.002	499.904	-1710.843	C.3	6	ILE6	-0.320	
77	 CD1	1681.850	498.754	-1708.152	C.3	6	ILE6	-0.066	
78	   H	1679.219	501.202	-1709.702	 H	6	ILE6	0.272	
79	  HA	1681.635	502.376	-1710.660	 H	6	ILE6	0.087	
80	  HB	1680.903	499.380	-1710.672	 H	6	ILE6	0.019	
81	2HG1	1680.598	500.463	-1708.371	 H	6	ILE6	0.024	
82	3HG1	1682.296	500.885	-1708.362	 H	6	ILE6	0.024	
83	1HG2	1683.060	499.811	-1711.942	 H	6	ILE6	0.088	
84	2HG2	1683.724	500.687	-1710.541	 H	6	ILE6	0.088	
85	3HG2	1683.392	498.942	-1710.465	 H	6	ILE6	0.088	
86	1HD1	1681.122	498.000	-1708.507	 H	6	ILE6	0.019	
87	2HD1	1682.861	498.376	-1708.388	 H	6	ILE6	0.019	
88	3HD1	1681.774	498.784	-1707.049	 H	6	ILE6	0.019	
89	   N	1679.957	500.841	-1713.009	N.am	7	LEU7	-0.416	
90	  CA	1679.902	500.805	-1714.468	C.3	7	LEU7	-0.052	
91	   C	1679.830	502.201	-1715.040	C.2	7	LEU7	0.597	
92	   O	1680.550	502.564	-1715.982	O.2	7	LEU7	-0.568	
93	  CB	1678.699	499.945	-1714.948	C.3	7	LEU7	-0.110	
94	  CG	1678.626	498.466	-1714.482	C.3	7	LEU7	0.353	
95	 CD1	1677.437	497.760	-1715.147	C.3	7	LEU7	-0.412	
96	 CD2	1679.920	497.687	-1714.773	C.3	7	LEU7	-0.412	
97	   H	1679.265	500.354	-1712.458	 H	7	LEU7	0.272	
98	  HA	1680.844	500.365	-1714.842	 H	7	LEU7	0.092	
99	 2HB	1678.676	499.961	-1716.055	 H	7	LEU7	0.046	
100	 3HB	1677.759	500.448	-1714.643	 H	7	LEU7	0.046	
101	  HG	1678.457	498.457	-1713.385	 H	7	LEU7	-0.036	
102	1HD1	1676.479	498.269	-1714.924	 H	7	LEU7	0.100	
103	2HD1	1677.536	497.720	-1716.248	 H	7	LEU7	0.100	
104	3HD1	1677.330	496.719	-1714.791	 H	7	LEU7	0.100	
105	1HD2	1680.195	497.717	-1715.843	 H	7	LEU7	0.100	
106	2HD2	1680.773	498.098	-1714.202	 H	7	LEU7	0.100	
107	3HD2	1679.839	496.624	-1714.478	 H	7	LEU7	0.100	
108	   N	1678.992	503.041	-1714.533	N.am	8	ASP8	-0.516	
109	  CA	1678.922	504.391	-1715.086	C.3	8	ASP8	0.038	
110	   C	1680.269	505.071	-1715.029	C.2	8	ASP8	0.537	
111	   O	1680.741	505.676	-1716.003	O.2	8	ASP8	-0.582	
112	  CB	1677.844	505.230	-1714.344	C.3	8	ASP8	-0.030	
113	  CG	1677.625	506.651	-1714.884	C.2	8	ASP8	0.799	
114	 OD1	1677.689	506.850	-1716.115	O.co2	8	ASP8	-0.801	
115	 OD2	1677.433	507.576	-1714.068	O.co2	8	ASP8	-0.801	
116	   H	1678.395	502.770	-1713.766	 H	8	ASP8	0.294	
117	  HA	1678.639	504.313	-1716.153	 H	8	ASP8	0.088	
118	 2HB	1678.101	505.313	-1713.272	 H	8	ASP8	-0.012	
119	 3HB	1676.865	504.725	-1714.377	 H	8	ASP8	-0.012	
120	   N	1680.948	505.021	-1713.934	N.am	9	GLU9	-0.516	
121	  CA	1682.251	505.678	-1713.878	C.3	9	GLU9	0.040	
122	   C	1683.169	505.151	-1714.954	C.2	9	GLU9	0.537	
123	   O	1683.833	505.906	-1715.679	O.2	9	GLU9	-0.582	
124	  CB	1682.885	505.470	-1712.473	C.3	9	GLU9	0.056	
125	  CG	1684.267	506.163	-1712.243	C.3	9	GLU9	0.014	
126	  CD	1684.969	505.949	-1710.915	C.2	9	GLU9	0.805	
127	 OE1	1684.448	505.257	-1710.019	O.co2	9	GLU9	-0.819	
128	 OE2	1686.088	506.487	-1710.783	O.co2	9	GLU9	-0.819	
129	   H	1680.585	504.534	-1713.126	 H	9	GLU9	0.294	
130	  HA	1682.109	506.760	-1714.053	 H	9	GLU9	0.111	
131	 2HB	1682.998	504.386	-1712.270	 H	9	GLU9	-0.017	
132	 3HB	1682.188	505.823	-1711.688	 H	9	GLU9	-0.017	
133	 2HG	1684.195	507.253	-1712.383	 H	9	GLU9	-0.043	
134	 3HG	1685.014	505.818	-1712.978	 H	9	GLU9	-0.043	
135	   N	1683.266	503.876	-1715.125	N.am	10	ARG10	-0.348	
136	  CA	1684.154	503.367	-1716.166	C.3	10	ARG10	-0.264	
137	   C	1683.784	503.934	-1717.516	C.2	10	ARG10	0.734	
138	   O	1684.627	504.398	-1718.281	O.2	10	ARG10	-0.589	
139	  CB	1684.086	501.813	-1716.167	C.3	10	ARG10	-0.001	
140	  CG	1685.169	501.097	-1717.021	C.3	10	ARG10	0.039	
141	  CD	1685.008	499.568	-1716.995	C.3	10	ARG10	0.049	
142	  NE	1686.084	498.935	-1717.813	N.pl3	10	ARG10	-0.530	
143	  CZ	1686.234	497.629	-1718.008	C.cat	10	ARG10	0.808	
144	 NH1	1685.439	496.727	-1717.502	N.pl3	10	ARG10	-0.863	
145	 NH2	1687.224	497.225	-1718.739	N.pl3	10	ARG10	-0.863	
146	   H	1682.735	503.240	-1714.547	 H	10	ARG10	0.275	
147	  HA	1685.182	503.702	-1715.932	 H	10	ARG10	0.156	
148	 2HB	1683.073	501.501	-1716.496	 H	10	ARG10	0.033	
149	 3HB	1684.159	501.446	-1715.123	 H	10	ARG10	0.033	
150	 2HG	1686.174	501.388	-1716.653	 H	10	ARG10	0.029	
151	 3HG	1685.121	501.452	-1718.071	 H	10	ARG10	0.029	
152	 2HD	1684.002	499.297	-1717.385	 H	10	ARG10	0.069	
153	 3HD	1685.044	499.209	-1715.943	 H	10	ARG10	0.069	
154	  HE	1686.794	499.506	-1718.283	 H	10	ARG10	0.346	
155	1HH1	1684.679	497.112	-1716.937	 H	10	ARG10	0.448	
156	2HH1	1685.623	495.742	-1717.698	 H	10	ARG10	0.448	
157	1HH2	1687.836	497.946	-1719.128	 H	10	ARG10	0.448	
158	2HH2	1687.324	496.218	-1718.876	 H	10	ARG10	0.448	
159	   N	1682.546	503.933	-1717.877	N.am	11	VAL11	-0.416	
160	  CA	1682.188	504.482	-1719.182	C.3	11	VAL11	-0.087	
161	   C	1682.651	505.913	-1719.312	C.2	11	VAL11	0.597	
162	   O	1683.250	506.321	-1720.315	O.2	11	VAL11	-0.568	
163	  CB	1680.627	504.374	-1719.400	C.3	11	VAL11	0.299	
164	 CG1	1680.056	505.080	-1720.660	C.3	11	VAL11	-0.319	
165	 CG2	1680.104	502.919	-1719.475	C.3	11	VAL11	-0.319	
166	   H	1681.834	503.558	-1717.266	 H	11	VAL11	0.272	
167	  HA	1682.708	503.902	-1719.967	 H	11	VAL11	0.097	
168	  HB	1680.140	504.852	-1718.523	 H	11	VAL11	-0.030	
169	1HG1	1680.494	504.691	-1721.599	 H	11	VAL11	0.079	
170	2HG1	1678.957	504.972	-1720.741	 H	11	VAL11	0.079	
171	3HG1	1680.233	506.173	-1720.648	 H	11	VAL11	0.079	
172	1HG2	1680.396	502.331	-1718.586	 H	11	VAL11	0.079	
173	2HG2	1678.998	502.881	-1719.516	 H	11	VAL11	0.079	
174	3HG2	1680.485	502.381	-1720.364	 H	11	VAL11	0.079	
175	   N	1682.414	506.736	-1718.347	N.am	12	GLN12	-0.416	
176	  CA	1682.861	508.120	-1718.472	C.3	12	GLN12	-0.003	
177	   C	1684.351	508.190	-1718.712	C.2	12	GLN12	0.597	
178	   O	1684.836	508.901	-1719.589	O.2	12	GLN12	-0.568	
179	  CB	1682.471	508.884	-1717.187	C.3	12	GLN12	-0.004	
180	  CG	1682.830	510.406	-1717.153	C.3	12	GLN12	-0.064	
181	  CD	1682.528	511.216	-1715.885	C.2	12	GLN12	0.695	
182	 NE2	1681.963	510.637	-1714.857	N.pl3	12	GLN12	-0.941	
183	 OE1	1682.829	512.397	-1715.806	O.2	12	GLN12	-0.609	
184	   H	1681.927	506.428	-1717.518	 H	12	GLN12	0.272	
185	  HA	1682.360	508.578	-1719.345	 H	12	GLN12	0.085	
186	 2HB	1682.949	508.382	-1716.319	 H	12	GLN12	0.017	
187	 3HB	1681.381	508.775	-1717.022	 H	12	GLN12	0.017	
188	 2HG	1682.351	510.929	-1718.001	 H	12	GLN12	0.035	
189	 3HG	1683.913	510.550	-1717.319	 H	12	GLN12	0.035	
190	1HE2	1681.857	511.229	-1714.032	 H	12	GLN12	0.425	
191	2HE2	1681.801	509.633	-1714.963	 H	12	GLN12	0.425	
192	   N	1685.137	507.482	-1717.974	N.am	13	ARG13	-0.348	
193	  CA	1686.577	507.550	-1718.206	C.3	13	ARG13	-0.264	
194	   C	1686.912	507.183	-1719.632	C.2	13	ARG13	0.734	
195	   O	1687.679	507.857	-1720.316	O.2	13	ARG13	-0.589	
196	  CB	1687.293	506.610	-1717.195	C.3	13	ARG13	-0.001	
197	  CG	1688.838	506.765	-1717.116	C.3	13	ARG13	0.039	
198	  CD	1689.468	505.776	-1716.121	C.3	13	ARG13	0.049	
199	  NE	1690.944	505.985	-1716.072	N.pl3	13	ARG13	-0.530	
200	  CZ	1691.794	505.293	-1715.320	C.cat	13	ARG13	0.808	
201	 NH1	1691.432	504.326	-1714.524	N.pl3	13	ARG13	-0.863	
202	 NH2	1693.053	505.594	-1715.378	N.pl3	13	ARG13	-0.863	
203	   H	1684.763	506.890	-1717.246	 H	13	ARG13	0.275	
204	  HA	1686.900	508.596	-1718.046	 H	13	ARG13	0.156	
205	 2HB	1687.028	505.560	-1717.437	 H	13	ARG13	0.033	
206	 3HB	1686.869	506.774	-1716.184	 H	13	ARG13	0.033	
207	 2HG	1689.085	507.810	-1716.834	 H	13	ARG13	0.029	
208	 3HG	1689.287	506.612	-1718.118	 H	13	ARG13	0.029	
209	 2HD	1689.224	504.736	-1716.432	 H	13	ARG13	0.069	
210	 3HD	1689.012	505.919	-1715.118	 H	13	ARG13	0.069	
211	  HE	1691.394	506.709	-1716.642	 H	13	ARG13	0.346	
212	1HH1	1690.426	504.139	-1714.527	 H	13	ARG13	0.448	
213	2HH1	1692.146	503.843	-1713.978	 H	13	ARG13	0.448	
214	1HH2	1693.319	506.353	-1716.007	 H	13	ARG13	0.448	
215	2HH2	1693.690	505.052	-1714.791	 H	13	ARG13	0.448	
216	   N	1686.377	506.129	-1720.149	N.am	14	VAL14	-0.416	
217	  CA	1686.700	505.774	-1721.527	C.3	14	VAL14	-0.087	
218	   C	1686.368	506.905	-1722.470	C.2	14	VAL14	0.597	
219	   O	1687.160	507.290	-1723.339	O.2	14	VAL14	-0.568	
220	  CB	1685.929	504.456	-1721.937	C.3	14	VAL14	0.299	
221	 CG1	1686.017	504.042	-1723.432	C.3	14	VAL14	-0.319	
222	 CG2	1686.364	503.203	-1721.140	C.3	14	VAL14	-0.319	
223	   H	1685.743	505.558	-1719.607	 H	14	VAL14	0.272	
224	  HA	1687.789	505.598	-1721.604	 H	14	VAL14	0.097	
225	  HB	1684.853	504.626	-1721.719	 H	14	VAL14	-0.030	
226	1HG1	1687.058	503.867	-1723.762	 H	14	VAL14	0.079	
227	2HG1	1685.445	503.119	-1723.646	 H	14	VAL14	0.079	
228	3HG1	1685.586	504.805	-1724.107	 H	14	VAL14	0.079	
229	1HG2	1686.277	503.358	-1720.049	 H	14	VAL14	0.079	
230	2HG2	1685.729	502.326	-1721.374	 H	14	VAL14	0.079	
231	3HG2	1687.411	502.915	-1721.348	 H	14	VAL14	0.079	
232	   N	1685.222	507.490	-1722.365	N.am	15	MET15	-0.416	
233	  CA	1684.899	508.584	-1723.276	C.3	15	MET15	-0.024	
234	   C	1685.928	509.685	-1723.187	C.2	15	MET15	0.597	
235	   O	1686.429	510.199	-1724.199	O.2	15	MET15	-0.568	
236	  CB	1683.478	509.127	-1722.964	C.3	15	MET15	0.034	
237	  CG	1682.317	508.128	-1723.157	C.3	15	MET15	0.002	
238	  SD	1680.742	508.992	-1723.039	S.3	15	MET15	-0.274	
239	  CE	1679.663	507.560	-1722.904	C.3	15	MET15	-0.054	
240	   H	1684.558	507.194	-1721.664	 H	15	MET15	0.272	
241	  HA	1684.924	508.199	-1724.313	 H	15	MET15	0.088	
242	 2HB	1683.273	510.007	-1723.604	 H	15	MET15	0.024	
243	 3HB	1683.443	509.517	-1721.927	 H	15	MET15	0.024	
244	 2HG	1682.361	507.340	-1722.381	 H	15	MET15	0.044	
245	 3HG	1682.379	507.615	-1724.135	 H	15	MET15	0.044	
246	 1HE	1679.806	506.874	-1723.759	 H	15	MET15	0.068	
247	 2HE	1679.874	507.005	-1721.973	 H	15	MET15	0.068	
248	 3HE	1678.604	507.874	-1722.886	 H	15	MET15	0.068	
249	   N	1686.298	510.104	-1722.024	N.am	16	ARG16	-0.348	
250	  CA	1687.293	511.169	-1721.939	C.3	16	ARG16	-0.264	
251	   C	1688.563	510.779	-1722.658	C.2	16	ARG16	0.734	
252	   O	1688.678	509.704	-1723.242	O.2	16	ARG16	-0.589	
253	  CB	1687.563	511.483	-1720.440	C.3	16	ARG16	-0.001	
254	  CG	1688.387	512.773	-1720.166	C.3	16	ARG16	0.039	
255	  CD	1688.638	512.989	-1718.664	C.3	16	ARG16	0.049	
256	  NE	1689.413	514.249	-1718.461	N.pl3	16	ARG16	-0.530	
257	  CZ	1689.805	514.729	-1717.285	C.cat	16	ARG16	0.808	
258	 NH1	1689.560	514.141	-1716.147	N.pl3	16	ARG16	-0.863	
259	 NH2	1690.468	515.842	-1717.265	N.pl3	16	ARG16	-0.863	
260	   H	1685.904	509.701	-1721.186	 H	16	ARG16	0.275	
261	  HA	1686.882	512.062	-1722.446	 H	16	ARG16	0.156	
262	 2HB	1688.062	510.607	-1719.977	 H	16	ARG16	0.033	
263	 3HB	1686.595	511.562	-1719.905	 H	16	ARG16	0.033	
264	 2HG	1687.855	513.644	-1720.600	 H	16	ARG16	0.029	
265	 3HG	1689.360	512.722	-1720.696	 H	16	ARG16	0.029	
266	 2HD	1689.189	512.114	-1718.254	 H	16	ARG16	0.069	
267	 3HD	1687.666	513.029	-1718.128	 H	16	ARG16	0.069	
268	  HE	1689.690	514.832	-1719.257	 H	16	ARG16	0.346	
269	1HH1	1689.035	513.268	-1716.233	 H	16	ARG16	0.448	
270	2HH1	1689.895	514.575	-1715.286	 H	16	ARG16	0.448	
271	1HH2	1690.652	516.288	-1718.166	 H	16	ARG16	0.448	
272	2HH2	1690.759	516.195	-1716.352	 H	16	ARG16	0.448	
@<TRIPOS>BOND
1 1 2 1
2 1 10 1
3 2 3 1
4 2 5 1
5 2 11 1
6 3 4 2
7 3 16 1
8 5 6 1
9 6 7 1
10 7 8 2
11 7 9 1
12 5 12 1
13 5 13 1
14 6 14 1
15 6 15 1
16 16 17 1
17 16 24 1
18 17 18 1
19 17 20 1
20 17 25 1
21 18 19 2
22 18 30 1
23 20 21 1
24 21 22 1
25 21 23 2
26 20 26 1
27 20 27 1
28 22 28 1
29 22 29 1
30 30 31 1
31 30 36 1
32 31 32 1
33 31 34 1
34 31 37 1
35 32 33 2
36 32 44 1
37 34 35 1
38 35 36 1
39 34 38 1
40 34 39 1
41 35 40 1
42 35 41 1
43 36 42 1
44 36 43 1
45 44 45 1
46 44 53 1
47 45 46 1
48 45 48 1
49 45 54 1
50 46 47 2
51 46 59 1
52 48 49 1
53 49 50 1
54 50 51 2
55 50 52 1
56 48 55 1
57 48 56 1
58 49 57 1
59 49 58 1
60 59 60 1
61 59 65 1
62 60 61 1
63 60 63 1
64 60 66 1
65 61 62 2
66 61 70 1
67 63 64 1
68 63 67 1
69 63 68 1
70 64 69 1
71 70 71 1
72 70 78 1
73 71 72 1
74 71 74 1
75 71 79 1
76 72 73 2
77 72 89 1
78 74 75 1
79 74 76 1
80 75 77 1
81 74 80 1
82 75 81 1
83 75 82 1
84 76 83 1
85 76 84 1
86 76 85 1
87 77 86 1
88 77 87 1
89 77 88 1
90 89 90 1
91 89 97 1
92 90 91 1
93 90 93 1
94 90 98 1
95 91 92 2
96 91 108 1
97 93 94 1
98 94 95 1
99 94 96 1
100 93 99 1
101 93 100 1
102 94 101 1
103 95 102 1
104 95 103 1
105 95 104 1
106 96 105 1
107 96 106 1
108 96 107 1
109 108 109 1
110 108 116 1
111 109 110 1
112 109 112 1
113 109 117 1
114 110 111 2
115 110 120 1
116 112 113 1
117 113 114 2
118 113 115 1
119 112 118 1
120 112 119 1
121 120 121 1
122 120 129 1
123 121 122 1
124 121 124 1
125 121 130 1
126 122 123 2
127 122 135 1
128 124 125 1
129 125 126 1
130 126 127 2
131 126 128 1
132 124 131 1
133 124 132 1
134 125 133 1
135 125 134 1
136 135 136 1
137 135 146 1
138 136 137 1
139 136 139 1
140 136 147 1
141 137 138 2
142 137 159 1
143 139 140 1
144 140 141 1
145 141 142 1
146 142 143 1
147 143 144 2
148 143 145 1
149 139 148 1
150 139 149 1
151 140 150 1
152 140 151 1
153 141 152 1
154 141 153 1
155 142 154 1
156 144 155 1
157 144 156 1
158 145 157 1
159 145 158 1
160 159 160 1
161 159 166 1
162 160 161 1
163 160 163 1
164 160 167 1
165 161 162 2
166 161 175 1
167 163 164 1
168 163 165 1
169 163 168 1
170 164 169 1
171 164 170 1
172 164 171 1
173 165 172 1
174 165 173 1
175 165 174 1
176 175 176 1
177 175 184 1
178 176 177 1
179 176 179 1
180 176 185 1
181 177 178 2
182 177 192 1
183 179 180 1
184 180 181 1
185 181 182 1
186 181 183 2
187 179 186 1
188 179 187 1
189 180 188 1
190 180 189 1
191 182 190 1
192 182 191 1
193 192 193 1
194 192 203 1
195 193 194 1
196 193 196 1
197 193 204 1
198 194 195 2
199 194 216 1
200 196 197 1
201 197 198 1
202 198 199 1
203 199 200 1
204 200 201 2
205 200 202 1
206 196 205 1
207 196 206 1
208 197 207 1
209 197 208 1
210 198 209 1
211 198 210 1
212 199 211 1
213 201 212 1
214 201 213 1
215 202 214 1
216 202 215 1
217 216 217 1
218 216 223 1
219 217 218 1
220 217 220 1
221 217 224 1
222 218 219 2
223 218 232 1
224 220 221 1
225 220 222 1
226 220 225 1
227 221 226 1
228 221 227 1
229 221 228 1
230 222 229 1
231 222 230 1
232 222 231 1
233 232 233 1
234 232 240 1
235 233 234 1
236 233 236 1
237 233 241 1
238 234 235 2
239 234 249 1
240 236 237 1
241 237 238 1
242 238 239 1
243 236 242 1
244 236 243 1
245 237 244 1
246 237 245 1
247 239 246 1
248 239 247 1
249 239 248 1
250 249 250 1
251 249 260 1
252 250 251 1
253 250 253 1
254 250 261 1
255 251 252 2
256 253 254 1
257 254 255 1
258 255 256 1
259 256 257 1
260 257 258 2
261 257 259 1
262 253 262 1
263 253 263 1
264 254 264 1
265 254 265 1
266 255 266 1
267 255 267 1
268 256 268 1
269 258 269 1
270 258 270 1
271 259 271 1
272 259 272 1
@<TRIPOS>SUBSTRUCTURE
1	GLU1	1	RESIDUE	1 ****	GLU
2	ASN2	16	RESIDUE	1 ****	ASN
3	PRO3	30	RESIDUE	1 ****	PRO
4	GLU4	44	RESIDUE	1 ****	GLU
5	SER5	59	RESIDUE	1 ****	SER
6	ILE6	70	RESIDUE	1 ****	ILE
7	LEU7	89	RESIDUE	1 ****	LEU
8	ASP8	108	RESIDUE	1 ****	ASP
9	GLU9	120	RESIDUE	1 ****	GLU
10	ARG10	135	RESIDUE	1 ****	ARG
11	VAL11	159	RESIDUE	1 ****	VAL
12	GLN12	175	RESIDUE	1 ****	GLN
13	ARG13	192	RESIDUE	1 ****	ARG
14	VAL14	216	RESIDUE	1 ****	VAL
15	MET15	232	RESIDUE	1 ****	MET
16	ARG16	249	RESIDUE	1 ****	ARG
