REMARK WARNING: 32 MAX_TORS EXCEEDED!!!
REMARK  69 active torsions:
REMARK  status: ('A' for Active; 'I' for Inactive)
REMARK    1  A    between atoms: N_1  and  CA_2 
REMARK    2  A    between atoms: CA_2  and  C_3 
REMARK    3  A    between atoms: CA_2  and  CB_5 
REMARK       I    between atoms: C_3  and  N_11 
REMARK    4  A    between atoms: CB_5  and  CG_6 
REMARK    5  A    between atoms: CG_6  and  CD_7 
REMARK    6  A    between atoms: N_11  and  CA_12 
REMARK    7  A    between atoms: CA_12  and  C_13 
REMARK    8  A    between atoms: CA_12  and  CB_15 
REMARK       I    between atoms: C_13  and  N_22 
REMARK    9  A    between atoms: CB_15  and  CG_16 
REMARK       I    between atoms: CG_16  and  ND2_17 
REMARK   10  A    between atoms: CA_23  and  C_24 
REMARK       I    between atoms: C_24  and  N_29 
REMARK   11  A    between atoms: N_29  and  CA_30 
REMARK   12  A    between atoms: CA_30  and  C_31 
REMARK   13  A    between atoms: CA_30  and  CB_33 
REMARK       I    between atoms: C_31  and  N_39 
REMARK   14  A    between atoms: CB_33  and  CG_34 
REMARK   15  A    between atoms: CG_34  and  CD_35 
REMARK   16  A    between atoms: N_39  and  CA_40 
REMARK   17  A    between atoms: CA_40  and  C_41 
REMARK   18  A    between atoms: CA_40  and  CB_43 
REMARK       I    between atoms: C_41  and  N_47 
REMARK   19  A    between atoms: CB_43  and  OG_44 
REMARK   20  A    between atoms: N_47  and  CA_48 
REMARK   21  A    between atoms: CA_48  and  C_49 
REMARK   22  A    between atoms: CA_48  and  CB_51 
REMARK       I    between atoms: C_49  and  N_56 
REMARK   23  A    between atoms: CB_51  and  CG1_52 
REMARK   24  A    between atoms: N_56  and  CA_57 
REMARK   25  A    between atoms: CA_57  and  C_58 
REMARK   26  A    between atoms: CA_57  and  CB_60 
REMARK       I    between atoms: C_58  and  N_65 
REMARK   27  A    between atoms: CB_60  and  CG_61 
REMARK   28  A    between atoms: N_65  and  CA_66 
REMARK   29  A    between atoms: CA_66  and  C_67 
REMARK   30  A    between atoms: CA_66  and  CB_69 
REMARK       I    between atoms: C_67  and  N_74 
REMARK   31  A    between atoms: CB_69  and  CG_70 
REMARK   32  A    between atoms: N_74  and  CA_75 
REMARK   33  A    between atoms: CA_75  and  C_76 
REMARK   34  A    between atoms: CA_75  and  CB_78 
REMARK       I    between atoms: C_76  and  N_84 
REMARK   35  A    between atoms: CB_78  and  CG_79 
REMARK   36  A    between atoms: CG_79  and  CD_80 
REMARK   37  A    between atoms: N_84  and  CA_85 
REMARK   38  A    between atoms: CA_85  and  C_86 
REMARK   39  A    between atoms: CA_85  and  CB_88 
REMARK       I    between atoms: C_86  and  N_96 
REMARK   40  A    between atoms: CB_88  and  CG_89 
REMARK   41  A    between atoms: N_96  and  CA_97 
REMARK   42  A    between atoms: CA_97  and  C_98 
REMARK   43  A    between atoms: CA_97  and  CB_100 
REMARK       I    between atoms: C_98  and  N_105 
REMARK   44  A    between atoms: CB_100  and  CG1_101 
REMARK   45  A    between atoms: N_105  and  CA_106 
REMARK   46  A    between atoms: CA_106  and  C_107 
REMARK   47  A    between atoms: CA_106  and  CB_109 
REMARK       I    between atoms: C_107  and  N_117 
REMARK   48  A    between atoms: CB_109  and  CG_110 
REMARK   49  A    between atoms: CG_110  and  CD_111 
REMARK       I    between atoms: CD_111  and  NE2_112 
REMARK   50  A    between atoms: N_117  and  CA_118 
REMARK   51  A    between atoms: CA_118  and  C_119 
REMARK   52  A    between atoms: CA_118  and  CB_121 
REMARK       I    between atoms: C_119  and  N_134 
REMARK   53  A    between atoms: CB_121  and  CG_122 
REMARK   54  A    between atoms: CG_122  and  CD_123 
REMARK   55  A    between atoms: CD_123  and  NE_124 
REMARK       I    between atoms: NE_124  and  CZ_125 
REMARK       I    between atoms: CZ_125  and  NH1_126 
REMARK       I    between atoms: CZ_125  and  NH2_127 
REMARK   56  A    between atoms: N_134  and  CA_135 
REMARK   57  A    between atoms: CA_135  and  C_136 
REMARK   58  A    between atoms: CA_135  and  CB_138 
REMARK       I    between atoms: C_136  and  N_142 
REMARK   59  A    between atoms: N_142  and  CA_143 
REMARK   60  A    between atoms: CA_143  and  C_144 
REMARK   61  A    between atoms: CA_143  and  CB_146 
REMARK       I    between atoms: C_144  and  N_151 
REMARK   62  A    between atoms: CB_146  and  CG_147 
REMARK   63  A    between atoms: CG_147  and  SD_148 
REMARK   64  A    between atoms: N_151  and  CA_152 
REMARK   65  A    between atoms: CA_152  and  C_153 
REMARK   66  A    between atoms: CA_152  and  CB_155 
REMARK   67  A    between atoms: CB_155  and  CG_156 
REMARK   68  A    between atoms: CG_156  and  CD_157 
REMARK   69  A    between atoms: CD_157  and  NE_158 
REMARK       I    between atoms: NE_158  and  CZ_159 
REMARK       I    between atoms: CZ_159  and  NH1_160 
ROOT
ATOM      1  C   GLU d   9    1732.429 521.280-1767.970  0.00  0.00     0.241 C 
ATOM      2  O   GLU d   9    1733.093 522.035-1768.695  0.00  0.00    -0.271 OA
ATOM      3  N   HIS d  10    1732.527 520.005-1768.140  0.00  0.00    -0.346 N 
ATOM      4  H   HIS d  10    1731.996 519.369-1767.561  0.00  0.00     0.163 HD
ENDROOT
BRANCH   3   5
ATOM      5  CA  HIS d  10    1733.415 519.494-1769.180  0.00  0.00     0.182 C 
BRANCH   5   6
ATOM      6  C   HIS d  10    1733.047 520.059-1770.531  0.00  0.00     0.241 C 
ATOM      7  O   HIS d  10    1733.899 520.524-1771.303  0.00  0.00    -0.271 OA
ATOM      8  N   ILE d  11    1731.809 520.057-1770.894  0.00  0.00    -0.346 N 
ATOM      9  H   ILE d  11    1731.097 519.684-1770.283  0.00  0.00     0.163 HD
BRANCH   8  10
ATOM     10  CA  ILE d  11    1731.454 520.604-1772.201  0.00  0.00     0.180 C 
BRANCH  10  11
ATOM     11  C   ILE d  11    1731.917 522.034-1772.333  0.00  0.00     0.241 C 
ATOM     12  O   ILE d  11    1732.519 522.439-1773.339  0.00  0.00    -0.271 OA
ATOM     13  N   GLN d  12    1731.680 522.860-1771.371  0.00  0.00    -0.346 N 
ATOM     14  H   GLN d  12    1731.192 522.554-1770.542  0.00  0.00     0.163 HD
BRANCH  13  15
ATOM     15  CA  GLN d  12    1732.128 524.243-1771.499  0.00  0.00     0.177 C 
BRANCH  15  16
ATOM     16  C   GLN d  12    1733.618 524.311-1771.737  0.00  0.00     0.241 C 
ATOM     17  O   GLN d  12    1734.105 525.019-1772.615  0.00  0.00    -0.271 OA
ATOM     18  N   ARG d  13    1734.403 523.605-1770.996  0.00  0.00    -0.346 N 
ATOM     19  H   ARG d  13    1734.027 523.015-1770.267  0.00  0.00     0.163 HD
BRANCH  18  20
ATOM     20  CA  ARG d  13    1735.843 523.671-1771.227  0.00  0.00     0.176 C 
BRANCH  20  21
ATOM     21  C   ARG d  13    1736.179 523.300-1772.652  0.00  0.00     0.241 C 
ATOM     22  O   ARG d  13    1736.947 523.971-1773.336  0.00  0.00    -0.271 OA
ATOM     23  N   VAL d  14    1735.643 522.245-1773.166  0.00  0.00    -0.346 N 
ATOM     24  H   VAL d  14    1735.009 521.676-1772.624  0.00  0.00     0.163 HD
BRANCH  23  25
ATOM     25  CA  VAL d  14    1735.968 521.885-1774.543  0.00  0.00     0.180 C 
BRANCH  25  26
ATOM     26  C   VAL d  14    1735.637 523.015-1775.489  0.00  0.00     0.241 C 
ATOM     27  O   VAL d  14    1736.430 523.397-1776.359  0.00  0.00    -0.271 OA
ATOM     28  N   MET d  15    1734.492 523.601-1775.387  0.00  0.00    -0.346 N 
ATOM     29  H   MET d  15    1733.828 523.307-1774.685  0.00  0.00     0.163 HD
BRANCH  28  30
ATOM     30  CA  MET d  15    1734.171 524.693-1776.300  0.00  0.00     0.177 C 
BRANCH  30  31
ATOM     31  C   MET d  15    1735.201 525.793-1776.213  0.00  0.00     0.241 C 
ATOM     32  O   MET d  15    1735.703 526.304-1777.226  0.00  0.00    -0.271 OA
ATOM     33  N   ARG d  16    1735.569 526.215-1775.051  0.00  0.00    -0.347 N 
ATOM     34  H   ARG d  16    1735.175 525.815-1774.211  0.00  0.00     0.163 HD
BRANCH  33  35
ATOM     35  CA  ARG d  16    1736.566 527.279-1774.968  0.00  0.00     0.162 C 
BRANCH  35  36
ATOM     36  C   ARG d  16    1737.836 526.887-1775.684  0.00  0.00     0.219 C 
ATOM     37  O   ARG d  16    1737.950 525.811-1776.266  0.00  0.00    -0.287 OA
ENDBRANCH  35  36
BRANCH  35  38
ATOM     38  CB  ARG d  16    1736.835 527.598-1773.470  0.00  0.00     0.035 C 
BRANCH  38  39
ATOM     39  CG  ARG d  16    1737.659 528.887-1773.197  0.00  0.00     0.023 C 
BRANCH  39  40
ATOM     40  CD  ARG d  16    1737.910 529.107-1771.696  0.00  0.00     0.138 C 
BRANCH  40  41
ATOM     41  NE  ARG d  16    1738.685 530.366-1771.496  0.00  0.00    -0.227 N 
ATOM     42  CZ  ARG d  16    1739.077 530.849-1770.320  0.00  0.00     0.665 C 
ATOM     43  NH1 ARG d  16    1738.830 530.265-1769.182  0.00  0.00    -0.235 N 
ATOM     44  NH2 ARG d  16    1739.740 531.962-1770.302  0.00  0.00    -0.235 N 
ATOM     45 11HH ARG d  16    1738.304 529.391-1769.266  0.00  0.00     0.174 HD
ATOM     46 12HH ARG d  16    1739.164 530.701-1768.321  0.00  0.00     0.174 HD
ATOM     47 21HH ARG d  16    1739.925 532.405-1771.204  0.00  0.00     0.174 HD
ATOM     48 22HH ARG d  16    1740.030 532.318-1769.390  0.00  0.00     0.174 HD
ATOM     49  HE  ARG d  16    1738.963 530.947-1772.293  0.00  0.00     0.177 HD
ENDBRANCH  40  41
ENDBRANCH  39  40
ENDBRANCH  38  39
ENDBRANCH  35  38
ENDBRANCH  33  35
ENDBRANCH  30  31
BRANCH  30  50
ATOM     50  CB  MET d  15    1732.750 525.238-1775.991  0.00  0.00     0.045 C 
BRANCH  50  51
ATOM     51  CG  MET d  15    1731.588 524.239-1776.182  0.00  0.00     0.076 C 
BRANCH  51  52
ATOM     52  SD  MET d  15    1730.014 525.104-1776.068  0.00  0.00    -0.173 SA
ATOM     53  CE  MET d  15    1728.933 523.674-1775.931  0.00  0.00     0.089 C 
ENDBRANCH  51  52
ENDBRANCH  50  51
ENDBRANCH  30  50
ENDBRANCH  28  30
ENDBRANCH  25  26
BRANCH  25  54
ATOM     54  CB  VAL d  14    1735.196 520.568-1774.950  0.00  0.00     0.009 C 
ATOM     55  CG1 VAL d  14    1735.285 520.150-1776.443  0.00  0.00     0.012 C 
ATOM     56  CG2 VAL d  14    1735.629 519.316-1774.150  0.00  0.00     0.012 C 
ENDBRANCH  25  54
ENDBRANCH  23  25
ENDBRANCH  20  21
BRANCH  20  57
ATOM     57  CB  ARG d  13    1736.557 522.733-1770.213  0.00  0.00     0.036 C 
BRANCH  57  58
ATOM     58  CG  ARG d  13    1738.102 522.886-1770.132  0.00  0.00     0.023 C 
BRANCH  58  59
ATOM     59  CD  ARG d  13    1738.730 521.899-1769.134  0.00  0.00     0.138 C 
BRANCH  59  60
ATOM     60  NE  ARG d  13    1740.207 522.107-1769.084  0.00  0.00    -0.227 N 
ATOM     61  CZ  ARG d  13    1741.055 521.416-1768.329  0.00  0.00     0.665 C 
ATOM     62  NH1 ARG d  13    1740.691 520.451-1767.532  0.00  0.00    -0.235 N 
ATOM     63  NH2 ARG d  13    1742.315 521.716-1768.386  0.00  0.00    -0.235 N 
ATOM     64 11HH ARG d  13    1739.685 520.265-1767.534  0.00  0.00     0.174 HD
ATOM     65 12HH ARG d  13    1741.404 519.969-1766.983  0.00  0.00     0.174 HD
ATOM     66 21HH ARG d  13    1742.582 522.473-1769.017  0.00  0.00     0.174 HD
ATOM     67 22HH ARG d  13    1742.950 521.175-1767.797  0.00  0.00     0.174 HD
ATOM     68  HE  ARG d  13    1740.657 522.829-1769.655  0.00  0.00     0.177 HD
ENDBRANCH  59  60
ENDBRANCH  58  59
ENDBRANCH  57  58
ENDBRANCH  20  57
ENDBRANCH  18  20
ENDBRANCH  15  16
BRANCH  15  69
ATOM     69  CB  GLN d  12    1731.737 525.011-1770.216  0.00  0.00     0.044 C 
BRANCH  69  70
ATOM     70  CG  GLN d  12    1732.096 526.533-1770.185  0.00  0.00     0.105 C 
BRANCH  70  71
ATOM     71  CD  GLN d  12    1731.794 527.346-1768.921  0.00  0.00     0.215 C 
ATOM     72  NE2 GLN d  12    1731.227 526.770-1767.892  0.00  0.00    -0.370 N 
ATOM     73 21HE GLN d  12    1731.120 527.365-1767.068  0.00  0.00     0.159 HD
ATOM     74 22HE GLN d  12    1731.064 525.766-1767.995  0.00  0.00     0.159 HD
ATOM     75  OE1 GLN d  12    1732.095 528.527-1768.844  0.00  0.00    -0.274 OA
ENDBRANCH  70  71
ENDBRANCH  69  70
ENDBRANCH  15  69
ENDBRANCH  13  15
ENDBRANCH  10  11
BRANCH  10  76
ATOM     76  CB  ILE d  11    1729.904 520.458-1772.484  0.00  0.00     0.013 C 
ATOM     77  CG2 ILE d  11    1729.500 520.951-1773.908  0.00  0.00     0.012 C 
BRANCH  76  78
ATOM     78  CG1 ILE d  11    1729.339 519.014-1772.291  0.00  0.00     0.002 C 
ATOM     79  CD1 ILE d  11    1727.801 518.895-1772.242  0.00  0.00     0.005 C 
ENDBRANCH  76  78
ENDBRANCH  10  76
ENDBRANCH   8  10
ENDBRANCH   5   6
BRANCH   5  80
ATOM     80  CB  HIS d  10    1733.251 517.965-1769.176  0.00  0.00     0.095 C 
BRANCH  80  81
ATOM     81  CG  HIS d  10    1734.537 517.256-1768.868  0.00  0.00     0.053 A 
ATOM     82  CD2 HIS d  10    1734.919 516.920-1767.576  0.00  0.00     0.116 A 
ATOM     83  NE2 HIS d  10    1736.134 516.289-1767.643  0.00  0.00    -0.359 N 
ATOM     84  CE1 HIS d  10    1736.396 516.292-1768.978  0.00  0.00     0.207 A 
ATOM     85  2HE HIS d  10    1736.701 515.912-1766.870  0.00  0.00     0.166 HD
ATOM     86  ND1 HIS d  10    1735.490 516.850-1769.801  0.00  0.00    -0.247 NA
ENDBRANCH  80  81
ENDBRANCH   5  80
ENDBRANCH   3   5
BRANCH   1  87
ATOM     87  CA  GLU d   9    1731.511 521.807-1766.894  0.00  0.00     0.177 C 
BRANCH  87  88
ATOM     88  N   GLU d   9    1730.209 521.149-1766.949  0.00  0.00    -0.346 N 
ATOM     89  C   ASP d   8    1729.529 521.199-1768.044  0.00  0.00     0.241 C 
ATOM     90  O   ASP d   8    1730.001 521.804-1769.019  0.00  0.00    -0.271 OA
ATOM     91  H   GLU d   9    1729.846 520.662-1766.142  0.00  0.00     0.163 HD
BRANCH  89  92
ATOM     92  CA  ASP d   8    1728.182 520.519-1768.102  0.00  0.00     0.186 C 
BRANCH  92  93
ATOM     93  N   ASP d   8    1728.253 519.169-1767.549  0.00  0.00    -0.346 N 
ATOM     94  C   LEU d   7    1729.091 518.329-1768.055  0.00  0.00     0.241 C 
ATOM     95  O   LEU d   7    1729.811 518.692-1768.997  0.00  0.00    -0.271 OA
ATOM     96  H   ASP d   8    1727.655 518.898-1766.781  0.00  0.00     0.163 HD
BRANCH  94  97
ATOM     97  CA  LEU d   7    1729.163 516.934-1767.482  0.00  0.00     0.177 C 
BRANCH  97  98
ATOM     98  N   LEU d   7    1729.218 516.970-1766.024  0.00  0.00    -0.346 N 
ATOM     99  C   ILE d   6    1730.164 517.633-1765.450  0.00  0.00     0.241 C 
ATOM    100  O   ILE d   6    1730.999 518.221-1766.154  0.00  0.00    -0.271 OA
ATOM    101  H   LEU d   7    1728.526 516.482-1765.473  0.00  0.00     0.163 HD
BRANCH  99 102
ATOM    102  CA  ILE d   6    1730.221 517.671-1763.942  0.00  0.00     0.180 C 
BRANCH 102 103
ATOM    103  N   ILE d   6    1728.908 517.965-1763.376  0.00  0.00    -0.346 N 
ATOM    104  C   SER d   5    1728.303 519.048-1763.730  0.00  0.00     0.243 C 
ATOM    105  O   SER d   5    1728.850 519.802-1764.535  0.00  0.00    -0.271 OA
ATOM    106  H   ILE d   6    1728.480 517.331-1762.717  0.00  0.00     0.163 HD
BRANCH 104 107
ATOM    107  CA  SER d   5    1726.944 519.354-1763.145  0.00  0.00     0.200 C 
BRANCH 107 108
ATOM    108  N   SER d   5    1726.075 518.183-1763.203  0.00  0.00    -0.344 N 
ATOM    109  C   GLU d   4    1725.847 517.630-1764.346  0.00  0.00     0.241 C 
ATOM    110  O   GLU d   4    1726.374 518.109-1765.361  0.00  0.00    -0.271 OA
ATOM    111  H   SER d   5    1725.658 517.811-1762.362  0.00  0.00     0.163 HD
BRANCH 109 112
ATOM    112  CA  GLU d   4    1724.948 516.419-1764.407  0.00  0.00     0.177 C 
BRANCH 112 113
ATOM    113  N   GLU d   4    1725.308 515.448-1763.378  0.00  0.00    -0.346 N 
ATOM    114  C   PRO d   3    1726.513 514.988-1763.346  0.00  0.00     0.241 C 
ATOM    115  O   PRO d   3    1727.336 515.371-1764.177  0.00  0.00    -0.271 OA
ATOM    116  H   GLU d   4    1724.624 515.141-1762.701  0.00  0.00     0.163 HD
BRANCH 114 117
ATOM    117  CA  PRO d   3    1726.911 513.964-1762.269  0.00  0.00     0.179 C 
ATOM    118  N   PRO d   3    1726.459 514.374-1760.947  0.00  0.00    -0.337 N 
ATOM    119  C   ASN d   2    1726.981 515.369-1760.313  0.00  0.00     0.243 C 
ATOM    120  CD  PRO d   3    1725.381 513.581-1760.398  0.00  0.00     0.127 C 
ATOM    121  O   ASN d   2    1727.896 515.999-1760.842  0.00  0.00    -0.271 OA
ATOM    122  CG  PRO d   3    1724.923 512.762-1761.608  0.00  0.00     0.022 C 
ATOM    123  CB  PRO d   3    1726.207 512.610-1762.438  0.00  0.00     0.037 C 
BRANCH 119 124
ATOM    124  CA  ASN d   2    1726.449 515.724-1758.944  0.00  0.00     0.185 C 
BRANCH 124 125
ATOM    125  N   ASN d   2    1724.990 515.763-1758.944  0.00  0.00    -0.346 N 
ATOM    126  C   GLU d   1    1724.385 516.549-1759.770  0.00  0.00     0.242 C 
ATOM    127  O   GLU d   1    1725.061 517.248-1760.538  0.00  0.00    -0.271 OA
ATOM    128  H   ASN d   2    1724.462 515.183-1758.308  0.00  0.00     0.163 HD
BRANCH 126 129
ATOM    129  CA  GLU d   1    1722.876 516.589-1759.770  0.00  0.00     0.191 C 
BRANCH 129 130
ATOM    130  N   GLU d   1    1722.318 515.240-1759.770  0.00  0.00    -0.326 NA
ATOM    131  H   GLU d   1    1722.944 514.361-1759.770  0.00  0.00     0.180 HD
ENDBRANCH 129 130
BRANCH 129 132
ATOM    132  CB  GLU d   1    1722.354 517.374-1758.533  0.00  0.00     0.047 C 
BRANCH 132 133
ATOM    133  CG  GLU d   1    1722.828 518.859-1758.422  0.00  0.00     0.116 C 
BRANCH 133 134
ATOM    134  CD  GLU d   1    1722.405 519.663-1757.207  0.00  0.00     0.172 C 
ATOM    135  OE1 GLU d   1    1721.677 519.161-1756.329  0.00  0.00    -0.648 OA
ATOM    136  OE2 GLU d   1    1722.834 520.833-1757.135  0.00  0.00    -0.648 OA
ENDBRANCH 133 134
ENDBRANCH 132 133
ENDBRANCH 129 132
ENDBRANCH 126 129
ENDBRANCH 124 125
BRANCH 124 137
ATOM    137  CB  ASN d   2    1726.941 514.701-1757.880  0.00  0.00     0.137 C 
BRANCH 137 138
ATOM    138  CG  ASN d   2    1726.478 514.925-1756.437  0.00  0.00     0.217 C 
ATOM    139  ND2 ASN d   2    1727.073 515.840-1755.719  0.00  0.00    -0.370 N 
ATOM    140 21HD ASN d   2    1726.592 516.013-1754.832  0.00  0.00     0.159 HD
ATOM    141 22HD ASN d   2    1727.774 516.412-1756.188  0.00  0.00     0.159 HD
ATOM    142  OD1 ASN d   2    1725.557 514.291-1755.943  0.00  0.00    -0.274 OA
ENDBRANCH 137 138
ENDBRANCH 124 137
ENDBRANCH 119 124
ENDBRANCH 114 117
ENDBRANCH 112 113
BRANCH 112 143
ATOM    143  CB  GLU d   4    1723.460 516.838-1764.237  0.00  0.00     0.045 C 
BRANCH 143 144
ATOM    144  CG  GLU d   4    1722.912 517.841-1765.303  0.00  0.00     0.116 C 
BRANCH 144 145
ATOM    145  CD  GLU d   4    1721.485 518.338-1765.159  0.00  0.00     0.172 C 
ATOM    146  OE1 GLU d   4    1720.759 517.940-1764.228  0.00  0.00    -0.648 OA
ATOM    147  OE2 GLU d   4    1721.096 519.167-1766.007  0.00  0.00    -0.648 OA
ENDBRANCH 144 145
ENDBRANCH 143 144
ENDBRANCH 112 143
ENDBRANCH 109 112
ENDBRANCH 107 108
BRANCH 107 148
ATOM    148  CB  SER d   5    1727.056 519.886-1761.694  0.00  0.00     0.199 C 
BRANCH 148 149
ATOM    149  OG  SER d   5    1727.787 519.007-1760.833  0.00  0.00    -0.398 OA
ATOM    150  HG  SER d   5    1727.299 518.182-1760.783  0.00  0.00     0.209 HD
ENDBRANCH 148 149
ENDBRANCH 107 148
ENDBRANCH 104 107
ENDBRANCH 102 103
BRANCH 102 151
ATOM    151  CB  ILE d   6    1730.821 516.334-1763.342  0.00  0.00     0.013 C 
ATOM    152  CG2 ILE d   6    1732.262 516.033-1763.858  0.00  0.00     0.012 C 
BRANCH 151 153
ATOM    153  CG1 ILE d   6    1730.841 516.272-1761.781  0.00  0.00     0.002 C 
ATOM    154  CD1 ILE d   6    1731.110 514.883-1761.166  0.00  0.00     0.005 C 
ENDBRANCH 151 153
ENDBRANCH 102 151
ENDBRANCH  99 102
ENDBRANCH  97  98
BRANCH  97 155
ATOM    155  CB  LEU d   7    1727.960 516.073-1767.963  0.00  0.00     0.038 C 
BRANCH 155 156
ATOM    156  CG  LEU d   7    1727.888 514.594-1767.496  0.00  0.00    -0.020 C 
ATOM    157  CD1 LEU d   7    1726.698 513.888-1768.162  0.00  0.00     0.009 C 
ATOM    158  CD2 LEU d   7    1729.182 513.815-1767.788  0.00  0.00     0.009 C 
ENDBRANCH 155 156
ENDBRANCH  97 155
ENDBRANCH  94  97
ENDBRANCH  92  93
BRANCH  92 159
ATOM    159  CB  ASP d   8    1727.104 521.357-1767.360  0.00  0.00     0.147 C 
BRANCH 159 160
ATOM    160  CG  ASP d   8    1726.885 522.778-1767.900  0.00  0.00     0.175 C 
ATOM    161  OD1 ASP d   8    1726.949 522.977-1769.131  0.00  0.00    -0.648 OA
ATOM    162  OD2 ASP d   8    1726.693 523.704-1767.084  0.00  0.00    -0.648 OA
ENDBRANCH 159 160
ENDBRANCH  92 159
ENDBRANCH  89  92
ENDBRANCH  87  88
BRANCH  87 163
ATOM    163  CB  GLU d   9    1732.145 521.599-1765.488  0.00  0.00     0.045 C 
BRANCH 163 164
ATOM    164  CG  GLU d   9    1733.527 522.292-1765.259  0.00  0.00     0.116 C 
BRANCH 164 165
ATOM    165  CD  GLU d   9    1734.229 522.079-1763.931  0.00  0.00     0.172 C 
ATOM    166  OE1 GLU d   9    1733.708 521.388-1763.035  0.00  0.00    -0.648 OA
ATOM    167  OE2 GLU d   9    1735.348 522.617-1763.799  0.00  0.00    -0.648 OA
ENDBRANCH 164 165
ENDBRANCH 163 164
ENDBRANCH  87 163
ENDBRANCH   1  87
TORSDOF 69
