REMARK WARNING: 32 MAX_TORS EXCEEDED!!!
REMARK  70 active torsions:
REMARK  status: ('A' for Active; 'I' for Inactive)
REMARK    1  A    between atoms: N_1  and  CA_2 
REMARK    2  A    between atoms: CA_2  and  C_3 
REMARK    3  A    between atoms: CA_2  and  CB_5 
REMARK       I    between atoms: C_3  and  N_11 
REMARK    4  A    between atoms: CB_5  and  CG_6 
REMARK    5  A    between atoms: CG_6  and  CD_7 
REMARK    6  A    between atoms: N_11  and  CA_12 
REMARK    7  A    between atoms: CA_12  and  C_13 
REMARK    8  A    between atoms: CA_12  and  CB_15 
REMARK       I    between atoms: C_13  and  N_22 
REMARK    9  A    between atoms: CB_15  and  CG_16 
REMARK       I    between atoms: CG_16  and  ND2_17 
REMARK   10  A    between atoms: CA_23  and  C_24 
REMARK       I    between atoms: C_24  and  N_29 
REMARK   11  A    between atoms: N_29  and  CA_30 
REMARK   12  A    between atoms: CA_30  and  C_31 
REMARK   13  A    between atoms: CA_30  and  CB_33 
REMARK       I    between atoms: C_31  and  N_39 
REMARK   14  A    between atoms: CB_33  and  CG_34 
REMARK   15  A    between atoms: CG_34  and  CD_35 
REMARK   16  A    between atoms: N_39  and  CA_40 
REMARK   17  A    between atoms: CA_40  and  C_41 
REMARK   18  A    between atoms: CA_40  and  CB_43 
REMARK       I    between atoms: C_41  and  N_47 
REMARK   19  A    between atoms: CB_43  and  OG_44 
REMARK   20  A    between atoms: N_47  and  CA_48 
REMARK   21  A    between atoms: CA_48  and  C_49 
REMARK   22  A    between atoms: CA_48  and  CB_51 
REMARK       I    between atoms: C_49  and  N_56 
REMARK   23  A    between atoms: CB_51  and  CG1_52 
REMARK   24  A    between atoms: N_56  and  CA_57 
REMARK   25  A    between atoms: CA_57  and  C_58 
REMARK   26  A    between atoms: CA_57  and  CB_60 
REMARK       I    between atoms: C_58  and  N_65 
REMARK   27  A    between atoms: CB_60  and  CG_61 
REMARK   28  A    between atoms: N_65  and  CA_66 
REMARK   29  A    between atoms: CA_66  and  C_67 
REMARK   30  A    between atoms: CA_66  and  CB_69 
REMARK       I    between atoms: C_67  and  N_74 
REMARK   31  A    between atoms: CB_69  and  CG_70 
REMARK   32  A    between atoms: N_74  and  CA_75 
REMARK   33  A    between atoms: CA_75  and  C_76 
REMARK   34  A    between atoms: CA_75  and  CB_78 
REMARK       I    between atoms: C_76  and  N_87 
REMARK   35  A    between atoms: CB_78  and  CG_79 
REMARK   36  A    between atoms: CG_79  and  CD_80 
REMARK   37  A    between atoms: CD_80  and  CE_81 
REMARK   38  A    between atoms: CE_81  and  NZ_82 
REMARK   39  A    between atoms: N_87  and  CA_88 
REMARK   40  A    between atoms: CA_88  and  C_89 
REMARK   41  A    between atoms: CA_88  and  CB_91 
REMARK       I    between atoms: C_89  and  N_99 
REMARK   42  A    between atoms: CB_91  and  CG_92 
REMARK   43  A    between atoms: N_99  and  CA_100 
REMARK   44  A    between atoms: CA_100  and  C_101 
REMARK   45  A    between atoms: CA_100  and  CB_103 
REMARK       I    between atoms: C_101  and  N_107 
REMARK   46  A    between atoms: N_107  and  CA_108 
REMARK   47  A    between atoms: CA_108  and  C_109 
REMARK   48  A    between atoms: CA_108  and  CB_111 
REMARK       I    between atoms: C_109  and  N_119 
REMARK   49  A    between atoms: CB_111  and  CG_112 
REMARK   50  A    between atoms: CG_112  and  CD_113 
REMARK       I    between atoms: CD_113  and  NE2_114 
REMARK   51  A    between atoms: N_119  and  CA_120 
REMARK   52  A    between atoms: CA_120  and  C_121 
REMARK   53  A    between atoms: CA_120  and  CB_123 
REMARK       I    between atoms: C_121  and  N_136 
REMARK   54  A    between atoms: CB_123  and  CG_124 
REMARK   55  A    between atoms: CG_124  and  CD_125 
REMARK   56  A    between atoms: CD_125  and  NE_126 
REMARK       I    between atoms: NE_126  and  CZ_127 
REMARK       I    between atoms: CZ_127  and  NH1_128 
REMARK       I    between atoms: CZ_127  and  NH2_129 
REMARK   57  A    between atoms: N_136  and  CA_137 
REMARK   58  A    between atoms: CA_137  and  C_138 
REMARK   59  A    between atoms: CA_137  and  CB_140 
REMARK       I    between atoms: C_138  and  N_144 
REMARK   60  A    between atoms: N_144  and  CA_145 
REMARK   61  A    between atoms: CA_145  and  C_146 
REMARK   62  A    between atoms: CA_145  and  CB_148 
REMARK       I    between atoms: C_146  and  N_153 
REMARK   63  A    between atoms: CB_148  and  CG_149 
REMARK   64  A    between atoms: CG_149  and  SD_150 
REMARK   65  A    between atoms: N_153  and  CA_154 
REMARK   66  A    between atoms: CA_154  and  C_155 
REMARK   67  A    between atoms: CA_154  and  CB_157 
REMARK   68  A    between atoms: CB_157  and  CG_158 
REMARK   69  A    between atoms: CG_158  and  CD_159 
REMARK   70  A    between atoms: CD_159  and  NE_160 
REMARK       I    between atoms: NE_160  and  CZ_161 
REMARK       I    between atoms: CZ_161  and  NH1_162 
ROOT
ATOM      1  C   LYS d   9    1511.034 448.743-1528.006  0.00  0.00     0.241 C 
ATOM      2  O   LYS d   9    1511.698 449.498-1528.732  0.00  0.00    -0.271 OA
ATOM      3  N   HIS d  10    1511.131 447.468-1528.176  0.00  0.00    -0.346 N 
ATOM      4  H   HIS d  10    1510.600 446.832-1527.598  0.00  0.00     0.163 HD
ENDROOT
BRANCH   1   5
ATOM      5  CA  LYS d   9    1510.115 449.270-1526.930  0.00  0.00     0.176 C 
BRANCH   5   6
ATOM      6  N   LYS d   9    1508.813 448.613-1526.986  0.00  0.00    -0.346 N 
ATOM      7  C   ASP d   8    1508.133 448.663-1528.081  0.00  0.00     0.241 C 
ATOM      8  O   ASP d   8    1508.606 449.268-1529.056  0.00  0.00    -0.271 OA
ATOM      9  H   LYS d   9    1508.449 448.126-1526.179  0.00  0.00     0.163 HD
BRANCH   7  10
ATOM     10  CA  ASP d   8    1506.786 447.983-1528.139  0.00  0.00     0.186 C 
BRANCH  10  11
ATOM     11  N   ASP d   8    1506.857 446.633-1527.586  0.00  0.00    -0.346 N 
ATOM     12  C   LEU d   7    1507.694 445.793-1528.092  0.00  0.00     0.241 C 
ATOM     13  O   LEU d   7    1508.415 446.156-1529.034  0.00  0.00    -0.271 OA
ATOM     14  H   ASP d   8    1506.259 446.362-1526.818  0.00  0.00     0.163 HD
BRANCH  12  15
ATOM     15  CA  LEU d   7    1507.767 444.397-1527.520  0.00  0.00     0.177 C 
BRANCH  15  16
ATOM     16  N   LEU d   7    1507.822 444.433-1526.062  0.00  0.00    -0.346 N 
ATOM     17  C   ILE d   6    1508.768 445.096-1525.488  0.00  0.00     0.241 C 
ATOM     18  O   ILE d   6    1509.602 445.684-1526.192  0.00  0.00    -0.271 OA
ATOM     19  H   LEU d   7    1507.130 443.946-1525.510  0.00  0.00     0.163 HD
BRANCH  17  20
ATOM     20  CA  ILE d   6    1508.825 445.134-1523.980  0.00  0.00     0.180 C 
BRANCH  20  21
ATOM     21  N   ILE d   6    1507.512 445.428-1523.414  0.00  0.00    -0.346 N 
ATOM     22  C   SER d   5    1506.907 446.512-1523.768  0.00  0.00     0.243 C 
ATOM     23  O   SER d   5    1507.454 447.265-1524.573  0.00  0.00    -0.271 OA
ATOM     24  H   ILE d   6    1507.083 444.794-1522.755  0.00  0.00     0.163 HD
BRANCH  22  25
ATOM     25  CA  SER d   5    1505.548 446.817-1523.182  0.00  0.00     0.200 C 
BRANCH  25  26
ATOM     26  N   SER d   5    1504.679 445.646-1523.240  0.00  0.00    -0.344 N 
ATOM     27  C   GLU d   4    1504.451 445.093-1524.383  0.00  0.00     0.241 C 
ATOM     28  O   GLU d   4    1504.977 445.573-1525.398  0.00  0.00    -0.271 OA
ATOM     29  H   SER d   5    1504.262 445.274-1522.399  0.00  0.00     0.163 HD
BRANCH  27  30
ATOM     30  CA  GLU d   4    1503.552 443.882-1524.445  0.00  0.00     0.177 C 
BRANCH  30  31
ATOM     31  N   GLU d   4    1503.912 442.911-1523.415  0.00  0.00    -0.346 N 
ATOM     32  C   PRO d   3    1505.117 442.451-1523.383  0.00  0.00     0.241 C 
ATOM     33  O   PRO d   3    1505.940 442.834-1524.214  0.00  0.00    -0.271 OA
ATOM     34  H   GLU d   4    1503.228 442.604-1522.738  0.00  0.00     0.163 HD
BRANCH  32  35
ATOM     35  CA  PRO d   3    1505.515 441.427-1522.306  0.00  0.00     0.179 C 
ATOM     36  N   PRO d   3    1505.063 441.836-1520.984  0.00  0.00    -0.337 N 
ATOM     37  C   ASN d   2    1505.585 442.832-1520.350  0.00  0.00     0.243 C 
ATOM     38  CD  PRO d   3    1503.985 441.043-1520.435  0.00  0.00     0.127 C 
ATOM     39  O   ASN d   2    1506.500 443.462-1520.879  0.00  0.00    -0.271 OA
ATOM     40  CG  PRO d   3    1503.528 440.225-1521.645  0.00  0.00     0.022 C 
ATOM     41  CB  PRO d   3    1504.811 440.072-1522.475  0.00  0.00     0.037 C 
BRANCH  37  42
ATOM     42  CA  ASN d   2    1505.054 443.187-1518.982  0.00  0.00     0.185 C 
BRANCH  42  43
ATOM     43  N   ASN d   2    1503.594 443.226-1518.982  0.00  0.00    -0.346 N 
ATOM     44  C   GLU d   1    1502.990 444.012-1519.807  0.00  0.00     0.242 C 
ATOM     45  O   GLU d   1    1503.666 444.711-1520.575  0.00  0.00    -0.271 OA
ATOM     46  H   ASN d   2    1503.066 442.646-1518.345  0.00  0.00     0.163 HD
BRANCH  44  47
ATOM     47  CA  GLU d   1    1501.481 444.052-1519.807  0.00  0.00     0.191 C 
BRANCH  47  48
ATOM     48  N   GLU d   1    1500.922 442.703-1519.807  0.00  0.00    -0.326 NA
ATOM     49  H   GLU d   1    1501.549 441.823-1519.807  0.00  0.00     0.180 HD
ENDBRANCH  47  48
BRANCH  47  50
ATOM     50  CB  GLU d   1    1500.958 444.836-1518.570  0.00  0.00     0.047 C 
BRANCH  50  51
ATOM     51  CG  GLU d   1    1501.433 446.322-1518.459  0.00  0.00     0.116 C 
BRANCH  51  52
ATOM     52  CD  GLU d   1    1501.009 447.125-1517.244  0.00  0.00     0.172 C 
ATOM     53  OE1 GLU d   1    1500.281 446.624-1516.366  0.00  0.00    -0.648 OA
ATOM     54  OE2 GLU d   1    1501.439 448.296-1517.172  0.00  0.00    -0.648 OA
ENDBRANCH  51  52
ENDBRANCH  50  51
ENDBRANCH  47  50
ENDBRANCH  44  47
ENDBRANCH  42  43
BRANCH  42  55
ATOM     55  CB  ASN d   2    1505.546 442.164-1517.917  0.00  0.00     0.137 C 
BRANCH  55  56
ATOM     56  CG  ASN d   2    1505.083 442.388-1516.474  0.00  0.00     0.217 C 
ATOM     57  ND2 ASN d   2    1505.677 443.303-1515.756  0.00  0.00    -0.370 N 
ATOM     58 21HD ASN d   2    1505.196 443.476-1514.869  0.00  0.00     0.159 HD
ATOM     59 22HD ASN d   2    1506.379 443.875-1516.225  0.00  0.00     0.159 HD
ATOM     60  OD1 ASN d   2    1504.162 441.754-1515.980  0.00  0.00    -0.274 OA
ENDBRANCH  55  56
ENDBRANCH  42  55
ENDBRANCH  37  42
ENDBRANCH  32  35
ENDBRANCH  30  31
BRANCH  30  61
ATOM     61  CB  GLU d   4    1502.064 444.300-1524.274  0.00  0.00     0.045 C 
BRANCH  61  62
ATOM     62  CG  GLU d   4    1501.516 445.304-1525.340  0.00  0.00     0.116 C 
BRANCH  62  63
ATOM     63  CD  GLU d   4    1500.089 445.801-1525.196  0.00  0.00     0.172 C 
ATOM     64  OE1 GLU d   4    1499.363 445.402-1524.265  0.00  0.00    -0.648 OA
ATOM     65  OE2 GLU d   4    1499.699 446.630-1526.044  0.00  0.00    -0.648 OA
ENDBRANCH  62  63
ENDBRANCH  61  62
ENDBRANCH  30  61
ENDBRANCH  27  30
ENDBRANCH  25  26
BRANCH  25  66
ATOM     66  CB  SER d   5    1505.660 447.349-1521.731  0.00  0.00     0.199 C 
BRANCH  66  67
ATOM     67  OG  SER d   5    1506.392 446.470-1520.870  0.00  0.00    -0.398 OA
ATOM     68  HG  SER d   5    1505.903 445.645-1520.820  0.00  0.00     0.209 HD
ENDBRANCH  66  67
ENDBRANCH  25  66
ENDBRANCH  22  25
ENDBRANCH  20  21
BRANCH  20  69
ATOM     69  CB  ILE d   6    1509.425 443.798-1523.380  0.00  0.00     0.013 C 
ATOM     70  CG2 ILE d   6    1510.866 443.496-1523.896  0.00  0.00     0.012 C 
BRANCH  69  71
ATOM     71  CG1 ILE d   6    1509.444 443.735-1521.819  0.00  0.00     0.002 C 
ATOM     72  CD1 ILE d   6    1509.714 442.346-1521.205  0.00  0.00     0.005 C 
ENDBRANCH  69  71
ENDBRANCH  20  69
ENDBRANCH  17  20
ENDBRANCH  15  16
BRANCH  15  73
ATOM     73  CB  LEU d   7    1506.564 443.537-1528.000  0.00  0.00     0.038 C 
BRANCH  73  74
ATOM     74  CG  LEU d   7    1506.491 442.057-1527.534  0.00  0.00    -0.020 C 
ATOM     75  CD1 LEU d   7    1505.301 441.352-1528.200  0.00  0.00     0.009 C 
ATOM     76  CD2 LEU d   7    1507.784 441.278-1527.826  0.00  0.00     0.009 C 
ENDBRANCH  73  74
ENDBRANCH  15  73
ENDBRANCH  12  15
ENDBRANCH  10  11
BRANCH  10  77
ATOM     77  CB  ASP d   8    1505.708 448.822-1527.397  0.00  0.00     0.147 C 
BRANCH  77  78
ATOM     78  CG  ASP d   8    1505.489 450.242-1527.937  0.00  0.00     0.175 C 
ATOM     79  OD1 ASP d   8    1505.553 450.442-1529.167  0.00  0.00    -0.648 OA
ATOM     80  OD2 ASP d   8    1505.297 451.168-1527.121  0.00  0.00    -0.648 OA
ENDBRANCH  77  78
ENDBRANCH  10  77
ENDBRANCH   7  10
ENDBRANCH   5   6
BRANCH   5  81
ATOM     81  CB  LYS d   9    1510.736 449.068-1525.521  0.00  0.00     0.035 C 
BRANCH  81  82
ATOM     82  CG  LYS d   9    1512.091 449.795-1525.335  0.00  0.00     0.004 C 
BRANCH  82  83
ATOM     83  CD  LYS d   9    1512.765 449.564-1523.979  0.00  0.00     0.027 C 
BRANCH  83  84
ATOM     84  CE  LYS d   9    1514.123 450.279-1523.961  0.00  0.00     0.229 C 
BRANCH  84  85
ATOM     85  NZ  LYS d   9    1514.696 450.207-1522.606  0.00  0.00    -0.079 N 
ATOM     86  3HZ LYS d   9    1514.292 450.971-1522.084  0.00  0.00     0.274 HD
ATOM     87  1HZ LYS d   9    1514.486 449.300-1522.172  0.00  0.00     0.274 HD
ATOM     88  2HZ LYS d   9    1515.719 450.281-1522.629  0.00  0.00     0.274 HD
ENDBRANCH  84  85
ENDBRANCH  83  84
ENDBRANCH  82  83
ENDBRANCH  81  82
ENDBRANCH   5  81
ENDBRANCH   1   5
BRANCH   3  89
ATOM     89  CA  HIS d  10    1512.020 446.957-1529.217  0.00  0.00     0.182 C 
BRANCH  89  90
ATOM     90  C   HIS d  10    1511.653 447.522-1530.568  0.00  0.00     0.241 C 
ATOM     91  O   HIS d  10    1512.505 447.987-1531.339  0.00  0.00    -0.271 OA
ATOM     92  N   VAL d  11    1510.415 447.521-1530.931  0.00  0.00    -0.346 N 
ATOM     93  H   VAL d  11    1509.702 447.147-1530.321  0.00  0.00     0.163 HD
BRANCH  92  94
ATOM     94  CA  VAL d  11    1510.060 448.067-1532.238  0.00  0.00     0.180 C 
BRANCH  94  95
ATOM     95  C   VAL d  11    1510.524 449.498-1532.370  0.00  0.00     0.241 C 
ATOM     96  O   VAL d  11    1511.126 449.903-1533.373  0.00  0.00    -0.271 OA
ATOM     97  N   GLN d  12    1510.287 450.323-1531.407  0.00  0.00    -0.346 N 
ATOM     98  H   GLN d  12    1509.798 450.017-1530.578  0.00  0.00     0.163 HD
BRANCH  97  99
ATOM     99  CA  GLN d  12    1510.735 451.706-1531.534  0.00  0.00     0.177 C 
BRANCH  99 100
ATOM    100  C   GLN d  12    1512.225 451.774-1531.772  0.00  0.00     0.241 C 
ATOM    101  O   GLN d  12    1512.712 452.483-1532.650  0.00  0.00    -0.271 OA
ATOM    102  N   ARG d  13    1513.010 451.067-1531.031  0.00  0.00    -0.346 N 
ATOM    103  H   ARG d  13    1512.633 450.477-1530.302  0.00  0.00     0.163 HD
BRANCH 102 104
ATOM    104  CA  ARG d  13    1514.450 451.133-1531.261  0.00  0.00     0.176 C 
BRANCH 104 105
ATOM    105  C   ARG d  13    1514.787 450.762-1532.686  0.00  0.00     0.241 C 
ATOM    106  O   ARG d  13    1515.555 451.434-1533.370  0.00  0.00    -0.271 OA
ATOM    107  N   VAL d  14    1514.251 449.708-1533.201  0.00  0.00    -0.346 N 
ATOM    108  H   VAL d  14    1513.616 449.139-1532.659  0.00  0.00     0.163 HD
BRANCH 107 109
ATOM    109  CA  VAL d  14    1514.576 449.349-1534.578  0.00  0.00     0.180 C 
BRANCH 109 110
ATOM    110  C   VAL d  14    1514.246 450.479-1535.524  0.00  0.00     0.241 C 
ATOM    111  O   VAL d  14    1515.040 450.860-1536.393  0.00  0.00    -0.271 OA
ATOM    112  N   MET d  15    1513.102 451.064-1535.422  0.00  0.00    -0.346 N 
ATOM    113  H   MET d  15    1512.437 450.771-1534.721  0.00  0.00     0.163 HD
BRANCH 112 114
ATOM    114  CA  MET d  15    1512.781 452.157-1536.336  0.00  0.00     0.177 C 
BRANCH 114 115
ATOM    115  C   MET d  15    1513.811 453.257-1536.248  0.00  0.00     0.241 C 
ATOM    116  O   MET d  15    1514.314 453.768-1537.260  0.00  0.00    -0.271 OA
ATOM    117  N   ARG d  16    1514.180 453.678-1535.085  0.00  0.00    -0.347 N 
ATOM    118  H   ARG d  16    1513.785 453.278-1534.246  0.00  0.00     0.163 HD
BRANCH 117 119
ATOM    119  CA  ARG d  16    1515.176 454.742-1535.001  0.00  0.00     0.162 C 
BRANCH 119 120
ATOM    120  C   ARG d  16    1516.447 454.349-1535.717  0.00  0.00     0.219 C 
ATOM    121  O   ARG d  16    1516.561 453.273-1536.298  0.00  0.00    -0.287 OA
ENDBRANCH 119 120
BRANCH 119 122
ATOM    122  CB  ARG d  16    1515.444 455.059-1533.502  0.00  0.00     0.035 C 
BRANCH 122 123
ATOM    123  CG  ARG d  16    1516.269 456.348-1533.229  0.00  0.00     0.023 C 
BRANCH 123 124
ATOM    124  CD  ARG d  16    1516.519 456.567-1531.728  0.00  0.00     0.138 C 
BRANCH 124 125
ATOM    125  NE  ARG d  16    1517.295 457.826-1531.526  0.00  0.00    -0.227 N 
ATOM    126  CZ  ARG d  16    1517.685 458.308-1530.350  0.00  0.00     0.665 C 
ATOM    127  NH1 ARG d  16    1517.437 457.724-1529.212  0.00  0.00    -0.235 N 
ATOM    128  NH2 ARG d  16    1518.349 459.421-1530.331  0.00  0.00    -0.235 N 
ATOM    129 11HH ARG d  16    1516.912 456.851-1529.297  0.00  0.00     0.174 HD
ATOM    130 12HH ARG d  16    1517.771 458.159-1528.350  0.00  0.00     0.174 HD
ATOM    131 21HH ARG d  16    1518.535 459.864-1531.233  0.00  0.00     0.174 HD
ATOM    132 22HH ARG d  16    1518.639 459.776-1529.418  0.00  0.00     0.174 HD
ATOM    133  HE  ARG d  16    1517.573 458.408-1532.323  0.00  0.00     0.177 HD
ENDBRANCH 124 125
ENDBRANCH 123 124
ENDBRANCH 122 123
ENDBRANCH 119 122
ENDBRANCH 117 119
ENDBRANCH 114 115
BRANCH 114 134
ATOM    134  CB  MET d  15    1511.360 452.703-1536.027  0.00  0.00     0.045 C 
BRANCH 134 135
ATOM    135  CG  MET d  15    1510.198 451.704-1536.219  0.00  0.00     0.076 C 
BRANCH 135 136
ATOM    136  SD  MET d  15    1508.624 452.570-1536.106  0.00  0.00    -0.173 SA
ATOM    137  CE  MET d  15    1507.543 451.140-1535.970  0.00  0.00     0.089 C 
ENDBRANCH 135 136
ENDBRANCH 134 135
ENDBRANCH 114 134
ENDBRANCH 112 114
ENDBRANCH 109 110
BRANCH 109 138
ATOM    138  CB  VAL d  14    1513.804 448.032-1534.986  0.00  0.00     0.009 C 
ATOM    139  CG1 VAL d  14    1513.894 447.613-1536.479  0.00  0.00     0.012 C 
ATOM    140  CG2 VAL d  14    1514.236 446.779-1534.185  0.00  0.00     0.012 C 
ENDBRANCH 109 138
ENDBRANCH 107 109
ENDBRANCH 104 105
BRANCH 104 141
ATOM    141  CB  ARG d  13    1515.163 450.194-1530.247  0.00  0.00     0.036 C 
BRANCH 141 142
ATOM    142  CG  ARG d  13    1516.708 450.348-1530.165  0.00  0.00     0.023 C 
BRANCH 142 143
ATOM    143  CD  ARG d  13    1517.335 449.360-1529.167  0.00  0.00     0.138 C 
BRANCH 143 144
ATOM    144  NE  ARG d  13    1518.812 449.567-1529.116  0.00  0.00    -0.227 N 
ATOM    145  CZ  ARG d  13    1519.660 448.876-1528.361  0.00  0.00     0.665 C 
ATOM    146  NH1 ARG d  13    1519.294 447.911-1527.564  0.00  0.00    -0.235 N 
ATOM    147  NH2 ARG d  13    1520.919 449.175-1528.417  0.00  0.00    -0.235 N 
ATOM    148 11HH ARG d  13    1518.289 447.725-1527.567  0.00  0.00     0.174 HD
ATOM    149 12HH ARG d  13    1520.007 447.428-1527.015  0.00  0.00     0.174 HD
ATOM    150 21HH ARG d  13    1521.187 449.933-1529.048  0.00  0.00     0.174 HD
ATOM    151 22HH ARG d  13    1521.554 448.634-1527.828  0.00  0.00     0.174 HD
ATOM    152  HE  ARG d  13    1519.263 450.290-1529.687  0.00  0.00     0.177 HD
ENDBRANCH 143 144
ENDBRANCH 142 143
ENDBRANCH 141 142
ENDBRANCH 104 141
ENDBRANCH 102 104
ENDBRANCH  99 100
BRANCH  99 153
ATOM    153  CB  GLN d  12    1510.344 452.474-1530.251  0.00  0.00     0.044 C 
BRANCH 153 154
ATOM    154  CG  GLN d  12    1510.704 453.995-1530.220  0.00  0.00     0.105 C 
BRANCH 154 155
ATOM    155  CD  GLN d  12    1510.401 454.809-1528.955  0.00  0.00     0.215 C 
ATOM    156  NE2 GLN d  12    1509.833 454.232-1527.926  0.00  0.00    -0.370 N 
ATOM    157 21HE GLN d  12    1509.726 454.826-1527.103  0.00  0.00     0.159 HD
ATOM    158 22HE GLN d  12    1509.670 453.228-1528.030  0.00  0.00     0.159 HD
ATOM    159  OE1 GLN d  12    1510.702 455.990-1528.877  0.00  0.00    -0.274 OA
ENDBRANCH 154 155
ENDBRANCH 153 154
ENDBRANCH  99 153
ENDBRANCH  97  99
ENDBRANCH  94  95
BRANCH  94 160
ATOM    160  CB  VAL d  11    1508.499 447.960-1532.458  0.00  0.00     0.009 C 
ATOM    161  CG1 VAL d  11    1507.931 448.664-1533.720  0.00  0.00     0.012 C 
ATOM    162  CG2 VAL d  11    1507.975 446.506-1532.531  0.00  0.00     0.012 C 
ENDBRANCH  94 160
ENDBRANCH  92  94
ENDBRANCH  89  90
BRANCH  89 163
ATOM    163  CB  HIS d  10    1511.856 445.428-1529.212  0.00  0.00     0.095 C 
BRANCH 163 164
ATOM    164  CG  HIS d  10    1513.141 444.718-1528.904  0.00  0.00     0.053 A 
ATOM    165  CD2 HIS d  10    1513.522 444.382-1527.612  0.00  0.00     0.116 A 
ATOM    166  NE2 HIS d  10    1514.737 443.750-1527.678  0.00  0.00    -0.359 N 
ATOM    167  CE1 HIS d  10    1515.000 443.754-1529.013  0.00  0.00     0.207 A 
ATOM    168  2HE HIS d  10    1515.303 443.373-1526.905  0.00  0.00     0.166 HD
ATOM    169  ND1 HIS d  10    1514.094 444.312-1529.837  0.00  0.00    -0.247 NA
ENDBRANCH 163 164
ENDBRANCH  89 163
ENDBRANCH   3  89
TORSDOF 70
