REMARK WARNING: 32 MAX_TORS EXCEEDED!!!
REMARK  70 active torsions:
REMARK  status: ('A' for Active; 'I' for Inactive)
REMARK    1  A    between atoms: N_1  and  CA_2 
REMARK    2  A    between atoms: CA_2  and  C_3 
REMARK    3  A    between atoms: CA_2  and  CB_5 
REMARK       I    between atoms: C_3  and  N_11 
REMARK    4  A    between atoms: CB_5  and  CG_6 
REMARK    5  A    between atoms: CG_6  and  CD_7 
REMARK    6  A    between atoms: N_11  and  CA_12 
REMARK    7  A    between atoms: CA_12  and  C_13 
REMARK    8  A    between atoms: CA_12  and  CB_15 
REMARK       I    between atoms: C_13  and  N_22 
REMARK    9  A    between atoms: CB_15  and  CG_16 
REMARK       I    between atoms: CG_16  and  ND2_17 
REMARK   10  A    between atoms: CA_23  and  C_24 
REMARK       I    between atoms: C_24  and  N_29 
REMARK   11  A    between atoms: N_29  and  CA_30 
REMARK   12  A    between atoms: CA_30  and  C_31 
REMARK   13  A    between atoms: CA_30  and  CB_33 
REMARK       I    between atoms: C_31  and  N_39 
REMARK   14  A    between atoms: CB_33  and  CG_34 
REMARK   15  A    between atoms: CG_34  and  CD_35 
REMARK   16  A    between atoms: N_39  and  CA_40 
REMARK   17  A    between atoms: CA_40  and  C_41 
REMARK   18  A    between atoms: CA_40  and  CB_43 
REMARK       I    between atoms: C_41  and  N_47 
REMARK   19  A    between atoms: CB_43  and  OG_44 
REMARK   20  A    between atoms: N_47  and  CA_48 
REMARK   21  A    between atoms: CA_48  and  C_49 
REMARK   22  A    between atoms: CA_48  and  CB_51 
REMARK       I    between atoms: C_49  and  N_56 
REMARK   23  A    between atoms: CB_51  and  CG1_52 
REMARK   24  A    between atoms: N_56  and  CA_57 
REMARK   25  A    between atoms: CA_57  and  C_58 
REMARK   26  A    between atoms: CA_57  and  CB_60 
REMARK       I    between atoms: C_58  and  N_65 
REMARK   27  A    between atoms: CB_60  and  CG_61 
REMARK   28  A    between atoms: N_65  and  CA_66 
REMARK   29  A    between atoms: CA_66  and  C_67 
REMARK   30  A    between atoms: CA_66  and  CB_69 
REMARK       I    between atoms: C_67  and  N_82 
REMARK   31  A    between atoms: CB_69  and  CG_70 
REMARK   32  A    between atoms: CG_70  and  CD_71 
REMARK   33  A    between atoms: CD_71  and  NE_72 
REMARK       I    between atoms: NE_72  and  CZ_73 
REMARK       I    between atoms: CZ_73  and  NH1_74 
REMARK       I    between atoms: CZ_73  and  NH2_75 
REMARK   34  A    between atoms: N_82  and  CA_83 
REMARK   35  A    between atoms: CA_83  and  C_84 
REMARK   36  A    between atoms: CA_83  and  CB_86 
REMARK       I    between atoms: C_84  and  N_92 
REMARK   37  A    between atoms: CB_86  and  CG_87 
REMARK   38  A    between atoms: CG_87  and  CD_88 
REMARK   39  A    between atoms: N_92  and  CA_93 
REMARK   40  A    between atoms: CA_93  and  C_94 
REMARK   41  A    between atoms: CA_93  and  CB_96 
REMARK       I    between atoms: C_94  and  N_104 
REMARK   42  A    between atoms: CB_96  and  CG_97 
REMARK   43  A    between atoms: N_104  and  CA_105 
REMARK   44  A    between atoms: CA_105  and  C_106 
REMARK   45  A    between atoms: CA_105  and  CB_108 
REMARK       I    between atoms: C_106  and  N_112 
REMARK   46  A    between atoms: N_112  and  CA_113 
REMARK   47  A    between atoms: CA_113  and  C_114 
REMARK   48  A    between atoms: CA_113  and  CB_116 
REMARK       I    between atoms: C_114  and  N_124 
REMARK   49  A    between atoms: CB_116  and  CG_117 
REMARK   50  A    between atoms: CG_117  and  CD_118 
REMARK       I    between atoms: CD_118  and  NE2_119 
REMARK   51  A    between atoms: N_124  and  CA_125 
REMARK   52  A    between atoms: CA_125  and  C_126 
REMARK   53  A    between atoms: CA_125  and  CB_128 
REMARK       I    between atoms: C_126  and  N_141 
REMARK   54  A    between atoms: CB_128  and  CG_129 
REMARK   55  A    between atoms: CG_129  and  CD_130 
REMARK   56  A    between atoms: CD_130  and  NE_131 
REMARK       I    between atoms: NE_131  and  CZ_132 
REMARK       I    between atoms: CZ_132  and  NH1_133 
REMARK       I    between atoms: CZ_132  and  NH2_134 
REMARK   57  A    between atoms: N_141  and  CA_142 
REMARK   58  A    between atoms: CA_142  and  C_143 
REMARK   59  A    between atoms: CA_142  and  CB_145 
REMARK       I    between atoms: C_143  and  N_149 
REMARK   60  A    between atoms: N_149  and  CA_150 
REMARK   61  A    between atoms: CA_150  and  C_151 
REMARK   62  A    between atoms: CA_150  and  CB_153 
REMARK       I    between atoms: C_151  and  N_158 
REMARK   63  A    between atoms: CB_153  and  CG_154 
REMARK   64  A    between atoms: CG_154  and  SD_155 
REMARK   65  A    between atoms: N_158  and  CA_159 
REMARK   66  A    between atoms: CA_159  and  C_160 
REMARK   67  A    between atoms: CA_159  and  CB_162 
REMARK   68  A    between atoms: CB_162  and  CG_163 
REMARK   69  A    between atoms: CG_163  and  CD_164 
REMARK   70  A    between atoms: CD_164  and  NE_165 
REMARK       I    between atoms: NE_165  and  CZ_166 
REMARK       I    between atoms: CZ_166  and  NH1_167 
ROOT
ATOM      1  CA  GLU d   9    1354.083 398.453-1358.507  0.00  0.00     0.177 C 
ENDROOT
BRANCH   1   2
ATOM      2  N   GLU d   9    1352.780 397.797-1358.563  0.00  0.00    -0.346 N 
ATOM      3  C   ARG d   8    1352.101 397.848-1359.659  0.00  0.00     0.241 C 
ATOM      4  O   ARG d   8    1352.571 398.447-1360.624  0.00  0.00    -0.271 OA
ATOM      5  H   GLU d   9    1352.415 397.311-1357.757  0.00  0.00     0.163 HD
BRANCH   3   6
ATOM      6  CA  ARG d   8    1350.752 397.169-1359.717  0.00  0.00     0.176 C 
BRANCH   6   7
ATOM      7  N   ARG d   8    1350.823 395.820-1359.164  0.00  0.00    -0.346 N 
ATOM      8  C   LEU d   7    1351.660 394.980-1359.670  0.00  0.00     0.241 C 
ATOM      9  O   LEU d   7    1352.380 395.343-1360.612  0.00  0.00    -0.271 OA
ATOM     10  H   ARG d   8    1350.225 395.549-1358.396  0.00  0.00     0.163 HD
BRANCH   8  11
ATOM     11  CA  LEU d   7    1351.732 393.584-1359.098  0.00  0.00     0.177 C 
BRANCH  11  12
ATOM     12  N   LEU d   7    1351.787 393.620-1357.640  0.00  0.00    -0.346 N 
ATOM     13  C   ILE d   6    1352.733 394.284-1357.066  0.00  0.00     0.241 C 
ATOM     14  O   ILE d   6    1353.568 394.871-1357.770  0.00  0.00    -0.271 OA
ATOM     15  H   LEU d   7    1351.096 393.133-1357.088  0.00  0.00     0.163 HD
BRANCH  13  16
ATOM     16  CA  ILE d   6    1352.791 394.321-1355.558  0.00  0.00     0.180 C 
BRANCH  16  17
ATOM     17  N   ILE d   6    1351.478 394.616-1354.992  0.00  0.00    -0.346 N 
ATOM     18  C   SER d   5    1350.873 395.699-1355.346  0.00  0.00     0.243 C 
ATOM     19  O   SER d   5    1351.420 396.452-1356.151  0.00  0.00    -0.271 OA
ATOM     20  H   ILE d   6    1351.049 393.981-1354.333  0.00  0.00     0.163 HD
BRANCH  18  21
ATOM     21  CA  SER d   5    1349.514 396.004-1354.760  0.00  0.00     0.200 C 
BRANCH  21  22
ATOM     22  N   SER d   5    1348.645 394.833-1354.818  0.00  0.00    -0.344 N 
ATOM     23  C   GLU d   4    1348.417 394.280-1355.961  0.00  0.00     0.241 C 
ATOM     24  O   GLU d   4    1348.943 394.760-1356.976  0.00  0.00    -0.271 OA
ATOM     25  H   SER d   5    1348.228 394.461-1353.977  0.00  0.00     0.163 HD
BRANCH  23  26
ATOM     26  CA  GLU d   4    1347.518 393.069-1356.023  0.00  0.00     0.177 C 
BRANCH  26  27
ATOM     27  N   GLU d   4    1347.878 392.098-1354.993  0.00  0.00    -0.346 N 
ATOM     28  C   PRO d   3    1349.083 391.638-1354.961  0.00  0.00     0.241 C 
ATOM     29  O   PRO d   3    1349.906 392.021-1355.792  0.00  0.00    -0.271 OA
ATOM     30  H   GLU d   4    1347.194 391.791-1354.316  0.00  0.00     0.163 HD
BRANCH  28  31
ATOM     31  CA  PRO d   3    1349.481 390.614-1353.884  0.00  0.00     0.179 C 
ATOM     32  N   PRO d   3    1349.029 391.024-1352.562  0.00  0.00    -0.337 N 
ATOM     33  C   ASN d   2    1349.551 392.019-1351.928  0.00  0.00     0.243 C 
ATOM     34  CD  PRO d   3    1347.951 390.230-1352.013  0.00  0.00     0.127 C 
ATOM     35  O   ASN d   2    1350.465 392.649-1352.457  0.00  0.00    -0.271 OA
ATOM     36  CG  PRO d   3    1347.494 389.412-1353.223  0.00  0.00     0.022 C 
ATOM     37  CB  PRO d   3    1348.777 389.260-1354.053  0.00  0.00     0.037 C 
BRANCH  33  38
ATOM     38  CA  ASN d   2    1349.020 392.374-1350.560  0.00  0.00     0.185 C 
BRANCH  38  39
ATOM     39  N   ASN d   2    1347.560 392.413-1350.560  0.00  0.00    -0.346 N 
ATOM     40  C   GLU d   1    1346.956 393.199-1351.385  0.00  0.00     0.242 C 
ATOM     41  O   GLU d   1    1347.632 393.898-1352.153  0.00  0.00    -0.271 OA
ATOM     42  H   ASN d   2    1347.032 391.833-1349.923  0.00  0.00     0.163 HD
BRANCH  40  43
ATOM     43  CA  GLU d   1    1345.447 393.239-1351.385  0.00  0.00     0.191 C 
BRANCH  43  44
ATOM     44  N   GLU d   1    1344.888 391.890-1351.385  0.00  0.00    -0.326 NA
ATOM     45  H   GLU d   1    1345.515 391.011-1351.385  0.00  0.00     0.180 HD
ENDBRANCH  43  44
BRANCH  43  46
ATOM     46  CB  GLU d   1    1344.924 394.024-1350.148  0.00  0.00     0.047 C 
BRANCH  46  47
ATOM     47  CG  GLU d   1    1345.399 395.509-1350.037  0.00  0.00     0.116 C 
BRANCH  47  48
ATOM     48  CD  GLU d   1    1344.975 396.313-1348.822  0.00  0.00     0.172 C 
ATOM     49  OE1 GLU d   1    1344.247 395.811-1347.944  0.00  0.00    -0.648 OA
ATOM     50  OE2 GLU d   1    1345.405 397.483-1348.750  0.00  0.00    -0.648 OA
ENDBRANCH  47  48
ENDBRANCH  46  47
ENDBRANCH  43  46
ENDBRANCH  40  43
ENDBRANCH  38  39
BRANCH  38  51
ATOM     51  CB  ASN d   2    1349.512 391.351-1349.495  0.00  0.00     0.137 C 
BRANCH  51  52
ATOM     52  CG  ASN d   2    1349.049 391.575-1348.052  0.00  0.00     0.217 C 
ATOM     53  ND2 ASN d   2    1349.643 392.490-1347.334  0.00  0.00    -0.370 N 
ATOM     54 21HD ASN d   2    1349.162 392.663-1346.447  0.00  0.00     0.159 HD
ATOM     55 22HD ASN d   2    1350.344 393.062-1347.803  0.00  0.00     0.159 HD
ATOM     56  OD1 ASN d   2    1348.128 390.941-1347.558  0.00  0.00    -0.274 OA
ENDBRANCH  51  52
ENDBRANCH  38  51
ENDBRANCH  33  38
ENDBRANCH  28  31
ENDBRANCH  26  27
BRANCH  26  57
ATOM     57  CB  GLU d   4    1346.030 393.487-1355.852  0.00  0.00     0.045 C 
BRANCH  57  58
ATOM     58  CG  GLU d   4    1345.481 394.491-1356.918  0.00  0.00     0.116 C 
BRANCH  58  59
ATOM     59  CD  GLU d   4    1344.055 394.988-1356.774  0.00  0.00     0.172 C 
ATOM     60  OE1 GLU d   4    1343.329 394.589-1355.843  0.00  0.00    -0.648 OA
ATOM     61  OE2 GLU d   4    1343.665 395.817-1357.622  0.00  0.00    -0.648 OA
ENDBRANCH  58  59
ENDBRANCH  57  58
ENDBRANCH  26  57
ENDBRANCH  23  26
ENDBRANCH  21  22
BRANCH  21  62
ATOM     62  CB  SER d   5    1349.626 396.536-1353.309  0.00  0.00     0.199 C 
BRANCH  62  63
ATOM     63  OG  SER d   5    1350.358 395.657-1352.448  0.00  0.00    -0.398 OA
ATOM     64  HG  SER d   5    1349.869 394.832-1352.398  0.00  0.00     0.209 HD
ENDBRANCH  62  63
ENDBRANCH  21  62
ENDBRANCH  18  21
ENDBRANCH  16  17
BRANCH  16  65
ATOM     65  CB  ILE d   6    1353.391 392.985-1354.958  0.00  0.00     0.013 C 
ATOM     66  CG2 ILE d   6    1354.832 392.683-1355.474  0.00  0.00     0.012 C 
BRANCH  65  67
ATOM     67  CG1 ILE d   6    1353.410 392.922-1353.397  0.00  0.00     0.002 C 
ATOM     68  CD1 ILE d   6    1353.680 391.533-1352.783  0.00  0.00     0.005 C 
ENDBRANCH  65  67
ENDBRANCH  16  65
ENDBRANCH  13  16
ENDBRANCH  11  12
BRANCH  11  69
ATOM     69  CB  LEU d   7    1350.529 392.724-1359.578  0.00  0.00     0.038 C 
BRANCH  69  70
ATOM     70  CG  LEU d   7    1350.457 391.245-1359.112  0.00  0.00    -0.020 C 
ATOM     71  CD1 LEU d   7    1349.267 390.539-1359.778  0.00  0.00     0.009 C 
ATOM     72  CD2 LEU d   7    1351.750 390.466-1359.404  0.00  0.00     0.009 C 
ENDBRANCH  69  70
ENDBRANCH  11  69
ENDBRANCH   8  11
ENDBRANCH   6   7
BRANCH   6  73
ATOM     73  CB  ARG d   8    1349.678 397.976-1358.935  0.00  0.00     0.036 C 
BRANCH  73  74
ATOM     74  CG  ARG d   8    1349.276 399.340-1359.564  0.00  0.00     0.023 C 
BRANCH  74  75
ATOM     75  CD  ARG d   8    1348.237 400.087-1358.710  0.00  0.00     0.138 C 
BRANCH  75  76
ATOM     76  NE  ARG d   8    1347.876 401.375-1359.372  0.00  0.00    -0.227 N 
ATOM     77  CZ  ARG d   8    1347.011 402.266-1358.898  0.00  0.00     0.665 C 
ATOM     78  NH1 ARG d   8    1346.367 402.121-1357.774  0.00  0.00    -0.235 N 
ATOM     79  NH2 ARG d   8    1346.792 403.340-1359.590  0.00  0.00    -0.235 N 
ATOM     80 11HH ARG d   8    1346.586 401.254-1357.277  0.00  0.00     0.174 HD
ATOM     81 12HH ARG d   8    1345.718 402.852-1357.479  0.00  0.00     0.174 HD
ATOM     82 21HH ARG d   8    1347.306 403.437-1360.468  0.00  0.00     0.174 HD
ATOM     83 22HH ARG d   8    1346.123 404.011-1359.211  0.00  0.00     0.174 HD
ATOM     84  HE  ARG d   8    1348.296 401.644-1360.268  0.00  0.00     0.177 HD
ENDBRANCH  75  76
ENDBRANCH  74  75
ENDBRANCH  73  74
ENDBRANCH   6  73
ENDBRANCH   3   6
ENDBRANCH   1   2
BRANCH   1  85
ATOM     85  C   GLU d   9    1355.001 397.924-1359.582  0.00  0.00     0.241 C 
ATOM     86  O   GLU d   9    1355.667 398.678-1360.307  0.00  0.00    -0.271 OA
ATOM     87  N   HIS d  10    1355.096 396.649-1359.752  0.00  0.00    -0.346 N 
ATOM     88  H   HIS d  10    1354.564 396.014-1359.174  0.00  0.00     0.163 HD
BRANCH  87  89
ATOM     89  CA  HIS d  10    1355.984 396.137-1360.792  0.00  0.00     0.182 C 
BRANCH  89  90
ATOM     90  C   HIS d  10    1355.620 396.703-1362.143  0.00  0.00     0.241 C 
ATOM     91  O   HIS d  10    1356.473 397.167-1362.914  0.00  0.00    -0.271 OA
ATOM     92  N   VAL d  11    1354.382 396.704-1362.507  0.00  0.00    -0.346 N 
ATOM     93  H   VAL d  11    1353.668 396.331-1361.897  0.00  0.00     0.163 HD
BRANCH  92  94
ATOM     94  CA  VAL d  11    1354.029 397.251-1363.814  0.00  0.00     0.180 C 
BRANCH  94  95
ATOM     95  C   VAL d  11    1354.495 398.681-1363.945  0.00  0.00     0.241 C 
ATOM     96  O   VAL d  11    1355.097 399.085-1364.948  0.00  0.00    -0.271 OA
ATOM     97  N   GLN d  12    1354.258 399.506-1362.983  0.00  0.00    -0.346 N 
ATOM     98  H   GLN d  12    1353.768 399.201-1362.154  0.00  0.00     0.163 HD
BRANCH  97  99
ATOM     99  CA  GLN d  12    1354.708 400.889-1363.109  0.00  0.00     0.177 C 
BRANCH  99 100
ATOM    100  C   GLN d  12    1356.199 400.954-1363.346  0.00  0.00     0.241 C 
ATOM    101  O   GLN d  12    1356.687 401.662-1364.224  0.00  0.00    -0.271 OA
ATOM    102  N   ARG d  13    1356.982 400.246-1362.604  0.00  0.00    -0.346 N 
ATOM    103  H   ARG d  13    1356.604 399.657-1361.876  0.00  0.00     0.163 HD
BRANCH 102 104
ATOM    104  CA  ARG d  13    1358.422 400.310-1362.834  0.00  0.00     0.176 C 
BRANCH 104 105
ATOM    105  C   ARG d  13    1358.759 399.939-1364.259  0.00  0.00     0.241 C 
ATOM    106  O   ARG d  13    1359.529 400.609-1364.942  0.00  0.00    -0.271 OA
ATOM    107  N   VAL d  14    1358.222 398.885-1364.774  0.00  0.00    -0.346 N 
ATOM    108  H   VAL d  14    1357.586 398.317-1364.233  0.00  0.00     0.163 HD
BRANCH 107 109
ATOM    109  CA  VAL d  14    1358.547 398.526-1366.151  0.00  0.00     0.180 C 
BRANCH 109 110
ATOM    110  C   VAL d  14    1358.219 399.656-1367.097  0.00  0.00     0.241 C 
ATOM    111  O   VAL d  14    1359.013 400.037-1367.966  0.00  0.00    -0.271 OA
ATOM    112  N   MET d  15    1357.075 400.244-1366.996  0.00  0.00    -0.346 N 
ATOM    113  H   MET d  15    1356.409 399.952-1366.295  0.00  0.00     0.163 HD
BRANCH 112 114
ATOM    114  CA  MET d  15    1356.757 401.337-1367.909  0.00  0.00     0.177 C 
BRANCH 114 115
ATOM    115  C   MET d  15    1357.788 402.436-1367.820  0.00  0.00     0.241 C 
ATOM    116  O   MET d  15    1358.292 402.946-1368.833  0.00  0.00    -0.271 OA
ATOM    117  N   ARG d  16    1358.157 402.856-1366.658  0.00  0.00    -0.347 N 
ATOM    118  H   ARG d  16    1357.761 402.456-1365.819  0.00  0.00     0.163 HD
BRANCH 117 119
ATOM    119  CA  ARG d  16    1359.155 403.918-1366.573  0.00  0.00     0.162 C 
BRANCH 119 120
ATOM    120  C   ARG d  16    1360.425 403.524-1367.289  0.00  0.00     0.219 C 
ATOM    121  O   ARG d  16    1360.538 402.448-1367.870  0.00  0.00    -0.287 OA
ENDBRANCH 119 120
BRANCH 119 122
ATOM    122  CB  ARG d  16    1359.423 404.236-1365.075  0.00  0.00     0.035 C 
BRANCH 122 123
ATOM    123  CG  ARG d  16    1360.250 405.523-1364.801  0.00  0.00     0.023 C 
BRANCH 123 124
ATOM    124  CD  ARG d  16    1360.499 405.742-1363.300  0.00  0.00     0.138 C 
BRANCH 124 125
ATOM    125  NE  ARG d  16    1361.277 407.000-1363.098  0.00  0.00    -0.227 N 
ATOM    126  CZ  ARG d  16    1361.668 407.482-1361.922  0.00  0.00     0.665 C 
ATOM    127  NH1 ARG d  16    1361.419 406.898-1360.784  0.00  0.00    -0.235 N 
ATOM    128  NH2 ARG d  16    1362.334 408.593-1361.903  0.00  0.00    -0.235 N 
ATOM    129 11HH ARG d  16    1360.892 406.025-1360.869  0.00  0.00     0.174 HD
ATOM    130 12HH ARG d  16    1361.754 407.333-1359.922  0.00  0.00     0.174 HD
ATOM    131 21HH ARG d  16    1362.521 409.036-1362.805  0.00  0.00     0.174 HD
ATOM    132 22HH ARG d  16    1362.624 408.948-1360.990  0.00  0.00     0.174 HD
ATOM    133  HE  ARG d  16    1361.557 407.581-1363.895  0.00  0.00     0.177 HD
ENDBRANCH 124 125
ENDBRANCH 123 124
ENDBRANCH 122 123
ENDBRANCH 119 122
ENDBRANCH 117 119
ENDBRANCH 114 115
BRANCH 114 134
ATOM    134  CB  MET d  15    1355.336 401.885-1367.601  0.00  0.00     0.045 C 
BRANCH 134 135
ATOM    135  CG  MET d  15    1354.173 400.888-1367.794  0.00  0.00     0.076 C 
BRANCH 135 136
ATOM    136  SD  MET d  15    1352.600 401.756-1367.680  0.00  0.00    -0.173 SA
ATOM    137  CE  MET d  15    1351.517 400.328-1367.545  0.00  0.00     0.089 C 
ENDBRANCH 135 136
ENDBRANCH 134 135
ENDBRANCH 114 134
ENDBRANCH 112 114
ENDBRANCH 109 110
BRANCH 109 138
ATOM    138  CB  VAL d  14    1357.773 397.210-1366.559  0.00  0.00     0.009 C 
ATOM    139  CG1 VAL d  14    1357.862 396.792-1368.053  0.00  0.00     0.012 C 
ATOM    140  CG2 VAL d  14    1358.203 395.957-1365.759  0.00  0.00     0.012 C 
ENDBRANCH 109 138
ENDBRANCH 107 109
ENDBRANCH 104 105
BRANCH 104 141
ATOM    141  CB  ARG d  13    1359.133 399.369-1361.820  0.00  0.00     0.036 C 
BRANCH 141 142
ATOM    142  CG  ARG d  13    1360.679 399.520-1361.738  0.00  0.00     0.023 C 
BRANCH 142 143
ATOM    143  CD  ARG d  13    1361.303 398.531-1360.740  0.00  0.00     0.138 C 
BRANCH 143 144
ATOM    144  NE  ARG d  13    1362.781 398.736-1360.688  0.00  0.00    -0.227 N 
ATOM    145  CZ  ARG d  13    1363.627 398.043-1359.932  0.00  0.00     0.665 C 
ATOM    146  NH1 ARG d  13    1363.260 397.079-1359.136  0.00  0.00    -0.235 N 
ATOM    147  NH2 ARG d  13    1364.887 398.340-1359.988  0.00  0.00    -0.235 N 
ATOM    148 11HH ARG d  13    1362.254 396.894-1359.140  0.00  0.00     0.174 HD
ATOM    149 12HH ARG d  13    1363.972 396.594-1358.587  0.00  0.00     0.174 HD
ATOM    150 21HH ARG d  13    1365.156 399.098-1360.619  0.00  0.00     0.174 HD
ATOM    151 22HH ARG d  13    1365.521 397.797-1359.399  0.00  0.00     0.174 HD
ATOM    152  HE  ARG d  13    1363.233 399.458-1361.258  0.00  0.00     0.177 HD
ENDBRANCH 143 144
ENDBRANCH 142 143
ENDBRANCH 141 142
ENDBRANCH 104 141
ENDBRANCH 102 104
ENDBRANCH  99 100
BRANCH  99 153
ATOM    153  CB  GLN d  12    1354.318 401.656-1361.826  0.00  0.00     0.044 C 
BRANCH 153 154
ATOM    154  CG  GLN d  12    1354.680 403.178-1361.794  0.00  0.00     0.105 C 
BRANCH 154 155
ATOM    155  CD  GLN d  12    1354.378 403.991-1360.529  0.00  0.00     0.215 C 
ATOM    156  NE2 GLN d  12    1353.809 403.415-1359.501  0.00  0.00    -0.370 N 
ATOM    157 21HE GLN d  12    1353.702 404.009-1358.677  0.00  0.00     0.159 HD
ATOM    158 22HE GLN d  12    1353.644 402.412-1359.605  0.00  0.00     0.159 HD
ATOM    159  OE1 GLN d  12    1354.681 405.172-1360.451  0.00  0.00    -0.274 OA
ENDBRANCH 154 155
ENDBRANCH 153 154
ENDBRANCH  99 153
ENDBRANCH  97  99
ENDBRANCH  94  95
BRANCH  94 160
ATOM    160  CB  VAL d  11    1352.468 397.146-1364.035  0.00  0.00     0.009 C 
ATOM    161  CG1 VAL d  11    1351.901 397.851-1365.298  0.00  0.00     0.012 C 
ATOM    162  CG2 VAL d  11    1351.941 395.693-1364.109  0.00  0.00     0.012 C 
ENDBRANCH  94 160
ENDBRANCH  92  94
ENDBRANCH  89  90
BRANCH  89 163
ATOM    163  CB  HIS d  10    1355.818 394.608-1360.788  0.00  0.00     0.095 C 
BRANCH 163 164
ATOM    164  CG  HIS d  10    1357.103 393.897-1360.479  0.00  0.00     0.053 A 
ATOM    165  CD2 HIS d  10    1357.482 393.560-1359.186  0.00  0.00     0.116 A 
ATOM    166  NE2 HIS d  10    1358.696 392.927-1359.252  0.00  0.00    -0.359 N 
ATOM    167  CE1 HIS d  10    1358.960 392.930-1360.587  0.00  0.00     0.207 A 
ATOM    168  2HE HIS d  10    1359.262 392.549-1358.479  0.00  0.00     0.166 HD
ATOM    169  ND1 HIS d  10    1358.055 393.490-1361.411  0.00  0.00    -0.247 NA
ENDBRANCH 163 164
ENDBRANCH  89 163
ENDBRANCH  87  89
ENDBRANCH   1  85
BRANCH   1 170
ATOM    170  CB  GLU d   9    1354.715 398.244-1357.101  0.00  0.00     0.045 C 
BRANCH 170 171
ATOM    171  CG  GLU d   9    1356.099 398.934-1356.870  0.00  0.00     0.116 C 
BRANCH 171 172
ATOM    172  CD  GLU d   9    1356.799 398.719-1355.541  0.00  0.00     0.172 C 
ATOM    173  OE1 GLU d   9    1356.276 398.029-1354.646  0.00  0.00    -0.648 OA
ATOM    174  OE2 GLU d   9    1357.919 399.256-1355.409  0.00  0.00    -0.648 OA
ENDBRANCH 171 172
ENDBRANCH 170 171
ENDBRANCH   1 170
TORSDOF 70
