@<TRIPOS>MOLECULE
10-14
262 262 16              
SMALL
USER_CHARGES
@<TRIPOS>ATOM
1	   N	1623.879	482.983	-1653.112	N.3	1	GLU1	-0.516	
2	  CA	1624.438	484.332	-1653.112	C.3	1	GLU1	0.040	
3	   C	1625.947	484.292	-1653.112	C.2	1	GLU1	0.537	
4	   O	1626.623	484.991	-1653.881	O.2	1	GLU1	-0.582	
5	  CB	1623.915	485.117	-1651.875	C.3	1	GLU1	0.056	
6	  CG	1624.390	486.602	-1651.764	C.3	1	GLU1	0.014	
7	  CD	1623.966	487.406	-1650.549	C.2	1	GLU1	0.805	
8	 OE1	1623.238	486.904	-1649.671	O.co2	1	GLU1	-0.819	
9	 OE2	1624.396	488.576	-1650.477	O.co2	1	GLU1	-0.819	
10	   H	1624.506	482.104	-1653.112	 H	1	GLU1	0.294	
11	  HA	1624.112	484.850	-1654.032	 H	1	GLU1	0.111	
12	 2HB	1624.204	484.586	-1650.945	 H	1	GLU1	-0.017	
13	 3HB	1622.808	485.107	-1651.862	 H	1	GLU1	-0.017	
14	 2HG	1624.080	487.187	-1652.645	 H	1	GLU1	-0.043	
15	 3HG	1625.490	486.669	-1651.735	 H	1	GLU1	-0.043	
16	   N	1626.552	483.506	-1652.287	N.am	2	ASN2	-0.416	
17	  CA	1628.011	483.468	-1652.287	C.3	2	ASN2	0.014	
18	   C	1628.542	483.112	-1653.656	C.2	2	ASN2	0.597	
19	   O	1629.457	483.743	-1654.184	O.2	2	ASN2	-0.568	
20	  CB	1628.503	482.445	-1651.223	C.3	2	ASN2	-0.204	
21	  CG	1628.040	482.669	-1649.779	C.2	2	ASN2	0.713	
22	 ND2	1628.635	483.584	-1649.061	N.pl3	2	ASN2	-0.919	
23	 OD1	1627.120	482.035	-1649.285	O.2	2	ASN2	-0.593	
24	   H	1626.024	482.927	-1651.650	 H	2	ASN2	0.272	
25	  HA	1628.389	484.478	-1652.042	 H	2	ASN2	0.105	
26	 2HB	1629.608	482.386	-1651.226	 H	2	ASN2	0.080	
27	 3HB	1628.174	481.427	-1651.508	 H	2	ASN2	0.080	
28	1HD2	1628.154	483.757	-1648.175	 H	2	ASN2	0.420	
29	2HD2	1629.336	484.155	-1649.530	 H	2	ASN2	0.420	
30	   N	1628.021	482.117	-1654.290	N.am	3	PRO3	-0.255	
31	  CA	1628.473	481.708	-1655.611	C.3	3	PRO3	-0.027	
32	   C	1628.074	482.731	-1656.688	C.2	3	PRO3	0.590	
33	   O	1628.898	483.115	-1657.520	O.2	3	PRO3	-0.575	
34	  CB	1627.769	480.353	-1655.781	C.3	3	PRO3	-0.007	
35	  CG	1626.485	480.505	-1654.950	C.3	3	PRO3	0.019	
36	  CD	1626.943	481.324	-1653.741	C.3	3	PRO3	0.019	
37	  HA	1629.559	481.588	-1655.625	 H	3	PRO3	0.064	
38	 2HB	1628.391	479.572	-1655.340	 H	3	PRO3	0.025	
39	 3HB	1627.570	480.105	-1656.826	 H	3	PRO3	0.025	
40	 2HG	1626.058	479.543	-1654.659	 H	3	PRO3	0.021	
41	 3HG	1625.748	481.076	-1655.518	 H	3	PRO3	0.021	
42	 2HD	1627.332	480.675	-1652.953	 H	3	PRO3	0.039	
43	 3HD	1626.146	481.960	-1653.347	 H	3	PRO3	0.039	
44	   N	1626.870	483.191	-1656.720	N.am	4	GLU4	-0.516	
45	  CA	1626.510	484.162	-1657.750	C.3	4	GLU4	0.040	
46	   C	1627.409	485.374	-1657.689	C.2	4	GLU4	0.537	
47	   O	1627.935	485.853	-1658.703	O.2	4	GLU4	-0.582	
48	  CB	1625.021	484.581	-1657.579	C.3	4	GLU4	0.056	
49	  CG	1624.473	485.585	-1658.645	C.3	4	GLU4	0.014	
50	  CD	1623.047	486.081	-1658.501	C.2	4	GLU4	0.805	
51	 OE1	1622.320	485.683	-1657.570	O.co2	4	GLU4	-0.819	
52	 OE2	1622.657	486.911	-1659.349	O.co2	4	GLU4	-0.819	
53	   H	1626.186	482.885	-1656.044	 H	4	GLU4	0.294	
54	  HA	1626.641	483.692	-1658.741	 H	4	GLU4	0.111	
55	 2HB	1624.869	485.021	-1656.573	 H	4	GLU4	-0.017	
56	 3HB	1624.374	483.683	-1657.585	 H	4	GLU4	-0.017	
57	 2HG	1624.555	485.170	-1659.663	 H	4	GLU4	-0.043	
58	 3HG	1625.061	486.517	-1658.656	 H	4	GLU4	-0.043	
59	   N	1627.636	485.926	-1656.546	N.am	5	SER5	-0.416	
60	  CA	1628.506	487.098	-1656.487	C.3	5	SER5	-0.025	
61	   C	1629.865	486.792	-1657.073	C.2	5	SER5	0.597	
62	   O	1630.411	487.546	-1657.878	O.2	5	SER5	-0.568	
63	  CB	1628.617	487.630	-1655.036	C.3	5	SER5	0.212	
64	  OG	1629.349	486.750	-1654.176	O.3	5	SER5	-0.655	
65	   H	1627.219	485.555	-1655.704	 H	5	SER5	0.272	
66	  HA	1628.056	487.888	-1657.116	 H	5	SER5	0.084	
67	 2HB	1627.618	487.823	-1654.603	 H	5	SER5	0.035	
68	 3HB	1629.123	488.615	-1655.039	 H	5	SER5	0.035	
69	  HG	1628.861	485.925	-1654.125	 H	5	SER5	0.428	
70	   N	1630.469	485.709	-1656.719	N.am	6	ILE6	-0.416	
71	  CA	1631.782	485.415	-1657.285	C.3	6	ILE6	-0.060	
72	   C	1631.725	485.377	-1658.793	C.2	6	ILE6	0.597	
73	   O	1632.560	485.965	-1659.497	O.2	6	ILE6	-0.568	
74	  CB	1632.382	484.078	-1656.686	C.3	6	ILE6	0.130	
75	 CG1	1632.402	484.016	-1655.125	C.3	6	ILE6	-0.043	
76	 CG2	1633.824	483.777	-1657.201	C.3	6	ILE6	-0.320	
77	 CD1	1632.672	482.627	-1654.510	C.3	6	ILE6	-0.066	
78	   H	1630.041	485.075	-1656.060	 H	6	ILE6	0.272	
79	  HA	1632.457	486.249	-1657.018	 H	6	ILE6	0.087	
80	  HB	1631.724	483.252	-1657.030	 H	6	ILE6	0.019	
81	2HG1	1631.420	484.336	-1654.729	 H	6	ILE6	0.024	
82	3HG1	1633.118	484.758	-1654.720	 H	6	ILE6	0.024	
83	1HG2	1633.882	483.683	-1658.299	 H	6	ILE6	0.088	
84	2HG2	1634.546	484.559	-1656.899	 H	6	ILE6	0.088	
85	3HG2	1634.214	482.815	-1656.823	 H	6	ILE6	0.088	
86	1HD1	1631.944	481.873	-1654.865	 H	6	ILE6	0.019	
87	2HD1	1633.683	482.248	-1654.746	 H	6	ILE6	0.019	
88	3HD1	1632.596	482.657	-1653.407	 H	6	ILE6	0.019	
89	   N	1630.779	484.714	-1659.367	N.am	7	LEU7	-0.416	
90	  CA	1630.724	484.678	-1660.825	C.3	7	LEU7	-0.052	
91	   C	1630.652	486.073	-1661.398	C.2	7	LEU7	0.597	
92	   O	1631.372	486.436	-1662.339	O.2	7	LEU7	-0.568	
93	  CB	1629.521	483.818	-1661.306	C.3	7	LEU7	-0.110	
94	  CG	1629.448	482.338	-1660.839	C.3	7	LEU7	0.353	
95	 CD1	1628.259	481.632	-1661.505	C.3	7	LEU7	-0.412	
96	 CD2	1630.742	481.559	-1661.131	C.3	7	LEU7	-0.412	
97	   H	1630.087	484.227	-1658.815	 H	7	LEU7	0.272	
98	  HA	1631.666	484.238	-1661.200	 H	7	LEU7	0.092	
99	 2HB	1629.498	483.834	-1662.413	 H	7	LEU7	0.046	
100	 3HB	1628.581	484.320	-1661.001	 H	7	LEU7	0.046	
101	  HG	1629.279	482.330	-1659.742	 H	7	LEU7	-0.036	
102	1HD1	1627.301	482.142	-1661.282	 H	7	LEU7	0.100	
103	2HD1	1628.358	481.592	-1662.606	 H	7	LEU7	0.100	
104	3HD1	1628.152	480.591	-1661.149	 H	7	LEU7	0.100	
105	1HD2	1631.017	481.590	-1662.201	 H	7	LEU7	0.100	
106	2HD2	1631.595	481.971	-1660.560	 H	7	LEU7	0.100	
107	3HD2	1630.661	480.497	-1660.835	 H	7	LEU7	0.100	
108	   N	1629.814	486.914	-1660.891	N.am	8	ASP8	-0.516	
109	  CA	1629.744	488.264	-1661.444	C.3	8	ASP8	0.038	
110	   C	1631.090	488.943	-1661.387	C.2	8	ASP8	0.537	
111	   O	1631.563	489.549	-1662.361	O.2	8	ASP8	-0.582	
112	  CB	1628.666	489.102	-1660.702	C.3	8	ASP8	-0.030	
113	  CG	1628.447	490.523	-1661.242	C.2	8	ASP8	0.799	
114	 OD1	1628.511	490.723	-1662.473	O.co2	8	ASP8	-0.801	
115	 OD2	1628.255	491.449	-1660.426	O.co2	8	ASP8	-0.801	
116	   H	1629.217	486.643	-1660.123	 H	8	ASP8	0.294	
117	  HA	1629.461	488.186	-1662.511	 H	8	ASP8	0.088	
118	 2HB	1628.923	489.185	-1659.630	 H	8	ASP8	-0.012	
119	 3HB	1627.687	488.597	-1660.735	 H	8	ASP8	-0.012	
120	   N	1631.770	488.893	-1660.292	N.am	9	GLU9	-0.516	
121	  CA	1633.073	489.551	-1660.236	C.3	9	GLU9	0.040	
122	   C	1633.991	489.024	-1661.312	C.2	9	GLU9	0.537	
123	   O	1634.655	489.779	-1662.037	O.2	9	GLU9	-0.582	
124	  CB	1633.707	489.343	-1658.831	C.3	9	GLU9	0.056	
125	  CG	1635.089	490.035	-1658.601	C.3	9	GLU9	0.014	
126	  CD	1635.791	489.821	-1657.273	C.2	9	GLU9	0.805	
127	 OE1	1635.270	489.130	-1656.377	O.co2	9	GLU9	-0.819	
128	 OE2	1636.910	490.359	-1657.141	O.co2	9	GLU9	-0.819	
129	   H	1631.407	488.407	-1659.484	 H	9	GLU9	0.294	
130	  HA	1632.931	490.633	-1660.411	 H	9	GLU9	0.111	
131	 2HB	1633.820	488.258	-1658.628	 H	9	GLU9	-0.017	
132	 3HB	1633.010	489.696	-1658.046	 H	9	GLU9	-0.017	
133	 2HG	1635.017	491.126	-1658.740	 H	9	GLU9	-0.043	
134	 3HG	1635.836	489.690	-1659.335	 H	9	GLU9	-0.043	
135	   N	1634.088	487.749	-1661.483	N.am	10	THR10	-0.416	
136	  CA	1634.975	487.240	-1662.523	C.3	10	THR10	-0.039	
137	   C	1634.608	487.806	-1663.873	C.2	10	THR10	0.597	
138	   O	1635.443	488.262	-1664.628	O.2	10	THR10	-0.568	
139	  CB	1634.947	485.674	-1662.552	C.3	10	THR10	0.365	
140	 CG2	1635.835	484.993	-1663.616	C.3	10	THR10	-0.244	
141	 OG1	1635.402	485.143	-1661.315	O.3	10	THR10	-0.676	
142	   H	1633.557	487.113	-1660.905	 H	10	THR10	0.272	
143	  HA	1636.005	487.571	-1662.296	 H	10	THR10	0.101	
144	  HB	1633.896	485.347	-1662.713	 H	10	THR10	0.004	
145	 1HG	1635.291	484.190	-1661.376	 H	10	THR10	0.410	
146	1HG2	1635.780	483.890	-1663.560	 H	10	THR10	0.064	
147	2HG2	1635.537	485.256	-1664.648	 H	10	THR10	0.064	
148	3HG2	1636.899	485.274	-1663.503	 H	10	THR10	0.064	
149	   N	1633.370	487.804	-1664.237	N.am	11	VAL11	-0.416	
150	  CA	1633.015	488.352	-1665.543	C.3	11	VAL11	-0.087	
151	   C	1633.479	489.783	-1665.673	C.2	11	VAL11	0.597	
152	   O	1634.080	490.190	-1666.676	O.2	11	VAL11	-0.568	
153	  CB	1631.454	488.245	-1665.763	C.3	11	VAL11	0.299	
154	 CG1	1630.885	488.950	-1667.025	C.3	11	VAL11	-0.319	
155	 CG2	1630.930	486.790	-1665.838	C.3	11	VAL11	-0.319	
156	   H	1632.657	487.430	-1663.627	 H	11	VAL11	0.272	
157	  HA	1633.535	487.771	-1666.326	 H	11	VAL11	0.097	
158	  HB	1630.966	488.723	-1664.887	 H	11	VAL11	-0.030	
159	1HG1	1631.324	488.560	-1667.962	 H	11	VAL11	0.079	
160	2HG1	1629.786	488.842	-1667.107	 H	11	VAL11	0.079	
161	3HG1	1631.062	490.042	-1667.014	 H	11	VAL11	0.079	
162	1HG2	1631.220	486.202	-1664.948	 H	11	VAL11	0.079	
163	2HG2	1629.824	486.753	-1665.881	 H	11	VAL11	0.079	
164	3HG2	1631.312	486.251	-1666.725	 H	11	VAL11	0.079	
165	   N	1633.240	490.607	-1664.710	N.am	12	GLN12	-0.416	
166	  CA	1633.688	491.991	-1664.835	C.3	12	GLN12	-0.003	
167	   C	1635.178	492.060	-1665.072	C.2	12	GLN12	0.597	
168	   O	1635.665	492.769	-1665.950	O.2	12	GLN12	-0.568	
169	  CB	1633.296	492.756	-1663.552	C.3	12	GLN12	-0.004	
170	  CG	1633.655	494.278	-1663.519	C.3	12	GLN12	-0.064	
171	  CD	1633.351	495.090	-1662.253	C.2	12	GLN12	0.695	
172	 NE2	1632.784	494.512	-1661.225	N.pl3	12	GLN12	-0.941	
173	 OE1	1633.652	496.271	-1662.174	O.2	12	GLN12	-0.609	
174	   H	1632.751	490.300	-1663.882	 H	12	GLN12	0.272	
175	  HA	1633.189	492.448	-1665.710	 H	12	GLN12	0.085	
176	 2HB	1633.772	492.255	-1662.683	 H	12	GLN12	0.017	
177	 3HB	1632.206	492.648	-1663.390	 H	12	GLN12	0.017	
178	 2HG	1633.177	494.800	-1664.369	 H	12	GLN12	0.035	
179	 3HG	1634.738	494.421	-1663.684	 H	12	GLN12	0.035	
180	1HE2	1632.676	495.105	-1660.401	 H	12	GLN12	0.425	
181	2HE2	1632.621	493.509	-1661.330	 H	12	GLN12	0.425	
182	   N	1635.963	491.352	-1664.332	N.am	13	ARG13	-0.348	
183	  CA	1637.403	491.419	-1664.562	C.3	13	ARG13	-0.264	
184	   C	1637.740	491.050	-1665.987	C.2	13	ARG13	0.734	
185	   O	1638.509	491.723	-1666.670	O.2	13	ARG13	-0.589	
186	  CB	1638.116	490.480	-1663.549	C.3	13	ARG13	-0.001	
187	  CG	1639.661	490.634	-1663.466	C.3	13	ARG13	0.039	
188	  CD	1640.288	489.645	-1662.469	C.3	13	ARG13	0.049	
189	  NE	1641.765	489.853	-1662.418	N.pl3	13	ARG13	-0.530	
190	  CZ	1642.613	489.161	-1661.663	C.cat	13	ARG13	0.808	
191	 NH1	1642.249	488.196	-1660.867	N.pl3	13	ARG13	-0.863	
192	 NH2	1643.873	489.461	-1661.719	N.pl3	13	ARG13	-0.863	
193	   H	1635.587	490.761	-1663.604	 H	13	ARG13	0.275	
194	  HA	1637.727	492.465	-1664.402	 H	13	ARG13	0.156	
195	 2HB	1637.851	489.429	-1663.789	 H	13	ARG13	0.033	
196	 3HB	1637.691	490.645	-1662.538	 H	13	ARG13	0.033	
197	 2HG	1639.908	491.678	-1663.186	 H	13	ARG13	0.029	
198	 3HG	1640.113	490.479	-1664.468	 H	13	ARG13	0.029	
199	 2HD	1640.045	488.605	-1662.780	 H	13	ARG13	0.069	
200	 3HD	1639.831	489.789	-1661.467	 H	13	ARG13	0.069	
201	  HE	1642.216	490.577	-1662.988	 H	13	ARG13	0.346	
202	1HH1	1641.243	488.009	-1660.871	 H	13	ARG13	0.448	
203	2HH1	1642.962	487.712	-1660.319	 H	13	ARG13	0.448	
204	1HH2	1644.140	490.220	-1662.349	 H	13	ARG13	0.448	
205	2HH2	1644.508	488.920	-1661.130	 H	13	ARG13	0.448	
206	   N	1637.205	489.996	-1666.503	N.am	14	VAL14	-0.416	
207	  CA	1637.531	489.638	-1667.881	C.3	14	VAL14	-0.087	
208	   C	1637.201	490.769	-1668.825	C.2	14	VAL14	0.597	
209	   O	1637.995	491.152	-1669.694	O.2	14	VAL14	-0.568	
210	  CB	1636.760	488.321	-1668.289	C.3	14	VAL14	0.299	
211	 CG1	1636.850	487.904	-1669.783	C.3	14	VAL14	-0.319	
212	 CG2	1637.192	487.068	-1667.490	C.3	14	VAL14	-0.319	
213	   H	1636.570	489.426	-1665.962	 H	14	VAL14	0.272	
214	  HA	1638.619	489.462	-1667.955	 H	14	VAL14	0.097	
215	  HB	1635.683	488.491	-1668.074	 H	14	VAL14	-0.030	
216	1HG1	1637.892	487.728	-1670.112	 H	14	VAL14	0.079	
217	2HG1	1636.278	486.981	-1669.997	 H	14	VAL14	0.079	
218	3HG1	1636.421	488.667	-1670.461	 H	14	VAL14	0.079	
219	1HG2	1637.104	487.225	-1666.400	 H	14	VAL14	0.079	
220	2HG2	1636.557	486.192	-1667.724	 H	14	VAL14	0.079	
221	3HG2	1638.240	486.779	-1667.696	 H	14	VAL14	0.079	
222	   N	1636.056	491.354	-1668.724	N.am	15	MET15	-0.416	
223	  CA	1635.735	492.447	-1669.636	C.3	15	MET15	-0.024	
224	   C	1636.765	493.548	-1669.547	C.2	15	MET15	0.597	
225	   O	1637.268	494.060	-1670.558	O.2	15	MET15	-0.568	
226	  CB	1634.313	492.992	-1669.328	C.3	15	MET15	0.034	
227	  CG	1633.152	491.993	-1669.521	C.3	15	MET15	0.002	
228	  SD	1631.578	492.858	-1669.407	S.3	15	MET15	-0.274	
229	  CE	1630.497	491.428	-1669.273	C.3	15	MET15	-0.054	
230	   H	1635.390	491.060	-1668.023	 H	15	MET15	0.272	
231	  HA	1635.762	492.061	-1670.672	 H	15	MET15	0.088	
232	 2HB	1634.111	493.871	-1669.969	 H	15	MET15	0.024	
233	 3HB	1634.277	493.383	-1668.291	 H	15	MET15	0.024	
234	 2HG	1633.195	491.207	-1668.744	 H	15	MET15	0.044	
235	 3HG	1633.216	491.479	-1670.498	 H	15	MET15	0.044	
236	 1HE	1630.642	490.741	-1670.126	 H	15	MET15	0.068	
237	 2HE	1630.706	490.874	-1668.340	 H	15	MET15	0.068	
238	 3HE	1629.439	491.742	-1669.257	 H	15	MET15	0.068	
239	   N	1637.132	493.968	-1668.384	N.am	16	ARG16	-0.348	
240	  CA	1638.128	495.032	-1668.298	C.3	16	ARG16	-0.264	
241	   C	1639.399	494.641	-1669.014	C.2	16	ARG16	0.734	
242	   O	1639.515	493.565	-1669.596	O.2	16	ARG16	-0.589	
243	  CB	1638.396	495.349	-1666.800	C.3	16	ARG16	-0.001	
244	  CG	1639.220	496.638	-1666.525	C.3	16	ARG16	0.039	
245	  CD	1639.469	496.856	-1665.023	C.3	16	ARG16	0.049	
246	  NE	1640.244	498.116	-1664.821	N.pl3	16	ARG16	-0.530	
247	  CZ	1640.634	498.597	-1663.645	C.cat	16	ARG16	0.808	
248	 NH1	1640.386	498.012	-1662.507	N.pl3	16	ARG16	-0.863	
249	 NH2	1641.297	499.710	-1663.625	N.pl3	16	ARG16	-0.863	
250	   H	1636.737	493.567	-1667.545	 H	16	ARG16	0.275	
251	  HA	1637.719	495.925	-1668.808	 H	16	ARG16	0.156	
252	 2HB	1638.893	494.473	-1666.334	 H	16	ARG16	0.033	
253	 3HB	1637.427	495.429	-1666.266	 H	16	ARG16	0.033	
254	 2HG	1638.690	497.509	-1666.962	 H	16	ARG16	0.029	
255	 3HG	1640.194	496.586	-1667.053	 H	16	ARG16	0.029	
256	 2HD	1640.018	495.982	-1664.610	 H	16	ARG16	0.069	
257	 3HD	1638.495	496.898	-1664.489	 H	16	ARG16	0.069	
258	  HE	1640.523	498.697	-1665.617	 H	16	ARG16	0.346	
259	1HH1	1639.861	497.138	-1662.592	 H	16	ARG16	0.448	
260	2HH1	1640.719	498.447	-1661.645	 H	16	ARG16	0.448	
261	1HH2	1641.483	500.154	-1664.526	 H	16	ARG16	0.448	
262	2HH2	1641.587	500.064	-1662.711	 H	16	ARG16	0.448	
@<TRIPOS>BOND
1 1 2 1
2 1 10 1
3 2 3 1
4 2 5 1
5 2 11 1
6 3 4 2
7 3 16 1
8 5 6 1
9 6 7 1
10 7 8 2
11 7 9 1
12 5 12 1
13 5 13 1
14 6 14 1
15 6 15 1
16 16 17 1
17 16 24 1
18 17 18 1
19 17 20 1
20 17 25 1
21 18 19 2
22 18 30 1
23 20 21 1
24 21 22 1
25 21 23 2
26 20 26 1
27 20 27 1
28 22 28 1
29 22 29 1
30 30 31 1
31 30 36 1
32 31 32 1
33 31 34 1
34 31 37 1
35 32 33 2
36 32 44 1
37 34 35 1
38 35 36 1
39 34 38 1
40 34 39 1
41 35 40 1
42 35 41 1
43 36 42 1
44 36 43 1
45 44 45 1
46 44 53 1
47 45 46 1
48 45 48 1
49 45 54 1
50 46 47 2
51 46 59 1
52 48 49 1
53 49 50 1
54 50 51 2
55 50 52 1
56 48 55 1
57 48 56 1
58 49 57 1
59 49 58 1
60 59 60 1
61 59 65 1
62 60 61 1
63 60 63 1
64 60 66 1
65 61 62 2
66 61 70 1
67 63 64 1
68 63 67 1
69 63 68 1
70 64 69 1
71 70 71 1
72 70 78 1
73 71 72 1
74 71 74 1
75 71 79 1
76 72 73 2
77 72 89 1
78 74 75 1
79 74 76 1
80 75 77 1
81 74 80 1
82 75 81 1
83 75 82 1
84 76 83 1
85 76 84 1
86 76 85 1
87 77 86 1
88 77 87 1
89 77 88 1
90 89 90 1
91 89 97 1
92 90 91 1
93 90 93 1
94 90 98 1
95 91 92 2
96 91 108 1
97 93 94 1
98 94 95 1
99 94 96 1
100 93 99 1
101 93 100 1
102 94 101 1
103 95 102 1
104 95 103 1
105 95 104 1
106 96 105 1
107 96 106 1
108 96 107 1
109 108 109 1
110 108 116 1
111 109 110 1
112 109 112 1
113 109 117 1
114 110 111 2
115 110 120 1
116 112 113 1
117 113 114 2
118 113 115 1
119 112 118 1
120 112 119 1
121 120 121 1
122 120 129 1
123 121 122 1
124 121 124 1
125 121 130 1
126 122 123 2
127 122 135 1
128 124 125 1
129 125 126 1
130 126 127 2
131 126 128 1
132 124 131 1
133 124 132 1
134 125 133 1
135 125 134 1
136 135 136 1
137 135 142 1
138 136 137 1
139 136 139 1
140 136 143 1
141 137 138 2
142 137 149 1
143 139 140 1
144 139 141 1
145 139 144 1
146 141 145 1
147 140 146 1
148 140 147 1
149 140 148 1
150 149 150 1
151 149 156 1
152 150 151 1
153 150 153 1
154 150 157 1
155 151 152 2
156 151 165 1
157 153 154 1
158 153 155 1
159 153 158 1
160 154 159 1
161 154 160 1
162 154 161 1
163 155 162 1
164 155 163 1
165 155 164 1
166 165 166 1
167 165 174 1
168 166 167 1
169 166 169 1
170 166 175 1
171 167 168 2
172 167 182 1
173 169 170 1
174 170 171 1
175 171 172 1
176 171 173 2
177 169 176 1
178 169 177 1
179 170 178 1
180 170 179 1
181 172 180 1
182 172 181 1
183 182 183 1
184 182 193 1
185 183 184 1
186 183 186 1
187 183 194 1
188 184 185 2
189 184 206 1
190 186 187 1
191 187 188 1
192 188 189 1
193 189 190 1
194 190 191 2
195 190 192 1
196 186 195 1
197 186 196 1
198 187 197 1
199 187 198 1
200 188 199 1
201 188 200 1
202 189 201 1
203 191 202 1
204 191 203 1
205 192 204 1
206 192 205 1
207 206 207 1
208 206 213 1
209 207 208 1
210 207 210 1
211 207 214 1
212 208 209 2
213 208 222 1
214 210 211 1
215 210 212 1
216 210 215 1
217 211 216 1
218 211 217 1
219 211 218 1
220 212 219 1
221 212 220 1
222 212 221 1
223 222 223 1
224 222 230 1
225 223 224 1
226 223 226 1
227 223 231 1
228 224 225 2
229 224 239 1
230 226 227 1
231 227 228 1
232 228 229 1
233 226 232 1
234 226 233 1
235 227 234 1
236 227 235 1
237 229 236 1
238 229 237 1
239 229 238 1
240 239 240 1
241 239 250 1
242 240 241 1
243 240 243 1
244 240 251 1
245 241 242 2
246 243 244 1
247 244 245 1
248 245 246 1
249 246 247 1
250 247 248 2
251 247 249 1
252 243 252 1
253 243 253 1
254 244 254 1
255 244 255 1
256 245 256 1
257 245 257 1
258 246 258 1
259 248 259 1
260 248 260 1
261 249 261 1
262 249 262 1
@<TRIPOS>SUBSTRUCTURE
1	GLU1	1	RESIDUE	1 ****	GLU
2	ASN2	16	RESIDUE	1 ****	ASN
3	PRO3	30	RESIDUE	1 ****	PRO
4	GLU4	44	RESIDUE	1 ****	GLU
5	SER5	59	RESIDUE	1 ****	SER
6	ILE6	70	RESIDUE	1 ****	ILE
7	LEU7	89	RESIDUE	1 ****	LEU
8	ASP8	108	RESIDUE	1 ****	ASP
9	GLU9	120	RESIDUE	1 ****	GLU
10	THR10	135	RESIDUE	1 ****	THR
11	VAL11	149	RESIDUE	1 ****	VAL
12	GLN12	165	RESIDUE	1 ****	GLN
13	ARG13	182	RESIDUE	1 ****	ARG
14	VAL14	206	RESIDUE	1 ****	VAL
15	MET15	222	RESIDUE	1 ****	MET
16	ARG16	239	RESIDUE	1 ****	ARG
