@<TRIPOS>MOLECULE
2-19
273 274 16              
SMALL
USER_CHARGES
@<TRIPOS>ATOM
1	   N	322.366	71.178	-302.249	N.3	1	GLU1	-0.516	
2	  CA	322.925	72.527	-302.249	C.3	1	GLU1	0.040	
3	   C	324.434	72.487	-302.249	C.2	1	GLU1	0.537	
4	   O	325.110	73.186	-303.018	O.2	1	GLU1	-0.582	
5	  CB	322.402	73.312	-301.012	C.3	1	GLU1	0.056	
6	  CG	322.877	74.797	-300.901	C.3	1	GLU1	0.014	
7	  CD	322.453	75.601	-299.686	C.2	1	GLU1	0.805	
8	 OE1	321.725	75.099	-298.808	O.co2	1	GLU1	-0.819	
9	 OE2	322.883	76.771	-299.614	O.co2	1	GLU1	-0.819	
10	   H	322.993	70.299	-302.249	 H	1	GLU1	0.294	
11	  HA	322.599	73.045	-303.169	 H	1	GLU1	0.111	
12	 2HB	322.691	72.781	-300.082	 H	1	GLU1	-0.017	
13	 3HB	321.295	73.302	-300.999	 H	1	GLU1	-0.017	
14	 2HG	322.567	75.382	-301.782	 H	1	GLU1	-0.043	
15	 3HG	323.977	74.864	-300.872	 H	1	GLU1	-0.043	
16	   N	325.039	71.701	-301.424	N.am	2	LYS2	-0.348	
17	  CA	326.499	71.662	-301.423	C.3	2	LYS2	-0.240	
18	   C	327.031	71.306	-302.791	C.2	2	LYS2	0.734	
19	   O	327.953	71.941	-303.323	O.2	2	LYS2	-0.589	
20	  CB	326.988	70.646	-300.355	C.3	2	LYS2	-0.009	
21	  CG	328.530	70.585	-300.223	C.3	2	LYS2	0.019	
22	  CD	329.051	69.547	-299.226	C.3	2	LYS2	-0.048	
23	  CE	330.586	69.547	-299.251	C.3	2	LYS2	-0.014	
24	  NZ	331.093	68.678	-298.175	N.4	2	LYS2	-0.385	
25	   H	324.511	71.121	-300.787	 H	2	LYS2	0.275	
26	  HA	326.875	72.671	-301.172	 H	2	LYS2	0.143	
27	 2HB	326.590	69.637	-300.591	 H	2	LYS2	0.036	
28	 3HB	326.550	70.900	-299.370	 H	2	LYS2	0.036	
29	 2HG	328.920	71.589	-299.962	 H	2	LYS2	0.010	
30	 3HG	328.988	70.337	-301.199	 H	2	LYS2	0.010	
31	 2HD	328.664	68.542	-299.492	 H	2	LYS2	0.062	
32	 3HD	328.663	69.772	-298.213	 H	2	LYS2	0.062	
33	 2HE	330.988	70.573	-299.120	 H	2	LYS2	0.113	
34	 3HE	330.958	69.199	-300.237	 H	2	LYS2	0.113	
35	 1HZ	330.491	67.853	-298.061	 H	2	LYS2	0.340	
36	 2HZ	332.028	68.319	-298.394	 H	2	LYS2	0.340	
37	 3HZ	331.111	69.242	-297.337	 H	2	LYS2	0.340	
38	   N	326.510	70.311	-303.426	N.am	3	PRO3	-0.255	
39	  CA	326.963	69.902	-304.747	C.3	3	PRO3	-0.027	
40	   C	326.566	70.925	-305.824	C.2	3	PRO3	0.590	
41	   O	327.390	71.308	-306.655	O.2	3	PRO3	-0.575	
42	  CB	326.259	68.547	-304.917	C.3	3	PRO3	-0.007	
43	  CG	324.975	68.700	-304.088	C.3	3	PRO3	0.019	
44	  CD	325.431	69.518	-302.878	C.3	3	PRO3	0.019	
45	  HA	328.049	69.782	-304.760	 H	3	PRO3	0.064	
46	 2HB	326.881	67.766	-304.476	 H	3	PRO3	0.025	
47	 3HB	326.061	68.299	-305.962	 H	3	PRO3	0.025	
48	 2HG	324.547	67.737	-303.797	 H	3	PRO3	0.021	
49	 3HG	324.238	69.271	-304.656	 H	3	PRO3	0.021	
50	 2HD	325.820	68.869	-302.090	 H	3	PRO3	0.039	
51	 3HD	324.635	70.154	-302.485	 H	3	PRO3	0.039	
52	   N	325.361	71.385	-305.858	N.am	4	GLU4	-0.516	
53	  CA	325.003	72.356	-306.887	C.3	4	GLU4	0.040	
54	   C	325.902	73.567	-306.826	C.2	4	GLU4	0.537	
55	   O	326.429	74.047	-307.840	O.2	4	GLU4	-0.582	
56	  CB	323.514	72.775	-306.718	C.3	4	GLU4	0.056	
57	  CG	322.967	73.779	-307.785	C.3	4	GLU4	0.014	
58	  CD	321.540	74.276	-307.642	C.2	4	GLU4	0.805	
59	 OE1	320.813	73.877	-306.712	O.co2	4	GLU4	-0.819	
60	 OE2	321.151	75.105	-308.491	O.co2	4	GLU4	-0.819	
61	   H	324.676	71.079	-305.181	 H	4	GLU4	0.294	
62	  HA	325.134	71.886	-307.879	 H	4	GLU4	0.111	
63	 2HB	323.361	73.215	-305.712	 H	4	GLU4	-0.017	
64	 3HB	322.866	71.877	-306.725	 H	4	GLU4	-0.017	
65	 2HG	323.049	73.364	-308.802	 H	4	GLU4	-0.043	
66	 3HG	323.555	74.711	-307.795	 H	4	GLU4	-0.043	
67	   N	326.128	74.120	-305.682	N.am	5	SER5	-0.416	
68	  CA	326.998	75.291	-305.623	C.3	5	SER5	-0.025	
69	   C	328.357	74.986	-306.207	C.2	5	SER5	0.597	
70	   O	328.905	75.739	-307.012	O.2	5	SER5	-0.568	
71	  CB	327.108	75.824	-304.172	C.3	5	SER5	0.212	
72	  OG	327.839	74.944	-303.311	O.3	5	SER5	-0.655	
73	   H	325.710	73.749	-304.841	 H	5	SER5	0.272	
74	  HA	326.549	76.082	-306.253	 H	5	SER5	0.084	
75	 2HB	326.108	76.017	-303.740	 H	5	SER5	0.035	
76	 3HB	327.613	76.809	-304.174	 H	5	SER5	0.035	
77	  HG	327.350	74.119	-303.260	 H	5	SER5	0.428	
78	   N	328.961	73.903	-305.853	N.am	6	ILE6	-0.416	
79	  CA	330.275	73.608	-306.418	C.3	6	ILE6	-0.060	
80	   C	330.219	73.570	-307.926	C.2	6	ILE6	0.597	
81	   O	331.054	74.158	-308.629	O.2	6	ILE6	-0.568	
82	  CB	330.874	72.271	-305.817	C.3	6	ILE6	0.130	
83	 CG1	330.892	72.209	-304.256	C.3	6	ILE6	-0.043	
84	 CG2	332.316	71.970	-306.332	C.3	6	ILE6	-0.320	
85	 CD1	331.162	70.820	-303.641	C.3	6	ILE6	-0.066	
86	   H	328.532	73.268	-305.194	 H	6	ILE6	0.272	
87	  HA	330.949	74.442	-306.150	 H	6	ILE6	0.087	
88	  HB	330.217	71.446	-306.162	 H	6	ILE6	0.019	
89	2HG1	329.910	72.529	-303.861	 H	6	ILE6	0.024	
90	3HG1	331.608	72.951	-303.851	 H	6	ILE6	0.024	
91	1HG2	332.376	71.876	-307.430	 H	6	ILE6	0.088	
92	2HG2	333.038	72.752	-306.029	 H	6	ILE6	0.088	
93	3HG2	332.706	71.008	-305.953	 H	6	ILE6	0.088	
94	1HD1	330.434	70.066	-303.996	 H	6	ILE6	0.019	
95	2HD1	332.173	70.441	-303.876	 H	6	ILE6	0.019	
96	3HD1	331.085	70.850	-302.539	 H	6	ILE6	0.019	
97	   N	329.274	72.907	-308.500	N.am	7	LEU7	-0.416	
98	  CA	329.220	72.871	-309.959	C.3	7	LEU7	-0.052	
99	   C	329.148	74.266	-310.531	C.2	7	LEU7	0.597	
100	   O	329.869	74.629	-311.473	O.2	7	LEU7	-0.568	
101	  CB	328.017	72.010	-310.440	C.3	7	LEU7	-0.110	
102	  CG	327.944	70.531	-309.974	C.3	7	LEU7	0.353	
103	 CD1	326.755	69.825	-310.640	C.3	7	LEU7	-0.412	
104	 CD2	329.238	69.752	-310.264	C.3	7	LEU7	-0.412	
105	   H	328.581	72.419	-307.950	 H	7	LEU7	0.272	
106	  HA	330.162	72.431	-310.332	 H	7	LEU7	0.092	
107	 2HB	327.995	72.026	-311.548	 H	7	LEU7	0.046	
108	 3HB	327.077	72.513	-310.137	 H	7	LEU7	0.046	
109	  HG	327.773	70.523	-308.877	 H	7	LEU7	-0.036	
110	1HD1	325.797	70.334	-310.418	 H	7	LEU7	0.100	
111	2HD1	326.855	69.785	-311.741	 H	7	LEU7	0.100	
112	3HD1	326.647	68.784	-310.284	 H	7	LEU7	0.100	
113	1HD2	329.514	69.782	-311.334	 H	7	LEU7	0.100	
114	2HD2	330.091	70.163	-309.692	 H	7	LEU7	0.100	
115	3HD2	329.156	68.689	-309.968	 H	7	LEU7	0.100	
116	   N	328.310	75.106	-310.026	N.am	8	ASP8	-0.516	
117	  CA	328.240	76.456	-310.579	C.3	8	ASP8	0.038	
118	   C	329.587	77.136	-310.521	C.2	8	ASP8	0.537	
119	   O	330.060	77.741	-311.495	O.2	8	ASP8	-0.582	
120	  CB	327.161	77.295	-309.838	C.3	8	ASP8	-0.030	
121	  CG	326.943	78.716	-310.379	C.2	8	ASP8	0.799	
122	 OD1	327.008	78.915	-311.609	O.co2	8	ASP8	-0.801	
123	 OD2	326.750	79.641	-309.563	O.co2	8	ASP8	-0.801	
124	   H	327.712	74.835	-309.259	 H	8	ASP8	0.294	
125	  HA	327.958	76.378	-311.646	 H	8	ASP8	0.088	
126	 2HB	327.418	77.378	-308.766	 H	8	ASP8	-0.012	
127	 3HB	326.182	76.790	-309.872	 H	8	ASP8	-0.012	
128	   N	330.266	77.086	-309.425	N.am	9	GLU9	-0.516	
129	  CA	331.568	77.744	-309.368	C.3	9	GLU9	0.040	
130	   C	332.487	77.216	-310.443	C.2	9	GLU9	0.537	
131	   O	333.152	77.971	-311.168	O.2	9	GLU9	-0.582	
132	  CB	332.201	77.536	-307.962	C.3	9	GLU9	0.056	
133	  CG	333.583	78.228	-307.732	C.3	9	GLU9	0.014	
134	  CD	334.284	78.015	-306.403	C.2	9	GLU9	0.805	
135	 OE1	333.761	77.324	-305.507	O.co2	9	GLU9	-0.819	
136	 OE2	335.403	78.553	-306.270	O.co2	9	GLU9	-0.819	
137	   H	329.902	76.599	-308.618	 H	9	GLU9	0.294	
138	  HA	331.426	78.825	-309.543	 H	9	GLU9	0.111	
139	 2HB	332.314	76.451	-307.759	 H	9	GLU9	-0.017	
140	 3HB	331.503	77.889	-307.179	 H	9	GLU9	-0.017	
141	 2HG	333.511	79.319	-307.871	 H	9	GLU9	-0.043	
142	 3HG	334.330	77.883	-308.465	 H	9	GLU9	-0.043	
143	   N	332.584	75.941	-310.613	N.am	10	HIS10	-0.416	
144	  CA	333.473	75.430	-311.653	C.3	10	HIS10	-0.058	
145	   C	333.107	75.995	-313.004	C.2	10	HIS10	0.597	
146	   O	333.960	76.460	-313.775	O.2	10	HIS10	-0.568	
147	  CB	333.309	73.901	-311.648	C.3	10	HIS10	-0.007	
148	  CG	334.595	73.191	-311.339	C.2	10	HIS10	0.187	
149	 CD2	334.975	72.856	-310.046	C.2	10	HIS10	-0.221	
150	 ND1	335.548	72.786	-312.271	N.2	10	HIS10	-0.543	
151	 CE1	336.454	72.227	-311.447	C.2	10	HIS10	0.163	
152	 NE2	336.190	72.224	-310.112	N.pl3	10	HIS10	-0.280	
153	   H	332.053	75.305	-310.035	 H	10	HIS10	0.272	
154	  HA	334.492	75.788	-311.427	 H	10	HIS10	0.136	
155	 2HB	332.945	73.534	-312.629	 H	10	HIS10	0.037	
156	 3HB	332.553	73.564	-310.909	 H	10	HIS10	0.037	
157	 2HD	334.388	73.070	-309.158	 H	10	HIS10	0.186	
158	 1HE	337.345	71.807	-311.894	 H	10	HIS10	0.144	
159	 2HE	336.756	71.847	-309.339	 H	10	HIS10	0.334	
160	   N	331.869	75.994	-313.368	N.am	11	VAL11	-0.416	
161	  CA	331.515	76.540	-314.675	C.3	11	VAL11	-0.087	
162	   C	331.980	77.971	-314.807	C.2	11	VAL11	0.597	
163	   O	332.581	78.376	-315.809	O.2	11	VAL11	-0.568	
164	  CB	329.954	76.433	-314.896	C.3	11	VAL11	0.299	
165	 CG1	329.387	77.137	-316.159	C.3	11	VAL11	-0.319	
166	 CG2	329.430	74.979	-314.970	C.3	11	VAL11	-0.319	
167	   H	331.156	75.621	-312.758	 H	11	VAL11	0.272	
168	  HA	332.036	75.958	-315.457	 H	11	VAL11	0.097	
169	  HB	329.466	76.913	-314.021	 H	11	VAL11	-0.030	
170	1HG1	329.826	76.746	-317.096	 H	11	VAL11	0.079	
171	2HG1	328.288	77.030	-316.242	 H	11	VAL11	0.079	
172	3HG1	329.564	78.229	-316.149	 H	11	VAL11	0.079	
173	1HG2	329.719	74.391	-314.079	 H	11	VAL11	0.079	
174	2HG2	328.324	74.941	-315.013	 H	11	VAL11	0.079	
175	3HG2	329.813	74.438	-315.856	 H	11	VAL11	0.079	
176	   N	331.741	78.796	-313.845	N.am	12	GLN12	-0.416	
177	  CA	332.190	80.179	-313.971	C.3	12	GLN12	-0.003	
178	   C	333.680	80.247	-314.207	C.2	12	GLN12	0.597	
179	   O	334.168	80.956	-315.085	O.2	12	GLN12	-0.568	
180	  CB	331.798	80.946	-312.688	C.3	12	GLN12	-0.004	
181	  CG	332.157	82.468	-312.656	C.3	12	GLN12	-0.064	
182	  CD	331.854	83.281	-311.392	C.2	12	GLN12	0.695	
183	 NE2	331.286	82.704	-310.363	N.pl3	12	GLN12	-0.941	
184	 OE1	332.155	84.462	-311.314	O.2	12	GLN12	-0.609	
185	   H	331.252	78.490	-313.016	 H	12	GLN12	0.272	
186	  HA	331.691	80.636	-314.846	 H	12	GLN12	0.085	
187	 2HB	332.273	80.446	-311.819	 H	12	GLN12	0.017	
188	 3HB	330.707	80.838	-312.526	 H	12	GLN12	0.017	
189	 2HG	331.680	82.989	-313.507	 H	12	GLN12	0.035	
190	 3HG	333.241	82.610	-312.821	 H	12	GLN12	0.035	
191	1HE2	331.178	83.298	-309.540	 H	12	GLN12	0.425	
192	2HE2	331.123	81.701	-310.467	 H	12	GLN12	0.425	
193	   N	334.464	79.540	-313.466	N.am	13	ARG13	-0.348	
194	  CA	335.904	79.606	-313.696	C.3	13	ARG13	-0.264	
195	   C	336.242	79.236	-315.120	C.2	13	ARG13	0.734	
196	   O	337.011	79.908	-315.804	O.2	13	ARG13	-0.589	
197	  CB	336.617	78.667	-312.681	C.3	13	ARG13	-0.001	
198	  CG	338.162	78.821	-312.599	C.3	13	ARG13	0.039	
199	  CD	338.788	77.833	-311.601	C.3	13	ARG13	0.049	
200	  NE	340.265	78.040	-311.549	N.pl3	13	ARG13	-0.530	
201	  CZ	341.113	77.349	-310.794	C.cat	13	ARG13	0.808	
202	 NH1	340.747	76.384	-309.997	N.pl3	13	ARG13	-0.863	
203	 NH2	342.372	77.648	-310.849	N.pl3	13	ARG13	-0.863	
204	   H	334.087	78.950	-312.738	 H	13	ARG13	0.275	
205	  HA	336.228	80.652	-313.537	 H	13	ARG13	0.156	
206	 2HB	336.351	77.617	-312.921	 H	13	ARG13	0.033	
207	 3HB	336.191	78.833	-311.671	 H	13	ARG13	0.033	
208	 2HG	338.409	79.865	-312.319	 H	13	ARG13	0.029	
209	 3HG	338.613	78.665	-313.600	 H	13	ARG13	0.029	
210	 2HD	338.545	76.793	-311.911	 H	13	ARG13	0.069	
211	 3HD	338.331	77.978	-310.599	 H	13	ARG13	0.069	
212	  HE	340.717	78.763	-312.119	 H	13	ARG13	0.346	
213	1HH1	339.742	76.198	-310.001	 H	13	ARG13	0.448	
214	2HH1	341.460	75.901	-309.448	 H	13	ARG13	0.448	
215	1HH2	342.640	78.406	-311.480	 H	13	ARG13	0.448	
216	2HH2	343.007	77.107	-310.260	 H	13	ARG13	0.448	
217	   N	335.707	78.181	-315.636	N.am	14	VAL14	-0.416	
218	  CA	336.033	77.822	-317.013	C.3	14	VAL14	-0.087	
219	   C	335.703	78.953	-317.959	C.2	14	VAL14	0.597	
220	   O	336.497	79.335	-318.827	O.2	14	VAL14	-0.568	
221	  CB	335.261	76.505	-317.421	C.3	14	VAL14	0.299	
222	 CG1	335.351	76.088	-318.915	C.3	14	VAL14	-0.319	
223	 CG2	335.693	75.253	-316.621	C.3	14	VAL14	-0.319	
224	   H	335.071	77.612	-315.095	 H	14	VAL14	0.272	
225	  HA	337.121	77.646	-317.087	 H	14	VAL14	0.097	
226	  HB	334.184	76.676	-317.206	 H	14	VAL14	-0.030	
227	1HG1	336.393	75.911	-319.243	 H	14	VAL14	0.079	
228	2HG1	334.779	75.164	-319.128	 H	14	VAL14	0.079	
229	3HG1	334.923	76.850	-319.593	 H	14	VAL14	0.079	
230	1HG2	335.604	75.411	-315.530	 H	14	VAL14	0.079	
231	2HG2	335.057	74.376	-316.854	 H	14	VAL14	0.079	
232	3HG2	336.741	74.963	-316.826	 H	14	VAL14	0.079	
233	   N	334.558	79.538	-317.858	N.am	15	MET15	-0.416	
234	  CA	334.238	80.631	-318.771	C.3	15	MET15	-0.024	
235	   C	335.268	81.731	-318.682	C.2	15	MET15	0.597	
236	   O	335.771	82.242	-319.694	O.2	15	MET15	-0.568	
237	  CB	332.816	81.176	-318.463	C.3	15	MET15	0.034	
238	  CG	331.655	80.178	-318.656	C.3	15	MET15	0.002	
239	  SD	330.081	81.043	-318.543	S.3	15	MET15	-0.274	
240	  CE	329.000	79.613	-318.408	C.3	15	MET15	-0.054	
241	   H	333.893	79.245	-317.157	 H	15	MET15	0.272	
242	  HA	334.265	80.244	-319.807	 H	15	MET15	0.088	
243	 2HB	332.614	82.055	-319.105	 H	15	MET15	0.024	
244	 3HB	332.780	81.568	-317.427	 H	15	MET15	0.024	
245	 2HG	331.697	79.392	-317.879	 H	15	MET15	0.044	
246	 3HG	331.719	79.663	-319.633	 H	15	MET15	0.044	
247	 1HE	329.144	78.925	-319.260	 H	15	MET15	0.068	
248	 2HE	329.208	79.060	-317.475	 H	15	MET15	0.068	
249	 3HE	327.942	79.928	-318.392	 H	15	MET15	0.068	
250	   N	335.636	82.152	-317.520	N.am	16	ARG16	-0.348	
251	  CA	336.632	83.216	-317.435	C.3	16	ARG16	-0.264	
252	   C	337.903	82.824	-318.150	C.2	16	ARG16	0.734	
253	   O	338.018	81.747	-318.732	O.2	16	ARG16	-0.589	
254	  CB	336.900	83.534	-315.936	C.3	16	ARG16	-0.001	
255	  CG	337.724	84.823	-315.662	C.3	16	ARG16	0.039	
256	  CD	337.973	85.042	-314.161	C.3	16	ARG16	0.049	
257	  NE	338.748	86.301	-313.959	N.pl3	16	ARG16	-0.530	
258	  CZ	339.138	86.783	-312.782	C.cat	16	ARG16	0.808	
259	 NH1	338.890	86.198	-311.644	N.pl3	16	ARG16	-0.863	
260	 NH2	339.802	87.895	-312.763	N.pl3	16	ARG16	-0.863	
261	   H	335.240	81.751	-316.681	 H	16	ARG16	0.275	
262	  HA	336.223	84.109	-317.945	 H	16	ARG16	0.156	
263	 2HB	337.396	82.658	-315.470	 H	16	ARG16	0.033	
264	 3HB	335.930	83.614	-315.403	 H	16	ARG16	0.033	
265	 2HG	337.194	85.693	-316.099	 H	16	ARG16	0.029	
266	 3HG	338.698	84.770	-316.190	 H	16	ARG16	0.029	
267	 2HD	338.521	84.167	-313.747	 H	16	ARG16	0.069	
268	 3HD	336.999	85.084	-313.626	 H	16	ARG16	0.069	
269	  HE	339.027	86.882	-314.755	 H	16	ARG16	0.346	
270	1HH1	338.365	85.325	-311.730	 H	16	ARG16	0.448	
271	2HH1	339.223	86.633	-310.783	 H	16	ARG16	0.448	
272	1HH2	339.988	88.339	-313.665	 H	16	ARG16	0.448	
273	2HH2	340.091	88.250	-311.850	 H	16	ARG16	0.448	
@<TRIPOS>BOND
1 1 2 1
2 1 10 1
3 2 3 1
4 2 5 1
5 2 11 1
6 3 4 2
7 3 16 1
8 5 6 1
9 6 7 1
10 7 8 2
11 7 9 1
12 5 12 1
13 5 13 1
14 6 14 1
15 6 15 1
16 16 17 1
17 16 25 1
18 17 18 1
19 17 20 1
20 17 26 1
21 18 19 2
22 18 38 1
23 20 21 1
24 21 22 1
25 22 23 1
26 23 24 1
27 24 37 1
28 20 27 1
29 20 28 1
30 21 29 1
31 21 30 1
32 22 31 1
33 22 32 1
34 23 33 1
35 23 34 1
36 24 35 1
37 24 36 1
38 38 39 1
39 38 44 1
40 39 40 1
41 39 42 1
42 39 45 1
43 40 41 2
44 40 52 1
45 42 43 1
46 43 44 1
47 42 46 1
48 42 47 1
49 43 48 1
50 43 49 1
51 44 50 1
52 44 51 1
53 52 53 1
54 52 61 1
55 53 54 1
56 53 56 1
57 53 62 1
58 54 55 2
59 54 67 1
60 56 57 1
61 57 58 1
62 58 59 2
63 58 60 1
64 56 63 1
65 56 64 1
66 57 65 1
67 57 66 1
68 67 68 1
69 67 73 1
70 68 69 1
71 68 71 1
72 68 74 1
73 69 70 2
74 69 78 1
75 71 72 1
76 71 75 1
77 71 76 1
78 72 77 1
79 78 79 1
80 78 86 1
81 79 80 1
82 79 82 1
83 79 87 1
84 80 81 2
85 80 97 1
86 82 83 1
87 82 84 1
88 83 85 1
89 82 88 1
90 83 89 1
91 83 90 1
92 84 91 1
93 84 92 1
94 84 93 1
95 85 94 1
96 85 95 1
97 85 96 1
98 97 98 1
99 97 105 1
100 98 99 1
101 98 101 1
102 98 106 1
103 99 100 2
104 99 116 1
105 101 102 1
106 102 103 1
107 102 104 1
108 101 107 1
109 101 108 1
110 102 109 1
111 103 110 1
112 103 111 1
113 103 112 1
114 104 113 1
115 104 114 1
116 104 115 1
117 116 117 1
118 116 124 1
119 117 118 1
120 117 120 1
121 117 125 1
122 118 119 2
123 118 128 1
124 120 121 1
125 121 122 2
126 121 123 1
127 120 126 1
128 120 127 1
129 128 129 1
130 128 137 1
131 129 130 1
132 129 132 1
133 129 138 1
134 130 131 2
135 130 143 1
136 132 133 1
137 133 134 1
138 134 135 2
139 134 136 1
140 132 139 1
141 132 140 1
142 133 141 1
143 133 142 1
144 143 144 1
145 143 153 1
146 144 145 1
147 144 147 1
148 144 154 1
149 145 146 2
150 145 160 1
151 147 148 1
152 148 149 2
153 149 152 1
154 148 150 1
155 150 151 2
156 151 152 1
157 147 155 1
158 147 156 1
159 149 157 1
160 151 158 1
161 152 159 1
162 160 161 1
163 160 167 1
164 161 162 1
165 161 164 1
166 161 168 1
167 162 163 2
168 162 176 1
169 164 165 1
170 164 166 1
171 164 169 1
172 165 170 1
173 165 171 1
174 165 172 1
175 166 173 1
176 166 174 1
177 166 175 1
178 176 177 1
179 176 185 1
180 177 178 1
181 177 180 1
182 177 186 1
183 178 179 2
184 178 193 1
185 180 181 1
186 181 182 1
187 182 183 1
188 182 184 2
189 180 187 1
190 180 188 1
191 181 189 1
192 181 190 1
193 183 191 1
194 183 192 1
195 193 194 1
196 193 204 1
197 194 195 1
198 194 197 1
199 194 205 1
200 195 196 2
201 195 217 1
202 197 198 1
203 198 199 1
204 199 200 1
205 200 201 1
206 201 202 2
207 201 203 1
208 197 206 1
209 197 207 1
210 198 208 1
211 198 209 1
212 199 210 1
213 199 211 1
214 200 212 1
215 202 213 1
216 202 214 1
217 203 215 1
218 203 216 1
219 217 218 1
220 217 224 1
221 218 219 1
222 218 221 1
223 218 225 1
224 219 220 2
225 219 233 1
226 221 222 1
227 221 223 1
228 221 226 1
229 222 227 1
230 222 228 1
231 222 229 1
232 223 230 1
233 223 231 1
234 223 232 1
235 233 234 1
236 233 241 1
237 234 235 1
238 234 237 1
239 234 242 1
240 235 236 2
241 235 250 1
242 237 238 1
243 238 239 1
244 239 240 1
245 237 243 1
246 237 244 1
247 238 245 1
248 238 246 1
249 240 247 1
250 240 248 1
251 240 249 1
252 250 251 1
253 250 261 1
254 251 252 1
255 251 254 1
256 251 262 1
257 252 253 2
258 254 255 1
259 255 256 1
260 256 257 1
261 257 258 1
262 258 259 2
263 258 260 1
264 254 263 1
265 254 264 1
266 255 265 1
267 255 266 1
268 256 267 1
269 256 268 1
270 257 269 1
271 259 270 1
272 259 271 1
273 260 272 1
274 260 273 1
@<TRIPOS>SUBSTRUCTURE
1	GLU1	1	RESIDUE	1 ****	GLU
2	LYS2	16	RESIDUE	1 ****	LYS
3	PRO3	38	RESIDUE	1 ****	PRO
4	GLU4	52	RESIDUE	1 ****	GLU
5	SER5	67	RESIDUE	1 ****	SER
6	ILE6	78	RESIDUE	1 ****	ILE
7	LEU7	97	RESIDUE	1 ****	LEU
8	ASP8	116	RESIDUE	1 ****	ASP
9	GLU9	128	RESIDUE	1 ****	GLU
10	HIS10	143	RESIDUE	1 ****	HIS
11	VAL11	160	RESIDUE	1 ****	VAL
12	GLN12	176	RESIDUE	1 ****	GLN
13	ARG13	193	RESIDUE	1 ****	ARG
14	VAL14	217	RESIDUE	1 ****	VAL
15	MET15	233	RESIDUE	1 ****	MET
16	ARG16	250	RESIDUE	1 ****	ARG
