@<TRIPOS>MOLECULE
12-1
258 259 16              
SMALL
USER_CHARGES
@<TRIPOS>ATOM
1	   N	1845.608	555.063	-1893.835	N.3	1	GLU1	-0.516	
2	  CA	1846.167	556.412	-1893.835	C.3	1	GLU1	0.040	
3	   C	1847.676	556.372	-1893.835	C.2	1	GLU1	0.537	
4	   O	1848.352	557.071	-1894.604	O.2	1	GLU1	-0.582	
5	  CB	1845.644	557.197	-1892.598	C.3	1	GLU1	0.056	
6	  CG	1846.119	558.682	-1892.487	C.3	1	GLU1	0.014	
7	  CD	1845.695	559.486	-1891.272	C.2	1	GLU1	0.805	
8	 OE1	1844.967	558.984	-1890.394	O.co2	1	GLU1	-0.819	
9	 OE2	1846.125	560.656	-1891.200	O.co2	1	GLU1	-0.819	
10	   H	1846.235	554.184	-1893.835	 H	1	GLU1	0.294	
11	  HA	1845.841	556.930	-1894.755	 H	1	GLU1	0.111	
12	 2HB	1845.933	556.666	-1891.668	 H	1	GLU1	-0.017	
13	 3HB	1844.537	557.187	-1892.585	 H	1	GLU1	-0.017	
14	 2HG	1845.809	559.267	-1893.368	 H	1	GLU1	-0.043	
15	 3HG	1847.219	558.749	-1892.458	 H	1	GLU1	-0.043	
16	   N	1848.281	555.586	-1893.010	N.am	2	ASN2	-0.416	
17	  CA	1849.740	555.547	-1893.010	C.3	2	ASN2	0.014	
18	   C	1850.271	555.192	-1894.378	C.2	2	ASN2	0.597	
19	   O	1851.186	555.822	-1894.907	O.2	2	ASN2	-0.568	
20	  CB	1850.232	554.524	-1891.945	C.3	2	ASN2	-0.204	
21	  CG	1849.769	554.748	-1890.502	C.2	2	ASN2	0.713	
22	 ND2	1850.363	555.663	-1889.784	N.pl3	2	ASN2	-0.919	
23	 OD1	1848.848	554.115	-1890.008	O.2	2	ASN2	-0.593	
24	   H	1847.753	555.007	-1892.373	 H	2	ASN2	0.272	
25	  HA	1850.117	556.557	-1892.765	 H	2	ASN2	0.105	
26	 2HB	1851.336	554.465	-1891.949	 H	2	ASN2	0.080	
27	 3HB	1849.903	553.506	-1892.231	 H	2	ASN2	0.080	
28	1HD2	1849.882	555.836	-1888.897	 H	2	ASN2	0.420	
29	2HD2	1851.065	556.235	-1890.253	 H	2	ASN2	0.420	
30	   N	1849.750	554.197	-1895.012	N.am	3	PRO3	-0.255	
31	  CA	1850.201	553.788	-1896.334	C.3	3	PRO3	-0.027	
32	   C	1849.803	554.811	-1897.411	C.2	3	PRO3	0.590	
33	   O	1850.627	555.194	-1898.242	O.2	3	PRO3	-0.575	
34	  CB	1849.497	552.433	-1896.503	C.3	3	PRO3	-0.007	
35	  CG	1848.214	552.585	-1895.673	C.3	3	PRO3	0.019	
36	  CD	1848.672	553.404	-1894.463	C.3	3	PRO3	0.019	
37	  HA	1851.287	553.668	-1896.348	 H	3	PRO3	0.064	
38	 2HB	1850.120	551.652	-1896.062	 H	3	PRO3	0.025	
39	 3HB	1849.299	552.184	-1897.549	 H	3	PRO3	0.025	
40	 2HG	1847.786	551.623	-1895.382	 H	3	PRO3	0.021	
41	 3HG	1847.476	553.156	-1896.240	 H	3	PRO3	0.021	
42	 2HD	1849.061	552.754	-1893.676	 H	3	PRO3	0.039	
43	 3HD	1847.875	554.040	-1894.070	 H	3	PRO3	0.039	
44	   N	1848.599	555.271	-1897.443	N.am	4	GLU4	-0.516	
45	  CA	1848.239	556.242	-1898.473	C.3	4	GLU4	0.040	
46	   C	1849.138	557.453	-1898.412	C.2	4	GLU4	0.537	
47	   O	1849.664	557.933	-1899.426	O.2	4	GLU4	-0.582	
48	  CB	1846.750	556.661	-1898.302	C.3	4	GLU4	0.056	
49	  CG	1846.203	557.664	-1899.368	C.3	4	GLU4	0.014	
50	  CD	1844.776	558.161	-1899.224	C.2	4	GLU4	0.805	
51	 OE1	1844.050	557.763	-1898.294	O.co2	4	GLU4	-0.819	
52	 OE2	1844.386	558.991	-1900.073	O.co2	4	GLU4	-0.819	
53	   H	1847.914	554.964	-1896.766	 H	4	GLU4	0.294	
54	  HA	1848.370	555.772	-1899.464	 H	4	GLU4	0.111	
55	 2HB	1846.598	557.101	-1897.296	 H	4	GLU4	-0.017	
56	 3HB	1846.103	555.763	-1898.309	 H	4	GLU4	-0.017	
57	 2HG	1846.284	557.250	-1900.386	 H	4	GLU4	-0.043	
58	 3HG	1846.791	558.597	-1899.379	 H	4	GLU4	-0.043	
59	   N	1849.365	558.006	-1897.268	N.am	5	SER5	-0.416	
60	  CA	1850.235	559.177	-1897.210	C.3	5	SER5	-0.025	
61	   C	1851.594	558.872	-1897.796	C.2	5	SER5	0.597	
62	   O	1852.141	559.625	-1898.601	O.2	5	SER5	-0.568	
63	  CB	1850.346	559.709	-1895.760	C.3	5	SER5	0.212	
64	  OG	1851.078	558.830	-1894.898	O.3	5	SER5	-0.655	
65	   H	1848.948	557.634	-1896.427	 H	5	SER5	0.272	
66	  HA	1849.785	559.967	-1897.839	 H	5	SER5	0.084	
67	 2HB	1849.346	559.903	-1895.326	 H	5	SER5	0.035	
68	 3HB	1850.852	560.695	-1895.762	 H	5	SER5	0.035	
69	  HG	1850.589	558.005	-1894.848	 H	5	SER5	0.428	
70	   N	1852.199	557.789	-1897.441	N.am	6	ILE6	-0.416	
71	  CA	1853.512	557.494	-1898.008	C.3	6	ILE6	-0.060	
72	   C	1853.454	557.456	-1899.515	C.2	6	ILE6	0.597	
73	   O	1854.289	558.044	-1900.219	O.2	6	ILE6	-0.568	
74	  CB	1854.112	556.158	-1897.408	C.3	6	ILE6	0.130	
75	 CG1	1854.131	556.096	-1895.847	C.3	6	ILE6	-0.043	
76	 CG2	1855.553	555.856	-1897.923	C.3	6	ILE6	-0.320	
77	 CD1	1854.401	554.706	-1895.232	C.3	6	ILE6	-0.066	
78	   H	1851.770	557.154	-1896.782	 H	6	ILE6	0.272	
79	  HA	1854.186	558.328	-1897.740	 H	6	ILE6	0.087	
80	  HB	1853.454	555.332	-1897.752	 H	6	ILE6	0.019	
81	2HG1	1853.149	556.415	-1895.451	 H	6	ILE6	0.024	
82	3HG1	1854.847	556.838	-1895.442	 H	6	ILE6	0.024	
83	1HG2	1855.612	555.763	-1899.021	 H	6	ILE6	0.088	
84	2HG2	1856.275	556.639	-1897.621	 H	6	ILE6	0.088	
85	3HG2	1855.943	554.894	-1897.544	 H	6	ILE6	0.088	
86	1HD1	1853.673	553.952	-1895.586	 H	6	ILE6	0.019	
87	2HD1	1855.412	554.328	-1895.468	 H	6	ILE6	0.019	
88	3HD1	1854.325	554.736	-1894.129	 H	6	ILE6	0.019	
89	   N	1852.509	556.793	-1900.089	N.am	7	LEU7	-0.416	
90	  CA	1852.454	556.757	-1901.548	C.3	7	LEU7	-0.052	
91	   C	1852.381	558.152	-1902.120	C.2	7	LEU7	0.597	
92	   O	1853.102	558.515	-1903.062	O.2	7	LEU7	-0.568	
93	  CB	1851.251	555.896	-1902.028	C.3	7	LEU7	-0.110	
94	  CG	1851.178	554.417	-1901.562	C.3	7	LEU7	0.353	
95	 CD1	1849.989	553.711	-1902.227	C.3	7	LEU7	-0.412	
96	 CD2	1852.472	553.638	-1901.853	C.3	7	LEU7	-0.412	
97	   H	1851.817	556.305	-1899.538	 H	7	LEU7	0.272	
98	  HA	1853.396	556.317	-1901.922	 H	7	LEU7	0.092	
99	 2HB	1851.228	555.912	-1903.135	 H	7	LEU7	0.046	
100	 3HB	1850.311	556.399	-1901.724	 H	7	LEU7	0.046	
101	  HG	1851.009	554.409	-1900.464	 H	7	LEU7	-0.036	
102	1HD1	1849.031	554.220	-1902.005	 H	7	LEU7	0.100	
103	2HD1	1850.088	553.670	-1903.328	 H	7	LEU7	0.100	
104	3HD1	1849.882	552.670	-1901.871	 H	7	LEU7	0.100	
105	1HD2	1852.747	553.668	-1902.923	 H	7	LEU7	0.100	
106	2HD2	1853.325	554.050	-1901.282	 H	7	LEU7	0.100	
107	3HD2	1852.391	552.576	-1901.557	 H	7	LEU7	0.100	
108	   N	1851.544	558.992	-1901.614	N.am	8	ASP8	-0.516	
109	  CA	1851.473	560.342	-1902.167	C.3	8	ASP8	0.038	
110	   C	1852.820	561.022	-1902.110	C.2	8	ASP8	0.537	
111	   O	1853.292	561.627	-1903.084	O.2	8	ASP8	-0.582	
112	  CB	1850.395	561.180	-1901.425	C.3	8	ASP8	-0.030	
113	  CG	1850.176	562.601	-1901.965	C.2	8	ASP8	0.799	
114	 OD1	1850.240	562.801	-1903.196	O.co2	8	ASP8	-0.801	
115	 OD2	1849.983	563.527	-1901.150	O.co2	8	ASP8	-0.801	
116	   H	1850.946	558.721	-1900.846	 H	8	ASP8	0.294	
117	  HA	1851.190	560.264	-1903.234	 H	8	ASP8	0.088	
118	 2HB	1850.652	561.264	-1900.353	 H	8	ASP8	-0.012	
119	 3HB	1849.416	560.675	-1901.458	 H	8	ASP8	-0.012	
120	   N	1853.499	560.972	-1901.014	N.am	9	GLU9	-0.516	
121	  CA	1854.802	561.630	-1900.959	C.3	9	GLU9	0.040	
122	   C	1855.720	561.103	-1902.035	C.2	9	GLU9	0.537	
123	   O	1856.384	561.858	-1902.760	O.2	9	GLU9	-0.582	
124	  CB	1855.435	561.422	-1899.553	C.3	9	GLU9	0.056	
125	  CG	1856.818	562.115	-1899.324	C.3	9	GLU9	0.014	
126	  CD	1857.519	561.902	-1897.995	C.2	9	GLU9	0.805	
127	 OE1	1856.998	561.210	-1897.099	O.co2	9	GLU9	-0.819	
128	 OE2	1858.638	562.440	-1897.863	O.co2	9	GLU9	-0.819	
129	   H	1853.136	560.485	-1900.208	 H	9	GLU9	0.294	
130	  HA	1854.659	562.712	-1901.134	 H	9	GLU9	0.111	
131	 2HB	1855.549	560.338	-1899.350	 H	9	GLU9	-0.017	
132	 3HB	1854.738	561.775	-1898.769	 H	9	GLU9	-0.017	
133	 2HG	1856.745	563.206	-1899.463	 H	9	GLU9	-0.043	
134	 3HG	1857.564	561.770	-1900.058	 H	9	GLU9	-0.043	
135	   N	1855.817	559.828	-1902.204	N.am	10	HIS10	-0.416	
136	  CA	1856.705	559.317	-1903.245	C.3	10	HIS10	-0.058	
137	   C	1856.339	559.882	-1904.596	C.2	10	HIS10	0.597	
138	   O	1857.191	560.347	-1905.367	O.2	10	HIS10	-0.568	
139	  CB	1856.542	557.788	-1903.240	C.3	10	HIS10	-0.007	
140	  CG	1857.828	557.078	-1902.932	C.2	10	HIS10	0.187	
141	 CD2	1858.208	556.743	-1901.640	C.2	10	HIS10	-0.221	
142	 ND1	1858.780	556.673	-1903.865	N.2	10	HIS10	-0.543	
143	 CE1	1859.686	556.114	-1903.042	C.2	10	HIS10	0.163	
144	 NE2	1859.423	556.111	-1901.706	N.pl3	10	HIS10	-0.280	
145	   H	1855.286	559.192	-1901.626	 H	10	HIS10	0.272	
146	  HA	1857.724	559.675	-1903.020	 H	10	HIS10	0.136	
147	 2HB	1856.177	557.421	-1904.220	 H	10	HIS10	0.037	
148	 3HB	1855.786	557.451	-1902.501	 H	10	HIS10	0.037	
149	 2HD	1857.623	556.957	-1900.751	 H	10	HIS10	0.186	
150	 1HE	1860.577	555.694	-1903.488	 H	10	HIS10	0.144	
151	 2HE	1859.990	555.734	-1900.933	 H	10	HIS10	0.334	
152	   N	1855.101	559.881	-1904.959	N.am	11	VAL11	-0.416	
153	  CA	1854.746	560.427	-1906.266	C.3	11	VAL11	-0.087	
154	   C	1855.210	561.858	-1906.398	C.2	11	VAL11	0.597	
155	   O	1855.811	562.263	-1907.401	O.2	11	VAL11	-0.568	
156	  CB	1853.185	560.320	-1906.486	C.3	11	VAL11	0.299	
157	 CG1	1852.616	561.024	-1907.748	C.3	11	VAL11	-0.319	
158	 CG2	1852.661	558.865	-1906.559	C.3	11	VAL11	-0.319	
159	   H	1854.388	559.507	-1904.349	 H	11	VAL11	0.272	
160	  HA	1855.266	559.845	-1907.048	 H	11	VAL11	0.097	
161	  HB	1852.697	560.800	-1905.610	 H	11	VAL11	-0.030	
162	1HG1	1853.055	560.633	-1908.686	 H	11	VAL11	0.079	
163	2HG1	1851.517	560.916	-1907.831	 H	11	VAL11	0.079	
164	3HG1	1852.794	562.116	-1907.739	 H	11	VAL11	0.079	
165	1HG2	1852.950	558.278	-1905.669	 H	11	VAL11	0.079	
166	2HG2	1851.555	558.828	-1906.602	 H	11	VAL11	0.079	
167	3HG2	1853.043	558.325	-1907.446	 H	11	VAL11	0.079	
168	   N	1854.972	562.683	-1905.435	N.am	12	ALA12	-0.416	
169	  CA	1855.421	564.066	-1905.563	C.3	12	ALA12	0.034	
170	   C	1856.910	564.132	-1905.800	C.2	12	ALA12	0.597	
171	   O	1857.403	564.843	-1906.684	O.2	12	ALA12	-0.568	
172	  CB	1854.986	564.817	-1904.292	C.3	12	ALA12	-0.183	
173	   H	1854.483	562.377	-1904.606	 H	12	ALA12	0.272	
174	  HA	1854.927	564.518	-1906.444	 H	12	ALA12	0.082	
175	 1HB	1853.888	564.790	-1904.154	 H	12	ALA12	0.060	
176	 2HB	1855.437	564.384	-1903.378	 H	12	ALA12	0.060	
177	 3HB	1855.276	565.883	-1904.324	 H	12	ALA12	0.060	
178	   N	1857.693	563.424	-1905.058	N.am	13	ARG13	-0.348	
179	  CA	1859.134	563.487	-1905.288	C.3	13	ARG13	-0.264	
180	   C	1859.470	563.115	-1906.713	C.2	13	ARG13	0.734	
181	   O	1860.240	563.785	-1907.397	O.2	13	ARG13	-0.589	
182	  CB	1859.845	562.548	-1904.274	C.3	13	ARG13	-0.001	
183	  CG	1861.390	562.698	-1904.192	C.3	13	ARG13	0.039	
184	  CD	1862.015	561.710	-1903.193	C.3	13	ARG13	0.049	
185	  NE	1863.492	561.915	-1903.142	N.pl3	13	ARG13	-0.530	
186	  CZ	1864.339	561.222	-1902.386	C.cat	13	ARG13	0.808	
187	 NH1	1863.972	560.259	-1901.588	N.pl3	13	ARG13	-0.863	
188	 NH2	1865.599	561.519	-1902.442	N.pl3	13	ARG13	-0.863	
189	   H	1857.316	562.835	-1904.330	 H	13	ARG13	0.275	
190	  HA	1859.460	564.533	-1905.130	 H	13	ARG13	0.156	
191	 2HB	1859.577	561.498	-1904.512	 H	13	ARG13	0.033	
192	 3HB	1859.419	562.715	-1903.263	 H	13	ARG13	0.033	
193	 2HG	1861.640	563.743	-1903.912	 H	13	ARG13	0.029	
194	 3HG	1861.841	562.541	-1905.193	 H	13	ARG13	0.029	
195	 2HD	1861.769	560.670	-1903.502	 H	13	ARG13	0.069	
196	 3HD	1861.558	561.857	-1902.191	 H	13	ARG13	0.069	
197	  HE	1863.945	562.636	-1903.713	 H	13	ARG13	0.346	
198	1HH1	1862.966	560.074	-1901.592	 H	13	ARG13	0.448	
199	2HH1	1864.684	559.775	-1901.039	 H	13	ARG13	0.448	
200	1HH2	1865.868	562.276	-1903.073	 H	13	ARG13	0.448	
201	2HH2	1866.233	560.977	-1901.853	 H	13	ARG13	0.448	
202	   N	1858.933	562.061	-1907.228	N.am	14	VAL14	-0.416	
203	  CA	1859.258	561.701	-1908.604	C.3	14	VAL14	-0.087	
204	   C	1858.931	562.831	-1909.551	C.2	14	VAL14	0.597	
205	   O	1859.725	563.210	-1910.420	O.2	14	VAL14	-0.568	
206	  CB	1858.484	560.385	-1909.012	C.3	14	VAL14	0.299	
207	 CG1	1858.573	559.966	-1910.505	C.3	14	VAL14	-0.319	
208	 CG2	1858.913	559.132	-1908.210	C.3	14	VAL14	-0.319	
209	   H	1858.297	561.493	-1906.686	 H	14	VAL14	0.272	
210	  HA	1860.346	561.522	-1908.678	 H	14	VAL14	0.097	
211	  HB	1857.408	560.558	-1908.797	 H	14	VAL14	-0.030	
212	1HG1	1859.615	559.787	-1910.833	 H	14	VAL14	0.079	
213	2HG1	1857.999	559.043	-1910.718	 H	14	VAL14	0.079	
214	3HG1	1858.146	560.728	-1911.184	 H	14	VAL14	0.079	
215	1HG2	1858.825	559.291	-1907.120	 H	14	VAL14	0.079	
216	2HG2	1858.276	558.256	-1908.443	 H	14	VAL14	0.079	
217	3HG2	1859.961	558.840	-1908.415	 H	14	VAL14	0.079	
218	   N	1857.787	563.419	-1909.450	N.am	15	MET15	-0.416	
219	  CA	1857.469	564.511	-1910.364	C.3	15	MET15	-0.024	
220	   C	1858.501	565.610	-1910.276	C.2	15	MET15	0.597	
221	   O	1859.005	566.119	-1911.289	O.2	15	MET15	-0.568	
222	  CB	1856.048	565.060	-1910.057	C.3	15	MET15	0.034	
223	  CG	1854.885	564.063	-1910.249	C.3	15	MET15	0.002	
224	  SD	1853.312	564.932	-1910.136	S.3	15	MET15	-0.274	
225	  CE	1852.228	563.505	-1909.999	C.3	15	MET15	-0.054	
226	   H	1857.121	563.127	-1908.749	 H	15	MET15	0.272	
227	  HA	1857.495	564.124	-1911.400	 H	15	MET15	0.088	
228	 2HB	1855.848	565.938	-1910.699	 H	15	MET15	0.024	
229	 3HB	1856.013	565.453	-1909.020	 H	15	MET15	0.024	
230	 2HG	1854.926	563.278	-1909.470	 H	15	MET15	0.044	
231	 3HG	1854.947	563.548	-1911.224	 H	15	MET15	0.044	
232	 1HE	1852.371	562.816	-1910.851	 H	15	MET15	0.068	
233	 2HE	1852.436	562.952	-1909.066	 H	15	MET15	0.068	
234	 3HE	1851.171	563.821	-1909.983	 H	15	MET15	0.068	
235	   N	1858.870	566.031	-1909.114	N.am	16	ARG16	-0.348	
236	  CA	1859.868	567.093	-1909.031	C.3	16	ARG16	-0.264	
237	   C	1861.138	566.698	-1909.746	C.2	16	ARG16	0.734	
238	   O	1861.251	565.621	-1910.327	O.2	16	ARG16	-0.589	
239	  CB	1860.137	567.411	-1907.532	C.3	16	ARG16	-0.001	
240	  CG	1860.964	568.699	-1907.260	C.3	16	ARG16	0.039	
241	  CD	1861.213	568.919	-1905.759	C.3	16	ARG16	0.049	
242	  NE	1861.992	570.176	-1905.558	N.pl3	16	ARG16	-0.530	
243	  CZ	1862.383	570.659	-1904.382	C.cat	16	ARG16	0.808	
244	 NH1	1862.134	570.075	-1903.244	N.pl3	16	ARG16	-0.863	
245	 NH2	1863.049	571.770	-1904.364	N.pl3	16	ARG16	-0.863	
246	   H	1858.474	565.632	-1908.275	 H	16	ARG16	0.275	
247	  HA	1859.461	567.986	-1909.541	 H	16	ARG16	0.156	
248	 2HB	1860.632	566.535	-1907.065	 H	16	ARG16	0.033	
249	 3HB	1859.168	567.494	-1906.999	 H	16	ARG16	0.033	
250	 2HG	1860.435	569.571	-1907.698	 H	16	ARG16	0.029	
251	 3HG	1861.938	568.644	-1907.788	 H	16	ARG16	0.029	
252	 2HD	1861.760	568.043	-1905.344	 H	16	ARG16	0.069	
253	 3HD	1860.240	568.963	-1905.224	 H	16	ARG16	0.069	
254	  HE	1862.272	570.756	-1906.355	 H	16	ARG16	0.346	
255	1HH1	1861.607	569.203	-1903.328	 H	16	ARG16	0.448	
256	2HH1	1862.469	570.511	-1902.383	 H	16	ARG16	0.448	
257	1HH2	1863.236	572.212	-1905.266	 H	16	ARG16	0.448	
258	2HH2	1863.339	572.125	-1903.452	 H	16	ARG16	0.448	
@<TRIPOS>BOND
1 1 2 1
2 1 10 1
3 2 3 1
4 2 5 1
5 2 11 1
6 3 4 2
7 3 16 1
8 5 6 1
9 6 7 1
10 7 8 2
11 7 9 1
12 5 12 1
13 5 13 1
14 6 14 1
15 6 15 1
16 16 17 1
17 16 24 1
18 17 18 1
19 17 20 1
20 17 25 1
21 18 19 2
22 18 30 1
23 20 21 1
24 21 22 1
25 21 23 2
26 20 26 1
27 20 27 1
28 22 28 1
29 22 29 1
30 30 31 1
31 30 36 1
32 31 32 1
33 31 34 1
34 31 37 1
35 32 33 2
36 32 44 1
37 34 35 1
38 35 36 1
39 34 38 1
40 34 39 1
41 35 40 1
42 35 41 1
43 36 42 1
44 36 43 1
45 44 45 1
46 44 53 1
47 45 46 1
48 45 48 1
49 45 54 1
50 46 47 2
51 46 59 1
52 48 49 1
53 49 50 1
54 50 51 2
55 50 52 1
56 48 55 1
57 48 56 1
58 49 57 1
59 49 58 1
60 59 60 1
61 59 65 1
62 60 61 1
63 60 63 1
64 60 66 1
65 61 62 2
66 61 70 1
67 63 64 1
68 63 67 1
69 63 68 1
70 64 69 1
71 70 71 1
72 70 78 1
73 71 72 1
74 71 74 1
75 71 79 1
76 72 73 2
77 72 89 1
78 74 75 1
79 74 76 1
80 75 77 1
81 74 80 1
82 75 81 1
83 75 82 1
84 76 83 1
85 76 84 1
86 76 85 1
87 77 86 1
88 77 87 1
89 77 88 1
90 89 90 1
91 89 97 1
92 90 91 1
93 90 93 1
94 90 98 1
95 91 92 2
96 91 108 1
97 93 94 1
98 94 95 1
99 94 96 1
100 93 99 1
101 93 100 1
102 94 101 1
103 95 102 1
104 95 103 1
105 95 104 1
106 96 105 1
107 96 106 1
108 96 107 1
109 108 109 1
110 108 116 1
111 109 110 1
112 109 112 1
113 109 117 1
114 110 111 2
115 110 120 1
116 112 113 1
117 113 114 2
118 113 115 1
119 112 118 1
120 112 119 1
121 120 121 1
122 120 129 1
123 121 122 1
124 121 124 1
125 121 130 1
126 122 123 2
127 122 135 1
128 124 125 1
129 125 126 1
130 126 127 2
131 126 128 1
132 124 131 1
133 124 132 1
134 125 133 1
135 125 134 1
136 135 136 1
137 135 145 1
138 136 137 1
139 136 139 1
140 136 146 1
141 137 138 2
142 137 152 1
143 139 140 1
144 140 141 2
145 141 144 1
146 140 142 1
147 142 143 2
148 143 144 1
149 139 147 1
150 139 148 1
151 141 149 1
152 143 150 1
153 144 151 1
154 152 153 1
155 152 159 1
156 153 154 1
157 153 156 1
158 153 160 1
159 154 155 2
160 154 168 1
161 156 157 1
162 156 158 1
163 156 161 1
164 157 162 1
165 157 163 1
166 157 164 1
167 158 165 1
168 158 166 1
169 158 167 1
170 168 169 1
171 168 173 1
172 169 170 1
173 169 172 1
174 169 174 1
175 170 171 2
176 170 178 1
177 172 175 1
178 172 176 1
179 172 177 1
180 178 179 1
181 178 189 1
182 179 180 1
183 179 182 1
184 179 190 1
185 180 181 2
186 180 202 1
187 182 183 1
188 183 184 1
189 184 185 1
190 185 186 1
191 186 187 2
192 186 188 1
193 182 191 1
194 182 192 1
195 183 193 1
196 183 194 1
197 184 195 1
198 184 196 1
199 185 197 1
200 187 198 1
201 187 199 1
202 188 200 1
203 188 201 1
204 202 203 1
205 202 209 1
206 203 204 1
207 203 206 1
208 203 210 1
209 204 205 2
210 204 218 1
211 206 207 1
212 206 208 1
213 206 211 1
214 207 212 1
215 207 213 1
216 207 214 1
217 208 215 1
218 208 216 1
219 208 217 1
220 218 219 1
221 218 226 1
222 219 220 1
223 219 222 1
224 219 227 1
225 220 221 2
226 220 235 1
227 222 223 1
228 223 224 1
229 224 225 1
230 222 228 1
231 222 229 1
232 223 230 1
233 223 231 1
234 225 232 1
235 225 233 1
236 225 234 1
237 235 236 1
238 235 246 1
239 236 237 1
240 236 239 1
241 236 247 1
242 237 238 2
243 239 240 1
244 240 241 1
245 241 242 1
246 242 243 1
247 243 244 2
248 243 245 1
249 239 248 1
250 239 249 1
251 240 250 1
252 240 251 1
253 241 252 1
254 241 253 1
255 242 254 1
256 244 255 1
257 244 256 1
258 245 257 1
259 245 258 1
@<TRIPOS>SUBSTRUCTURE
1	GLU1	1	RESIDUE	1 ****	GLU
2	ASN2	16	RESIDUE	1 ****	ASN
3	PRO3	30	RESIDUE	1 ****	PRO
4	GLU4	44	RESIDUE	1 ****	GLU
5	SER5	59	RESIDUE	1 ****	SER
6	ILE6	70	RESIDUE	1 ****	ILE
7	LEU7	89	RESIDUE	1 ****	LEU
8	ASP8	108	RESIDUE	1 ****	ASP
9	GLU9	120	RESIDUE	1 ****	GLU
10	HIS10	135	RESIDUE	1 ****	HIS
11	VAL11	152	RESIDUE	1 ****	VAL
12	ALA12	168	RESIDUE	1 ****	ALA
13	ARG13	178	RESIDUE	1 ****	ARG
14	VAL14	202	RESIDUE	1 ****	VAL
15	MET15	218	RESIDUE	1 ****	MET
16	ARG16	235	RESIDUE	1 ****	ARG
