REMARK WARNING: 32 MAX_TORS EXCEEDED!!!
REMARK  67 active torsions:
REMARK  status: ('A' for Active; 'I' for Inactive)
REMARK    1  A    between atoms: N_1  and  CA_2 
REMARK    2  A    between atoms: CA_2  and  C_3 
REMARK    3  A    between atoms: CA_2  and  CB_5 
REMARK       I    between atoms: C_3  and  N_11 
REMARK    4  A    between atoms: CB_5  and  CG_6 
REMARK    5  A    between atoms: CG_6  and  CD_7 
REMARK    6  A    between atoms: N_11  and  CA_12 
REMARK    7  A    between atoms: CA_12  and  C_13 
REMARK    8  A    between atoms: CA_12  and  CB_15 
REMARK       I    between atoms: C_13  and  N_22 
REMARK    9  A    between atoms: CB_15  and  CG_16 
REMARK       I    between atoms: CG_16  and  ND2_17 
REMARK   10  A    between atoms: CA_23  and  C_24 
REMARK       I    between atoms: C_24  and  N_29 
REMARK   11  A    between atoms: N_29  and  CA_30 
REMARK   12  A    between atoms: CA_30  and  C_31 
REMARK   13  A    between atoms: CA_30  and  CB_33 
REMARK       I    between atoms: C_31  and  N_39 
REMARK   14  A    between atoms: CB_33  and  CG_34 
REMARK   15  A    between atoms: CG_34  and  CD_35 
REMARK   16  A    between atoms: N_39  and  CA_40 
REMARK   17  A    between atoms: CA_40  and  C_41 
REMARK   18  A    between atoms: CA_40  and  CB_43 
REMARK       I    between atoms: C_41  and  N_47 
REMARK   19  A    between atoms: CB_43  and  OG_44 
REMARK   20  A    between atoms: N_47  and  CA_48 
REMARK   21  A    between atoms: CA_48  and  C_49 
REMARK   22  A    between atoms: CA_48  and  CB_51 
REMARK       I    between atoms: C_49  and  N_56 
REMARK   23  A    between atoms: CB_51  and  CG1_52 
REMARK   24  A    between atoms: N_56  and  CA_57 
REMARK   25  A    between atoms: CA_57  and  C_58 
REMARK   26  A    between atoms: CA_57  and  CB_60 
REMARK       I    between atoms: C_58  and  N_65 
REMARK   27  A    between atoms: CB_60  and  CG_61 
REMARK   28  A    between atoms: N_65  and  CA_66 
REMARK   29  A    between atoms: CA_66  and  C_67 
REMARK   30  A    between atoms: CA_66  and  CB_69 
REMARK       I    between atoms: C_67  and  N_74 
REMARK   31  A    between atoms: CB_69  and  CG_70 
REMARK   32  A    between atoms: N_74  and  CA_75 
REMARK   33  A    between atoms: CA_75  and  C_76 
REMARK   34  A    between atoms: CA_75  and  CB_78 
REMARK       I    between atoms: C_76  and  N_84 
REMARK   35  A    between atoms: CB_78  and  CG_79 
REMARK   36  A    between atoms: CG_79  and  CD_80 
REMARK   37  A    between atoms: N_84  and  CA_85 
REMARK   38  A    between atoms: CA_85  and  C_86 
REMARK   39  A    between atoms: CA_85  and  CB_88 
REMARK       I    between atoms: C_86  and  N_96 
REMARK   40  A    between atoms: CB_88  and  CG_89 
REMARK   41  A    between atoms: N_96  and  CA_97 
REMARK   42  A    between atoms: CA_97  and  C_98 
REMARK       I    between atoms: C_98  and  N_102 
REMARK   43  A    between atoms: N_102  and  CA_103 
REMARK   44  A    between atoms: CA_103  and  C_104 
REMARK   45  A    between atoms: CA_103  and  CB_106 
REMARK       I    between atoms: C_104  and  N_114 
REMARK   46  A    between atoms: CB_106  and  CG_107 
REMARK   47  A    between atoms: CG_107  and  CD_108 
REMARK       I    between atoms: CD_108  and  NE2_109 
REMARK   48  A    between atoms: N_114  and  CA_115 
REMARK   49  A    between atoms: CA_115  and  C_116 
REMARK   50  A    between atoms: CA_115  and  CB_118 
REMARK       I    between atoms: C_116  and  N_131 
REMARK   51  A    between atoms: CB_118  and  CG_119 
REMARK   52  A    between atoms: CG_119  and  CD_120 
REMARK   53  A    between atoms: CD_120  and  NE_121 
REMARK       I    between atoms: NE_121  and  CZ_122 
REMARK       I    between atoms: CZ_122  and  NH1_123 
REMARK       I    between atoms: CZ_122  and  NH2_124 
REMARK   54  A    between atoms: N_131  and  CA_132 
REMARK   55  A    between atoms: CA_132  and  C_133 
REMARK   56  A    between atoms: CA_132  and  CB_135 
REMARK       I    between atoms: C_133  and  N_139 
REMARK   57  A    between atoms: N_139  and  CA_140 
REMARK   58  A    between atoms: CA_140  and  C_141 
REMARK   59  A    between atoms: CA_140  and  CB_143 
REMARK       I    between atoms: C_141  and  N_148 
REMARK   60  A    between atoms: CB_143  and  CG_144 
REMARK   61  A    between atoms: CG_144  and  SD_145 
REMARK   62  A    between atoms: N_148  and  CA_149 
REMARK   63  A    between atoms: CA_149  and  C_150 
REMARK   64  A    between atoms: CA_149  and  CB_152 
REMARK   65  A    between atoms: CB_152  and  CG_153 
REMARK   66  A    between atoms: CG_153  and  CD_154 
REMARK   67  A    between atoms: CD_154  and  NE_155 
REMARK       I    between atoms: NE_155  and  CZ_156 
REMARK       I    between atoms: CZ_156  and  NH1_157 
ROOT
ATOM      1  C   GLU d   9    1691.503 507.636-1723.999  0.00  0.00     0.241 C 
ATOM      2  O   GLU d   9    1692.167 508.390-1724.724  0.00  0.00    -0.271 OA
ATOM      3  N   HIS d  10    1691.600 506.361-1724.169  0.00  0.00    -0.346 N 
ATOM      4  H   HIS d  10    1691.069 505.725-1723.591  0.00  0.00     0.163 HD
ENDROOT
BRANCH   1   5
ATOM      5  CA  GLU d   9    1690.585 508.163-1722.923  0.00  0.00     0.177 C 
BRANCH   5   6
ATOM      6  N   GLU d   9    1689.282 507.505-1722.978  0.00  0.00    -0.346 N 
ATOM      7  C   ASP d   8    1688.603 507.555-1724.073  0.00  0.00     0.241 C 
ATOM      8  O   ASP d   8    1689.075 508.161-1725.048  0.00  0.00    -0.271 OA
ATOM      9  H   GLU d   9    1688.919 507.018-1722.171  0.00  0.00     0.163 HD
BRANCH   7  10
ATOM     10  CA  ASP d   8    1687.256 506.875-1724.131  0.00  0.00     0.186 C 
BRANCH  10  11
ATOM     11  N   ASP d   8    1687.327 505.526-1723.578  0.00  0.00    -0.346 N 
ATOM     12  C   LEU d   7    1688.164 504.685-1724.084  0.00  0.00     0.241 C 
ATOM     13  O   LEU d   7    1688.884 505.048-1725.026  0.00  0.00    -0.271 OA
ATOM     14  H   ASP d   8    1686.729 505.254-1722.810  0.00  0.00     0.163 HD
BRANCH  12  15
ATOM     15  CA  LEU d   7    1688.236 503.290-1723.512  0.00  0.00     0.177 C 
BRANCH  15  16
ATOM     16  N   LEU d   7    1688.291 503.326-1722.054  0.00  0.00    -0.346 N 
ATOM     17  C   ILE d   6    1689.237 503.989-1721.480  0.00  0.00     0.241 C 
ATOM     18  O   ILE d   6    1690.072 504.577-1722.184  0.00  0.00    -0.271 OA
ATOM     19  H   LEU d   7    1687.599 502.838-1721.502  0.00  0.00     0.163 HD
BRANCH  17  20
ATOM     20  CA  ILE d   6    1689.295 504.026-1719.972  0.00  0.00     0.180 C 
BRANCH  20  21
ATOM     21  N   ILE d   6    1687.982 504.321-1719.406  0.00  0.00    -0.346 N 
ATOM     22  C   SER d   5    1687.377 505.404-1719.760  0.00  0.00     0.243 C 
ATOM     23  O   SER d   5    1687.924 506.158-1720.565  0.00  0.00    -0.271 OA
ATOM     24  H   ILE d   6    1687.553 503.687-1718.747  0.00  0.00     0.163 HD
BRANCH  22  25
ATOM     25  CA  SER d   5    1686.018 505.710-1719.174  0.00  0.00     0.200 C 
BRANCH  25  26
ATOM     26  N   SER d   5    1685.149 504.538-1719.232  0.00  0.00    -0.344 N 
ATOM     27  C   GLU d   4    1684.921 503.986-1720.375  0.00  0.00     0.241 C 
ATOM     28  O   GLU d   4    1685.447 504.465-1721.390  0.00  0.00    -0.271 OA
ATOM     29  H   SER d   5    1684.732 504.167-1718.391  0.00  0.00     0.163 HD
BRANCH  27  30
ATOM     30  CA  GLU d   4    1684.022 502.774-1720.437  0.00  0.00     0.177 C 
BRANCH  30  31
ATOM     31  N   GLU d   4    1684.382 501.803-1719.407  0.00  0.00    -0.346 N 
ATOM     32  C   PRO d   3    1685.587 501.343-1719.375  0.00  0.00     0.241 C 
ATOM     33  O   PRO d   3    1686.410 501.726-1720.206  0.00  0.00    -0.271 OA
ATOM     34  H   GLU d   4    1683.698 501.496-1718.730  0.00  0.00     0.163 HD
BRANCH  32  35
ATOM     35  CA  PRO d   3    1685.985 500.320-1718.298  0.00  0.00     0.179 C 
ATOM     36  N   PRO d   3    1685.533 500.729-1716.976  0.00  0.00    -0.337 N 
ATOM     37  C   ASN d   2    1686.055 501.724-1716.342  0.00  0.00     0.243 C 
ATOM     38  CD  PRO d   3    1684.455 499.936-1716.427  0.00  0.00     0.127 C 
ATOM     39  O   ASN d   2    1686.969 502.355-1716.871  0.00  0.00    -0.271 OA
ATOM     40  CG  PRO d   3    1683.998 499.117-1717.637  0.00  0.00     0.022 C 
ATOM     41  CB  PRO d   3    1685.281 498.965-1718.467  0.00  0.00     0.037 C 
BRANCH  37  42
ATOM     42  CA  ASN d   2    1685.524 502.080-1714.974  0.00  0.00     0.185 C 
BRANCH  42  43
ATOM     43  N   ASN d   2    1684.064 502.118-1714.974  0.00  0.00    -0.346 N 
ATOM     44  C   GLU d   1    1683.460 502.904-1715.799  0.00  0.00     0.242 C 
ATOM     45  O   GLU d   1    1684.135 503.603-1716.567  0.00  0.00    -0.271 OA
ATOM     46  H   ASN d   2    1683.536 501.539-1714.337  0.00  0.00     0.163 HD
BRANCH  44  47
ATOM     47  CA  GLU d   1    1681.951 502.944-1715.799  0.00  0.00     0.191 C 
BRANCH  47  48
ATOM     48  N   GLU d   1    1681.392 501.595-1715.799  0.00  0.00    -0.326 NA
ATOM     49  H   GLU d   1    1682.019 500.716-1715.799  0.00  0.00     0.180 HD
ENDBRANCH  47  48
BRANCH  47  50
ATOM     50  CB  GLU d   1    1681.428 503.729-1714.562  0.00  0.00     0.047 C 
BRANCH  50  51
ATOM     51  CG  GLU d   1    1681.903 505.214-1714.451  0.00  0.00     0.116 C 
BRANCH  51  52
ATOM     52  CD  GLU d   1    1681.479 506.018-1713.236  0.00  0.00     0.172 C 
ATOM     53  OE1 GLU d   1    1680.751 505.516-1712.358  0.00  0.00    -0.648 OA
ATOM     54  OE2 GLU d   1    1681.909 507.188-1713.164  0.00  0.00    -0.648 OA
ENDBRANCH  51  52
ENDBRANCH  50  51
ENDBRANCH  47  50
ENDBRANCH  44  47
ENDBRANCH  42  43
BRANCH  42  55
ATOM     55  CB  ASN d   2    1686.016 501.057-1713.909  0.00  0.00     0.137 C 
BRANCH  55  56
ATOM     56  CG  ASN d   2    1685.553 501.281-1712.466  0.00  0.00     0.217 C 
ATOM     57  ND2 ASN d   2    1686.147 502.195-1711.748  0.00  0.00    -0.370 N 
ATOM     58 21HD ASN d   2    1685.666 502.368-1710.861  0.00  0.00     0.159 HD
ATOM     59 22HD ASN d   2    1686.848 502.767-1712.217  0.00  0.00     0.159 HD
ATOM     60  OD1 ASN d   2    1684.632 500.647-1711.972  0.00  0.00    -0.274 OA
ENDBRANCH  55  56
ENDBRANCH  42  55
ENDBRANCH  37  42
ENDBRANCH  32  35
ENDBRANCH  30  31
BRANCH  30  61
ATOM     61  CB  GLU d   4    1682.534 503.193-1720.266  0.00  0.00     0.045 C 
BRANCH  61  62
ATOM     62  CG  GLU d   4    1681.985 504.197-1721.332  0.00  0.00     0.116 C 
BRANCH  62  63
ATOM     63  CD  GLU d   4    1680.559 504.693-1721.188  0.00  0.00     0.172 C 
ATOM     64  OE1 GLU d   4    1679.833 504.295-1720.257  0.00  0.00    -0.648 OA
ATOM     65  OE2 GLU d   4    1680.169 505.522-1722.036  0.00  0.00    -0.648 OA
ENDBRANCH  62  63
ENDBRANCH  61  62
ENDBRANCH  30  61
ENDBRANCH  27  30
ENDBRANCH  25  26
BRANCH  25  66
ATOM     66  CB  SER d   5    1686.130 506.242-1717.723  0.00  0.00     0.199 C 
BRANCH  66  67
ATOM     67  OG  SER d   5    1686.862 505.362-1716.863  0.00  0.00    -0.398 OA
ATOM     68  HG  SER d   5    1686.373 504.537-1716.812  0.00  0.00     0.209 HD
ENDBRANCH  66  67
ENDBRANCH  25  66
ENDBRANCH  22  25
ENDBRANCH  20  21
BRANCH  20  69
ATOM     69  CB  ILE d   6    1689.894 502.690-1719.372  0.00  0.00     0.013 C 
ATOM     70  CG2 ILE d   6    1691.336 502.389-1719.888  0.00  0.00     0.012 C 
BRANCH  69  71
ATOM     71  CG1 ILE d   6    1689.914 502.628-1717.811  0.00  0.00     0.002 C 
ATOM     72  CD1 ILE d   6    1690.184 501.239-1717.197  0.00  0.00     0.005 C 
ENDBRANCH  69  71
ENDBRANCH  20  69
ENDBRANCH  17  20
ENDBRANCH  15  16
BRANCH  15  73
ATOM     73  CB  LEU d   7    1687.033 502.429-1723.993  0.00  0.00     0.038 C 
BRANCH  73  74
ATOM     74  CG  LEU d   7    1686.961 500.950-1723.526  0.00  0.00    -0.020 C 
ATOM     75  CD1 LEU d   7    1685.771 500.244-1724.192  0.00  0.00     0.009 C 
ATOM     76  CD2 LEU d   7    1688.254 500.171-1723.818  0.00  0.00     0.009 C 
ENDBRANCH  73  74
ENDBRANCH  15  73
ENDBRANCH  12  15
ENDBRANCH  10  11
BRANCH  10  77
ATOM     77  CB  ASP d   8    1686.178 507.714-1723.389  0.00  0.00     0.147 C 
BRANCH  77  78
ATOM     78  CG  ASP d   8    1685.959 509.135-1723.929  0.00  0.00     0.175 C 
ATOM     79  OD1 ASP d   8    1686.023 509.334-1725.159  0.00  0.00    -0.648 OA
ATOM     80  OD2 ASP d   8    1685.767 510.061-1723.113  0.00  0.00    -0.648 OA
ENDBRANCH  77  78
ENDBRANCH  10  77
ENDBRANCH   7  10
ENDBRANCH   5   6
BRANCH   5  81
ATOM     81  CB  GLU d   9    1691.219 507.955-1721.517  0.00  0.00     0.045 C 
BRANCH  81  82
ATOM     82  CG  GLU d   9    1692.601 508.647-1721.288  0.00  0.00     0.116 C 
BRANCH  82  83
ATOM     83  CD  GLU d   9    1693.303 508.433-1719.960  0.00  0.00     0.172 C 
ATOM     84  OE1 GLU d   9    1692.782 507.742-1719.064  0.00  0.00    -0.648 OA
ATOM     85  OE2 GLU d   9    1694.422 508.971-1719.828  0.00  0.00    -0.648 OA
ENDBRANCH  82  83
ENDBRANCH  81  82
ENDBRANCH   5  81
ENDBRANCH   1   5
BRANCH   3  86
ATOM     86  CA  HIS d  10    1692.487 505.850-1725.210  0.00  0.00     0.182 C 
BRANCH  86  87
ATOM     87  C   HIS d  10    1692.120 506.415-1726.561  0.00  0.00     0.241 C 
ATOM     88  O   HIS d  10    1692.973 506.880-1727.332  0.00  0.00    -0.271 OA
ATOM     89  N   ALA d  11    1690.882 506.414-1726.924  0.00  0.00    -0.346 N 
ATOM     90  H   ALA d  11    1690.169 506.041-1726.313  0.00  0.00     0.163 HD
BRANCH  89  91
ATOM     91  CA  ALA d  11    1690.528 506.961-1728.230  0.00  0.00     0.172 C 
ATOM     92  CB  ALA d  11    1689.007 506.811-1728.402  0.00  0.00     0.042 C 
BRANCH  91  93
ATOM     93  C   ALA d  11    1690.993 508.392-1728.361  0.00  0.00     0.240 C 
ATOM     94  O   ALA d  11    1691.594 508.797-1729.364  0.00  0.00    -0.271 OA
ATOM     95  N   GLN d  12    1690.755 509.217-1727.399  0.00  0.00    -0.346 N 
ATOM     96  H   GLN d  12    1690.266 508.910-1726.570  0.00  0.00     0.163 HD
BRANCH  95  97
ATOM     97  CA  GLN d  12    1691.204 510.600-1727.525  0.00  0.00     0.177 C 
BRANCH  97  98
ATOM     98  C   GLN d  12    1692.694 510.667-1727.762  0.00  0.00     0.241 C 
ATOM     99  O   GLN d  12    1693.182 511.376-1728.640  0.00  0.00    -0.271 OA
ATOM    100  N   ARG d  13    1693.478 509.959-1727.021  0.00  0.00    -0.346 N 
ATOM    101  H   ARG d  13    1693.102 509.369-1726.293  0.00  0.00     0.163 HD
BRANCH 100 102
ATOM    102  CA  ARG d  13    1694.919 510.025-1727.251  0.00  0.00     0.176 C 
BRANCH 102 103
ATOM    103  C   ARG d  13    1695.255 509.654-1728.676  0.00  0.00     0.241 C 
ATOM    104  O   ARG d  13    1696.025 510.326-1729.359  0.00  0.00    -0.271 OA
ATOM    105  N   VAL d  14    1694.719 508.600-1729.192  0.00  0.00    -0.346 N 
ATOM    106  H   VAL d  14    1694.084 508.032-1728.650  0.00  0.00     0.163 HD
BRANCH 105 107
ATOM    107  CA  VAL d  14    1695.045 508.242-1730.569  0.00  0.00     0.180 C 
BRANCH 107 108
ATOM    108  C   VAL d  14    1694.715 509.372-1731.514  0.00  0.00     0.241 C 
ATOM    109  O   VAL d  14    1695.510 509.754-1732.383  0.00  0.00    -0.271 OA
ATOM    110  N   MET d  15    1693.571 509.959-1731.413  0.00  0.00    -0.346 N 
ATOM    111  H   MET d  15    1692.906 509.666-1730.712  0.00  0.00     0.163 HD
BRANCH 110 112
ATOM    112  CA  MET d  15    1693.251 511.052-1732.326  0.00  0.00     0.177 C 
BRANCH 112 113
ATOM    113  C   MET d  15    1694.282 512.151-1732.237  0.00  0.00     0.241 C 
ATOM    114  O   MET d  15    1694.785 512.662-1733.250  0.00  0.00    -0.271 OA
ATOM    115  N   ARG d  16    1694.651 512.571-1731.075  0.00  0.00    -0.347 N 
ATOM    116  H   ARG d  16    1694.255 512.171-1730.236  0.00  0.00     0.163 HD
BRANCH 115 117
ATOM    117  CA  ARG d  16    1695.648 513.635-1730.990  0.00  0.00     0.162 C 
BRANCH 117 118
ATOM    118  C   ARG d  16    1696.918 513.242-1731.706  0.00  0.00     0.219 C 
ATOM    119  O   ARG d  16    1697.032 512.165-1732.288  0.00  0.00    -0.287 OA
ENDBRANCH 117 118
BRANCH 117 120
ATOM    120  CB  ARG d  16    1695.916 513.952-1729.492  0.00  0.00     0.035 C 
BRANCH 120 121
ATOM    121  CG  ARG d  16    1696.742 515.240-1729.218  0.00  0.00     0.023 C 
BRANCH 121 122
ATOM    122  CD  ARG d  16    1696.992 515.459-1727.717  0.00  0.00     0.138 C 
BRANCH 122 123
ATOM    123  NE  ARG d  16    1697.768 516.717-1727.515  0.00  0.00    -0.227 N 
ATOM    124  CZ  ARG d  16    1698.160 517.199-1726.339  0.00  0.00     0.665 C 
ATOM    125  NH1 ARG d  16    1697.911 516.614-1725.201  0.00  0.00    -0.235 N 
ATOM    126  NH2 ARG d  16    1698.824 518.311-1726.320  0.00  0.00    -0.235 N 
ATOM    127 11HH ARG d  16    1697.385 515.741-1725.286  0.00  0.00     0.174 HD
ATOM    128 12HH ARG d  16    1698.246 517.049-1724.339  0.00  0.00     0.174 HD
ATOM    129 21HH ARG d  16    1699.010 518.754-1727.221  0.00  0.00     0.174 HD
ATOM    130 22HH ARG d  16    1699.115 518.665-1725.407  0.00  0.00     0.174 HD
ATOM    131  HE  ARG d  16    1698.047 517.298-1728.312  0.00  0.00     0.177 HD
ENDBRANCH 122 123
ENDBRANCH 121 122
ENDBRANCH 120 121
ENDBRANCH 117 120
ENDBRANCH 115 117
ENDBRANCH 112 113
BRANCH 112 132
ATOM    132  CB  MET d  15    1691.830 511.598-1732.018  0.00  0.00     0.045 C 
BRANCH 132 133
ATOM    133  CG  MET d  15    1690.668 510.600-1732.211  0.00  0.00     0.076 C 
BRANCH 133 134
ATOM    134  SD  MET d  15    1689.094 511.467-1732.097  0.00  0.00    -0.173 SA
ATOM    135  CE  MET d  15    1688.012 510.038-1731.961  0.00  0.00     0.089 C 
ENDBRANCH 133 134
ENDBRANCH 132 133
ENDBRANCH 112 132
ENDBRANCH 110 112
ENDBRANCH 107 108
BRANCH 107 136
ATOM    136  CB  VAL d  14    1694.272 506.925-1730.977  0.00  0.00     0.009 C 
ATOM    137  CG1 VAL d  14    1694.362 506.508-1732.471  0.00  0.00     0.012 C 
ATOM    138  CG2 VAL d  14    1694.703 505.672-1730.177  0.00  0.00     0.012 C 
ENDBRANCH 107 136
ENDBRANCH 105 107
ENDBRANCH 102 103
BRANCH 102 139
ATOM    139  CB  ARG d  13    1695.631 509.085-1726.237  0.00  0.00     0.036 C 
BRANCH 139 140
ATOM    140  CG  ARG d  13    1697.176 509.238-1726.156  0.00  0.00     0.023 C 
BRANCH 140 141
ATOM    141  CD  ARG d  13    1697.802 508.249-1725.158  0.00  0.00     0.138 C 
BRANCH 141 142
ATOM    142  NE  ARG d  13    1699.280 508.456-1725.107  0.00  0.00    -0.227 N 
ATOM    143  CZ  ARG d  13    1700.127 507.764-1724.352  0.00  0.00     0.665 C 
ATOM    144  NH1 ARG d  13    1699.762 506.799-1723.555  0.00  0.00    -0.235 N 
ATOM    145  NH2 ARG d  13    1701.387 508.063-1724.408  0.00  0.00    -0.235 N 
ATOM    146 11HH ARG d  13    1698.756 506.613-1723.559  0.00  0.00     0.174 HD
ATOM    147 12HH ARG d  13    1700.474 506.316-1723.006  0.00  0.00     0.174 HD
ATOM    148 21HH ARG d  13    1701.655 508.821-1725.038  0.00  0.00     0.174 HD
ATOM    149 22HH ARG d  13    1702.022 507.521-1723.819  0.00  0.00     0.174 HD
ATOM    150  HE  ARG d  13    1699.731 509.179-1725.677  0.00  0.00     0.177 HD
ENDBRANCH 141 142
ENDBRANCH 140 141
ENDBRANCH 139 140
ENDBRANCH 102 139
ENDBRANCH 100 102
ENDBRANCH  97  98
BRANCH  97 151
ATOM    151  CB  GLN d  12    1690.813 511.367-1726.242  0.00  0.00     0.044 C 
BRANCH 151 152
ATOM    152  CG  GLN d  12    1691.174 512.888-1726.209  0.00  0.00     0.105 C 
BRANCH 152 153
ATOM    153  CD  GLN d  12    1690.871 513.701-1724.944  0.00  0.00     0.215 C 
ATOM    154  NE2 GLN d  12    1690.303 513.124-1723.916  0.00  0.00    -0.370 N 
ATOM    155 21HE GLN d  12    1690.196 513.718-1723.092  0.00  0.00     0.159 HD
ATOM    156 22HE GLN d  12    1690.140 512.121-1724.020  0.00  0.00     0.159 HD
ATOM    157  OE1 GLN d  12    1691.173 514.882-1724.866  0.00  0.00    -0.274 OA
ENDBRANCH 152 153
ENDBRANCH 151 152
ENDBRANCH  97 151
ENDBRANCH  95  97
ENDBRANCH  91  93
ENDBRANCH  89  91
ENDBRANCH  86  87
BRANCH  86 158
ATOM    158  CB  HIS d  10    1692.323 504.321-1725.206  0.00  0.00     0.095 C 
BRANCH 158 159
ATOM    159  CG  HIS d  10    1693.609 503.610-1724.899  0.00  0.00     0.053 A 
ATOM    160  CD2 HIS d  10    1693.990 503.274-1723.606  0.00  0.00     0.116 A 
ATOM    161  NE2 HIS d  10    1695.205 502.643-1723.673  0.00  0.00    -0.359 N 
ATOM    162  CE1 HIS d  10    1695.467 502.646-1725.009  0.00  0.00     0.207 A 
ATOM    163  2HE HIS d  10    1695.771 502.265-1722.901  0.00  0.00     0.166 HD
ATOM    164  ND1 HIS d  10    1694.561 503.205-1725.832  0.00  0.00    -0.247 NA
ENDBRANCH 158 159
ENDBRANCH  86 158
ENDBRANCH   3  86
TORSDOF 67
