REMARK WARNING: 32 MAX_TORS EXCEEDED!!!
REMARK  68 active torsions:
REMARK  status: ('A' for Active; 'I' for Inactive)
REMARK    1  A    between atoms: N_1  and  CA_2 
REMARK    2  A    between atoms: CA_2  and  C_3 
REMARK    3  A    between atoms: CA_2  and  CB_5 
REMARK       I    between atoms: C_3  and  N_15 
REMARK    4  A    between atoms: CB_5  and  CG_6 
REMARK    5  A    between atoms: CZ_11  and  OH_12 
REMARK    6  A    between atoms: N_15  and  CA_16 
REMARK    7  A    between atoms: CA_16  and  C_17 
REMARK    8  A    between atoms: CA_16  and  CB_19 
REMARK       I    between atoms: C_17  and  N_26 
REMARK    9  A    between atoms: CB_19  and  CG_20 
REMARK       I    between atoms: CG_20  and  ND2_21 
REMARK   10  A    between atoms: CA_27  and  C_28 
REMARK       I    between atoms: C_28  and  N_33 
REMARK   11  A    between atoms: N_33  and  CA_34 
REMARK   12  A    between atoms: CA_34  and  C_35 
REMARK   13  A    between atoms: CA_34  and  CB_37 
REMARK       I    between atoms: C_35  and  N_43 
REMARK   14  A    between atoms: CB_37  and  CG_38 
REMARK   15  A    between atoms: CG_38  and  CD_39 
REMARK   16  A    between atoms: N_43  and  CA_44 
REMARK   17  A    between atoms: CA_44  and  C_45 
REMARK   18  A    between atoms: CA_44  and  CB_47 
REMARK       I    between atoms: C_45  and  N_51 
REMARK   19  A    between atoms: CB_47  and  OG_48 
REMARK   20  A    between atoms: N_51  and  CA_52 
REMARK   21  A    between atoms: CA_52  and  C_53 
REMARK   22  A    between atoms: CA_52  and  CB_55 
REMARK       I    between atoms: C_53  and  N_60 
REMARK   23  A    between atoms: CB_55  and  CG1_56 
REMARK   24  A    between atoms: N_60  and  CA_61 
REMARK   25  A    between atoms: CA_61  and  C_62 
REMARK   26  A    between atoms: CA_61  and  CB_64 
REMARK       I    between atoms: C_62  and  N_69 
REMARK   27  A    between atoms: CB_64  and  CG_65 
REMARK   28  A    between atoms: N_69  and  CA_70 
REMARK   29  A    between atoms: CA_70  and  C_71 
REMARK   30  A    between atoms: CA_70  and  CB_73 
REMARK       I    between atoms: C_71  and  N_78 
REMARK   31  A    between atoms: CB_73  and  CG_74 
REMARK   32  A    between atoms: N_78  and  CA_79 
REMARK   33  A    between atoms: CA_79  and  C_80 
REMARK   34  A    between atoms: CA_79  and  CB_82 
REMARK       I    between atoms: C_80  and  N_88 
REMARK   35  A    between atoms: CB_82  and  CG_83 
REMARK   36  A    between atoms: CG_83  and  CD_84 
REMARK   37  A    between atoms: N_88  and  CA_89 
REMARK   38  A    between atoms: CA_89  and  C_90 
REMARK   39  A    between atoms: CA_89  and  CB_92 
REMARK       I    between atoms: C_90  and  N_100 
REMARK   40  A    between atoms: CB_92  and  CG_93 
REMARK   41  A    between atoms: N_100  and  CA_101 
REMARK   42  A    between atoms: CA_101  and  C_102 
REMARK   43  A    between atoms: CA_101  and  CB_104 
REMARK       I    between atoms: C_102  and  N_108 
REMARK   44  A    between atoms: N_108  and  CA_109 
REMARK   45  A    between atoms: CA_109  and  C_110 
REMARK   46  A    between atoms: CA_109  and  CB_112 
REMARK       I    between atoms: C_110  and  N_120 
REMARK   47  A    between atoms: CB_112  and  CG_113 
REMARK   48  A    between atoms: CG_113  and  CD_114 
REMARK       I    between atoms: CD_114  and  NE2_115 
REMARK   49  A    between atoms: N_120  and  CA_121 
REMARK   50  A    between atoms: CA_121  and  C_122 
REMARK   51  A    between atoms: CA_121  and  CB_124 
REMARK       I    between atoms: C_122  and  N_137 
REMARK   52  A    between atoms: CB_124  and  CG_125 
REMARK   53  A    between atoms: CG_125  and  CD_126 
REMARK   54  A    between atoms: CD_126  and  NE_127 
REMARK       I    between atoms: NE_127  and  CZ_128 
REMARK       I    between atoms: CZ_128  and  NH1_129 
REMARK       I    between atoms: CZ_128  and  NH2_130 
REMARK   55  A    between atoms: N_137  and  CA_138 
REMARK   56  A    between atoms: CA_138  and  C_139 
REMARK   57  A    between atoms: CA_138  and  CB_141 
REMARK       I    between atoms: C_139  and  N_145 
REMARK   58  A    between atoms: N_145  and  CA_146 
REMARK   59  A    between atoms: CA_146  and  C_147 
REMARK   60  A    between atoms: CA_146  and  CB_149 
REMARK       I    between atoms: C_147  and  N_154 
REMARK   61  A    between atoms: CB_149  and  CG_150 
REMARK   62  A    between atoms: CG_150  and  SD_151 
REMARK   63  A    between atoms: N_154  and  CA_155 
REMARK   64  A    between atoms: CA_155  and  C_156 
REMARK   65  A    between atoms: CA_155  and  CB_158 
REMARK   66  A    between atoms: CB_158  and  CG_159 
REMARK   67  A    between atoms: CG_159  and  CD_160 
REMARK   68  A    between atoms: CD_160  and  NE_161 
REMARK       I    between atoms: NE_161  and  CZ_162 
REMARK       I    between atoms: CZ_162  and  NH1_163 
ROOT
ATOM      1  CA  GLU d   9      81.015   7.492 -49.768  0.00  0.00     0.177 C 
ENDROOT
BRANCH   1   2
ATOM      2  N   GLU d   9      79.729   7.863 -50.352  0.00  0.00    -0.346 N 
ATOM      3  C   ASP d   8      79.335   7.269 -51.427  0.00  0.00     0.241 C 
ATOM      4  O   ASP d   8      80.060   6.398 -51.933  0.00  0.00    -0.271 OA
ATOM      5  H   GLU d   9      79.157   8.575 -49.921  0.00  0.00     0.163 HD
BRANCH   3   6
ATOM      6  CA  ASP d   8      78.006   7.653 -52.031  0.00  0.00     0.186 C 
BRANCH   6   7
ATOM      7  N   ASP d   8      76.964   7.711 -51.010  0.00  0.00    -0.346 N 
ATOM      8  C   LEU d   7      76.732   6.663 -50.293  0.00  0.00     0.241 C 
ATOM      9  O   LEU d   7      77.401   5.638 -50.492  0.00  0.00    -0.271 OA
ATOM     10  H   ASP d   8      76.433   8.557 -50.867  0.00  0.00     0.163 HD
BRANCH   8  11
ATOM     11  CA  LEU d   7      75.654   6.723 -49.237  0.00  0.00     0.177 C 
BRANCH  11  12
ATOM     12  N   LEU d   7      75.777   7.936 -48.434  0.00  0.00    -0.346 N 
ATOM     13  C   ILE d   6      76.885   8.167 -47.816  0.00  0.00     0.241 C 
ATOM     14  O   ILE d   6      77.814   7.353 -47.923  0.00  0.00    -0.271 OA
ATOM     15  H   LEU d   7      75.005   8.585 -48.363  0.00  0.00     0.163 HD
BRANCH  13  16
ATOM     16  CA  ILE d   6      77.013   9.421 -46.986  0.00  0.00     0.180 C 
BRANCH  16  17
ATOM     17  N   ILE d   6      76.528  10.587 -47.720  0.00  0.00    -0.346 N 
ATOM     18  C   SER d   5      77.055  10.869 -48.863  0.00  0.00     0.243 C 
ATOM     19  O   SER d   5      77.951  10.149 -49.301  0.00  0.00    -0.271 OA
ATOM     20  H   ILE d   6      75.791  11.163 -47.338  0.00  0.00     0.163 HD
BRANCH  18  21
ATOM     21  CA  SER d   5      76.554  12.075 -49.623  0.00  0.00     0.200 C 
BRANCH  21  22
ATOM     22  N   SER d   5      75.095  12.101 -49.658  0.00  0.00    -0.344 N 
ATOM     23  C   GLU d   4      74.463  11.090 -50.150  0.00  0.00     0.241 C 
ATOM     24  O   GLU d   4      75.114  10.126 -50.578  0.00  0.00    -0.271 OA
ATOM     25  H   SER d   5      74.587  12.899 -49.302  0.00  0.00     0.163 HD
BRANCH  23  26
ATOM     26  CA  GLU d   4      72.954  11.116 -50.186  0.00  0.00     0.177 C 
BRANCH  26  27
ATOM     27  N   GLU d   4      72.408  11.547 -48.902  0.00  0.00    -0.346 N 
ATOM     28  C   PRO d   3      72.720  10.890 -47.837  0.00  0.00     0.241 C 
ATOM     29  O   PRO d   3      73.469   9.916 -47.918  0.00  0.00    -0.271 OA
ATOM     30  H   GLU d   4      71.794  12.347 -48.849  0.00  0.00     0.163 HD
BRANCH  28  31
ATOM     31  CA  PRO d   3      72.154  11.328 -46.476  0.00  0.00     0.179 C 
ATOM     32  N   PRO d   3      72.288  12.763 -46.277  0.00  0.00    -0.337 N 
ATOM     33  C   ASN d   2      73.428  13.333 -46.080  0.00  0.00     0.243 C 
ATOM     34  CD  PRO d   3      71.045  13.503 -46.316  0.00  0.00     0.127 C 
ATOM     35  O   ASN d   2      74.445  12.641 -46.059  0.00  0.00    -0.271 OA
ATOM     36  CG  PRO d   3      70.061  12.467 -46.867  0.00  0.00     0.022 C 
ATOM     37  CB  PRO d   3      70.635  11.133 -46.366  0.00  0.00     0.037 C 
BRANCH  33  38
ATOM     38  CA  ASN d   2      73.474  14.830 -45.883  0.00  0.00     0.185 C 
BRANCH  38  39
ATOM     39  N   ASN d   2      72.672  15.515 -46.892  0.00  0.00    -0.346 N 
ATOM     40  C   TYR d   1      72.936  15.318 -48.140  0.00  0.00     0.242 C 
ATOM     41  O   TYR d   1      73.858  14.557 -48.443  0.00  0.00    -0.271 OA
ATOM     42  H   ASN d   2      71.922  16.134 -46.619  0.00  0.00     0.163 HD
BRANCH  40  43
ATOM     43  CA  TYR d   1      72.107  16.026 -49.184  0.00  0.00     0.195 C 
BRANCH  43  44
ATOM     44  N   TYR d   1      70.682  15.909 -48.888  0.00  0.00    -0.326 NA
ATOM     45  H   TYR d   1      70.319  15.375 -48.022  0.00  0.00     0.180 HD
ENDBRANCH  43  44
BRANCH  43  46
ATOM     46  CB  TYR d   1      72.547  17.519 -49.215  0.00  0.00     0.074 C 
BRANCH  46  47
ATOM     47  CG  TYR d   1      71.885  18.410 -50.273  0.00  0.00    -0.056 A 
ATOM     48  CD1 TYR d   1      72.302  18.362 -51.607  0.00  0.00     0.010 A 
ATOM     49  CE1 TYR d   1      71.683  19.165 -52.561  0.00  0.00     0.037 A 
ATOM     50  CZ  TYR d   1      70.649  20.020 -52.188  0.00  0.00     0.065 A 
ATOM     51  CE2 TYR d   1      70.231  20.074 -50.860  0.00  0.00     0.037 A 
ATOM     52  CD2 TYR d   1      70.848  19.272 -49.905  0.00  0.00     0.010 A 
BRANCH  50  53
ATOM     53  OH  TYR d   1      70.043  20.804 -53.128  0.00  0.00    -0.361 OA
ATOM     54  HH  TYR d   1      69.359  21.321 -52.697  0.00  0.00     0.217 HD
ENDBRANCH  50  53
ENDBRANCH  46  47
ENDBRANCH  43  46
ENDBRANCH  40  43
ENDBRANCH  38  39
BRANCH  38  55
ATOM     55  CB  ASN d   2      72.962  15.215 -44.465  0.00  0.00     0.137 C 
BRANCH  55  56
ATOM     56  CG  ASN d   2      72.942  16.706 -44.115  0.00  0.00     0.217 C 
ATOM     57  ND2 ASN d   2      74.061  17.291 -43.784  0.00  0.00    -0.370 N 
ATOM     58 21HD ASN d   2      73.966  18.308 -43.720  0.00  0.00     0.159 HD
ATOM     59 22HD ASN d   2      74.911  16.731 -43.846  0.00  0.00     0.159 HD
ATOM     60  OD1 ASN d   2      71.917  17.371 -44.157  0.00  0.00    -0.274 OA
ENDBRANCH  55  56
ENDBRANCH  38  55
ENDBRANCH  33  38
ENDBRANCH  28  31
ENDBRANCH  26  27
BRANCH  26  61
ATOM     61  CB  GLU d   4      72.454  12.064 -51.314  0.00  0.00     0.045 C 
BRANCH  61  62
ATOM     62  CG  GLU d   4      72.919  11.699 -52.761  0.00  0.00     0.116 C 
BRANCH  62  63
ATOM     63  CD  GLU d   4      72.517  12.617 -53.901  0.00  0.00     0.172 C 
ATOM     64  OE1 GLU d   4      71.815  13.625 -53.693  0.00  0.00    -0.648 OA
ATOM     65  OE2 GLU d   4      72.938  12.313 -55.036  0.00  0.00    -0.648 OA
ENDBRANCH  62  63
ENDBRANCH  61  62
ENDBRANCH  26  61
ENDBRANCH  23  26
ENDBRANCH  21  22
BRANCH  21  66
ATOM     66  CB  SER d   5      77.115  13.393 -49.034  0.00  0.00     0.199 C 
BRANCH  66  67
ATOM     67  OG  SER d   5      76.849  13.536 -47.634  0.00  0.00    -0.398 OA
ATOM     68  HG  SER d   5      75.896  13.574 -47.525  0.00  0.00     0.209 HD
ENDBRANCH  66  67
ENDBRANCH  21  66
ENDBRANCH  18  21
ENDBRANCH  16  17
BRANCH  16  69
ATOM     69  CB  ILE d   6      76.286   9.278 -45.587  0.00  0.00     0.013 C 
ATOM     70  CG2 ILE d   6      76.840   8.094 -44.735  0.00  0.00     0.012 C 
BRANCH  69  71
ATOM     71  CG1 ILE d   6      76.312  10.566 -44.704  0.00  0.00     0.002 C 
ATOM     72  CD1 ILE d   6      75.354  10.572 -43.494  0.00  0.00     0.005 C 
ENDBRANCH  69  71
ENDBRANCH  16  69
ENDBRANCH  13  16
ENDBRANCH  11  12
BRANCH  11  73
ATOM     73  CB  LEU d   7      74.241   6.635 -49.881  0.00  0.00     0.038 C 
BRANCH  73  74
ATOM     74  CG  LEU d   7      73.007   6.649 -48.939  0.00  0.00    -0.020 C 
ATOM     75  CD1 LEU d   7      71.720   6.442 -49.750  0.00  0.00     0.009 C 
ATOM     76  CD2 LEU d   7      73.095   5.590 -47.828  0.00  0.00     0.009 C 
ENDBRANCH  73  74
ENDBRANCH  11  73
ENDBRANCH   8  11
ENDBRANCH   6   7
BRANCH   6  77
ATOM     77  CB  ASP d   8      78.109   9.009 -52.783  0.00  0.00     0.147 C 
BRANCH  77  78
ATOM     78  CG  ASP d   8      79.126   9.051 -53.934  0.00  0.00     0.175 C 
ATOM     79  OD1 ASP d   8      79.273   8.040 -54.652  0.00  0.00    -0.648 OA
ATOM     80  OD2 ASP d   8      79.809  10.084 -54.089  0.00  0.00    -0.648 OA
ENDBRANCH  77  78
ENDBRANCH   6  77
ENDBRANCH   3   6
ENDBRANCH   1   2
BRANCH   1  81
ATOM     81  C   GLU d   9      81.062   6.015 -49.459  0.00  0.00     0.241 C 
ATOM     82  O   GLU d   9      82.029   5.307 -49.776  0.00  0.00    -0.271 OA
ATOM     83  N   HIS d  10      80.065   5.472 -48.846  0.00  0.00    -0.346 N 
ATOM     84  H   HIS d  10      79.265   6.027 -48.577  0.00  0.00     0.163 HD
BRANCH  83  85
ATOM     85  CA  HIS d  10      80.109   4.043 -48.547  0.00  0.00     0.182 C 
BRANCH  85  86
ATOM     86  C   HIS d  10      80.305   3.232 -49.805  0.00  0.00     0.241 C 
ATOM     87  O   HIS d  10      81.141   2.318 -49.874  0.00  0.00    -0.271 OA
ATOM     88  N   VAL d  11      79.582   3.498 -50.839  0.00  0.00    -0.346 N 
ATOM     89  H   VAL d  11      78.894   4.237 -50.808  0.00  0.00     0.163 HD
BRANCH  88  90
ATOM     90  CA  VAL d  11      79.771   2.713 -52.056  0.00  0.00     0.180 C 
BRANCH  90  91
ATOM     91  C   VAL d  11      81.203   2.786 -52.529  0.00  0.00     0.241 C 
ATOM     92  O   VAL d  11      81.836   1.777 -52.863  0.00  0.00    -0.271 OA
ATOM     93  N   GLN d  12      81.785   3.936 -52.586  0.00  0.00    -0.346 N 
ATOM     94  H   GLN d  12      81.290   4.775 -52.318  0.00  0.00     0.163 HD
BRANCH  93  95
ATOM     95  CA  GLN d  12      83.169   4.007 -53.043  0.00  0.00     0.177 C 
BRANCH  95  96
ATOM     96  C   GLN d  12      84.066   3.138 -52.193  0.00  0.00     0.241 C 
ATOM     97  O   GLN d  12      84.888   2.371 -52.690  0.00  0.00    -0.271 OA
ATOM     98  N   ARG d  13      83.967   3.203 -50.909  0.00  0.00    -0.346 N 
ATOM     99  H   ARG d  13      83.299   3.826 -50.477  0.00  0.00     0.163 HD
BRANCH  98 100
ATOM    100  CA  ARG d  13      84.834   2.362 -50.089  0.00  0.00     0.176 C 
BRANCH 100 101
ATOM    101  C   ARG d  13      84.662   0.903 -50.441  0.00  0.00     0.241 C 
ATOM    102  O   ARG d  13      85.622   0.159 -50.624  0.00  0.00    -0.271 OA
ATOM    103  N   VAL d  14      83.469   0.424 -50.553  0.00  0.00    -0.346 N 
ATOM    104  H   VAL d  14      82.663   1.015 -50.408  0.00  0.00     0.163 HD
BRANCH 103 105
ATOM    105  CA  VAL d  14      83.303  -0.987 -50.893  0.00  0.00     0.180 C 
BRANCH 105 106
ATOM    106  C   VAL d  14      84.000  -1.316 -52.192  0.00  0.00     0.241 C 
ATOM    107  O   VAL d  14      84.730  -2.308 -52.312  0.00  0.00    -0.271 OA
ATOM    108  N   MET d  15      83.830  -0.538 -53.207  0.00  0.00    -0.346 N 
ATOM    109  H   MET d  15      83.240   0.278 -53.134  0.00  0.00     0.163 HD
BRANCH 108 110
ATOM    110  CA  MET d  15      84.504  -0.855 -54.463  0.00  0.00     0.177 C 
BRANCH 110 111
ATOM    111  C   MET d  15      85.998  -0.950 -54.267  0.00  0.00     0.241 C 
ATOM    112  O   MET d  15      86.661  -1.893 -54.727  0.00  0.00    -0.271 OA
ATOM    113  N   ARG d  16      86.603  -0.024 -53.603  0.00  0.00    -0.347 N 
ATOM    114  H   ARG d  16      86.085   0.753 -53.219  0.00  0.00     0.163 HD
BRANCH 113 115
ATOM    115  CA  ARG d  16      88.048  -0.118 -53.415  0.00  0.00     0.162 C 
BRANCH 115 116
ATOM    116  C   ARG d  16      88.422  -1.417 -52.741  0.00  0.00     0.219 C 
ATOM    117  O   ARG d  16      87.580  -2.259 -52.438  0.00  0.00    -0.287 OA
ENDBRANCH 115 116
BRANCH 115 118
ATOM    118  CB  ARG d  16      88.525   1.109 -52.586  0.00  0.00     0.035 C 
BRANCH 118 119
ATOM    119  CG  ARG d  16      90.064   1.317 -52.525  0.00  0.00     0.023 C 
BRANCH 119 120
ATOM    120  CD  ARG d  16      90.450   2.527 -51.659  0.00  0.00     0.138 C 
BRANCH 120 121
ATOM    121  NE  ARG d  16      91.934   2.688 -51.654  0.00  0.00    -0.227 N 
ATOM    122  CZ  ARG d  16      92.602   3.632 -50.999  0.00  0.00     0.665 C 
ATOM    123  NH1 ARG d  16      92.030   4.542 -50.262  0.00  0.00    -0.235 N 
ATOM    124  NH2 ARG d  16      93.894   3.651 -51.095  0.00  0.00    -0.235 N 
ATOM    125 11HH ARG d  16      91.011   4.471 -50.227  0.00  0.00     0.174 HD
ATOM    126 12HH ARG d  16      92.614   5.235 -49.790  0.00  0.00     0.174 HD
ATOM    127 21HH ARG d  16      94.326   2.930 -51.676  0.00  0.00     0.174 HD
ATOM    128 22HH ARG d  16      94.390   4.385 -50.586  0.00  0.00     0.174 HD
ATOM    129  HE  ARG d  16      92.536   2.050 -52.185  0.00  0.00     0.177 HD
ENDBRANCH 120 121
ENDBRANCH 119 120
ENDBRANCH 118 119
ENDBRANCH 115 118
ENDBRANCH 113 115
ENDBRANCH 110 111
BRANCH 110 130
ATOM    130  CB  MET d  15      84.152   0.213 -55.534  0.00  0.00     0.045 C 
BRANCH 130 131
ATOM    131  CG  MET d  15      82.662   0.310 -55.925  0.00  0.00     0.076 C 
BRANCH 131 132
ATOM    132  SD  MET d  15      82.477   1.374 -57.365  0.00  0.00    -0.173 SA
ATOM    133  CE  MET d  15      80.693   1.590 -57.309  0.00  0.00     0.089 C 
ENDBRANCH 131 132
ENDBRANCH 130 131
ENDBRANCH 110 130
ENDBRANCH 108 110
ENDBRANCH 105 106
BRANCH 105 134
ATOM    134  CB  VAL d  14      81.765  -1.340 -50.976  0.00  0.00     0.009 C 
ATOM    135  CG1 VAL d  14      81.410  -2.755 -51.510  0.00  0.00     0.012 C 
ATOM    136  CG2 VAL d  14      81.019  -1.214 -49.626  0.00  0.00     0.012 C 
ENDBRANCH 105 134
ENDBRANCH 103 105
ENDBRANCH 100 101
BRANCH 100 137
ATOM    137  CB  ARG d  13      84.515   2.625 -48.590  0.00  0.00     0.036 C 
BRANCH 137 138
ATOM    138  CG  ARG d  13      85.527   2.022 -47.575  0.00  0.00     0.023 C 
BRANCH 138 139
ATOM    139  CD  ARG d  13      85.118   2.298 -46.118  0.00  0.00     0.138 C 
BRANCH 139 140
ATOM    140  NE  ARG d  13      86.134   1.716 -45.193  0.00  0.00    -0.227 N 
ATOM    141  CZ  ARG d  13      86.084   1.768 -43.865  0.00  0.00     0.665 C 
ATOM    142  NH1 ARG d  13      85.119   2.339 -43.201  0.00  0.00    -0.235 N 
ATOM    143  NH2 ARG d  13      87.046   1.222 -43.191  0.00  0.00    -0.235 N 
ATOM    144 11HH ARG d  13      84.391   2.749 -43.792  0.00  0.00     0.174 HD
ATOM    145 12HH ARG d  13      85.153   2.337 -42.181  0.00  0.00     0.174 HD
ATOM    146 21HH ARG d  13      87.794   0.778 -43.729  0.00  0.00     0.174 HD
ATOM    147 22HH ARG d  13      86.991   1.274 -42.173  0.00  0.00     0.174 HD
ATOM    148  HE  ARG d  13      86.960   1.229 -45.555  0.00  0.00     0.177 HD
ENDBRANCH 139 140
ENDBRANCH 138 139
ENDBRANCH 137 138
ENDBRANCH 100 137
ENDBRANCH  98 100
ENDBRANCH  95  96
BRANCH  95 149
ATOM    149  CB  GLN d  12      83.629   5.482 -53.002  0.00  0.00     0.044 C 
BRANCH 149 150
ATOM    150  CG  GLN d  12      85.083   5.766 -53.504  0.00  0.00     0.105 C 
BRANCH 150 151
ATOM    151  CD  GLN d  12      85.630   7.197 -53.436  0.00  0.00     0.215 C 
ATOM    152  NE2 GLN d  12      84.877   8.165 -52.979  0.00  0.00    -0.370 N 
ATOM    153 21HE GLN d  12      85.338   9.074 -52.907  0.00  0.00     0.159 HD
ATOM    154 22HE GLN d  12      83.957   7.874 -52.643  0.00  0.00     0.159 HD
ATOM    155  OE1 GLN d  12      86.774   7.453 -53.781  0.00  0.00    -0.274 OA
ENDBRANCH 150 151
ENDBRANCH 149 150
ENDBRANCH  95 149
ENDBRANCH  93  95
ENDBRANCH  90  91
BRANCH  90 156
ATOM    156  CB  VAL d  11      78.782   3.220 -53.180  0.00  0.00     0.009 C 
ATOM    157  CG1 VAL d  11      78.981   2.615 -54.597  0.00  0.00     0.012 C 
ATOM    158  CG2 VAL d  11      77.288   2.995 -52.847  0.00  0.00     0.012 C 
ENDBRANCH  90 156
ENDBRANCH  88  90
ENDBRANCH  85  86
BRANCH  85 159
ATOM    159  CB  HIS d  10      78.763   3.697 -47.890  0.00  0.00     0.095 C 
BRANCH 159 160
ATOM    160  CG  HIS d  10      78.929   3.165 -46.496  0.00  0.00     0.053 A 
ATOM    161  CD2 HIS d  10      78.926   3.984 -45.375  0.00  0.00     0.116 A 
ATOM    162  NE2 HIS d  10      79.100   3.191 -44.271  0.00  0.00    -0.359 N 
ATOM    163  CE1 HIS d  10      79.196   1.946 -44.812  0.00  0.00     0.207 A 
ATOM    164  2HE HIS d  10      79.147   3.476 -43.282  0.00  0.00     0.166 HD
ATOM    165  ND1 HIS d  10      79.101   1.827 -46.149  0.00  0.00    -0.247 NA
ENDBRANCH 159 160
ENDBRANCH  85 159
ENDBRANCH  83  85
ENDBRANCH   1  81
BRANCH   1 166
ATOM    166  CB  GLU d   9      81.266   8.325 -48.478  0.00  0.00     0.045 C 
BRANCH 166 167
ATOM    167  CG  GLU d   9      82.633   8.072 -47.764  0.00  0.00     0.116 C 
BRANCH 167 168
ATOM    168  CD  GLU d   9      82.916   8.807 -46.467  0.00  0.00     0.172 C 
ATOM    169  OE1 GLU d   9      82.089   9.610 -45.992  0.00  0.00    -0.648 OA
ATOM    170  OE2 GLU d   9      84.002   8.551 -45.906  0.00  0.00    -0.648 OA
ENDBRANCH 167 168
ENDBRANCH 166 167
ENDBRANCH   1 166
TORSDOF 68
