@<TRIPOS>MOLECULE
9-18
265 266 16              
SMALL
USER_CHARGES
@<TRIPOS>ATOM
1	   N	1492.673	440.026	-1510.907	N.3	1	GLU1	-0.516	
2	  CA	1493.232	441.375	-1510.907	C.3	1	GLU1	0.040	
3	   C	1494.741	441.335	-1510.907	C.2	1	GLU1	0.537	
4	   O	1495.417	442.034	-1511.676	O.2	1	GLU1	-0.582	
5	  CB	1492.709	442.160	-1509.670	C.3	1	GLU1	0.056	
6	  CG	1493.184	443.645	-1509.559	C.3	1	GLU1	0.014	
7	  CD	1492.760	444.449	-1508.344	C.2	1	GLU1	0.805	
8	 OE1	1492.032	443.947	-1507.466	O.co2	1	GLU1	-0.819	
9	 OE2	1493.190	445.619	-1508.272	O.co2	1	GLU1	-0.819	
10	   H	1493.300	439.147	-1510.907	 H	1	GLU1	0.294	
11	  HA	1492.906	441.893	-1511.827	 H	1	GLU1	0.111	
12	 2HB	1492.998	441.629	-1508.740	 H	1	GLU1	-0.017	
13	 3HB	1491.602	442.150	-1509.657	 H	1	GLU1	-0.017	
14	 2HG	1492.874	444.230	-1510.440	 H	1	GLU1	-0.043	
15	 3HG	1494.284	443.712	-1509.530	 H	1	GLU1	-0.043	
16	   N	1495.345	440.549	-1510.082	N.am	2	ASN2	-0.416	
17	  CA	1496.805	440.510	-1510.082	C.3	2	ASN2	0.014	
18	   C	1497.336	440.155	-1511.451	C.2	2	ASN2	0.597	
19	   O	1498.250	440.785	-1511.979	O.2	2	ASN2	-0.568	
20	  CB	1497.297	439.487	-1509.018	C.3	2	ASN2	-0.204	
21	  CG	1496.834	439.711	-1507.574	C.2	2	ASN2	0.713	
22	 ND2	1497.428	440.626	-1506.856	N.pl3	2	ASN2	-0.919	
23	 OD1	1495.913	439.077	-1507.080	O.2	2	ASN2	-0.593	
24	   H	1494.817	439.969	-1509.446	 H	2	ASN2	0.272	
25	  HA	1497.182	441.520	-1509.837	 H	2	ASN2	0.105	
26	 2HB	1498.401	439.428	-1509.021	 H	2	ASN2	0.080	
27	 3HB	1496.968	438.469	-1509.303	 H	2	ASN2	0.080	
28	1HD2	1496.947	440.799	-1505.970	 H	2	ASN2	0.420	
29	2HD2	1498.129	441.198	-1507.326	 H	2	ASN2	0.420	
30	   N	1496.814	439.159	-1512.085	N.am	3	PRO3	-0.255	
31	  CA	1497.266	438.750	-1513.406	C.3	3	PRO3	-0.027	
32	   C	1496.868	439.774	-1514.483	C.2	3	PRO3	0.590	
33	   O	1497.691	440.157	-1515.315	O.2	3	PRO3	-0.575	
34	  CB	1496.562	437.395	-1513.576	C.3	3	PRO3	-0.007	
35	  CG	1495.279	437.548	-1512.745	C.3	3	PRO3	0.019	
36	  CD	1495.736	438.366	-1511.536	C.3	3	PRO3	0.019	
37	  HA	1498.352	438.630	-1513.420	 H	3	PRO3	0.064	
38	 2HB	1497.185	436.614	-1513.135	 H	3	PRO3	0.025	
39	 3HB	1496.364	437.147	-1514.621	 H	3	PRO3	0.025	
40	 2HG	1494.851	436.585	-1512.454	 H	3	PRO3	0.021	
41	 3HG	1494.541	438.119	-1513.313	 H	3	PRO3	0.021	
42	 2HD	1496.126	437.717	-1510.748	 H	3	PRO3	0.039	
43	 3HD	1494.940	439.002	-1511.143	 H	3	PRO3	0.039	
44	   N	1495.663	440.234	-1514.516	N.am	4	GLU4	-0.516	
45	  CA	1495.303	441.205	-1515.545	C.3	4	GLU4	0.040	
46	   C	1496.202	442.416	-1515.484	C.2	4	GLU4	0.537	
47	   O	1496.728	442.896	-1516.498	O.2	4	GLU4	-0.582	
48	  CB	1493.815	441.623	-1515.375	C.3	4	GLU4	0.056	
49	  CG	1493.266	442.627	-1516.440	C.3	4	GLU4	0.014	
50	  CD	1491.840	443.124	-1516.296	C.2	4	GLU4	0.805	
51	 OE1	1491.114	442.725	-1515.365	O.co2	4	GLU4	-0.819	
52	 OE2	1491.450	443.953	-1517.144	O.co2	4	GLU4	-0.819	
53	   H	1494.979	439.927	-1513.839	 H	4	GLU4	0.294	
54	  HA	1495.434	440.734	-1516.536	 H	4	GLU4	0.111	
55	 2HB	1493.662	442.063	-1514.368	 H	4	GLU4	-0.017	
56	 3HB	1493.167	440.725	-1515.381	 H	4	GLU4	-0.017	
57	 2HG	1493.348	442.212	-1517.458	 H	4	GLU4	-0.043	
58	 3HG	1493.854	443.559	-1516.451	 H	4	GLU4	-0.043	
59	   N	1496.430	442.969	-1514.341	N.am	5	SER5	-0.416	
60	  CA	1497.299	444.140	-1514.282	C.3	5	SER5	-0.025	
61	   C	1498.658	443.835	-1514.868	C.2	5	SER5	0.597	
62	   O	1499.205	444.588	-1515.673	O.2	5	SER5	-0.568	
63	  CB	1497.411	444.672	-1512.832	C.3	5	SER5	0.212	
64	  OG	1498.143	443.793	-1511.971	O.3	5	SER5	-0.655	
65	   H	1496.013	442.597	-1513.499	 H	5	SER5	0.272	
66	  HA	1496.849	444.930	-1514.911	 H	5	SER5	0.084	
67	 2HB	1496.411	444.866	-1512.398	 H	5	SER5	0.035	
68	 3HB	1497.916	445.658	-1512.834	 H	5	SER5	0.035	
69	  HG	1497.654	442.968	-1511.920	 H	5	SER5	0.428	
70	   N	1499.263	442.752	-1514.514	N.am	6	ILE6	-0.416	
71	  CA	1500.576	442.457	-1515.081	C.3	6	ILE6	-0.060	
72	   C	1500.518	442.420	-1516.588	C.2	6	ILE6	0.597	
73	   O	1501.353	443.007	-1517.292	O.2	6	ILE6	-0.568	
74	  CB	1501.175	441.121	-1514.481	C.3	6	ILE6	0.130	
75	 CG1	1501.195	441.058	-1512.920	C.3	6	ILE6	-0.043	
76	 CG2	1502.617	440.819	-1514.996	C.3	6	ILE6	-0.320	
77	 CD1	1501.465	439.669	-1512.305	C.3	6	ILE6	-0.066	
78	   H	1498.834	442.117	-1513.855	 H	6	ILE6	0.272	
79	  HA	1501.250	443.291	-1514.813	 H	6	ILE6	0.087	
80	  HB	1500.518	440.295	-1514.825	 H	6	ILE6	0.019	
81	2HG1	1500.213	441.378	-1512.524	 H	6	ILE6	0.024	
82	3HG1	1501.911	441.800	-1512.515	 H	6	ILE6	0.024	
83	1HG2	1502.676	440.726	-1516.095	 H	6	ILE6	0.088	
84	2HG2	1503.339	441.601	-1514.694	 H	6	ILE6	0.088	
85	3HG2	1503.007	439.857	-1514.618	 H	6	ILE6	0.088	
86	1HD1	1500.737	438.915	-1512.660	 H	6	ILE6	0.019	
87	2HD1	1502.476	439.290	-1512.541	 H	6	ILE6	0.019	
88	3HD1	1501.389	439.699	-1511.202	 H	6	ILE6	0.019	
89	   N	1499.572	441.756	-1517.162	N.am	7	LEU7	-0.416	
90	  CA	1499.517	441.720	-1518.621	C.3	7	LEU7	-0.052	
91	   C	1499.445	443.116	-1519.193	C.2	7	LEU7	0.597	
92	   O	1500.165	443.479	-1520.135	O.2	7	LEU7	-0.568	
93	  CB	1498.314	440.860	-1519.101	C.3	7	LEU7	-0.110	
94	  CG	1498.242	439.380	-1518.635	C.3	7	LEU7	0.353	
95	 CD1	1497.052	438.675	-1519.300	C.3	7	LEU7	-0.412	
96	 CD2	1499.535	438.601	-1518.927	C.3	7	LEU7	-0.412	
97	   H	1498.880	441.269	-1516.611	 H	7	LEU7	0.272	
98	  HA	1500.459	441.280	-1518.995	 H	7	LEU7	0.092	
99	 2HB	1498.291	440.876	-1520.208	 H	7	LEU7	0.046	
100	 3HB	1497.375	441.363	-1518.797	 H	7	LEU7	0.046	
101	  HG	1498.072	439.372	-1517.538	 H	7	LEU7	-0.036	
102	1HD1	1496.094	439.184	-1519.078	 H	7	LEU7	0.100	
103	2HD1	1497.151	438.634	-1520.401	 H	7	LEU7	0.100	
104	3HD1	1496.945	437.633	-1518.944	 H	7	LEU7	0.100	
105	1HD2	1499.810	438.632	-1519.996	 H	7	LEU7	0.100	
106	2HD2	1500.389	439.013	-1518.355	 H	7	LEU7	0.100	
107	3HD2	1499.454	437.539	-1518.631	 H	7	LEU7	0.100	
108	   N	1498.608	443.956	-1518.686	N.am	8	ASP8	-0.516	
109	  CA	1498.537	445.306	-1519.239	C.3	8	ASP8	0.038	
110	   C	1499.884	445.986	-1519.182	C.2	8	ASP8	0.537	
111	   O	1500.356	446.591	-1520.156	O.2	8	ASP8	-0.582	
112	  CB	1497.459	446.145	-1518.497	C.3	8	ASP8	-0.030	
113	  CG	1497.240	447.565	-1519.037	C.2	8	ASP8	0.799	
114	 OD1	1497.304	447.765	-1520.268	O.co2	8	ASP8	-0.801	
115	 OD2	1497.048	448.491	-1518.222	O.co2	8	ASP8	-0.801	
116	   H	1498.010	443.685	-1517.919	 H	8	ASP8	0.294	
117	  HA	1498.254	445.228	-1520.306	 H	8	ASP8	0.088	
118	 2HB	1497.716	446.227	-1517.425	 H	8	ASP8	-0.012	
119	 3HB	1496.480	445.639	-1518.530	 H	8	ASP8	-0.012	
120	   N	1500.563	445.936	-1518.087	N.am	9	GLU9	-0.516	
121	  CA	1501.866	446.593	-1518.031	C.3	9	GLU9	0.040	
122	   C	1502.784	446.066	-1519.107	C.2	9	GLU9	0.537	
123	   O	1503.448	446.821	-1519.832	O.2	9	GLU9	-0.582	
124	  CB	1502.500	446.385	-1516.626	C.3	9	GLU9	0.056	
125	  CG	1503.882	447.077	-1516.396	C.3	9	GLU9	0.014	
126	  CD	1504.584	446.864	-1515.068	C.2	9	GLU9	0.805	
127	 OE1	1504.063	446.172	-1514.172	O.co2	9	GLU9	-0.819	
128	 OE2	1505.703	447.401	-1514.936	O.co2	9	GLU9	-0.819	
129	   H	1500.200	445.449	-1517.280	 H	9	GLU9	0.294	
130	  HA	1501.724	447.675	-1518.206	 H	9	GLU9	0.111	
131	 2HB	1502.613	445.300	-1516.423	 H	9	GLU9	-0.017	
132	 3HB	1501.803	446.738	-1515.841	 H	9	GLU9	-0.017	
133	 2HG	1503.810	448.168	-1516.536	 H	9	GLU9	-0.043	
134	 3HG	1504.629	446.733	-1517.131	 H	9	GLU9	-0.043	
135	   N	1502.881	444.791	-1519.278	N.am	10	HIS10	-0.416	
136	  CA	1503.768	444.280	-1520.318	C.3	10	HIS10	-0.058	
137	   C	1503.401	444.846	-1521.669	C.2	10	HIS10	0.597	
138	   O	1504.254	445.311	-1522.441	O.2	10	HIS10	-0.568	
139	  CB	1503.604	442.751	-1520.315	C.3	10	HIS10	-0.007	
140	  CG	1504.890	442.041	-1520.007	C.2	10	HIS10	0.187	
141	 CD2	1505.271	441.705	-1518.715	C.2	10	HIS10	-0.221	
142	 ND1	1505.842	441.636	-1520.940	N.2	10	HIS10	-0.543	
143	 CE1	1506.748	441.077	-1520.117	C.2	10	HIS10	0.163	
144	 NE2	1506.486	441.073	-1518.782	N.pl3	10	HIS10	-0.280	
145	   H	1502.350	444.155	-1518.699	 H	10	HIS10	0.272	
146	  HA	1504.788	444.637	-1520.093	 H	10	HIS10	0.136	
147	 2HB	1503.239	442.385	-1521.295	 H	10	HIS10	0.037	
148	 3HB	1502.849	442.414	-1519.575	 H	10	HIS10	0.037	
149	 2HD	1504.685	441.919	-1517.825	 H	10	HIS10	0.186	
150	 1HE	1507.639	440.656	-1520.564	 H	10	HIS10	0.144	
151	 2HE	1507.052	440.695	-1518.009	 H	10	HIS10	0.334	
152	   N	1502.163	444.845	-1522.032	N.am	11	VAL11	-0.416	
153	  CA	1501.808	445.392	-1523.339	C.3	11	VAL11	-0.087	
154	   C	1502.273	446.822	-1523.470	C.2	11	VAL11	0.597	
155	   O	1502.873	447.228	-1524.473	O.2	11	VAL11	-0.568	
156	  CB	1500.247	445.285	-1523.558	C.3	11	VAL11	0.299	
157	 CG1	1499.678	445.990	-1524.820	C.3	11	VAL11	-0.319	
158	 CG2	1499.722	443.831	-1523.632	C.3	11	VAL11	-0.319	
159	   H	1501.451	444.472	-1521.422	 H	11	VAL11	0.272	
160	  HA	1502.328	444.810	-1524.121	 H	11	VAL11	0.097	
161	  HB	1499.760	445.765	-1522.682	 H	11	VAL11	-0.030	
162	1HG1	1500.117	445.599	-1525.758	 H	11	VAL11	0.079	
163	2HG1	1498.579	445.883	-1524.902	 H	11	VAL11	0.079	
164	3HG1	1499.857	447.082	-1524.810	 H	11	VAL11	0.079	
165	1HG2	1500.012	443.243	-1522.742	 H	11	VAL11	0.079	
166	2HG2	1498.617	443.794	-1523.675	 H	11	VAL11	0.079	
167	3HG2	1500.104	443.291	-1524.519	 H	11	VAL11	0.079	
168	   N	1502.036	447.647	-1522.507	N.am	12	GLN12	-0.416	
169	  CA	1502.484	449.030	-1522.633	C.3	12	GLN12	-0.003	
170	   C	1503.974	449.098	-1522.871	C.2	12	GLN12	0.597	
171	   O	1504.461	449.807	-1523.750	O.2	12	GLN12	-0.568	
172	  CB	1502.093	449.797	-1521.350	C.3	12	GLN12	-0.004	
173	  CG	1502.453	451.319	-1521.318	C.3	12	GLN12	-0.064	
174	  CD	1502.151	452.131	-1520.052	C.2	12	GLN12	0.695	
175	 NE2	1501.584	451.554	-1519.024	N.pl3	12	GLN12	-0.941	
176	 OE1	1502.453	453.312	-1519.974	O.2	12	GLN12	-0.609	
177	   H	1501.547	447.341	-1521.678	 H	12	GLN12	0.272	
178	  HA	1501.984	449.487	-1523.508	 H	12	GLN12	0.085	
179	 2HB	1502.569	449.296	-1520.481	 H	12	GLN12	0.017	
180	 3HB	1501.003	449.689	-1521.187	 H	12	GLN12	0.017	
181	 2HG	1501.976	451.840	-1522.168	 H	12	GLN12	0.035	
182	 3HG	1503.537	451.461	-1521.484	 H	12	GLN12	0.035	
183	1HE2	1501.477	452.148	-1518.200	 H	12	GLN12	0.425	
184	2HE2	1501.421	450.551	-1519.128	 H	12	GLN12	0.425	
185	   N	1504.759	448.391	-1522.131	N.am	13	ARG13	-0.348	
186	  CA	1506.199	448.457	-1522.362	C.3	13	ARG13	-0.264	
187	   C	1506.535	448.086	-1523.787	C.2	13	ARG13	0.734	
188	   O	1507.304	448.759	-1524.471	O.2	13	ARG13	-0.589	
189	  CB	1506.912	447.517	-1521.349	C.3	13	ARG13	-0.001	
190	  CG	1508.457	447.670	-1521.268	C.3	13	ARG13	0.039	
191	  CD	1509.084	446.682	-1520.271	C.3	13	ARG13	0.049	
192	  NE	1510.562	446.889	-1520.220	N.pl3	13	ARG13	-0.530	
193	  CZ	1511.410	446.197	-1519.466	C.cat	13	ARG13	0.808	
194	 NH1	1511.045	445.232	-1518.669	N.pl3	13	ARG13	-0.863	
195	 NH2	1512.669	446.496	-1519.522	N.pl3	13	ARG13	-0.863	
196	   H	1504.383	447.800	-1521.403	 H	13	ARG13	0.275	
197	  HA	1506.523	449.503	-1522.203	 H	13	ARG13	0.156	
198	 2HB	1506.646	446.467	-1521.589	 H	13	ARG13	0.033	
199	 3HB	1506.487	447.683	-1520.338	 H	13	ARG13	0.033	
200	 2HG	1508.705	448.715	-1520.988	 H	13	ARG13	0.029	
201	 3HG	1508.908	447.515	-1522.269	 H	13	ARG13	0.029	
202	 2HD	1508.840	445.642	-1520.581	 H	13	ARG13	0.069	
203	 3HD	1508.628	446.827	-1519.268	 H	13	ARG13	0.069	
204	  HE	1511.013	447.612	-1520.790	 H	13	ARG13	0.346	
205	1HH1	1510.039	445.046	-1518.672	 H	13	ARG13	0.448	
206	2HH1	1511.758	444.749	-1518.121	 H	13	ARG13	0.448	
207	1HH2	1512.937	447.254	-1520.153	 H	13	ARG13	0.448	
208	2HH2	1513.304	445.954	-1518.934	 H	13	ARG13	0.448	
209	   N	1505.999	447.032	-1524.302	N.am	14	VAL14	-0.416	
210	  CA	1506.324	446.674	-1525.680	C.3	14	VAL14	-0.087	
211	   C	1505.994	447.805	-1526.625	C.2	14	VAL14	0.597	
212	   O	1506.787	448.187	-1527.494	O.2	14	VAL14	-0.568	
213	  CB	1505.551	445.357	-1526.088	C.3	14	VAL14	0.299	
214	 CG1	1505.640	444.940	-1527.582	C.3	14	VAL14	-0.319	
215	 CG2	1505.983	444.104	-1525.289	C.3	14	VAL14	-0.319	
216	   H	1505.364	446.463	-1523.761	 H	14	VAL14	0.272	
217	  HA	1507.412	446.497	-1525.755	 H	14	VAL14	0.097	
218	  HB	1504.475	445.528	-1525.872	 H	14	VAL14	-0.030	
219	1HG1	1506.682	444.763	-1527.911	 H	14	VAL14	0.079	
220	2HG1	1505.067	444.017	-1527.795	 H	14	VAL14	0.079	
221	3HG1	1505.211	445.703	-1528.260	 H	14	VAL14	0.079	
222	1HG2	1505.896	444.262	-1524.198	 H	14	VAL14	0.079	
223	2HG2	1505.347	443.228	-1525.521	 H	14	VAL14	0.079	
224	3HG2	1507.031	443.815	-1525.495	 H	14	VAL14	0.079	
225	   N	1504.849	448.390	-1526.523	N.am	15	MET15	-0.416	
226	  CA	1504.529	449.484	-1527.436	C.3	15	MET15	-0.024	
227	   C	1505.559	450.584	-1527.347	C.2	15	MET15	0.597	
228	   O	1506.061	451.095	-1528.360	O.2	15	MET15	-0.568	
229	  CB	1503.107	450.029	-1527.127	C.3	15	MET15	0.034	
230	  CG	1501.945	449.031	-1527.319	C.3	15	MET15	0.002	
231	  SD	1500.371	449.897	-1527.205	S.3	15	MET15	-0.274	
232	  CE	1499.290	448.467	-1527.069	C.3	15	MET15	-0.054	
233	   H	1504.184	448.097	-1525.822	 H	15	MET15	0.272	
234	  HA	1504.554	449.097	-1528.472	 H	15	MET15	0.088	
235	 2HB	1502.905	450.908	-1527.768	 H	15	MET15	0.024	
236	 3HB	1503.071	450.421	-1526.090	 H	15	MET15	0.024	
237	 2HG	1501.988	448.245	-1526.542	 H	15	MET15	0.044	
238	 3HG	1502.008	448.517	-1528.296	 H	15	MET15	0.044	
239	 1HE	1499.434	447.780	-1527.922	 H	15	MET15	0.068	
240	 2HE	1499.499	447.914	-1526.137	 H	15	MET15	0.068	
241	 3HE	1498.232	448.782	-1527.052	 H	15	MET15	0.068	
242	   N	1505.927	451.004	-1526.185	N.am	16	ARG16	-0.348	
243	  CA	1506.924	452.068	-1526.100	C.3	16	ARG16	-0.264	
244	   C	1508.194	451.675	-1526.817	C.2	16	ARG16	0.734	
245	   O	1508.308	450.600	-1527.399	O.2	16	ARG16	-0.589	
246	  CB	1507.193	452.385	-1524.602	C.3	16	ARG16	-0.001	
247	  CG	1508.018	453.674	-1524.328	C.3	16	ARG16	0.039	
248	  CD	1508.268	453.892	-1522.827	C.3	16	ARG16	0.049	
249	  NE	1509.044	455.151	-1522.625	N.pl3	16	ARG16	-0.530	
250	  CZ	1509.435	455.633	-1521.449	C.cat	16	ARG16	0.808	
251	 NH1	1509.187	455.047	-1520.311	N.pl3	16	ARG16	-0.863	
252	 NH2	1510.099	456.745	-1521.430	N.pl3	16	ARG16	-0.863	
253	   H	1505.532	450.603	-1525.346	 H	16	ARG16	0.275	
254	  HA	1506.515	452.961	-1526.610	 H	16	ARG16	0.156	
255	 2HB	1507.690	451.508	-1524.136	 H	16	ARG16	0.033	
256	 3HB	1506.224	452.465	-1524.068	 H	16	ARG16	0.033	
257	 2HG	1507.488	454.545	-1524.765	 H	16	ARG16	0.029	
258	 3HG	1508.992	453.621	-1524.857	 H	16	ARG16	0.029	
259	 2HD	1508.816	453.017	-1522.414	 H	16	ARG16	0.069	
260	 3HD	1507.295	453.934	-1522.291	 H	16	ARG16	0.069	
261	  HE	1509.322	455.732	-1523.422	 H	16	ARG16	0.346	
262	1HH1	1508.662	454.174	-1520.396	 H	16	ARG16	0.448	
263	2HH1	1509.522	455.482	-1519.449	 H	16	ARG16	0.448	
264	1HH2	1510.284	457.189	-1522.331	 H	16	ARG16	0.448	
265	2HH2	1510.389	457.100	-1520.517	 H	16	ARG16	0.448	
@<TRIPOS>BOND
1 1 2 1
2 1 10 1
3 2 3 1
4 2 5 1
5 2 11 1
6 3 4 2
7 3 16 1
8 5 6 1
9 6 7 1
10 7 8 2
11 7 9 1
12 5 12 1
13 5 13 1
14 6 14 1
15 6 15 1
16 16 17 1
17 16 24 1
18 17 18 1
19 17 20 1
20 17 25 1
21 18 19 2
22 18 30 1
23 20 21 1
24 21 22 1
25 21 23 2
26 20 26 1
27 20 27 1
28 22 28 1
29 22 29 1
30 30 31 1
31 30 36 1
32 31 32 1
33 31 34 1
34 31 37 1
35 32 33 2
36 32 44 1
37 34 35 1
38 35 36 1
39 34 38 1
40 34 39 1
41 35 40 1
42 35 41 1
43 36 42 1
44 36 43 1
45 44 45 1
46 44 53 1
47 45 46 1
48 45 48 1
49 45 54 1
50 46 47 2
51 46 59 1
52 48 49 1
53 49 50 1
54 50 51 2
55 50 52 1
56 48 55 1
57 48 56 1
58 49 57 1
59 49 58 1
60 59 60 1
61 59 65 1
62 60 61 1
63 60 63 1
64 60 66 1
65 61 62 2
66 61 70 1
67 63 64 1
68 63 67 1
69 63 68 1
70 64 69 1
71 70 71 1
72 70 78 1
73 71 72 1
74 71 74 1
75 71 79 1
76 72 73 2
77 72 89 1
78 74 75 1
79 74 76 1
80 75 77 1
81 74 80 1
82 75 81 1
83 75 82 1
84 76 83 1
85 76 84 1
86 76 85 1
87 77 86 1
88 77 87 1
89 77 88 1
90 89 90 1
91 89 97 1
92 90 91 1
93 90 93 1
94 90 98 1
95 91 92 2
96 91 108 1
97 93 94 1
98 94 95 1
99 94 96 1
100 93 99 1
101 93 100 1
102 94 101 1
103 95 102 1
104 95 103 1
105 95 104 1
106 96 105 1
107 96 106 1
108 96 107 1
109 108 109 1
110 108 116 1
111 109 110 1
112 109 112 1
113 109 117 1
114 110 111 2
115 110 120 1
116 112 113 1
117 113 114 2
118 113 115 1
119 112 118 1
120 112 119 1
121 120 121 1
122 120 129 1
123 121 122 1
124 121 124 1
125 121 130 1
126 122 123 2
127 122 135 1
128 124 125 1
129 125 126 1
130 126 127 2
131 126 128 1
132 124 131 1
133 124 132 1
134 125 133 1
135 125 134 1
136 135 136 1
137 135 145 1
138 136 137 1
139 136 139 1
140 136 146 1
141 137 138 2
142 137 152 1
143 139 140 1
144 140 141 2
145 141 144 1
146 140 142 1
147 142 143 2
148 143 144 1
149 139 147 1
150 139 148 1
151 141 149 1
152 143 150 1
153 144 151 1
154 152 153 1
155 152 159 1
156 153 154 1
157 153 156 1
158 153 160 1
159 154 155 2
160 154 168 1
161 156 157 1
162 156 158 1
163 156 161 1
164 157 162 1
165 157 163 1
166 157 164 1
167 158 165 1
168 158 166 1
169 158 167 1
170 168 169 1
171 168 177 1
172 169 170 1
173 169 172 1
174 169 178 1
175 170 171 2
176 170 185 1
177 172 173 1
178 173 174 1
179 174 175 1
180 174 176 2
181 172 179 1
182 172 180 1
183 173 181 1
184 173 182 1
185 175 183 1
186 175 184 1
187 185 186 1
188 185 196 1
189 186 187 1
190 186 189 1
191 186 197 1
192 187 188 2
193 187 209 1
194 189 190 1
195 190 191 1
196 191 192 1
197 192 193 1
198 193 194 2
199 193 195 1
200 189 198 1
201 189 199 1
202 190 200 1
203 190 201 1
204 191 202 1
205 191 203 1
206 192 204 1
207 194 205 1
208 194 206 1
209 195 207 1
210 195 208 1
211 209 210 1
212 209 216 1
213 210 211 1
214 210 213 1
215 210 217 1
216 211 212 2
217 211 225 1
218 213 214 1
219 213 215 1
220 213 218 1
221 214 219 1
222 214 220 1
223 214 221 1
224 215 222 1
225 215 223 1
226 215 224 1
227 225 226 1
228 225 233 1
229 226 227 1
230 226 229 1
231 226 234 1
232 227 228 2
233 227 242 1
234 229 230 1
235 230 231 1
236 231 232 1
237 229 235 1
238 229 236 1
239 230 237 1
240 230 238 1
241 232 239 1
242 232 240 1
243 232 241 1
244 242 243 1
245 242 253 1
246 243 244 1
247 243 246 1
248 243 254 1
249 244 245 2
250 246 247 1
251 247 248 1
252 248 249 1
253 249 250 1
254 250 251 2
255 250 252 1
256 246 255 1
257 246 256 1
258 247 257 1
259 247 258 1
260 248 259 1
261 248 260 1
262 249 261 1
263 251 262 1
264 251 263 1
265 252 264 1
266 252 265 1
@<TRIPOS>SUBSTRUCTURE
1	GLU1	1	RESIDUE	1 ****	GLU
2	ASN2	16	RESIDUE	1 ****	ASN
3	PRO3	30	RESIDUE	1 ****	PRO
4	GLU4	44	RESIDUE	1 ****	GLU
5	SER5	59	RESIDUE	1 ****	SER
6	ILE6	70	RESIDUE	1 ****	ILE
7	LEU7	89	RESIDUE	1 ****	LEU
8	ASP8	108	RESIDUE	1 ****	ASP
9	GLU9	120	RESIDUE	1 ****	GLU
10	HIS10	135	RESIDUE	1 ****	HIS
11	VAL11	152	RESIDUE	1 ****	VAL
12	GLN12	168	RESIDUE	1 ****	GLN
13	ARG13	185	RESIDUE	1 ****	ARG
14	VAL14	209	RESIDUE	1 ****	VAL
15	MET15	225	RESIDUE	1 ****	MET
16	ARG16	242	RESIDUE	1 ****	ARG
