REMARK WARNING: 32 MAX_TORS EXCEEDED!!!
REMARK  69 active torsions:
REMARK  status: ('A' for Active; 'I' for Inactive)
REMARK    1  A    between atoms: N_1  and  CA_2 
REMARK    2  A    between atoms: CA_2  and  C_3 
REMARK    3  A    between atoms: CA_2  and  CB_5 
REMARK       I    between atoms: C_3  and  N_11 
REMARK    4  A    between atoms: CB_5  and  CG_6 
REMARK    5  A    between atoms: CG_6  and  CD_7 
REMARK    6  A    between atoms: N_11  and  CA_12 
REMARK    7  A    between atoms: CA_12  and  C_13 
REMARK    8  A    between atoms: CA_12  and  CB_15 
REMARK       I    between atoms: C_13  and  N_22 
REMARK    9  A    between atoms: CB_15  and  CG_16 
REMARK       I    between atoms: CG_16  and  ND2_17 
REMARK   10  A    between atoms: CA_23  and  C_24 
REMARK       I    between atoms: C_24  and  N_29 
REMARK   11  A    between atoms: N_29  and  CA_30 
REMARK   12  A    between atoms: CA_30  and  C_31 
REMARK   13  A    between atoms: CA_30  and  CB_33 
REMARK       I    between atoms: C_31  and  N_39 
REMARK   14  A    between atoms: CB_33  and  CG_34 
REMARK   15  A    between atoms: CG_34  and  CD_35 
REMARK   16  A    between atoms: N_39  and  CA_40 
REMARK   17  A    between atoms: CA_40  and  C_41 
REMARK   18  A    between atoms: CA_40  and  CB_43 
REMARK       I    between atoms: C_41  and  N_47 
REMARK   19  A    between atoms: CB_43  and  OG_44 
REMARK   20  A    between atoms: N_47  and  CA_48 
REMARK   21  A    between atoms: CA_48  and  C_49 
REMARK   22  A    between atoms: CA_48  and  CB_51 
REMARK       I    between atoms: C_49  and  N_56 
REMARK   23  A    between atoms: CB_51  and  CG1_52 
REMARK   24  A    between atoms: N_56  and  CA_57 
REMARK   25  A    between atoms: CA_57  and  C_58 
REMARK   26  A    between atoms: CA_57  and  CB_60 
REMARK       I    between atoms: C_58  and  N_65 
REMARK   27  A    between atoms: CB_60  and  CG_61 
REMARK   28  A    between atoms: N_65  and  CA_66 
REMARK   29  A    between atoms: CA_66  and  C_67 
REMARK   30  A    between atoms: CA_66  and  CB_69 
REMARK       I    between atoms: C_67  and  N_74 
REMARK   31  A    between atoms: CB_69  and  CG_70 
REMARK   32  A    between atoms: N_74  and  CA_75 
REMARK   33  A    between atoms: CA_75  and  C_76 
REMARK   34  A    between atoms: CA_75  and  CB_78 
REMARK       I    between atoms: C_76  and  N_84 
REMARK   35  A    between atoms: CB_78  and  CG_79 
REMARK   36  A    between atoms: CG_79  and  CD_80 
REMARK   37  A    between atoms: N_84  and  CA_85 
REMARK   38  A    between atoms: CA_85  and  C_86 
REMARK   39  A    between atoms: CA_85  and  CB_88 
REMARK       I    between atoms: C_86  and  N_96 
REMARK   40  A    between atoms: CB_88  and  CG_89 
REMARK   41  A    between atoms: N_96  and  CA_97 
REMARK   42  A    between atoms: CA_97  and  C_98 
REMARK   43  A    between atoms: CA_97  and  CB_100 
REMARK       I    between atoms: C_98  and  N_105 
REMARK   44  A    between atoms: CB_100  and  OG1_102 
REMARK   45  A    between atoms: N_105  and  CA_106 
REMARK   46  A    between atoms: CA_106  and  C_107 
REMARK   47  A    between atoms: CA_106  and  CB_109 
REMARK       I    between atoms: C_107  and  N_117 
REMARK   48  A    between atoms: CB_109  and  CG_110 
REMARK   49  A    between atoms: CG_110  and  CD_111 
REMARK       I    between atoms: CD_111  and  NE2_112 
REMARK   50  A    between atoms: N_117  and  CA_118 
REMARK   51  A    between atoms: CA_118  and  C_119 
REMARK   52  A    between atoms: CA_118  and  CB_121 
REMARK       I    between atoms: C_119  and  N_134 
REMARK   53  A    between atoms: CB_121  and  CG_122 
REMARK   54  A    between atoms: CG_122  and  CD_123 
REMARK   55  A    between atoms: CD_123  and  NE_124 
REMARK       I    between atoms: NE_124  and  CZ_125 
REMARK       I    between atoms: CZ_125  and  NH1_126 
REMARK       I    between atoms: CZ_125  and  NH2_127 
REMARK   56  A    between atoms: N_134  and  CA_135 
REMARK   57  A    between atoms: CA_135  and  C_136 
REMARK   58  A    between atoms: CA_135  and  CB_138 
REMARK       I    between atoms: C_136  and  N_142 
REMARK   59  A    between atoms: N_142  and  CA_143 
REMARK   60  A    between atoms: CA_143  and  C_144 
REMARK   61  A    between atoms: CA_143  and  CB_146 
REMARK       I    between atoms: C_144  and  N_151 
REMARK   62  A    between atoms: CB_146  and  CG_147 
REMARK   63  A    between atoms: CG_147  and  SD_148 
REMARK   64  A    between atoms: N_151  and  CA_152 
REMARK   65  A    between atoms: CA_152  and  C_153 
REMARK   66  A    between atoms: CA_152  and  CB_155 
REMARK   67  A    between atoms: CB_155  and  CG_156 
REMARK   68  A    between atoms: CG_156  and  CD_157 
REMARK   69  A    between atoms: CD_157  and  NE_158 
REMARK       I    between atoms: NE_158  and  CZ_159 
REMARK       I    between atoms: CZ_159  and  NH1_160 
ROOT
ATOM      1  C   GLU d   9    1798.243 542.236-1839.399  0.00  0.00     0.241 C 
ATOM      2  O   GLU d   9    1798.907 542.991-1840.125  0.00  0.00    -0.271 OA
ATOM      3  N   HIS d  10    1798.340 540.961-1839.569  0.00  0.00    -0.346 N 
ATOM      4  H   HIS d  10    1797.810 540.325-1838.991  0.00  0.00     0.163 HD
ENDROOT
BRANCH   3   5
ATOM      5  CA  HIS d  10    1799.228 540.450-1840.610  0.00  0.00     0.182 C 
BRANCH   5   6
ATOM      6  C   HIS d  10    1798.861 541.015-1841.961  0.00  0.00     0.241 C 
ATOM      7  O   HIS d  10    1799.713 541.480-1842.732  0.00  0.00    -0.271 OA
ATOM      8  N   THR d  11    1797.623 541.013-1842.323  0.00  0.00    -0.344 N 
ATOM      9  H   THR d  11    1796.910 540.640-1841.713  0.00  0.00     0.163 HD
BRANCH   8  10
ATOM     10  CA  THR d  11    1797.268 541.559-1843.629  0.00  0.00     0.205 C 
BRANCH  10  11
ATOM     11  C   THR d  11    1797.731 542.990-1843.763  0.00  0.00     0.243 C 
ATOM     12  O   THR d  11    1798.321 543.386-1844.748  0.00  0.00    -0.271 OA
ATOM     13  N   GLN d  12    1797.494 543.817-1842.801  0.00  0.00    -0.346 N 
ATOM     14  H   GLN d  12    1797.006 543.512-1841.971  0.00  0.00     0.163 HD
BRANCH  13  15
ATOM     15  CA  GLN d  12    1797.942 545.200-1842.930  0.00  0.00     0.177 C 
BRANCH  15  16
ATOM     16  C   GLN d  12    1799.432 545.268-1843.169  0.00  0.00     0.241 C 
ATOM     17  O   GLN d  12    1799.918 545.975-1844.048  0.00  0.00    -0.271 OA
ATOM     18  N   ARG d  13    1800.217 544.562-1842.427  0.00  0.00    -0.346 N 
ATOM     19  H   ARG d  13    1799.841 543.973-1841.698  0.00  0.00     0.163 HD
BRANCH  18  20
ATOM     20  CA  ARG d  13    1801.657 544.628-1842.658  0.00  0.00     0.176 C 
BRANCH  20  21
ATOM     21  C   ARG d  13    1801.993 544.255-1844.083  0.00  0.00     0.241 C 
ATOM     22  O   ARG d  13    1802.761 544.926-1844.768  0.00  0.00    -0.271 OA
ATOM     23  N   VAL d  14    1801.458 543.200-1844.596  0.00  0.00    -0.346 N 
ATOM     24  H   VAL d  14    1800.823 542.632-1844.053  0.00  0.00     0.163 HD
BRANCH  23  25
ATOM     25  CA  VAL d  14    1801.782 542.839-1845.973  0.00  0.00     0.180 C 
BRANCH  25  26
ATOM     26  C   VAL d  14    1801.452 543.968-1846.920  0.00  0.00     0.241 C 
ATOM     27  O   VAL d  14    1802.245 544.348-1847.790  0.00  0.00    -0.271 OA
ATOM     28  N   MET d  15    1800.307 544.553-1846.819  0.00  0.00    -0.346 N 
ATOM     29  H   MET d  15    1799.642 544.261-1846.117  0.00  0.00     0.163 HD
BRANCH  28  30
ATOM     30  CA  MET d  15    1799.986 545.645-1847.734  0.00  0.00     0.177 C 
BRANCH  30  31
ATOM     31  C   MET d  15    1801.015 546.745-1847.648  0.00  0.00     0.241 C 
ATOM     32  O   MET d  15    1801.518 547.255-1848.661  0.00  0.00    -0.271 OA
ATOM     33  N   ARG d  16    1801.384 547.168-1846.486  0.00  0.00    -0.347 N 
ATOM     34  H   ARG d  16    1800.989 546.769-1845.646  0.00  0.00     0.163 HD
BRANCH  33  35
ATOM     35  CA  ARG d  16    1802.380 548.232-1846.404  0.00  0.00     0.162 C 
BRANCH  35  36
ATOM     36  C   ARG d  16    1803.651 547.839-1847.120  0.00  0.00     0.219 C 
ATOM     37  O   ARG d  16    1803.765 546.762-1847.700  0.00  0.00    -0.287 OA
ENDBRANCH  35  36
BRANCH  35  38
ATOM     38  CB  ARG d  16    1802.649 548.552-1844.906  0.00  0.00     0.035 C 
BRANCH  38  39
ATOM     39  CG  ARG d  16    1803.474 549.842-1844.635  0.00  0.00     0.023 C 
BRANCH  39  40
ATOM     40  CD  ARG d  16    1803.724 550.063-1843.134  0.00  0.00     0.138 C 
BRANCH  40  41
ATOM     41  NE  ARG d  16    1804.500 551.323-1842.935  0.00  0.00    -0.227 N 
ATOM     42  CZ  ARG d  16    1804.891 551.806-1841.760  0.00  0.00     0.665 C 
ATOM     43  NH1 ARG d  16    1804.644 551.224-1840.620  0.00  0.00    -0.235 N 
ATOM     44  NH2 ARG d  16    1805.555 552.919-1841.743  0.00  0.00    -0.235 N 
ATOM     45 11HH ARG d  16    1804.118 550.350-1840.704  0.00  0.00     0.174 HD
ATOM     46 12HH ARG d  16    1804.978 551.660-1839.760  0.00  0.00     0.174 HD
ATOM     47 21HH ARG d  16    1805.740 553.361-1842.645  0.00  0.00     0.174 HD
ATOM     48 22HH ARG d  16    1805.845 553.276-1840.831  0.00  0.00     0.174 HD
ATOM     49  HE  ARG d  16    1804.778 551.903-1843.733  0.00  0.00     0.177 HD
ENDBRANCH  40  41
ENDBRANCH  39  40
ENDBRANCH  38  39
ENDBRANCH  35  38
ENDBRANCH  33  35
ENDBRANCH  30  31
BRANCH  30  50
ATOM     50  CB  MET d  15    1798.564 546.190-1847.426  0.00  0.00     0.045 C 
BRANCH  50  51
ATOM     51  CG  MET d  15    1797.402 545.191-1847.616  0.00  0.00     0.076 C 
BRANCH  51  52
ATOM     52  SD  MET d  15    1795.828 546.057-1847.503  0.00  0.00    -0.173 SA
ATOM     53  CE  MET d  15    1794.747 544.627-1847.365  0.00  0.00     0.089 C 
ENDBRANCH  51  52
ENDBRANCH  50  51
ENDBRANCH  30  50
ENDBRANCH  28  30
ENDBRANCH  25  26
BRANCH  25  54
ATOM     54  CB  VAL d  14    1801.010 541.521-1846.378  0.00  0.00     0.009 C 
ATOM     55  CG1 VAL d  14    1801.099 541.101-1847.871  0.00  0.00     0.012 C 
ATOM     56  CG2 VAL d  14    1801.443 540.270-1845.576  0.00  0.00     0.012 C 
ENDBRANCH  25  54
ENDBRANCH  23  25
ENDBRANCH  20  21
BRANCH  20  57
ATOM     57  CB  ARG d  13    1802.371 543.691-1841.643  0.00  0.00     0.036 C 
BRANCH  57  58
ATOM     58  CG  ARG d  13    1803.916 543.845-1841.563  0.00  0.00     0.023 C 
BRANCH  58  59
ATOM     59  CD  ARG d  13    1804.544 542.859-1840.564  0.00  0.00     0.138 C 
BRANCH  59  60
ATOM     60  NE  ARG d  13    1806.021 543.067-1840.514  0.00  0.00    -0.227 N 
ATOM     61  CZ  ARG d  13    1806.870 542.377-1839.758  0.00  0.00     0.665 C 
ATOM     62  NH1 ARG d  13    1806.505 541.414-1838.959  0.00  0.00    -0.235 N 
ATOM     63  NH2 ARG d  13    1808.129 542.677-1839.816  0.00  0.00    -0.235 N 
ATOM     64 11HH ARG d  13    1805.500 541.227-1838.962  0.00  0.00     0.174 HD
ATOM     65 12HH ARG d  13    1807.219 540.932-1838.410  0.00  0.00     0.174 HD
ATOM     66 21HH ARG d  13    1808.396 543.434-1840.448  0.00  0.00     0.174 HD
ATOM     67 22HH ARG d  13    1808.764 542.137-1839.226  0.00  0.00     0.174 HD
ATOM     68  HE  ARG d  13    1806.472 543.789-1841.086  0.00  0.00     0.177 HD
ENDBRANCH  59  60
ENDBRANCH  58  59
ENDBRANCH  57  58
ENDBRANCH  20  57
ENDBRANCH  18  20
ENDBRANCH  15  16
BRANCH  15  69
ATOM     69  CB  GLN d  12    1797.551 545.969-1841.648  0.00  0.00     0.044 C 
BRANCH  69  70
ATOM     70  CG  GLN d  12    1797.911 547.491-1841.619  0.00  0.00     0.105 C 
BRANCH  70  71
ATOM     71  CD  GLN d  12    1797.609 548.306-1840.355  0.00  0.00     0.215 C 
ATOM     72  NE2 GLN d  12    1797.042 547.730-1839.325  0.00  0.00    -0.370 N 
ATOM     73 21HE GLN d  12    1796.935 548.326-1838.502  0.00  0.00     0.159 HD
ATOM     74 22HE GLN d  12    1796.879 546.726-1839.427  0.00  0.00     0.159 HD
ATOM     75  OE1 GLN d  12    1797.910 549.487-1840.279  0.00  0.00    -0.274 OA
ENDBRANCH  70  71
ENDBRANCH  69  70
ENDBRANCH  15  69
ENDBRANCH  13  15
ENDBRANCH  10  11
BRANCH  10  76
ATOM     76  CB  THR d  11    1795.724 541.453-1843.869  0.00  0.00     0.146 C 
ATOM     77  CG2 THR d  11    1795.200 542.004-1845.213  0.00  0.00     0.042 C 
BRANCH  76  78
ATOM     78  OG1 THR d  11    1795.309 540.093-1843.855  0.00  0.00    -0.393 OA
ATOM     79  1HG THR d  11    1794.351 540.105-1843.935  0.00  0.00     0.210 HD
ENDBRANCH  76  78
ENDBRANCH  10  76
ENDBRANCH   8  10
ENDBRANCH   5   6
BRANCH   5  80
ATOM     80  CB  HIS d  10    1799.065 538.921-1840.605  0.00  0.00     0.095 C 
BRANCH  80  81
ATOM     81  CG  HIS d  10    1800.351 538.212-1840.297  0.00  0.00     0.053 A 
ATOM     82  CD2 HIS d  10    1800.732 537.876-1839.005  0.00  0.00     0.116 A 
ATOM     83  NE2 HIS d  10    1801.948 537.245-1839.072  0.00  0.00    -0.359 N 
ATOM     84  CE1 HIS d  10    1802.210 537.249-1840.407  0.00  0.00     0.207 A 
ATOM     85  2HE HIS d  10    1802.515 536.868-1838.299  0.00  0.00     0.166 HD
ATOM     86  ND1 HIS d  10    1801.303 537.807-1841.230  0.00  0.00    -0.247 NA
ENDBRANCH  80  81
ENDBRANCH   5  80
ENDBRANCH   3   5
BRANCH   1  87
ATOM     87  CA  GLU d   9    1797.325 542.763-1838.323  0.00  0.00     0.177 C 
BRANCH  87  88
ATOM     88  N   GLU d   9    1796.023 542.105-1838.379  0.00  0.00    -0.346 N 
ATOM     89  C   ASP d   8    1795.343 542.155-1839.474  0.00  0.00     0.241 C 
ATOM     90  O   ASP d   8    1795.815 542.760-1840.448  0.00  0.00    -0.271 OA
ATOM     91  H   GLU d   9    1795.659 541.618-1837.572  0.00  0.00     0.163 HD
BRANCH  89  92
ATOM     92  CA  ASP d   8    1793.996 541.475-1839.531  0.00  0.00     0.186 C 
BRANCH  92  93
ATOM     93  N   ASP d   8    1794.067 540.125-1838.978  0.00  0.00    -0.346 N 
ATOM     94  C   LEU d   7    1794.904 539.285-1839.484  0.00  0.00     0.241 C 
ATOM     95  O   LEU d   7    1795.625 539.648-1840.426  0.00  0.00    -0.271 OA
ATOM     96  H   ASP d   8    1793.469 539.854-1838.211  0.00  0.00     0.163 HD
BRANCH  94  97
ATOM     97  CA  LEU d   7    1794.977 537.890-1838.912  0.00  0.00     0.177 C 
BRANCH  97  98
ATOM     98  N   LEU d   7    1795.032 537.926-1837.453  0.00  0.00    -0.346 N 
ATOM     99  C   ILE d   6    1795.978 538.589-1836.880  0.00  0.00     0.241 C 
ATOM    100  O   ILE d   6    1796.812 539.177-1837.583  0.00  0.00    -0.271 OA
ATOM    101  H   LEU d   7    1794.340 537.438-1836.902  0.00  0.00     0.163 HD
BRANCH  99 102
ATOM    102  CA  ILE d   6    1796.035 538.627-1835.372  0.00  0.00     0.180 C 
BRANCH 102 103
ATOM    103  N   ILE d   6    1794.722 538.922-1834.806  0.00  0.00    -0.346 N 
ATOM    104  C   SER d   5    1794.117 540.005-1835.160  0.00  0.00     0.243 C 
ATOM    105  O   SER d   5    1794.664 540.758-1835.965  0.00  0.00    -0.271 OA
ATOM    106  H   ILE d   6    1794.293 538.287-1834.146  0.00  0.00     0.163 HD
BRANCH 104 107
ATOM    107  CA  SER d   5    1792.758 540.310-1834.574  0.00  0.00     0.200 C 
BRANCH 107 108
ATOM    108  N   SER d   5    1791.888 539.139-1834.633  0.00  0.00    -0.344 N 
ATOM    109  C   GLU d   4    1791.661 538.586-1835.776  0.00  0.00     0.241 C 
ATOM    110  O   GLU d   4    1792.187 539.066-1836.790  0.00  0.00    -0.271 OA
ATOM    111  H   SER d   5    1791.471 538.767-1833.791  0.00  0.00     0.163 HD
BRANCH 109 112
ATOM    112  CA  GLU d   4    1790.762 537.375-1835.837  0.00  0.00     0.177 C 
BRANCH 112 113
ATOM    113  N   GLU d   4    1791.122 536.404-1834.807  0.00  0.00    -0.346 N 
ATOM    114  C   PRO d   3    1792.326 535.944-1834.775  0.00  0.00     0.241 C 
ATOM    115  O   PRO d   3    1793.150 536.327-1835.607  0.00  0.00    -0.271 OA
ATOM    116  H   GLU d   4    1790.438 536.097-1834.131  0.00  0.00     0.163 HD
BRANCH 114 117
ATOM    117  CA  PRO d   3    1792.724 534.921-1833.698  0.00  0.00     0.179 C 
ATOM    118  N   PRO d   3    1792.273 535.330-1832.377  0.00  0.00    -0.337 N 
ATOM    119  C   ASN d   2    1792.794 536.325-1831.743  0.00  0.00     0.243 C 
ATOM    120  CD  PRO d   3    1791.195 534.537-1831.827  0.00  0.00     0.127 C 
ATOM    121  O   ASN d   2    1793.709 536.955-1832.271  0.00  0.00    -0.271 OA
ATOM    122  CG  PRO d   3    1790.737 533.718-1833.037  0.00  0.00     0.022 C 
ATOM    123  CB  PRO d   3    1792.020 533.566-1833.867  0.00  0.00     0.037 C 
BRANCH 119 124
ATOM    124  CA  ASN d   2    1792.263 536.680-1830.374  0.00  0.00     0.185 C 
BRANCH 124 125
ATOM    125  N   ASN d   2    1790.804 536.719-1830.374  0.00  0.00    -0.346 N 
ATOM    126  C   GLU d   1    1790.199 537.505-1831.199  0.00  0.00     0.242 C 
ATOM    127  O   GLU d   1    1790.875 538.204-1831.968  0.00  0.00    -0.271 OA
ATOM    128  H   ASN d   2    1790.276 536.140-1829.737  0.00  0.00     0.163 HD
BRANCH 126 129
ATOM    129  CA  GLU d   1    1788.690 537.545-1831.199  0.00  0.00     0.191 C 
BRANCH 129 130
ATOM    130  N   GLU d   1    1788.131 536.196-1831.199  0.00  0.00    -0.326 NA
ATOM    131  H   GLU d   1    1788.758 535.317-1831.199  0.00  0.00     0.180 HD
ENDBRANCH 129 130
BRANCH 129 132
ATOM    132  CB  GLU d   1    1788.167 538.330-1829.962  0.00  0.00     0.047 C 
BRANCH 132 133
ATOM    133  CG  GLU d   1    1788.642 539.815-1829.851  0.00  0.00     0.116 C 
BRANCH 133 134
ATOM    134  CD  GLU d   1    1788.218 540.619-1828.636  0.00  0.00     0.172 C 
ATOM    135  OE1 GLU d   1    1787.490 540.117-1827.758  0.00  0.00    -0.648 OA
ATOM    136  OE2 GLU d   1    1788.648 541.789-1828.564  0.00  0.00    -0.648 OA
ENDBRANCH 133 134
ENDBRANCH 132 133
ENDBRANCH 129 132
ENDBRANCH 126 129
ENDBRANCH 124 125
BRANCH 124 137
ATOM    137  CB  ASN d   2    1792.755 535.657-1829.310  0.00  0.00     0.137 C 
BRANCH 137 138
ATOM    138  CG  ASN d   2    1792.292 535.881-1827.866  0.00  0.00     0.217 C 
ATOM    139  ND2 ASN d   2    1792.886 536.796-1827.148  0.00  0.00    -0.370 N 
ATOM    140 21HD ASN d   2    1792.406 536.969-1826.261  0.00  0.00     0.159 HD
ATOM    141 22HD ASN d   2    1793.588 537.368-1827.617  0.00  0.00     0.159 HD
ATOM    142  OD1 ASN d   2    1791.371 535.248-1827.372  0.00  0.00    -0.274 OA
ENDBRANCH 137 138
ENDBRANCH 124 137
ENDBRANCH 119 124
ENDBRANCH 114 117
ENDBRANCH 112 113
BRANCH 112 143
ATOM    143  CB  GLU d   4    1789.274 537.794-1835.667  0.00  0.00     0.045 C 
BRANCH 143 144
ATOM    144  CG  GLU d   4    1788.726 538.797-1836.732  0.00  0.00     0.116 C 
BRANCH 144 145
ATOM    145  CD  GLU d   4    1787.299 539.294-1836.589  0.00  0.00     0.172 C 
ATOM    146  OE1 GLU d   4    1786.573 538.896-1835.658  0.00  0.00    -0.648 OA
ATOM    147  OE2 GLU d   4    1786.909 540.124-1837.437  0.00  0.00    -0.648 OA
ENDBRANCH 144 145
ENDBRANCH 143 144
ENDBRANCH 112 143
ENDBRANCH 109 112
ENDBRANCH 107 108
BRANCH 107 148
ATOM    148  CB  SER d   5    1792.869 540.842-1833.124  0.00  0.00     0.199 C 
BRANCH 148 149
ATOM    149  OG  SER d   5    1793.601 539.963-1832.263  0.00  0.00    -0.398 OA
ATOM    150  HG  SER d   5    1793.113 539.138-1832.212  0.00  0.00     0.209 HD
ENDBRANCH 148 149
ENDBRANCH 107 148
ENDBRANCH 104 107
ENDBRANCH 102 103
BRANCH 102 151
ATOM    151  CB  ILE d   6    1796.635 537.291-1834.772  0.00  0.00     0.013 C 
ATOM    152  CG2 ILE d   6    1798.076 536.989-1835.287  0.00  0.00     0.012 C 
BRANCH 151 153
ATOM    153  CG1 ILE d   6    1796.654 537.229-1833.211  0.00  0.00     0.002 C 
ATOM    154  CD1 ILE d   6    1796.924 535.839-1832.596  0.00  0.00     0.005 C 
ENDBRANCH 151 153
ENDBRANCH 102 151
ENDBRANCH  99 102
ENDBRANCH  97  98
BRANCH  97 155
ATOM    155  CB  LEU d   7    1793.774 537.029-1839.392  0.00  0.00     0.038 C 
BRANCH 155 156
ATOM    156  CG  LEU d   7    1793.701 535.550-1838.926  0.00  0.00    -0.020 C 
ATOM    157  CD1 LEU d   7    1792.512 534.844-1839.591  0.00  0.00     0.009 C 
ATOM    158  CD2 LEU d   7    1794.995 534.771-1839.217  0.00  0.00     0.009 C 
ENDBRANCH 155 156
ENDBRANCH  97 155
ENDBRANCH  94  97
ENDBRANCH  92  93
BRANCH  92 159
ATOM    159  CB  ASP d   8    1792.918 542.313-1838.789  0.00  0.00     0.147 C 
BRANCH 159 160
ATOM    160  CG  ASP d   8    1792.699 543.734-1839.330  0.00  0.00     0.175 C 
ATOM    161  OD1 ASP d   8    1792.763 543.934-1840.560  0.00  0.00    -0.648 OA
ATOM    162  OD2 ASP d   8    1792.506 544.660-1838.514  0.00  0.00    -0.648 OA
ENDBRANCH 159 160
ENDBRANCH  92 159
ENDBRANCH  89  92
ENDBRANCH  87  88
BRANCH  87 163
ATOM    163  CB  GLU d   9    1797.959 542.556-1836.918  0.00  0.00     0.045 C 
BRANCH 163 164
ATOM    164  CG  GLU d   9    1799.341 543.248-1836.689  0.00  0.00     0.116 C 
BRANCH 164 165
ATOM    165  CD  GLU d   9    1800.043 543.035-1835.361  0.00  0.00     0.172 C 
ATOM    166  OE1 GLU d   9    1799.522 542.344-1834.464  0.00  0.00    -0.648 OA
ATOM    167  OE2 GLU d   9    1801.162 543.574-1835.229  0.00  0.00    -0.648 OA
ENDBRANCH 164 165
ENDBRANCH 163 164
ENDBRANCH  87 163
ENDBRANCH   1  87
TORSDOF 69
