REMARK WARNING: 32 MAX_TORS EXCEEDED!!!
REMARK  68 active torsions:
REMARK  status: ('A' for Active; 'I' for Inactive)
REMARK    1  A    between atoms: N_1  and  CA_2 
REMARK    2  A    between atoms: CA_2  and  C_3 
REMARK    3  A    between atoms: CA_2  and  CB_5 
REMARK       I    between atoms: C_3  and  N_11 
REMARK    4  A    between atoms: CB_5  and  CG_6 
REMARK    5  A    between atoms: CG_6  and  CD_7 
REMARK    6  A    between atoms: N_11  and  CA_12 
REMARK    7  A    between atoms: CA_12  and  C_13 
REMARK    8  A    between atoms: CA_12  and  CB_15 
REMARK       I    between atoms: C_13  and  N_22 
REMARK    9  A    between atoms: CB_15  and  CG_16 
REMARK       I    between atoms: CG_16  and  ND2_17 
REMARK   10  A    between atoms: CA_23  and  C_24 
REMARK       I    between atoms: C_24  and  N_29 
REMARK   11  A    between atoms: N_29  and  CA_30 
REMARK   12  A    between atoms: CA_30  and  C_31 
REMARK   13  A    between atoms: CA_30  and  CB_33 
REMARK       I    between atoms: C_31  and  N_39 
REMARK   14  A    between atoms: CB_33  and  CG_34 
REMARK   15  A    between atoms: CG_34  and  CD_35 
REMARK   16  A    between atoms: N_39  and  CA_40 
REMARK   17  A    between atoms: CA_40  and  C_41 
REMARK   18  A    between atoms: CA_40  and  CB_43 
REMARK       I    between atoms: C_41  and  N_47 
REMARK   19  A    between atoms: CB_43  and  OG_44 
REMARK   20  A    between atoms: N_47  and  CA_48 
REMARK   21  A    between atoms: CA_48  and  C_49 
REMARK   22  A    between atoms: CA_48  and  CB_51 
REMARK       I    between atoms: C_49  and  N_56 
REMARK   23  A    between atoms: CB_51  and  CG1_52 
REMARK   24  A    between atoms: N_56  and  CA_57 
REMARK   25  A    between atoms: CA_57  and  C_58 
REMARK   26  A    between atoms: CA_57  and  CB_60 
REMARK       I    between atoms: C_58  and  N_64 
REMARK   27  A    between atoms: CB_60  and  OG_61 
REMARK   28  A    between atoms: N_64  and  CA_65 
REMARK   29  A    between atoms: CA_65  and  C_66 
REMARK   30  A    between atoms: CA_65  and  CB_68 
REMARK       I    between atoms: C_66  and  N_73 
REMARK   31  A    between atoms: CB_68  and  CG_69 
REMARK   32  A    between atoms: N_73  and  CA_74 
REMARK   33  A    between atoms: CA_74  and  C_75 
REMARK   34  A    between atoms: CA_74  and  CB_77 
REMARK       I    between atoms: C_75  and  N_83 
REMARK   35  A    between atoms: CB_77  and  CG_78 
REMARK   36  A    between atoms: CG_78  and  CD_79 
REMARK   37  A    between atoms: N_83  and  CA_84 
REMARK   38  A    between atoms: CA_84  and  C_85 
REMARK   39  A    between atoms: CA_84  and  CB_87 
REMARK       I    between atoms: C_85  and  N_95 
REMARK   40  A    between atoms: CB_87  and  CG_88 
REMARK   41  A    between atoms: N_95  and  CA_96 
REMARK   42  A    between atoms: CA_96  and  C_97 
REMARK   43  A    between atoms: CA_96  and  CB_99 
REMARK       I    between atoms: C_97  and  N_103 
REMARK   44  A    between atoms: N_103  and  CA_104 
REMARK   45  A    between atoms: CA_104  and  C_105 
REMARK   46  A    between atoms: CA_104  and  CB_107 
REMARK       I    between atoms: C_105  and  N_115 
REMARK   47  A    between atoms: CB_107  and  CG_108 
REMARK   48  A    between atoms: CG_108  and  CD_109 
REMARK       I    between atoms: CD_109  and  NE2_110 
REMARK   49  A    between atoms: N_115  and  CA_116 
REMARK   50  A    between atoms: CA_116  and  C_117 
REMARK   51  A    between atoms: CA_116  and  CB_119 
REMARK       I    between atoms: C_117  and  N_132 
REMARK   52  A    between atoms: CB_119  and  CG_120 
REMARK   53  A    between atoms: CG_120  and  CD_121 
REMARK   54  A    between atoms: CD_121  and  NE_122 
REMARK       I    between atoms: NE_122  and  CZ_123 
REMARK       I    between atoms: CZ_123  and  NH1_124 
REMARK       I    between atoms: CZ_123  and  NH2_125 
REMARK   55  A    between atoms: N_132  and  CA_133 
REMARK   56  A    between atoms: CA_133  and  C_134 
REMARK   57  A    between atoms: CA_133  and  CB_136 
REMARK       I    between atoms: C_134  and  N_140 
REMARK   58  A    between atoms: N_140  and  CA_141 
REMARK   59  A    between atoms: CA_141  and  C_142 
REMARK   60  A    between atoms: CA_141  and  CB_144 
REMARK       I    between atoms: C_142  and  N_149 
REMARK   61  A    between atoms: CB_144  and  CG_145 
REMARK   62  A    between atoms: CG_145  and  SD_146 
REMARK   63  A    between atoms: N_149  and  CA_150 
REMARK   64  A    between atoms: CA_150  and  C_151 
REMARK   65  A    between atoms: CA_150  and  CB_153 
REMARK   66  A    between atoms: CB_153  and  CG_154 
REMARK   67  A    between atoms: CG_154  and  CD_155 
REMARK   68  A    between atoms: CD_155  and  NE_156 
REMARK       I    between atoms: NE_156  and  CZ_157 
REMARK       I    between atoms: CZ_157  and  NH1_158 
ROOT
ATOM      1  C   GLU d   9    1134.041 324.244-1119.751  0.00  0.00     0.241 C 
ATOM      2  O   GLU d   9    1134.705 324.998-1120.476  0.00  0.00    -0.271 OA
ATOM      3  N   HIS d  10    1134.137 322.968-1119.920  0.00  0.00    -0.346 N 
ATOM      4  H   HIS d  10    1133.606 322.333-1119.342  0.00  0.00     0.163 HD
ENDROOT
BRANCH   3   5
ATOM      5  CA  HIS d  10    1135.025 322.457-1120.960  0.00  0.00     0.182 C 
BRANCH   5   6
ATOM      6  C   HIS d  10    1134.659 323.021-1122.312  0.00  0.00     0.241 C 
ATOM      7  O   HIS d  10    1135.512 323.485-1123.083  0.00  0.00    -0.271 OA
ATOM      8  N   VAL d  11    1133.421 323.020-1122.675  0.00  0.00    -0.346 N 
ATOM      9  H   VAL d  11    1132.708 322.648-1122.065  0.00  0.00     0.163 HD
BRANCH   8  10
ATOM     10  CA  VAL d  11    1133.067 323.566-1123.982  0.00  0.00     0.180 C 
BRANCH  10  11
ATOM     11  C   VAL d  11    1133.532 324.997-1124.115  0.00  0.00     0.241 C 
ATOM     12  O   VAL d  11    1134.133 325.402-1125.117  0.00  0.00    -0.271 OA
ATOM     13  N   GLN d  12    1133.295 325.823-1123.152  0.00  0.00    -0.346 N 
ATOM     14  H   GLN d  12    1132.805 325.517-1122.323  0.00  0.00     0.163 HD
BRANCH  13  15
ATOM     15  CA  GLN d  12    1133.743 327.206-1123.279  0.00  0.00     0.177 C 
BRANCH  15  16
ATOM     16  C   GLN d  12    1135.233 327.273-1123.517  0.00  0.00     0.241 C 
ATOM     17  O   GLN d  12    1135.721 327.981-1124.395  0.00  0.00    -0.271 OA
ATOM     18  N   ARG d  13    1136.017 326.566-1122.775  0.00  0.00    -0.346 N 
ATOM     19  H   ARG d  13    1135.641 325.976-1122.047  0.00  0.00     0.163 HD
BRANCH  18  20
ATOM     20  CA  ARG d  13    1137.458 326.631-1123.005  0.00  0.00     0.176 C 
BRANCH  20  21
ATOM     21  C   ARG d  13    1137.795 326.260-1124.431  0.00  0.00     0.241 C 
ATOM     22  O   ARG d  13    1138.563 326.931-1125.114  0.00  0.00    -0.271 OA
ATOM     23  N   VAL d  14    1137.259 325.206-1124.945  0.00  0.00    -0.346 N 
ATOM     24  H   VAL d  14    1136.623 324.637-1124.404  0.00  0.00     0.163 HD
BRANCH  23  25
ATOM     25  CA  VAL d  14    1137.584 324.846-1126.323  0.00  0.00     0.180 C 
BRANCH  25  26
ATOM     26  C   VAL d  14    1137.254 325.976-1127.269  0.00  0.00     0.241 C 
ATOM     27  O   VAL d  14    1138.048 326.358-1128.138  0.00  0.00    -0.271 OA
ATOM     28  N   MET d  15    1136.110 326.563-1127.167  0.00  0.00    -0.346 N 
ATOM     29  H   MET d  15    1135.444 326.270-1126.466  0.00  0.00     0.163 HD
BRANCH  28  30
ATOM     30  CA  MET d  15    1135.790 327.655-1128.081  0.00  0.00     0.177 C 
BRANCH  30  31
ATOM     31  C   MET d  15    1136.820 328.755-1127.993  0.00  0.00     0.241 C 
ATOM     32  O   MET d  15    1137.324 329.266-1129.006  0.00  0.00    -0.271 OA
ATOM     33  N   ARG d  16    1137.188 329.176-1126.831  0.00  0.00    -0.347 N 
ATOM     34  H   ARG d  16    1136.793 328.776-1125.992  0.00  0.00     0.163 HD
BRANCH  33  35
ATOM     35  CA  ARG d  16    1138.185 330.240-1126.747  0.00  0.00     0.162 C 
BRANCH  35  36
ATOM     36  C   ARG d  16    1139.456 329.847-1127.462  0.00  0.00     0.219 C 
ATOM     37  O   ARG d  16    1139.570 328.770-1128.043  0.00  0.00    -0.287 OA
ENDBRANCH  35  36
BRANCH  35  38
ATOM     38  CB  ARG d  16    1138.453 330.558-1125.248  0.00  0.00     0.035 C 
BRANCH  38  39
ATOM     39  CG  ARG d  16    1139.279 331.846-1124.975  0.00  0.00     0.023 C 
BRANCH  39  40
ATOM     40  CD  ARG d  16    1139.528 332.066-1123.474  0.00  0.00     0.138 C 
BRANCH  40  41
ATOM     41  NE  ARG d  16    1140.304 333.325-1123.272  0.00  0.00    -0.227 N 
ATOM     42  CZ  ARG d  16    1140.695 333.807-1122.096  0.00  0.00     0.665 C 
ATOM     43  NH1 ARG d  16    1140.446 333.223-1120.958  0.00  0.00    -0.235 N 
ATOM     44  NH2 ARG d  16    1141.359 334.919-1122.077  0.00  0.00    -0.235 N 
ATOM     45 11HH ARG d  16    1139.921 332.350-1121.043  0.00  0.00     0.174 HD
ATOM     46 12HH ARG d  16    1140.781 333.658-1120.097  0.00  0.00     0.174 HD
ATOM     47 21HH ARG d  16    1141.545 335.363-1122.979  0.00  0.00     0.174 HD
ATOM     48 22HH ARG d  16    1141.649 335.275-1121.165  0.00  0.00     0.174 HD
ATOM     49  HE  ARG d  16    1140.583 333.906-1124.069  0.00  0.00     0.177 HD
ENDBRANCH  40  41
ENDBRANCH  39  40
ENDBRANCH  38  39
ENDBRANCH  35  38
ENDBRANCH  33  35
ENDBRANCH  30  31
BRANCH  30  50
ATOM     50  CB  MET d  15    1134.369 328.201-1127.773  0.00  0.00     0.045 C 
BRANCH  50  51
ATOM     51  CG  MET d  15    1133.206 327.203-1127.965  0.00  0.00     0.076 C 
BRANCH  51  52
ATOM     52  SD  MET d  15    1131.633 328.070-1127.851  0.00  0.00    -0.173 SA
ATOM     53  CE  MET d  15    1130.551 326.640-1127.715  0.00  0.00     0.089 C 
ENDBRANCH  51  52
ENDBRANCH  50  51
ENDBRANCH  30  50
ENDBRANCH  28  30
ENDBRANCH  25  26
BRANCH  25  54
ATOM     54  CB  VAL d  14    1136.811 323.529-1126.730  0.00  0.00     0.009 C 
ATOM     55  CG1 VAL d  14    1136.901 323.111-1128.223  0.00  0.00     0.012 C 
ATOM     56  CG2 VAL d  14    1137.243 322.277-1125.930  0.00  0.00     0.012 C 
ENDBRANCH  25  54
ENDBRANCH  23  25
ENDBRANCH  20  21
BRANCH  20  57
ATOM     57  CB  ARG d  13    1138.171 325.692-1121.991  0.00  0.00     0.036 C 
BRANCH  57  58
ATOM     58  CG  ARG d  13    1139.715 325.845-1121.910  0.00  0.00     0.023 C 
BRANCH  58  59
ATOM     59  CD  ARG d  13    1140.342 324.857-1120.912  0.00  0.00     0.138 C 
BRANCH  59  60
ATOM     60  NE  ARG d  13    1141.819 325.064-1120.861  0.00  0.00    -0.227 N 
ATOM     61  CZ  ARG d  13    1142.667 324.372-1120.105  0.00  0.00     0.665 C 
ATOM     62  NH1 ARG d  13    1142.301 323.407-1119.308  0.00  0.00    -0.235 N 
ATOM     63  NH2 ARG d  13    1143.926 324.670-1120.162  0.00  0.00    -0.235 N 
ATOM     64 11HH ARG d  13    1141.296 323.222-1119.312  0.00  0.00     0.174 HD
ATOM     65 12HH ARG d  13    1143.014 322.924-1118.759  0.00  0.00     0.174 HD
ATOM     66 21HH ARG d  13    1144.194 325.428-1120.792  0.00  0.00     0.174 HD
ATOM     67 22HH ARG d  13    1144.561 324.129-1119.573  0.00  0.00     0.174 HD
ATOM     68  HE  ARG d  13    1142.271 325.786-1121.431  0.00  0.00     0.177 HD
ENDBRANCH  59  60
ENDBRANCH  58  59
ENDBRANCH  57  58
ENDBRANCH  20  57
ENDBRANCH  18  20
ENDBRANCH  15  16
BRANCH  15  69
ATOM     69  CB  GLN d  12    1133.352 327.973-1121.997  0.00  0.00     0.044 C 
BRANCH  69  70
ATOM     70  CG  GLN d  12    1133.713 329.495-1121.966  0.00  0.00     0.105 C 
BRANCH  70  71
ATOM     71  CD  GLN d  12    1133.410 330.309-1120.701  0.00  0.00     0.215 C 
ATOM     72  NE2 GLN d  12    1132.842 329.732-1119.672  0.00  0.00    -0.370 N 
ATOM     73 21HE GLN d  12    1132.735 330.327-1118.849  0.00  0.00     0.159 HD
ATOM     74 22HE GLN d  12    1132.679 328.729-1119.776  0.00  0.00     0.159 HD
ATOM     75  OE1 GLN d  12    1133.712 331.490-1120.624  0.00  0.00    -0.274 OA
ENDBRANCH  70  71
ENDBRANCH  69  70
ENDBRANCH  15  69
ENDBRANCH  13  15
ENDBRANCH  10  11
BRANCH  10  76
ATOM     76  CB  VAL d  11    1131.506 323.460-1124.202  0.00  0.00     0.009 C 
ATOM     77  CG1 VAL d  11    1130.938 324.164-1125.465  0.00  0.00     0.012 C 
ATOM     78  CG2 VAL d  11    1130.981 322.006-1124.275  0.00  0.00     0.012 C 
ENDBRANCH  10  76
ENDBRANCH   8  10
ENDBRANCH   5   6
BRANCH   5  79
ATOM     79  CB  HIS d  10    1134.861 320.928-1120.955  0.00  0.00     0.095 C 
BRANCH  79  80
ATOM     80  CG  HIS d  10    1136.146 320.217-1120.646  0.00  0.00     0.053 A 
ATOM     81  CD2 HIS d  10    1136.527 319.883-1119.353  0.00  0.00     0.116 A 
ATOM     82  NE2 HIS d  10    1137.742 319.251-1119.419  0.00  0.00    -0.359 N 
ATOM     83  CE1 HIS d  10    1138.005 319.253-1120.755  0.00  0.00     0.207 A 
ATOM     84  2HE HIS d  10    1138.308 318.874-1118.646  0.00  0.00     0.166 HD
ATOM     85  ND1 HIS d  10    1137.099 319.811-1121.578  0.00  0.00    -0.247 NA
ENDBRANCH  79  80
ENDBRANCH   5  79
ENDBRANCH   3   5
BRANCH   1  86
ATOM     86  CA  GLU d   9    1133.123 324.772-1118.676  0.00  0.00     0.177 C 
BRANCH  86  87
ATOM     87  N   GLU d   9    1131.820 324.115-1118.731  0.00  0.00    -0.346 N 
ATOM     88  C   ASP d   8    1131.140 324.164-1119.826  0.00  0.00     0.241 C 
ATOM     89  O   ASP d   8    1131.613 324.769-1120.801  0.00  0.00    -0.271 OA
ATOM     90  H   GLU d   9    1131.456 323.629-1117.924  0.00  0.00     0.163 HD
BRANCH  88  91
ATOM     91  CA  ASP d   8    1129.793 323.485-1119.884  0.00  0.00     0.186 C 
BRANCH  91  92
ATOM     92  N   ASP d   8    1129.863 322.136-1119.330  0.00  0.00    -0.345 N 
ATOM     93  C   SER d   7    1130.700 321.294-1119.836  0.00  0.00     0.243 C 
ATOM     94  O   SER d   7    1131.416 321.653-1120.770  0.00  0.00    -0.271 OA
ATOM     95  H   ASP d   8    1129.265 321.865-1118.562  0.00  0.00     0.163 HD
BRANCH  93  96
ATOM     96  CA  SER d   7    1130.773 319.898-1119.263  0.00  0.00     0.200 C 
BRANCH  96  97
ATOM     97  N   SER d   7    1130.828 319.934-1117.804  0.00  0.00    -0.344 N 
ATOM     98  C   ILE d   6    1131.773 320.597-1117.231  0.00  0.00     0.241 C 
ATOM     99  O   ILE d   6    1132.608 321.185-1117.935  0.00  0.00    -0.271 OA
ATOM    100  H   SER d   7    1130.136 319.447-1117.253  0.00  0.00     0.163 HD
BRANCH  98 101
ATOM    101  CA  ILE d   6    1131.831 320.635-1115.723  0.00  0.00     0.180 C 
BRANCH 101 102
ATOM    102  N   ILE d   6    1130.518 320.930-1115.156  0.00  0.00    -0.346 N 
ATOM    103  C   SER d   5    1129.913 322.013-1115.510  0.00  0.00     0.243 C 
ATOM    104  O   SER d   5    1130.460 322.766-1116.315  0.00  0.00    -0.271 OA
ATOM    105  H   ILE d   6    1130.089 320.295-1114.498  0.00  0.00     0.163 HD
BRANCH 103 106
ATOM    106  CA  SER d   5    1128.554 322.318-1114.925  0.00  0.00     0.200 C 
BRANCH 106 107
ATOM    107  N   SER d   5    1127.685 321.147-1114.983  0.00  0.00    -0.344 N 
ATOM    108  C   GLU d   4    1127.457 320.594-1116.126  0.00  0.00     0.241 C 
ATOM    109  O   GLU d   4    1127.983 321.074-1117.141  0.00  0.00    -0.271 OA
ATOM    110  H   SER d   5    1127.268 320.775-1114.142  0.00  0.00     0.163 HD
BRANCH 108 111
ATOM    111  CA  GLU d   4    1126.558 319.383-1116.187  0.00  0.00     0.177 C 
BRANCH 111 112
ATOM    112  N   GLU d   4    1126.918 318.412-1115.158  0.00  0.00    -0.346 N 
ATOM    113  C   PRO d   3    1128.123 317.952-1115.126  0.00  0.00     0.241 C 
ATOM    114  O   PRO d   3    1128.946 318.335-1115.957  0.00  0.00    -0.271 OA
ATOM    115  H   GLU d   4    1126.234 318.105-1114.481  0.00  0.00     0.163 HD
BRANCH 113 116
ATOM    116  CA  PRO d   3    1128.521 316.928-1114.049  0.00  0.00     0.179 C 
ATOM    117  N   PRO d   3    1128.069 317.337-1112.727  0.00  0.00    -0.337 N 
ATOM    118  C   ASN d   2    1128.591 318.333-1112.093  0.00  0.00     0.243 C 
ATOM    119  CD  PRO d   3    1126.991 316.544-1112.178  0.00  0.00     0.127 C 
ATOM    120  O   ASN d   2    1129.505 318.963-1112.622  0.00  0.00    -0.271 OA
ATOM    121  CG  PRO d   3    1126.534 315.726-1113.388  0.00  0.00     0.022 C 
ATOM    122  CB  PRO d   3    1127.817 315.573-1114.218  0.00  0.00     0.037 C 
BRANCH 118 123
ATOM    123  CA  ASN d   2    1128.060 318.688-1110.724  0.00  0.00     0.185 C 
BRANCH 123 124
ATOM    124  N   ASN d   2    1126.600 318.727-1110.724  0.00  0.00    -0.346 N 
ATOM    125  C   GLU d   1    1125.996 319.513-1111.550  0.00  0.00     0.242 C 
ATOM    126  O   GLU d   1    1126.672 320.212-1112.318  0.00  0.00    -0.271 OA
ATOM    127  H   ASN d   2    1126.072 318.147-1110.088  0.00  0.00     0.163 HD
BRANCH 125 128
ATOM    128  CA  GLU d   1    1124.487 319.553-1111.550  0.00  0.00     0.191 C 
BRANCH 128 129
ATOM    129  N   GLU d   1    1123.928 318.204-1111.550  0.00  0.00    -0.326 NA
ATOM    130  H   GLU d   1    1124.555 317.324-1111.550  0.00  0.00     0.180 HD
ENDBRANCH 128 129
BRANCH 128 131
ATOM    131  CB  GLU d   1    1123.964 320.337-1110.312  0.00  0.00     0.047 C 
BRANCH 131 132
ATOM    132  CG  GLU d   1    1124.439 321.823-1110.202  0.00  0.00     0.116 C 
BRANCH 132 133
ATOM    133  CD  GLU d   1    1124.015 322.626-1108.986  0.00  0.00     0.172 C 
ATOM    134  OE1 GLU d   1    1123.287 322.125-1108.109  0.00  0.00    -0.648 OA
ATOM    135  OE2 GLU d   1    1124.445 323.797-1108.915  0.00  0.00    -0.648 OA
ENDBRANCH 132 133
ENDBRANCH 131 132
ENDBRANCH 128 131
ENDBRANCH 125 128
ENDBRANCH 123 124
BRANCH 123 136
ATOM    136  CB  ASN d   2    1128.552 317.665-1109.660  0.00  0.00     0.137 C 
BRANCH 136 137
ATOM    137  CG  ASN d   2    1128.089 317.889-1108.217  0.00  0.00     0.217 C 
ATOM    138  ND2 ASN d   2    1128.683 318.804-1107.499  0.00  0.00    -0.370 N 
ATOM    139 21HD ASN d   2    1128.202 318.977-1106.612  0.00  0.00     0.159 HD
ATOM    140 22HD ASN d   2    1129.385 319.376-1107.968  0.00  0.00     0.159 HD
ATOM    141  OD1 ASN d   2    1127.168 317.255-1107.723  0.00  0.00    -0.274 OA
ENDBRANCH 136 137
ENDBRANCH 123 136
ENDBRANCH 118 123
ENDBRANCH 113 116
ENDBRANCH 111 112
BRANCH 111 142
ATOM    142  CB  GLU d   4    1125.070 319.801-1116.017  0.00  0.00     0.045 C 
BRANCH 142 143
ATOM    143  CG  GLU d   4    1124.521 320.805-1117.082  0.00  0.00     0.116 C 
BRANCH 143 144
ATOM    144  CD  GLU d   4    1123.095 321.302-1116.938  0.00  0.00     0.172 C 
ATOM    145  OE1 GLU d   4    1122.369 320.903-1116.008  0.00  0.00    -0.648 OA
ATOM    146  OE2 GLU d   4    1122.705 322.131-1117.787  0.00  0.00    -0.648 OA
ENDBRANCH 143 144
ENDBRANCH 142 143
ENDBRANCH 111 142
ENDBRANCH 108 111
ENDBRANCH 106 107
BRANCH 106 147
ATOM    147  CB  SER d   5    1128.666 322.850-1113.474  0.00  0.00     0.199 C 
BRANCH 147 148
ATOM    148  OG  SER d   5    1129.398 321.971-1112.613  0.00  0.00    -0.398 OA
ATOM    149  HG  SER d   5    1128.909 321.146-1112.563  0.00  0.00     0.209 HD
ENDBRANCH 147 148
ENDBRANCH 106 147
ENDBRANCH 103 106
ENDBRANCH 101 102
BRANCH 101 150
ATOM    150  CB  ILE d   6    1132.431 319.299-1115.123  0.00  0.00     0.013 C 
ATOM    151  CG2 ILE d   6    1133.872 318.997-1115.639  0.00  0.00     0.012 C 
BRANCH 150 152
ATOM    152  CG1 ILE d   6    1132.450 319.236-1113.562  0.00  0.00     0.002 C 
ATOM    153  CD1 ILE d   6    1132.720 317.847-1112.947  0.00  0.00     0.005 C 
ENDBRANCH 150 152
ENDBRANCH 101 150
ENDBRANCH  98 101
ENDBRANCH  96  97
BRANCH  96 154
ATOM    154  CB  SER d   7    1129.592 319.021-1119.749  0.00  0.00     0.199 C 
BRANCH 154 155
ATOM    155  OG  SER d   7    1128.314 319.608-1119.480  0.00  0.00    -0.398 OA
ATOM    156  HG  SER d   7    1128.225 319.679-1118.527  0.00  0.00     0.209 HD
ENDBRANCH 154 155
ENDBRANCH  96 154
ENDBRANCH  93  96
ENDBRANCH  91  92
BRANCH  91 157
ATOM    157  CB  ASP d   8    1128.715 324.325-1119.143  0.00  0.00     0.147 C 
BRANCH 157 158
ATOM    158  CG  ASP d   8    1128.497 325.745-1119.684  0.00  0.00     0.175 C 
ATOM    159  OD1 ASP d   8    1128.562 325.944-1120.915  0.00  0.00    -0.648 OA
ATOM    160  OD2 ASP d   8    1128.305 326.671-1118.869  0.00  0.00    -0.648 OA
ENDBRANCH 157 158
ENDBRANCH  91 157
ENDBRANCH  88  91
ENDBRANCH  86  87
BRANCH  86 161
ATOM    161  CB  GLU d   9    1133.756 324.565-1117.270  0.00  0.00     0.045 C 
BRANCH 161 162
ATOM    162  CG  GLU d   9    1135.139 325.257-1117.040  0.00  0.00     0.116 C 
BRANCH 162 163
ATOM    163  CD  GLU d   9    1135.840 325.044-1115.712  0.00  0.00     0.172 C 
ATOM    164  OE1 GLU d   9    1135.318 324.353-1114.816  0.00  0.00    -0.648 OA
ATOM    165  OE2 GLU d   9    1136.959 325.581-1115.580  0.00  0.00    -0.648 OA
ENDBRANCH 162 163
ENDBRANCH 161 162
ENDBRANCH  86 161
ENDBRANCH   1  86
TORSDOF 68
