@<TRIPOS>MOLECULE
7-15
260 261 16              
SMALL
USER_CHARGES
@<TRIPOS>ATOM
1	   N	1140.581	323.912	-1129.363	N.3	1	GLU1	-0.516	
2	  CA	1141.140	325.261	-1129.363	C.3	1	GLU1	0.040	
3	   C	1142.649	325.221	-1129.363	C.2	1	GLU1	0.537	
4	   O	1143.325	325.920	-1130.132	O.2	1	GLU1	-0.582	
5	  CB	1140.617	326.046	-1128.126	C.3	1	GLU1	0.056	
6	  CG	1141.092	327.531	-1128.015	C.3	1	GLU1	0.014	
7	  CD	1140.668	328.335	-1126.800	C.2	1	GLU1	0.805	
8	 OE1	1139.940	327.833	-1125.922	O.co2	1	GLU1	-0.819	
9	 OE2	1141.098	329.505	-1126.728	O.co2	1	GLU1	-0.819	
10	   H	1141.208	323.033	-1129.363	 H	1	GLU1	0.294	
11	  HA	1140.814	325.779	-1130.283	 H	1	GLU1	0.111	
12	 2HB	1140.906	325.515	-1127.196	 H	1	GLU1	-0.017	
13	 3HB	1139.510	326.036	-1128.113	 H	1	GLU1	-0.017	
14	 2HG	1140.782	328.116	-1128.896	 H	1	GLU1	-0.043	
15	 3HG	1142.192	327.598	-1127.986	 H	1	GLU1	-0.043	
16	   N	1143.254	324.435	-1128.538	N.am	2	ASN2	-0.416	
17	  CA	1144.713	324.397	-1128.538	C.3	2	ASN2	0.014	
18	   C	1145.244	324.041	-1129.907	C.2	2	ASN2	0.597	
19	   O	1146.159	324.672	-1130.435	O.2	2	ASN2	-0.568	
20	  CB	1145.205	323.374	-1127.474	C.3	2	ASN2	-0.204	
21	  CG	1144.742	323.598	-1126.030	C.2	2	ASN2	0.713	
22	 ND2	1145.336	324.512	-1125.312	N.pl3	2	ASN2	-0.919	
23	 OD1	1143.822	322.964	-1125.536	O.2	2	ASN2	-0.593	
24	   H	1142.726	323.856	-1127.901	 H	2	ASN2	0.272	
25	  HA	1145.090	325.407	-1128.292	 H	2	ASN2	0.105	
26	 2HB	1146.310	323.315	-1127.477	 H	2	ASN2	0.080	
27	 3HB	1144.876	322.356	-1127.759	 H	2	ASN2	0.080	
28	1HD2	1144.856	324.685	-1124.426	 H	2	ASN2	0.420	
29	2HD2	1146.038	325.084	-1125.781	 H	2	ASN2	0.420	
30	   N	1144.723	323.046	-1130.541	N.am	3	PRO3	-0.255	
31	  CA	1145.175	322.637	-1131.862	C.3	3	PRO3	-0.027	
32	   C	1144.776	323.660	-1132.939	C.2	3	PRO3	0.590	
33	   O	1145.600	324.043	-1133.771	O.2	3	PRO3	-0.575	
34	  CB	1144.470	321.282	-1132.031	C.3	3	PRO3	-0.007	
35	  CG	1143.187	321.434	-1131.201	C.3	3	PRO3	0.019	
36	  CD	1143.645	322.253	-1129.992	C.3	3	PRO3	0.019	
37	  HA	1146.260	322.517	-1131.876	 H	3	PRO3	0.064	
38	 2HB	1145.093	320.501	-1131.591	 H	3	PRO3	0.025	
39	 3HB	1144.272	321.033	-1133.077	 H	3	PRO3	0.025	
40	 2HG	1142.760	320.472	-1130.910	 H	3	PRO3	0.021	
41	 3HG	1142.450	322.005	-1131.769	 H	3	PRO3	0.021	
42	 2HD	1144.034	321.603	-1129.204	 H	3	PRO3	0.039	
43	 3HD	1142.848	322.889	-1129.598	 H	3	PRO3	0.039	
44	   N	1143.572	324.120	-1132.971	N.am	4	GLU4	-0.516	
45	  CA	1143.212	325.091	-1134.001	C.3	4	GLU4	0.040	
46	   C	1144.111	326.302	-1133.940	C.2	4	GLU4	0.537	
47	   O	1144.637	326.782	-1134.954	O.2	4	GLU4	-0.582	
48	  CB	1141.723	325.510	-1133.830	C.3	4	GLU4	0.056	
49	  CG	1141.175	326.513	-1134.896	C.3	4	GLU4	0.014	
50	  CD	1139.748	327.010	-1134.752	C.2	4	GLU4	0.805	
51	 OE1	1139.022	326.612	-1133.821	O.co2	4	GLU4	-0.819	
52	 OE2	1139.359	327.839	-1135.600	O.co2	4	GLU4	-0.819	
53	   H	1142.888	323.813	-1132.295	 H	4	GLU4	0.294	
54	  HA	1143.343	324.621	-1134.992	 H	4	GLU4	0.111	
55	 2HB	1141.571	325.950	-1132.823	 H	4	GLU4	-0.017	
56	 3HB	1141.076	324.612	-1133.836	 H	4	GLU4	-0.017	
57	 2HG	1141.256	326.099	-1135.914	 H	4	GLU4	-0.043	
58	 3HG	1141.763	327.446	-1134.907	 H	4	GLU4	-0.043	
59	   N	1144.338	326.855	-1132.797	N.am	5	SER5	-0.416	
60	  CA	1145.208	328.027	-1132.738	C.3	5	SER5	-0.025	
61	   C	1146.566	327.721	-1133.324	C.2	5	SER5	0.597	
62	   O	1147.113	328.475	-1134.129	O.2	5	SER5	-0.568	
63	  CB	1145.319	328.559	-1131.287	C.3	5	SER5	0.212	
64	  OG	1146.051	327.679	-1130.427	O.3	5	SER5	-0.655	
65	   H	1143.921	326.484	-1131.955	 H	5	SER5	0.272	
66	  HA	1144.758	328.817	-1133.367	 H	5	SER5	0.084	
67	 2HB	1144.320	328.752	-1130.854	 H	5	SER5	0.035	
68	 3HB	1145.825	329.544	-1131.290	 H	5	SER5	0.035	
69	  HG	1145.562	326.854	-1130.376	 H	5	SER5	0.428	
70	   N	1147.171	326.638	-1132.970	N.am	6	ILE6	-0.416	
71	  CA	1148.484	326.343	-1133.536	C.3	6	ILE6	-0.060	
72	   C	1148.427	326.306	-1135.044	C.2	6	ILE6	0.597	
73	   O	1149.262	326.894	-1135.748	O.2	6	ILE6	-0.568	
74	  CB	1149.084	325.007	-1132.937	C.3	6	ILE6	0.130	
75	 CG1	1149.104	324.945	-1131.376	C.3	6	ILE6	-0.043	
76	 CG2	1150.526	324.706	-1133.452	C.3	6	ILE6	-0.320	
77	 CD1	1149.374	323.556	-1130.761	C.3	6	ILE6	-0.066	
78	   H	1146.743	326.004	-1132.311	 H	6	ILE6	0.272	
79	  HA	1149.158	327.178	-1133.269	 H	6	ILE6	0.087	
80	  HB	1148.426	324.181	-1133.281	 H	6	ILE6	0.019	
81	2HG1	1148.122	325.265	-1130.980	 H	6	ILE6	0.024	
82	3HG1	1149.820	325.687	-1130.971	 H	6	ILE6	0.024	
83	1HG2	1150.584	324.612	-1134.550	 H	6	ILE6	0.088	
84	2HG2	1151.248	325.488	-1133.150	 H	6	ILE6	0.088	
85	3HG2	1150.916	323.743	-1133.073	 H	6	ILE6	0.088	
86	1HD1	1148.646	322.801	-1131.116	 H	6	ILE6	0.019	
87	2HD1	1150.385	323.177	-1130.997	 H	6	ILE6	0.019	
88	3HD1	1149.298	323.585	-1129.658	 H	6	ILE6	0.019	
89	   N	1147.481	325.643	-1135.618	N.am	7	ASN7	-0.416	
90	  CA	1147.426	325.607	-1137.076	C.3	7	ASN7	0.014	
91	   C	1147.353	327.002	-1137.649	C.2	7	ASN7	0.597	
92	   O	1148.068	327.362	-1138.584	O.2	7	ASN7	-0.568	
93	  CB	1146.200	324.761	-1137.528	C.3	7	ASN7	-0.204	
94	  CG	1146.128	323.317	-1137.021	C.2	7	ASN7	0.713	
95	 ND2	1146.868	322.409	-1137.597	N.pl3	7	ASN7	-0.919	
96	 OD1	1145.417	322.993	-1136.081	O.2	7	ASN7	-0.593	
97	   H	1146.789	325.155	-1135.067	 H	7	ASN7	0.272	
98	  HA	1148.359	325.147	-1137.451	 H	7	ASN7	0.105	
99	 2HB	1146.130	324.744	-1138.632	 H	7	ASN7	0.080	
100	 3HB	1145.266	325.260	-1137.203	 H	7	ASN7	0.080	
101	1HD2	1146.861	321.521	-1137.089	 H	7	ASN7	0.420	
102	2HD2	1147.516	322.729	-1138.316	 H	7	ASN7	0.420	
103	   N	1146.516	327.843	-1137.142	N.am	8	ASP8	-0.516	
104	  CA	1146.445	329.193	-1137.696	C.3	8	ASP8	0.038	
105	   C	1147.792	329.872	-1137.639	C.2	8	ASP8	0.537	
106	   O	1148.265	330.477	-1138.614	O.2	8	ASP8	-0.582	
107	  CB	1145.368	330.032	-1136.954	C.3	8	ASP8	-0.030	
108	  CG	1145.148	331.452	-1137.494	C.2	8	ASP8	0.799	
109	 OD1	1145.212	331.651	-1138.725	O.co2	8	ASP8	-0.801	
110	 OD2	1144.956	332.378	-1136.679	O.co2	8	ASP8	-0.801	
111	   H	1145.918	327.572	-1136.375	 H	8	ASP8	0.294	
112	  HA	1146.162	329.115	-1138.763	 H	8	ASP8	0.088	
113	 2HB	1145.625	330.115	-1135.882	 H	8	ASP8	-0.012	
114	 3HB	1144.388	329.526	-1136.986	 H	8	ASP8	-0.012	
115	   N	1148.472	329.823	-1136.544	N.am	9	GLU9	-0.516	
116	  CA	1149.775	330.480	-1136.489	C.3	9	GLU9	0.040	
117	   C	1150.693	329.952	-1137.565	C.2	9	GLU9	0.537	
118	   O	1151.356	330.706	-1138.290	O.2	9	GLU9	-0.582	
119	  CB	1150.408	330.272	-1135.084	C.3	9	GLU9	0.056	
120	  CG	1151.791	330.964	-1134.854	C.3	9	GLU9	0.014	
121	  CD	1152.493	330.751	-1133.526	C.2	9	GLU9	0.805	
122	 OE1	1151.972	330.060	-1132.630	O.co2	9	GLU9	-0.819	
123	 OE2	1153.612	331.289	-1133.395	O.co2	9	GLU9	-0.819	
124	   H	1148.109	329.336	-1135.737	 H	9	GLU9	0.294	
125	  HA	1149.633	331.562	-1136.664	 H	9	GLU9	0.111	
126	 2HB	1150.521	329.188	-1134.880	 H	9	GLU9	-0.017	
127	 3HB	1149.712	330.626	-1134.299	 H	9	GLU9	-0.017	
128	 2HG	1151.719	332.055	-1134.994	 H	9	GLU9	-0.043	
129	 3HG	1152.538	330.619	-1135.589	 H	9	GLU9	-0.043	
130	   N	1150.789	328.677	-1137.734	N.am	10	HIS10	-0.416	
131	  CA	1151.677	328.165	-1138.775	C.3	10	HIS10	-0.058	
132	   C	1151.310	328.730	-1140.126	C.2	10	HIS10	0.597	
133	   O	1152.162	329.195	-1140.898	O.2	10	HIS10	-0.568	
134	  CB	1151.513	326.637	-1138.770	C.3	10	HIS10	-0.007	
135	  CG	1152.798	325.926	-1138.462	C.2	10	HIS10	0.187	
136	 CD2	1153.179	325.591	-1137.169	C.2	10	HIS10	-0.221	
137	 ND1	1153.750	325.520	-1139.394	N.2	10	HIS10	-0.543	
138	 CE1	1154.657	324.962	-1138.571	C.2	10	HIS10	0.163	
139	 NE2	1154.394	324.959	-1137.236	N.pl3	10	HIS10	-0.280	
140	   H	1150.258	328.042	-1137.156	 H	10	HIS10	0.272	
141	  HA	1152.696	328.523	-1138.550	 H	10	HIS10	0.136	
142	 2HB	1151.147	326.269	-1139.749	 H	10	HIS10	0.037	
143	 3HB	1150.757	326.299	-1138.029	 H	10	HIS10	0.037	
144	 2HD	1152.594	325.806	-1136.280	 H	10	HIS10	0.186	
145	 1HE	1155.547	324.541	-1139.018	 H	10	HIS10	0.144	
146	 2HE	1154.961	324.582	-1136.463	 H	10	HIS10	0.334	
147	   N	1150.072	328.729	-1140.489	N.am	11	VAL11	-0.416	
148	  CA	1149.717	329.275	-1141.795	C.3	11	VAL11	-0.087	
149	   C	1150.181	330.705	-1141.928	C.2	11	VAL11	0.597	
150	   O	1150.782	331.111	-1142.931	O.2	11	VAL11	-0.568	
151	  CB	1148.155	329.168	-1142.015	C.3	11	VAL11	0.299	
152	 CG1	1147.587	329.872	-1143.277	C.3	11	VAL11	-0.319	
153	 CG2	1147.631	327.714	-1142.088	C.3	11	VAL11	-0.319	
154	   H	1149.359	328.356	-1139.878	 H	11	VAL11	0.272	
155	  HA	1150.236	328.692	-1142.578	 H	11	VAL11	0.097	
156	  HB	1147.668	329.648	-1141.139	 H	11	VAL11	-0.030	
157	1HG1	1148.025	329.480	-1144.214	 H	11	VAL11	0.079	
158	2HG1	1146.488	329.765	-1143.359	 H	11	VAL11	0.079	
159	3HG1	1147.765	330.965	-1143.268	 H	11	VAL11	0.079	
160	1HG2	1147.921	327.127	-1141.197	 H	11	VAL11	0.079	
161	2HG2	1146.525	327.677	-1142.130	 H	11	VAL11	0.079	
162	3HG2	1148.012	327.173	-1142.974	 H	11	VAL11	0.079	
163	   N	1149.944	331.531	-1140.965	N.am	12	GLN12	-0.416	
164	  CA	1150.393	332.914	-1141.092	C.3	12	GLN12	-0.003	
165	   C	1151.883	332.981	-1141.330	C.2	12	GLN12	0.597	
166	   O	1152.370	333.689	-1142.208	O.2	12	GLN12	-0.568	
167	  CB	1150.002	333.681	-1139.809	C.3	12	GLN12	-0.004	
168	  CG	1150.362	335.203	-1139.778	C.3	12	GLN12	-0.064	
169	  CD	1150.060	336.016	-1138.513	C.2	12	GLN12	0.695	
170	 NE2	1149.493	335.440	-1137.484	N.pl3	12	GLN12	-0.941	
171	 OE1	1150.362	337.197	-1138.435	O.2	12	GLN12	-0.609	
172	   H	1149.455	331.225	-1140.136	 H	12	GLN12	0.272	
173	  HA	1149.893	333.370	-1141.967	 H	12	GLN12	0.085	
174	 2HB	1150.478	333.181	-1138.940	 H	12	GLN12	0.017	
175	 3HB	1148.912	333.574	-1139.646	 H	12	GLN12	0.017	
176	 2HG	1149.885	335.724	-1140.628	 H	12	GLN12	0.035	
177	 3HG	1151.446	335.345	-1139.944	 H	12	GLN12	0.035	
178	1HE2	1149.386	336.034	-1136.660	 H	12	GLN12	0.425	
179	2HE2	1149.330	334.436	-1137.588	 H	12	GLN12	0.425	
180	   N	1152.667	332.274	-1140.589	N.am	13	ARG13	-0.348	
181	  CA	1154.107	332.340	-1140.820	C.3	13	ARG13	-0.264	
182	   C	1154.443	331.968	-1142.245	C.2	13	ARG13	0.734	
183	   O	1155.212	332.640	-1142.929	O.2	13	ARG13	-0.589	
184	  CB	1154.821	331.400	-1139.806	C.3	13	ARG13	-0.001	
185	  CG	1156.365	331.553	-1139.725	C.3	13	ARG13	0.039	
186	  CD	1156.992	330.565	-1138.728	C.3	13	ARG13	0.049	
187	  NE	1158.469	330.772	-1138.677	N.pl3	13	ARG13	-0.530	
188	  CZ	1159.317	330.080	-1137.922	C.cat	13	ARG13	0.808	
189	 NH1	1158.952	329.116	-1137.125	N.pl3	13	ARG13	-0.863	
190	 NH2	1160.577	330.379	-1137.979	N.pl3	13	ARG13	-0.863	
191	   H	1152.291	331.684	-1139.861	 H	13	ARG13	0.275	
192	  HA	1154.432	333.385	-1140.661	 H	13	ARG13	0.156	
193	 2HB	1154.554	330.350	-1140.046	 H	13	ARG13	0.033	
194	 3HB	1154.395	331.567	-1138.796	 H	13	ARG13	0.033	
195	 2HG	1156.614	332.598	-1139.446	 H	13	ARG13	0.029	
196	 3HG	1156.816	331.397	-1140.727	 H	13	ARG13	0.029	
197	 2HD	1156.748	329.525	-1139.037	 H	13	ARG13	0.069	
198	 3HD	1156.536	330.711	-1137.725	 H	13	ARG13	0.069	
199	  HE	1158.921	331.494	-1139.248	 H	13	ARG13	0.346	
200	1HH1	1157.947	328.930	-1137.128	 H	13	ARG13	0.448	
201	2HH1	1159.665	328.633	-1136.576	 H	13	ARG13	0.448	
202	1HH2	1160.845	331.137	-1138.610	 H	13	ARG13	0.448	
203	2HH2	1161.212	329.838	-1137.391	 H	13	ARG13	0.448	
204	   N	1153.907	330.914	-1142.760	N.am	14	VAL14	-0.416	
205	  CA	1154.232	330.555	-1144.138	C.3	14	VAL14	-0.087	
206	   C	1153.902	331.686	-1145.083	C.2	14	VAL14	0.597	
207	   O	1154.696	332.068	-1145.952	O.2	14	VAL14	-0.568	
208	  CB	1153.460	329.239	-1144.545	C.3	14	VAL14	0.299	
209	 CG1	1153.549	328.821	-1146.039	C.3	14	VAL14	-0.319	
210	 CG2	1153.892	327.986	-1143.745	C.3	14	VAL14	-0.319	
211	   H	1153.272	330.345	-1142.218	 H	14	VAL14	0.272	
212	  HA	1155.321	330.379	-1144.212	 H	14	VAL14	0.097	
213	  HB	1152.383	329.410	-1144.329	 H	14	VAL14	-0.030	
214	1HG1	1154.590	328.644	-1146.368	 H	14	VAL14	0.079	
215	2HG1	1152.976	327.898	-1146.252	 H	14	VAL14	0.079	
216	3HG1	1153.120	329.584	-1146.717	 H	14	VAL14	0.079	
217	1HG2	1153.804	328.144	-1142.655	 H	14	VAL14	0.079	
218	2HG2	1153.256	327.110	-1143.978	 H	14	VAL14	0.079	
219	3HG2	1154.939	327.696	-1143.951	 H	14	VAL14	0.079	
220	   N	1152.758	332.272	-1144.981	N.am	15	MET15	-0.416	
221	  CA	1152.437	333.365	-1145.894	C.3	15	MET15	-0.024	
222	   C	1153.468	334.465	-1145.805	C.2	15	MET15	0.597	
223	   O	1153.970	334.976	-1146.818	O.2	15	MET15	-0.568	
224	  CB	1151.016	333.911	-1145.585	C.3	15	MET15	0.034	
225	  CG	1149.854	332.913	-1145.777	C.3	15	MET15	0.002	
226	  SD	1148.280	333.779	-1145.662	S.3	15	MET15	-0.274	
227	  CE	1147.199	332.349	-1145.527	C.3	15	MET15	-0.054	
228	   H	1152.093	331.979	-1144.279	 H	15	MET15	0.272	
229	  HA	1152.463	332.978	-1146.930	 H	15	MET15	0.088	
230	 2HB	1150.814	334.790	-1146.226	 H	15	MET15	0.024	
231	 3HB	1150.980	334.303	-1144.548	 H	15	MET15	0.024	
232	 2HG	1149.897	332.126	-1145.000	 H	15	MET15	0.044	
233	 3HG	1149.917	332.398	-1146.754	 H	15	MET15	0.044	
234	 1HE	1147.342	331.661	-1146.379	 H	15	MET15	0.068	
235	 2HE	1147.408	331.796	-1144.594	 H	15	MET15	0.068	
236	 3HE	1146.141	332.664	-1145.510	 H	15	MET15	0.068	
237	   N	1153.836	334.885	-1144.643	N.am	16	ARG16	-0.348	
238	  CA	1154.833	335.949	-1144.558	C.3	16	ARG16	-0.264	
239	   C	1156.104	335.557	-1145.275	C.2	16	ARG16	0.734	
240	   O	1156.217	334.481	-1145.857	O.2	16	ARG16	-0.589	
241	  CB	1155.102	336.266	-1143.060	C.3	16	ARG16	-0.001	
242	  CG	1155.927	337.555	-1142.786	C.3	16	ARG16	0.039	
243	  CD	1156.177	337.773	-1141.285	C.3	16	ARG16	0.049	
244	  NE	1156.953	339.032	-1141.083	N.pl3	16	ARG16	-0.530	
245	  CZ	1157.344	339.514	-1139.907	C.cat	16	ARG16	0.808	
246	 NH1	1157.097	338.929	-1138.769	N.pl3	16	ARG16	-0.863	
247	 NH2	1158.008	340.626	-1139.888	N.pl3	16	ARG16	-0.863	
248	   H	1153.442	334.484	-1143.804	 H	16	ARG16	0.275	
249	  HA	1154.424	336.842	-1145.068	 H	16	ARG16	0.156	
250	 2HB	1155.599	335.390	-1142.594	 H	16	ARG16	0.033	
251	 3HB	1154.133	336.347	-1142.526	 H	16	ARG16	0.033	
252	 2HG	1155.397	338.426	-1143.223	 H	16	ARG16	0.029	
253	 3HG	1156.901	337.502	-1143.315	 H	16	ARG16	0.029	
254	 2HD	1156.725	336.898	-1140.872	 H	16	ARG16	0.069	
255	 3HD	1155.204	337.816	-1140.750	 H	16	ARG16	0.069	
256	  HE	1157.231	339.614	-1141.880	 H	16	ARG16	0.346	
257	1HH1	1156.571	338.056	-1138.854	 H	16	ARG16	0.448	
258	2HH1	1157.431	339.364	-1137.908	 H	16	ARG16	0.448	
259	1HH2	1158.194	341.070	-1140.790	 H	16	ARG16	0.448	
260	2HH2	1158.298	340.981	-1138.975	 H	16	ARG16	0.448	
@<TRIPOS>BOND
1 1 2 1
2 1 10 1
3 2 3 1
4 2 5 1
5 2 11 1
6 3 4 2
7 3 16 1
8 5 6 1
9 6 7 1
10 7 8 2
11 7 9 1
12 5 12 1
13 5 13 1
14 6 14 1
15 6 15 1
16 16 17 1
17 16 24 1
18 17 18 1
19 17 20 1
20 17 25 1
21 18 19 2
22 18 30 1
23 20 21 1
24 21 22 1
25 21 23 2
26 20 26 1
27 20 27 1
28 22 28 1
29 22 29 1
30 30 31 1
31 30 36 1
32 31 32 1
33 31 34 1
34 31 37 1
35 32 33 2
36 32 44 1
37 34 35 1
38 35 36 1
39 34 38 1
40 34 39 1
41 35 40 1
42 35 41 1
43 36 42 1
44 36 43 1
45 44 45 1
46 44 53 1
47 45 46 1
48 45 48 1
49 45 54 1
50 46 47 2
51 46 59 1
52 48 49 1
53 49 50 1
54 50 51 2
55 50 52 1
56 48 55 1
57 48 56 1
58 49 57 1
59 49 58 1
60 59 60 1
61 59 65 1
62 60 61 1
63 60 63 1
64 60 66 1
65 61 62 2
66 61 70 1
67 63 64 1
68 63 67 1
69 63 68 1
70 64 69 1
71 70 71 1
72 70 78 1
73 71 72 1
74 71 74 1
75 71 79 1
76 72 73 2
77 72 89 1
78 74 75 1
79 74 76 1
80 75 77 1
81 74 80 1
82 75 81 1
83 75 82 1
84 76 83 1
85 76 84 1
86 76 85 1
87 77 86 1
88 77 87 1
89 77 88 1
90 89 90 1
91 89 97 1
92 90 91 1
93 90 93 1
94 90 98 1
95 91 92 2
96 91 103 1
97 93 94 1
98 94 95 1
99 94 96 2
100 93 99 1
101 93 100 1
102 95 101 1
103 95 102 1
104 103 104 1
105 103 111 1
106 104 105 1
107 104 107 1
108 104 112 1
109 105 106 2
110 105 115 1
111 107 108 1
112 108 109 2
113 108 110 1
114 107 113 1
115 107 114 1
116 115 116 1
117 115 124 1
118 116 117 1
119 116 119 1
120 116 125 1
121 117 118 2
122 117 130 1
123 119 120 1
124 120 121 1
125 121 122 2
126 121 123 1
127 119 126 1
128 119 127 1
129 120 128 1
130 120 129 1
131 130 131 1
132 130 140 1
133 131 132 1
134 131 134 1
135 131 141 1
136 132 133 2
137 132 147 1
138 134 135 1
139 135 136 2
140 136 139 1
141 135 137 1
142 137 138 2
143 138 139 1
144 134 142 1
145 134 143 1
146 136 144 1
147 138 145 1
148 139 146 1
149 147 148 1
150 147 154 1
151 148 149 1
152 148 151 1
153 148 155 1
154 149 150 2
155 149 163 1
156 151 152 1
157 151 153 1
158 151 156 1
159 152 157 1
160 152 158 1
161 152 159 1
162 153 160 1
163 153 161 1
164 153 162 1
165 163 164 1
166 163 172 1
167 164 165 1
168 164 167 1
169 164 173 1
170 165 166 2
171 165 180 1
172 167 168 1
173 168 169 1
174 169 170 1
175 169 171 2
176 167 174 1
177 167 175 1
178 168 176 1
179 168 177 1
180 170 178 1
181 170 179 1
182 180 181 1
183 180 191 1
184 181 182 1
185 181 184 1
186 181 192 1
187 182 183 2
188 182 204 1
189 184 185 1
190 185 186 1
191 186 187 1
192 187 188 1
193 188 189 2
194 188 190 1
195 184 193 1
196 184 194 1
197 185 195 1
198 185 196 1
199 186 197 1
200 186 198 1
201 187 199 1
202 189 200 1
203 189 201 1
204 190 202 1
205 190 203 1
206 204 205 1
207 204 211 1
208 205 206 1
209 205 208 1
210 205 212 1
211 206 207 2
212 206 220 1
213 208 209 1
214 208 210 1
215 208 213 1
216 209 214 1
217 209 215 1
218 209 216 1
219 210 217 1
220 210 218 1
221 210 219 1
222 220 221 1
223 220 228 1
224 221 222 1
225 221 224 1
226 221 229 1
227 222 223 2
228 222 237 1
229 224 225 1
230 225 226 1
231 226 227 1
232 224 230 1
233 224 231 1
234 225 232 1
235 225 233 1
236 227 234 1
237 227 235 1
238 227 236 1
239 237 238 1
240 237 248 1
241 238 239 1
242 238 241 1
243 238 249 1
244 239 240 2
245 241 242 1
246 242 243 1
247 243 244 1
248 244 245 1
249 245 246 2
250 245 247 1
251 241 250 1
252 241 251 1
253 242 252 1
254 242 253 1
255 243 254 1
256 243 255 1
257 244 256 1
258 246 257 1
259 246 258 1
260 247 259 1
261 247 260 1
@<TRIPOS>SUBSTRUCTURE
1	GLU1	1	RESIDUE	1 ****	GLU
2	ASN2	16	RESIDUE	1 ****	ASN
3	PRO3	30	RESIDUE	1 ****	PRO
4	GLU4	44	RESIDUE	1 ****	GLU
5	SER5	59	RESIDUE	1 ****	SER
6	ILE6	70	RESIDUE	1 ****	ILE
7	ASN7	89	RESIDUE	1 ****	ASN
8	ASP8	103	RESIDUE	1 ****	ASP
9	GLU9	115	RESIDUE	1 ****	GLU
10	HIS10	130	RESIDUE	1 ****	HIS
11	VAL11	147	RESIDUE	1 ****	VAL
12	GLN12	163	RESIDUE	1 ****	GLN
13	ARG13	180	RESIDUE	1 ****	ARG
14	VAL14	204	RESIDUE	1 ****	VAL
15	MET15	220	RESIDUE	1 ****	MET
16	ARG16	237	RESIDUE	1 ****	ARG
