REMARK WARNING: 32 MAX_TORS EXCEEDED!!!
REMARK  66 active torsions:
REMARK  status: ('A' for Active; 'I' for Inactive)
REMARK    1  A    between atoms: N_1  and  CA_2 
REMARK    2  A    between atoms: CA_2  and  C_3 
REMARK    3  A    between atoms: CA_2  and  CB_5 
REMARK       I    between atoms: C_3  and  N_11 
REMARK    4  A    between atoms: CB_5  and  CG_6 
REMARK    5  A    between atoms: CG_6  and  CD_7 
REMARK    6  A    between atoms: N_11  and  CA_12 
REMARK    7  A    between atoms: CA_12  and  C_13 
REMARK    8  A    between atoms: CA_12  and  CB_15 
REMARK       I    between atoms: C_13  and  N_22 
REMARK    9  A    between atoms: CB_15  and  CG_16 
REMARK       I    between atoms: CG_16  and  ND2_17 
REMARK   10  A    between atoms: CA_23  and  C_24 
REMARK       I    between atoms: C_24  and  N_29 
REMARK   11  A    between atoms: N_29  and  CA_30 
REMARK   12  A    between atoms: CA_30  and  C_31 
REMARK   13  A    between atoms: CA_30  and  CB_33 
REMARK       I    between atoms: C_31  and  N_39 
REMARK   14  A    between atoms: CB_33  and  CG_34 
REMARK   15  A    between atoms: CG_34  and  CD_35 
REMARK   16  A    between atoms: N_39  and  CA_40 
REMARK   17  A    between atoms: CA_40  and  C_41 
REMARK   18  A    between atoms: CA_40  and  CB_43 
REMARK       I    between atoms: C_41  and  N_47 
REMARK   19  A    between atoms: CB_43  and  OG_44 
REMARK   20  A    between atoms: N_47  and  CA_48 
REMARK   21  A    between atoms: CA_48  and  C_49 
REMARK   22  A    between atoms: CA_48  and  CB_51 
REMARK       I    between atoms: C_49  and  N_56 
REMARK   23  A    between atoms: CB_51  and  CG1_52 
REMARK   24  A    between atoms: N_56  and  CA_57 
REMARK   25  A    between atoms: CA_57  and  C_58 
REMARK   26  A    between atoms: CA_57  and  CB_60 
REMARK       I    between atoms: C_58  and  N_65 
REMARK   27  A    between atoms: CB_60  and  CG_61 
REMARK   28  A    between atoms: N_65  and  CA_66 
REMARK   29  A    between atoms: CA_66  and  C_67 
REMARK   30  A    between atoms: CA_66  and  CB_69 
REMARK       I    between atoms: C_67  and  N_74 
REMARK   31  A    between atoms: CB_69  and  CG_70 
REMARK   32  A    between atoms: N_74  and  CA_75 
REMARK   33  A    between atoms: CA_75  and  C_76 
REMARK   34  A    between atoms: CA_75  and  CB_78 
REMARK       I    between atoms: C_76  and  N_84 
REMARK   35  A    between atoms: CB_78  and  CG_79 
REMARK   36  A    between atoms: CG_79  and  CD_80 
REMARK   37  A    between atoms: N_84  and  CA_85 
REMARK   38  A    between atoms: CA_85  and  C_86 
REMARK       I    between atoms: C_86  and  N_90 
REMARK   39  A    between atoms: N_90  and  CA_91 
REMARK   40  A    between atoms: CA_91  and  C_92 
REMARK   41  A    between atoms: CA_91  and  CB_94 
REMARK       I    between atoms: C_92  and  N_98 
REMARK   42  A    between atoms: N_98  and  CA_99 
REMARK   43  A    between atoms: CA_99  and  C_100 
REMARK   44  A    between atoms: CA_99  and  CB_102 
REMARK       I    between atoms: C_100  and  N_110 
REMARK   45  A    between atoms: CB_102  and  CG_103 
REMARK   46  A    between atoms: CG_103  and  CD_104 
REMARK       I    between atoms: CD_104  and  NE2_105 
REMARK   47  A    between atoms: N_110  and  CA_111 
REMARK   48  A    between atoms: CA_111  and  C_112 
REMARK   49  A    between atoms: CA_111  and  CB_114 
REMARK       I    between atoms: C_112  and  N_127 
REMARK   50  A    between atoms: CB_114  and  CG_115 
REMARK   51  A    between atoms: CG_115  and  CD_116 
REMARK   52  A    between atoms: CD_116  and  NE_117 
REMARK       I    between atoms: NE_117  and  CZ_118 
REMARK       I    between atoms: CZ_118  and  NH1_119 
REMARK       I    between atoms: CZ_118  and  NH2_120 
REMARK   53  A    between atoms: N_127  and  CA_128 
REMARK   54  A    between atoms: CA_128  and  C_129 
REMARK   55  A    between atoms: CA_128  and  CB_131 
REMARK       I    between atoms: C_129  and  N_135 
REMARK   56  A    between atoms: N_135  and  CA_136 
REMARK   57  A    between atoms: CA_136  and  C_137 
REMARK   58  A    between atoms: CA_136  and  CB_139 
REMARK       I    between atoms: C_137  and  N_144 
REMARK   59  A    between atoms: CB_139  and  CG_140 
REMARK   60  A    between atoms: CG_140  and  SD_141 
REMARK   61  A    between atoms: N_144  and  CA_145 
REMARK   62  A    between atoms: CA_145  and  C_146 
REMARK   63  A    between atoms: CA_145  and  CB_148 
REMARK   64  A    between atoms: CB_148  and  CG_149 
REMARK   65  A    between atoms: CG_149  and  CD_150 
REMARK   66  A    between atoms: CD_150  and  NE_151 
REMARK       I    between atoms: NE_151  and  CZ_152 
REMARK       I    between atoms: CZ_152  and  NH1_153 
ROOT
ATOM      1  CA  GLU d   9    1526.887 454.781-1544.439  0.00  0.00     0.177 C 
ENDROOT
BRANCH   1   2
ATOM      2  N   GLU d   9    1525.585 454.123-1544.494  0.00  0.00    -0.346 N 
ATOM      3  C   ASP d   8    1524.905 454.173-1545.589  0.00  0.00     0.241 C 
ATOM      4  O   ASP d   8    1525.378 454.779-1546.564  0.00  0.00    -0.271 OA
ATOM      5  H   GLU d   9    1525.222 453.637-1543.687  0.00  0.00     0.163 HD
BRANCH   3   6
ATOM      6  CA  ASP d   8    1523.558 453.493-1545.647  0.00  0.00     0.186 C 
BRANCH   6   7
ATOM      7  N   ASP d   8    1523.629 452.144-1545.094  0.00  0.00    -0.346 N 
ATOM      8  C   LEU d   7    1524.466 451.303-1545.600  0.00  0.00     0.241 C 
ATOM      9  O   LEU d   7    1525.187 451.666-1546.542  0.00  0.00    -0.271 OA
ATOM     10  H   ASP d   8    1523.031 451.872-1544.326  0.00  0.00     0.163 HD
BRANCH   8  11
ATOM     11  CA  LEU d   7    1524.539 449.908-1545.028  0.00  0.00     0.177 C 
BRANCH  11  12
ATOM     12  N   LEU d   7    1524.594 449.944-1543.569  0.00  0.00    -0.346 N 
ATOM     13  C   ILE d   6    1525.540 450.607-1542.996  0.00  0.00     0.241 C 
ATOM     14  O   ILE d   6    1526.374 451.195-1543.700  0.00  0.00    -0.271 OA
ATOM     15  H   LEU d   7    1523.902 449.456-1543.018  0.00  0.00     0.163 HD
BRANCH  13  16
ATOM     16  CA  ILE d   6    1525.597 450.645-1541.488  0.00  0.00     0.180 C 
BRANCH  16  17
ATOM     17  N   ILE d   6    1524.284 450.939-1540.922  0.00  0.00    -0.346 N 
ATOM     18  C   SER d   5    1523.679 452.022-1541.276  0.00  0.00     0.243 C 
ATOM     19  O   SER d   5    1524.226 452.776-1542.080  0.00  0.00    -0.271 OA
ATOM     20  H   ILE d   6    1523.856 450.305-1540.263  0.00  0.00     0.163 HD
BRANCH  18  21
ATOM     21  CA  SER d   5    1522.320 452.328-1540.690  0.00  0.00     0.200 C 
BRANCH  21  22
ATOM     22  N   SER d   5    1521.451 451.156-1540.748  0.00  0.00    -0.344 N 
ATOM     23  C   GLU d   4    1521.223 450.604-1541.891  0.00  0.00     0.241 C 
ATOM     24  O   GLU d   4    1521.750 451.083-1542.906  0.00  0.00    -0.271 OA
ATOM     25  H   SER d   5    1521.034 450.785-1539.907  0.00  0.00     0.163 HD
BRANCH  23  26
ATOM     26  CA  GLU d   4    1520.324 449.392-1541.953  0.00  0.00     0.177 C 
BRANCH  26  27
ATOM     27  N   GLU d   4    1520.684 448.421-1540.923  0.00  0.00    -0.346 N 
ATOM     28  C   PRO d   3    1521.889 447.961-1540.891  0.00  0.00     0.241 C 
ATOM     29  O   PRO d   3    1522.712 448.344-1541.722  0.00  0.00    -0.271 OA
ATOM     30  H   GLU d   4    1520.000 448.115-1540.246  0.00  0.00     0.163 HD
BRANCH  28  31
ATOM     31  CA  PRO d   3    1522.287 446.938-1539.814  0.00  0.00     0.179 C 
ATOM     32  N   PRO d   3    1521.836 447.347-1538.492  0.00  0.00    -0.337 N 
ATOM     33  C   ASN d   2    1522.357 448.342-1537.858  0.00  0.00     0.243 C 
ATOM     34  CD  PRO d   3    1520.758 446.554-1537.943  0.00  0.00     0.127 C 
ATOM     35  O   ASN d   2    1523.272 448.973-1538.387  0.00  0.00    -0.271 OA
ATOM     36  CG  PRO d   3    1520.300 445.735-1539.153  0.00  0.00     0.022 C 
ATOM     37  CB  PRO d   3    1521.583 445.583-1539.983  0.00  0.00     0.037 C 
BRANCH  33  38
ATOM     38  CA  ASN d   2    1521.826 448.698-1536.490  0.00  0.00     0.185 C 
BRANCH  38  39
ATOM     39  N   ASN d   2    1520.367 448.736-1536.490  0.00  0.00    -0.346 N 
ATOM     40  C   GLU d   1    1519.762 449.522-1537.315  0.00  0.00     0.242 C 
ATOM     41  O   GLU d   1    1520.438 450.221-1538.083  0.00  0.00    -0.271 OA
ATOM     42  H   ASN d   2    1519.838 448.157-1535.853  0.00  0.00     0.163 HD
BRANCH  40  43
ATOM     43  CA  GLU d   1    1518.253 449.562-1537.315  0.00  0.00     0.191 C 
BRANCH  43  44
ATOM     44  N   GLU d   1    1517.694 448.213-1537.315  0.00  0.00    -0.326 NA
ATOM     45  H   GLU d   1    1518.321 447.334-1537.315  0.00  0.00     0.180 HD
ENDBRANCH  43  44
BRANCH  43  46
ATOM     46  CB  GLU d   1    1517.730 450.347-1536.078  0.00  0.00     0.047 C 
BRANCH  46  47
ATOM     47  CG  GLU d   1    1518.205 451.832-1535.967  0.00  0.00     0.116 C 
BRANCH  47  48
ATOM     48  CD  GLU d   1    1517.781 452.636-1534.752  0.00  0.00     0.172 C 
ATOM     49  OE1 GLU d   1    1517.053 452.134-1533.874  0.00  0.00    -0.648 OA
ATOM     50  OE2 GLU d   1    1518.211 453.806-1534.680  0.00  0.00    -0.648 OA
ENDBRANCH  47  48
ENDBRANCH  46  47
ENDBRANCH  43  46
ENDBRANCH  40  43
ENDBRANCH  38  39
BRANCH  38  51
ATOM     51  CB  ASN d   2    1522.318 447.675-1535.425  0.00  0.00     0.137 C 
BRANCH  51  52
ATOM     52  CG  ASN d   2    1521.855 447.899-1533.982  0.00  0.00     0.217 C 
ATOM     53  ND2 ASN d   2    1522.449 448.814-1533.264  0.00  0.00    -0.370 N 
ATOM     54 21HD ASN d   2    1521.969 448.987-1532.377  0.00  0.00     0.159 HD
ATOM     55 22HD ASN d   2    1523.151 449.385-1533.733  0.00  0.00     0.159 HD
ATOM     56  OD1 ASN d   2    1520.934 447.265-1533.488  0.00  0.00    -0.274 OA
ENDBRANCH  51  52
ENDBRANCH  38  51
ENDBRANCH  33  38
ENDBRANCH  28  31
ENDBRANCH  26  27
BRANCH  26  57
ATOM     57  CB  GLU d   4    1518.836 449.811-1541.782  0.00  0.00     0.045 C 
BRANCH  57  58
ATOM     58  CG  GLU d   4    1518.288 450.815-1542.848  0.00  0.00     0.116 C 
BRANCH  58  59
ATOM     59  CD  GLU d   4    1516.861 451.311-1542.704  0.00  0.00     0.172 C 
ATOM     60  OE1 GLU d   4    1516.135 450.913-1541.773  0.00  0.00    -0.648 OA
ATOM     61  OE2 GLU d   4    1516.471 452.140-1543.552  0.00  0.00    -0.648 OA
ENDBRANCH  58  59
ENDBRANCH  57  58
ENDBRANCH  26  57
ENDBRANCH  23  26
ENDBRANCH  21  22
BRANCH  21  62
ATOM     62  CB  SER d   5    1522.432 452.860-1539.239  0.00  0.00     0.199 C 
BRANCH  62  63
ATOM     63  OG  SER d   5    1523.164 451.980-1538.378  0.00  0.00    -0.398 OA
ATOM     64  HG  SER d   5    1522.675 451.155-1538.328  0.00  0.00     0.209 HD
ENDBRANCH  62  63
ENDBRANCH  21  62
ENDBRANCH  18  21
ENDBRANCH  16  17
BRANCH  16  65
ATOM     65  CB  ILE d   6    1526.197 449.308-1540.888  0.00  0.00     0.013 C 
ATOM     66  CG2 ILE d   6    1527.638 449.007-1541.404  0.00  0.00     0.012 C 
BRANCH  65  67
ATOM     67  CG1 ILE d   6    1526.216 449.246-1539.327  0.00  0.00     0.002 C 
ATOM     68  CD1 ILE d   6    1526.486 447.857-1538.713  0.00  0.00     0.005 C 
ENDBRANCH  65  67
ENDBRANCH  16  65
ENDBRANCH  13  16
ENDBRANCH  11  12
BRANCH  11  69
ATOM     69  CB  LEU d   7    1523.336 449.048-1545.508  0.00  0.00     0.038 C 
BRANCH  69  70
ATOM     70  CG  LEU d   7    1523.263 447.568-1545.042  0.00  0.00    -0.020 C 
ATOM     71  CD1 LEU d   7    1522.073 446.862-1545.708  0.00  0.00     0.009 C 
ATOM     72  CD2 LEU d   7    1524.557 446.789-1545.334  0.00  0.00     0.009 C 
ENDBRANCH  69  70
ENDBRANCH  11  69
ENDBRANCH   8  11
ENDBRANCH   6   7
BRANCH   6  73
ATOM     73  CB  ASP d   8    1522.480 454.332-1544.905  0.00  0.00     0.147 C 
BRANCH  73  74
ATOM     74  CG  ASP d   8    1522.261 455.753-1545.445  0.00  0.00     0.175 C 
ATOM     75  OD1 ASP d   8    1522.325 455.952-1546.675  0.00  0.00    -0.648 OA
ATOM     76  OD2 ASP d   8    1522.069 456.679-1544.629  0.00  0.00    -0.648 OA
ENDBRANCH  73  74
ENDBRANCH   6  73
ENDBRANCH   3   6
ENDBRANCH   1   2
BRANCH   1  77
ATOM     77  C   GLU d   9    1527.806 454.254-1545.515  0.00  0.00     0.241 C 
ATOM     78  O   GLU d   9    1528.469 455.009-1546.240  0.00  0.00    -0.271 OA
ATOM     79  N   ALA d  10    1527.902 452.979-1545.685  0.00  0.00    -0.346 N 
ATOM     80  H   ALA d  10    1527.372 452.343-1545.107  0.00  0.00     0.163 HD
BRANCH  79  81
ATOM     81  CA  ALA d  10    1528.790 452.470-1546.726  0.00  0.00     0.172 C 
ATOM     82  CB  ALA d  10    1528.723 450.933-1546.687  0.00  0.00     0.042 C 
BRANCH  81  83
ATOM     83  C   ALA d  10    1528.421 453.037-1548.076  0.00  0.00     0.240 C 
ATOM     84  O   ALA d  10    1529.269 453.503-1548.846  0.00  0.00    -0.271 OA
ATOM     85  N   VAL d  11    1527.183 453.035-1548.438  0.00  0.00    -0.346 N 
ATOM     86  H   VAL d  11    1526.471 452.660-1547.827  0.00  0.00     0.163 HD
BRANCH  85  87
ATOM     87  CA  VAL d  11    1526.825 453.584-1549.743  0.00  0.00     0.180 C 
BRANCH  87  88
ATOM     88  C   VAL d  11    1527.288 455.015-1549.873  0.00  0.00     0.241 C 
ATOM     89  O   VAL d  11    1527.887 455.423-1550.875  0.00  0.00    -0.271 OA
ATOM     90  N   GLN d  12    1527.051 455.839-1548.908  0.00  0.00    -0.346 N 
ATOM     91  H   GLN d  12    1526.564 455.530-1548.079  0.00  0.00     0.163 HD
BRANCH  90  92
ATOM     92  CA  GLN d  12    1527.498 457.222-1549.033  0.00  0.00     0.177 C 
BRANCH  92  93
ATOM     93  C   GLN d  12    1528.988 457.292-1549.273  0.00  0.00     0.241 C 
ATOM     94  O   GLN d  12    1529.473 458.003-1550.150  0.00  0.00    -0.271 OA
ATOM     95  N   ARG d  13    1529.774 456.585-1548.534  0.00  0.00    -0.346 N 
ATOM     96  H   ARG d  13    1529.399 455.993-1547.807  0.00  0.00     0.163 HD
BRANCH  95  97
ATOM     97  CA  ARG d  13    1531.214 456.652-1548.766  0.00  0.00     0.176 C 
BRANCH  97  98
ATOM     98  C   ARG d  13    1531.549 456.284-1550.193  0.00  0.00     0.241 C 
ATOM     99  O   ARG d  13    1532.316 456.958-1550.876  0.00  0.00    -0.271 OA
ATOM    100  N   VAL d  14    1531.013 455.230-1550.709  0.00  0.00    -0.346 N 
ATOM    101  H   VAL d  14    1530.380 454.660-1550.167  0.00  0.00     0.163 HD
BRANCH 100 102
ATOM    102  CA  VAL d  14    1531.337 454.874-1552.087  0.00  0.00     0.180 C 
BRANCH 102 103
ATOM    103  C   VAL d  14    1531.005 456.006-1553.030  0.00  0.00     0.241 C 
ATOM    104  O   VAL d  14    1531.797 456.390-1553.900  0.00  0.00    -0.271 OA
ATOM    105  N   MET d  15    1529.859 456.590-1552.926  0.00  0.00    -0.346 N 
ATOM    106  H   MET d  15    1529.196 456.295-1552.224  0.00  0.00     0.163 HD
BRANCH 105 107
ATOM    107  CA  MET d  15    1529.536 457.684-1553.837  0.00  0.00     0.177 C 
BRANCH 107 108
ATOM    108  C   MET d  15    1530.566 458.785-1553.748  0.00  0.00     0.241 C 
ATOM    109  O   MET d  15    1531.066 459.299-1554.760  0.00  0.00    -0.271 OA
ATOM    110  N   ARG d  16    1530.935 459.204-1552.585  0.00  0.00    -0.347 N 
ATOM    111  H   ARG d  16    1530.542 458.802-1551.746  0.00  0.00     0.163 HD
BRANCH 110 112
ATOM    112  CA  ARG d  16    1531.931 460.269-1552.500  0.00  0.00     0.162 C 
BRANCH 112 113
ATOM    113  C   ARG d  16    1533.201 459.879-1553.219  0.00  0.00     0.219 C 
ATOM    114  O   ARG d  16    1533.315 458.804-1553.803  0.00  0.00    -0.287 OA
ENDBRANCH 112 113
BRANCH 112 115
ATOM    115  CB  ARG d  16    1532.201 460.583-1551.001  0.00  0.00     0.035 C 
BRANCH 115 116
ATOM    116  CG  ARG d  16    1533.025 461.873-1550.727  0.00  0.00     0.023 C 
BRANCH 116 117
ATOM    117  CD  ARG d  16    1533.276 462.089-1549.225  0.00  0.00     0.138 C 
BRANCH 117 118
ATOM    118  NE  ARG d  16    1534.051 463.348-1549.022  0.00  0.00    -0.227 N 
ATOM    119  CZ  ARG d  16    1534.443 463.828-1547.846  0.00  0.00     0.665 C 
ATOM    120  NH1 ARG d  16    1534.198 463.241-1546.708  0.00  0.00    -0.235 N 
ATOM    121  NH2 ARG d  16    1535.106 464.942-1547.826  0.00  0.00    -0.235 N 
ATOM    122 11HH ARG d  16    1533.673 462.368-1546.794  0.00  0.00     0.174 HD
ATOM    123 12HH ARG d  16    1534.533 463.675-1545.847  0.00  0.00     0.174 HD
ATOM    124 21HH ARG d  16    1535.290 465.387-1548.727  0.00  0.00     0.174 HD
ATOM    125 22HH ARG d  16    1535.397 465.295-1546.913  0.00  0.00     0.174 HD
ATOM    126  HE  ARG d  16    1534.328 463.931-1549.818  0.00  0.00     0.177 HD
ENDBRANCH 117 118
ENDBRANCH 116 117
ENDBRANCH 115 116
ENDBRANCH 112 115
ENDBRANCH 110 112
ENDBRANCH 107 108
BRANCH 107 127
ATOM    127  CB  MET d  15    1528.115 458.228-1553.525  0.00  0.00     0.045 C 
BRANCH 127 128
ATOM    128  CG  MET d  15    1526.954 457.228-1553.718  0.00  0.00     0.076 C 
BRANCH 128 129
ATOM    129  SD  MET d  15    1525.379 458.093-1553.600  0.00  0.00    -0.173 SA
ATOM    130  CE  MET d  15    1524.300 456.661-1553.465  0.00  0.00     0.089 C 
ENDBRANCH 128 129
ENDBRANCH 127 128
ENDBRANCH 107 127
ENDBRANCH 105 107
ENDBRANCH 102 103
BRANCH 102 131
ATOM    131  CB  VAL d  14    1530.566 453.557-1552.496  0.00  0.00     0.009 C 
ATOM    132  CG1 VAL d  14    1530.654 453.142-1553.991  0.00  0.00     0.012 C 
ATOM    133  CG2 VAL d  14    1531.000 452.304-1551.699  0.00  0.00     0.012 C 
ENDBRANCH 102 131
ENDBRANCH 100 102
ENDBRANCH  97  98
BRANCH  97 134
ATOM    134  CB  ARG d  13    1531.929 455.712-1547.755  0.00  0.00     0.036 C 
BRANCH 134 135
ATOM    135  CG  ARG d  13    1533.474 455.867-1547.676  0.00  0.00     0.023 C 
BRANCH 135 136
ATOM    136  CD  ARG d  13    1534.104 454.878-1546.681  0.00  0.00     0.138 C 
BRANCH 136 137
ATOM    137  NE  ARG d  13    1535.581 455.087-1546.632  0.00  0.00    -0.227 N 
ATOM    138  CZ  ARG d  13    1536.430 454.395-1545.879  0.00  0.00     0.665 C 
ATOM    139  NH1 ARG d  13    1536.067 453.428-1545.083  0.00  0.00    -0.235 N 
ATOM    140  NH2 ARG d  13    1537.689 454.695-1545.937  0.00  0.00    -0.235 N 
ATOM    141 11HH ARG d  13    1535.062 453.241-1545.085  0.00  0.00     0.174 HD
ATOM    142 12HH ARG d  13    1536.782 452.945-1544.536  0.00  0.00     0.174 HD
ATOM    143 21HH ARG d  13    1537.955 455.455-1546.566  0.00  0.00     0.174 HD
ATOM    144 22HH ARG d  13    1538.326 454.154-1545.350  0.00  0.00     0.174 HD
ATOM    145  HE  ARG d  13    1536.030 455.811-1547.201  0.00  0.00     0.177 HD
ENDBRANCH 136 137
ENDBRANCH 135 136
ENDBRANCH 134 135
ENDBRANCH  97 134
ENDBRANCH  95  97
ENDBRANCH  92  93
BRANCH  92 146
ATOM    146  CB  GLN d  12    1527.108 457.987-1547.748  0.00  0.00     0.044 C 
BRANCH 146 147
ATOM    147  CG  GLN d  12    1527.466 459.509-1547.714  0.00  0.00     0.105 C 
BRANCH 147 148
ATOM    148  CD  GLN d  12    1527.164 460.319-1546.448  0.00  0.00     0.215 C 
ATOM    149  NE2 GLN d  12    1526.599 459.740-1545.419  0.00  0.00    -0.370 N 
ATOM    150 21HE GLN d  12    1526.492 460.333-1544.594  0.00  0.00     0.159 HD
ATOM    151 22HE GLN d  12    1526.437 458.737-1545.525  0.00  0.00     0.159 HD
ATOM    152  OE1 GLN d  12    1527.465 461.500-1546.368  0.00  0.00    -0.274 OA
ENDBRANCH 147 148
ENDBRANCH 146 147
ENDBRANCH  92 146
ENDBRANCH  90  92
ENDBRANCH  87  88
BRANCH  87 153
ATOM    153  CB  VAL d  11    1525.264 453.476-1549.960  0.00  0.00     0.009 C 
ATOM    154  CG1 VAL d  11    1524.693 454.182-1551.221  0.00  0.00     0.012 C 
ATOM    155  CG2 VAL d  11    1524.741 452.021-1550.036  0.00  0.00     0.012 C 
ENDBRANCH  87 153
ENDBRANCH  85  87
ENDBRANCH  81  83
ENDBRANCH  79  81
ENDBRANCH   1  77
BRANCH   1 156
ATOM    156  CB  GLU d   9    1527.521 454.573-1543.033  0.00  0.00     0.045 C 
BRANCH 156 157
ATOM    157  CG  GLU d   9    1528.904 455.265-1542.804  0.00  0.00     0.116 C 
BRANCH 157 158
ATOM    158  CD  GLU d   9    1529.606 455.051-1541.476  0.00  0.00     0.172 C 
ATOM    159  OE1 GLU d   9    1529.084 454.360-1540.580  0.00  0.00    -0.648 OA
ATOM    160  OE2 GLU d   9    1530.725 455.589-1541.344  0.00  0.00    -0.648 OA
ENDBRANCH 157 158
ENDBRANCH 156 157
ENDBRANCH   1 156
TORSDOF 66
