REMARK WARNING: 32 MAX_TORS EXCEEDED!!!
REMARK  68 active torsions:
REMARK  status: ('A' for Active; 'I' for Inactive)
REMARK    1  A    between atoms: N_1  and  CA_2 
REMARK    2  A    between atoms: CA_2  and  C_3 
REMARK    3  A    between atoms: CA_2  and  CB_5 
REMARK       I    between atoms: C_3  and  N_10 
REMARK    4  A    between atoms: CB_5  and  CG_6 
REMARK    5  A    between atoms: CG_6  and  SD_7 
REMARK    6  A    between atoms: N_10  and  CA_11 
REMARK    7  A    between atoms: CA_11  and  C_12 
REMARK    8  A    between atoms: CA_11  and  CB_14 
REMARK       I    between atoms: C_12  and  N_21 
REMARK    9  A    between atoms: CB_14  and  CG_15 
REMARK       I    between atoms: CG_15  and  ND2_16 
REMARK   10  A    between atoms: CA_22  and  C_23 
REMARK       I    between atoms: C_23  and  N_28 
REMARK   11  A    between atoms: N_28  and  CA_29 
REMARK   12  A    between atoms: CA_29  and  C_30 
REMARK   13  A    between atoms: CA_29  and  CB_32 
REMARK       I    between atoms: C_30  and  N_38 
REMARK   14  A    between atoms: CB_32  and  CG_33 
REMARK   15  A    between atoms: CG_33  and  CD_34 
REMARK   16  A    between atoms: N_38  and  CA_39 
REMARK   17  A    between atoms: CA_39  and  C_40 
REMARK   18  A    between atoms: CA_39  and  CB_42 
REMARK       I    between atoms: C_40  and  N_46 
REMARK   19  A    between atoms: CB_42  and  OG_43 
REMARK   20  A    between atoms: N_46  and  CA_47 
REMARK   21  A    between atoms: CA_47  and  C_48 
REMARK   22  A    between atoms: CA_47  and  CB_50 
REMARK       I    between atoms: C_48  and  N_55 
REMARK   23  A    between atoms: CB_50  and  CG1_51 
REMARK   24  A    between atoms: N_55  and  CA_56 
REMARK   25  A    between atoms: CA_56  and  C_57 
REMARK   26  A    between atoms: CA_56  and  CB_59 
REMARK       I    between atoms: C_57  and  N_64 
REMARK   27  A    between atoms: CB_59  and  CG_60 
REMARK   28  A    between atoms: N_64  and  CA_65 
REMARK   29  A    between atoms: CA_65  and  C_66 
REMARK   30  A    between atoms: CA_65  and  CB_68 
REMARK       I    between atoms: C_66  and  N_73 
REMARK   31  A    between atoms: CB_68  and  CG_69 
REMARK   32  A    between atoms: N_73  and  CA_74 
REMARK   33  A    between atoms: CA_74  and  C_75 
REMARK   34  A    between atoms: CA_74  and  CB_77 
REMARK       I    between atoms: C_75  and  N_83 
REMARK   35  A    between atoms: CB_77  and  CG_78 
REMARK   36  A    between atoms: CG_78  and  CD_79 
REMARK   37  A    between atoms: N_83  and  CA_84 
REMARK   38  A    between atoms: CA_84  and  C_85 
REMARK   39  A    between atoms: CA_84  and  CB_87 
REMARK       I    between atoms: C_85  and  N_95 
REMARK   40  A    between atoms: CB_87  and  CG_88 
REMARK   41  A    between atoms: N_95  and  CA_96 
REMARK   42  A    between atoms: CA_96  and  C_97 
REMARK   43  A    between atoms: CA_96  and  CB_99 
REMARK       I    between atoms: C_97  and  N_103 
REMARK   44  A    between atoms: N_103  and  CA_104 
REMARK   45  A    between atoms: CA_104  and  C_105 
REMARK   46  A    between atoms: CA_104  and  CB_107 
REMARK       I    between atoms: C_105  and  N_115 
REMARK   47  A    between atoms: CB_107  and  CG_108 
REMARK   48  A    between atoms: CG_108  and  CD_109 
REMARK       I    between atoms: CD_109  and  NE2_110 
REMARK   49  A    between atoms: N_115  and  CA_116 
REMARK   50  A    between atoms: CA_116  and  C_117 
REMARK   51  A    between atoms: CA_116  and  CB_119 
REMARK       I    between atoms: C_117  and  N_132 
REMARK   52  A    between atoms: CB_119  and  CG_120 
REMARK   53  A    between atoms: CG_120  and  CD_121 
REMARK   54  A    between atoms: CD_121  and  NE_122 
REMARK       I    between atoms: NE_122  and  CZ_123 
REMARK       I    between atoms: CZ_123  and  NH1_124 
REMARK       I    between atoms: CZ_123  and  NH2_125 
REMARK   55  A    between atoms: N_132  and  CA_133 
REMARK   56  A    between atoms: CA_133  and  C_134 
REMARK   57  A    between atoms: CA_133  and  CB_136 
REMARK       I    between atoms: C_134  and  N_140 
REMARK   58  A    between atoms: N_140  and  CA_141 
REMARK   59  A    between atoms: CA_141  and  C_142 
REMARK   60  A    between atoms: CA_141  and  CB_144 
REMARK       I    between atoms: C_142  and  N_149 
REMARK   61  A    between atoms: CB_144  and  CG_145 
REMARK   62  A    between atoms: CG_145  and  SD_146 
REMARK   63  A    between atoms: N_149  and  CA_150 
REMARK   64  A    between atoms: CA_150  and  C_151 
REMARK   65  A    between atoms: CA_150  and  CB_153 
REMARK   66  A    between atoms: CB_153  and  CG_154 
REMARK   67  A    between atoms: CG_154  and  CD_155 
REMARK   68  A    between atoms: CD_155  and  NE_156 
REMARK       I    between atoms: NE_156  and  CZ_157 
REMARK       I    between atoms: CZ_157  and  NH1_158 
ROOT
ATOM      1  C   GLU d   9      45.237   9.857 -24.480  0.00  0.00     0.241 C 
ATOM      2  O   GLU d   9      45.859  10.646 -25.206  0.00  0.00    -0.271 OA
ATOM      3  N   HIS d  10      45.402   8.589 -24.650  0.00  0.00    -0.346 N 
ATOM      4  H   HIS d  10      44.906   7.925 -24.071  0.00  0.00     0.163 HD
ENDROOT
BRANCH   3   5
ATOM      5  CA  HIS d  10      46.316   8.126 -25.691  0.00  0.00     0.182 C 
BRANCH   5   6
ATOM      6  C   HIS d  10      45.918   8.670 -27.041  0.00  0.00     0.241 C 
ATOM      7  O   HIS d  10      46.744   9.180 -27.814  0.00  0.00    -0.271 OA
ATOM      8  N   VAL d  11      44.682   8.603 -27.404  0.00  0.00    -0.346 N 
ATOM      9  H   VAL d  11      43.991   8.192 -26.793  0.00  0.00     0.163 HD
BRANCH   8  10
ATOM     10  CA  VAL d  11      44.297   9.129 -28.710  0.00  0.00     0.180 C 
BRANCH  10  11
ATOM     11  C   VAL d  11      44.684  10.582 -28.843  0.00  0.00     0.241 C 
ATOM     12  O   VAL d  11      45.262  11.019 -29.846  0.00  0.00    -0.271 OA
ATOM     13  N   GLN d  12      44.403  11.394 -27.880  0.00  0.00    -0.346 N 
ATOM     14  H   GLN d  12      43.932  11.062 -27.051  0.00  0.00     0.163 HD
BRANCH  13  15
ATOM     15  CA  GLN d  12      44.777  12.799 -28.007  0.00  0.00     0.177 C 
BRANCH  15  16
ATOM     16  C   GLN d  12      46.261  12.947 -28.246  0.00  0.00     0.241 C 
ATOM     17  O   GLN d  12      46.709  13.680 -29.125  0.00  0.00    -0.271 OA
ATOM     18  N   ARG d  13      47.083  12.283 -27.506  0.00  0.00    -0.346 N 
ATOM     19  H   ARG d  13      46.739  11.674 -26.777  0.00  0.00     0.163 HD
BRANCH  18  20
ATOM     20  CA  ARG d  13      48.517  12.426 -27.737  0.00  0.00     0.176 C 
BRANCH  20  21
ATOM     21  C   ARG d  13      48.872  12.074 -29.162  0.00  0.00     0.241 C 
ATOM     22  O   ARG d  13      49.603  12.786 -29.847  0.00  0.00    -0.271 OA
ATOM     23  N   VAL d  14      48.393  10.992 -29.677  0.00  0.00    -0.346 N 
ATOM     24  H   VAL d  14      47.790  10.390 -29.134  0.00  0.00     0.163 HD
BRANCH  23  25
ATOM     25  CA  VAL d  14      48.736  10.651 -31.054  0.00  0.00     0.180 C 
BRANCH  25  26
ATOM     26  C   VAL d  14      48.345  11.762 -32.000  0.00  0.00     0.241 C 
ATOM     27  O   VAL d  14      49.117  12.185 -32.869  0.00  0.00    -0.271 OA
ATOM     28  N   MET d  15      47.171  12.285 -31.897  0.00  0.00    -0.346 N 
ATOM     29  H   MET d  15      46.523  11.957 -31.195  0.00  0.00     0.163 HD
BRANCH  28  30
ATOM     30  CA  MET d  15      46.792  13.359 -32.810  0.00  0.00     0.177 C 
BRANCH  30  31
ATOM     31  C   MET d  15      47.761  14.513 -32.723  0.00  0.00     0.241 C 
ATOM     32  O   MET d  15      48.235  15.050 -33.736  0.00  0.00    -0.271 OA
ATOM     33  N   ARG d  16      48.107  14.953 -31.561  0.00  0.00    -0.347 N 
ATOM     34  H   ARG d  16      47.735  14.532 -30.721  0.00  0.00     0.163 HD
BRANCH  33  35
ATOM     35  CA  ARG d  16      49.045  16.069 -31.477  0.00  0.00     0.162 C 
BRANCH  35  36
ATOM     36  C   ARG d  16      50.335  15.745 -32.194  0.00  0.00     0.219 C 
ATOM     37  O   ARG d  16      50.506  14.676 -32.776  0.00  0.00    -0.287 OA
ENDBRANCH  35  36
BRANCH  35  38
ATOM     38  CB  ARG d  16      49.297  16.400 -29.979  0.00  0.00     0.035 C 
BRANCH  38  39
ATOM     39  CG  ARG d  16      50.052  17.732 -29.707  0.00  0.00     0.023 C 
BRANCH  39  40
ATOM     40  CD  ARG d  16      50.290  17.964 -28.206  0.00  0.00     0.138 C 
BRANCH  40  41
ATOM     41  NE  ARG d  16      50.998  19.263 -28.005  0.00  0.00    -0.227 N 
ATOM     42  CZ  ARG d  16      51.363  19.766 -26.829  0.00  0.00     0.665 C 
ATOM     43  NH1 ARG d  16      51.148  19.169 -25.691  0.00  0.00    -0.235 N 
ATOM     44  NH2 ARG d  16      51.966  20.912 -26.811  0.00  0.00    -0.235 N 
ATOM     45 11HH ARG d  16      50.670  18.269 -25.775  0.00  0.00     0.174 HD
ATOM     46 12HH ARG d  16      51.459  19.621 -24.830  0.00  0.00     0.174 HD
ATOM     47 21HH ARG d  16      52.127  21.365 -27.713  0.00  0.00     0.174 HD
ATOM     48 22HH ARG d  16      52.237  21.282 -25.898  0.00  0.00     0.174 HD
ATOM     49  HE  ARG d  16      51.244  19.858 -28.802  0.00  0.00     0.177 HD
ENDBRANCH  40  41
ENDBRANCH  39  40
ENDBRANCH  38  39
ENDBRANCH  35  38
ENDBRANCH  33  35
ENDBRANCH  30  31
BRANCH  30  50
ATOM     50  CB  MET d  15      45.343  13.827 -32.501  0.00  0.00     0.045 C 
BRANCH  50  51
ATOM     51  CG  MET d  15      44.236  12.768 -32.692  0.00  0.00     0.076 C 
BRANCH  51  52
ATOM     52  SD  MET d  15      42.618  13.548 -32.577  0.00  0.00    -0.173 SA
ATOM     53  CE  MET d  15      41.615  12.062 -32.440  0.00  0.00     0.089 C 
ENDBRANCH  51  52
ENDBRANCH  50  51
ENDBRANCH  30  50
ENDBRANCH  28  30
ENDBRANCH  25  26
BRANCH  25  54
ATOM     54  CB  VAL d  14      48.036   9.294 -31.461  0.00  0.00     0.009 C 
ATOM     55  CG1 VAL d  14      48.146   8.882 -32.955  0.00  0.00     0.012 C 
ATOM     56  CG2 VAL d  14      48.535   8.067 -30.661  0.00  0.00     0.012 C 
ENDBRANCH  25  54
ENDBRANCH  23  25
ENDBRANCH  20  21
BRANCH  20  57
ATOM     57  CB  ARG d  13      49.281  11.527 -26.724  0.00  0.00     0.036 C 
BRANCH  57  58
ATOM     58  CG  ARG d  13      50.815  11.763 -26.643  0.00  0.00     0.023 C 
BRANCH  58  59
ATOM     59  CD  ARG d  13      51.495  10.810 -25.646  0.00  0.00     0.138 C 
BRANCH  59  60
ATOM     60  NE  ARG d  13      52.959  11.097 -25.596  0.00  0.00    -0.227 N 
ATOM     61  CZ  ARG d  13      53.843  10.452 -24.842  0.00  0.00     0.665 C 
ATOM     62  NH1 ARG d  13      53.531   9.469 -24.044  0.00  0.00    -0.235 N 
ATOM     63  NH2 ARG d  13      55.085  10.818 -24.899  0.00  0.00    -0.235 N 
ATOM     64 11HH ARG d  13      52.537   9.229 -24.047  0.00  0.00     0.174 HD
ATOM     65 12HH ARG d  13      54.269   9.025 -23.496  0.00  0.00     0.174 HD
ATOM     66 21HH ARG d  13      55.311  11.589 -25.530  0.00  0.00     0.174 HD
ATOM     67 22HH ARG d  13      55.748  10.312 -24.311  0.00  0.00     0.174 HD
ATOM     68  HE  ARG d  13      53.370  11.842 -26.167  0.00  0.00     0.177 HD
ENDBRANCH  59  60
ENDBRANCH  58  59
ENDBRANCH  57  58
ENDBRANCH  20  57
ENDBRANCH  18  20
ENDBRANCH  15  16
BRANCH  15  69
ATOM     69  CB  GLN d  12      44.346  13.544 -26.724  0.00  0.00     0.044 C 
BRANCH  69  70
ATOM     70  CG  GLN d  12      44.623  15.083 -26.693  0.00  0.00     0.105 C 
BRANCH  70  71
ATOM     71  CD  GLN d  12      44.278  15.879 -25.428  0.00  0.00     0.215 C 
ATOM     72  NE2 GLN d  12      43.744  15.273 -24.399  0.00  0.00    -0.370 N 
ATOM     73 21HE GLN d  12      43.605  15.861 -23.575  0.00  0.00     0.159 HD
ATOM     74 22HE GLN d  12      43.634  14.262 -24.503  0.00  0.00     0.159 HD
ATOM     75  OE1 GLN d  12      44.516  17.075 -25.350  0.00  0.00    -0.274 OA
ENDBRANCH  70  71
ENDBRANCH  69  70
ENDBRANCH  15  69
ENDBRANCH  13  15
ENDBRANCH  10  11
BRANCH  10  76
ATOM     76  CB  VAL d  11      42.744   8.938 -28.929  0.00  0.00     0.009 C 
ATOM     77  CG1 VAL d  11      42.138   9.611 -30.191  0.00  0.00     0.012 C 
ATOM     78  CG2 VAL d  11      42.298   7.458 -29.002  0.00  0.00     0.012 C 
ENDBRANCH  10  76
ENDBRANCH   8  10
ENDBRANCH   5   6
BRANCH   5  79
ATOM     79  CB  HIS d  10      46.234   6.590 -25.686  0.00  0.00     0.095 C 
BRANCH  79  80
ATOM     80  CG  HIS d  10      47.556   5.950 -25.378  0.00  0.00     0.053 A 
ATOM     81  CD2 HIS d  10      47.955   5.636 -24.086  0.00  0.00     0.116 A 
ATOM     82  NE2 HIS d  10      49.202   5.071 -24.153  0.00  0.00    -0.359 N 
ATOM     83  CE1 HIS d  10      49.464   5.088 -25.489  0.00  0.00     0.207 A 
ATOM     84  2HE HIS d  10      49.789   4.724 -23.381  0.00  0.00     0.166 HD
ATOM     85  ND1 HIS d  10      48.528   5.596 -26.312  0.00  0.00    -0.247 NA
ENDBRANCH  79  80
ENDBRANCH   5  79
ENDBRANCH   3   5
BRANCH   1  86
ATOM     86  CA  GLU d   9      44.293  10.334 -23.404  0.00  0.00     0.177 C 
BRANCH  86  87
ATOM     87  N   GLU d   9      43.027   9.608 -23.458  0.00  0.00    -0.346 N 
ATOM     88  C   ASP d   8      42.345   9.621 -24.553  0.00  0.00     0.241 C 
ATOM     89  O   ASP d   8      42.784  10.251 -25.528  0.00  0.00    -0.271 OA
ATOM     90  H   GLU d   9      42.691   9.102 -22.651  0.00  0.00     0.163 HD
BRANCH  88  91
ATOM     91  CA  ASP d   8      41.037   8.870 -24.610  0.00  0.00     0.186 C 
BRANCH  91  92
ATOM     92  N   ASP d   8      41.180   7.526 -24.057  0.00  0.00    -0.346 N 
ATOM     93  C   LEU d   7      42.061   6.731 -24.563  0.00  0.00     0.241 C 
ATOM     94  O   LEU d   7      42.761   7.132 -25.506  0.00  0.00    -0.271 OA
ATOM     95  H   ASP d   8      40.598   7.223 -23.289  0.00  0.00     0.163 HD
BRANCH  93  96
ATOM     96  CA  LEU d   7      42.208   5.342 -23.991  0.00  0.00     0.177 C 
BRANCH  96  97
ATOM     97  N   LEU d   7      42.262   5.381 -22.533  0.00  0.00    -0.346 N 
ATOM     98  C   ILE d   6      43.171   6.094 -21.959  0.00  0.00     0.241 C 
ATOM     99  O   ILE d   6      43.973   6.726 -22.664  0.00  0.00    -0.271 OA
ATOM    100  H   LEU d   7      41.598   4.857 -21.981  0.00  0.00     0.163 HD
BRANCH  98 101
ATOM    101  CA  ILE d   6      43.227   6.135 -20.452  0.00  0.00     0.180 C 
BRANCH 101 102
ATOM    102  N   ILE d   6      41.900   6.359 -19.885  0.00  0.00    -0.346 N 
ATOM    103  C   SER d   5      41.238   7.408 -20.238  0.00  0.00     0.243 C 
ATOM    104  O   SER d   5      41.744   8.190 -21.044  0.00  0.00    -0.271 OA
ATOM    105  H   ILE d   6      41.507   5.702 -19.225  0.00  0.00     0.163 HD
BRANCH 103 106
ATOM    106  CA  SER d   5      39.865   7.640 -19.652  0.00  0.00     0.200 C 
BRANCH 106 107
ATOM    107  N   SER d   5      39.060   6.424 -19.710  0.00  0.00    -0.344 N 
ATOM    108  C   GLU d   4      38.862   5.860 -20.853  0.00  0.00     0.241 C 
ATOM    109  O   GLU d   4      39.361   6.367 -21.868  0.00  0.00    -0.271 OA
ATOM    110  H   SER d   5      38.664   6.030 -18.868  0.00  0.00     0.163 HD
BRANCH 108 111
ATOM    111  CA  GLU d   4      38.029   4.602 -20.914  0.00  0.00     0.177 C 
BRANCH 111 112
ATOM    112  N   GLU d   4      38.441   3.652 -19.884  0.00  0.00    -0.346 N 
ATOM    113  C   PRO d   3      39.668   3.257 -19.853  0.00  0.00     0.241 C 
ATOM    114  O   PRO d   3      40.470   3.684 -20.685  0.00  0.00    -0.271 OA
ATOM    115  H   GLU d   4      37.774   3.309 -19.207  0.00  0.00     0.163 HD
BRANCH 113 116
ATOM    116  CA  PRO d   3      40.121   2.256 -18.776  0.00  0.00     0.179 C 
ATOM    117  N   PRO d   3      39.649   2.641 -17.454  0.00  0.00    -0.337 N 
ATOM    118  C   ASN d   2      40.117   3.663 -16.820  0.00  0.00     0.243 C 
ATOM    119  CD  PRO d   3      38.615   1.791 -16.905  0.00  0.00     0.127 C 
ATOM    120  O   ASN d   2      40.996   4.341 -17.350  0.00  0.00    -0.271 OA
ATOM    121  CG  PRO d   3      38.202   0.949 -18.114  0.00  0.00     0.022 C 
ATOM    122  CB  PRO d   3      39.491   0.866 -18.945  0.00  0.00     0.037 C 
BRANCH 118 123
ATOM    123  CA  ASN d   2      39.568   3.989 -15.451  0.00  0.00     0.185 C 
BRANCH 123 124
ATOM    124  N   ASN d   2      38.109   3.950 -15.451  0.00  0.00    -0.346 N 
ATOM    125  C   MET d   1      37.463   4.702 -16.276  0.00  0.00     0.242 C 
ATOM    126  O   MET d   1      38.100   5.437 -17.046  0.00  0.00    -0.271 OA
ATOM    127  H   ASN d   2      37.613   3.343 -14.814  0.00  0.00     0.163 HD
BRANCH 125 128
ATOM    128  CA  MET d   1      35.954   4.662 -16.276  0.00  0.00     0.191 C 
BRANCH 128 129
ATOM    129  N   MET d   1      35.466   3.286 -16.276  0.00  0.00    -0.326 NA
ATOM    130  H   MET d   1      36.139   2.441 -16.276  0.00  0.00     0.180 HD
ENDBRANCH 128 129
BRANCH 128 131
ATOM    131  CB  MET d   1      35.379   5.425 -15.051  0.00  0.00     0.046 C 
BRANCH 131 132
ATOM    132  CG  MET d   1      33.843   5.575 -15.010  0.00  0.00     0.076 C 
BRANCH 132 133
ATOM    133  SD  MET d   1      33.376   6.719 -13.701  0.00  0.00    -0.173 SA
ATOM    134  CE  MET d   1      31.613   6.370 -13.659  0.00  0.00     0.089 C 
ENDBRANCH 132 133
ENDBRANCH 131 132
ENDBRANCH 128 131
ENDBRANCH 125 128
ENDBRANCH 123 124
BRANCH 123 135
ATOM    135  CB  ASN d   2      40.115   2.994 -14.387  0.00  0.00     0.137 C 
BRANCH 135 136
ATOM    136  CG  ASN d   2      39.641   3.193 -12.944  0.00  0.00     0.217 C 
ATOM    137  ND2 ASN d   2      40.186   4.138 -12.226  0.00  0.00    -0.370 N 
ATOM    138 21HD ASN d   2      39.697   4.285 -11.339  0.00  0.00     0.159 HD
ATOM    139 22HD ASN d   2      40.856   4.746 -12.696  0.00  0.00     0.159 HD
ATOM    140  OD1 ASN d   2      38.756   2.511 -12.449  0.00  0.00    -0.274 OA
ENDBRANCH 135 136
ENDBRANCH 123 135
ENDBRANCH 118 123
ENDBRANCH 113 116
ENDBRANCH 111 112
BRANCH 111 141
ATOM    141  CB  GLU d   4      36.520   4.941 -20.743  0.00  0.00     0.045 C 
BRANCH 141 142
ATOM    142  CG  GLU d   4      35.919   5.913 -21.808  0.00  0.00     0.116 C 
BRANCH 142 143
ATOM    143  CD  GLU d   4      34.468   6.333 -21.664  0.00  0.00     0.172 C 
ATOM    144  OE1 GLU d   4      33.764   5.896 -20.732  0.00  0.00    -0.648 OA
ATOM    145  OE2 GLU d   4      34.034   7.140 -22.512  0.00  0.00    -0.648 OA
ENDBRANCH 142 143
ENDBRANCH 141 142
ENDBRANCH 111 141
ENDBRANCH 108 111
ENDBRANCH 106 107
BRANCH 106 146
ATOM    146  CB  SER d   5      39.949   8.178 -18.202  0.00  0.00     0.199 C 
BRANCH 146 147
ATOM    147  OG  SER d   5      40.727   7.339 -17.341  0.00  0.00    -0.398 OA
ATOM    148  HG  SER d   5      40.284   6.489 -17.290  0.00  0.00     0.209 HD
ENDBRANCH 146 147
ENDBRANCH 106 146
ENDBRANCH 103 106
ENDBRANCH 101 102
BRANCH 101 149
ATOM    149  CB  ILE d   6      43.898   4.833 -19.852  0.00  0.00     0.013 C 
ATOM    150  CG2 ILE d   6      45.353   4.609 -20.368  0.00  0.00     0.012 C 
BRANCH 149 151
ATOM    151  CG1 ILE d   6      43.922   4.772 -18.291  0.00  0.00     0.002 C 
ATOM    152  CD1 ILE d   6      44.266   3.399 -17.676  0.00  0.00     0.005 C 
ENDBRANCH 149 151
ENDBRANCH 101 149
ENDBRANCH  98 101
ENDBRANCH  96  97
BRANCH  96 153
ATOM    153  CB  LEU d   7      41.053   4.418 -24.471  0.00  0.00     0.038 C 
BRANCH 153 154
ATOM    154  CG  LEU d   7      41.060   2.937 -24.004  0.00  0.00    -0.020 C 
ATOM    155  CD1 LEU d   7      39.909   2.168 -24.669  0.00  0.00     0.009 C 
ATOM    156  CD2 LEU d   7      42.393   2.229 -24.297  0.00  0.00     0.009 C 
ENDBRANCH 153 154
ENDBRANCH  96 153
ENDBRANCH  93  96
ENDBRANCH  91  92
BRANCH  91 157
ATOM    157  CB  ASP d   8      39.916   9.649 -23.867  0.00  0.00     0.147 C 
BRANCH 157 158
ATOM    158  CG  ASP d   8      39.620  11.056 -24.408  0.00  0.00     0.175 C 
ATOM    159  OD1 ASP d   8      39.673  11.259 -25.638  0.00  0.00    -0.648 OA
ATOM    160  OD2 ASP d   8      39.379  11.971 -23.592  0.00  0.00    -0.648 OA
ENDBRANCH 157 158
ENDBRANCH  91 157
ENDBRANCH  88  91
ENDBRANCH  86  87
BRANCH  86 161
ATOM    161  CB  GLU d   9      44.937  10.161 -21.998  0.00  0.00     0.045 C 
BRANCH 161 162
ATOM    162  CG  GLU d   9      46.281  10.926 -21.770  0.00  0.00     0.116 C 
BRANCH 162 163
ATOM    163  CD  GLU d   9      46.994  10.751 -20.442  0.00  0.00     0.172 C 
ATOM    164  OE1 GLU d   9      46.510  10.033 -19.545  0.00  0.00    -0.648 OA
ATOM    165  OE2 GLU d   9      48.082  11.348 -20.311  0.00  0.00    -0.648 OA
ENDBRANCH 162 163
ENDBRANCH 161 162
ENDBRANCH  86 161
ENDBRANCH   1  86
TORSDOF 68
