@<TRIPOS>MOLECULE
9-6
269 270 16              
SMALL
USER_CHARGES
@<TRIPOS>ATOM
1	   N	1394.213	407.575	-1404.596	N.3	1	GLU1	-0.516	
2	  CA	1394.772	408.924	-1404.596	C.3	1	GLU1	0.040	
3	   C	1396.281	408.884	-1404.596	C.2	1	GLU1	0.537	
4	   O	1396.957	409.583	-1405.364	O.2	1	GLU1	-0.582	
5	  CB	1394.249	409.709	-1403.359	C.3	1	GLU1	0.056	
6	  CG	1394.724	411.194	-1403.248	C.3	1	GLU1	0.014	
7	  CD	1394.300	411.998	-1402.033	C.2	1	GLU1	0.805	
8	 OE1	1393.572	411.496	-1401.155	O.co2	1	GLU1	-0.819	
9	 OE2	1394.730	413.168	-1401.961	O.co2	1	GLU1	-0.819	
10	   H	1394.840	406.696	-1404.596	 H	1	GLU1	0.294	
11	  HA	1394.446	409.442	-1405.516	 H	1	GLU1	0.111	
12	 2HB	1394.538	409.178	-1402.429	 H	1	GLU1	-0.017	
13	 3HB	1393.142	409.699	-1403.346	 H	1	GLU1	-0.017	
14	 2HG	1394.414	411.779	-1404.129	 H	1	GLU1	-0.043	
15	 3HG	1395.824	411.261	-1403.219	 H	1	GLU1	-0.043	
16	   N	1396.885	408.098	-1403.771	N.am	2	ASN2	-0.416	
17	  CA	1398.345	408.060	-1403.771	C.3	2	ASN2	0.014	
18	   C	1398.876	407.704	-1405.139	C.2	2	ASN2	0.597	
19	   O	1399.790	408.335	-1405.668	O.2	2	ASN2	-0.568	
20	  CB	1398.837	407.037	-1402.706	C.3	2	ASN2	-0.204	
21	  CG	1398.374	407.261	-1401.263	C.2	2	ASN2	0.713	
22	 ND2	1398.968	408.176	-1400.545	N.pl3	2	ASN2	-0.919	
23	 OD1	1397.453	406.627	-1400.769	O.2	2	ASN2	-0.593	
24	   H	1396.357	407.519	-1403.134	 H	2	ASN2	0.272	
25	  HA	1398.722	409.070	-1403.525	 H	2	ASN2	0.105	
26	 2HB	1399.941	406.978	-1402.710	 H	2	ASN2	0.080	
27	 3HB	1398.508	406.019	-1402.992	 H	2	ASN2	0.080	
28	1HD2	1398.487	408.348	-1399.658	 H	2	ASN2	0.420	
29	2HD2	1399.669	408.747	-1401.014	 H	2	ASN2	0.420	
30	   N	1398.354	406.709	-1405.773	N.am	3	PRO3	-0.255	
31	  CA	1398.806	406.300	-1407.095	C.3	3	PRO3	-0.027	
32	   C	1398.408	407.323	-1408.172	C.2	3	PRO3	0.590	
33	   O	1399.231	407.706	-1409.003	O.2	3	PRO3	-0.575	
34	  CB	1398.102	404.945	-1407.264	C.3	3	PRO3	-0.007	
35	  CG	1396.819	405.097	-1406.434	C.3	3	PRO3	0.019	
36	  CD	1397.276	405.916	-1405.224	C.3	3	PRO3	0.019	
37	  HA	1399.892	406.180	-1407.109	 H	3	PRO3	0.064	
38	 2HB	1398.725	404.164	-1406.823	 H	3	PRO3	0.025	
39	 3HB	1397.904	404.696	-1408.309	 H	3	PRO3	0.025	
40	 2HG	1396.391	404.135	-1406.143	 H	3	PRO3	0.021	
41	 3HG	1396.081	405.668	-1407.001	 H	3	PRO3	0.021	
42	 2HD	1397.666	405.266	-1404.437	 H	3	PRO3	0.039	
43	 3HD	1396.480	406.552	-1404.831	 H	3	PRO3	0.039	
44	   N	1397.203	407.783	-1408.204	N.am	4	GLU4	-0.516	
45	  CA	1396.843	408.754	-1409.234	C.3	4	GLU4	0.040	
46	   C	1397.742	409.966	-1409.172	C.2	4	GLU4	0.537	
47	   O	1398.268	410.445	-1410.187	O.2	4	GLU4	-0.582	
48	  CB	1395.355	409.173	-1409.063	C.3	4	GLU4	0.056	
49	  CG	1394.806	410.177	-1410.129	C.3	4	GLU4	0.014	
50	  CD	1393.380	410.673	-1409.985	C.2	4	GLU4	0.805	
51	 OE1	1392.654	410.275	-1409.054	O.co2	4	GLU4	-0.819	
52	 OE2	1392.990	411.502	-1410.833	O.co2	4	GLU4	-0.819	
53	   H	1396.519	407.476	-1407.527	 H	4	GLU4	0.294	
54	  HA	1396.974	408.284	-1410.225	 H	4	GLU4	0.111	
55	 2HB	1395.202	409.613	-1408.056	 H	4	GLU4	-0.017	
56	 3HB	1394.707	408.275	-1409.069	 H	4	GLU4	-0.017	
57	 2HG	1394.888	409.762	-1411.146	 H	4	GLU4	-0.043	
58	 3HG	1395.394	411.109	-1410.140	 H	4	GLU4	-0.043	
59	   N	1397.970	410.518	-1408.029	N.am	5	SER5	-0.416	
60	  CA	1398.839	411.690	-1407.971	C.3	5	SER5	-0.025	
61	   C	1400.198	411.384	-1408.557	C.2	5	SER5	0.597	
62	   O	1400.745	412.138	-1409.361	O.2	5	SER5	-0.568	
63	  CB	1398.951	412.222	-1406.520	C.3	5	SER5	0.212	
64	  OG	1399.683	411.342	-1405.659	O.3	5	SER5	-0.655	
65	   H	1397.553	410.147	-1407.188	 H	5	SER5	0.272	
66	  HA	1398.390	412.480	-1408.600	 H	5	SER5	0.084	
67	 2HB	1397.951	412.415	-1406.087	 H	5	SER5	0.035	
68	 3HB	1399.456	413.207	-1406.522	 H	5	SER5	0.035	
69	  HG	1399.194	410.517	-1405.609	 H	5	SER5	0.428	
70	   N	1400.803	410.301	-1408.203	N.am	6	ILE6	-0.416	
71	  CA	1402.116	410.006	-1408.769	C.3	6	ILE6	-0.060	
72	   C	1402.058	409.969	-1410.277	C.2	6	ILE6	0.597	
73	   O	1402.893	410.557	-1410.981	O.2	6	ILE6	-0.568	
74	  CB	1402.715	408.670	-1408.169	C.3	6	ILE6	0.130	
75	 CG1	1402.735	408.608	-1406.608	C.3	6	ILE6	-0.043	
76	 CG2	1404.157	408.369	-1408.685	C.3	6	ILE6	-0.320	
77	 CD1	1403.005	407.219	-1405.994	C.3	6	ILE6	-0.066	
78	   H	1400.374	409.667	-1407.544	 H	6	ILE6	0.272	
79	  HA	1402.790	410.841	-1408.501	 H	6	ILE6	0.087	
80	  HB	1402.058	407.844	-1408.513	 H	6	ILE6	0.019	
81	2HG1	1401.753	408.928	-1406.212	 H	6	ILE6	0.024	
82	3HG1	1403.451	409.350	-1406.203	 H	6	ILE6	0.024	
83	1HG2	1404.216	408.275	-1409.783	 H	6	ILE6	0.088	
84	2HG2	1404.879	409.151	-1408.383	 H	6	ILE6	0.088	
85	3HG2	1404.547	407.407	-1408.306	 H	6	ILE6	0.088	
86	1HD1	1402.277	406.464	-1406.348	 H	6	ILE6	0.019	
87	2HD1	1404.016	406.840	-1406.229	 H	6	ILE6	0.019	
88	3HD1	1402.929	407.248	-1404.891	 H	6	ILE6	0.019	
89	   N	1401.112	409.306	-1410.850	N.am	7	LEU7	-0.416	
90	  CA	1401.057	409.270	-1412.309	C.3	7	LEU7	-0.052	
91	   C	1400.985	410.665	-1412.881	C.2	7	LEU7	0.597	
92	   O	1401.705	411.028	-1413.823	O.2	7	LEU7	-0.568	
93	  CB	1399.854	408.409	-1412.789	C.3	7	LEU7	-0.110	
94	  CG	1399.782	406.930	-1412.323	C.3	7	LEU7	0.353	
95	 CD1	1398.592	406.224	-1412.989	C.3	7	LEU7	-0.412	
96	 CD2	1401.075	406.151	-1412.615	C.3	7	LEU7	-0.412	
97	   H	1400.421	408.818	-1410.299	 H	7	LEU7	0.272	
98	  HA	1401.999	408.830	-1412.683	 H	7	LEU7	0.092	
99	 2HB	1399.831	408.426	-1413.897	 H	7	LEU7	0.046	
100	 3HB	1398.915	408.912	-1412.485	 H	7	LEU7	0.046	
101	  HG	1399.612	406.922	-1411.226	 H	7	LEU7	-0.036	
102	1HD1	1397.635	406.733	-1412.766	 H	7	LEU7	0.100	
103	2HD1	1398.691	406.184	-1414.090	 H	7	LEU7	0.100	
104	3HD1	1398.485	405.183	-1412.633	 H	7	LEU7	0.100	
105	1HD2	1401.350	406.182	-1413.685	 H	7	LEU7	0.100	
106	2HD2	1401.929	406.563	-1412.044	 H	7	LEU7	0.100	
107	3HD2	1400.994	405.089	-1412.319	 H	7	LEU7	0.100	
108	   N	1400.148	411.506	-1412.375	N.am	8	ASP8	-0.516	
109	  CA	1400.077	412.855	-1412.928	C.3	8	ASP8	0.038	
110	   C	1401.424	413.535	-1412.870	C.2	8	ASP8	0.537	
111	   O	1401.896	414.141	-1413.845	O.2	8	ASP8	-0.582	
112	  CB	1398.999	413.694	-1412.186	C.3	8	ASP8	-0.030	
113	  CG	1398.780	415.115	-1412.726	C.2	8	ASP8	0.799	
114	 OD1	1398.844	415.314	-1413.956	O.co2	8	ASP8	-0.801	
115	 OD2	1398.588	416.041	-1411.910	O.co2	8	ASP8	-0.801	
116	   H	1399.550	411.234	-1411.607	 H	8	ASP8	0.294	
117	  HA	1399.794	412.778	-1413.995	 H	8	ASP8	0.088	
118	 2HB	1399.256	413.777	-1411.114	 H	8	ASP8	-0.012	
119	 3HB	1398.020	413.189	-1412.219	 H	8	ASP8	-0.012	
120	   N	1402.104	413.485	-1411.775	N.am	9	ILE9	-0.416	
121	  CA	1403.406	414.143	-1411.720	C.3	9	ILE9	-0.060	
122	   C	1404.324	413.616	-1412.796	C.2	9	ILE9	0.597	
123	   O	1404.988	414.372	-1413.521	O.2	9	ILE9	-0.568	
124	  CB	1404.054	414.020	-1410.281	C.3	9	ILE9	0.130	
125	 CG1	1403.128	414.478	-1409.109	C.3	9	ILE9	-0.043	
126	 CG2	1405.406	414.787	-1410.158	C.3	9	ILE9	-0.320	
127	 CD1	1403.589	414.078	-1407.691	C.3	9	ILE9	-0.066	
128	   H	1401.740	412.999	-1410.968	 H	9	ILE9	0.272	
129	  HA	1403.248	415.215	-1411.939	 H	9	ILE9	0.087	
130	  HB	1404.265	412.942	-1410.119	 H	9	ILE9	0.019	
131	2HG1	1402.123	414.034	-1409.235	 H	9	ILE9	0.024	
132	3HG1	1402.956	415.571	-1409.160	 H	9	ILE9	0.024	
133	1HG2	1406.169	414.442	-1410.878	 H	9	ILE9	0.088	
134	2HG2	1405.282	415.876	-1410.309	 H	9	ILE9	0.088	
135	3HG2	1405.880	414.650	-1409.169	 H	9	ILE9	0.088	
136	1HD1	1403.728	412.984	-1407.599	 H	9	ILE9	0.019	
137	2HD1	1404.541	414.559	-1407.404	 H	9	ILE9	0.019	
138	3HD1	1402.844	414.375	-1406.930	 H	9	ILE9	0.019	
139	   N	1404.421	412.341	-1412.966	N.am	10	HIS10	-0.416	
140	  CA	1405.309	411.830	-1414.006	C.3	10	HIS10	-0.058	
141	   C	1404.942	412.395	-1415.357	C.2	10	HIS10	0.597	
142	   O	1405.794	412.861	-1416.129	O.2	10	HIS10	-0.568	
143	  CB	1405.146	410.301	-1414.002	C.3	10	HIS10	-0.007	
144	  CG	1406.432	409.592	-1413.694	C.2	10	HIS10	0.187	
145	 CD2	1406.813	409.256	-1412.402	C.2	10	HIS10	-0.221	
146	 ND1	1407.384	409.187	-1414.627	N.2	10	HIS10	-0.543	
147	 CE1	1408.291	408.628	-1413.804	C.2	10	HIS10	0.163	
148	 NE2	1408.028	408.625	-1412.469	N.pl3	10	HIS10	-0.280	
149	   H	1403.891	411.705	-1412.388	 H	10	HIS10	0.272	
150	  HA	1406.328	412.188	-1413.781	 H	10	HIS10	0.136	
151	 2HB	1404.781	409.935	-1414.982	 H	10	HIS10	0.037	
152	 3HB	1404.391	409.964	-1413.262	 H	10	HIS10	0.037	
153	 2HD	1406.228	409.471	-1411.513	 H	10	HIS10	0.186	
154	 1HE	1409.182	408.208	-1414.251	 H	10	HIS10	0.144	
155	 2HE	1408.595	408.248	-1411.696	 H	10	HIS10	0.334	
156	   N	1403.704	412.394	-1415.720	N.am	11	VAL11	-0.416	
157	  CA	1403.349	412.940	-1417.027	C.3	11	VAL11	-0.087	
158	   C	1403.813	414.371	-1417.159	C.2	11	VAL11	0.597	
159	   O	1404.414	414.777	-1418.162	O.2	11	VAL11	-0.568	
160	  CB	1401.788	412.833	-1417.247	C.3	11	VAL11	0.299	
161	 CG1	1401.219	413.537	-1418.509	C.3	11	VAL11	-0.319	
162	 CG2	1401.264	411.379	-1417.320	C.3	11	VAL11	-0.319	
163	   H	1402.991	412.020	-1415.110	 H	11	VAL11	0.272	
164	  HA	1403.869	412.358	-1417.810	 H	11	VAL11	0.097	
165	  HB	1401.300	413.313	-1416.371	 H	11	VAL11	-0.030	
166	1HG1	1401.658	413.146	-1419.446	 H	11	VAL11	0.079	
167	2HG1	1400.120	413.430	-1418.591	 H	11	VAL11	0.079	
168	3HG1	1401.397	414.630	-1418.499	 H	11	VAL11	0.079	
169	1HG2	1401.554	410.791	-1416.430	 H	11	VAL11	0.079	
170	2HG2	1400.158	411.341	-1417.363	 H	11	VAL11	0.079	
171	3HG2	1401.646	410.839	-1418.207	 H	11	VAL11	0.079	
172	   N	1403.575	415.197	-1416.196	N.am	12	GLN12	-0.416	
173	  CA	1404.023	416.580	-1416.323	C.3	12	GLN12	-0.003	
174	   C	1405.513	416.648	-1416.561	C.2	12	GLN12	0.597	
175	   O	1406.000	417.357	-1417.439	O.2	12	GLN12	-0.568	
176	  CB	1403.631	417.347	-1415.040	C.3	12	GLN12	-0.004	
177	  CG	1403.991	418.869	-1415.008	C.3	12	GLN12	-0.064	
178	  CD	1403.688	419.681	-1413.743	C.2	12	GLN12	0.695	
179	 NE2	1403.121	419.104	-1412.714	N.pl3	12	GLN12	-0.941	
180	 OE1	1403.989	420.862	-1413.665	O.2	12	GLN12	-0.609	
181	   H	1403.087	414.890	-1415.367	 H	12	GLN12	0.272	
182	  HA	1403.523	417.036	-1417.198	 H	12	GLN12	0.085	
183	 2HB	1404.108	416.846	-1414.171	 H	12	GLN12	0.017	
184	 3HB	1402.541	417.238	-1414.877	 H	12	GLN12	0.017	
185	 2HG	1403.513	419.389	-1415.859	 H	12	GLN12	0.035	
186	 3HG	1405.074	419.011	-1415.174	 H	12	GLN12	0.035	
187	1HE2	1403.013	419.698	-1411.891	 H	12	GLN12	0.425	
188	2HE2	1402.958	418.101	-1412.818	 H	12	GLN12	0.425	
189	   N	1406.298	415.942	-1415.820	N.am	13	ARG13	-0.348	
190	  CA	1407.738	416.009	-1416.051	C.3	13	ARG13	-0.264	
191	   C	1408.075	415.638	-1417.476	C.2	13	ARG13	0.734	
192	   O	1408.843	416.311	-1418.160	O.2	13	ARG13	-0.589	
193	  CB	1408.452	415.070	-1415.037	C.3	13	ARG13	-0.001	
194	  CG	1409.997	415.224	-1414.957	C.3	13	ARG13	0.039	
195	  CD	1410.625	414.236	-1413.959	C.3	13	ARG13	0.049	
196	  NE	1412.102	414.444	-1413.909	N.pl3	13	ARG13	-0.530	
197	  CZ	1412.951	413.753	-1413.154	C.cat	13	ARG13	0.808	
198	 NH1	1412.587	412.788	-1412.357	N.pl3	13	ARG13	-0.863	
199	 NH2	1414.210	414.053	-1413.211	N.pl3	13	ARG13	-0.863	
200	   H	1405.922	415.351	-1415.092	 H	13	ARG13	0.275	
201	  HA	1408.062	417.055	-1415.892	 H	13	ARG13	0.156	
202	 2HB	1408.187	414.019	-1415.277	 H	13	ARG13	0.033	
203	 3HB	1408.027	415.235	-1414.027	 H	13	ARG13	0.033	
204	 2HG	1410.245	416.269	-1414.677	 H	13	ARG13	0.029	
205	 3HG	1410.448	415.069	-1415.958	 H	13	ARG13	0.029	
206	 2HD	1410.382	413.196	-1414.269	 H	13	ARG13	0.069	
207	 3HD	1410.168	414.381	-1412.957	 H	13	ARG13	0.069	
208	  HE	1412.553	415.167	-1414.479	 H	13	ARG13	0.346	
209	1HH1	1411.581	412.601	-1412.360	 H	13	ARG13	0.448	
210	2HH1	1413.300	412.305	-1411.809	 H	13	ARG13	0.448	
211	1HH2	1414.477	414.811	-1413.842	 H	13	ARG13	0.448	
212	2HH2	1414.846	413.512	-1412.623	 H	13	ARG13	0.448	
213	   N	1407.539	414.583	-1417.991	N.am	14	VAL14	-0.416	
214	  CA	1407.864	414.225	-1419.369	C.3	14	VAL14	-0.087	
215	   C	1407.533	415.356	-1420.313	C.2	14	VAL14	0.597	
216	   O	1408.326	415.738	-1421.183	O.2	14	VAL14	-0.568	
217	  CB	1407.092	412.908	-1419.776	C.3	14	VAL14	0.299	
218	 CG1	1407.181	412.491	-1421.270	C.3	14	VAL14	-0.319	
219	 CG2	1407.525	411.655	-1418.977	C.3	14	VAL14	-0.319	
220	   H	1406.905	414.014	-1417.449	 H	14	VAL14	0.272	
221	  HA	1408.952	414.049	-1419.444	 H	14	VAL14	0.097	
222	  HB	1406.016	413.078	-1419.560	 H	14	VAL14	-0.030	
223	1HG1	1408.223	412.314	-1421.599	 H	14	VAL14	0.079	
224	2HG1	1406.609	411.567	-1421.483	 H	14	VAL14	0.079	
225	3HG1	1406.752	413.253	-1421.948	 H	14	VAL14	0.079	
226	1HG2	1407.438	411.813	-1417.886	 H	14	VAL14	0.079	
227	2HG2	1406.890	410.779	-1419.209	 H	14	VAL14	0.079	
228	3HG2	1408.573	411.366	-1419.183	 H	14	VAL14	0.079	
229	   N	1406.388	415.941	-1420.211	N.am	15	MET15	-0.416	
230	  CA	1406.066	417.034	-1421.124	C.3	15	MET15	-0.024	
231	   C	1407.096	418.134	-1421.036	C.2	15	MET15	0.597	
232	   O	1407.598	418.646	-1422.048	O.2	15	MET15	-0.568	
233	  CB	1404.645	417.578	-1420.815	C.3	15	MET15	0.034	
234	  CG	1403.483	416.579	-1421.007	C.3	15	MET15	0.002	
235	  SD	1401.909	417.444	-1420.892	S.3	15	MET15	-0.274	
236	  CE	1400.829	416.013	-1420.756	C.3	15	MET15	-0.054	
237	   H	1405.723	415.647	-1419.510	 H	15	MET15	0.272	
238	  HA	1406.092	416.647	-1422.160	 H	15	MET15	0.088	
239	 2HB	1404.442	418.457	-1421.457	 H	15	MET15	0.024	
240	 3HB	1404.609	417.970	-1419.778	 H	15	MET15	0.024	
241	 2HG	1403.527	415.793	-1420.230	 H	15	MET15	0.044	
242	 3HG	1403.547	416.064	-1421.984	 H	15	MET15	0.044	
243	 1HE	1400.973	415.326	-1421.609	 H	15	MET15	0.068	
244	 2HE	1401.038	415.460	-1419.824	 H	15	MET15	0.068	
245	 3HE	1399.771	416.328	-1420.739	 H	15	MET15	0.068	
246	   N	1407.464	418.555	-1419.874	N.am	16	ARG16	-0.348	
247	  CA	1408.460	419.619	-1419.789	C.3	16	ARG16	-0.264	
248	   C	1409.731	419.228	-1420.506	C.2	16	ARG16	0.734	
249	   O	1409.846	418.152	-1421.088	O.2	16	ARG16	-0.589	
250	  CB	1408.729	419.937	-1418.291	C.3	16	ARG16	-0.001	
251	  CG	1409.553	421.226	-1418.017	C.3	16	ARG16	0.039	
252	  CD	1409.803	421.445	-1416.516	C.3	16	ARG16	0.049	
253	  NE	1410.578	422.704	-1416.314	N.pl3	16	ARG16	-0.530	
254	  CZ	1410.969	423.186	-1415.138	C.cat	16	ARG16	0.808	
255	 NH1	1410.722	422.601	-1414.000	N.pl3	16	ARG16	-0.863	
256	 NH2	1411.632	424.299	-1415.119	N.pl3	16	ARG16	-0.863	
257	   H	1407.070	418.154	-1419.035	 H	16	ARG16	0.275	
258	  HA	1408.050	420.512	-1420.299	 H	16	ARG16	0.156	
259	 2HB	1409.227	419.061	-1417.825	 H	16	ARG16	0.033	
260	 3HB	1407.760	420.017	-1417.757	 H	16	ARG16	0.033	
261	 2HG	1409.022	422.097	-1418.454	 H	16	ARG16	0.029	
262	 3HG	1410.527	421.174	-1418.547	 H	16	ARG16	0.029	
263	 2HD	1410.352	420.570	-1416.103	 H	16	ARG16	0.069	
264	 3HD	1408.830	421.486	-1415.981	 H	16	ARG16	0.069	
265	  HE	1410.856	423.286	-1417.111	 H	16	ARG16	0.346	
266	1HH1	1410.197	421.728	-1414.085	 H	16	ARG16	0.448	
267	2HH1	1411.056	423.036	-1413.139	 H	16	ARG16	0.448	
268	1HH2	1411.818	424.743	-1416.021	 H	16	ARG16	0.448	
269	2HH2	1411.922	424.654	-1414.207	 H	16	ARG16	0.448	
@<TRIPOS>BOND
1 1 2 1
2 1 10 1
3 2 3 1
4 2 5 1
5 2 11 1
6 3 4 2
7 3 16 1
8 5 6 1
9 6 7 1
10 7 8 2
11 7 9 1
12 5 12 1
13 5 13 1
14 6 14 1
15 6 15 1
16 16 17 1
17 16 24 1
18 17 18 1
19 17 20 1
20 17 25 1
21 18 19 2
22 18 30 1
23 20 21 1
24 21 22 1
25 21 23 2
26 20 26 1
27 20 27 1
28 22 28 1
29 22 29 1
30 30 31 1
31 30 36 1
32 31 32 1
33 31 34 1
34 31 37 1
35 32 33 2
36 32 44 1
37 34 35 1
38 35 36 1
39 34 38 1
40 34 39 1
41 35 40 1
42 35 41 1
43 36 42 1
44 36 43 1
45 44 45 1
46 44 53 1
47 45 46 1
48 45 48 1
49 45 54 1
50 46 47 2
51 46 59 1
52 48 49 1
53 49 50 1
54 50 51 2
55 50 52 1
56 48 55 1
57 48 56 1
58 49 57 1
59 49 58 1
60 59 60 1
61 59 65 1
62 60 61 1
63 60 63 1
64 60 66 1
65 61 62 2
66 61 70 1
67 63 64 1
68 63 67 1
69 63 68 1
70 64 69 1
71 70 71 1
72 70 78 1
73 71 72 1
74 71 74 1
75 71 79 1
76 72 73 2
77 72 89 1
78 74 75 1
79 74 76 1
80 75 77 1
81 74 80 1
82 75 81 1
83 75 82 1
84 76 83 1
85 76 84 1
86 76 85 1
87 77 86 1
88 77 87 1
89 77 88 1
90 89 90 1
91 89 97 1
92 90 91 1
93 90 93 1
94 90 98 1
95 91 92 2
96 91 108 1
97 93 94 1
98 94 95 1
99 94 96 1
100 93 99 1
101 93 100 1
102 94 101 1
103 95 102 1
104 95 103 1
105 95 104 1
106 96 105 1
107 96 106 1
108 96 107 1
109 108 109 1
110 108 116 1
111 109 110 1
112 109 112 1
113 109 117 1
114 110 111 2
115 110 120 1
116 112 113 1
117 113 114 2
118 113 115 1
119 112 118 1
120 112 119 1
121 120 121 1
122 120 128 1
123 121 122 1
124 121 124 1
125 121 129 1
126 122 123 2
127 122 139 1
128 124 125 1
129 124 126 1
130 125 127 1
131 124 130 1
132 125 131 1
133 125 132 1
134 126 133 1
135 126 134 1
136 126 135 1
137 127 136 1
138 127 137 1
139 127 138 1
140 139 140 1
141 139 149 1
142 140 141 1
143 140 143 1
144 140 150 1
145 141 142 2
146 141 156 1
147 143 144 1
148 144 145 2
149 145 148 1
150 144 146 1
151 146 147 2
152 147 148 1
153 143 151 1
154 143 152 1
155 145 153 1
156 147 154 1
157 148 155 1
158 156 157 1
159 156 163 1
160 157 158 1
161 157 160 1
162 157 164 1
163 158 159 2
164 158 172 1
165 160 161 1
166 160 162 1
167 160 165 1
168 161 166 1
169 161 167 1
170 161 168 1
171 162 169 1
172 162 170 1
173 162 171 1
174 172 173 1
175 172 181 1
176 173 174 1
177 173 176 1
178 173 182 1
179 174 175 2
180 174 189 1
181 176 177 1
182 177 178 1
183 178 179 1
184 178 180 2
185 176 183 1
186 176 184 1
187 177 185 1
188 177 186 1
189 179 187 1
190 179 188 1
191 189 190 1
192 189 200 1
193 190 191 1
194 190 193 1
195 190 201 1
196 191 192 2
197 191 213 1
198 193 194 1
199 194 195 1
200 195 196 1
201 196 197 1
202 197 198 2
203 197 199 1
204 193 202 1
205 193 203 1
206 194 204 1
207 194 205 1
208 195 206 1
209 195 207 1
210 196 208 1
211 198 209 1
212 198 210 1
213 199 211 1
214 199 212 1
215 213 214 1
216 213 220 1
217 214 215 1
218 214 217 1
219 214 221 1
220 215 216 2
221 215 229 1
222 217 218 1
223 217 219 1
224 217 222 1
225 218 223 1
226 218 224 1
227 218 225 1
228 219 226 1
229 219 227 1
230 219 228 1
231 229 230 1
232 229 237 1
233 230 231 1
234 230 233 1
235 230 238 1
236 231 232 2
237 231 246 1
238 233 234 1
239 234 235 1
240 235 236 1
241 233 239 1
242 233 240 1
243 234 241 1
244 234 242 1
245 236 243 1
246 236 244 1
247 236 245 1
248 246 247 1
249 246 257 1
250 247 248 1
251 247 250 1
252 247 258 1
253 248 249 2
254 250 251 1
255 251 252 1
256 252 253 1
257 253 254 1
258 254 255 2
259 254 256 1
260 250 259 1
261 250 260 1
262 251 261 1
263 251 262 1
264 252 263 1
265 252 264 1
266 253 265 1
267 255 266 1
268 255 267 1
269 256 268 1
270 256 269 1
@<TRIPOS>SUBSTRUCTURE
1	GLU1	1	RESIDUE	1 ****	GLU
2	ASN2	16	RESIDUE	1 ****	ASN
3	PRO3	30	RESIDUE	1 ****	PRO
4	GLU4	44	RESIDUE	1 ****	GLU
5	SER5	59	RESIDUE	1 ****	SER
6	ILE6	70	RESIDUE	1 ****	ILE
7	LEU7	89	RESIDUE	1 ****	LEU
8	ASP8	108	RESIDUE	1 ****	ASP
9	ILE9	120	RESIDUE	1 ****	ILE
10	HIS10	139	RESIDUE	1 ****	HIS
11	VAL11	156	RESIDUE	1 ****	VAL
12	GLN12	172	RESIDUE	1 ****	GLN
13	ARG13	189	RESIDUE	1 ****	ARG
14	VAL14	213	RESIDUE	1 ****	VAL
15	MET15	229	RESIDUE	1 ****	MET
16	ARG16	246	RESIDUE	1 ****	ARG
