@<TRIPOS>MOLECULE
7-20
270 271 16              
SMALL
USER_CHARGES
@<TRIPOS>ATOM
1	   N	1181.894	337.793	-1174.121	N.3	1	GLU1	-0.516	
2	  CA	1182.453	339.142	-1174.121	C.3	1	GLU1	0.040	
3	   C	1183.962	339.102	-1174.121	C.2	1	GLU1	0.537	
4	   O	1184.638	339.801	-1174.890	O.2	1	GLU1	-0.582	
5	  CB	1181.930	339.927	-1172.884	C.3	1	GLU1	0.056	
6	  CG	1182.405	341.412	-1172.773	C.3	1	GLU1	0.014	
7	  CD	1181.981	342.216	-1171.558	C.2	1	GLU1	0.805	
8	 OE1	1181.253	341.714	-1170.680	O.co2	1	GLU1	-0.819	
9	 OE2	1182.411	343.386	-1171.486	O.co2	1	GLU1	-0.819	
10	   H	1182.521	336.914	-1174.121	 H	1	GLU1	0.294	
11	  HA	1182.127	339.660	-1175.041	 H	1	GLU1	0.111	
12	 2HB	1182.219	339.396	-1171.954	 H	1	GLU1	-0.017	
13	 3HB	1180.823	339.917	-1172.871	 H	1	GLU1	-0.017	
14	 2HG	1182.095	341.997	-1173.654	 H	1	GLU1	-0.043	
15	 3HG	1183.505	341.479	-1172.744	 H	1	GLU1	-0.043	
16	   N	1184.567	338.316	-1173.296	N.am	2	ASN2	-0.416	
17	  CA	1186.026	338.277	-1173.296	C.3	2	ASN2	0.014	
18	   C	1186.557	337.922	-1174.665	C.2	2	ASN2	0.597	
19	   O	1187.472	338.552	-1175.193	O.2	2	ASN2	-0.568	
20	  CB	1186.518	337.254	-1172.232	C.3	2	ASN2	-0.204	
21	  CG	1186.055	337.478	-1170.788	C.2	2	ASN2	0.713	
22	 ND2	1186.649	338.393	-1170.070	N.pl3	2	ASN2	-0.919	
23	 OD1	1185.134	336.844	-1170.294	O.2	2	ASN2	-0.593	
24	   H	1184.039	337.736	-1172.660	 H	2	ASN2	0.272	
25	  HA	1186.403	339.287	-1173.051	 H	2	ASN2	0.105	
26	 2HB	1187.623	337.195	-1172.235	 H	2	ASN2	0.080	
27	 3HB	1186.189	336.236	-1172.517	 H	2	ASN2	0.080	
28	1HD2	1186.169	338.566	-1169.184	 H	2	ASN2	0.420	
29	2HD2	1187.351	338.965	-1170.540	 H	2	ASN2	0.420	
30	   N	1186.036	336.927	-1175.299	N.am	3	PRO3	-0.255	
31	  CA	1186.487	336.517	-1176.620	C.3	3	PRO3	-0.027	
32	   C	1186.089	337.541	-1177.697	C.2	3	PRO3	0.590	
33	   O	1186.912	337.924	-1178.529	O.2	3	PRO3	-0.575	
34	  CB	1185.783	335.163	-1176.790	C.3	3	PRO3	-0.007	
35	  CG	1184.500	335.315	-1175.959	C.3	3	PRO3	0.019	
36	  CD	1184.958	336.134	-1174.750	C.3	3	PRO3	0.019	
37	  HA	1187.573	336.398	-1176.634	 H	3	PRO3	0.064	
38	 2HB	1186.406	334.382	-1176.349	 H	3	PRO3	0.025	
39	 3HB	1185.585	334.914	-1177.835	 H	3	PRO3	0.025	
40	 2HG	1184.073	334.353	-1175.668	 H	3	PRO3	0.021	
41	 3HG	1183.762	335.886	-1176.527	 H	3	PRO3	0.021	
42	 2HD	1185.347	335.484	-1173.962	 H	3	PRO3	0.039	
43	 3HD	1184.161	336.769	-1174.357	 H	3	PRO3	0.039	
44	   N	1184.885	338.001	-1177.729	N.am	4	GLU4	-0.516	
45	  CA	1184.525	338.972	-1178.759	C.3	4	GLU4	0.040	
46	   C	1185.424	340.183	-1178.698	C.2	4	GLU4	0.537	
47	   O	1185.950	340.663	-1179.712	O.2	4	GLU4	-0.582	
48	  CB	1183.036	339.391	-1178.589	C.3	4	GLU4	0.056	
49	  CG	1182.488	340.394	-1179.654	C.3	4	GLU4	0.014	
50	  CD	1181.061	340.891	-1179.510	C.2	4	GLU4	0.805	
51	 OE1	1180.335	340.492	-1178.579	O.co2	4	GLU4	-0.819	
52	 OE2	1180.672	341.720	-1180.358	O.co2	4	GLU4	-0.819	
53	   H	1184.200	337.694	-1177.053	 H	4	GLU4	0.294	
54	  HA	1184.656	338.502	-1179.750	 H	4	GLU4	0.111	
55	 2HB	1182.884	339.831	-1177.582	 H	4	GLU4	-0.017	
56	 3HB	1182.388	338.493	-1178.595	 H	4	GLU4	-0.017	
57	 2HG	1182.569	339.979	-1180.672	 H	4	GLU4	-0.043	
58	 3HG	1183.076	341.327	-1179.665	 H	4	GLU4	-0.043	
59	   N	1185.651	340.736	-1177.555	N.am	5	SER5	-0.416	
60	  CA	1186.521	341.907	-1177.496	C.3	5	SER5	-0.025	
61	   C	1187.879	341.602	-1178.082	C.2	5	SER5	0.597	
62	   O	1188.426	342.355	-1178.887	O.2	5	SER5	-0.568	
63	  CB	1186.632	342.439	-1176.046	C.3	5	SER5	0.212	
64	  OG	1187.364	341.560	-1175.185	O.3	5	SER5	-0.655	
65	   H	1185.234	340.364	-1176.713	 H	5	SER5	0.272	
66	  HA	1186.071	342.698	-1178.125	 H	5	SER5	0.084	
67	 2HB	1185.632	342.633	-1175.612	 H	5	SER5	0.035	
68	 3HB	1187.137	343.425	-1176.048	 H	5	SER5	0.035	
69	  HG	1186.875	340.735	-1175.134	 H	5	SER5	0.428	
70	   N	1188.484	340.519	-1177.728	N.am	6	ILE6	-0.416	
71	  CA	1189.797	340.224	-1178.295	C.3	6	ILE6	-0.060	
72	   C	1189.740	340.187	-1179.802	C.2	6	ILE6	0.597	
73	   O	1190.575	340.775	-1180.506	O.2	6	ILE6	-0.568	
74	  CB	1190.397	338.888	-1177.695	C.3	6	ILE6	0.130	
75	 CG1	1190.417	338.826	-1176.134	C.3	6	ILE6	-0.043	
76	 CG2	1191.838	338.587	-1178.210	C.3	6	ILE6	-0.320	
77	 CD1	1190.687	337.436	-1175.519	C.3	6	ILE6	-0.066	
78	   H	1188.056	339.884	-1177.069	 H	6	ILE6	0.272	
79	  HA	1190.471	341.059	-1178.027	 H	6	ILE6	0.087	
80	  HB	1189.739	338.062	-1178.039	 H	6	ILE6	0.019	
81	2HG1	1189.434	339.145	-1175.738	 H	6	ILE6	0.024	
82	3HG1	1191.132	339.568	-1175.729	 H	6	ILE6	0.024	
83	1HG2	1191.897	338.493	-1179.309	 H	6	ILE6	0.088	
84	2HG2	1192.560	339.369	-1177.908	 H	6	ILE6	0.088	
85	3HG2	1192.229	337.624	-1177.832	 H	6	ILE6	0.088	
86	1HD1	1189.959	336.682	-1175.874	 H	6	ILE6	0.019	
87	2HD1	1191.697	337.058	-1175.755	 H	6	ILE6	0.019	
88	3HD1	1190.611	337.466	-1174.416	 H	6	ILE6	0.019	
89	   N	1188.794	339.523	-1180.376	N.am	7	ARG7	-0.348	
90	  CA	1188.739	339.487	-1181.835	C.3	7	ARG7	-0.264	
91	   C	1188.666	340.883	-1182.407	C.2	7	ARG7	0.734	
92	   O	1189.380	341.243	-1183.340	O.2	7	ARG7	-0.589	
93	  CB	1187.515	338.632	-1182.269	C.3	7	ARG7	-0.001	
94	  CG	1187.460	338.260	-1183.777	C.3	7	ARG7	0.039	
95	  CD	1186.203	337.447	-1184.127	C.3	7	ARG7	0.049	
96	  NE	1186.216	337.101	-1185.579	N.pl3	7	ARG7	-0.530	
97	  CZ	1185.274	336.410	-1186.213	C.cat	7	ARG7	0.808	
98	 NH1	1184.203	335.947	-1185.631	N.pl3	7	ARG7	-0.863	
99	 NH2	1185.426	336.180	-1187.479	N.pl3	7	ARG7	-0.863	
100	   H	1188.102	339.036	-1179.825	 H	7	ARG7	0.275	
101	  HA	1189.675	339.024	-1182.201	 H	7	ARG7	0.156	
102	 2HB	1186.586	339.164	-1181.974	 H	7	ARG7	0.033	
103	 3HB	1187.495	337.697	-1181.673	 H	7	ARG7	0.033	
104	 2HG	1188.376	337.694	-1184.046	 H	7	ARG7	0.029	
105	 3HG	1187.485	339.179	-1184.397	 H	7	ARG7	0.029	
106	 2HD	1185.298	338.039	-1183.868	 H	7	ARG7	0.069	
107	 3HD	1186.168	336.530	-1183.500	 H	7	ARG7	0.069	
108	  HE	1186.990	337.393	-1186.183	 H	7	ARG7	0.346	
109	1HH1	1184.143	336.164	-1184.633	 H	7	ARG7	0.448	
110	2HH1	1183.526	335.424	-1186.188	 H	7	ARG7	0.448	
111	1HH2	1186.270	336.551	-1187.918	 H	7	ARG7	0.448	
112	2HH2	1184.692	335.646	-1187.948	 H	7	ARG7	0.448	
113	   N	1187.829	341.724	-1181.900	N.am	8	ASP8	-0.516	
114	  CA	1187.759	343.074	-1182.453	C.3	8	ASP8	0.038	
115	   C	1189.106	343.753	-1182.396	C.2	8	ASP8	0.537	
116	   O	1189.578	344.358	-1183.371	O.2	8	ASP8	-0.582	
117	  CB	1186.681	343.913	-1181.712	C.3	8	ASP8	-0.030	
118	  CG	1186.462	345.334	-1182.252	C.2	8	ASP8	0.799	
119	 OD1	1186.526	345.533	-1183.482	O.co2	8	ASP8	-0.801	
120	 OD2	1186.270	346.259	-1181.436	O.co2	8	ASP8	-0.801	
121	   H	1187.231	341.453	-1181.133	 H	8	ASP8	0.294	
122	  HA	1187.476	342.996	-1183.520	 H	8	ASP8	0.088	
123	 2HB	1186.938	343.996	-1180.640	 H	8	ASP8	-0.012	
124	 3HB	1185.702	343.408	-1181.745	 H	8	ASP8	-0.012	
125	   N	1189.786	343.703	-1181.301	N.am	9	GLU9	-0.516	
126	  CA	1191.088	344.361	-1181.246	C.3	9	GLU9	0.040	
127	   C	1192.006	343.833	-1182.322	C.2	9	GLU9	0.537	
128	   O	1192.670	344.588	-1183.047	O.2	9	GLU9	-0.582	
129	  CB	1191.722	344.153	-1179.841	C.3	9	GLU9	0.056	
130	  CG	1193.105	344.845	-1179.611	C.3	9	GLU9	0.014	
131	  CD	1193.807	344.632	-1178.283	C.2	9	GLU9	0.805	
132	 OE1	1193.285	343.941	-1177.387	O.co2	9	GLU9	-0.819	
133	 OE2	1194.926	345.170	-1178.152	O.co2	9	GLU9	-0.819	
134	   H	1189.422	343.217	-1180.494	 H	9	GLU9	0.294	
135	  HA	1190.946	345.443	-1181.421	 H	9	GLU9	0.111	
136	 2HB	1191.835	343.068	-1179.637	 H	9	GLU9	-0.017	
137	 3HB	1191.025	344.506	-1179.056	 H	9	GLU9	-0.017	
138	 2HG	1193.033	345.936	-1179.751	 H	9	GLU9	-0.043	
139	 3HG	1193.851	344.500	-1180.346	 H	9	GLU9	-0.043	
140	   N	1192.103	342.558	-1182.492	N.am	10	HIS10	-0.416	
141	  CA	1192.990	342.047	-1183.532	C.3	10	HIS10	-0.058	
142	   C	1192.624	342.611	-1184.883	C.2	10	HIS10	0.597	
143	   O	1193.476	343.076	-1185.655	O.2	10	HIS10	-0.568	
144	  CB	1192.826	340.518	-1183.527	C.3	10	HIS10	-0.007	
145	  CG	1194.112	339.807	-1183.219	C.2	10	HIS10	0.187	
146	 CD2	1194.493	339.472	-1181.927	C.2	10	HIS10	-0.221	
147	 ND1	1195.064	339.402	-1184.152	N.2	10	HIS10	-0.543	
148	 CE1	1195.970	338.843	-1183.329	C.2	10	HIS10	0.163	
149	 NE2	1195.708	338.840	-1181.994	N.pl3	10	HIS10	-0.280	
150	   H	1191.572	341.923	-1181.913	 H	10	HIS10	0.272	
151	  HA	1194.010	342.404	-1183.307	 H	10	HIS10	0.136	
152	 2HB	1192.461	340.151	-1184.507	 H	10	HIS10	0.037	
153	 3HB	1192.071	340.181	-1182.787	 H	10	HIS10	0.037	
154	 2HD	1193.907	339.687	-1181.038	 H	10	HIS10	0.186	
155	 1HE	1196.861	338.422	-1183.776	 H	10	HIS10	0.144	
156	 2HE	1196.275	338.463	-1181.221	 H	10	HIS10	0.334	
157	   N	1191.386	342.610	-1185.246	N.am	11	VAL11	-0.416	
158	  CA	1191.031	343.157	-1186.553	C.3	11	VAL11	-0.087	
159	   C	1191.495	344.587	-1186.685	C.2	11	VAL11	0.597	
160	   O	1192.096	344.992	-1187.688	O.2	11	VAL11	-0.568	
161	  CB	1189.470	343.050	-1186.773	C.3	11	VAL11	0.299	
162	 CG1	1188.901	343.754	-1188.035	C.3	11	VAL11	-0.319	
163	 CG2	1188.945	341.596	-1186.846	C.3	11	VAL11	-0.319	
164	   H	1190.673	342.238	-1184.636	 H	11	VAL11	0.272	
165	  HA	1191.550	342.574	-1187.335	 H	11	VAL11	0.097	
166	  HB	1188.982	343.530	-1185.897	 H	11	VAL11	-0.030	
167	1HG1	1189.340	343.363	-1188.972	 H	11	VAL11	0.079	
168	2HG1	1187.802	343.647	-1188.117	 H	11	VAL11	0.079	
169	3HG1	1189.079	344.847	-1188.026	 H	11	VAL11	0.079	
170	1HG2	1189.235	341.009	-1185.955	 H	11	VAL11	0.079	
171	2HG2	1187.839	341.559	-1186.889	 H	11	VAL11	0.079	
172	3HG2	1189.327	341.055	-1187.733	 H	11	VAL11	0.079	
173	   N	1191.258	345.413	-1185.723	N.am	12	GLN12	-0.416	
174	  CA	1191.707	346.796	-1185.850	C.3	12	GLN12	-0.003	
175	   C	1193.197	346.863	-1186.087	C.2	12	GLN12	0.597	
176	   O	1193.684	347.572	-1186.965	O.2	12	GLN12	-0.568	
177	  CB	1191.316	347.563	-1184.567	C.3	12	GLN12	-0.004	
178	  CG	1191.677	349.085	-1184.535	C.3	12	GLN12	-0.064	
179	  CD	1191.374	349.898	-1183.271	C.2	12	GLN12	0.695	
180	 NE2	1190.807	349.321	-1182.242	N.pl3	12	GLN12	-0.941	
181	 OE1	1191.676	351.079	-1183.193	O.2	12	GLN12	-0.609	
182	   H	1190.769	345.107	-1184.894	 H	12	GLN12	0.272	
183	  HA	1191.208	347.252	-1186.724	 H	12	GLN12	0.085	
184	 2HB	1191.792	347.063	-1183.697	 H	12	GLN12	0.017	
185	 3HB	1190.226	347.456	-1184.404	 H	12	GLN12	0.017	
186	 2HG	1191.199	349.606	-1185.386	 H	12	GLN12	0.035	
187	 3HG	1192.760	349.227	-1184.701	 H	12	GLN12	0.035	
188	1HE2	1190.700	349.916	-1181.418	 H	12	GLN12	0.425	
189	2HE2	1190.643	348.318	-1182.345	 H	12	GLN12	0.425	
190	   N	1193.981	346.156	-1185.346	N.am	13	ARG13	-0.348	
191	  CA	1195.422	346.221	-1185.577	C.3	13	ARG13	-0.264	
192	   C	1195.758	345.851	-1187.002	C.2	13	ARG13	0.734	
193	   O	1196.527	346.522	-1187.686	O.2	13	ARG13	-0.589	
194	  CB	1196.135	345.282	-1184.563	C.3	13	ARG13	-0.001	
195	  CG	1197.680	345.435	-1184.482	C.3	13	ARG13	0.039	
196	  CD	1198.306	344.447	-1183.484	C.3	13	ARG13	0.049	
197	  NE	1199.783	344.654	-1183.433	N.pl3	13	ARG13	-0.530	
198	  CZ	1200.631	343.962	-1182.678	C.cat	13	ARG13	0.808	
199	 NH1	1200.266	342.997	-1181.881	N.pl3	13	ARG13	-0.863	
200	 NH2	1201.891	344.261	-1182.735	N.pl3	13	ARG13	-0.863	
201	   H	1193.605	345.566	-1184.618	 H	13	ARG13	0.275	
202	  HA	1195.746	347.267	-1185.418	 H	13	ARG13	0.156	
203	 2HB	1195.868	344.232	-1184.803	 H	13	ARG13	0.033	
204	 3HB	1195.709	345.448	-1183.552	 H	13	ARG13	0.033	
205	 2HG	1197.928	346.479	-1184.202	 H	13	ARG13	0.029	
206	 3HG	1198.130	345.279	-1185.483	 H	13	ARG13	0.029	
207	 2HD	1198.062	343.407	-1183.794	 H	13	ARG13	0.069	
208	 3HD	1197.849	344.592	-1182.482	 H	13	ARG13	0.069	
209	  HE	1200.235	345.376	-1184.004	 H	13	ARG13	0.346	
210	1HH1	1199.260	342.811	-1181.885	 H	13	ARG13	0.448	
211	2HH1	1200.979	342.514	-1181.333	 H	13	ARG13	0.448	
212	1HH2	1202.158	345.019	-1183.365	 H	13	ARG13	0.448	
213	2HH2	1202.526	343.719	-1182.146	 H	13	ARG13	0.448	
214	   N	1195.222	344.796	-1187.517	N.am	14	VAL14	-0.416	
215	  CA	1195.547	344.437	-1188.894	C.3	14	VAL14	-0.087	
216	   C	1195.217	345.568	-1189.840	C.2	14	VAL14	0.597	
217	   O	1196.011	345.949	-1190.709	O.2	14	VAL14	-0.568	
218	  CB	1194.774	343.120	-1189.302	C.3	14	VAL14	0.299	
219	 CG1	1194.863	342.703	-1190.795	C.3	14	VAL14	-0.319	
220	 CG2	1195.205	341.868	-1188.502	C.3	14	VAL14	-0.319	
221	   H	1194.587	344.228	-1186.975	 H	14	VAL14	0.272	
222	  HA	1196.635	344.260	-1188.969	 H	14	VAL14	0.097	
223	  HB	1193.698	343.292	-1189.086	 H	14	VAL14	-0.030	
224	1HG1	1195.904	342.526	-1191.124	 H	14	VAL14	0.079	
225	2HG1	1194.290	341.780	-1191.008	 H	14	VAL14	0.079	
226	3HG1	1194.434	343.465	-1191.473	 H	14	VAL14	0.079	
227	1HG2	1195.118	342.026	-1187.411	 H	14	VAL14	0.079	
228	2HG2	1194.570	340.992	-1188.734	 H	14	VAL14	0.079	
229	3HG2	1196.253	341.578	-1188.707	 H	14	VAL14	0.079	
230	   N	1194.072	346.154	-1189.738	N.am	15	MET15	-0.416	
231	  CA	1193.752	347.247	-1190.651	C.3	15	MET15	-0.024	
232	   C	1194.782	348.346	-1190.563	C.2	15	MET15	0.597	
233	   O	1195.285	348.858	-1191.575	O.2	15	MET15	-0.568	
234	  CB	1192.331	347.793	-1190.342	C.3	15	MET15	0.034	
235	  CG	1191.169	346.795	-1190.534	C.3	15	MET15	0.002	
236	  SD	1189.595	347.661	-1190.420	S.3	15	MET15	-0.274	
237	  CE	1188.513	346.232	-1190.284	C.3	15	MET15	-0.054	
238	   H	1193.407	345.861	-1189.036	 H	15	MET15	0.272	
239	  HA	1193.778	346.860	-1191.687	 H	15	MET15	0.088	
240	 2HB	1192.129	348.672	-1190.984	 H	15	MET15	0.024	
241	 3HB	1192.295	348.185	-1189.306	 H	15	MET15	0.024	
242	 2HG	1191.211	346.009	-1189.757	 H	15	MET15	0.044	
243	 3HG	1191.231	346.280	-1191.511	 H	15	MET15	0.044	
244	 1HE	1188.657	345.544	-1191.136	 H	15	MET15	0.068	
245	 2HE	1188.722	345.679	-1189.351	 H	15	MET15	0.068	
246	 3HE	1187.456	346.547	-1190.267	 H	15	MET15	0.068	
247	   N	1195.151	348.767	-1189.401	N.am	16	ARG16	-0.348	
248	  CA	1196.148	349.831	-1189.316	C.3	16	ARG16	-0.264	
249	   C	1197.418	349.438	-1190.033	C.2	16	ARG16	0.734	
250	   O	1197.532	348.362	-1190.615	O.2	16	ARG16	-0.589	
251	  CB	1196.417	350.148	-1187.818	C.3	16	ARG16	-0.001	
252	  CG	1197.242	351.436	-1187.544	C.3	16	ARG16	0.039	
253	  CD	1197.492	351.655	-1186.043	C.3	16	ARG16	0.049	
254	  NE	1198.269	352.914	-1185.841	N.pl3	16	ARG16	-0.530	
255	  CZ	1198.660	353.395	-1184.666	C.cat	16	ARG16	0.808	
256	 NH1	1198.412	352.810	-1183.527	N.pl3	16	ARG16	-0.863	
257	 NH2	1199.324	354.508	-1184.646	N.pl3	16	ARG16	-0.863	
258	   H	1194.756	348.367	-1188.562	 H	16	ARG16	0.275	
259	  HA	1195.739	350.724	-1189.826	 H	16	ARG16	0.156	
260	 2HB	1196.914	349.271	-1187.352	 H	16	ARG16	0.033	
261	 3HB	1195.448	350.229	-1187.284	 H	16	ARG16	0.033	
262	 2HG	1196.712	352.308	-1187.981	 H	16	ARG16	0.029	
263	 3HG	1198.216	351.384	-1188.073	 H	16	ARG16	0.029	
264	 2HD	1198.041	350.780	-1185.630	 H	16	ARG16	0.069	
265	 3HD	1196.519	351.698	-1185.508	 H	16	ARG16	0.069	
266	  HE	1198.547	353.495	-1186.638	 H	16	ARG16	0.346	
267	1HH1	1197.886	351.937	-1183.612	 H	16	ARG16	0.448	
268	2HH1	1198.747	353.245	-1182.666	 H	16	ARG16	0.448	
269	1HH2	1199.510	354.951	-1185.548	 H	16	ARG16	0.448	
270	2HH2	1199.615	354.862	-1183.734	 H	16	ARG16	0.448	
@<TRIPOS>BOND
1 1 2 1
2 1 10 1
3 2 3 1
4 2 5 1
5 2 11 1
6 3 4 2
7 3 16 1
8 5 6 1
9 6 7 1
10 7 8 2
11 7 9 1
12 5 12 1
13 5 13 1
14 6 14 1
15 6 15 1
16 16 17 1
17 16 24 1
18 17 18 1
19 17 20 1
20 17 25 1
21 18 19 2
22 18 30 1
23 20 21 1
24 21 22 1
25 21 23 2
26 20 26 1
27 20 27 1
28 22 28 1
29 22 29 1
30 30 31 1
31 30 36 1
32 31 32 1
33 31 34 1
34 31 37 1
35 32 33 2
36 32 44 1
37 34 35 1
38 35 36 1
39 34 38 1
40 34 39 1
41 35 40 1
42 35 41 1
43 36 42 1
44 36 43 1
45 44 45 1
46 44 53 1
47 45 46 1
48 45 48 1
49 45 54 1
50 46 47 2
51 46 59 1
52 48 49 1
53 49 50 1
54 50 51 2
55 50 52 1
56 48 55 1
57 48 56 1
58 49 57 1
59 49 58 1
60 59 60 1
61 59 65 1
62 60 61 1
63 60 63 1
64 60 66 1
65 61 62 2
66 61 70 1
67 63 64 1
68 63 67 1
69 63 68 1
70 64 69 1
71 70 71 1
72 70 78 1
73 71 72 1
74 71 74 1
75 71 79 1
76 72 73 2
77 72 89 1
78 74 75 1
79 74 76 1
80 75 77 1
81 74 80 1
82 75 81 1
83 75 82 1
84 76 83 1
85 76 84 1
86 76 85 1
87 77 86 1
88 77 87 1
89 77 88 1
90 89 90 1
91 89 100 1
92 90 91 1
93 90 93 1
94 90 101 1
95 91 92 2
96 91 113 1
97 93 94 1
98 94 95 1
99 95 96 1
100 96 97 1
101 97 98 2
102 97 99 1
103 93 102 1
104 93 103 1
105 94 104 1
106 94 105 1
107 95 106 1
108 95 107 1
109 96 108 1
110 98 109 1
111 98 110 1
112 99 111 1
113 99 112 1
114 113 114 1
115 113 121 1
116 114 115 1
117 114 117 1
118 114 122 1
119 115 116 2
120 115 125 1
121 117 118 1
122 118 119 2
123 118 120 1
124 117 123 1
125 117 124 1
126 125 126 1
127 125 134 1
128 126 127 1
129 126 129 1
130 126 135 1
131 127 128 2
132 127 140 1
133 129 130 1
134 130 131 1
135 131 132 2
136 131 133 1
137 129 136 1
138 129 137 1
139 130 138 1
140 130 139 1
141 140 141 1
142 140 150 1
143 141 142 1
144 141 144 1
145 141 151 1
146 142 143 2
147 142 157 1
148 144 145 1
149 145 146 2
150 146 149 1
151 145 147 1
152 147 148 2
153 148 149 1
154 144 152 1
155 144 153 1
156 146 154 1
157 148 155 1
158 149 156 1
159 157 158 1
160 157 164 1
161 158 159 1
162 158 161 1
163 158 165 1
164 159 160 2
165 159 173 1
166 161 162 1
167 161 163 1
168 161 166 1
169 162 167 1
170 162 168 1
171 162 169 1
172 163 170 1
173 163 171 1
174 163 172 1
175 173 174 1
176 173 182 1
177 174 175 1
178 174 177 1
179 174 183 1
180 175 176 2
181 175 190 1
182 177 178 1
183 178 179 1
184 179 180 1
185 179 181 2
186 177 184 1
187 177 185 1
188 178 186 1
189 178 187 1
190 180 188 1
191 180 189 1
192 190 191 1
193 190 201 1
194 191 192 1
195 191 194 1
196 191 202 1
197 192 193 2
198 192 214 1
199 194 195 1
200 195 196 1
201 196 197 1
202 197 198 1
203 198 199 2
204 198 200 1
205 194 203 1
206 194 204 1
207 195 205 1
208 195 206 1
209 196 207 1
210 196 208 1
211 197 209 1
212 199 210 1
213 199 211 1
214 200 212 1
215 200 213 1
216 214 215 1
217 214 221 1
218 215 216 1
219 215 218 1
220 215 222 1
221 216 217 2
222 216 230 1
223 218 219 1
224 218 220 1
225 218 223 1
226 219 224 1
227 219 225 1
228 219 226 1
229 220 227 1
230 220 228 1
231 220 229 1
232 230 231 1
233 230 238 1
234 231 232 1
235 231 234 1
236 231 239 1
237 232 233 2
238 232 247 1
239 234 235 1
240 235 236 1
241 236 237 1
242 234 240 1
243 234 241 1
244 235 242 1
245 235 243 1
246 237 244 1
247 237 245 1
248 237 246 1
249 247 248 1
250 247 258 1
251 248 249 1
252 248 251 1
253 248 259 1
254 249 250 2
255 251 252 1
256 252 253 1
257 253 254 1
258 254 255 1
259 255 256 2
260 255 257 1
261 251 260 1
262 251 261 1
263 252 262 1
264 252 263 1
265 253 264 1
266 253 265 1
267 254 266 1
268 256 267 1
269 256 268 1
270 257 269 1
271 257 270 1
@<TRIPOS>SUBSTRUCTURE
1	GLU1	1	RESIDUE	1 ****	GLU
2	ASN2	16	RESIDUE	1 ****	ASN
3	PRO3	30	RESIDUE	1 ****	PRO
4	GLU4	44	RESIDUE	1 ****	GLU
5	SER5	59	RESIDUE	1 ****	SER
6	ILE6	70	RESIDUE	1 ****	ILE
7	ARG7	89	RESIDUE	1 ****	ARG
8	ASP8	113	RESIDUE	1 ****	ASP
9	GLU9	125	RESIDUE	1 ****	GLU
10	HIS10	140	RESIDUE	1 ****	HIS
11	VAL11	157	RESIDUE	1 ****	VAL
12	GLN12	173	RESIDUE	1 ****	GLN
13	ARG13	190	RESIDUE	1 ****	ARG
14	VAL14	214	RESIDUE	1 ****	VAL
15	MET15	230	RESIDUE	1 ****	MET
16	ARG16	247	RESIDUE	1 ****	ARG
