REMARK WARNING: 32 MAX_TORS EXCEEDED!!!
REMARK  68 active torsions:
REMARK  status: ('A' for Active; 'I' for Inactive)
REMARK    1  A    between atoms: N_1  and  CA_2 
REMARK    2  A    between atoms: CA_2  and  C_3 
REMARK    3  A    between atoms: CA_2  and  CB_5 
REMARK       I    between atoms: C_3  and  N_11 
REMARK    4  A    between atoms: CB_5  and  CG_6 
REMARK    5  A    between atoms: CG_6  and  CD_7 
REMARK    6  A    between atoms: N_11  and  CA_12 
REMARK    7  A    between atoms: CA_12  and  C_13 
REMARK    8  A    between atoms: CA_12  and  CB_15 
REMARK       I    between atoms: C_13  and  N_22 
REMARK    9  A    between atoms: CB_15  and  CG_16 
REMARK       I    between atoms: CG_16  and  ND2_17 
REMARK   10  A    between atoms: CA_23  and  C_24 
REMARK       I    between atoms: C_24  and  N_29 
REMARK   11  A    between atoms: N_29  and  CA_30 
REMARK   12  A    between atoms: CA_30  and  C_31 
REMARK   13  A    between atoms: CA_30  and  CB_33 
REMARK       I    between atoms: C_31  and  N_39 
REMARK   14  A    between atoms: CB_33  and  CG_34 
REMARK   15  A    between atoms: CG_34  and  CD_35 
REMARK   16  A    between atoms: N_39  and  CA_40 
REMARK   17  A    between atoms: CA_40  and  C_41 
REMARK   18  A    between atoms: CA_40  and  CB_43 
REMARK       I    between atoms: C_41  and  N_47 
REMARK   19  A    between atoms: CB_43  and  OG_44 
REMARK   20  A    between atoms: N_47  and  CA_48 
REMARK   21  A    between atoms: CA_48  and  C_49 
REMARK   22  A    between atoms: CA_48  and  CB_51 
REMARK       I    between atoms: C_49  and  N_56 
REMARK   23  A    between atoms: CB_51  and  CG1_52 
REMARK   24  A    between atoms: N_56  and  CA_57 
REMARK   25  A    between atoms: CA_57  and  C_58 
REMARK   26  A    between atoms: CA_57  and  CB_60 
REMARK       I    between atoms: C_58  and  N_65 
REMARK   27  A    between atoms: CB_60  and  CG_61 
REMARK   28  A    between atoms: N_65  and  CA_66 
REMARK   29  A    between atoms: CA_66  and  C_67 
REMARK   30  A    between atoms: CA_66  and  CB_69 
REMARK       I    between atoms: C_67  and  N_74 
REMARK   31  A    between atoms: CB_69  and  CG_70 
REMARK   32  A    between atoms: N_74  and  CA_75 
REMARK   33  A    between atoms: CA_75  and  C_76 
REMARK   34  A    between atoms: CA_75  and  CB_78 
REMARK       I    between atoms: C_76  and  N_84 
REMARK   35  A    between atoms: CB_78  and  CG_79 
REMARK   36  A    between atoms: CG_79  and  CD_80 
REMARK   37  A    between atoms: N_84  and  CA_85 
REMARK   38  A    between atoms: CA_85  and  C_86 
REMARK   39  A    between atoms: CA_85  and  CB_88 
REMARK       I    between atoms: C_86  and  N_92 
REMARK   40  A    between atoms: CB_88  and  SG_89 
REMARK   41  A    between atoms: N_92  and  CA_93 
REMARK   42  A    between atoms: CA_93  and  C_94 
REMARK   43  A    between atoms: CA_93  and  CB_96 
REMARK       I    between atoms: C_94  and  N_100 
REMARK   44  A    between atoms: N_100  and  CA_101 
REMARK   45  A    between atoms: CA_101  and  C_102 
REMARK   46  A    between atoms: CA_101  and  CB_104 
REMARK       I    between atoms: C_102  and  N_112 
REMARK   47  A    between atoms: CB_104  and  CG_105 
REMARK   48  A    between atoms: CG_105  and  CD_106 
REMARK       I    between atoms: CD_106  and  NE2_107 
REMARK   49  A    between atoms: N_112  and  CA_113 
REMARK   50  A    between atoms: CA_113  and  C_114 
REMARK   51  A    between atoms: CA_113  and  CB_116 
REMARK       I    between atoms: C_114  and  N_129 
REMARK   52  A    between atoms: CB_116  and  CG_117 
REMARK   53  A    between atoms: CG_117  and  CD_118 
REMARK   54  A    between atoms: CD_118  and  NE_119 
REMARK       I    between atoms: NE_119  and  CZ_120 
REMARK       I    between atoms: CZ_120  and  NH1_121 
REMARK       I    between atoms: CZ_120  and  NH2_122 
REMARK   55  A    between atoms: N_129  and  CA_130 
REMARK   56  A    between atoms: CA_130  and  C_131 
REMARK   57  A    between atoms: CA_130  and  CB_133 
REMARK       I    between atoms: C_131  and  N_137 
REMARK   58  A    between atoms: N_137  and  CA_138 
REMARK   59  A    between atoms: CA_138  and  C_139 
REMARK   60  A    between atoms: CA_138  and  CB_141 
REMARK       I    between atoms: C_139  and  N_146 
REMARK   61  A    between atoms: CB_141  and  CG_142 
REMARK   62  A    between atoms: CG_142  and  SD_143 
REMARK   63  A    between atoms: N_146  and  CA_147 
REMARK   64  A    between atoms: CA_147  and  C_148 
REMARK   65  A    between atoms: CA_147  and  CB_150 
REMARK   66  A    between atoms: CB_150  and  CG_151 
REMARK   67  A    between atoms: CG_151  and  CD_152 
REMARK   68  A    between atoms: CD_152  and  NE_153 
REMARK       I    between atoms: NE_153  and  CZ_154 
REMARK       I    between atoms: CZ_154  and  NH1_155 
ROOT
ATOM      1  CA  GLU d   9    1616.820 484.011-1642.444  0.00  0.00     0.177 C 
ENDROOT
BRANCH   1   2
ATOM      2  N   GLU d   9    1615.518 483.353-1642.500  0.00  0.00    -0.346 N 
ATOM      3  C   ASP d   8    1614.838 483.403-1643.595  0.00  0.00     0.241 C 
ATOM      4  O   ASP d   8    1615.310 484.009-1644.569  0.00  0.00    -0.271 OA
ATOM      5  H   GLU d   9    1615.154 482.867-1641.693  0.00  0.00     0.163 HD
BRANCH   3   6
ATOM      6  CA  ASP d   8    1613.491 482.723-1643.652  0.00  0.00     0.186 C 
BRANCH   6   7
ATOM      7  N   ASP d   8    1613.562 481.374-1643.099  0.00  0.00    -0.346 N 
ATOM      8  C   LEU d   7    1614.399 480.533-1643.606  0.00  0.00     0.241 C 
ATOM      9  O   LEU d   7    1615.119 480.896-1644.548  0.00  0.00    -0.271 OA
ATOM     10  H   ASP d   8    1612.964 481.102-1642.332  0.00  0.00     0.163 HD
BRANCH   8  11
ATOM     11  CA  LEU d   7    1614.471 479.138-1643.034  0.00  0.00     0.177 C 
BRANCH  11  12
ATOM     12  N   LEU d   7    1614.526 479.174-1641.575  0.00  0.00    -0.346 N 
ATOM     13  C   ILE d   6    1615.472 479.837-1641.002  0.00  0.00     0.241 C 
ATOM     14  O   ILE d   6    1616.307 480.425-1641.706  0.00  0.00    -0.271 OA
ATOM     15  H   LEU d   7    1613.835 478.686-1641.024  0.00  0.00     0.163 HD
BRANCH  13  16
ATOM     16  CA  ILE d   6    1615.530 479.875-1639.494  0.00  0.00     0.180 C 
BRANCH  16  17
ATOM     17  N   ILE d   6    1614.217 480.169-1638.927  0.00  0.00    -0.346 N 
ATOM     18  C   SER d   5    1613.612 481.252-1639.281  0.00  0.00     0.243 C 
ATOM     19  O   SER d   5    1614.159 482.006-1640.086  0.00  0.00    -0.271 OA
ATOM     20  H   ILE d   6    1613.788 479.535-1638.269  0.00  0.00     0.163 HD
BRANCH  18  21
ATOM     21  CA  SER d   5    1612.253 481.558-1638.696  0.00  0.00     0.200 C 
BRANCH  21  22
ATOM     22  N   SER d   5    1611.384 480.386-1638.754  0.00  0.00    -0.344 N 
ATOM     23  C   GLU d   4    1611.156 479.834-1639.897  0.00  0.00     0.241 C 
ATOM     24  O   GLU d   4    1611.682 480.313-1640.912  0.00  0.00    -0.271 OA
ATOM     25  H   SER d   5    1610.967 480.015-1637.913  0.00  0.00     0.163 HD
BRANCH  23  26
ATOM     26  CA  GLU d   4    1610.257 478.622-1639.958  0.00  0.00     0.177 C 
BRANCH  26  27
ATOM     27  N   GLU d   4    1610.617 477.651-1638.929  0.00  0.00    -0.346 N 
ATOM     28  C   PRO d   3    1611.822 477.191-1638.897  0.00  0.00     0.241 C 
ATOM     29  O   PRO d   3    1612.645 477.574-1639.728  0.00  0.00    -0.271 OA
ATOM     30  H   GLU d   4    1609.933 477.345-1638.252  0.00  0.00     0.163 HD
BRANCH  28  31
ATOM     31  CA  PRO d   3    1612.220 476.168-1637.820  0.00  0.00     0.179 C 
ATOM     32  N   PRO d   3    1611.768 476.577-1636.498  0.00  0.00    -0.337 N 
ATOM     33  C   ASN d   2    1612.290 477.572-1635.864  0.00  0.00     0.243 C 
ATOM     34  CD  PRO d   3    1610.690 475.784-1635.949  0.00  0.00     0.127 C 
ATOM     35  O   ASN d   2    1613.204 478.203-1636.393  0.00  0.00    -0.271 OA
ATOM     36  CG  PRO d   3    1610.233 474.965-1637.159  0.00  0.00     0.022 C 
ATOM     37  CB  PRO d   3    1611.516 474.813-1637.989  0.00  0.00     0.037 C 
BRANCH  33  38
ATOM     38  CA  ASN d   2    1611.759 477.928-1634.495  0.00  0.00     0.185 C 
BRANCH  38  39
ATOM     39  N   ASN d   2    1610.299 477.966-1634.495  0.00  0.00    -0.346 N 
ATOM     40  C   GLU d   1    1609.695 478.752-1635.321  0.00  0.00     0.242 C 
ATOM     41  O   GLU d   1    1610.371 479.451-1636.089  0.00  0.00    -0.271 OA
ATOM     42  H   ASN d   2    1609.771 477.387-1633.859  0.00  0.00     0.163 HD
BRANCH  40  43
ATOM     43  CA  GLU d   1    1608.186 478.792-1635.321  0.00  0.00     0.191 C 
BRANCH  43  44
ATOM     44  N   GLU d   1    1607.627 477.443-1635.321  0.00  0.00    -0.326 NA
ATOM     45  H   GLU d   1    1608.254 476.564-1635.321  0.00  0.00     0.180 HD
ENDBRANCH  43  44
BRANCH  43  46
ATOM     46  CB  GLU d   1    1607.663 479.577-1634.083  0.00  0.00     0.047 C 
BRANCH  46  47
ATOM     47  CG  GLU d   1    1608.138 481.062-1633.973  0.00  0.00     0.116 C 
BRANCH  47  48
ATOM     48  CD  GLU d   1    1607.714 481.866-1632.757  0.00  0.00     0.172 C 
ATOM     49  OE1 GLU d   1    1606.986 481.364-1631.880  0.00  0.00    -0.648 OA
ATOM     50  OE2 GLU d   1    1608.144 483.036-1632.686  0.00  0.00    -0.648 OA
ENDBRANCH  47  48
ENDBRANCH  46  47
ENDBRANCH  43  46
ENDBRANCH  40  43
ENDBRANCH  38  39
BRANCH  38  51
ATOM     51  CB  ASN d   2    1612.251 476.905-1633.431  0.00  0.00     0.137 C 
BRANCH  51  52
ATOM     52  CG  ASN d   2    1611.788 477.129-1631.988  0.00  0.00     0.217 C 
ATOM     53  ND2 ASN d   2    1612.382 478.044-1631.270  0.00  0.00    -0.370 N 
ATOM     54 21HD ASN d   2    1611.901 478.217-1630.383  0.00  0.00     0.159 HD
ATOM     55 22HD ASN d   2    1613.083 478.615-1631.739  0.00  0.00     0.159 HD
ATOM     56  OD1 ASN d   2    1610.867 476.495-1631.494  0.00  0.00    -0.274 OA
ENDBRANCH  51  52
ENDBRANCH  38  51
ENDBRANCH  33  38
ENDBRANCH  28  31
ENDBRANCH  26  27
BRANCH  26  57
ATOM     57  CB  GLU d   4    1608.769 479.041-1639.788  0.00  0.00     0.045 C 
BRANCH  57  58
ATOM     58  CG  GLU d   4    1608.220 480.045-1640.853  0.00  0.00     0.116 C 
BRANCH  58  59
ATOM     59  CD  GLU d   4    1606.794 480.541-1640.709  0.00  0.00     0.172 C 
ATOM     60  OE1 GLU d   4    1606.068 480.143-1639.779  0.00  0.00    -0.648 OA
ATOM     61  OE2 GLU d   4    1606.404 481.370-1641.558  0.00  0.00    -0.648 OA
ENDBRANCH  58  59
ENDBRANCH  57  58
ENDBRANCH  26  57
ENDBRANCH  23  26
ENDBRANCH  21  22
BRANCH  21  62
ATOM     62  CB  SER d   5    1612.365 482.090-1637.245  0.00  0.00     0.199 C 
BRANCH  62  63
ATOM     63  OG  SER d   5    1613.097 481.210-1636.384  0.00  0.00    -0.398 OA
ATOM     64  HG  SER d   5    1612.608 480.385-1636.334  0.00  0.00     0.209 HD
ENDBRANCH  62  63
ENDBRANCH  21  62
ENDBRANCH  18  21
ENDBRANCH  16  17
BRANCH  16  65
ATOM     65  CB  ILE d   6    1616.130 478.538-1638.894  0.00  0.00     0.013 C 
ATOM     66  CG2 ILE d   6    1617.571 478.237-1639.410  0.00  0.00     0.012 C 
BRANCH  65  67
ATOM     67  CG1 ILE d   6    1616.149 478.476-1637.333  0.00  0.00     0.002 C 
ATOM     68  CD1 ILE d   6    1616.419 477.087-1636.718  0.00  0.00     0.005 C 
ENDBRANCH  65  67
ENDBRANCH  16  65
ENDBRANCH  13  16
ENDBRANCH  11  12
BRANCH  11  69
ATOM     69  CB  LEU d   7    1613.268 478.278-1643.514  0.00  0.00     0.038 C 
BRANCH  69  70
ATOM     70  CG  LEU d   7    1613.196 476.798-1643.048  0.00  0.00    -0.020 C 
ATOM     71  CD1 LEU d   7    1612.006 476.092-1643.714  0.00  0.00     0.009 C 
ATOM     72  CD2 LEU d   7    1614.489 476.019-1643.340  0.00  0.00     0.009 C 
ENDBRANCH  69  70
ENDBRANCH  11  69
ENDBRANCH   8  11
ENDBRANCH   6   7
BRANCH   6  73
ATOM     73  CB  ASP d   8    1612.413 483.562-1642.910  0.00  0.00     0.147 C 
BRANCH  73  74
ATOM     74  CG  ASP d   8    1612.194 484.983-1643.451  0.00  0.00     0.175 C 
ATOM     75  OD1 ASP d   8    1612.258 485.182-1644.681  0.00  0.00    -0.648 OA
ATOM     76  OD2 ASP d   8    1612.002 485.909-1642.635  0.00  0.00    -0.648 OA
ENDBRANCH  73  74
ENDBRANCH   6  73
ENDBRANCH   3   6
ENDBRANCH   1   2
BRANCH   1  77
ATOM     77  C   GLU d   9    1617.738 483.484-1643.521  0.00  0.00     0.241 C 
ATOM     78  O   GLU d   9    1618.402 484.239-1644.246  0.00  0.00    -0.271 OA
ATOM     79  N   CYS d  10    1617.835 482.209-1643.691  0.00  0.00    -0.345 N 
ATOM     80  H   CYS d  10    1617.304 481.573-1643.113  0.00  0.00     0.163 HD
BRANCH  79  81
ATOM     81  CA  CYS d  10    1618.723 481.698-1644.732  0.00  0.00     0.185 C 
BRANCH  81  82
ATOM     82  C   CYS d  10    1618.354 482.264-1646.083  0.00  0.00     0.241 C 
ATOM     83  O   CYS d  10    1619.206 482.729-1646.854  0.00  0.00    -0.271 OA
ATOM     84  N   VAL d  11    1617.116 482.263-1646.445  0.00  0.00    -0.346 N 
ATOM     85  H   VAL d  11    1616.404 481.890-1645.834  0.00  0.00     0.163 HD
BRANCH  84  86
ATOM     86  CA  VAL d  11    1616.760 482.810-1647.751  0.00  0.00     0.180 C 
BRANCH  86  87
ATOM     87  C   VAL d  11    1617.224 484.241-1647.883  0.00  0.00     0.241 C 
ATOM     88  O   VAL d  11    1617.825 484.647-1648.885  0.00  0.00    -0.271 OA
ATOM     89  N   GLN d  12    1616.988 485.066-1646.919  0.00  0.00    -0.346 N 
ATOM     90  H   GLN d  12    1616.499 484.759-1646.090  0.00  0.00     0.163 HD
BRANCH  89  91
ATOM     91  CA  GLN d  12    1617.436 486.449-1647.045  0.00  0.00     0.177 C 
BRANCH  91  92
ATOM     92  C   GLN d  12    1618.926 486.517-1647.284  0.00  0.00     0.241 C 
ATOM     93  O   GLN d  12    1619.412 487.226-1648.162  0.00  0.00    -0.271 OA
ATOM     94  N   ARG d  13    1619.711 485.810-1646.544  0.00  0.00    -0.346 N 
ATOM     95  H   ARG d  13    1619.335 485.219-1645.816  0.00  0.00     0.163 HD
BRANCH  94  96
ATOM     96  CA  ARG d  13    1621.151 485.876-1646.776  0.00  0.00     0.176 C 
BRANCH  96  97
ATOM     97  C   ARG d  13    1621.486 485.506-1648.201  0.00  0.00     0.241 C 
ATOM     98  O   ARG d  13    1622.254 486.178-1648.885  0.00  0.00    -0.271 OA
ATOM     99  N   VAL d  14    1620.950 484.452-1648.717  0.00  0.00    -0.346 N 
ATOM    100  H   VAL d  14    1620.315 483.883-1648.175  0.00  0.00     0.163 HD
BRANCH  99 101
ATOM    101  CA  VAL d  14    1621.274 484.094-1650.095  0.00  0.00     0.180 C 
BRANCH 101 102
ATOM    102  C   VAL d  14    1620.943 485.225-1651.039  0.00  0.00     0.241 C 
ATOM    103  O   VAL d  14    1621.737 485.608-1651.908  0.00  0.00    -0.271 OA
ATOM    104  N   MET d  15    1619.799 485.811-1650.936  0.00  0.00    -0.346 N 
ATOM    105  H   MET d  15    1619.134 485.517-1650.234  0.00  0.00     0.163 HD
BRANCH 104 106
ATOM    106  CA  MET d  15    1619.478 486.904-1651.848  0.00  0.00     0.177 C 
BRANCH 106 107
ATOM    107  C   MET d  15    1620.508 488.004-1651.760  0.00  0.00     0.241 C 
ATOM    108  O   MET d  15    1621.010 488.516-1652.772  0.00  0.00    -0.271 OA
ATOM    109  N   ARG d  16    1620.877 488.424-1650.597  0.00  0.00    -0.347 N 
ATOM    110  H   ARG d  16    1620.483 488.023-1649.758  0.00  0.00     0.163 HD
BRANCH 109 111
ATOM    111  CA  ARG d  16    1621.873 489.488-1650.513  0.00  0.00     0.162 C 
BRANCH 111 112
ATOM    112  C   ARG d  16    1623.144 489.096-1651.230  0.00  0.00     0.219 C 
ATOM    113  O   ARG d  16    1623.257 488.021-1651.813  0.00  0.00    -0.287 OA
ENDBRANCH 111 112
BRANCH 111 114
ATOM    114  CB  ARG d  16    1622.143 489.804-1649.014  0.00  0.00     0.035 C 
BRANCH 114 115
ATOM    115  CG  ARG d  16    1622.968 491.093-1648.740  0.00  0.00     0.023 C 
BRANCH 115 116
ATOM    116  CD  ARG d  16    1623.218 491.311-1647.239  0.00  0.00     0.138 C 
BRANCH 116 117
ATOM    117  NE  ARG d  16    1623.994 492.570-1647.037  0.00  0.00    -0.227 N 
ATOM    118  CZ  ARG d  16    1624.386 493.051-1645.861  0.00  0.00     0.665 C 
ATOM    119  NH1 ARG d  16    1624.139 492.465-1644.723  0.00  0.00    -0.235 N 
ATOM    120  NH2 ARG d  16    1625.050 494.164-1645.841  0.00  0.00    -0.235 N 
ATOM    121 11HH ARG d  16    1623.613 491.592-1644.808  0.00  0.00     0.174 HD
ATOM    122 12HH ARG d  16    1624.474 492.900-1643.861  0.00  0.00     0.174 HD
ATOM    123 21HH ARG d  16    1625.235 494.608-1646.743  0.00  0.00     0.174 HD
ATOM    124 22HH ARG d  16    1625.340 494.518-1644.929  0.00  0.00     0.174 HD
ATOM    125  HE  ARG d  16    1624.272 493.152-1647.833  0.00  0.00     0.177 HD
ENDBRANCH 116 117
ENDBRANCH 115 116
ENDBRANCH 114 115
ENDBRANCH 111 114
ENDBRANCH 109 111
ENDBRANCH 106 107
BRANCH 106 126
ATOM    126  CB  MET d  15    1618.057 487.449-1651.538  0.00  0.00     0.045 C 
BRANCH 126 127
ATOM    127  CG  MET d  15    1616.895 486.451-1651.731  0.00  0.00     0.076 C 
BRANCH 127 128
ATOM    128  SD  MET d  15    1615.320 487.317-1651.615  0.00  0.00    -0.173 SA
ATOM    129  CE  MET d  15    1614.240 485.887-1651.479  0.00  0.00     0.089 C 
ENDBRANCH 127 128
ENDBRANCH 126 127
ENDBRANCH 106 126
ENDBRANCH 104 106
ENDBRANCH 101 102
BRANCH 101 130
ATOM    130  CB  VAL d  14    1620.502 482.777-1650.503  0.00  0.00     0.009 C 
ATOM    131  CG1 VAL d  14    1620.590 482.361-1651.997  0.00  0.00     0.012 C 
ATOM    132  CG2 VAL d  14    1620.934 481.524-1649.704  0.00  0.00     0.012 C 
ENDBRANCH 101 130
ENDBRANCH  99 101
ENDBRANCH  96  97
BRANCH  96 133
ATOM    133  CB  ARG d  13    1621.865 484.936-1645.763  0.00  0.00     0.036 C 
BRANCH 133 134
ATOM    134  CG  ARG d  13    1623.410 485.089-1645.683  0.00  0.00     0.023 C 
BRANCH 134 135
ATOM    135  CD  ARG d  13    1624.038 484.101-1644.686  0.00  0.00     0.138 C 
BRANCH 135 136
ATOM    136  NE  ARG d  13    1625.515 484.308-1644.636  0.00  0.00    -0.227 N 
ATOM    137  CZ  ARG d  13    1626.363 483.615-1643.882  0.00  0.00     0.665 C 
ATOM    138  NH1 ARG d  13    1625.999 482.650-1643.086  0.00  0.00    -0.235 N 
ATOM    139  NH2 ARG d  13    1627.623 483.915-1643.939  0.00  0.00    -0.235 N 
ATOM    140 11HH ARG d  13    1624.993 482.464-1643.089  0.00  0.00     0.174 HD
ATOM    141 12HH ARG d  13    1626.712 482.167-1642.538  0.00  0.00     0.174 HD
ATOM    142 21HH ARG d  13    1627.890 484.673-1644.570  0.00  0.00     0.174 HD
ATOM    143 22HH ARG d  13    1628.258 483.373-1643.352  0.00  0.00     0.174 HD
ATOM    144  HE  ARG d  13    1625.965 485.031-1645.207  0.00  0.00     0.177 HD
ENDBRANCH 135 136
ENDBRANCH 134 135
ENDBRANCH 133 134
ENDBRANCH  96 133
ENDBRANCH  94  96
ENDBRANCH  91  92
BRANCH  91 145
ATOM    145  CB  GLN d  12    1617.046 487.215-1645.762  0.00  0.00     0.044 C 
BRANCH 145 146
ATOM    146  CG  GLN d  12    1617.406 488.737-1645.729  0.00  0.00     0.105 C 
BRANCH 146 147
ATOM    147  CD  GLN d  12    1617.104 489.549-1644.464  0.00  0.00     0.215 C 
ATOM    148  NE2 GLN d  12    1616.537 488.972-1643.435  0.00  0.00    -0.370 N 
ATOM    149 21HE GLN d  12    1616.431 489.566-1642.611  0.00  0.00     0.159 HD
ATOM    150 22HE GLN d  12    1616.374 487.969-1643.539  0.00  0.00     0.159 HD
ATOM    151  OE1 GLN d  12    1617.406 490.730-1644.385  0.00  0.00    -0.274 OA
ENDBRANCH 146 147
ENDBRANCH 145 146
ENDBRANCH  91 145
ENDBRANCH  89  91
ENDBRANCH  86  87
BRANCH  86 152
ATOM    152  CB  VAL d  11    1615.199 482.704-1647.970  0.00  0.00     0.009 C 
ATOM    153  CG1 VAL d  11    1614.629 483.409-1649.231  0.00  0.00     0.012 C 
ATOM    154  CG2 VAL d  11    1614.675 481.249-1648.044  0.00  0.00     0.012 C 
ENDBRANCH  86 152
ENDBRANCH  84  86
ENDBRANCH  81  82
BRANCH  81 155
ATOM    155  CB  CYS d  10    1618.674 480.158-1644.705  0.00  0.00     0.105 C 
BRANCH 155 156
ATOM    156  SG  CYS d  10    1619.887 479.459-1645.848  0.00  0.00    -0.180 SA
ATOM    157  HG  CYS d  10    1619.023 479.088-1646.790  0.00  0.00     0.101 HD
ENDBRANCH 155 156
ENDBRANCH  81 155
ENDBRANCH  79  81
ENDBRANCH   1  77
BRANCH   1 158
ATOM    158  CB  GLU d   9    1617.454 483.803-1641.039  0.00  0.00     0.045 C 
BRANCH 158 159
ATOM    159  CG  GLU d   9    1618.836 484.495-1640.810  0.00  0.00     0.116 C 
BRANCH 159 160
ATOM    160  CD  GLU d   9    1619.539 484.281-1639.482  0.00  0.00     0.172 C 
ATOM    161  OE1 GLU d   9    1619.017 483.590-1638.586  0.00  0.00    -0.648 OA
ATOM    162  OE2 GLU d   9    1620.658 484.819-1639.350  0.00  0.00    -0.648 OA
ENDBRANCH 159 160
ENDBRANCH 158 159
ENDBRANCH   1 158
TORSDOF 68
