REMARK WARNING: 32 MAX_TORS EXCEEDED!!!
REMARK  63 active torsions:
REMARK  status: ('A' for Active; 'I' for Inactive)
REMARK    1  A    between atoms: N_1  and  CA_2 
REMARK    2  A    between atoms: CA_2  and  C_3 
REMARK    3  A    between atoms: CA_2  and  CB_5 
REMARK       I    between atoms: C_3  and  N_11 
REMARK    4  A    between atoms: CB_5  and  CG_6 
REMARK    5  A    between atoms: CG_6  and  CD_7 
REMARK    6  A    between atoms: N_11  and  CA_12 
REMARK    7  A    between atoms: CA_12  and  C_13 
REMARK    8  A    between atoms: CA_12  and  CB_15 
REMARK       I    between atoms: C_13  and  N_22 
REMARK    9  A    between atoms: CB_15  and  CG_16 
REMARK       I    between atoms: CG_16  and  ND2_17 
REMARK   10  A    between atoms: CA_23  and  C_24 
REMARK       I    between atoms: C_24  and  N_29 
REMARK   11  A    between atoms: N_29  and  CA_30 
REMARK   12  A    between atoms: CA_30  and  C_31 
REMARK   13  A    between atoms: CA_30  and  CB_33 
REMARK       I    between atoms: C_31  and  N_39 
REMARK   14  A    between atoms: CB_33  and  CG_34 
REMARK   15  A    between atoms: CG_34  and  CD_35 
REMARK   16  A    between atoms: N_39  and  CA_40 
REMARK   17  A    between atoms: CA_40  and  C_41 
REMARK   18  A    between atoms: CA_40  and  CB_43 
REMARK       I    between atoms: C_41  and  N_47 
REMARK   19  A    between atoms: CB_43  and  OG_44 
REMARK   20  A    between atoms: N_47  and  CA_48 
REMARK   21  A    between atoms: CA_48  and  C_49 
REMARK   22  A    between atoms: CA_48  and  CB_51 
REMARK       I    between atoms: C_49  and  N_56 
REMARK   23  A    between atoms: CB_51  and  CG1_52 
REMARK   24  A    between atoms: N_56  and  CA_57 
REMARK   25  A    between atoms: CA_57  and  C_58 
REMARK   26  A    between atoms: CA_57  and  CB_60 
REMARK       I    between atoms: C_58  and  N_65 
REMARK   27  A    between atoms: CB_60  and  CG_61 
REMARK   28  A    between atoms: N_65  and  CA_66 
REMARK   29  A    between atoms: CA_66  and  C_67 
REMARK   30  A    between atoms: CA_66  and  CB_69 
REMARK       I    between atoms: C_67  and  N_74 
REMARK   31  A    between atoms: CB_69  and  CG_70 
REMARK   32  A    between atoms: N_74  and  CA_75 
REMARK   33  A    between atoms: CA_75  and  C_76 
REMARK   34  A    between atoms: CA_75  and  CB_78 
REMARK       I    between atoms: C_76  and  N_84 
REMARK   35  A    between atoms: CB_78  and  CG_79 
REMARK   36  A    between atoms: CG_79  and  CD_80 
REMARK   37  A    between atoms: N_84  and  CA_85 
REMARK   38  A    between atoms: CA_85  and  C_86 
REMARK   39  A    between atoms: CA_85  and  CB_88 
REMARK       I    between atoms: C_86  and  N_96 
REMARK   40  A    between atoms: CB_88  and  CG_89 
REMARK   41  A    between atoms: N_96  and  CA_97 
REMARK   42  A    between atoms: CA_97  and  C_98 
REMARK   43  A    between atoms: CA_97  and  CB_100 
REMARK       I    between atoms: C_98  and  N_104 
REMARK   44  A    between atoms: N_104  and  CA_105 
REMARK   45  A    between atoms: CA_105  and  C_106 
REMARK   46  A    between atoms: CA_105  and  CB_108 
REMARK       I    between atoms: C_106  and  N_116 
REMARK   47  A    between atoms: CB_108  and  CG_109 
REMARK   48  A    between atoms: CG_109  and  CD_110 
REMARK       I    between atoms: CD_110  and  NE2_111 
REMARK   49  A    between atoms: CA_117  and  C_118 
REMARK       I    between atoms: C_118  and  N_123 
REMARK   50  A    between atoms: N_123  and  CA_124 
REMARK   51  A    between atoms: CA_124  and  C_125 
REMARK   52  A    between atoms: CA_124  and  CB_127 
REMARK       I    between atoms: C_125  and  N_131 
REMARK   53  A    between atoms: N_131  and  CA_132 
REMARK   54  A    between atoms: CA_132  and  C_133 
REMARK   55  A    between atoms: CA_132  and  CB_135 
REMARK       I    between atoms: C_133  and  N_140 
REMARK   56  A    between atoms: CB_135  and  CG_136 
REMARK   57  A    between atoms: CG_136  and  SD_137 
REMARK   58  A    between atoms: N_140  and  CA_141 
REMARK   59  A    between atoms: CA_141  and  C_142 
REMARK   60  A    between atoms: CA_141  and  CB_144 
REMARK   61  A    between atoms: CB_144  and  CG_145 
REMARK   62  A    between atoms: CG_145  and  CD_146 
REMARK   63  A    between atoms: CD_146  and  NE_147 
REMARK       I    between atoms: NE_147  and  CZ_148 
REMARK       I    between atoms: CZ_148  and  NH1_149 
ROOT
ATOM      1  CA  GLU d   9    2026.816 617.075-2087.652  0.00  0.00     0.177 C 
ENDROOT
BRANCH   1   2
ATOM      2  N   GLU d   9    2025.513 616.418-2087.708  0.00  0.00    -0.346 N 
ATOM      3  C   ASP d   8    2024.834 616.469-2088.804  0.00  0.00     0.241 C 
ATOM      4  O   ASP d   8    2025.307 617.074-2089.778  0.00  0.00    -0.271 OA
ATOM      5  H   GLU d   9    2025.149 615.931-2086.902  0.00  0.00     0.163 HD
BRANCH   3   6
ATOM      6  CA  ASP d   8    2023.487 615.789-2088.862  0.00  0.00     0.186 C 
BRANCH   6   7
ATOM      7  N   ASP d   8    2023.557 614.439-2088.309  0.00  0.00    -0.346 N 
ATOM      8  C   LEU d   7    2024.394 613.599-2088.816  0.00  0.00     0.241 C 
ATOM      9  O   LEU d   7    2025.115 613.962-2089.757  0.00  0.00    -0.271 OA
ATOM     10  H   ASP d   8    2022.958 614.168-2087.542  0.00  0.00     0.163 HD
BRANCH   8  11
ATOM     11  CA  LEU d   7    2024.466 612.203-2088.244  0.00  0.00     0.177 C 
BRANCH  11  12
ATOM     12  N   LEU d   7    2024.520 612.239-2086.785  0.00  0.00    -0.346 N 
ATOM     13  C   ILE d   6    2025.466 612.902-2086.211  0.00  0.00     0.241 C 
ATOM     14  O   ILE d   6    2026.301 613.489-2086.914  0.00  0.00    -0.271 OA
ATOM     15  H   LEU d   7    2023.828 611.752-2086.234  0.00  0.00     0.163 HD
BRANCH  13  16
ATOM     16  CA  ILE d   6    2025.523 612.939-2084.703  0.00  0.00     0.180 C 
BRANCH  16  17
ATOM     17  N   ILE d   6    2024.210 613.234-2084.137  0.00  0.00    -0.346 N 
ATOM     18  C   SER d   5    2023.605 614.317-2084.491  0.00  0.00     0.243 C 
ATOM     19  O   SER d   5    2024.153 615.071-2085.296  0.00  0.00    -0.271 OA
ATOM     20  H   ILE d   6    2023.781 612.600-2083.478  0.00  0.00     0.163 HD
BRANCH  18  21
ATOM     21  CA  SER d   5    2022.247 614.623-2083.905  0.00  0.00     0.200 C 
BRANCH  21  22
ATOM     22  N   SER d   5    2021.377 613.452-2083.964  0.00  0.00    -0.344 N 
ATOM     23  C   GLU d   4    2021.150 612.899-2085.107  0.00  0.00     0.241 C 
ATOM     24  O   GLU d   4    2021.676 613.379-2086.121  0.00  0.00    -0.271 OA
ATOM     25  H   SER d   5    2020.960 613.081-2083.122  0.00  0.00     0.163 HD
BRANCH  23  26
ATOM     26  CA  GLU d   4    2020.251 611.689-2085.168  0.00  0.00     0.177 C 
BRANCH  26  27
ATOM     27  N   GLU d   4    2020.610 610.718-2084.138  0.00  0.00    -0.346 N 
ATOM     28  C   PRO d   3    2021.815 610.258-2084.105  0.00  0.00     0.241 C 
ATOM     29  O   PRO d   3    2022.639 610.641-2084.937  0.00  0.00    -0.271 OA
ATOM     30  H   GLU d   4    2019.926 610.411-2083.461  0.00  0.00     0.163 HD
BRANCH  28  31
ATOM     31  CA  PRO d   3    2022.213 609.234-2083.028  0.00  0.00     0.179 C 
ATOM     32  N   PRO d   3    2021.761 609.643-2081.707  0.00  0.00    -0.337 N 
ATOM     33  C   ASN d   2    2022.283 610.639-2081.073  0.00  0.00     0.243 C 
ATOM     34  CD  PRO d   3    2020.683 608.851-2081.158  0.00  0.00     0.127 C 
ATOM     35  O   ASN d   2    2023.198 611.269-2081.602  0.00  0.00    -0.271 OA
ATOM     36  CG  PRO d   3    2020.226 608.032-2082.368  0.00  0.00     0.022 C 
ATOM     37  CB  PRO d   3    2021.509 607.880-2083.198  0.00  0.00     0.037 C 
BRANCH  33  38
ATOM     38  CA  ASN d   2    2021.752 610.994-2079.704  0.00  0.00     0.185 C 
BRANCH  38  39
ATOM     39  N   ASN d   2    2020.292 611.033-2079.704  0.00  0.00    -0.346 N 
ATOM     40  C   GLU d   1    2019.688 611.819-2080.530  0.00  0.00     0.242 C 
ATOM     41  O   GLU d   1    2020.364 612.518-2081.298  0.00  0.00    -0.271 OA
ATOM     42  H   ASN d   2    2019.764 610.453-2079.068  0.00  0.00     0.163 HD
BRANCH  40  43
ATOM     43  CA  GLU d   1    2018.179 611.859-2080.530  0.00  0.00     0.191 C 
BRANCH  43  44
ATOM     44  N   GLU d   1    2017.620 610.510-2080.530  0.00  0.00    -0.326 NA
ATOM     45  H   GLU d   1    2018.247 609.631-2080.530  0.00  0.00     0.180 HD
ENDBRANCH  43  44
BRANCH  43  46
ATOM     46  CB  GLU d   1    2017.656 612.644-2079.293  0.00  0.00     0.047 C 
BRANCH  46  47
ATOM     47  CG  GLU d   1    2018.131 614.129-2079.182  0.00  0.00     0.116 C 
BRANCH  47  48
ATOM     48  CD  GLU d   1    2017.707 614.933-2077.967  0.00  0.00     0.172 C 
ATOM     49  OE1 GLU d   1    2016.979 614.431-2077.089  0.00  0.00    -0.648 OA
ATOM     50  OE2 GLU d   1    2018.137 616.103-2077.895  0.00  0.00    -0.648 OA
ENDBRANCH  47  48
ENDBRANCH  46  47
ENDBRANCH  43  46
ENDBRANCH  40  43
ENDBRANCH  38  39
BRANCH  38  51
ATOM     51  CB  ASN d   2    2022.244 609.971-2078.640  0.00  0.00     0.137 C 
BRANCH  51  52
ATOM     52  CG  ASN d   2    2021.781 610.195-2077.197  0.00  0.00     0.217 C 
ATOM     53  ND2 ASN d   2    2022.375 611.110-2076.479  0.00  0.00    -0.370 N 
ATOM     54 21HD ASN d   2    2021.894 611.283-2075.592  0.00  0.00     0.159 HD
ATOM     55 22HD ASN d   2    2023.077 611.681-2076.948  0.00  0.00     0.159 HD
ATOM     56  OD1 ASN d   2    2020.860 609.561-2076.703  0.00  0.00    -0.274 OA
ENDBRANCH  51  52
ENDBRANCH  38  51
ENDBRANCH  33  38
ENDBRANCH  28  31
ENDBRANCH  26  27
BRANCH  26  57
ATOM     57  CB  GLU d   4    2018.762 612.107-2084.998  0.00  0.00     0.045 C 
BRANCH  57  58
ATOM     58  CG  GLU d   4    2018.214 613.110-2086.064  0.00  0.00     0.116 C 
BRANCH  58  59
ATOM     59  CD  GLU d   4    2016.787 613.607-2085.920  0.00  0.00     0.172 C 
ATOM     60  OE1 GLU d   4    2016.061 613.209-2084.990  0.00  0.00    -0.648 OA
ATOM     61  OE2 GLU d   4    2016.398 614.436-2086.769  0.00  0.00    -0.648 OA
ENDBRANCH  58  59
ENDBRANCH  57  58
ENDBRANCH  26  57
ENDBRANCH  23  26
ENDBRANCH  21  22
BRANCH  21  62
ATOM     62  CB  SER d   5    2022.358 615.155-2082.455  0.00  0.00     0.199 C 
BRANCH  62  63
ATOM     63  OG  SER d   5    2023.090 614.276-2081.594  0.00  0.00    -0.398 OA
ATOM     64  HG  SER d   5    2022.601 613.451-2081.543  0.00  0.00     0.209 HD
ENDBRANCH  62  63
ENDBRANCH  21  62
ENDBRANCH  18  21
ENDBRANCH  16  17
BRANCH  16  65
ATOM     65  CB  ILE d   6    2026.122 611.602-2084.103  0.00  0.00     0.013 C 
ATOM     66  CG2 ILE d   6    2027.563 611.300-2084.618  0.00  0.00     0.012 C 
BRANCH  65  67
ATOM     67  CG1 ILE d   6    2026.141 611.540-2082.542  0.00  0.00     0.002 C 
ATOM     68  CD1 ILE d   6    2026.411 610.151-2081.927  0.00  0.00     0.005 C 
ENDBRANCH  65  67
ENDBRANCH  16  65
ENDBRANCH  13  16
ENDBRANCH  11  12
BRANCH  11  69
ATOM     69  CB  LEU d   7    2023.262 611.344-2088.725  0.00  0.00     0.038 C 
BRANCH  69  70
ATOM     70  CG  LEU d   7    2023.189 609.864-2088.259  0.00  0.00    -0.020 C 
ATOM     71  CD1 LEU d   7    2021.999 609.159-2088.925  0.00  0.00     0.009 C 
ATOM     72  CD2 LEU d   7    2024.482 609.085-2088.550  0.00  0.00     0.009 C 
ENDBRANCH  69  70
ENDBRANCH  11  69
ENDBRANCH   8  11
ENDBRANCH   6   7
BRANCH   6  73
ATOM     73  CB  ASP d   8    2022.409 616.628-2088.120  0.00  0.00     0.147 C 
BRANCH  73  74
ATOM     74  CG  ASP d   8    2022.190 618.049-2088.660  0.00  0.00     0.175 C 
ATOM     75  OD1 ASP d   8    2022.255 618.249-2089.890  0.00  0.00    -0.648 OA
ATOM     76  OD2 ASP d   8    2021.998 618.975-2087.844  0.00  0.00    -0.648 OA
ENDBRANCH  73  74
ENDBRANCH   6  73
ENDBRANCH   3   6
ENDBRANCH   1   2
BRANCH   1  77
ATOM     77  C   GLU d   9    2027.734 616.548-2088.728  0.00  0.00     0.241 C 
ATOM     78  O   GLU d   9    2028.398 617.302-2089.452  0.00  0.00    -0.271 OA
ATOM     79  N   HIS d  10    2027.830 615.273-2088.898  0.00  0.00    -0.346 N 
ATOM     80  H   HIS d  10    2027.299 614.637-2088.320  0.00  0.00     0.163 HD
BRANCH  79  81
ATOM     81  CA  HIS d  10    2028.719 614.762-2089.939  0.00  0.00     0.182 C 
BRANCH  81  82
ATOM     82  C   HIS d  10    2028.352 615.328-2091.290  0.00  0.00     0.241 C 
ATOM     83  O   HIS d  10    2029.205 615.793-2092.061  0.00  0.00    -0.271 OA
ATOM     84  N   VAL d  11    2027.115 615.327-2091.653  0.00  0.00    -0.346 N 
ATOM     85  H   VAL d  11    2026.401 614.954-2091.043  0.00  0.00     0.163 HD
BRANCH  84  86
ATOM     86  CA  VAL d  11    2026.760 615.874-2092.959  0.00  0.00     0.180 C 
BRANCH  86  87
ATOM     87  C   VAL d  11    2027.225 617.305-2093.091  0.00  0.00     0.241 C 
ATOM     88  O   VAL d  11    2027.826 617.711-2094.093  0.00  0.00    -0.271 OA
ATOM     89  N   GLN d  12    2026.987 618.130-2092.127  0.00  0.00    -0.346 N 
ATOM     90  H   GLN d  12    2026.498 617.823-2091.299  0.00  0.00     0.163 HD
BRANCH  89  91
ATOM     91  CA  GLN d  12    2027.436 619.513-2092.253  0.00  0.00     0.177 C 
BRANCH  91  92
ATOM     92  C   GLN d  12    2028.926 619.580-2092.491  0.00  0.00     0.243 C 
ATOM     93  O   GLN d  12    2029.414 620.289-2093.368  0.00  0.00    -0.271 OA
ATOM     94  N   PRO d  13    2029.710 618.872-2091.750  0.00  0.00    -0.337 N 
ATOM     95  CA  PRO d  13    2031.156 618.879-2091.912  0.00  0.00     0.179 C 
ATOM     96  CD  PRO d  13    2029.218 618.013-2090.696  0.00  0.00     0.127 C 
ATOM     97  CB  PRO d  13    2031.620 618.140-2090.647  0.00  0.00     0.037 C 
ATOM     98  CG  PRO d  13    2030.456 617.187-2090.338  0.00  0.00     0.022 C 
BRANCH  95  99
ATOM     99  C   PRO d  13    2031.584 618.174-2093.211  0.00  0.00     0.241 C 
ATOM    100  O   PRO d  13    2032.406 618.698-2093.964  0.00  0.00    -0.271 OA
ATOM    101  N   VAL d  14    2031.078 617.027-2093.513  0.00  0.00    -0.346 N 
ATOM    102  H   VAL d  14    2030.404 616.587-2092.904  0.00  0.00     0.163 HD
BRANCH 101 103
ATOM    103  CA  VAL d  14    2031.496 616.373-2094.750  0.00  0.00     0.180 C 
BRANCH 103 104
ATOM    104  C   VAL d  14    2031.240 617.260-2095.944  0.00  0.00     0.241 C 
ATOM    105  O   VAL d  14    2032.095 617.446-2096.820  0.00  0.00    -0.271 OA
ATOM    106  N   MET d  15    2030.095 617.844-2096.056  0.00  0.00    -0.346 N 
ATOM    107  H   MET d  15    2029.381 617.708-2095.355  0.00  0.00     0.163 HD
BRANCH 106 108
ATOM    108  CA  MET d  15    2029.846 618.702-2097.210  0.00  0.00     0.177 C 
BRANCH 108 109
ATOM    109  C   MET d  15    2030.875 619.803-2097.299  0.00  0.00     0.241 C 
ATOM    110  O   MET d  15    2031.451 620.081-2098.362  0.00  0.00    -0.271 OA
ATOM    111  N   ARG d  16    2031.164 620.476-2096.237  0.00  0.00    -0.347 N 
ATOM    112  H   ARG d  16    2030.709 620.269-2095.359  0.00  0.00     0.163 HD
BRANCH 111 113
ATOM    113  CA  ARG d  16    2032.159 621.541-2096.323  0.00  0.00     0.162 C 
BRANCH 113 114
ATOM    114  C   ARG d  16    2033.474 621.011-2096.843  0.00  0.00     0.219 C 
ATOM    115  O   ARG d  16    2033.622 619.833-2097.161  0.00  0.00    -0.287 OA
ENDBRANCH 113 114
BRANCH 113 116
ATOM    116  CB  ARG d  16    2032.324 622.187-2094.918  0.00  0.00     0.035 C 
BRANCH 116 117
ATOM    117  CG  ARG d  16    2033.137 623.512-2094.882  0.00  0.00     0.023 C 
BRANCH 117 118
ATOM    118  CD  ARG d  16    2033.282 624.063-2093.454  0.00  0.00     0.138 C 
BRANCH 118 119
ATOM    119  NE  ARG d  16    2034.050 625.342-2093.484  0.00  0.00    -0.227 N 
ATOM    120  CZ  ARG d  16    2034.361 626.078-2092.421  0.00  0.00     0.665 C 
ATOM    121  NH1 ARG d  16    2034.031 625.759-2091.202  0.00  0.00    -0.235 N 
ATOM    122  NH2 ARG d  16    2035.029 627.173-2092.605  0.00  0.00    -0.235 N 
ATOM    123 11HH ARG d  16    2033.507 624.884-2091.126  0.00  0.00     0.174 HD
ATOM    124 12HH ARG d  16    2034.307 626.379-2090.438  0.00  0.00     0.174 HD
ATOM    125 21HH ARG d  16    2035.280 627.406-2093.568  0.00  0.00     0.174 HD
ATOM    126 22HH ARG d  16    2035.257 627.725-2091.777  0.00  0.00     0.174 HD
ATOM    127  HE  ARG d  16    2034.387 625.734-2094.370  0.00  0.00     0.177 HD
ENDBRANCH 118 119
ENDBRANCH 117 118
ENDBRANCH 116 117
ENDBRANCH 113 116
ENDBRANCH 111 113
ENDBRANCH 108 109
BRANCH 108 128
ATOM    128  CB  MET d  15    2028.411 619.289-2097.130  0.00  0.00     0.045 C 
BRANCH 128 129
ATOM    129  CG  MET d  15    2027.258 618.263-2097.175  0.00  0.00     0.076 C 
BRANCH 129 130
ATOM    130  SD  MET d  15    2025.686 619.118-2097.367  0.00  0.00    -0.173 SA
ATOM    131  CE  MET d  15    2024.589 617.745-2096.990  0.00  0.00     0.089 C 
ENDBRANCH 129 130
ENDBRANCH 128 129
ENDBRANCH 108 128
ENDBRANCH 106 108
ENDBRANCH 103 104
BRANCH 103 132
ATOM    132  CB  VAL d  14    2030.746 614.991-2094.906  0.00  0.00     0.009 C 
ATOM    133  CG1 VAL d  14    2030.936 614.251-2096.258  0.00  0.00     0.012 C 
ATOM    134  CG2 VAL d  14    2031.113 613.953-2093.818  0.00  0.00     0.012 C 
ENDBRANCH 103 132
ENDBRANCH 101 103
ENDBRANCH  95  99
ENDBRANCH  91  92
BRANCH  91 135
ATOM    135  CB  GLN d  12    2027.045 620.279-2090.970  0.00  0.00     0.044 C 
BRANCH 135 136
ATOM    136  CG  GLN d  12    2027.406 621.801-2090.938  0.00  0.00     0.105 C 
BRANCH 136 137
ATOM    137  CD  GLN d  12    2027.103 622.613-2089.672  0.00  0.00     0.215 C 
ATOM    138  NE2 GLN d  12    2026.535 622.036-2088.644  0.00  0.00    -0.370 N 
ATOM    139 21HE GLN d  12    2026.428 622.630-2087.820  0.00  0.00     0.159 HD
ATOM    140 22HE GLN d  12    2026.371 621.033-2088.748  0.00  0.00     0.159 HD
ATOM    141  OE1 GLN d  12    2027.405 623.794-2089.594  0.00  0.00    -0.274 OA
ENDBRANCH 136 137
ENDBRANCH 135 136
ENDBRANCH  91 135
ENDBRANCH  89  91
ENDBRANCH  86  87
BRANCH  86 142
ATOM    142  CB  VAL d  11    2025.199 615.768-2093.179  0.00  0.00     0.009 C 
ATOM    143  CG1 VAL d  11    2024.630 616.473-2094.442  0.00  0.00     0.012 C 
ATOM    144  CG2 VAL d  11    2024.674 614.314-2093.254  0.00  0.00     0.012 C 
ENDBRANCH  86 142
ENDBRANCH  84  86
ENDBRANCH  81  82
BRANCH  81 145
ATOM    145  CB  HIS d  10    2028.554 613.233-2089.935  0.00  0.00     0.095 C 
BRANCH 145 146
ATOM    146  CG  HIS d  10    2029.840 612.522-2089.627  0.00  0.00     0.053 A 
ATOM    147  CD2 HIS d  10    2030.220 612.186-2088.334  0.00  0.00     0.116 A 
ATOM    148  NE2 HIS d  10    2031.435 611.555-2088.401  0.00  0.00    -0.359 N 
ATOM    149  CE1 HIS d  10    2031.698 611.558-2089.736  0.00  0.00     0.207 A 
ATOM    150  2HE HIS d  10    2032.001 611.176-2087.627  0.00  0.00     0.166 HD
ATOM    151  ND1 HIS d  10    2030.792 612.117-2090.559  0.00  0.00    -0.247 NA
ENDBRANCH 145 146
ENDBRANCH  81 145
ENDBRANCH  79  81
ENDBRANCH   1  77
BRANCH   1 152
ATOM    152  CB  GLU d   9    2027.449 616.866-2086.246  0.00  0.00     0.045 C 
BRANCH 152 153
ATOM    153  CG  GLU d   9    2028.831 617.558-2086.016  0.00  0.00     0.116 C 
BRANCH 153 154
ATOM    154  CD  GLU d   9    2029.533 617.343-2084.688  0.00  0.00     0.172 C 
ATOM    155  OE1 GLU d   9    2029.010 616.652-2083.792  0.00  0.00    -0.648 OA
ATOM    156  OE2 GLU d   9    2030.652 617.881-2084.555  0.00  0.00    -0.648 OA
ENDBRANCH 153 154
ENDBRANCH 152 153
ENDBRANCH   1 152
TORSDOF 63
