@<TRIPOS>MOLECULE
15-17
260 261 16              
SMALL
USER_CHARGES
@<TRIPOS>ATOM
1	   N	2465.464	756.354	-2568.763	N.3	1	GLU1	-0.516	
2	  CA	2466.023	757.703	-2568.763	C.3	1	GLU1	0.040	
3	   C	2467.532	757.663	-2568.763	C.2	1	GLU1	0.537	
4	   O	2468.208	758.362	-2569.532	O.2	1	GLU1	-0.582	
5	  CB	2465.500	758.488	-2567.526	C.3	1	GLU1	0.056	
6	  CG	2465.975	759.973	-2567.415	C.3	1	GLU1	0.014	
7	  CD	2465.551	760.777	-2566.200	C.2	1	GLU1	0.805	
8	 OE1	2464.823	760.275	-2565.322	O.co2	1	GLU1	-0.819	
9	 OE2	2465.981	761.947	-2566.128	O.co2	1	GLU1	-0.819	
10	   H	2466.091	755.475	-2568.763	 H	1	GLU1	0.294	
11	  HA	2465.697	758.221	-2569.683	 H	1	GLU1	0.111	
12	 2HB	2465.789	757.957	-2566.596	 H	1	GLU1	-0.017	
13	 3HB	2464.393	758.478	-2567.513	 H	1	GLU1	-0.017	
14	 2HG	2465.665	760.558	-2568.296	 H	1	GLU1	-0.043	
15	 3HG	2467.075	760.040	-2567.386	 H	1	GLU1	-0.043	
16	   N	2468.136	756.877	-2567.938	N.am	2	ASN2	-0.416	
17	  CA	2469.595	756.838	-2567.938	C.3	2	ASN2	0.014	
18	   C	2470.127	756.483	-2569.306	C.2	2	ASN2	0.597	
19	   O	2471.042	757.113	-2569.834	O.2	2	ASN2	-0.568	
20	  CB	2470.087	755.815	-2566.873	C.3	2	ASN2	-0.204	
21	  CG	2469.624	756.039	-2565.430	C.2	2	ASN2	0.713	
22	 ND2	2470.218	756.954	-2564.712	N.pl3	2	ASN2	-0.919	
23	 OD1	2468.703	755.406	-2564.936	O.2	2	ASN2	-0.593	
24	   H	2467.608	756.298	-2567.302	 H	2	ASN2	0.272	
25	  HA	2469.973	757.848	-2567.692	 H	2	ASN2	0.105	
26	 2HB	2471.191	755.756	-2566.876	 H	2	ASN2	0.080	
27	 3HB	2469.758	754.797	-2567.159	 H	2	ASN2	0.080	
28	1HD2	2469.737	757.127	-2563.825	 H	2	ASN2	0.420	
29	2HD2	2470.920	757.526	-2565.181	 H	2	ASN2	0.420	
30	   N	2469.605	755.488	-2569.941	N.am	3	PRO3	-0.255	
31	  CA	2470.058	755.079	-2571.262	C.3	3	PRO3	-0.027	
32	   C	2469.660	756.102	-2572.339	C.2	3	PRO3	0.590	
33	   O	2470.483	756.485	-2573.170	O.2	3	PRO3	-0.575	
34	  CB	2469.353	753.724	-2571.432	C.3	3	PRO3	-0.007	
35	  CG	2468.070	753.876	-2570.602	C.3	3	PRO3	0.019	
36	  CD	2468.527	754.695	-2569.392	C.3	3	PRO3	0.019	
37	  HA	2471.144	754.958	-2571.275	 H	3	PRO3	0.064	
38	 2HB	2469.976	752.943	-2570.991	 H	3	PRO3	0.025	
39	 3HB	2469.155	753.476	-2572.477	 H	3	PRO3	0.025	
40	 2HG	2467.642	752.914	-2570.311	 H	3	PRO3	0.021	
41	 3HG	2467.333	754.448	-2571.169	 H	3	PRO3	0.021	
42	 2HD	2468.916	754.045	-2568.604	 H	3	PRO3	0.039	
43	 3HD	2467.730	755.331	-2568.999	 H	3	PRO3	0.039	
44	   N	2468.455	756.562	-2572.372	N.am	4	GLU4	-0.516	
45	  CA	2468.096	757.534	-2573.402	C.3	4	GLU4	0.040	
46	   C	2468.995	758.744	-2573.340	C.2	4	GLU4	0.537	
47	   O	2469.522	759.224	-2574.354	O.2	4	GLU4	-0.582	
48	  CB	2466.607	757.953	-2573.232	C.3	4	GLU4	0.056	
49	  CG	2466.060	758.956	-2574.298	C.3	4	GLU4	0.014	
50	  CD	2464.634	759.453	-2574.155	C.2	4	GLU4	0.805	
51	 OE1	2463.907	759.055	-2573.224	O.co2	4	GLU4	-0.819	
52	 OE2	2464.245	760.283	-2575.003	O.co2	4	GLU4	-0.819	
53	   H	2467.771	756.256	-2571.695	 H	4	GLU4	0.294	
54	  HA	2468.228	757.063	-2574.393	 H	4	GLU4	0.111	
55	 2HB	2466.455	758.392	-2572.225	 H	4	GLU4	-0.017	
56	 3HB	2465.959	757.055	-2573.238	 H	4	GLU4	-0.017	
57	 2HG	2466.142	758.542	-2575.316	 H	4	GLU4	-0.043	
58	 3HG	2466.648	759.888	-2574.309	 H	4	GLU4	-0.043	
59	   N	2469.222	759.297	-2572.197	N.am	5	SER5	-0.416	
60	  CA	2470.092	760.468	-2572.138	C.3	5	SER5	-0.025	
61	   C	2471.451	760.162	-2572.723	C.2	5	SER5	0.597	
62	   O	2471.999	760.915	-2573.528	O.2	5	SER5	-0.568	
63	  CB	2470.203	761.000	-2570.688	C.3	5	SER5	0.212	
64	  OG	2470.934	760.120	-2569.826	O.3	5	SER5	-0.655	
65	   H	2468.805	758.925	-2571.355	 H	5	SER5	0.272	
66	  HA	2469.643	761.258	-2572.767	 H	5	SER5	0.084	
67	 2HB	2469.203	761.194	-2570.254	 H	5	SER5	0.035	
68	 3HB	2470.709	761.986	-2570.689	 H	5	SER5	0.035	
69	  HG	2470.445	759.296	-2569.776	 H	5	SER5	0.428	
70	   N	2472.055	759.079	-2572.369	N.am	6	ILE6	-0.416	
71	  CA	2473.368	758.783	-2572.935	C.3	6	ILE6	-0.060	
72	   C	2473.311	758.746	-2574.443	C.2	6	ILE6	0.597	
73	   O	2474.146	759.333	-2575.146	O.2	6	ILE6	-0.568	
74	  CB	2473.968	757.447	-2572.334	C.3	6	ILE6	0.130	
75	 CG1	2473.986	757.384	-2570.774	C.3	6	ILE6	-0.043	
76	 CG2	2475.409	757.144	-2572.850	C.3	6	ILE6	-0.320	
77	 CD1	2474.256	755.995	-2570.158	C.3	6	ILE6	-0.066	
78	   H	2471.626	758.444	-2571.710	 H	6	ILE6	0.272	
79	  HA	2474.043	759.617	-2572.667	 H	6	ILE6	0.087	
80	  HB	2473.309	756.621	-2572.679	 H	6	ILE6	0.019	
81	2HG1	2473.004	757.705	-2570.378	 H	6	ILE6	0.024	
82	3HG1	2474.702	758.126	-2570.369	 H	6	ILE6	0.024	
83	1HG2	2475.468	757.051	-2573.948	 H	6	ILE6	0.088	
84	2HG2	2476.131	757.927	-2572.547	 H	6	ILE6	0.088	
85	3HG2	2475.798	756.182	-2572.471	 H	6	ILE6	0.088	
86	1HD1	2473.527	755.241	-2570.513	 H	6	ILE6	0.019	
87	2HD1	2475.266	755.616	-2570.394	 H	6	ILE6	0.019	
88	3HD1	2474.179	756.025	-2569.056	 H	6	ILE6	0.019	
89	   N	2472.365	758.082	-2575.016	N.am	7	LEU7	-0.416	
90	  CA	2472.310	758.046	-2576.475	C.3	7	LEU7	-0.052	
91	   C	2472.238	759.441	-2577.048	C.2	7	LEU7	0.597	
92	   O	2472.959	759.803	-2577.990	O.2	7	LEU7	-0.568	
93	  CB	2471.107	757.186	-2576.955	C.3	7	LEU7	-0.110	
94	  CG	2471.034	755.707	-2576.489	C.3	7	LEU7	0.353	
95	 CD1	2469.844	755.001	-2577.154	C.3	7	LEU7	-0.412	
96	 CD2	2472.327	754.927	-2576.780	C.3	7	LEU7	-0.412	
97	   H	2471.673	757.595	-2574.465	 H	7	LEU7	0.272	
98	  HA	2473.252	757.606	-2576.849	 H	7	LEU7	0.092	
99	 2HB	2471.084	757.202	-2578.063	 H	7	LEU7	0.046	
100	 3HB	2470.167	757.689	-2576.651	 H	7	LEU7	0.046	
101	  HG	2470.864	755.699	-2575.391	 H	7	LEU7	-0.036	
102	1HD1	2468.886	755.511	-2576.931	 H	7	LEU7	0.100	
103	2HD1	2469.943	754.961	-2578.255	 H	7	LEU7	0.100	
104	3HD1	2469.736	753.960	-2576.798	 H	7	LEU7	0.100	
105	1HD2	2472.602	754.958	-2577.850	 H	7	LEU7	0.100	
106	2HD2	2473.180	755.339	-2576.208	 H	7	LEU7	0.100	
107	3HD2	2472.245	753.865	-2576.484	 H	7	LEU7	0.100	
108	   N	2471.401	760.283	-2576.542	N.am	8	ASP8	-0.516	
109	  CA	2471.332	761.632	-2577.096	C.3	8	ASP8	0.038	
110	   C	2472.679	762.311	-2577.039	C.2	8	ASP8	0.537	
111	   O	2473.152	762.915	-2578.014	O.2	8	ASP8	-0.582	
112	  CB	2470.254	762.472	-2576.355	C.3	8	ASP8	-0.030	
113	  CG	2470.036	763.892	-2576.896	C.2	8	ASP8	0.799	
114	 OD1	2470.100	764.091	-2578.127	O.co2	8	ASP8	-0.801	
115	 OD2	2469.844	764.819	-2576.081	O.co2	8	ASP8	-0.801	
116	   H	2470.803	760.012	-2575.774	 H	8	ASP8	0.294	
117	  HA	2471.049	761.554	-2578.163	 H	8	ASP8	0.088	
118	 2HB	2470.511	762.556	-2575.283	 H	8	ASP8	-0.012	
119	 3HB	2469.275	761.967	-2576.387	 H	8	ASP8	-0.012	
120	   N	2473.359	762.261	-2575.944	N.am	9	GLU9	-0.516	
121	  CA	2474.662	762.918	-2575.889	C.3	9	GLU9	0.040	
122	   C	2475.579	762.390	-2576.965	C.2	9	GLU9	0.537	
123	   O	2476.243	763.143	-2577.691	O.2	9	GLU9	-0.582	
124	  CB	2475.295	762.711	-2574.484	C.3	9	GLU9	0.056	
125	  CG	2476.678	763.403	-2574.255	C.3	9	GLU9	0.014	
126	  CD	2477.380	763.190	-2572.927	C.2	9	GLU9	0.805	
127	 OE1	2476.859	762.500	-2572.030	O.co2	9	GLU9	-0.819	
128	 OE2	2478.500	763.727	-2572.796	O.co2	9	GLU9	-0.819	
129	   H	2472.995	761.776	-2575.136	 H	9	GLU9	0.294	
130	  HA	2474.520	764.000	-2576.065	 H	9	GLU9	0.111	
131	 2HB	2475.408	761.627	-2574.280	 H	9	GLU9	-0.017	
132	 3HB	2474.599	763.065	-2573.699	 H	9	GLU9	-0.017	
133	 2HG	2476.607	764.494	-2574.395	 H	9	GLU9	-0.043	
134	 3HG	2477.425	763.057	-2574.989	 H	9	GLU9	-0.043	
135	   N	2475.675	761.114	-2577.134	N.am	10	HIS10	-0.416	
136	  CA	2476.562	760.602	-2578.174	C.3	10	HIS10	-0.058	
137	   C	2476.196	761.166	-2579.526	C.2	10	HIS10	0.597	
138	   O	2477.048	761.630	-2580.298	O.2	10	HIS10	-0.568	
139	  CB	2476.398	759.073	-2578.169	C.3	10	HIS10	-0.007	
140	  CG	2477.683	758.362	-2577.861	C.2	10	HIS10	0.187	
141	 CD2	2478.065	758.028	-2576.568	C.2	10	HIS10	-0.221	
142	 ND1	2478.635	757.956	-2578.793	N.2	10	HIS10	-0.543	
143	 CE1	2479.541	757.398	-2577.970	C.2	10	HIS10	0.163	
144	 NE2	2479.279	757.396	-2576.635	N.pl3	10	HIS10	-0.280	
145	   H	2475.145	760.480	-2576.555	 H	10	HIS10	0.272	
146	  HA	2477.582	760.959	-2577.950	 H	10	HIS10	0.136	
147	 2HB	2476.032	758.706	-2579.148	 H	10	HIS10	0.037	
148	 3HB	2475.642	758.737	-2577.428	 H	10	HIS10	0.037	
149	 2HD	2477.479	758.244	-2575.679	 H	10	HIS10	0.186	
150	 1HE	2480.432	756.976	-2578.417	 H	10	HIS10	0.144	
151	 2HE	2479.846	757.019	-2575.862	 H	10	HIS10	0.334	
152	   N	2474.958	761.166	-2579.888	N.am	11	VAL11	-0.416	
153	  CA	2474.603	761.711	-2581.196	C.3	11	VAL11	-0.087	
154	   C	2475.068	763.142	-2581.329	C.2	11	VAL11	0.597	
155	   O	2475.669	763.546	-2582.332	O.2	11	VAL11	-0.568	
156	  CB	2473.041	761.605	-2581.415	C.3	11	VAL11	0.299	
157	 CG1	2472.473	762.309	-2582.677	C.3	11	VAL11	-0.319	
158	 CG2	2472.516	760.151	-2581.487	C.3	11	VAL11	-0.319	
159	   H	2474.245	760.794	-2579.278	 H	11	VAL11	0.272	
160	  HA	2475.122	761.128	-2581.978	 H	11	VAL11	0.097	
161	  HB	2472.554	762.086	-2580.540	 H	11	VAL11	-0.030	
162	1HG1	2472.911	761.916	-2583.615	 H	11	VAL11	0.079	
163	2HG1	2471.374	762.202	-2582.760	 H	11	VAL11	0.079	
164	3HG1	2472.652	763.401	-2582.669	 H	11	VAL11	0.079	
165	1HG2	2472.806	759.565	-2580.596	 H	11	VAL11	0.079	
166	2HG2	2471.410	760.115	-2581.529	 H	11	VAL11	0.079	
167	3HG2	2472.897	759.610	-2582.373	 H	11	VAL11	0.079	
168	   N	2474.832	763.968	-2580.367	N.am	12	GLN12	-0.416	
169	  CA	2475.281	765.351	-2580.495	C.3	12	GLN12	-0.003	
170	   C	2476.771	765.417	-2580.733	C.2	12	GLN12	0.597	
171	   O	2477.258	766.125	-2581.612	O.2	12	GLN12	-0.568	
172	  CB	2474.890	766.119	-2579.212	C.3	12	GLN12	-0.004	
173	  CG	2475.252	767.641	-2579.182	C.3	12	GLN12	-0.064	
174	  CD	2474.950	768.455	-2577.918	C.2	12	GLN12	0.695	
175	 NE2	2474.383	767.879	-2576.888	N.pl3	12	GLN12	-0.941	
176	 OE1	2475.253	769.636	-2577.841	O.2	12	GLN12	-0.609	
177	   H	2474.343	763.662	-2579.537	 H	12	GLN12	0.272	
178	  HA	2474.781	765.807	-2581.370	 H	12	GLN12	0.085	
179	 2HB	2475.366	765.619	-2578.343	 H	12	GLN12	0.017	
180	 3HB	2473.800	766.012	-2579.049	 H	12	GLN12	0.017	
181	 2HG	2474.774	768.161	-2580.033	 H	12	GLN12	0.035	
182	 3HG	2476.335	767.782	-2579.348	 H	12	GLN12	0.035	
183	1HE2	2474.277	768.474	-2576.065	 H	12	GLN12	0.425	
184	2HE2	2474.219	766.876	-2576.991	 H	12	GLN12	0.425	
185	   N	2477.555	764.710	-2579.992	N.am	13	ARG13	-0.348	
186	  CA	2478.995	764.775	-2580.223	C.3	13	ARG13	-0.264	
187	   C	2479.331	764.403	-2581.648	C.2	13	ARG13	0.734	
188	   O	2480.100	765.074	-2582.333	O.2	13	ARG13	-0.589	
189	  CB	2479.708	763.837	-2579.208	C.3	13	ARG13	-0.001	
190	  CG	2481.254	763.990	-2579.128	C.3	13	ARG13	0.039	
191	  CD	2481.881	763.003	-2578.130	C.3	13	ARG13	0.049	
192	  NE	2483.358	763.209	-2578.080	N.pl3	13	ARG13	-0.530	
193	  CZ	2484.206	762.518	-2577.324	C.cat	13	ARG13	0.808	
194	 NH1	2483.841	761.555	-2576.526	N.pl3	13	ARG13	-0.863	
195	 NH2	2485.466	762.817	-2577.382	N.pl3	13	ARG13	-0.863	
196	   H	2477.179	764.121	-2579.263	 H	13	ARG13	0.275	
197	  HA	2479.320	765.821	-2580.065	 H	13	ARG13	0.156	
198	 2HB	2479.442	762.786	-2579.447	 H	13	ARG13	0.033	
199	 3HB	2479.284	764.004	-2578.198	 H	13	ARG13	0.033	
200	 2HG	2481.502	765.035	-2578.850	 H	13	ARG13	0.029	
201	 3HG	2481.704	763.833	-2580.130	 H	13	ARG13	0.029	
202	 2HD	2481.636	761.962	-2578.438	 H	13	ARG13	0.069	
203	 3HD	2481.425	763.149	-2577.127	 H	13	ARG13	0.069	
204	  HE	2483.809	763.931	-2578.651	 H	13	ARG13	0.346	
205	1HH1	2482.835	761.369	-2576.529	 H	13	ARG13	0.448	
206	2HH1	2484.554	761.072	-2575.977	 H	13	ARG13	0.448	
207	1HH2	2485.733	763.574	-2578.014	 H	13	ARG13	0.448	
208	2HH2	2486.101	762.276	-2576.793	 H	13	ARG13	0.448	
209	   N	2478.794	763.348	-2582.161	N.am	14	VAL14	-0.416	
210	  CA	2479.119	762.988	-2583.539	C.3	14	VAL14	-0.087	
211	   C	2478.789	764.118	-2584.485	C.2	14	VAL14	0.597	
212	   O	2479.582	764.499	-2585.354	O.2	14	VAL14	-0.568	
213	  CB	2478.346	761.671	-2583.945	C.3	14	VAL14	0.299	
214	 CG1	2478.435	761.252	-2585.438	C.3	14	VAL14	-0.319	
215	 CG2	2478.778	760.419	-2583.144	C.3	14	VAL14	-0.319	
216	   H	2478.159	762.780	-2581.619	 H	14	VAL14	0.272	
217	  HA	2480.207	762.811	-2583.614	 H	14	VAL14	0.097	
218	  HB	2477.270	761.843	-2583.729	 H	14	VAL14	-0.030	
219	1HG1	2479.476	761.074	-2585.767	 H	14	VAL14	0.079	
220	2HG1	2477.861	760.329	-2585.650	 H	14	VAL14	0.079	
221	3HG1	2478.006	762.014	-2586.116	 H	14	VAL14	0.079	
222	1HG2	2478.691	760.578	-2582.053	 H	14	VAL14	0.079	
223	2HG2	2478.141	759.543	-2583.375	 H	14	VAL14	0.079	
224	3HG2	2479.825	760.129	-2583.350	 H	14	VAL14	0.079	
225	   N	2477.645	764.704	-2584.383	N.am	15	ASP15	-0.516	
226	  CA	2477.325	765.796	-2585.297	C.3	15	ASP15	0.038	
227	   C	2478.355	766.896	-2585.210	C.2	15	ASP15	0.537	
228	   O	2478.859	767.406	-2586.223	O.2	15	ASP15	-0.582	
229	  CB	2475.899	766.347	-2585.013	C.3	15	ASP15	-0.030	
230	  CG	2475.418	767.456	-2585.960	C.2	15	ASP15	0.799	
231	 OD1	2475.727	767.401	-2587.168	O.co2	15	ASP15	-0.801	
232	 OD2	2474.767	768.409	-2585.483	O.co2	15	ASP15	-0.801	
233	   H	2476.979	764.412	-2583.681	 H	15	ASP15	0.294	
234	  HA	2477.353	765.402	-2586.331	 H	15	ASP15	0.088	
235	 2HB	2475.844	766.739	-2583.980	 H	15	ASP15	-0.012	
236	 3HB	2475.151	765.540	-2585.065	 H	15	ASP15	-0.012	
237	   N	2478.724	767.317	-2584.048	N.am	16	ARG16	-0.348	
238	  CA	2479.721	768.380	-2583.964	C.3	16	ARG16	-0.264	
239	   C	2480.992	767.986	-2584.680	C.2	16	ARG16	0.734	
240	   O	2481.105	766.910	-2585.261	O.2	16	ARG16	-0.589	
241	  CB	2479.990	768.698	-2582.466	C.3	16	ARG16	-0.001	
242	  CG	2480.816	769.987	-2582.193	C.3	16	ARG16	0.039	
243	  CD	2481.066	770.206	-2580.692	C.3	16	ARG16	0.049	
244	  NE	2481.843	771.465	-2580.491	N.pl3	16	ARG16	-0.530	
245	  CZ	2482.234	771.947	-2579.316	C.cat	16	ARG16	0.808	
246	 NH1	2481.985	771.363	-2578.177	N.pl3	16	ARG16	-0.863	
247	 NH2	2482.898	773.060	-2579.297	N.pl3	16	ARG16	-0.863	
248	   H	2478.329	766.917	-2583.208	 H	16	ARG16	0.275	
249	  HA	2479.313	769.273	-2584.474	 H	16	ARG16	0.156	
250	 2HB	2480.486	767.822	-2581.999	 H	16	ARG16	0.033	
251	 3HB	2479.021	768.780	-2581.932	 H	16	ARG16	0.033	
252	 2HG	2480.287	770.858	-2582.630	 H	16	ARG16	0.029	
253	 3HG	2481.790	769.933	-2582.722	 H	16	ARG16	0.029	
254	 2HD	2481.614	769.331	-2580.278	 H	16	ARG16	0.069	
255	 3HD	2480.093	770.250	-2580.157	 H	16	ARG16	0.069	
256	  HE	2482.122	772.045	-2581.288	 H	16	ARG16	0.346	
257	1HH1	2481.459	770.491	-2578.261	 H	16	ARG16	0.448	
258	2HH1	2482.320	771.799	-2577.316	 H	16	ARG16	0.448	
259	1HH2	2483.084	773.502	-2580.199	 H	16	ARG16	0.448	
260	2HH2	2483.189	773.415	-2578.385	 H	16	ARG16	0.448	
@<TRIPOS>BOND
1 1 2 1
2 1 10 1
3 2 3 1
4 2 5 1
5 2 11 1
6 3 4 2
7 3 16 1
8 5 6 1
9 6 7 1
10 7 8 2
11 7 9 1
12 5 12 1
13 5 13 1
14 6 14 1
15 6 15 1
16 16 17 1
17 16 24 1
18 17 18 1
19 17 20 1
20 17 25 1
21 18 19 2
22 18 30 1
23 20 21 1
24 21 22 1
25 21 23 2
26 20 26 1
27 20 27 1
28 22 28 1
29 22 29 1
30 30 31 1
31 30 36 1
32 31 32 1
33 31 34 1
34 31 37 1
35 32 33 2
36 32 44 1
37 34 35 1
38 35 36 1
39 34 38 1
40 34 39 1
41 35 40 1
42 35 41 1
43 36 42 1
44 36 43 1
45 44 45 1
46 44 53 1
47 45 46 1
48 45 48 1
49 45 54 1
50 46 47 2
51 46 59 1
52 48 49 1
53 49 50 1
54 50 51 2
55 50 52 1
56 48 55 1
57 48 56 1
58 49 57 1
59 49 58 1
60 59 60 1
61 59 65 1
62 60 61 1
63 60 63 1
64 60 66 1
65 61 62 2
66 61 70 1
67 63 64 1
68 63 67 1
69 63 68 1
70 64 69 1
71 70 71 1
72 70 78 1
73 71 72 1
74 71 74 1
75 71 79 1
76 72 73 2
77 72 89 1
78 74 75 1
79 74 76 1
80 75 77 1
81 74 80 1
82 75 81 1
83 75 82 1
84 76 83 1
85 76 84 1
86 76 85 1
87 77 86 1
88 77 87 1
89 77 88 1
90 89 90 1
91 89 97 1
92 90 91 1
93 90 93 1
94 90 98 1
95 91 92 2
96 91 108 1
97 93 94 1
98 94 95 1
99 94 96 1
100 93 99 1
101 93 100 1
102 94 101 1
103 95 102 1
104 95 103 1
105 95 104 1
106 96 105 1
107 96 106 1
108 96 107 1
109 108 109 1
110 108 116 1
111 109 110 1
112 109 112 1
113 109 117 1
114 110 111 2
115 110 120 1
116 112 113 1
117 113 114 2
118 113 115 1
119 112 118 1
120 112 119 1
121 120 121 1
122 120 129 1
123 121 122 1
124 121 124 1
125 121 130 1
126 122 123 2
127 122 135 1
128 124 125 1
129 125 126 1
130 126 127 2
131 126 128 1
132 124 131 1
133 124 132 1
134 125 133 1
135 125 134 1
136 135 136 1
137 135 145 1
138 136 137 1
139 136 139 1
140 136 146 1
141 137 138 2
142 137 152 1
143 139 140 1
144 140 141 2
145 141 144 1
146 140 142 1
147 142 143 2
148 143 144 1
149 139 147 1
150 139 148 1
151 141 149 1
152 143 150 1
153 144 151 1
154 152 153 1
155 152 159 1
156 153 154 1
157 153 156 1
158 153 160 1
159 154 155 2
160 154 168 1
161 156 157 1
162 156 158 1
163 156 161 1
164 157 162 1
165 157 163 1
166 157 164 1
167 158 165 1
168 158 166 1
169 158 167 1
170 168 169 1
171 168 177 1
172 169 170 1
173 169 172 1
174 169 178 1
175 170 171 2
176 170 185 1
177 172 173 1
178 173 174 1
179 174 175 1
180 174 176 2
181 172 179 1
182 172 180 1
183 173 181 1
184 173 182 1
185 175 183 1
186 175 184 1
187 185 186 1
188 185 196 1
189 186 187 1
190 186 189 1
191 186 197 1
192 187 188 2
193 187 209 1
194 189 190 1
195 190 191 1
196 191 192 1
197 192 193 1
198 193 194 2
199 193 195 1
200 189 198 1
201 189 199 1
202 190 200 1
203 190 201 1
204 191 202 1
205 191 203 1
206 192 204 1
207 194 205 1
208 194 206 1
209 195 207 1
210 195 208 1
211 209 210 1
212 209 216 1
213 210 211 1
214 210 213 1
215 210 217 1
216 211 212 2
217 211 225 1
218 213 214 1
219 213 215 1
220 213 218 1
221 214 219 1
222 214 220 1
223 214 221 1
224 215 222 1
225 215 223 1
226 215 224 1
227 225 226 1
228 225 233 1
229 226 227 1
230 226 229 1
231 226 234 1
232 227 228 2
233 227 237 1
234 229 230 1
235 230 231 2
236 230 232 1
237 229 235 1
238 229 236 1
239 237 238 1
240 237 248 1
241 238 239 1
242 238 241 1
243 238 249 1
244 239 240 2
245 241 242 1
246 242 243 1
247 243 244 1
248 244 245 1
249 245 246 2
250 245 247 1
251 241 250 1
252 241 251 1
253 242 252 1
254 242 253 1
255 243 254 1
256 243 255 1
257 244 256 1
258 246 257 1
259 246 258 1
260 247 259 1
261 247 260 1
@<TRIPOS>SUBSTRUCTURE
1	GLU1	1	RESIDUE	1 ****	GLU
2	ASN2	16	RESIDUE	1 ****	ASN
3	PRO3	30	RESIDUE	1 ****	PRO
4	GLU4	44	RESIDUE	1 ****	GLU
5	SER5	59	RESIDUE	1 ****	SER
6	ILE6	70	RESIDUE	1 ****	ILE
7	LEU7	89	RESIDUE	1 ****	LEU
8	ASP8	108	RESIDUE	1 ****	ASP
9	GLU9	120	RESIDUE	1 ****	GLU
10	HIS10	135	RESIDUE	1 ****	HIS
11	VAL11	152	RESIDUE	1 ****	VAL
12	GLN12	168	RESIDUE	1 ****	GLN
13	ARG13	185	RESIDUE	1 ****	ARG
14	VAL14	209	RESIDUE	1 ****	VAL
15	ASP15	225	RESIDUE	1 ****	ASP
16	ARG16	237	RESIDUE	1 ****	ARG
