@<TRIPOS>MOLECULE
13-4
257 258 16              
SMALL
USER_CHARGES
@<TRIPOS>ATOM
1	   N	2033.124	615.521	-2098.259	N.3	1	GLU1	-0.516	
2	  CA	2033.683	616.870	-2098.259	C.3	1	GLU1	0.040	
3	   C	2035.192	616.830	-2098.259	C.2	1	GLU1	0.537	
4	   O	2035.868	617.529	-2099.027	O.2	1	GLU1	-0.582	
5	  CB	2033.160	617.655	-2097.022	C.3	1	GLU1	0.056	
6	  CG	2033.635	619.140	-2096.911	C.3	1	GLU1	0.014	
7	  CD	2033.211	619.944	-2095.696	C.2	1	GLU1	0.805	
8	 OE1	2032.483	619.442	-2094.818	O.co2	1	GLU1	-0.819	
9	 OE2	2033.641	621.114	-2095.624	O.co2	1	GLU1	-0.819	
10	   H	2033.751	614.642	-2098.259	 H	1	GLU1	0.294	
11	  HA	2033.357	617.388	-2099.179	 H	1	GLU1	0.111	
12	 2HB	2033.449	617.124	-2096.092	 H	1	GLU1	-0.017	
13	 3HB	2032.053	617.645	-2097.009	 H	1	GLU1	-0.017	
14	 2HG	2033.325	619.725	-2097.792	 H	1	GLU1	-0.043	
15	 3HG	2034.735	619.207	-2096.882	 H	1	GLU1	-0.043	
16	   N	2035.796	616.044	-2097.434	N.am	2	ASN2	-0.416	
17	  CA	2037.256	616.005	-2097.434	C.3	2	ASN2	0.014	
18	   C	2037.787	615.649	-2098.802	C.2	2	ASN2	0.597	
19	   O	2038.702	616.280	-2099.331	O.2	2	ASN2	-0.568	
20	  CB	2037.748	614.982	-2096.369	C.3	2	ASN2	-0.204	
21	  CG	2037.284	615.206	-2094.926	C.2	2	ASN2	0.713	
22	 ND2	2037.879	616.121	-2094.208	N.pl3	2	ASN2	-0.919	
23	 OD1	2036.364	614.572	-2094.432	O.2	2	ASN2	-0.593	
24	   H	2035.268	615.464	-2096.797	 H	2	ASN2	0.272	
25	  HA	2037.633	617.015	-2097.188	 H	2	ASN2	0.105	
26	 2HB	2038.852	614.923	-2096.373	 H	2	ASN2	0.080	
27	 3HB	2037.419	613.964	-2096.655	 H	2	ASN2	0.080	
28	1HD2	2037.398	616.294	-2093.321	 H	2	ASN2	0.420	
29	2HD2	2038.581	616.692	-2094.677	 H	2	ASN2	0.420	
30	   N	2037.265	614.654	-2099.436	N.am	3	PRO3	-0.255	
31	  CA	2037.717	614.245	-2100.758	C.3	3	PRO3	-0.027	
32	   C	2037.319	615.268	-2101.835	C.2	3	PRO3	0.590	
33	   O	2038.143	615.651	-2102.666	O.2	3	PRO3	-0.575	
34	  CB	2037.013	612.890	-2100.927	C.3	3	PRO3	-0.007	
35	  CG	2035.730	613.043	-2100.097	C.3	3	PRO3	0.019	
36	  CD	2036.187	613.861	-2098.887	C.3	3	PRO3	0.019	
37	  HA	2038.803	614.125	-2100.771	 H	3	PRO3	0.064	
38	 2HB	2037.636	612.109	-2100.486	 H	3	PRO3	0.025	
39	 3HB	2036.815	612.642	-2101.972	 H	3	PRO3	0.025	
40	 2HG	2035.302	612.080	-2099.806	 H	3	PRO3	0.021	
41	 3HG	2034.992	613.614	-2100.664	 H	3	PRO3	0.021	
42	 2HD	2036.576	613.212	-2098.099	 H	3	PRO3	0.039	
43	 3HD	2035.391	614.497	-2098.494	 H	3	PRO3	0.039	
44	   N	2036.114	615.728	-2101.867	N.am	4	GLU4	-0.516	
45	  CA	2035.755	616.699	-2102.897	C.3	4	GLU4	0.040	
46	   C	2036.653	617.910	-2102.836	C.2	4	GLU4	0.537	
47	   O	2037.180	618.390	-2103.851	O.2	4	GLU4	-0.582	
48	  CB	2034.266	617.118	-2102.727	C.3	4	GLU4	0.056	
49	  CG	2033.718	618.121	-2103.793	C.3	4	GLU4	0.014	
50	  CD	2032.291	618.618	-2103.650	C.2	4	GLU4	0.805	
51	 OE1	2031.565	618.220	-2102.719	O.co2	4	GLU4	-0.819	
52	 OE2	2031.902	619.447	-2104.498	O.co2	4	GLU4	-0.819	
53	   H	2035.430	615.422	-2101.191	 H	4	GLU4	0.294	
54	  HA	2035.886	616.228	-2103.888	 H	4	GLU4	0.111	
55	 2HB	2034.113	617.558	-2101.720	 H	4	GLU4	-0.017	
56	 3HB	2033.618	616.220	-2102.733	 H	4	GLU4	-0.017	
57	 2HG	2033.800	617.706	-2104.811	 H	4	GLU4	-0.043	
58	 3HG	2034.306	619.054	-2103.804	 H	4	GLU4	-0.043	
59	   N	2036.881	618.463	-2101.693	N.am	5	SER5	-0.416	
60	  CA	2037.750	619.634	-2101.635	C.3	5	SER5	-0.025	
61	   C	2039.109	619.328	-2102.220	C.2	5	SER5	0.597	
62	   O	2039.657	620.081	-2103.025	O.2	5	SER5	-0.568	
63	  CB	2037.862	620.166	-2100.184	C.3	5	SER5	0.212	
64	  OG	2038.594	619.287	-2099.323	O.3	5	SER5	-0.655	
65	   H	2036.464	618.091	-2100.852	 H	5	SER5	0.272	
66	  HA	2037.302	620.424	-2102.264	 H	5	SER5	0.084	
67	 2HB	2036.862	620.360	-2099.751	 H	5	SER5	0.035	
68	 3HB	2038.368	621.152	-2100.187	 H	5	SER5	0.035	
69	  HG	2038.105	618.462	-2099.272	 H	5	SER5	0.428	
70	   N	2039.714	618.245	-2101.866	N.am	6	ILE6	-0.416	
71	  CA	2041.027	617.950	-2102.432	C.3	6	ILE6	-0.060	
72	   C	2040.970	617.912	-2103.940	C.2	6	ILE6	0.597	
73	   O	2041.805	618.500	-2104.644	O.2	6	ILE6	-0.568	
74	  CB	2041.626	616.613	-2101.833	C.3	6	ILE6	0.130	
75	 CG1	2041.645	616.551	-2100.271	C.3	6	ILE6	-0.043	
76	 CG2	2043.067	616.311	-2102.348	C.3	6	ILE6	-0.320	
77	 CD1	2041.914	615.161	-2099.657	C.3	6	ILE6	-0.066	
78	   H	2039.285	617.610	-2101.208	 H	6	ILE6	0.272	
79	  HA	2041.701	618.784	-2102.164	 H	6	ILE6	0.087	
80	  HB	2040.968	615.788	-2102.177	 H	6	ILE6	0.019	
81	2HG1	2040.663	616.871	-2099.876	 H	6	ILE6	0.024	
82	3HG1	2042.361	617.292	-2099.866	 H	6	ILE6	0.024	
83	1HG2	2043.126	616.218	-2103.446	 H	6	ILE6	0.088	
84	2HG2	2043.790	617.093	-2102.045	 H	6	ILE6	0.088	
85	3HG2	2043.457	615.348	-2101.969	 H	6	ILE6	0.088	
86	1HD1	2041.186	614.407	-2100.012	 H	6	ILE6	0.019	
87	2HD1	2042.925	614.782	-2099.893	 H	6	ILE6	0.019	
88	3HD1	2041.838	615.191	-2098.554	 H	6	ILE6	0.019	
89	   N	2040.024	617.250	-2104.514	N.am	7	LEU7	-0.416	
90	  CA	2039.969	617.214	-2105.973	C.3	7	LEU7	-0.052	
91	   C	2039.898	618.609	-2106.545	C.2	7	LEU7	0.597	
92	   O	2040.619	618.973	-2107.486	O.2	7	LEU7	-0.568	
93	  CB	2038.766	616.354	-2106.454	C.3	7	LEU7	-0.110	
94	  CG	2038.693	614.875	-2105.988	C.3	7	LEU7	0.353	
95	 CD1	2037.503	614.170	-2106.654	C.3	7	LEU7	-0.412	
96	 CD2	2039.986	614.095	-2106.280	C.3	7	LEU7	-0.412	
97	   H	2039.332	616.763	-2103.964	 H	7	LEU7	0.272	
98	  HA	2040.911	616.774	-2106.347	 H	7	LEU7	0.092	
99	 2HB	2038.743	616.371	-2107.561	 H	7	LEU7	0.046	
100	 3HB	2037.826	616.857	-2106.150	 H	7	LEU7	0.046	
101	  HG	2038.522	614.866	-2104.891	 H	7	LEU7	-0.036	
102	1HD1	2036.546	614.679	-2106.431	 H	7	LEU7	0.100	
103	2HD1	2037.602	614.129	-2107.755	 H	7	LEU7	0.100	
104	3HD1	2037.395	613.129	-2106.298	 H	7	LEU7	0.100	
105	1HD2	2040.261	614.126	-2107.350	 H	7	LEU7	0.100	
106	2HD2	2040.839	614.506	-2105.708	 H	7	LEU7	0.100	
107	3HD2	2039.904	613.033	-2105.984	 H	7	LEU7	0.100	
108	   N	2039.061	619.450	-2106.039	N.am	8	ASP8	-0.516	
109	  CA	2038.991	620.800	-2106.591	C.3	8	ASP8	0.038	
110	   C	2040.338	621.479	-2106.533	C.2	8	ASP8	0.537	
111	   O	2040.811	622.085	-2107.507	O.2	8	ASP8	-0.582	
112	  CB	2037.912	621.639	-2105.849	C.3	8	ASP8	-0.030	
113	  CG	2037.694	623.060	-2106.389	C.2	8	ASP8	0.799	
114	 OD1	2037.759	623.260	-2107.620	O.co2	8	ASP8	-0.801	
115	 OD2	2037.502	623.985	-2105.573	O.co2	8	ASP8	-0.801	
116	   H	2038.462	619.179	-2105.271	 H	8	ASP8	0.294	
117	  HA	2038.708	620.723	-2107.658	 H	8	ASP8	0.088	
118	 2HB	2038.170	621.721	-2104.777	 H	8	ASP8	-0.012	
119	 3HB	2036.933	621.134	-2105.883	 H	8	ASP8	-0.012	
120	   N	2041.017	621.429	-2105.438	N.am	9	GLU9	-0.516	
121	  CA	2042.320	622.086	-2105.381	C.3	9	GLU9	0.040	
122	   C	2043.238	621.559	-2106.457	C.2	9	GLU9	0.537	
123	   O	2043.902	622.313	-2107.182	O.2	9	GLU9	-0.582	
124	  CB	2042.953	621.877	-2103.976	C.3	9	GLU9	0.056	
125	  CG	2044.335	622.568	-2103.745	C.3	9	GLU9	0.014	
126	  CD	2045.036	622.354	-2102.417	C.2	9	GLU9	0.805	
127	 OE1	2044.514	621.663	-2101.521	O.co2	9	GLU9	-0.819	
128	 OE2	2046.156	622.892	-2102.284	O.co2	9	GLU9	-0.819	
129	   H	2040.653	620.942	-2104.631	 H	9	GLU9	0.294	
130	  HA	2042.178	623.168	-2105.556	 H	9	GLU9	0.111	
131	 2HB	2043.065	620.792	-2103.773	 H	9	GLU9	-0.017	
132	 3HB	2042.255	622.230	-2103.191	 H	9	GLU9	-0.017	
133	 2HG	2044.264	623.660	-2103.884	 H	9	GLU9	-0.043	
134	 3HG	2045.082	622.224	-2104.479	 H	9	GLU9	-0.043	
135	   N	2043.334	620.284	-2106.627	N.am	10	HIS10	-0.416	
136	  CA	2044.223	619.773	-2107.668	C.3	10	HIS10	-0.058	
137	   C	2043.856	620.339	-2109.019	C.2	10	HIS10	0.597	
138	   O	2044.709	620.804	-2109.790	O.2	10	HIS10	-0.568	
139	  CB	2044.058	618.244	-2107.664	C.3	10	HIS10	-0.007	
140	  CG	2045.344	617.533	-2107.356	C.2	10	HIS10	0.187	
141	 CD2	2045.724	617.197	-2106.063	C.2	10	HIS10	-0.221	
142	 ND1	2046.296	617.128	-2108.288	N.2	10	HIS10	-0.543	
143	 CE1	2047.202	616.569	-2107.465	C.2	10	HIS10	0.163	
144	 NE2	2046.939	616.565	-2106.130	N.pl3	10	HIS10	-0.280	
145	   H	2042.803	619.648	-2106.050	 H	10	HIS10	0.272	
146	  HA	2045.242	620.130	-2107.442	 H	10	HIS10	0.136	
147	 2HB	2043.693	617.878	-2108.644	 H	10	HIS10	0.037	
148	 3HB	2043.302	617.907	-2106.925	 H	10	HIS10	0.037	
149	 2HD	2045.138	617.411	-2105.175	 H	10	HIS10	0.186	
150	 1HE	2048.093	616.148	-2107.912	 H	10	HIS10	0.144	
151	 2HE	2047.505	616.187	-2105.357	 H	10	HIS10	0.334	
152	   N	2042.618	620.338	-2109.382	N.am	11	VAL11	-0.416	
153	  CA	2042.264	620.885	-2110.689	C.3	11	VAL11	-0.087	
154	   C	2042.729	622.316	-2110.820	C.2	11	VAL11	0.597	
155	   O	2043.330	622.721	-2111.823	O.2	11	VAL11	-0.568	
156	  CB	2040.703	620.779	-2110.908	C.3	11	VAL11	0.299	
157	 CG1	2040.134	621.484	-2112.171	C.3	11	VAL11	-0.319	
158	 CG2	2040.178	619.325	-2110.983	C.3	11	VAL11	-0.319	
159	   H	2041.905	619.965	-2108.772	 H	11	VAL11	0.272	
160	  HA	2042.783	620.303	-2111.471	 H	11	VAL11	0.097	
161	  HB	2040.215	621.259	-2110.033	 H	11	VAL11	-0.030	
162	1HG1	2040.573	621.093	-2113.108	 H	11	VAL11	0.079	
163	2HG1	2039.035	621.377	-2112.253	 H	11	VAL11	0.079	
164	3HG1	2040.313	622.576	-2112.161	 H	11	VAL11	0.079	
165	1HG2	2040.467	618.737	-2110.093	 H	11	VAL11	0.079	
166	2HG2	2039.072	619.288	-2111.026	 H	11	VAL11	0.079	
167	3HG2	2040.560	618.785	-2111.870	 H	11	VAL11	0.079	
168	   N	2042.491	623.141	-2109.857	N.am	12	GLN12	-0.416	
169	  CA	2042.940	624.524	-2109.984	C.3	12	GLN12	-0.003	
170	   C	2044.430	624.591	-2110.221	C.2	12	GLN12	0.597	
171	   O	2044.918	625.300	-2111.099	O.2	12	GLN12	-0.568	
172	  CB	2042.549	625.291	-2108.700	C.3	12	GLN12	-0.004	
173	  CG	2042.910	626.813	-2108.668	C.3	12	GLN12	-0.064	
174	  CD	2042.607	627.625	-2107.403	C.2	12	GLN12	0.695	
175	 NE2	2042.039	627.048	-2106.375	N.pl3	12	GLN12	-0.941	
176	 OE1	2042.909	628.806	-2107.325	O.2	12	GLN12	-0.609	
177	   H	2042.002	622.835	-2109.028	 H	12	GLN12	0.272	
178	  HA	2042.441	624.981	-2110.858	 H	12	GLN12	0.085	
179	 2HB	2043.025	624.790	-2107.831	 H	12	GLN12	0.017	
180	 3HB	2041.459	625.184	-2108.538	 H	12	GLN12	0.017	
181	 2HG	2042.433	627.334	-2109.519	 H	12	GLN12	0.035	
182	 3HG	2043.993	626.954	-2108.834	 H	12	GLN12	0.035	
183	1HE2	2041.932	627.642	-2105.551	 H	12	GLN12	0.425	
184	2HE2	2041.876	626.045	-2106.479	 H	12	GLN12	0.425	
185	   N	2045.215	623.884	-2109.480	N.am	13	VAL13	-0.416	
186	  CA	2046.655	623.949	-2109.710	C.3	13	VAL13	-0.087	
187	   C	2046.993	623.579	-2111.134	C.2	13	VAL13	0.597	
188	   O	2047.768	624.255	-2111.823	O.2	13	VAL13	-0.568	
189	  CB	2047.404	623.003	-2108.690	C.3	13	VAL13	0.299	
190	 CG1	2048.929	622.813	-2108.918	C.3	13	VAL13	-0.319	
191	 CG2	2047.265	623.439	-2107.212	C.3	13	VAL13	-0.319	
192	   H	2044.838	623.294	-2108.752	 H	13	VAL13	0.272	
193	  HA	2046.993	624.991	-2109.558	 H	13	VAL13	0.097	
194	  HB	2046.944	621.995	-2108.779	 H	13	VAL13	-0.030	
195	1HG1	2049.487	623.767	-2108.871	 H	13	VAL13	0.079	
196	2HG1	2049.383	622.130	-2108.175	 H	13	VAL13	0.079	
197	3HG1	2049.155	622.354	-2109.900	 H	13	VAL13	0.079	
198	1HG2	2046.206	623.543	-2106.912	 H	13	VAL13	0.079	
199	2HG2	2047.706	622.696	-2106.520	 H	13	VAL13	0.079	
200	3HG2	2047.758	624.409	-2107.011	 H	13	VAL13	0.079	
201	   N	2046.457	622.525	-2111.650	N.am	14	VAL14	-0.416	
202	  CA	2046.783	622.166	-2113.027	C.3	14	VAL14	-0.087	
203	   C	2046.454	623.295	-2113.973	C.2	14	VAL14	0.597	
204	   O	2047.249	623.677	-2114.842	O.2	14	VAL14	-0.568	
205	  CB	2046.011	620.849	-2113.435	C.3	14	VAL14	0.299	
206	 CG1	2046.101	620.431	-2114.928	C.3	14	VAL14	-0.319	
207	 CG2	2046.442	619.596	-2112.634	C.3	14	VAL14	-0.319	
208	   H	2045.822	621.956	-2111.109	 H	14	VAL14	0.272	
209	  HA	2047.871	621.989	-2113.101	 H	14	VAL14	0.097	
210	  HB	2044.934	621.020	-2113.220	 H	14	VAL14	-0.030	
211	1HG1	2047.143	620.253	-2115.256	 H	14	VAL14	0.079	
212	2HG1	2045.529	619.508	-2115.142	 H	14	VAL14	0.079	
213	3HG1	2045.673	621.193	-2115.607	 H	14	VAL14	0.079	
214	1HG2	2046.353	619.755	-2111.544	 H	14	VAL14	0.079	
215	2HG2	2045.806	618.720	-2112.867	 H	14	VAL14	0.079	
216	3HG2	2047.490	619.306	-2112.839	 H	14	VAL14	0.079	
217	   N	2045.310	623.882	-2113.872	N.am	15	MET15	-0.416	
218	  CA	2044.990	624.974	-2114.786	C.3	15	MET15	-0.024	
219	   C	2046.021	626.074	-2114.698	C.2	15	MET15	0.597	
220	   O	2046.525	626.584	-2115.710	O.2	15	MET15	-0.568	
221	  CB	2043.569	625.521	-2114.479	C.3	15	MET15	0.034	
222	  CG	2042.407	624.523	-2114.671	C.3	15	MET15	0.002	
223	  SD	2040.833	625.390	-2114.559	S.3	15	MET15	-0.274	
224	  CE	2039.751	623.961	-2114.423	C.3	15	MET15	-0.054	
225	   H	2044.644	623.589	-2113.171	 H	15	MET15	0.272	
226	  HA	2045.017	624.587	-2115.822	 H	15	MET15	0.088	
227	 2HB	2043.368	626.400	-2115.121	 H	15	MET15	0.024	
228	 3HB	2043.533	625.913	-2113.442	 H	15	MET15	0.024	
229	 2HG	2042.449	623.737	-2113.894	 H	15	MET15	0.044	
230	 3HG	2042.470	624.008	-2115.647	 H	15	MET15	0.044	
231	 1HE	2039.895	623.272	-2115.275	 H	15	MET15	0.068	
232	 2HE	2039.959	623.408	-2113.490	 H	15	MET15	0.068	
233	 3HE	2038.694	624.277	-2114.407	 H	15	MET15	0.068	
234	   N	2046.389	626.495	-2113.535	N.am	16	ARG16	-0.348	
235	  CA	2047.385	627.558	-2113.450	C.3	16	ARG16	-0.264	
236	   C	2048.657	627.165	-2114.165	C.2	16	ARG16	0.734	
237	   O	2048.771	626.089	-2114.746	O.2	16	ARG16	-0.589	
238	  CB	2047.653	627.876	-2111.951	C.3	16	ARG16	-0.001	
239	  CG	2048.478	629.165	-2111.678	C.3	16	ARG16	0.039	
240	  CD	2048.726	629.385	-2110.176	C.3	16	ARG16	0.049	
241	  NE	2049.502	630.643	-2109.974	N.pl3	16	ARG16	-0.530	
242	  CZ	2049.892	631.126	-2108.798	C.cat	16	ARG16	0.808	
243	 NH1	2049.643	630.541	-2107.660	N.pl3	16	ARG16	-0.863	
244	 NH2	2050.556	632.238	-2108.779	N.pl3	16	ARG16	-0.863	
245	   H	2045.993	626.095	-2112.696	 H	16	ARG16	0.275	
246	  HA	2046.977	628.451	-2113.960	 H	16	ARG16	0.156	
247	 2HB	2048.149	627.000	-2111.485	 H	16	ARG16	0.033	
248	 3HB	2046.683	627.958	-2111.419	 H	16	ARG16	0.033	
249	 2HG	2047.948	630.036	-2112.116	 H	16	ARG16	0.029	
250	 3HG	2049.452	629.112	-2112.206	 H	16	ARG16	0.029	
251	 2HD	2049.274	628.510	-2109.762	 H	16	ARG16	0.069	
252	 3HD	2047.752	629.427	-2109.642	 H	16	ARG16	0.069	
253	  HE	2049.781	631.224	-2110.771	 H	16	ARG16	0.346	
254	1HH1	2049.117	629.668	-2107.745	 H	16	ARG16	0.448	
255	2HH1	2049.976	630.977	-2106.798	 H	16	ARG16	0.448	
256	1HH2	2050.743	632.681	-2109.680	 H	16	ARG16	0.448	
257	2HH2	2050.845	632.593	-2107.866	 H	16	ARG16	0.448	
@<TRIPOS>BOND
1 1 2 1
2 1 10 1
3 2 3 1
4 2 5 1
5 2 11 1
6 3 4 2
7 3 16 1
8 5 6 1
9 6 7 1
10 7 8 2
11 7 9 1
12 5 12 1
13 5 13 1
14 6 14 1
15 6 15 1
16 16 17 1
17 16 24 1
18 17 18 1
19 17 20 1
20 17 25 1
21 18 19 2
22 18 30 1
23 20 21 1
24 21 22 1
25 21 23 2
26 20 26 1
27 20 27 1
28 22 28 1
29 22 29 1
30 30 31 1
31 30 36 1
32 31 32 1
33 31 34 1
34 31 37 1
35 32 33 2
36 32 44 1
37 34 35 1
38 35 36 1
39 34 38 1
40 34 39 1
41 35 40 1
42 35 41 1
43 36 42 1
44 36 43 1
45 44 45 1
46 44 53 1
47 45 46 1
48 45 48 1
49 45 54 1
50 46 47 2
51 46 59 1
52 48 49 1
53 49 50 1
54 50 51 2
55 50 52 1
56 48 55 1
57 48 56 1
58 49 57 1
59 49 58 1
60 59 60 1
61 59 65 1
62 60 61 1
63 60 63 1
64 60 66 1
65 61 62 2
66 61 70 1
67 63 64 1
68 63 67 1
69 63 68 1
70 64 69 1
71 70 71 1
72 70 78 1
73 71 72 1
74 71 74 1
75 71 79 1
76 72 73 2
77 72 89 1
78 74 75 1
79 74 76 1
80 75 77 1
81 74 80 1
82 75 81 1
83 75 82 1
84 76 83 1
85 76 84 1
86 76 85 1
87 77 86 1
88 77 87 1
89 77 88 1
90 89 90 1
91 89 97 1
92 90 91 1
93 90 93 1
94 90 98 1
95 91 92 2
96 91 108 1
97 93 94 1
98 94 95 1
99 94 96 1
100 93 99 1
101 93 100 1
102 94 101 1
103 95 102 1
104 95 103 1
105 95 104 1
106 96 105 1
107 96 106 1
108 96 107 1
109 108 109 1
110 108 116 1
111 109 110 1
112 109 112 1
113 109 117 1
114 110 111 2
115 110 120 1
116 112 113 1
117 113 114 2
118 113 115 1
119 112 118 1
120 112 119 1
121 120 121 1
122 120 129 1
123 121 122 1
124 121 124 1
125 121 130 1
126 122 123 2
127 122 135 1
128 124 125 1
129 125 126 1
130 126 127 2
131 126 128 1
132 124 131 1
133 124 132 1
134 125 133 1
135 125 134 1
136 135 136 1
137 135 145 1
138 136 137 1
139 136 139 1
140 136 146 1
141 137 138 2
142 137 152 1
143 139 140 1
144 140 141 2
145 141 144 1
146 140 142 1
147 142 143 2
148 143 144 1
149 139 147 1
150 139 148 1
151 141 149 1
152 143 150 1
153 144 151 1
154 152 153 1
155 152 159 1
156 153 154 1
157 153 156 1
158 153 160 1
159 154 155 2
160 154 168 1
161 156 157 1
162 156 158 1
163 156 161 1
164 157 162 1
165 157 163 1
166 157 164 1
167 158 165 1
168 158 166 1
169 158 167 1
170 168 169 1
171 168 177 1
172 169 170 1
173 169 172 1
174 169 178 1
175 170 171 2
176 170 185 1
177 172 173 1
178 173 174 1
179 174 175 1
180 174 176 2
181 172 179 1
182 172 180 1
183 173 181 1
184 173 182 1
185 175 183 1
186 175 184 1
187 185 186 1
188 185 192 1
189 186 187 1
190 186 189 1
191 186 193 1
192 187 188 2
193 187 201 1
194 189 190 1
195 189 191 1
196 189 194 1
197 190 195 1
198 190 196 1
199 190 197 1
200 191 198 1
201 191 199 1
202 191 200 1
203 201 202 1
204 201 208 1
205 202 203 1
206 202 205 1
207 202 209 1
208 203 204 2
209 203 217 1
210 205 206 1
211 205 207 1
212 205 210 1
213 206 211 1
214 206 212 1
215 206 213 1
216 207 214 1
217 207 215 1
218 207 216 1
219 217 218 1
220 217 225 1
221 218 219 1
222 218 221 1
223 218 226 1
224 219 220 2
225 219 234 1
226 221 222 1
227 222 223 1
228 223 224 1
229 221 227 1
230 221 228 1
231 222 229 1
232 222 230 1
233 224 231 1
234 224 232 1
235 224 233 1
236 234 235 1
237 234 245 1
238 235 236 1
239 235 238 1
240 235 246 1
241 236 237 2
242 238 239 1
243 239 240 1
244 240 241 1
245 241 242 1
246 242 243 2
247 242 244 1
248 238 247 1
249 238 248 1
250 239 249 1
251 239 250 1
252 240 251 1
253 240 252 1
254 241 253 1
255 243 254 1
256 243 255 1
257 244 256 1
258 244 257 1
@<TRIPOS>SUBSTRUCTURE
1	GLU1	1	RESIDUE	1 ****	GLU
2	ASN2	16	RESIDUE	1 ****	ASN
3	PRO3	30	RESIDUE	1 ****	PRO
4	GLU4	44	RESIDUE	1 ****	GLU
5	SER5	59	RESIDUE	1 ****	SER
6	ILE6	70	RESIDUE	1 ****	ILE
7	LEU7	89	RESIDUE	1 ****	LEU
8	ASP8	108	RESIDUE	1 ****	ASP
9	GLU9	120	RESIDUE	1 ****	GLU
10	HIS10	135	RESIDUE	1 ****	HIS
11	VAL11	152	RESIDUE	1 ****	VAL
12	GLN12	168	RESIDUE	1 ****	GLN
13	VAL13	185	RESIDUE	1 ****	VAL
14	VAL14	201	RESIDUE	1 ****	VAL
15	MET15	217	RESIDUE	1 ****	MET
16	ARG16	234	RESIDUE	1 ****	ARG
