@<TRIPOS>MOLECULE
14-1
259 260 16              
SMALL
USER_CHARGES
@<TRIPOS>ATOM
1	   N	2168.152	660.835	-2248.882	N.3	1	GLU1	-0.516	
2	  CA	2168.711	662.184	-2248.882	C.3	1	GLU1	0.040	
3	   C	2170.220	662.143	-2248.882	C.2	1	GLU1	0.537	
4	   O	2170.896	662.843	-2249.651	O.2	1	GLU1	-0.582	
5	  CB	2168.188	662.969	-2247.646	C.3	1	GLU1	0.056	
6	  CG	2168.663	664.453	-2247.534	C.3	1	GLU1	0.014	
7	  CD	2168.239	665.258	-2246.319	C.2	1	GLU1	0.805	
8	 OE1	2167.511	664.755	-2245.441	O.co2	1	GLU1	-0.819	
9	 OE2	2168.669	666.427	-2246.247	O.co2	1	GLU1	-0.819	
10	   H	2168.779	659.956	-2248.882	 H	1	GLU1	0.294	
11	  HA	2168.385	662.702	-2249.802	 H	1	GLU1	0.111	
12	 2HB	2168.477	662.438	-2246.715	 H	1	GLU1	-0.017	
13	 3HB	2167.081	662.958	-2247.632	 H	1	GLU1	-0.017	
14	 2HG	2168.353	665.039	-2248.415	 H	1	GLU1	-0.043	
15	 3HG	2169.763	664.521	-2247.505	 H	1	GLU1	-0.043	
16	   N	2170.825	661.358	-2248.057	N.am	2	ASN2	-0.416	
17	  CA	2172.284	661.319	-2248.057	C.3	2	ASN2	0.014	
18	   C	2172.816	660.963	-2249.426	C.2	2	ASN2	0.597	
19	   O	2173.731	661.593	-2249.954	O.2	2	ASN2	-0.568	
20	  CB	2172.776	660.296	-2246.992	C.3	2	ASN2	-0.204	
21	  CG	2172.312	660.520	-2245.549	C.2	2	ASN2	0.713	
22	 ND2	2172.906	661.434	-2244.831	N.pl3	2	ASN2	-0.919	
23	 OD1	2171.391	659.886	-2245.055	O.2	2	ASN2	-0.593	
24	   H	2170.297	660.778	-2247.421	 H	2	ASN2	0.272	
25	  HA	2172.662	662.328	-2247.812	 H	2	ASN2	0.105	
26	 2HB	2173.880	660.237	-2246.996	 H	2	ASN2	0.080	
27	 3HB	2172.447	659.277	-2247.278	 H	2	ASN2	0.080	
28	1HD2	2172.426	661.608	-2243.945	 H	2	ASN2	0.420	
29	2HD2	2173.608	662.006	-2245.300	 H	2	ASN2	0.420	
30	   N	2172.294	659.968	-2250.060	N.am	3	PRO3	-0.255	
31	  CA	2172.746	659.559	-2251.381	C.3	3	PRO3	-0.027	
32	   C	2172.349	660.583	-2252.458	C.2	3	PRO3	0.590	
33	   O	2173.172	660.966	-2253.290	O.2	3	PRO3	-0.575	
34	  CB	2172.042	658.204	-2251.551	C.3	3	PRO3	-0.007	
35	  CG	2170.758	658.357	-2250.721	C.3	3	PRO3	0.019	
36	  CD	2171.216	659.175	-2249.511	C.3	3	PRO3	0.019	
37	  HA	2173.832	659.439	-2251.395	 H	3	PRO3	0.064	
38	 2HB	2172.665	657.423	-2251.110	 H	3	PRO3	0.025	
39	 3HB	2171.844	657.956	-2252.596	 H	3	PRO3	0.025	
40	 2HG	2170.331	657.395	-2250.430	 H	3	PRO3	0.021	
41	 3HG	2170.021	658.928	-2251.289	 H	3	PRO3	0.021	
42	 2HD	2171.605	658.526	-2248.724	 H	3	PRO3	0.039	
43	 3HD	2170.419	659.811	-2249.118	 H	3	PRO3	0.039	
44	   N	2171.144	661.043	-2252.491	N.am	4	GLU4	-0.516	
45	  CA	2170.785	662.014	-2253.521	C.3	4	GLU4	0.040	
46	   C	2171.684	663.224	-2253.459	C.2	4	GLU4	0.537	
47	   O	2172.211	663.704	-2254.473	O.2	4	GLU4	-0.582	
48	  CB	2169.296	662.433	-2253.351	C.3	4	GLU4	0.056	
49	  CG	2168.749	663.437	-2254.417	C.3	4	GLU4	0.014	
50	  CD	2167.322	663.934	-2254.274	C.2	4	GLU4	0.805	
51	 OE1	2166.595	663.535	-2253.343	O.co2	4	GLU4	-0.819	
52	 OE2	2166.933	664.763	-2255.122	O.co2	4	GLU4	-0.819	
53	   H	2170.459	660.736	-2251.814	 H	4	GLU4	0.294	
54	  HA	2170.916	661.543	-2254.512	 H	4	GLU4	0.111	
55	 2HB	2169.143	662.872	-2252.344	 H	4	GLU4	-0.017	
56	 3HB	2168.648	661.535	-2253.357	 H	4	GLU4	-0.017	
57	 2HG	2168.831	663.022	-2255.435	 H	4	GLU4	-0.043	
58	 3HG	2169.337	664.369	-2254.428	 H	4	GLU4	-0.043	
59	   N	2171.911	663.777	-2252.316	N.am	5	SER5	-0.416	
60	  CA	2172.781	664.948	-2252.257	C.3	5	SER5	-0.025	
61	   C	2174.140	664.642	-2252.842	C.2	5	SER5	0.597	
62	   O	2174.688	665.396	-2253.647	O.2	5	SER5	-0.568	
63	  CB	2172.892	665.480	-2250.807	C.3	5	SER5	0.212	
64	  OG	2173.623	664.601	-2249.946	O.3	5	SER5	-0.655	
65	   H	2171.493	663.406	-2251.475	 H	5	SER5	0.272	
66	  HA	2172.332	665.739	-2252.886	 H	5	SER5	0.084	
67	 2HB	2171.892	665.674	-2250.374	 H	5	SER5	0.035	
68	 3HB	2173.397	666.466	-2250.809	 H	5	SER5	0.035	
69	  HG	2173.134	663.776	-2249.895	 H	5	SER5	0.428	
70	   N	2174.744	663.559	-2252.488	N.am	6	ILE6	-0.416	
71	  CA	2176.057	663.263	-2253.054	C.3	6	ILE6	-0.060	
72	   C	2176.000	663.226	-2254.562	C.2	6	ILE6	0.597	
73	   O	2176.835	663.813	-2255.266	O.2	6	ILE6	-0.568	
74	  CB	2176.656	661.927	-2252.454	C.3	6	ILE6	0.130	
75	 CG1	2176.675	661.865	-2250.893	C.3	6	ILE6	-0.043	
76	 CG2	2178.097	661.625	-2252.969	C.3	6	ILE6	-0.320	
77	 CD1	2176.945	660.475	-2250.278	C.3	6	ILE6	-0.066	
78	   H	2174.315	662.925	-2251.829	 H	6	ILE6	0.272	
79	  HA	2176.731	664.097	-2252.786	 H	6	ILE6	0.087	
80	  HB	2175.998	661.101	-2252.798	 H	6	ILE6	0.019	
81	2HG1	2175.693	662.185	-2250.497	 H	6	ILE6	0.024	
82	3HG1	2177.391	662.607	-2250.488	 H	6	ILE6	0.024	
83	1HG2	2178.156	661.531	-2254.067	 H	6	ILE6	0.088	
84	2HG2	2178.820	662.407	-2252.666	 H	6	ILE6	0.088	
85	3HG2	2178.487	660.663	-2252.590	 H	6	ILE6	0.088	
86	1HD1	2176.216	659.722	-2250.633	 H	6	ILE6	0.019	
87	2HD1	2177.955	660.096	-2250.513	 H	6	ILE6	0.019	
88	3HD1	2176.868	660.506	-2249.175	 H	6	ILE6	0.019	
89	   N	2175.054	662.563	-2255.135	N.am	7	LEU7	-0.416	
90	  CA	2174.999	662.526	-2256.594	C.3	7	LEU7	-0.052	
91	   C	2174.927	663.922	-2257.167	C.2	7	LEU7	0.597	
92	   O	2175.648	664.283	-2258.109	O.2	7	LEU7	-0.568	
93	  CB	2173.796	661.667	-2257.074	C.3	7	LEU7	-0.110	
94	  CG	2173.722	660.187	-2256.608	C.3	7	LEU7	0.353	
95	 CD1	2172.532	659.482	-2257.273	C.3	7	LEU7	-0.412	
96	 CD2	2175.016	659.408	-2256.899	C.3	7	LEU7	-0.412	
97	   H	2174.362	662.076	-2254.584	 H	7	LEU7	0.272	
98	  HA	2175.941	662.086	-2256.968	 H	7	LEU7	0.092	
99	 2HB	2173.772	661.682	-2258.182	 H	7	LEU7	0.046	
100	 3HB	2172.856	662.169	-2256.770	 H	7	LEU7	0.046	
101	  HG	2173.552	660.179	-2255.510	 H	7	LEU7	-0.036	
102	1HD1	2171.575	659.991	-2257.051	 H	7	LEU7	0.100	
103	2HD1	2172.632	659.441	-2258.375	 H	7	LEU7	0.100	
104	3HD1	2172.425	658.441	-2256.917	 H	7	LEU7	0.100	
105	1HD2	2175.291	659.438	-2257.969	 H	7	LEU7	0.100	
106	2HD2	2175.869	659.819	-2256.328	 H	7	LEU7	0.100	
107	3HD2	2174.934	658.345	-2256.603	 H	7	LEU7	0.100	
108	   N	2174.090	664.763	-2256.661	N.am	8	ASP8	-0.516	
109	  CA	2174.020	666.112	-2257.215	C.3	8	ASP8	0.038	
110	   C	2175.367	666.791	-2257.158	C.2	8	ASP8	0.537	
111	   O	2175.840	667.395	-2258.133	O.2	8	ASP8	-0.582	
112	  CB	2172.943	666.952	-2256.474	C.3	8	ASP8	-0.030	
113	  CG	2172.725	668.373	-2257.015	C.2	8	ASP8	0.799	
114	 OD1	2172.789	668.571	-2258.246	O.co2	8	ASP8	-0.801	
115	 OD2	2172.533	669.299	-2256.200	O.co2	8	ASP8	-0.801	
116	   H	2173.492	664.493	-2255.893	 H	8	ASP8	0.294	
117	  HA	2173.737	666.034	-2258.282	 H	8	ASP8	0.088	
118	 2HB	2173.200	667.036	-2255.402	 H	8	ASP8	-0.012	
119	 3HB	2171.963	666.447	-2256.507	 H	8	ASP8	-0.012	
120	   N	2176.047	666.742	-2256.063	N.am	9	GLU9	-0.516	
121	  CA	2177.351	667.399	-2256.008	C.3	9	GLU9	0.040	
122	   C	2178.268	666.870	-2257.084	C.2	9	GLU9	0.537	
123	   O	2178.932	667.624	-2257.810	O.2	9	GLU9	-0.582	
124	  CB	2177.984	667.191	-2254.603	C.3	9	GLU9	0.056	
125	  CG	2179.367	667.883	-2254.374	C.3	9	GLU9	0.014	
126	  CD	2180.069	667.670	-2253.046	C.2	9	GLU9	0.805	
127	 OE1	2179.547	666.980	-2252.149	O.co2	9	GLU9	-0.819	
128	 OE2	2181.188	668.208	-2252.915	O.co2	9	GLU9	-0.819	
129	   H	2175.684	666.256	-2255.256	 H	9	GLU9	0.294	
130	  HA	2177.209	668.481	-2256.184	 H	9	GLU9	0.111	
131	 2HB	2178.096	666.107	-2254.399	 H	9	GLU9	-0.017	
132	 3HB	2177.287	667.545	-2253.819	 H	9	GLU9	-0.017	
133	 2HG	2179.295	668.974	-2254.514	 H	9	GLU9	-0.043	
134	 3HG	2180.114	667.537	-2255.108	 H	9	GLU9	-0.043	
135	   N	2178.364	665.595	-2257.253	N.am	10	HIS10	-0.416	
136	  CA	2179.251	665.082	-2258.293	C.3	10	HIS10	-0.058	
137	   C	2178.884	665.647	-2259.645	C.2	10	HIS10	0.597	
138	   O	2179.737	666.111	-2260.417	O.2	10	HIS10	-0.568	
139	  CB	2179.087	663.554	-2258.288	C.3	10	HIS10	-0.007	
140	  CG	2180.372	662.843	-2257.980	C.2	10	HIS10	0.187	
141	 CD2	2180.753	662.508	-2256.687	C.2	10	HIS10	-0.221	
142	 ND1	2181.323	662.436	-2258.912	N.2	10	HIS10	-0.543	
143	 CE1	2182.230	661.878	-2258.089	C.2	10	HIS10	0.163	
144	 NE2	2181.968	661.876	-2256.754	N.pl3	10	HIS10	-0.280	
145	   H	2177.833	664.960	-2256.674	 H	10	HIS10	0.272	
146	  HA	2180.271	665.440	-2258.069	 H	10	HIS10	0.136	
147	 2HB	2178.721	663.186	-2259.267	 H	10	HIS10	0.037	
148	 3HB	2178.331	663.217	-2257.547	 H	10	HIS10	0.037	
149	 2HD	2180.168	662.724	-2255.798	 H	10	HIS10	0.186	
150	 1HE	2183.121	661.456	-2258.536	 H	10	HIS10	0.144	
151	 2HE	2182.535	661.499	-2255.981	 H	10	HIS10	0.334	
152	   N	2177.646	665.646	-2260.008	N.am	11	VAL11	-0.416	
153	  CA	2177.291	666.192	-2261.315	C.3	11	VAL11	-0.087	
154	   C	2177.757	667.622	-2261.448	C.2	11	VAL11	0.597	
155	   O	2178.358	668.026	-2262.451	O.2	11	VAL11	-0.568	
156	  CB	2175.730	666.086	-2261.534	C.3	11	VAL11	0.299	
157	 CG1	2175.162	666.789	-2262.797	C.3	11	VAL11	-0.319	
158	 CG2	2175.205	664.632	-2261.606	C.3	11	VAL11	-0.319	
159	   H	2176.933	665.274	-2259.397	 H	11	VAL11	0.272	
160	  HA	2177.811	665.608	-2262.097	 H	11	VAL11	0.097	
161	  HB	2175.243	666.567	-2260.659	 H	11	VAL11	-0.030	
162	1HG1	2175.600	666.397	-2263.734	 H	11	VAL11	0.079	
163	2HG1	2174.062	666.682	-2262.879	 H	11	VAL11	0.079	
164	3HG1	2175.340	667.881	-2262.788	 H	11	VAL11	0.079	
165	1HG2	2175.494	664.045	-2260.715	 H	11	VAL11	0.079	
166	2HG2	2174.099	664.595	-2261.648	 H	11	VAL11	0.079	
167	3HG2	2175.586	664.090	-2262.492	 H	11	VAL11	0.079	
168	   N	2177.520	668.448	-2260.486	N.am	12	GLN12	-0.416	
169	  CA	2177.969	669.831	-2260.614	C.3	12	GLN12	-0.003	
170	   C	2179.459	669.897	-2260.852	C.2	12	GLN12	0.597	
171	   O	2179.947	670.605	-2261.731	O.2	12	GLN12	-0.568	
172	  CB	2177.579	670.599	-2259.332	C.3	12	GLN12	-0.004	
173	  CG	2177.940	672.121	-2259.301	C.3	12	GLN12	-0.064	
174	  CD	2177.639	672.935	-2258.037	C.2	12	GLN12	0.695	
175	 NE2	2177.072	672.360	-2257.008	N.pl3	12	GLN12	-0.941	
176	 OE1	2177.941	674.116	-2257.960	O.2	12	GLN12	-0.609	
177	   H	2177.031	668.143	-2259.656	 H	12	GLN12	0.272	
178	  HA	2177.470	670.287	-2261.489	 H	12	GLN12	0.085	
179	 2HB	2178.055	670.099	-2258.462	 H	12	GLN12	0.017	
180	 3HB	2176.489	670.493	-2259.168	 H	12	GLN12	0.017	
181	 2HG	2177.463	672.642	-2260.152	 H	12	GLN12	0.035	
182	 3HG	2179.024	672.262	-2259.467	 H	12	GLN12	0.035	
183	1HE2	2176.965	672.954	-2256.184	 H	12	GLN12	0.425	
184	2HE2	2176.907	671.356	-2257.110	 H	12	GLN12	0.425	
185	   N	2180.244	669.191	-2260.111	N.am	13	ARG13	-0.348	
186	  CA	2181.684	669.256	-2260.342	C.3	13	ARG13	-0.264	
187	   C	2182.020	668.883	-2261.767	C.2	13	ARG13	0.734	
188	   O	2182.789	669.554	-2262.452	O.2	13	ARG13	-0.589	
189	  CB	2182.397	668.317	-2259.328	C.3	13	ARG13	-0.001	
190	  CG	2183.942	668.470	-2259.247	C.3	13	ARG13	0.039	
191	  CD	2184.569	667.483	-2258.249	C.3	13	ARG13	0.049	
192	  NE	2186.046	667.690	-2258.199	N.pl3	13	ARG13	-0.530	
193	  CZ	2186.895	666.998	-2257.444	C.cat	13	ARG13	0.808	
194	 NH1	2186.530	666.035	-2256.645	N.pl3	13	ARG13	-0.863	
195	 NH2	2188.154	667.297	-2257.501	N.pl3	13	ARG13	-0.863	
196	   H	2179.867	668.601	-2259.382	 H	13	ARG13	0.275	
197	  HA	2182.009	670.302	-2260.185	 H	13	ARG13	0.156	
198	 2HB	2182.131	667.267	-2259.566	 H	13	ARG13	0.033	
199	 3HB	2181.972	668.485	-2258.317	 H	13	ARG13	0.033	
200	 2HG	2184.191	669.515	-2258.969	 H	13	ARG13	0.029	
201	 3HG	2184.393	668.313	-2260.249	 H	13	ARG13	0.029	
202	 2HD	2184.324	666.443	-2258.557	 H	13	ARG13	0.069	
203	 3HD	2184.114	667.630	-2257.246	 H	13	ARG13	0.069	
204	  HE	2186.498	668.411	-2258.771	 H	13	ARG13	0.346	
205	1HH1	2185.524	665.849	-2256.648	 H	13	ARG13	0.448	
206	2HH1	2187.243	665.552	-2256.096	 H	13	ARG13	0.448	
207	1HH2	2188.422	668.055	-2258.133	 H	13	ARG13	0.448	
208	2HH2	2188.790	666.756	-2256.912	 H	13	ARG13	0.448	
209	   N	2181.483	667.829	-2262.281	N.am	14	ALA14	-0.416	
210	  CA	2181.808	667.469	-2263.658	C.3	14	ALA14	0.034	
211	   C	2181.478	668.600	-2264.603	C.2	14	ALA14	0.597	
212	   O	2182.271	668.981	-2265.472	O.2	14	ALA14	-0.568	
213	  CB	2181.052	666.172	-2263.993	C.3	14	ALA14	-0.183	
214	   H	2180.848	667.260	-2261.739	 H	14	ALA14	0.272	
215	  HA	2182.897	667.289	-2263.729	 H	14	ALA14	0.082	
216	 1HB	2181.334	665.345	-2263.313	 H	14	ALA14	0.060	
217	 2HB	2179.954	666.297	-2263.911	 H	14	ALA14	0.060	
218	 3HB	2181.264	665.825	-2265.020	 H	14	ALA14	0.060	
219	   N	2180.333	669.186	-2264.501	N.am	15	MET15	-0.416	
220	  CA	2180.013	670.279	-2265.415	C.3	15	MET15	-0.024	
221	   C	2181.043	671.378	-2265.326	C.2	15	MET15	0.597	
222	   O	2181.546	671.890	-2266.339	O.2	15	MET15	-0.568	
223	  CB	2178.592	670.825	-2265.105	C.3	15	MET15	0.034	
224	  CG	2177.429	669.827	-2265.298	C.3	15	MET15	0.002	
225	  SD	2175.856	670.694	-2265.183	S.3	15	MET15	-0.274	
226	  CE	2174.774	669.264	-2265.047	C.3	15	MET15	-0.054	
227	   H	2179.668	668.893	-2263.800	 H	15	MET15	0.272	
228	  HA	2180.039	669.892	-2266.450	 H	15	MET15	0.088	
229	 2HB	2178.390	671.704	-2265.747	 H	15	MET15	0.024	
230	 3HB	2178.556	671.217	-2264.069	 H	15	MET15	0.024	
231	 2HG	2177.472	669.041	-2264.520	 H	15	MET15	0.044	
232	 3HG	2177.492	669.312	-2266.274	 H	15	MET15	0.044	
233	 1HE	2174.918	668.576	-2265.900	 H	15	MET15	0.068	
234	 2HE	2174.983	668.711	-2264.115	 H	15	MET15	0.068	
235	 3HE	2173.717	669.580	-2265.030	 H	15	MET15	0.068	
236	   N	2181.412	671.799	-2264.164	N.am	16	ARG16	-0.348	
237	  CA	2182.409	672.862	-2264.079	C.3	16	ARG16	-0.264	
238	   C	2183.679	672.469	-2264.796	C.2	16	ARG16	0.734	
239	   O	2183.793	671.393	-2265.377	O.2	16	ARG16	-0.589	
240	  CB	2182.678	673.180	-2262.581	C.3	16	ARG16	-0.001	
241	  CG	2183.504	674.468	-2262.308	C.3	16	ARG16	0.039	
242	  CD	2183.753	674.687	-2260.806	C.3	16	ARG16	0.049	
243	  NE	2184.530	675.945	-2260.605	N.pl3	16	ARG16	-0.530	
244	  CZ	2184.922	676.427	-2259.429	C.cat	16	ARG16	0.808	
245	 NH1	2184.674	675.843	-2258.291	N.pl3	16	ARG16	-0.863	
246	 NH2	2185.586	677.540	-2259.410	N.pl3	16	ARG16	-0.863	
247	   H	2181.017	671.398	-2263.324	 H	16	ARG16	0.275	
248	  HA	2182.000	673.755	-2264.589	 H	16	ARG16	0.156	
249	 2HB	2183.175	672.303	-2262.115	 H	16	ARG16	0.033	
250	 3HB	2181.709	673.260	-2262.047	 H	16	ARG16	0.033	
251	 2HG	2182.974	675.339	-2262.745	 H	16	ARG16	0.029	
252	 3HG	2184.477	674.415	-2262.837	 H	16	ARG16	0.029	
253	 2HD	2184.302	673.812	-2260.393	 H	16	ARG16	0.069	
254	 3HD	2182.781	674.730	-2260.271	 H	16	ARG16	0.069	
255	  HE	2184.809	676.526	-2261.402	 H	16	ARG16	0.346	
256	1HH1	2184.148	674.970	-2258.375	 H	16	ARG16	0.448	
257	2HH1	2185.008	676.278	-2257.430	 H	16	ARG16	0.448	
258	1HH2	2185.772	677.983	-2260.312	 H	16	ARG16	0.448	
259	2HH2	2185.876	677.894	-2258.498	 H	16	ARG16	0.448	
@<TRIPOS>BOND
1 1 2 1
2 1 10 1
3 2 3 1
4 2 5 1
5 2 11 1
6 3 4 2
7 3 16 1
8 5 6 1
9 6 7 1
10 7 8 2
11 7 9 1
12 5 12 1
13 5 13 1
14 6 14 1
15 6 15 1
16 16 17 1
17 16 24 1
18 17 18 1
19 17 20 1
20 17 25 1
21 18 19 2
22 18 30 1
23 20 21 1
24 21 22 1
25 21 23 2
26 20 26 1
27 20 27 1
28 22 28 1
29 22 29 1
30 30 31 1
31 30 36 1
32 31 32 1
33 31 34 1
34 31 37 1
35 32 33 2
36 32 44 1
37 34 35 1
38 35 36 1
39 34 38 1
40 34 39 1
41 35 40 1
42 35 41 1
43 36 42 1
44 36 43 1
45 44 45 1
46 44 53 1
47 45 46 1
48 45 48 1
49 45 54 1
50 46 47 2
51 46 59 1
52 48 49 1
53 49 50 1
54 50 51 2
55 50 52 1
56 48 55 1
57 48 56 1
58 49 57 1
59 49 58 1
60 59 60 1
61 59 65 1
62 60 61 1
63 60 63 1
64 60 66 1
65 61 62 2
66 61 70 1
67 63 64 1
68 63 67 1
69 63 68 1
70 64 69 1
71 70 71 1
72 70 78 1
73 71 72 1
74 71 74 1
75 71 79 1
76 72 73 2
77 72 89 1
78 74 75 1
79 74 76 1
80 75 77 1
81 74 80 1
82 75 81 1
83 75 82 1
84 76 83 1
85 76 84 1
86 76 85 1
87 77 86 1
88 77 87 1
89 77 88 1
90 89 90 1
91 89 97 1
92 90 91 1
93 90 93 1
94 90 98 1
95 91 92 2
96 91 108 1
97 93 94 1
98 94 95 1
99 94 96 1
100 93 99 1
101 93 100 1
102 94 101 1
103 95 102 1
104 95 103 1
105 95 104 1
106 96 105 1
107 96 106 1
108 96 107 1
109 108 109 1
110 108 116 1
111 109 110 1
112 109 112 1
113 109 117 1
114 110 111 2
115 110 120 1
116 112 113 1
117 113 114 2
118 113 115 1
119 112 118 1
120 112 119 1
121 120 121 1
122 120 129 1
123 121 122 1
124 121 124 1
125 121 130 1
126 122 123 2
127 122 135 1
128 124 125 1
129 125 126 1
130 126 127 2
131 126 128 1
132 124 131 1
133 124 132 1
134 125 133 1
135 125 134 1
136 135 136 1
137 135 145 1
138 136 137 1
139 136 139 1
140 136 146 1
141 137 138 2
142 137 152 1
143 139 140 1
144 140 141 2
145 141 144 1
146 140 142 1
147 142 143 2
148 143 144 1
149 139 147 1
150 139 148 1
151 141 149 1
152 143 150 1
153 144 151 1
154 152 153 1
155 152 159 1
156 153 154 1
157 153 156 1
158 153 160 1
159 154 155 2
160 154 168 1
161 156 157 1
162 156 158 1
163 156 161 1
164 157 162 1
165 157 163 1
166 157 164 1
167 158 165 1
168 158 166 1
169 158 167 1
170 168 169 1
171 168 177 1
172 169 170 1
173 169 172 1
174 169 178 1
175 170 171 2
176 170 185 1
177 172 173 1
178 173 174 1
179 174 175 1
180 174 176 2
181 172 179 1
182 172 180 1
183 173 181 1
184 173 182 1
185 175 183 1
186 175 184 1
187 185 186 1
188 185 196 1
189 186 187 1
190 186 189 1
191 186 197 1
192 187 188 2
193 187 209 1
194 189 190 1
195 190 191 1
196 191 192 1
197 192 193 1
198 193 194 2
199 193 195 1
200 189 198 1
201 189 199 1
202 190 200 1
203 190 201 1
204 191 202 1
205 191 203 1
206 192 204 1
207 194 205 1
208 194 206 1
209 195 207 1
210 195 208 1
211 209 210 1
212 209 214 1
213 210 211 1
214 210 213 1
215 210 215 1
216 211 212 2
217 211 219 1
218 213 216 1
219 213 217 1
220 213 218 1
221 219 220 1
222 219 227 1
223 220 221 1
224 220 223 1
225 220 228 1
226 221 222 2
227 221 236 1
228 223 224 1
229 224 225 1
230 225 226 1
231 223 229 1
232 223 230 1
233 224 231 1
234 224 232 1
235 226 233 1
236 226 234 1
237 226 235 1
238 236 237 1
239 236 247 1
240 237 238 1
241 237 240 1
242 237 248 1
243 238 239 2
244 240 241 1
245 241 242 1
246 242 243 1
247 243 244 1
248 244 245 2
249 244 246 1
250 240 249 1
251 240 250 1
252 241 251 1
253 241 252 1
254 242 253 1
255 242 254 1
256 243 255 1
257 245 256 1
258 245 257 1
259 246 258 1
260 246 259 1
@<TRIPOS>SUBSTRUCTURE
1	GLU1	1	RESIDUE	1 ****	GLU
2	ASN2	16	RESIDUE	1 ****	ASN
3	PRO3	30	RESIDUE	1 ****	PRO
4	GLU4	44	RESIDUE	1 ****	GLU
5	SER5	59	RESIDUE	1 ****	SER
6	ILE6	70	RESIDUE	1 ****	ILE
7	LEU7	89	RESIDUE	1 ****	LEU
8	ASP8	108	RESIDUE	1 ****	ASP
9	GLU9	120	RESIDUE	1 ****	GLU
10	HIS10	135	RESIDUE	1 ****	HIS
11	VAL11	152	RESIDUE	1 ****	VAL
12	GLN12	168	RESIDUE	1 ****	GLN
13	ARG13	185	RESIDUE	1 ****	ARG
14	ALA14	209	RESIDUE	1 ****	ALA
15	MET15	219	RESIDUE	1 ****	MET
16	ARG16	236	RESIDUE	1 ****	ARG
