@<TRIPOS>MOLECULE
5-13
265 266 16              
SMALL
USER_CHARGES
@<TRIPOS>ATOM
1	   N	794.984	209.694	-754.829	N.3	1	GLU1	-0.516	
2	  CA	795.543	211.043	-754.829	C.3	1	GLU1	0.040	
3	   C	797.052	211.003	-754.829	C.2	1	GLU1	0.537	
4	   O	797.728	211.702	-755.598	O.2	1	GLU1	-0.582	
5	  CB	795.020	211.828	-753.592	C.3	1	GLU1	0.056	
6	  CG	795.495	213.313	-753.481	C.3	1	GLU1	0.014	
7	  CD	795.071	214.117	-752.266	C.2	1	GLU1	0.805	
8	 OE1	794.343	213.615	-751.388	O.co2	1	GLU1	-0.819	
9	 OE2	795.501	215.287	-752.194	O.co2	1	GLU1	-0.819	
10	   H	795.611	208.815	-754.829	 H	1	GLU1	0.294	
11	  HA	795.217	211.561	-755.749	 H	1	GLU1	0.111	
12	 2HB	795.309	211.297	-752.662	 H	1	GLU1	-0.017	
13	 3HB	793.913	211.818	-753.579	 H	1	GLU1	-0.017	
14	 2HG	795.185	213.898	-754.362	 H	1	GLU1	-0.043	
15	 3HG	796.595	213.380	-753.452	 H	1	GLU1	-0.043	
16	   N	797.657	210.217	-754.004	N.am	2	ASN2	-0.416	
17	  CA	799.116	210.179	-754.004	C.3	2	ASN2	0.014	
18	   C	799.647	209.823	-755.373	C.2	2	ASN2	0.597	
19	   O	800.562	210.454	-755.901	O.2	2	ASN2	-0.568	
20	  CB	799.608	209.156	-752.940	C.3	2	ASN2	-0.204	
21	  CG	799.145	209.380	-751.497	C.2	2	ASN2	0.713	
22	 ND2	799.739	210.295	-750.778	N.pl3	2	ASN2	-0.919	
23	 OD1	798.224	208.746	-751.002	O.2	2	ASN2	-0.593	
24	   H	797.128	209.638	-753.368	 H	2	ASN2	0.272	
25	  HA	799.493	211.189	-753.759	 H	2	ASN2	0.105	
26	 2HB	800.713	209.097	-752.944	 H	2	ASN2	0.080	
27	 3HB	799.279	208.137	-753.226	 H	2	ASN2	0.080	
28	1HD2	799.259	210.467	-749.892	 H	2	ASN2	0.420	
29	2HD2	800.441	210.866	-751.248	 H	2	ASN2	0.420	
30	   N	799.126	208.828	-756.007	N.am	3	PRO3	-0.255	
31	  CA	799.578	208.419	-757.328	C.3	3	PRO3	-0.027	
32	   C	799.180	209.442	-758.405	C.2	3	PRO3	0.590	
33	   O	800.003	209.826	-759.237	O.2	3	PRO3	-0.575	
34	  CB	798.874	207.064	-757.498	C.3	3	PRO3	-0.007	
35	  CG	797.590	207.216	-756.668	C.3	3	PRO3	0.019	
36	  CD	798.048	208.035	-755.458	C.3	3	PRO3	0.019	
37	  HA	800.664	208.299	-757.342	 H	3	PRO3	0.064	
38	 2HB	799.497	206.283	-757.057	 H	3	PRO3	0.025	
39	 3HB	798.676	206.816	-758.543	 H	3	PRO3	0.025	
40	 2HG	797.163	206.254	-756.377	 H	3	PRO3	0.021	
41	 3HG	796.853	207.787	-757.235	 H	3	PRO3	0.021	
42	 2HD	798.437	207.385	-754.670	 H	3	PRO3	0.039	
43	 3HD	797.251	208.671	-755.065	 H	3	PRO3	0.039	
44	   N	797.975	209.902	-758.438	N.am	4	GLU4	-0.516	
45	  CA	797.615	210.873	-759.467	C.3	4	GLU4	0.040	
46	   C	798.514	212.084	-759.406	C.2	4	GLU4	0.537	
47	   O	799.040	212.564	-760.421	O.2	4	GLU4	-0.582	
48	  CB	796.126	211.292	-759.297	C.3	4	GLU4	0.056	
49	  CG	795.578	212.295	-760.363	C.3	4	GLU4	0.014	
50	  CD	794.151	212.791	-760.219	C.2	4	GLU4	0.805	
51	 OE1	793.425	212.393	-759.289	O.co2	4	GLU4	-0.819	
52	 OE2	793.762	213.621	-761.068	O.co2	4	GLU4	-0.819	
53	   H	797.291	209.595	-757.761	 H	4	GLU4	0.294	
54	  HA	797.746	210.403	-760.459	 H	4	GLU4	0.111	
55	 2HB	795.974	211.731	-758.291	 H	4	GLU4	-0.017	
56	 3HB	795.479	210.394	-759.304	 H	4	GLU4	-0.017	
57	 2HG	795.660	211.880	-761.381	 H	4	GLU4	-0.043	
58	 3HG	796.166	213.227	-760.374	 H	4	GLU4	-0.043	
59	   N	798.741	212.637	-758.263	N.am	5	SER5	-0.416	
60	  CA	799.610	213.809	-758.205	C.3	5	SER5	-0.025	
61	   C	800.969	213.503	-758.790	C.2	5	SER5	0.597	
62	   O	801.516	214.257	-759.595	O.2	5	SER5	-0.568	
63	  CB	799.722	214.341	-756.754	C.3	5	SER5	0.212	
64	  OG	800.453	213.462	-755.893	O.3	5	SER5	-0.655	
65	   H	798.324	212.266	-757.422	 H	5	SER5	0.272	
66	  HA	799.161	214.599	-758.834	 H	5	SER5	0.084	
67	 2HB	798.722	214.535	-756.321	 H	5	SER5	0.035	
68	 3HB	800.227	215.327	-756.757	 H	5	SER5	0.035	
69	  HG	799.965	212.637	-755.842	 H	5	SER5	0.428	
70	   N	801.574	212.420	-758.436	N.am	6	ILE6	-0.416	
71	  CA	802.887	212.126	-759.002	C.3	6	ILE6	-0.060	
72	   C	802.830	212.088	-760.510	C.2	6	ILE6	0.597	
73	   O	803.665	212.676	-761.214	O.2	6	ILE6	-0.568	
74	  CB	803.487	210.790	-758.402	C.3	6	ILE6	0.130	
75	 CG1	803.507	210.728	-756.841	C.3	6	ILE6	-0.043	
76	 CG2	804.929	210.488	-758.917	C.3	6	ILE6	-0.320	
77	 CD1	803.777	209.339	-756.226	C.3	6	ILE6	-0.066	
78	   H	801.146	211.786	-757.777	 H	6	ILE6	0.272	
79	  HA	803.561	212.960	-758.734	 H	6	ILE6	0.087	
80	  HB	802.830	209.964	-758.746	 H	6	ILE6	0.019	
81	2HG1	802.525	211.047	-756.445	 H	6	ILE6	0.024	
82	3HG1	804.222	211.470	-756.436	 H	6	ILE6	0.024	
83	1HG2	804.988	210.395	-760.016	 H	6	ILE6	0.088	
84	2HG2	805.651	211.271	-758.615	 H	6	ILE6	0.088	
85	3HG2	805.319	209.526	-758.538	 H	6	ILE6	0.088	
86	1HD1	803.049	208.584	-756.580	 H	6	ILE6	0.019	
87	2HD1	804.788	208.960	-756.462	 H	6	ILE6	0.019	
88	3HD1	803.701	209.369	-755.123	 H	6	ILE6	0.019	
89	   N	801.885	211.424	-761.084	N.am	7	LEU7	-0.416	
90	  CA	801.830	211.388	-762.542	C.3	7	LEU7	-0.052	
91	   C	801.757	212.784	-763.115	C.2	7	LEU7	0.597	
92	   O	802.478	213.147	-764.056	O.2	7	LEU7	-0.568	
93	  CB	800.627	210.528	-763.023	C.3	7	LEU7	-0.110	
94	  CG	800.555	209.048	-762.556	C.3	7	LEU7	0.353	
95	 CD1	799.365	208.342	-763.222	C.3	7	LEU7	-0.412	
96	 CD2	801.849	208.270	-762.848	C.3	7	LEU7	-0.412	
97	   H	801.193	210.937	-760.532	 H	7	LEU7	0.272	
98	  HA	802.772	210.949	-762.917	 H	7	LEU7	0.092	
99	 2HB	800.604	210.544	-764.130	 H	7	LEU7	0.046	
100	 3HB	799.687	211.030	-762.719	 H	7	LEU7	0.046	
101	  HG	800.385	209.040	-761.459	 H	7	LEU7	-0.036	
102	1HD1	798.408	208.851	-762.999	 H	7	LEU7	0.100	
103	2HD1	799.465	208.302	-764.323	 H	7	LEU7	0.100	
104	3HD1	799.259	207.301	-762.866	 H	7	LEU7	0.100	
105	1HD2	802.124	208.300	-763.918	 H	7	LEU7	0.100	
106	2HD2	802.702	208.681	-762.277	 H	7	LEU7	0.100	
107	3HD2	801.768	207.207	-762.552	 H	7	LEU7	0.100	
108	   N	800.919	213.624	-762.608	N.am	8	ASP8	-0.516	
109	  CA	800.848	214.973	-763.161	C.3	8	ASP8	0.038	
110	   C	802.195	215.654	-763.104	C.2	8	ASP8	0.537	
111	   O	802.667	216.259	-764.078	O.2	8	ASP8	-0.582	
112	  CB	799.770	215.812	-762.420	C.3	8	ASP8	-0.030	
113	  CG	799.550	217.233	-762.960	C.2	8	ASP8	0.799	
114	 OD1	799.614	217.432	-764.190	O.co2	8	ASP8	-0.801	
115	 OD2	799.358	218.158	-762.144	O.co2	8	ASP8	-0.801	
116	   H	800.322	213.352	-761.841	 H	8	ASP8	0.294	
117	  HA	800.565	214.896	-764.228	 H	8	ASP8	0.088	
118	 2HB	800.027	215.895	-761.348	 H	8	ASP8	-0.012	
119	 3HB	798.791	215.306	-762.453	 H	8	ASP8	-0.012	
120	   N	802.874	215.604	-762.009	N.am	9	GLU9	-0.516	
121	  CA	804.177	216.262	-761.953	C.3	9	GLU9	0.040	
122	   C	805.095	215.735	-763.029	C.2	9	GLU9	0.537	
123	   O	805.759	216.490	-763.754	O.2	9	GLU9	-0.582	
124	  CB	804.810	216.055	-760.548	C.3	9	GLU9	0.056	
125	  CG	806.193	216.748	-760.318	C.3	9	GLU9	0.014	
126	  CD	806.894	216.534	-758.990	C.2	9	GLU9	0.805	
127	 OE1	806.373	215.843	-758.094	O.co2	9	GLU9	-0.819	
128	 OE2	808.013	217.073	-758.858	O.co2	9	GLU9	-0.819	
129	   H	802.511	215.117	-761.202	 H	9	GLU9	0.294	
130	  HA	804.034	217.344	-762.128	 H	9	GLU9	0.111	
131	 2HB	804.924	214.970	-760.344	 H	9	GLU9	-0.017	
132	 3HB	804.113	216.408	-759.763	 H	9	GLU9	-0.017	
133	 2HG	806.120	217.838	-760.458	 H	9	GLU9	-0.043	
134	 3HG	806.939	216.403	-761.052	 H	9	GLU9	-0.043	
135	   N	805.192	214.460	-763.198	N.am	10	HIS10	-0.416	
136	  CA	806.081	213.949	-764.239	C.3	10	HIS10	-0.058	
137	   C	805.714	214.514	-765.590	C.2	10	HIS10	0.597	
138	   O	806.566	214.979	-766.361	O.2	10	HIS10	-0.568	
139	  CB	805.917	212.420	-764.234	C.3	10	HIS10	-0.007	
140	  CG	807.203	211.711	-763.926	C.2	10	HIS10	0.187	
141	 CD2	807.584	211.375	-762.633	C.2	10	HIS10	-0.221	
142	 ND1	808.156	211.305	-764.858	N.2	10	HIS10	-0.543	
143	 CE1	809.062	210.747	-764.035	C.2	10	HIS10	0.163	
144	 NE2	808.799	210.744	-762.700	N.pl3	10	HIS10	-0.280	
145	   H	804.662	213.824	-762.620	 H	10	HIS10	0.272	
146	  HA	807.099	214.307	-764.013	 H	10	HIS10	0.136	
147	 2HB	805.553	212.053	-765.214	 H	10	HIS10	0.037	
148	 3HB	805.162	212.083	-763.495	 H	10	HIS10	0.037	
149	 2HD	806.998	211.590	-761.744	 H	10	HIS10	0.186	
150	 1HE	809.953	210.327	-764.482	 H	10	HIS10	0.144	
151	 2HE	809.366	210.367	-761.927	 H	10	HIS10	0.334	
152	   N	804.476	214.513	-765.953	N.am	11	VAL11	-0.416	
153	  CA	804.121	215.059	-767.260	C.3	11	VAL11	-0.087	
154	   C	804.585	216.490	-767.392	C.2	11	VAL11	0.597	
155	   O	805.186	216.895	-768.395	O.2	11	VAL11	-0.568	
156	  CB	802.560	214.951	-767.479	C.3	11	VAL11	0.299	
157	 CG1	801.991	215.655	-768.742	C.3	11	VAL11	-0.319	
158	 CG2	802.036	213.497	-767.553	C.3	11	VAL11	-0.319	
159	   H	803.763	214.139	-765.343	 H	11	VAL11	0.272	
160	  HA	804.641	214.477	-768.042	 H	11	VAL11	0.097	
161	  HB	802.072	215.431	-766.604	 H	11	VAL11	-0.030	
162	1HG1	802.430	215.264	-769.679	 H	11	VAL11	0.079	
163	2HG1	800.892	215.548	-768.824	 H	11	VAL11	0.079	
164	3HG1	802.169	216.748	-768.732	 H	11	VAL11	0.079	
165	1HG2	802.326	212.910	-766.662	 H	11	VAL11	0.079	
166	2HG2	800.930	213.460	-767.596	 H	11	VAL11	0.079	
167	3HG2	802.418	212.957	-768.440	 H	11	VAL11	0.079	
168	   N	804.347	217.315	-766.429	N.am	12	GLN12	-0.416	
169	  CA	804.795	218.698	-766.556	C.3	12	GLN12	-0.003	
170	   C	806.285	218.766	-766.794	C.2	12	GLN12	0.597	
171	   O	806.772	219.475	-767.672	O.2	12	GLN12	-0.568	
172	  CB	804.404	219.465	-765.273	C.3	12	GLN12	-0.004	
173	  CG	804.763	220.987	-765.242	C.3	12	GLN12	-0.064	
174	  CD	804.461	221.800	-763.977	C.2	12	GLN12	0.695	
175	 NE2	803.893	221.223	-762.948	N.pl3	12	GLN12	-0.941	
176	 OE1	804.762	222.981	-763.899	O.2	12	GLN12	-0.609	
177	   H	803.858	217.008	-765.600	 H	12	GLN12	0.272	
178	  HA	804.296	219.154	-767.431	 H	12	GLN12	0.085	
179	 2HB	804.880	218.965	-764.404	 H	12	GLN12	0.017	
180	 3HB	803.314	219.357	-765.110	 H	12	GLN12	0.017	
181	 2HG	804.286	221.508	-766.092	 H	12	GLN12	0.035	
182	 3HG	805.847	221.130	-765.407	 H	12	GLN12	0.035	
183	1HE2	803.786	221.818	-762.124	 H	12	GLN12	0.425	
184	2HE2	803.730	220.220	-763.052	 H	12	GLN12	0.425	
185	   N	807.070	218.059	-766.053	N.am	13	ARG13	-0.348	
186	  CA	808.510	218.126	-766.283	C.3	13	ARG13	-0.264	
187	   C	808.847	217.755	-767.708	C.2	13	ARG13	0.734	
188	   O	809.615	218.427	-768.392	O.2	13	ARG13	-0.589	
189	  CB	809.224	217.187	-765.270	C.3	13	ARG13	-0.001	
190	  CG	810.769	217.341	-765.188	C.3	13	ARG13	0.039	
191	  CD	811.396	216.353	-764.191	C.3	13	ARG13	0.049	
192	  NE	812.873	216.561	-764.140	N.pl3	13	ARG13	-0.530	
193	  CZ	813.721	215.869	-763.385	C.cat	13	ARG13	0.808	
194	 NH1	813.356	214.904	-762.588	N.pl3	13	ARG13	-0.863	
195	 NH2	814.980	216.169	-763.441	N.pl3	13	ARG13	-0.863	
196	   H	806.694	217.469	-765.325	 H	13	ARG13	0.275	
197	  HA	808.834	219.172	-766.125	 H	13	ARG13	0.156	
198	 2HB	808.958	216.136	-765.509	 H	13	ARG13	0.033	
199	 3HB	808.798	217.353	-764.259	 H	13	ARG13	0.033	
200	 2HG	811.016	218.385	-764.909	 H	13	ARG13	0.029	
201	 3HG	811.219	217.185	-766.190	 H	13	ARG13	0.029	
202	 2HD	811.152	215.313	-764.500	 H	13	ARG13	0.069	
203	 3HD	810.939	216.498	-763.188	 H	13	ARG13	0.069	
204	  HE	813.324	217.283	-764.710	 H	13	ARG13	0.346	
205	1HH1	812.351	214.718	-762.591	 H	13	ARG13	0.448	
206	2HH1	814.069	214.421	-762.039	 H	13	ARG13	0.448	
207	1HH2	815.248	216.927	-764.072	 H	13	ARG13	0.448	
208	2HH2	815.616	215.627	-762.853	 H	13	ARG13	0.448	
209	   N	808.311	216.700	-768.223	N.am	14	VAL14	-0.416	
210	  CA	808.636	216.341	-769.601	C.3	14	VAL14	-0.087	
211	   C	808.306	217.471	-770.546	C.2	14	VAL14	0.597	
212	   O	809.099	217.853	-771.415	O.2	14	VAL14	-0.568	
213	  CB	807.864	215.024	-770.008	C.3	14	VAL14	0.299	
214	 CG1	807.954	214.606	-771.501	C.3	14	VAL14	-0.319	
215	 CG2	808.296	213.772	-769.208	C.3	14	VAL14	-0.319	
216	   H	807.676	216.131	-767.681	 H	14	VAL14	0.272	
217	  HA	809.724	216.165	-769.675	 H	14	VAL14	0.097	
218	  HB	806.788	215.195	-769.792	 H	14	VAL14	-0.030	
219	1HG1	808.995	214.430	-771.830	 H	14	VAL14	0.079	
220	2HG1	807.381	213.683	-771.714	 H	14	VAL14	0.079	
221	3HG1	807.524	215.368	-772.180	 H	14	VAL14	0.079	
222	1HG2	808.209	213.930	-768.117	 H	14	VAL14	0.079	
223	2HG2	807.661	212.895	-769.440	 H	14	VAL14	0.079	
224	3HG2	809.344	213.482	-769.413	 H	14	VAL14	0.079	
225	   N	807.161	218.057	-770.444	N.am	15	MET15	-0.416	
226	  CA	806.840	219.150	-771.358	C.3	15	MET15	-0.024	
227	   C	807.870	220.250	-771.270	C.2	15	MET15	0.597	
228	   O	808.372	220.761	-772.282	O.2	15	MET15	-0.568	
229	  CB	805.418	219.695	-771.048	C.3	15	MET15	0.034	
230	  CG	804.257	218.696	-771.240	C.3	15	MET15	0.002	
231	  SD	802.682	219.562	-771.126	S.3	15	MET15	-0.274	
232	  CE	801.602	218.131	-770.990	C.3	15	MET15	-0.054	
233	   H	806.496	217.764	-769.743	 H	15	MET15	0.272	
234	  HA	806.866	218.763	-772.393	 H	15	MET15	0.088	
235	 2HB	805.216	220.573	-771.690	 H	15	MET15	0.024	
236	 3HB	805.383	220.087	-770.012	 H	15	MET15	0.024	
237	 2HG	804.300	217.910	-770.463	 H	15	MET15	0.044	
238	 3HG	804.320	218.181	-772.217	 H	15	MET15	0.044	
239	 1HE	801.746	217.443	-771.842	 H	15	MET15	0.068	
240	 2HE	801.811	217.579	-770.057	 H	15	MET15	0.068	
241	 3HE	800.544	218.446	-770.973	 H	15	MET15	0.068	
242	   N	808.238	220.671	-770.107	N.am	16	ARG16	-0.348	
243	  CA	809.234	221.735	-770.023	C.3	16	ARG16	-0.264	
244	   C	810.505	221.343	-770.740	C.2	16	ARG16	0.734	
245	   O	810.619	220.267	-771.321	O.2	16	ARG16	-0.589	
246	  CB	809.503	222.052	-768.525	C.3	16	ARG16	-0.001	
247	  CG	810.328	223.342	-768.252	C.3	16	ARG16	0.039	
248	  CD	810.578	223.561	-766.750	C.3	16	ARG16	0.049	
249	  NE	811.354	224.820	-766.549	N.pl3	16	ARG16	-0.530	
250	  CZ	811.745	225.302	-765.373	C.cat	16	ARG16	0.808	
251	 NH1	811.497	224.717	-764.235	N.pl3	16	ARG16	-0.863	
252	 NH2	812.408	226.415	-765.354	N.pl3	16	ARG16	-0.863	
253	   H	807.844	220.270	-769.268	 H	16	ARG16	0.275	
254	  HA	808.825	222.628	-770.533	 H	16	ARG16	0.156	
255	 2HB	810.001	221.176	-768.059	 H	16	ARG16	0.033	
256	 3HB	808.535	222.133	-767.991	 H	16	ARG16	0.033	
257	 2HG	809.798	224.212	-768.688	 H	16	ARG16	0.029	
258	 3HG	811.302	223.289	-768.781	 H	16	ARG16	0.029	
259	 2HD	811.127	222.686	-766.337	 H	16	ARG16	0.069	
260	 3HD	809.605	223.603	-766.215	 H	16	ARG16	0.069	
261	  HE	811.632	225.401	-767.346	 H	16	ARG16	0.346	
262	1HH1	810.972	223.844	-764.320	 H	16	ARG16	0.448	
263	2HH1	811.832	225.152	-763.374	 H	16	ARG16	0.448	
264	1HH2	812.594	226.858	-766.256	 H	16	ARG16	0.448	
265	2HH2	812.699	226.769	-764.442	 H	16	ARG16	0.448	
@<TRIPOS>BOND
1 1 2 1
2 1 10 1
3 2 3 1
4 2 5 1
5 2 11 1
6 3 4 2
7 3 16 1
8 5 6 1
9 6 7 1
10 7 8 2
11 7 9 1
12 5 12 1
13 5 13 1
14 6 14 1
15 6 15 1
16 16 17 1
17 16 24 1
18 17 18 1
19 17 20 1
20 17 25 1
21 18 19 2
22 18 30 1
23 20 21 1
24 21 22 1
25 21 23 2
26 20 26 1
27 20 27 1
28 22 28 1
29 22 29 1
30 30 31 1
31 30 36 1
32 31 32 1
33 31 34 1
34 31 37 1
35 32 33 2
36 32 44 1
37 34 35 1
38 35 36 1
39 34 38 1
40 34 39 1
41 35 40 1
42 35 41 1
43 36 42 1
44 36 43 1
45 44 45 1
46 44 53 1
47 45 46 1
48 45 48 1
49 45 54 1
50 46 47 2
51 46 59 1
52 48 49 1
53 49 50 1
54 50 51 2
55 50 52 1
56 48 55 1
57 48 56 1
58 49 57 1
59 49 58 1
60 59 60 1
61 59 65 1
62 60 61 1
63 60 63 1
64 60 66 1
65 61 62 2
66 61 70 1
67 63 64 1
68 63 67 1
69 63 68 1
70 64 69 1
71 70 71 1
72 70 78 1
73 71 72 1
74 71 74 1
75 71 79 1
76 72 73 2
77 72 89 1
78 74 75 1
79 74 76 1
80 75 77 1
81 74 80 1
82 75 81 1
83 75 82 1
84 76 83 1
85 76 84 1
86 76 85 1
87 77 86 1
88 77 87 1
89 77 88 1
90 89 90 1
91 89 97 1
92 90 91 1
93 90 93 1
94 90 98 1
95 91 92 2
96 91 108 1
97 93 94 1
98 94 95 1
99 94 96 1
100 93 99 1
101 93 100 1
102 94 101 1
103 95 102 1
104 95 103 1
105 95 104 1
106 96 105 1
107 96 106 1
108 96 107 1
109 108 109 1
110 108 116 1
111 109 110 1
112 109 112 1
113 109 117 1
114 110 111 2
115 110 120 1
116 112 113 1
117 113 114 2
118 113 115 1
119 112 118 1
120 112 119 1
121 120 121 1
122 120 129 1
123 121 122 1
124 121 124 1
125 121 130 1
126 122 123 2
127 122 135 1
128 124 125 1
129 125 126 1
130 126 127 2
131 126 128 1
132 124 131 1
133 124 132 1
134 125 133 1
135 125 134 1
136 135 136 1
137 135 145 1
138 136 137 1
139 136 139 1
140 136 146 1
141 137 138 2
142 137 152 1
143 139 140 1
144 140 141 2
145 141 144 1
146 140 142 1
147 142 143 2
148 143 144 1
149 139 147 1
150 139 148 1
151 141 149 1
152 143 150 1
153 144 151 1
154 152 153 1
155 152 159 1
156 153 154 1
157 153 156 1
158 153 160 1
159 154 155 2
160 154 168 1
161 156 157 1
162 156 158 1
163 156 161 1
164 157 162 1
165 157 163 1
166 157 164 1
167 158 165 1
168 158 166 1
169 158 167 1
170 168 169 1
171 168 177 1
172 169 170 1
173 169 172 1
174 169 178 1
175 170 171 2
176 170 185 1
177 172 173 1
178 173 174 1
179 174 175 1
180 174 176 2
181 172 179 1
182 172 180 1
183 173 181 1
184 173 182 1
185 175 183 1
186 175 184 1
187 185 186 1
188 185 196 1
189 186 187 1
190 186 189 1
191 186 197 1
192 187 188 2
193 187 209 1
194 189 190 1
195 190 191 1
196 191 192 1
197 192 193 1
198 193 194 2
199 193 195 1
200 189 198 1
201 189 199 1
202 190 200 1
203 190 201 1
204 191 202 1
205 191 203 1
206 192 204 1
207 194 205 1
208 194 206 1
209 195 207 1
210 195 208 1
211 209 210 1
212 209 216 1
213 210 211 1
214 210 213 1
215 210 217 1
216 211 212 2
217 211 225 1
218 213 214 1
219 213 215 1
220 213 218 1
221 214 219 1
222 214 220 1
223 214 221 1
224 215 222 1
225 215 223 1
226 215 224 1
227 225 226 1
228 225 233 1
229 226 227 1
230 226 229 1
231 226 234 1
232 227 228 2
233 227 242 1
234 229 230 1
235 230 231 1
236 231 232 1
237 229 235 1
238 229 236 1
239 230 237 1
240 230 238 1
241 232 239 1
242 232 240 1
243 232 241 1
244 242 243 1
245 242 253 1
246 243 244 1
247 243 246 1
248 243 254 1
249 244 245 2
250 246 247 1
251 247 248 1
252 248 249 1
253 249 250 1
254 250 251 2
255 250 252 1
256 246 255 1
257 246 256 1
258 247 257 1
259 247 258 1
260 248 259 1
261 248 260 1
262 249 261 1
263 251 262 1
264 251 263 1
265 252 264 1
266 252 265 1
@<TRIPOS>SUBSTRUCTURE
1	GLU1	1	RESIDUE	1 ****	GLU
2	ASN2	16	RESIDUE	1 ****	ASN
3	PRO3	30	RESIDUE	1 ****	PRO
4	GLU4	44	RESIDUE	1 ****	GLU
5	SER5	59	RESIDUE	1 ****	SER
6	ILE6	70	RESIDUE	1 ****	ILE
7	LEU7	89	RESIDUE	1 ****	LEU
8	ASP8	108	RESIDUE	1 ****	ASP
9	GLU9	120	RESIDUE	1 ****	GLU
10	HIS10	135	RESIDUE	1 ****	HIS
11	VAL11	152	RESIDUE	1 ****	VAL
12	GLN12	168	RESIDUE	1 ****	GLN
13	ARG13	185	RESIDUE	1 ****	ARG
14	VAL14	209	RESIDUE	1 ****	VAL
15	MET15	225	RESIDUE	1 ****	MET
16	ARG16	242	RESIDUE	1 ****	ARG
