@<TRIPOS>MOLECULE
14-5
266 267 16              
SMALL
USER_CHARGES
@<TRIPOS>ATOM
1	   N	2200.691	671.553	-2284.000	N.3	1	GLU1	-0.516	
2	  CA	2201.250	672.902	-2284.000	C.3	1	GLU1	0.040	
3	   C	2202.759	672.862	-2284.000	C.2	1	GLU1	0.537	
4	   O	2203.435	673.561	-2284.768	O.2	1	GLU1	-0.582	
5	  CB	2200.727	673.687	-2282.763	C.3	1	GLU1	0.056	
6	  CG	2201.202	675.172	-2282.652	C.3	1	GLU1	0.014	
7	  CD	2200.778	675.976	-2281.437	C.2	1	GLU1	0.805	
8	 OE1	2200.050	675.474	-2280.559	O.co2	1	GLU1	-0.819	
9	 OE2	2201.208	677.146	-2281.365	O.co2	1	GLU1	-0.819	
10	   H	2201.318	670.674	-2284.000	 H	1	GLU1	0.294	
11	  HA	2200.924	673.420	-2284.920	 H	1	GLU1	0.111	
12	 2HB	2201.016	673.156	-2281.833	 H	1	GLU1	-0.017	
13	 3HB	2199.620	673.677	-2282.750	 H	1	GLU1	-0.017	
14	 2HG	2200.892	675.757	-2283.532	 H	1	GLU1	-0.043	
15	 3HG	2202.302	675.239	-2282.623	 H	1	GLU1	-0.043	
16	   N	2203.364	672.076	-2283.174	N.am	2	ASN2	-0.416	
17	  CA	2204.823	672.037	-2283.174	C.3	2	ASN2	0.014	
18	   C	2205.354	671.681	-2284.543	C.2	2	ASN2	0.597	
19	   O	2206.270	672.311	-2285.071	O.2	2	ASN2	-0.568	
20	  CB	2205.315	671.014	-2282.110	C.3	2	ASN2	-0.204	
21	  CG	2204.851	671.238	-2280.667	C.2	2	ASN2	0.713	
22	 ND2	2205.445	672.152	-2279.948	N.pl3	2	ASN2	-0.919	
23	 OD1	2203.930	670.604	-2280.172	O.2	2	ASN2	-0.593	
24	   H	2202.835	671.496	-2282.538	 H	2	ASN2	0.272	
25	  HA	2205.201	673.046	-2282.929	 H	2	ASN2	0.105	
26	 2HB	2206.419	670.955	-2282.113	 H	2	ASN2	0.080	
27	 3HB	2204.986	669.995	-2282.396	 H	2	ASN2	0.080	
28	1HD2	2204.964	672.326	-2279.062	 H	2	ASN2	0.420	
29	2HD2	2206.147	672.724	-2280.417	 H	2	ASN2	0.420	
30	   N	2204.833	670.686	-2285.177	N.am	3	PRO3	-0.255	
31	  CA	2205.285	670.277	-2286.498	C.3	3	PRO3	-0.027	
32	   C	2204.887	671.301	-2287.575	C.2	3	PRO3	0.590	
33	   O	2205.711	671.684	-2288.407	O.2	3	PRO3	-0.575	
34	  CB	2204.581	668.922	-2286.668	C.3	3	PRO3	-0.007	
35	  CG	2203.297	669.075	-2285.838	C.3	3	PRO3	0.019	
36	  CD	2203.755	669.893	-2284.628	C.3	3	PRO3	0.019	
37	  HA	2206.371	670.157	-2286.512	 H	3	PRO3	0.064	
38	 2HB	2205.204	668.141	-2286.227	 H	3	PRO3	0.025	
39	 3HB	2204.383	668.674	-2287.713	 H	3	PRO3	0.025	
40	 2HG	2202.869	668.113	-2285.547	 H	3	PRO3	0.021	
41	 3HG	2202.560	669.646	-2286.406	 H	3	PRO3	0.021	
42	 2HD	2204.144	669.244	-2283.841	 H	3	PRO3	0.039	
43	 3HD	2202.958	670.529	-2284.236	 H	3	PRO3	0.039	
44	   N	2203.683	671.761	-2287.608	N.am	4	GLU4	-0.516	
45	  CA	2203.323	672.732	-2288.638	C.3	4	GLU4	0.040	
46	   C	2204.223	673.943	-2288.576	C.2	4	GLU4	0.537	
47	   O	2204.750	674.422	-2289.591	O.2	4	GLU4	-0.582	
48	  CB	2201.835	673.151	-2288.468	C.3	4	GLU4	0.056	
49	  CG	2201.288	674.155	-2289.534	C.3	4	GLU4	0.014	
50	  CD	2199.861	674.652	-2289.391	C.2	4	GLU4	0.805	
51	 OE1	2199.134	674.253	-2288.460	O.co2	4	GLU4	-0.819	
52	 OE2	2199.472	675.481	-2290.240	O.co2	4	GLU4	-0.819	
53	   H	2202.998	671.454	-2286.932	 H	4	GLU4	0.294	
54	  HA	2203.455	672.261	-2289.629	 H	4	GLU4	0.111	
55	 2HB	2201.682	673.591	-2287.462	 H	4	GLU4	-0.017	
56	 3HB	2201.187	672.253	-2288.475	 H	4	GLU4	-0.017	
57	 2HG	2201.369	673.740	-2290.552	 H	4	GLU4	-0.043	
58	 3HG	2201.876	675.087	-2289.545	 H	4	GLU4	-0.043	
59	   N	2204.450	674.495	-2287.433	N.am	5	SER5	-0.416	
60	  CA	2205.320	675.666	-2287.374	C.3	5	SER5	-0.025	
61	   C	2206.678	675.360	-2287.959	C.2	5	SER5	0.597	
62	   O	2207.226	676.114	-2288.764	O.2	5	SER5	-0.568	
63	  CB	2205.431	676.198	-2285.924	C.3	5	SER5	0.212	
64	  OG	2206.162	675.319	-2285.063	O.3	5	SER5	-0.655	
65	   H	2204.032	674.124	-2286.592	 H	5	SER5	0.272	
66	  HA	2204.871	676.457	-2288.003	 H	5	SER5	0.084	
67	 2HB	2204.431	676.392	-2285.491	 H	5	SER5	0.035	
68	 3HB	2205.936	677.184	-2285.926	 H	5	SER5	0.035	
69	  HG	2205.673	674.494	-2285.012	 H	5	SER5	0.428	
70	   N	2207.283	674.277	-2287.605	N.am	6	ILE6	-0.416	
71	  CA	2208.596	673.981	-2288.171	C.3	6	ILE6	-0.060	
72	   C	2208.539	673.944	-2289.679	C.2	6	ILE6	0.597	
73	   O	2209.374	674.531	-2290.383	O.2	6	ILE6	-0.568	
74	  CB	2209.195	672.645	-2287.571	C.3	6	ILE6	0.130	
75	 CG1	2209.214	672.583	-2286.010	C.3	6	ILE6	-0.043	
76	 CG2	2210.636	672.343	-2288.086	C.3	6	ILE6	-0.320	
77	 CD1	2209.483	671.193	-2285.395	C.3	6	ILE6	-0.066	
78	   H	2206.854	673.643	-2286.947	 H	6	ILE6	0.272	
79	  HA	2209.270	674.815	-2287.903	 H	6	ILE6	0.087	
80	  HB	2208.537	671.819	-2287.915	 H	6	ILE6	0.019	
81	2HG1	2208.232	672.903	-2285.614	 H	6	ILE6	0.024	
82	3HG1	2209.930	673.325	-2285.605	 H	6	ILE6	0.024	
83	1HG2	2210.695	672.249	-2289.184	 H	6	ILE6	0.088	
84	2HG2	2211.359	673.125	-2287.783	 H	6	ILE6	0.088	
85	3HG2	2211.026	671.381	-2287.707	 H	6	ILE6	0.088	
86	1HD1	2208.755	670.440	-2285.750	 H	6	ILE6	0.019	
87	2HD1	2210.494	670.815	-2285.630	 H	6	ILE6	0.019	
88	3HD1	2209.407	671.224	-2284.292	 H	6	ILE6	0.019	
89	   N	2207.593	673.281	-2290.252	N.am	7	LEU7	-0.416	
90	  CA	2207.538	673.244	-2291.711	C.3	7	LEU7	-0.052	
91	   C	2207.466	674.640	-2292.284	C.2	7	LEU7	0.597	
92	   O	2208.187	675.001	-2293.226	O.2	7	LEU7	-0.568	
93	  CB	2206.334	672.385	-2292.191	C.3	7	LEU7	-0.110	
94	  CG	2206.261	670.905	-2291.725	C.3	7	LEU7	0.353	
95	 CD1	2205.071	670.200	-2292.390	C.3	7	LEU7	-0.412	
96	 CD2	2207.555	670.126	-2292.016	C.3	7	LEU7	-0.412	
97	   H	2206.901	672.794	-2289.701	 H	7	LEU7	0.272	
98	  HA	2208.479	672.804	-2292.085	 H	7	LEU7	0.092	
99	 2HB	2206.311	672.400	-2293.299	 H	7	LEU7	0.046	
100	 3HB	2205.395	672.887	-2291.887	 H	7	LEU7	0.046	
101	  HG	2206.091	670.897	-2290.628	 H	7	LEU7	-0.036	
102	1HD1	2204.114	670.709	-2292.168	 H	7	LEU7	0.100	
103	2HD1	2205.170	670.159	-2293.492	 H	7	LEU7	0.100	
104	3HD1	2204.964	669.159	-2292.034	 H	7	LEU7	0.100	
105	1HD2	2207.830	670.156	-2293.086	 H	7	LEU7	0.100	
106	2HD2	2208.408	670.537	-2291.445	 H	7	LEU7	0.100	
107	3HD2	2207.473	669.063	-2291.720	 H	7	LEU7	0.100	
108	   N	2206.629	675.481	-2291.778	N.am	8	ASP8	-0.516	
109	  CA	2206.559	676.830	-2292.332	C.3	8	ASP8	0.038	
110	   C	2207.906	677.509	-2292.275	C.2	8	ASP8	0.537	
111	   O	2208.379	678.113	-2293.250	O.2	8	ASP8	-0.582	
112	  CB	2205.481	677.670	-2291.591	C.3	8	ASP8	-0.030	
113	  CG	2205.263	679.091	-2292.132	C.2	8	ASP8	0.799	
114	 OD1	2205.328	679.289	-2293.363	O.co2	8	ASP8	-0.801	
115	 OD2	2205.072	680.017	-2291.318	O.co2	8	ASP8	-0.801	
116	   H	2206.031	675.211	-2291.010	 H	8	ASP8	0.294	
117	  HA	2206.276	676.752	-2293.399	 H	8	ASP8	0.088	
118	 2HB	2205.739	677.754	-2290.519	 H	8	ASP8	-0.012	
119	 3HB	2204.502	677.165	-2291.624	 H	8	ASP8	-0.012	
120	   N	2208.586	677.460	-2291.180	N.am	9	GLU9	-0.516	
121	  CA	2209.889	678.117	-2291.125	C.3	9	GLU9	0.040	
122	   C	2210.807	677.588	-2292.201	C.2	9	GLU9	0.537	
123	   O	2211.471	678.342	-2292.927	O.2	9	GLU9	-0.582	
124	  CB	2210.523	677.909	-2289.720	C.3	9	GLU9	0.056	
125	  CG	2211.906	678.601	-2289.491	C.3	9	GLU9	0.014	
126	  CD	2212.608	678.388	-2288.163	C.2	9	GLU9	0.805	
127	 OE1	2212.086	677.698	-2287.266	O.co2	9	GLU9	-0.819	
128	 OE2	2213.727	678.926	-2288.032	O.co2	9	GLU9	-0.819	
129	   H	2208.223	676.974	-2290.373	 H	9	GLU9	0.294	
130	  HA	2209.748	679.199	-2291.301	 H	9	GLU9	0.111	
131	 2HB	2210.635	676.825	-2289.516	 H	9	GLU9	-0.017	
132	 3HB	2209.826	678.263	-2288.936	 H	9	GLU9	-0.017	
133	 2HG	2211.834	679.692	-2289.632	 H	9	GLU9	-0.043	
134	 3HG	2212.652	678.255	-2290.225	 H	9	GLU9	-0.043	
135	   N	2210.903	676.313	-2292.370	N.am	10	HIS10	-0.416	
136	  CA	2211.790	675.800	-2293.411	C.3	10	HIS10	-0.058	
137	   C	2211.423	676.365	-2294.762	C.2	10	HIS10	0.597	
138	   O	2212.276	676.829	-2295.534	O.2	10	HIS10	-0.568	
139	  CB	2211.625	674.272	-2293.405	C.3	10	HIS10	-0.007	
140	  CG	2212.911	673.561	-2293.097	C.2	10	HIS10	0.187	
141	 CD2	2213.292	673.226	-2291.804	C.2	10	HIS10	-0.221	
142	 ND1	2213.862	673.154	-2294.030	N.2	10	HIS10	-0.543	
143	 CE1	2214.769	672.596	-2293.206	C.2	10	HIS10	0.163	
144	 NE2	2214.507	672.594	-2291.871	N.pl3	10	HIS10	-0.280	
145	   H	2210.372	675.678	-2291.791	 H	10	HIS10	0.272	
146	  HA	2212.810	676.158	-2293.186	 H	10	HIS10	0.136	
147	 2HB	2211.260	673.904	-2294.385	 H	10	HIS10	0.037	
148	 3HB	2210.870	673.935	-2292.664	 H	10	HIS10	0.037	
149	 2HD	2212.707	673.442	-2290.915	 H	10	HIS10	0.186	
150	 1HE	2215.659	672.174	-2293.654	 H	10	HIS10	0.144	
151	 2HE	2215.073	672.217	-2291.098	 H	10	HIS10	0.334	
152	   N	2210.185	676.364	-2295.125	N.am	11	VAL11	-0.416	
153	  CA	2209.830	676.910	-2296.432	C.3	11	VAL11	-0.087	
154	   C	2210.295	678.340	-2296.565	C.2	11	VAL11	0.597	
155	   O	2210.896	678.744	-2297.568	O.2	11	VAL11	-0.568	
156	  CB	2208.269	676.804	-2296.651	C.3	11	VAL11	0.299	
157	 CG1	2207.700	677.507	-2297.914	C.3	11	VAL11	-0.319	
158	 CG2	2207.744	675.350	-2296.723	C.3	11	VAL11	-0.319	
159	   H	2209.472	675.992	-2294.514	 H	11	VAL11	0.272	
160	  HA	2210.349	676.326	-2297.214	 H	11	VAL11	0.097	
161	  HB	2207.782	677.285	-2295.776	 H	11	VAL11	-0.030	
162	1HG1	2208.139	677.115	-2298.851	 H	11	VAL11	0.079	
163	2HG1	2206.601	677.400	-2297.996	 H	11	VAL11	0.079	
164	3HG1	2207.879	678.599	-2297.905	 H	11	VAL11	0.079	
165	1HG2	2208.033	674.763	-2295.832	 H	11	VAL11	0.079	
166	2HG2	2206.638	675.313	-2296.766	 H	11	VAL11	0.079	
167	3HG2	2208.125	674.808	-2297.609	 H	11	VAL11	0.079	
168	   N	2210.059	679.166	-2295.603	N.am	12	GLN12	-0.416	
169	  CA	2210.508	680.549	-2295.731	C.3	12	GLN12	-0.003	
170	   C	2211.998	680.615	-2295.969	C.2	12	GLN12	0.597	
171	   O	2212.485	681.323	-2296.848	O.2	12	GLN12	-0.568	
172	  CB	2210.118	681.317	-2294.449	C.3	12	GLN12	-0.004	
173	  CG	2210.479	682.839	-2294.418	C.3	12	GLN12	-0.064	
174	  CD	2210.178	683.653	-2293.154	C.2	12	GLN12	0.695	
175	 NE2	2209.611	683.078	-2292.125	N.pl3	12	GLN12	-0.941	
176	 OE1	2210.480	684.834	-2293.077	O.2	12	GLN12	-0.609	
177	   H	2209.570	678.861	-2294.774	 H	12	GLN12	0.272	
178	  HA	2210.009	681.005	-2296.606	 H	12	GLN12	0.085	
179	 2HB	2210.594	680.817	-2293.579	 H	12	GLN12	0.017	
180	 3HB	2209.028	681.211	-2294.285	 H	12	GLN12	0.017	
181	 2HG	2210.002	683.360	-2295.269	 H	12	GLN12	0.035	
182	 3HG	2211.563	682.980	-2294.584	 H	12	GLN12	0.035	
183	1HE2	2209.504	683.672	-2291.302	 H	12	GLN12	0.425	
184	2HE2	2209.446	682.074	-2292.228	 H	12	GLN12	0.425	
185	   N	2212.783	679.909	-2295.228	N.am	13	ARG13	-0.348	
186	  CA	2214.223	679.974	-2295.459	C.3	13	ARG13	-0.264	
187	   C	2214.559	679.601	-2296.884	C.2	13	ARG13	0.734	
188	   O	2215.327	680.272	-2297.569	O.2	13	ARG13	-0.589	
189	  CB	2214.936	679.035	-2294.445	C.3	13	ARG13	-0.001	
190	  CG	2216.481	679.188	-2294.365	C.3	13	ARG13	0.039	
191	  CD	2217.108	678.201	-2293.366	C.3	13	ARG13	0.049	
192	  NE	2218.585	678.408	-2293.316	N.pl3	13	ARG13	-0.530	
193	  CZ	2219.434	677.716	-2292.561	C.cat	13	ARG13	0.808	
194	 NH1	2219.069	676.753	-2291.762	N.pl3	13	ARG13	-0.863	
195	 NH2	2220.693	678.015	-2292.618	N.pl3	13	ARG13	-0.863	
196	   H	2212.406	679.319	-2294.499	 H	13	ARG13	0.275	
197	  HA	2214.548	681.020	-2295.302	 H	13	ARG13	0.156	
198	 2HB	2214.670	677.985	-2294.683	 H	13	ARG13	0.033	
199	 3HB	2214.511	679.203	-2293.434	 H	13	ARG13	0.033	
200	 2HG	2216.730	680.233	-2294.086	 H	13	ARG13	0.029	
201	 3HG	2216.932	679.031	-2295.366	 H	13	ARG13	0.029	
202	 2HD	2216.863	677.161	-2293.674	 H	13	ARG13	0.069	
203	 3HD	2216.652	678.348	-2292.364	 H	13	ARG13	0.069	
204	  HE	2219.037	679.129	-2293.888	 H	13	ARG13	0.346	
205	1HH1	2218.063	676.567	-2291.765	 H	13	ARG13	0.448	
206	2HH1	2219.782	676.270	-2291.214	 H	13	ARG13	0.448	
207	1HH2	2220.961	678.773	-2293.250	 H	13	ARG13	0.448	
208	2HH2	2221.329	677.474	-2292.030	 H	13	ARG13	0.448	
209	   N	2214.022	678.547	-2297.398	N.am	14	MET14	-0.416	
210	  CA	2214.346	678.186	-2298.775	C.3	14	MET14	-0.024	
211	   C	2214.017	679.314	-2299.722	C.2	14	MET14	0.597	
212	   O	2214.814	679.693	-2300.594	O.2	14	MET14	-0.568	
213	  CB	2213.589	676.889	-2299.172	C.3	14	MET14	0.034	
214	  CG	2213.946	675.624	-2298.363	C.3	14	MET14	0.002	
215	  SD	2213.208	674.176	-2299.135	S.3	14	MET14	-0.274	
216	  CE	2213.458	673.003	-2297.796	C.3	14	MET14	-0.054	
217	   H	2213.387	677.979	-2296.855	 H	14	MET14	0.272	
218	  HA	2215.436	678.009	-2298.846	 H	14	MET14	0.088	
219	 2HB	2213.776	676.668	-2300.241	 H	14	MET14	0.024	
220	 3HB	2212.495	677.057	-2299.105	 H	14	MET14	0.024	
221	 2HG	2213.571	675.719	-2297.327	 H	14	MET14	0.044	
222	 3HG	2215.041	675.482	-2298.292	 H	14	MET14	0.044	
223	 1HE	2214.525	672.944	-2297.515	 H	14	MET14	0.068	
224	 2HE	2212.880	673.307	-2296.905	 H	14	MET14	0.068	
225	 3HE	2213.122	671.995	-2298.096	 H	14	MET14	0.068	
226	   N	2212.873	679.901	-2299.623	N.am	15	MET15	-0.416	
227	  CA	2212.554	680.992	-2300.539	C.3	15	MET15	-0.024	
228	   C	2213.585	682.091	-2300.453	C.2	15	MET15	0.597	
229	   O	2214.089	682.599	-2301.467	O.2	15	MET15	-0.568	
230	  CB	2211.133	681.540	-2300.232	C.3	15	MET15	0.034	
231	  CG	2209.970	680.543	-2300.423	C.3	15	MET15	0.002	
232	  SD	2208.397	681.411	-2300.312	S.3	15	MET15	-0.274	
233	  CE	2207.314	679.983	-2300.172	C.3	15	MET15	-0.054	
234	   H	2212.207	679.611	-2298.921	 H	15	MET15	0.272	
235	  HA	2212.580	680.603	-2301.574	 H	15	MET15	0.088	
236	 2HB	2210.932	682.418	-2300.877	 H	15	MET15	0.024	
237	 3HB	2211.097	681.935	-2299.197	 H	15	MET15	0.024	
238	 2HG	2210.011	679.759	-2299.643	 H	15	MET15	0.044	
239	 3HG	2210.033	680.026	-2301.398	 H	15	MET15	0.044	
240	 1HE	2207.458	679.293	-2301.023	 H	15	MET15	0.068	
241	 2HE	2207.522	679.432	-2299.238	 H	15	MET15	0.068	
242	 3HE	2206.257	680.299	-2300.157	 H	15	MET15	0.068	
243	   N	2213.954	682.515	-2299.292	N.am	16	ARG16	-0.348	
244	  CA	2214.951	683.578	-2299.210	C.3	16	ARG16	-0.264	
245	   C	2216.222	683.182	-2299.925	C.2	16	ARG16	0.734	
246	   O	2216.335	682.104	-2300.503	O.2	16	ARG16	-0.589	
247	  CB	2215.219	683.899	-2297.712	C.3	16	ARG16	-0.001	
248	  CG	2216.046	685.188	-2297.442	C.3	16	ARG16	0.039	
249	  CD	2216.295	685.411	-2295.941	C.3	16	ARG16	0.049	
250	  NE	2217.072	686.670	-2295.743	N.pl3	16	ARG16	-0.530	
251	  CZ	2217.463	687.154	-2294.568	C.cat	16	ARG16	0.808	
252	 NH1	2217.214	686.573	-2293.429	N.pl3	16	ARG16	-0.863	
253	 NH2	2218.128	688.267	-2294.552	N.pl3	16	ARG16	-0.863	
254	   H	2213.558	682.117	-2298.452	 H	16	ARG16	0.275	
255	  HA	2214.543	684.470	-2299.723	 H	16	ARG16	0.156	
256	 2HB	2215.716	683.024	-2297.244	 H	16	ARG16	0.033	
257	 3HB	2214.250	683.982	-2297.179	 H	16	ARG16	0.033	
258	 2HG	2215.516	686.058	-2297.882	 H	16	ARG16	0.029	
259	 3HG	2217.020	685.133	-2297.970	 H	16	ARG16	0.029	
260	 2HD	2216.842	684.537	-2295.526	 H	16	ARG16	0.069	
261	 3HD	2215.322	685.456	-2295.407	 H	16	ARG16	0.069	
262	  HE	2217.351	687.248	-2296.542	 H	16	ARG16	0.346	
263	1HH1	2216.688	685.700	-2293.511	 H	16	ARG16	0.448	
264	2HH1	2217.548	687.010	-2292.569	 H	16	ARG16	0.448	
265	1HH2	2218.314	688.707	-2295.455	 H	16	ARG16	0.448	
266	2HH2	2218.418	688.624	-2293.640	 H	16	ARG16	0.448	
@<TRIPOS>BOND
1 1 2 1
2 1 10 1
3 2 3 1
4 2 5 1
5 2 11 1
6 3 4 2
7 3 16 1
8 5 6 1
9 6 7 1
10 7 8 2
11 7 9 1
12 5 12 1
13 5 13 1
14 6 14 1
15 6 15 1
16 16 17 1
17 16 24 1
18 17 18 1
19 17 20 1
20 17 25 1
21 18 19 2
22 18 30 1
23 20 21 1
24 21 22 1
25 21 23 2
26 20 26 1
27 20 27 1
28 22 28 1
29 22 29 1
30 30 31 1
31 30 36 1
32 31 32 1
33 31 34 1
34 31 37 1
35 32 33 2
36 32 44 1
37 34 35 1
38 35 36 1
39 34 38 1
40 34 39 1
41 35 40 1
42 35 41 1
43 36 42 1
44 36 43 1
45 44 45 1
46 44 53 1
47 45 46 1
48 45 48 1
49 45 54 1
50 46 47 2
51 46 59 1
52 48 49 1
53 49 50 1
54 50 51 2
55 50 52 1
56 48 55 1
57 48 56 1
58 49 57 1
59 49 58 1
60 59 60 1
61 59 65 1
62 60 61 1
63 60 63 1
64 60 66 1
65 61 62 2
66 61 70 1
67 63 64 1
68 63 67 1
69 63 68 1
70 64 69 1
71 70 71 1
72 70 78 1
73 71 72 1
74 71 74 1
75 71 79 1
76 72 73 2
77 72 89 1
78 74 75 1
79 74 76 1
80 75 77 1
81 74 80 1
82 75 81 1
83 75 82 1
84 76 83 1
85 76 84 1
86 76 85 1
87 77 86 1
88 77 87 1
89 77 88 1
90 89 90 1
91 89 97 1
92 90 91 1
93 90 93 1
94 90 98 1
95 91 92 2
96 91 108 1
97 93 94 1
98 94 95 1
99 94 96 1
100 93 99 1
101 93 100 1
102 94 101 1
103 95 102 1
104 95 103 1
105 95 104 1
106 96 105 1
107 96 106 1
108 96 107 1
109 108 109 1
110 108 116 1
111 109 110 1
112 109 112 1
113 109 117 1
114 110 111 2
115 110 120 1
116 112 113 1
117 113 114 2
118 113 115 1
119 112 118 1
120 112 119 1
121 120 121 1
122 120 129 1
123 121 122 1
124 121 124 1
125 121 130 1
126 122 123 2
127 122 135 1
128 124 125 1
129 125 126 1
130 126 127 2
131 126 128 1
132 124 131 1
133 124 132 1
134 125 133 1
135 125 134 1
136 135 136 1
137 135 145 1
138 136 137 1
139 136 139 1
140 136 146 1
141 137 138 2
142 137 152 1
143 139 140 1
144 140 141 2
145 141 144 1
146 140 142 1
147 142 143 2
148 143 144 1
149 139 147 1
150 139 148 1
151 141 149 1
152 143 150 1
153 144 151 1
154 152 153 1
155 152 159 1
156 153 154 1
157 153 156 1
158 153 160 1
159 154 155 2
160 154 168 1
161 156 157 1
162 156 158 1
163 156 161 1
164 157 162 1
165 157 163 1
166 157 164 1
167 158 165 1
168 158 166 1
169 158 167 1
170 168 169 1
171 168 177 1
172 169 170 1
173 169 172 1
174 169 178 1
175 170 171 2
176 170 185 1
177 172 173 1
178 173 174 1
179 174 175 1
180 174 176 2
181 172 179 1
182 172 180 1
183 173 181 1
184 173 182 1
185 175 183 1
186 175 184 1
187 185 186 1
188 185 196 1
189 186 187 1
190 186 189 1
191 186 197 1
192 187 188 2
193 187 209 1
194 189 190 1
195 190 191 1
196 191 192 1
197 192 193 1
198 193 194 2
199 193 195 1
200 189 198 1
201 189 199 1
202 190 200 1
203 190 201 1
204 191 202 1
205 191 203 1
206 192 204 1
207 194 205 1
208 194 206 1
209 195 207 1
210 195 208 1
211 209 210 1
212 209 217 1
213 210 211 1
214 210 213 1
215 210 218 1
216 211 212 2
217 211 226 1
218 213 214 1
219 214 215 1
220 215 216 1
221 213 219 1
222 213 220 1
223 214 221 1
224 214 222 1
225 216 223 1
226 216 224 1
227 216 225 1
228 226 227 1
229 226 234 1
230 227 228 1
231 227 230 1
232 227 235 1
233 228 229 2
234 228 243 1
235 230 231 1
236 231 232 1
237 232 233 1
238 230 236 1
239 230 237 1
240 231 238 1
241 231 239 1
242 233 240 1
243 233 241 1
244 233 242 1
245 243 244 1
246 243 254 1
247 244 245 1
248 244 247 1
249 244 255 1
250 245 246 2
251 247 248 1
252 248 249 1
253 249 250 1
254 250 251 1
255 251 252 2
256 251 253 1
257 247 256 1
258 247 257 1
259 248 258 1
260 248 259 1
261 249 260 1
262 249 261 1
263 250 262 1
264 252 263 1
265 252 264 1
266 253 265 1
267 253 266 1
@<TRIPOS>SUBSTRUCTURE
1	GLU1	1	RESIDUE	1 ****	GLU
2	ASN2	16	RESIDUE	1 ****	ASN
3	PRO3	30	RESIDUE	1 ****	PRO
4	GLU4	44	RESIDUE	1 ****	GLU
5	SER5	59	RESIDUE	1 ****	SER
6	ILE6	70	RESIDUE	1 ****	ILE
7	LEU7	89	RESIDUE	1 ****	LEU
8	ASP8	108	RESIDUE	1 ****	ASP
9	GLU9	120	RESIDUE	1 ****	GLU
10	HIS10	135	RESIDUE	1 ****	HIS
11	VAL11	152	RESIDUE	1 ****	VAL
12	GLN12	168	RESIDUE	1 ****	GLN
13	ARG13	185	RESIDUE	1 ****	ARG
14	MET14	209	RESIDUE	1 ****	MET
15	MET15	226	RESIDUE	1 ****	MET
16	ARG16	243	RESIDUE	1 ****	ARG
