REMARK WARNING: 32 MAX_TORS EXCEEDED!!!
REMARK  65 active torsions:
REMARK  status: ('A' for Active; 'I' for Inactive)
REMARK    1  A    between atoms: N_1  and  CA_2 
REMARK    2  A    between atoms: CA_2  and  C_3 
REMARK       I    between atoms: C_3  and  N_6 
REMARK    3  A    between atoms: N_6  and  CA_7 
REMARK    4  A    between atoms: CA_7  and  C_8 
REMARK    5  A    between atoms: CA_7  and  CB_10 
REMARK       I    between atoms: C_8  and  N_17 
REMARK    6  A    between atoms: CB_10  and  CG_11 
REMARK       I    between atoms: CG_11  and  ND2_12 
REMARK    7  A    between atoms: CA_18  and  C_19 
REMARK       I    between atoms: C_19  and  N_24 
REMARK    8  A    between atoms: N_24  and  CA_25 
REMARK    9  A    between atoms: CA_25  and  C_26 
REMARK   10  A    between atoms: CA_25  and  CB_28 
REMARK       I    between atoms: C_26  and  N_34 
REMARK   11  A    between atoms: CB_28  and  CG_29 
REMARK   12  A    between atoms: CG_29  and  CD_30 
REMARK   13  A    between atoms: N_34  and  CA_35 
REMARK   14  A    between atoms: CA_35  and  C_36 
REMARK   15  A    between atoms: CA_35  and  CB_38 
REMARK       I    between atoms: C_36  and  N_42 
REMARK   16  A    between atoms: CB_38  and  OG_39 
REMARK   17  A    between atoms: N_42  and  CA_43 
REMARK   18  A    between atoms: CA_43  and  C_44 
REMARK   19  A    between atoms: CA_43  and  CB_46 
REMARK       I    between atoms: C_44  and  N_51 
REMARK   20  A    between atoms: CB_46  and  CG1_47 
REMARK   21  A    between atoms: N_51  and  CA_52 
REMARK   22  A    between atoms: CA_52  and  C_53 
REMARK   23  A    between atoms: CA_52  and  CB_55 
REMARK       I    between atoms: C_53  and  N_60 
REMARK   24  A    between atoms: CB_55  and  CG_56 
REMARK   25  A    between atoms: N_60  and  CA_61 
REMARK   26  A    between atoms: CA_61  and  C_62 
REMARK   27  A    between atoms: CA_61  and  CB_64 
REMARK       I    between atoms: C_62  and  N_69 
REMARK   28  A    between atoms: CB_64  and  CG_65 
REMARK   29  A    between atoms: N_69  and  CA_70 
REMARK   30  A    between atoms: CA_70  and  C_71 
REMARK   31  A    between atoms: CA_70  and  CB_73 
REMARK       I    between atoms: C_71  and  N_79 
REMARK   32  A    between atoms: CB_73  and  CG_74 
REMARK   33  A    between atoms: CG_74  and  CD_75 
REMARK   34  A    between atoms: N_79  and  CA_80 
REMARK   35  A    between atoms: CA_80  and  C_81 
REMARK   36  A    between atoms: CA_80  and  CB_83 
REMARK       I    between atoms: C_81  and  N_91 
REMARK   37  A    between atoms: CB_83  and  CG_84 
REMARK   38  A    between atoms: N_91  and  CA_92 
REMARK   39  A    between atoms: CA_92  and  C_93 
REMARK   40  A    between atoms: CA_92  and  CB_95 
REMARK       I    between atoms: C_93  and  N_99 
REMARK   41  A    between atoms: N_99  and  CA_100 
REMARK   42  A    between atoms: CA_100  and  C_101 
REMARK   43  A    between atoms: CA_100  and  CB_103 
REMARK       I    between atoms: C_101  and  N_111 
REMARK   44  A    between atoms: CB_103  and  CG_104 
REMARK   45  A    between atoms: CG_104  and  CD_105 
REMARK       I    between atoms: CD_105  and  NE2_106 
REMARK   46  A    between atoms: N_111  and  CA_112 
REMARK   47  A    between atoms: CA_112  and  C_113 
REMARK   48  A    between atoms: CA_112  and  CB_115 
REMARK       I    between atoms: C_113  and  N_128 
REMARK   49  A    between atoms: CB_115  and  CG_116 
REMARK   50  A    between atoms: CG_116  and  CD_117 
REMARK   51  A    between atoms: CD_117  and  NE_118 
REMARK       I    between atoms: NE_118  and  CZ_119 
REMARK       I    between atoms: CZ_119  and  NH1_120 
REMARK       I    between atoms: CZ_119  and  NH2_121 
REMARK   52  A    between atoms: N_128  and  CA_129 
REMARK   53  A    between atoms: CA_129  and  C_130 
REMARK   54  A    between atoms: CA_129  and  CB_132 
REMARK       I    between atoms: C_130  and  N_136 
REMARK   55  A    between atoms: N_136  and  CA_137 
REMARK   56  A    between atoms: CA_137  and  C_138 
REMARK   57  A    between atoms: CA_137  and  CB_140 
REMARK       I    between atoms: C_138  and  N_145 
REMARK   58  A    between atoms: CB_140  and  CG_141 
REMARK   59  A    between atoms: CG_141  and  SD_142 
REMARK   60  A    between atoms: N_145  and  CA_146 
REMARK   61  A    between atoms: CA_146  and  C_147 
REMARK   62  A    between atoms: CA_146  and  CB_149 
REMARK   63  A    between atoms: CB_149  and  CG_150 
REMARK   64  A    between atoms: CG_150  and  CD_151 
REMARK   65  A    between atoms: CD_151  and  NE_152 
REMARK       I    between atoms: NE_152  and  CZ_153 
REMARK       I    between atoms: CZ_153  and  NH1_154 
ROOT
ATOM      1  CA  HIS d  10      26.391  -0.188  -5.286  0.00  0.00     0.182 C 
ENDROOT
BRANCH   1   2
ATOM      2  N   HIS d  10      26.347   1.241  -5.585  0.00  0.00    -0.346 N 
ATOM      3  C   GLU d   9      27.344   1.783  -6.198  0.00  0.00     0.241 C 
ATOM      4  O   GLU d   9      28.311   1.076  -6.515  0.00  0.00    -0.271 OA
ATOM      5  H   HIS d  10      25.547   1.796  -5.316  0.00  0.00     0.163 HD
BRANCH   3   6
ATOM      6  CA  GLU d   9      27.297   3.260  -6.507  0.00  0.00     0.177 C 
BRANCH   6   7
ATOM      7  N   GLU d   9      26.012   3.632  -7.091  0.00  0.00    -0.346 N 
ATOM      8  C   ASP d   8      25.618   3.038  -8.166  0.00  0.00     0.241 C 
ATOM      9  O   ASP d   8      26.343   2.167  -8.672  0.00  0.00    -0.271 OA
ATOM     10  H   GLU d   9      25.439   4.344  -6.660  0.00  0.00     0.163 HD
BRANCH   8  11
ATOM     11  CA  ASP d   8      24.289   3.422  -8.770  0.00  0.00     0.186 C 
BRANCH  11  12
ATOM     12  N   ASP d   8      23.246   3.480  -7.749  0.00  0.00    -0.346 N 
ATOM     13  C   LEU d   7      23.014   2.433  -7.032  0.00  0.00     0.241 C 
ATOM     14  O   LEU d   7      23.683   1.408  -7.231  0.00  0.00    -0.271 OA
ATOM     15  H   ASP d   8      22.715   4.327  -7.606  0.00  0.00     0.163 HD
BRANCH  13  16
ATOM     16  CA  LEU d   7      21.936   2.493  -5.976  0.00  0.00     0.177 C 
BRANCH  16  17
ATOM     17  N   LEU d   7      22.059   3.706  -5.173  0.00  0.00    -0.346 N 
ATOM     18  C   ILE d   6      23.168   3.937  -4.555  0.00  0.00     0.241 C 
ATOM     19  O   ILE d   6      24.096   3.122  -4.662  0.00  0.00    -0.271 OA
ATOM     20  H   LEU d   7      21.288   4.354  -5.102  0.00  0.00     0.163 HD
BRANCH  18  21
ATOM     21  CA  ILE d   6      23.295   5.191  -3.725  0.00  0.00     0.180 C 
BRANCH  21  22
ATOM     22  N   ILE d   6      22.811   6.356  -4.459  0.00  0.00    -0.346 N 
ATOM     23  C   SER d   5      23.338   6.639  -5.602  0.00  0.00     0.243 C 
ATOM     24  O   SER d   5      24.234   5.918  -6.040  0.00  0.00    -0.271 OA
ATOM     25  H   ILE d   6      22.074   6.932  -4.077  0.00  0.00     0.163 HD
BRANCH  23  26
ATOM     26  CA  SER d   5      22.837   7.845  -6.362  0.00  0.00     0.200 C 
BRANCH  26  27
ATOM     27  N   SER d   5      21.378   7.871  -6.396  0.00  0.00    -0.344 N 
ATOM     28  C   GLU d   4      20.746   6.860  -6.889  0.00  0.00     0.241 C 
ATOM     29  O   GLU d   4      21.397   5.896  -7.317  0.00  0.00    -0.271 OA
ATOM     30  H   SER d   5      20.870   8.669  -6.041  0.00  0.00     0.163 HD
BRANCH  28  31
ATOM     31  CA  GLU d   4      19.237   6.886  -6.925  0.00  0.00     0.177 C 
BRANCH  31  32
ATOM     32  N   GLU d   4      18.690   7.317  -5.641  0.00  0.00    -0.346 N 
ATOM     33  C   PRO d   3      19.003   6.660  -4.576  0.00  0.00     0.241 C 
ATOM     34  O   PRO d   3      19.752   5.686  -4.657  0.00  0.00    -0.271 OA
ATOM     35  H   GLU d   4      18.077   8.117  -5.588  0.00  0.00     0.163 HD
BRANCH  33  36
ATOM     36  CA  PRO d   3      18.437   7.098  -3.215  0.00  0.00     0.179 C 
ATOM     37  N   PRO d   3      18.571   8.533  -3.016  0.00  0.00    -0.337 N 
ATOM     38  C   ASN d   2      19.711   9.103  -2.819  0.00  0.00     0.243 C 
ATOM     39  CD  PRO d   3      17.328   9.273  -3.055  0.00  0.00     0.127 C 
ATOM     40  O   ASN d   2      20.728   8.411  -2.798  0.00  0.00    -0.271 OA
ATOM     41  CG  PRO d   3      16.344   8.238  -3.606  0.00  0.00     0.022 C 
ATOM     42  CB  PRO d   3      16.917   6.903  -3.105  0.00  0.00     0.037 C 
BRANCH  38  43
ATOM     43  CA  ASN d   2      19.757  10.600  -2.622  0.00  0.00     0.185 C 
BRANCH  43  44
ATOM     44  N   ASN d   2      18.955  11.285  -3.631  0.00  0.00    -0.346 N 
ATOM     45  C   GLY d   1      19.219  11.088  -4.879  0.00  0.00     0.237 C 
ATOM     46  O   GLY d   1      20.141  10.327  -5.182  0.00  0.00    -0.272 OA
ATOM     47  H   ASN d   2      18.205  11.904  -3.357  0.00  0.00     0.163 HD
BRANCH  45  48
ATOM     48  CA  GLY d   1      18.390  11.796  -5.923  0.00  0.00     0.241 C 
BRANCH  48  49
ATOM     49  N   GLY d   1      16.965  11.679  -5.627  0.00  0.00    -0.332 NA
ATOM     50  H   GLY d   1      16.602  11.145  -4.761  0.00  0.00     0.180 HD
ENDBRANCH  48  49
ENDBRANCH  45  48
ENDBRANCH  43  44
BRANCH  43  51
ATOM     51  CB  ASN d   2      19.245  10.984  -1.204  0.00  0.00     0.137 C 
BRANCH  51  52
ATOM     52  CG  ASN d   2      19.225  12.476  -0.854  0.00  0.00     0.217 C 
ATOM     53  ND2 ASN d   2      20.345  13.061  -0.523  0.00  0.00    -0.370 N 
ATOM     54 21HD ASN d   2      20.250  14.078  -0.459  0.00  0.00     0.159 HD
ATOM     55 22HD ASN d   2      21.194  12.501  -0.585  0.00  0.00     0.159 HD
ATOM     56  OD1 ASN d   2      18.200  13.141  -0.896  0.00  0.00    -0.274 OA
ENDBRANCH  51  52
ENDBRANCH  43  51
ENDBRANCH  38  43
ENDBRANCH  33  36
ENDBRANCH  31  32
BRANCH  31  57
ATOM     57  CB  GLU d   4      18.737   7.834  -8.053  0.00  0.00     0.045 C 
BRANCH  57  58
ATOM     58  CG  GLU d   4      19.201   7.469  -9.500  0.00  0.00     0.116 C 
BRANCH  58  59
ATOM     59  CD  GLU d   4      18.800   8.387 -10.640  0.00  0.00     0.172 C 
ATOM     60  OE1 GLU d   4      18.098   9.396 -10.432  0.00  0.00    -0.648 OA
ATOM     61  OE2 GLU d   4      19.221   8.083 -11.775  0.00  0.00    -0.648 OA
ENDBRANCH  58  59
ENDBRANCH  57  58
ENDBRANCH  31  57
ENDBRANCH  28  31
ENDBRANCH  26  27
BRANCH  26  62
ATOM     62  CB  SER d   5      23.398   9.163  -5.772  0.00  0.00     0.199 C 
BRANCH  62  63
ATOM     63  OG  SER d   5      23.132   9.305  -4.373  0.00  0.00    -0.398 OA
ATOM     64  HG  SER d   5      22.179   9.344  -4.264  0.00  0.00     0.209 HD
ENDBRANCH  62  63
ENDBRANCH  26  62
ENDBRANCH  23  26
ENDBRANCH  21  22
BRANCH  21  65
ATOM     65  CB  ILE d   6      22.568   5.047  -2.326  0.00  0.00     0.013 C 
ATOM     66  CG2 ILE d   6      23.122   3.863  -1.474  0.00  0.00     0.012 C 
BRANCH  65  67
ATOM     67  CG1 ILE d   6      22.594   6.335  -1.442  0.00  0.00     0.002 C 
ATOM     68  CD1 ILE d   6      21.636   6.342  -0.233  0.00  0.00     0.005 C 
ENDBRANCH  65  67
ENDBRANCH  21  65
ENDBRANCH  18  21
ENDBRANCH  16  17
BRANCH  16  69
ATOM     69  CB  LEU d   7      20.523   2.405  -6.620  0.00  0.00     0.038 C 
BRANCH  69  70
ATOM     70  CG  LEU d   7      19.289   2.419  -5.678  0.00  0.00    -0.020 C 
ATOM     71  CD1 LEU d   7      18.002   2.212  -6.489  0.00  0.00     0.009 C 
ATOM     72  CD2 LEU d   7      19.377   1.359  -4.567  0.00  0.00     0.009 C 
ENDBRANCH  69  70
ENDBRANCH  16  69
ENDBRANCH  13  16
ENDBRANCH  11  12
BRANCH  11  73
ATOM     73  CB  ASP d   8      24.392   4.779  -9.522  0.00  0.00     0.147 C 
BRANCH  73  74
ATOM     74  CG  ASP d   8      25.408   4.820 -10.673  0.00  0.00     0.175 C 
ATOM     75  OD1 ASP d   8      25.556   3.810 -11.391  0.00  0.00    -0.648 OA
ATOM     76  OD2 ASP d   8      26.092   5.853 -10.828  0.00  0.00    -0.648 OA
ENDBRANCH  73  74
ENDBRANCH  11  73
ENDBRANCH   8  11
ENDBRANCH   6   7
BRANCH   6  77
ATOM     77  CB  GLU d   9      27.549   4.093  -5.217  0.00  0.00     0.045 C 
BRANCH  77  78
ATOM     78  CG  GLU d   9      28.916   3.841  -4.502  0.00  0.00     0.116 C 
BRANCH  78  79
ATOM     79  CD  GLU d   9      29.198   4.576  -3.205  0.00  0.00     0.172 C 
ATOM     80  OE1 GLU d   9      28.372   5.379  -2.731  0.00  0.00    -0.648 OA
ATOM     81  OE2 GLU d   9      30.284   4.320  -2.645  0.00  0.00    -0.648 OA
ENDBRANCH  78  79
ENDBRANCH  77  78
ENDBRANCH   6  77
ENDBRANCH   3   6
ENDBRANCH   1   2
BRANCH   1  82
ATOM     82  C   HIS d  10      26.587  -0.999  -6.544  0.00  0.00     0.241 C 
ATOM     83  O   HIS d  10      27.422  -1.913  -6.613  0.00  0.00    -0.271 OA
ATOM     84  N   VAL d  11      25.863  -0.733  -7.578  0.00  0.00    -0.346 N 
ATOM     85  H   VAL d  11      25.176   0.007  -7.547  0.00  0.00     0.163 HD
BRANCH  84  86
ATOM     86  CA  VAL d  11      26.053  -1.517  -8.795  0.00  0.00     0.180 C 
BRANCH  86  87
ATOM     87  C   VAL d  11      27.485  -1.445  -9.268  0.00  0.00     0.241 C 
ATOM     88  O   VAL d  11      28.118  -2.454  -9.602  0.00  0.00    -0.271 OA
ATOM     89  N   GLN d  12      28.067  -0.295  -9.325  0.00  0.00    -0.346 N 
ATOM     90  H   GLN d  12      27.572   0.544  -9.057  0.00  0.00     0.163 HD
BRANCH  89  91
ATOM     91  CA  GLN d  12      29.451  -0.224  -9.782  0.00  0.00     0.177 C 
BRANCH  91  92
ATOM     92  C   GLN d  12      30.348  -1.093  -8.933  0.00  0.00     0.241 C 
ATOM     93  O   GLN d  12      31.169  -1.861  -9.429  0.00  0.00    -0.271 OA
ATOM     94  N   ARG d  13      30.248  -1.029  -7.648  0.00  0.00    -0.346 N 
ATOM     95  H   ARG d  13      29.581  -0.406  -7.216  0.00  0.00     0.163 HD
BRANCH  94  96
ATOM     96  CA  ARG d  13      31.115  -1.870  -6.828  0.00  0.00     0.176 C 
BRANCH  96  97
ATOM     97  C   ARG d  13      30.943  -3.328  -7.180  0.00  0.00     0.241 C 
ATOM     98  O   ARG d  13      31.904  -4.072  -7.363  0.00  0.00    -0.271 OA
ATOM     99  N   VAL d  14      29.751  -3.808  -7.292  0.00  0.00    -0.346 N 
ATOM    100  H   VAL d  14      28.945  -3.217  -7.147  0.00  0.00     0.163 HD
BRANCH  99 101
ATOM    101  CA  VAL d  14      29.584  -5.218  -7.633  0.00  0.00     0.180 C 
BRANCH 101 102
ATOM    102  C   VAL d  14      30.281  -5.547  -8.931  0.00  0.00     0.241 C 
ATOM    103  O   VAL d  14      31.010  -6.539  -9.051  0.00  0.00    -0.271 OA
ATOM    104  N   MET d  15      30.111  -4.769  -9.946  0.00  0.00    -0.346 N 
ATOM    105  H   MET d  15      29.521  -3.953  -9.873  0.00  0.00     0.163 HD
BRANCH 104 106
ATOM    106  CA  MET d  15      30.785  -5.086 -11.202  0.00  0.00     0.177 C 
BRANCH 106 107
ATOM    107  C   MET d  15      32.279  -5.182 -11.007  0.00  0.00     0.241 C 
ATOM    108  O   MET d  15      32.942  -6.124 -11.466  0.00  0.00    -0.271 OA
ATOM    109  N   ARG d  16      32.884  -4.256 -10.342  0.00  0.00    -0.347 N 
ATOM    110  H   ARG d  16      32.366  -3.479  -9.959  0.00  0.00     0.163 HD
BRANCH 109 111
ATOM    111  CA  ARG d  16      34.329  -4.349 -10.154  0.00  0.00     0.162 C 
BRANCH 111 112
ATOM    112  C   ARG d  16      34.703  -5.649  -9.481  0.00  0.00     0.219 C 
ATOM    113  O   ARG d  16      33.861  -6.491  -9.177  0.00  0.00    -0.287 OA
ENDBRANCH 111 112
BRANCH 111 114
ATOM    114  CB  ARG d  16      34.806  -3.123  -9.325  0.00  0.00     0.035 C 
BRANCH 114 115
ATOM    115  CG  ARG d  16      36.346  -2.916  -9.264  0.00  0.00     0.023 C 
BRANCH 115 116
ATOM    116  CD  ARG d  16      36.732  -1.706  -8.398  0.00  0.00     0.138 C 
BRANCH 116 117
ATOM    117  NE  ARG d  16      38.215  -1.544  -8.394  0.00  0.00    -0.227 N 
ATOM    118  CZ  ARG d  16      38.884  -0.600  -7.738  0.00  0.00     0.665 C 
ATOM    119  NH1 ARG d  16      38.312   0.310  -7.001  0.00  0.00    -0.235 N 
ATOM    120  NH2 ARG d  16      40.176  -0.581  -7.834  0.00  0.00    -0.235 N 
ATOM    121 11HH ARG d  16      37.292   0.238  -6.966  0.00  0.00     0.174 HD
ATOM    122 12HH ARG d  16      38.896   1.002  -6.529  0.00  0.00     0.174 HD
ATOM    123 21HH ARG d  16      40.607  -1.303  -8.415  0.00  0.00     0.174 HD
ATOM    124 22HH ARG d  16      40.672   0.152  -7.325  0.00  0.00     0.174 HD
ATOM    125  HE  ARG d  16      38.817  -2.182  -8.924  0.00  0.00     0.177 HD
ENDBRANCH 116 117
ENDBRANCH 115 116
ENDBRANCH 114 115
ENDBRANCH 111 114
ENDBRANCH 109 111
ENDBRANCH 106 107
BRANCH 106 126
ATOM    126  CB  MET d  15      30.433  -4.018 -12.273  0.00  0.00     0.045 C 
BRANCH 126 127
ATOM    127  CG  MET d  15      28.943  -3.921 -12.665  0.00  0.00     0.076 C 
BRANCH 127 128
ATOM    128  SD  MET d  15      28.758  -2.856 -14.105  0.00  0.00    -0.173 SA
ATOM    129  CE  MET d  15      26.974  -2.640 -14.049  0.00  0.00     0.089 C 
ENDBRANCH 127 128
ENDBRANCH 126 127
ENDBRANCH 106 126
ENDBRANCH 104 106
ENDBRANCH 101 102
BRANCH 101 130
ATOM    130  CB  VAL d  14      28.046  -5.571  -7.716  0.00  0.00     0.009 C 
ATOM    131  CG1 VAL d  14      27.691  -6.986  -8.249  0.00  0.00     0.012 C 
ATOM    132  CG2 VAL d  14      27.300  -5.445  -6.365  0.00  0.00     0.012 C 
ENDBRANCH 101 130
ENDBRANCH  99 101
ENDBRANCH  96  97
BRANCH  96 133
ATOM    133  CB  ARG d  13      30.796  -1.607  -5.329  0.00  0.00     0.036 C 
BRANCH 133 134
ATOM    134  CG  ARG d  13      31.808  -2.209  -4.314  0.00  0.00     0.023 C 
BRANCH 134 135
ATOM    135  CD  ARG d  13      31.399  -1.934  -2.858  0.00  0.00     0.138 C 
BRANCH 135 136
ATOM    136  NE  ARG d  13      32.416  -2.516  -1.932  0.00  0.00    -0.227 N 
ATOM    137  CZ  ARG d  13      32.365  -2.464  -0.604  0.00  0.00     0.665 C 
ATOM    138  NH1 ARG d  13      31.400  -1.893   0.060  0.00  0.00    -0.235 N 
ATOM    139  NH2 ARG d  13      33.328  -3.011   0.070  0.00  0.00    -0.235 N 
ATOM    140 11HH ARG d  13      30.673  -1.483  -0.531  0.00  0.00     0.174 HD
ATOM    141 12HH ARG d  13      31.435  -1.895   1.080  0.00  0.00     0.174 HD
ATOM    142 21HH ARG d  13      34.075  -3.454  -0.468  0.00  0.00     0.174 HD
ATOM    143 22HH ARG d  13      33.272  -2.959   1.088  0.00  0.00     0.174 HD
ATOM    144  HE  ARG d  13      33.241  -3.004  -2.295  0.00  0.00     0.177 HD
ENDBRANCH 135 136
ENDBRANCH 134 135
ENDBRANCH 133 134
ENDBRANCH  96 133
ENDBRANCH  94  96
ENDBRANCH  91  92
BRANCH  91 145
ATOM    145  CB  GLN d  12      29.911   1.251  -9.741  0.00  0.00     0.044 C 
BRANCH 145 146
ATOM    146  CG  GLN d  12      31.365   1.535 -10.242  0.00  0.00     0.105 C 
BRANCH 146 147
ATOM    147  CD  GLN d  12      31.912   2.966 -10.175  0.00  0.00     0.215 C 
ATOM    148  NE2 GLN d  12      31.159   3.934  -9.718  0.00  0.00    -0.370 N 
ATOM    149 21HE GLN d  12      31.620   4.842  -9.645  0.00  0.00     0.159 HD
ATOM    150 22HE GLN d  12      30.239   3.642  -9.382  0.00  0.00     0.159 HD
ATOM    151  OE1 GLN d  12      33.056   3.221 -10.520  0.00  0.00    -0.274 OA
ENDBRANCH 146 147
ENDBRANCH 145 146
ENDBRANCH  91 145
ENDBRANCH  89  91
ENDBRANCH  86  87
BRANCH  86 152
ATOM    152  CB  VAL d  11      25.064  -1.011  -9.919  0.00  0.00     0.009 C 
ATOM    153  CG1 VAL d  11      25.262  -1.615 -11.336  0.00  0.00     0.012 C 
ATOM    154  CG2 VAL d  11      23.569  -1.235  -9.586  0.00  0.00     0.012 C 
ENDBRANCH  86 152
ENDBRANCH  84  86
ENDBRANCH   1  82
BRANCH   1 155
ATOM    155  CB  HIS d  10      25.044  -0.534  -4.629  0.00  0.00     0.095 C 
BRANCH 155 156
ATOM    156  CG  HIS d  10      25.210  -1.066  -3.236  0.00  0.00     0.053 A 
ATOM    157  CD2 HIS d  10      25.208  -0.247  -2.114  0.00  0.00     0.116 A 
ATOM    158  NE2 HIS d  10      25.381  -1.040  -1.010  0.00  0.00    -0.359 N 
ATOM    159  CE1 HIS d  10      25.477  -2.285  -1.551  0.00  0.00     0.207 A 
ATOM    160  2HE HIS d  10      25.429  -0.755  -0.021  0.00  0.00     0.166 HD
ATOM    161  ND1 HIS d  10      25.382  -2.404  -2.888  0.00  0.00    -0.247 NA
ENDBRANCH 155 156
ENDBRANCH   1 155
TORSDOF 65
