REMARK WARNING: 32 MAX_TORS EXCEEDED!!!
REMARK  67 active torsions:
REMARK  status: ('A' for Active; 'I' for Inactive)
REMARK    1  A    between atoms: N_1  and  CA_2 
REMARK    2  A    between atoms: CA_2  and  C_3 
REMARK    3  A    between atoms: CA_2  and  CB_5 
REMARK       I    between atoms: C_3  and  N_10 
REMARK    4  A    between atoms: CB_5  and  CG1_6 
REMARK    5  A    between atoms: N_10  and  CA_11 
REMARK    6  A    between atoms: CA_11  and  C_12 
REMARK    7  A    between atoms: CA_11  and  CB_14 
REMARK       I    between atoms: C_12  and  N_21 
REMARK    8  A    between atoms: CB_14  and  CG_15 
REMARK       I    between atoms: CG_15  and  ND2_16 
REMARK    9  A    between atoms: CA_22  and  C_23 
REMARK       I    between atoms: C_23  and  N_28 
REMARK   10  A    between atoms: N_28  and  CA_29 
REMARK   11  A    between atoms: CA_29  and  C_30 
REMARK   12  A    between atoms: CA_29  and  CB_32 
REMARK       I    between atoms: C_30  and  N_38 
REMARK   13  A    between atoms: CB_32  and  CG_33 
REMARK   14  A    between atoms: CG_33  and  CD_34 
REMARK   15  A    between atoms: N_38  and  CA_39 
REMARK   16  A    between atoms: CA_39  and  C_40 
REMARK   17  A    between atoms: CA_39  and  CB_42 
REMARK       I    between atoms: C_40  and  N_46 
REMARK   18  A    between atoms: CB_42  and  OG_43 
REMARK   19  A    between atoms: N_46  and  CA_47 
REMARK   20  A    between atoms: CA_47  and  C_48 
REMARK   21  A    between atoms: CA_47  and  CB_50 
REMARK       I    between atoms: C_48  and  N_55 
REMARK   22  A    between atoms: CB_50  and  CG1_51 
REMARK   23  A    between atoms: N_55  and  CA_56 
REMARK   24  A    between atoms: CA_56  and  C_57 
REMARK   25  A    between atoms: CA_56  and  CB_59 
REMARK       I    between atoms: C_57  and  N_64 
REMARK   26  A    between atoms: CB_59  and  CG_60 
REMARK   27  A    between atoms: N_64  and  CA_65 
REMARK   28  A    between atoms: CA_65  and  C_66 
REMARK   29  A    between atoms: CA_65  and  CB_68 
REMARK       I    between atoms: C_66  and  N_73 
REMARK   30  A    between atoms: CB_68  and  CG_69 
REMARK   31  A    between atoms: N_73  and  CA_74 
REMARK   32  A    between atoms: CA_74  and  C_75 
REMARK   33  A    between atoms: CA_74  and  CB_77 
REMARK       I    between atoms: C_75  and  N_83 
REMARK   34  A    between atoms: CB_77  and  CG_78 
REMARK   35  A    between atoms: CG_78  and  CD_79 
REMARK   36  A    between atoms: N_83  and  CA_84 
REMARK   37  A    between atoms: CA_84  and  C_85 
REMARK   38  A    between atoms: CA_84  and  CB_87 
REMARK       I    between atoms: C_85  and  N_95 
REMARK   39  A    between atoms: CB_87  and  CG_88 
REMARK   40  A    between atoms: N_95  and  CA_96 
REMARK   41  A    between atoms: CA_96  and  C_97 
REMARK   42  A    between atoms: CA_96  and  CB_99 
REMARK       I    between atoms: C_97  and  N_103 
REMARK   43  A    between atoms: N_103  and  CA_104 
REMARK   44  A    between atoms: CA_104  and  C_105 
REMARK   45  A    between atoms: CA_104  and  CB_107 
REMARK       I    between atoms: C_105  and  N_115 
REMARK   46  A    between atoms: CB_107  and  CG_108 
REMARK   47  A    between atoms: CG_108  and  CD_109 
REMARK       I    between atoms: CD_109  and  NE2_110 
REMARK   48  A    between atoms: N_115  and  CA_116 
REMARK   49  A    between atoms: CA_116  and  C_117 
REMARK   50  A    between atoms: CA_116  and  CB_119 
REMARK       I    between atoms: C_117  and  N_132 
REMARK   51  A    between atoms: CB_119  and  CG_120 
REMARK   52  A    between atoms: CG_120  and  CD_121 
REMARK   53  A    between atoms: CD_121  and  NE_122 
REMARK       I    between atoms: NE_122  and  CZ_123 
REMARK       I    between atoms: CZ_123  and  NH1_124 
REMARK       I    between atoms: CZ_123  and  NH2_125 
REMARK   54  A    between atoms: N_132  and  CA_133 
REMARK   55  A    between atoms: CA_133  and  C_134 
REMARK   56  A    between atoms: CA_133  and  CB_136 
REMARK       I    between atoms: C_134  and  N_140 
REMARK   57  A    between atoms: N_140  and  CA_141 
REMARK   58  A    between atoms: CA_141  and  C_142 
REMARK   59  A    between atoms: CA_141  and  CB_144 
REMARK       I    between atoms: C_142  and  N_149 
REMARK   60  A    between atoms: CB_144  and  CG_145 
REMARK   61  A    between atoms: CG_145  and  SD_146 
REMARK   62  A    between atoms: N_149  and  CA_150 
REMARK   63  A    between atoms: CA_150  and  C_151 
REMARK   64  A    between atoms: CA_150  and  CB_153 
REMARK   65  A    between atoms: CB_153  and  CG_154 
REMARK   66  A    between atoms: CG_154  and  CD_155 
REMARK   67  A    between atoms: CD_155  and  NE_156 
REMARK       I    between atoms: NE_156  and  CZ_157 
REMARK       I    between atoms: CZ_157  and  NH1_158 
ROOT
ATOM      1  C   GLU d   9      54.012  13.048 -33.411  0.00  0.00     0.241 C 
ATOM      2  O   GLU d   9      54.640  13.832 -34.136  0.00  0.00    -0.271 OA
ATOM      3  N   HIS d  10      54.167  11.779 -33.581  0.00  0.00    -0.346 N 
ATOM      4  H   HIS d  10      53.667  11.119 -33.002  0.00  0.00     0.163 HD
ENDROOT
BRANCH   3   5
ATOM      5  CA  HIS d  10      55.078  11.309 -34.621  0.00  0.00     0.182 C 
BRANCH   5   6
ATOM      6  C   HIS d  10      54.685  11.856 -35.972  0.00  0.00     0.241 C 
ATOM      7  O   HIS d  10      55.515  12.360 -36.744  0.00  0.00    -0.271 OA
ATOM      8  N   VAL d  11      53.448  11.798 -36.335  0.00  0.00    -0.346 N 
ATOM      9  H   VAL d  11      52.754  11.392 -35.724  0.00  0.00     0.163 HD
BRANCH   8  10
ATOM     10  CA  VAL d  11      53.068  12.327 -37.642  0.00  0.00     0.180 C 
BRANCH  10  11
ATOM     11  C   VAL d  11      53.466  13.778 -37.774  0.00  0.00     0.241 C 
ATOM     12  O   VAL d  11      54.047  14.210 -38.777  0.00  0.00    -0.271 OA
ATOM     13  N   GLN d  12      53.191  14.591 -36.811  0.00  0.00    -0.346 N 
ATOM     14  H   GLN d  12      52.717  14.263 -35.982  0.00  0.00     0.163 HD
BRANCH  13  15
ATOM     15  CA  GLN d  12      53.575  15.994 -36.938  0.00  0.00     0.177 C 
BRANCH  15  16
ATOM     16  C   GLN d  12      55.060  16.130 -37.177  0.00  0.00     0.241 C 
ATOM     17  O   GLN d  12      55.513  16.860 -38.055  0.00  0.00    -0.271 OA
ATOM     18  N   ARG d  13      55.877  15.460 -36.436  0.00  0.00    -0.346 N 
ATOM     19  H   ARG d  13      55.528  14.854 -35.708  0.00  0.00     0.163 HD
BRANCH  18  20
ATOM     20  CA  ARG d  13      57.312  15.593 -36.667  0.00  0.00     0.176 C 
BRANCH  20  21
ATOM     21  C   ARG d  13      57.665  15.238 -38.092  0.00  0.00     0.241 C 
ATOM     22  O   ARG d  13      58.401  15.944 -38.776  0.00  0.00    -0.271 OA
ATOM     23  N   VAL d  14      57.178  14.159 -38.607  0.00  0.00    -0.346 N 
ATOM     24  H   VAL d  14      56.570  13.562 -38.065  0.00  0.00     0.163 HD
BRANCH  23  25
ATOM     25  CA  VAL d  14      57.519  13.816 -39.984  0.00  0.00     0.180 C 
BRANCH  25  26
ATOM     26  C   VAL d  14      57.137  14.929 -40.930  0.00  0.00     0.241 C 
ATOM     27  O   VAL d  14      57.911  15.347 -41.799  0.00  0.00    -0.271 OA
ATOM     28  N   MET d  15      55.966  15.462 -40.827  0.00  0.00    -0.346 N 
ATOM     29  H   MET d  15      55.315  15.138 -40.126  0.00  0.00     0.163 HD
BRANCH  28  30
ATOM     30  CA  MET d  15      55.595  16.539 -41.741  0.00  0.00     0.177 C 
BRANCH  30  31
ATOM     31  C   MET d  15      56.573  17.685 -41.653  0.00  0.00     0.241 C 
ATOM     32  O   MET d  15      57.052  18.219 -42.666  0.00  0.00    -0.271 OA
ATOM     33  N   ARG d  16      56.922  18.122 -40.491  0.00  0.00    -0.347 N 
ATOM     34  H   ARG d  16      56.547  17.704 -39.652  0.00  0.00     0.163 HD
BRANCH  33  35
ATOM     35  CA  ARG d  16      57.869  19.231 -40.407  0.00  0.00     0.162 C 
BRANCH  35  36
ATOM     36  C   ARG d  16      59.156  18.898 -41.124  0.00  0.00     0.219 C 
ATOM     37  O   ARG d  16      59.319  17.828 -41.705  0.00  0.00    -0.287 OA
ENDBRANCH  35  36
BRANCH  35  38
ATOM     38  CB  ARG d  16      58.123  19.561 -38.909  0.00  0.00     0.035 C 
BRANCH  38  39
ATOM     39  CG  ARG d  16      58.887  20.887 -38.636  0.00  0.00     0.023 C 
BRANCH  39  40
ATOM     40  CD  ARG d  16      59.127  21.117 -37.135  0.00  0.00     0.138 C 
BRANCH  40  41
ATOM     41  NE  ARG d  16      59.844  22.411 -36.934  0.00  0.00    -0.227 N 
ATOM     42  CZ  ARG d  16      60.213  22.911 -35.758  0.00  0.00     0.665 C 
ATOM     43  NH1 ARG d  16      59.993  22.315 -34.620  0.00  0.00    -0.235 N 
ATOM     44  NH2 ARG d  16      60.825  24.053 -35.740  0.00  0.00    -0.235 N 
ATOM     45 11HH ARG d  16      59.508  21.419 -34.704  0.00  0.00     0.174 HD
ATOM     46 12HH ARG d  16      60.307  22.766 -33.759  0.00  0.00     0.174 HD
ATOM     47 21HH ARG d  16      60.989  24.504 -36.641  0.00  0.00     0.174 HD
ATOM     48 22HH ARG d  16      61.098  24.421 -34.827  0.00  0.00     0.174 HD
ATOM     49  HE  ARG d  16      60.095  23.004 -37.731  0.00  0.00     0.177 HD
ENDBRANCH  40  41
ENDBRANCH  39  40
ENDBRANCH  38  39
ENDBRANCH  35  38
ENDBRANCH  33  35
ENDBRANCH  30  31
BRANCH  30  50
ATOM     50  CB  MET d  15      54.150  17.018 -41.432  0.00  0.00     0.045 C 
BRANCH  50  51
ATOM     51  CG  MET d  15      53.035  15.967 -41.623  0.00  0.00     0.076 C 
BRANCH  51  52
ATOM     52  SD  MET d  15      51.423  16.759 -41.508  0.00  0.00    -0.173 SA
ATOM     53  CE  MET d  15      50.409  15.281 -41.372  0.00  0.00     0.089 C 
ENDBRANCH  51  52
ENDBRANCH  50  51
ENDBRANCH  30  50
ENDBRANCH  28  30
ENDBRANCH  25  26
BRANCH  25  54
ATOM     54  CB  VAL d  14      56.808  12.464 -40.391  0.00  0.00     0.009 C 
ATOM     55  CG1 VAL d  14      56.916  12.051 -41.885  0.00  0.00     0.012 C 
ATOM     56  CG2 VAL d  14      57.298  11.233 -39.591  0.00  0.00     0.012 C 
ENDBRANCH  25  54
ENDBRANCH  23  25
ENDBRANCH  20  21
BRANCH  20  57
ATOM     57  CB  ARG d  13      58.068  14.688 -35.653  0.00  0.00     0.036 C 
BRANCH  57  58
ATOM     58  CG  ARG d  13      59.605  14.912 -35.573  0.00  0.00     0.023 C 
BRANCH  58  59
ATOM     59  CD  ARG d  13      60.277  13.955 -34.575  0.00  0.00     0.138 C 
BRANCH  59  60
ATOM     60  NE  ARG d  13      61.743  14.230 -34.525  0.00  0.00    -0.227 N 
ATOM     61  CZ  ARG d  13      62.622  13.578 -33.770  0.00  0.00     0.665 C 
ATOM     62  NH1 ARG d  13      62.302  12.598 -32.973  0.00  0.00    -0.235 N 
ATOM     63  NH2 ARG d  13      63.867  13.935 -33.827  0.00  0.00    -0.235 N 
ATOM     64 11HH ARG d  13      61.307  12.365 -32.976  0.00  0.00     0.174 HD
ATOM     65 12HH ARG d  13      63.037  12.148 -32.424  0.00  0.00     0.174 HD
ATOM     66 21HH ARG d  13      64.099  14.705 -34.458  0.00  0.00     0.174 HD
ATOM     67 22HH ARG d  13      64.526  13.424 -33.239  0.00  0.00     0.174 HD
ATOM     68  HE  ARG d  13      62.160  14.972 -35.096  0.00  0.00     0.177 HD
ENDBRANCH  59  60
ENDBRANCH  58  59
ENDBRANCH  57  58
ENDBRANCH  20  57
ENDBRANCH  18  20
ENDBRANCH  15  16
BRANCH  15  69
ATOM     69  CB  GLN d  12      53.149  16.742 -35.655  0.00  0.00     0.044 C 
BRANCH  69  70
ATOM     70  CG  GLN d  12      53.438  18.279 -35.624  0.00  0.00     0.105 C 
BRANCH  70  71
ATOM     71  CD  GLN d  12      53.099  19.077 -34.359  0.00  0.00     0.215 C 
ATOM     72  NE2 GLN d  12      52.559  18.475 -33.330  0.00  0.00    -0.370 N 
ATOM     73 21HE GLN d  12      52.425  19.064 -32.507  0.00  0.00     0.159 HD
ATOM     74 22HE GLN d  12      52.442  17.465 -33.434  0.00  0.00     0.159 HD
ATOM     75  OE1 GLN d  12      53.346  20.271 -34.282  0.00  0.00    -0.274 OA
ENDBRANCH  70  71
ENDBRANCH  69  70
ENDBRANCH  15  69
ENDBRANCH  13  15
ENDBRANCH  10  11
BRANCH  10  76
ATOM     76  CB  VAL d  11      51.513  12.148 -37.861  0.00  0.00     0.009 C 
ATOM     77  CG1 VAL d  11      50.912  12.825 -39.123  0.00  0.00     0.012 C 
ATOM     78  CG2 VAL d  11      51.057  10.671 -37.934  0.00  0.00     0.012 C 
ENDBRANCH  10  76
ENDBRANCH   8  10
ENDBRANCH   5   6
BRANCH   5  79
ATOM     79  CB  HIS d  10      54.985   9.774 -34.616  0.00  0.00     0.095 C 
BRANCH  79  80
ATOM     80  CG  HIS d  10      56.302   9.124 -34.309  0.00  0.00     0.053 A 
ATOM     81  CD2 HIS d  10      56.698   8.807 -33.016  0.00  0.00     0.116 A 
ATOM     82  NE2 HIS d  10      57.941   8.232 -33.083  0.00  0.00    -0.359 N 
ATOM     83  CE1 HIS d  10      58.203   8.247 -34.419  0.00  0.00     0.207 A 
ATOM     84  2HE HIS d  10      58.525   7.881 -32.310  0.00  0.00     0.166 HD
ATOM     85  ND1 HIS d  10      57.272   8.763 -35.242  0.00  0.00    -0.247 NA
ENDBRANCH  79  80
ENDBRANCH   5  79
ENDBRANCH   3   5
BRANCH   1  86
ATOM     86  CA  GLU d   9      53.071  13.533 -32.335  0.00  0.00     0.177 C 
BRANCH  86  87
ATOM     87  N   GLU d   9      51.800  12.816 -32.390  0.00  0.00    -0.346 N 
ATOM     88  C   ASP d   8      51.118  12.834 -33.485  0.00  0.00     0.241 C 
ATOM     89  O   ASP d   8      51.562  13.460 -34.460  0.00  0.00    -0.271 OA
ATOM     90  H   GLU d   9      51.460  12.313 -31.583  0.00  0.00     0.163 HD
BRANCH  88  91
ATOM     91  CA  ASP d   8      49.805  12.093 -33.542  0.00  0.00     0.186 C 
BRANCH  91  92
ATOM     92  N   ASP d   8      49.937  10.748 -32.989  0.00  0.00    -0.346 N 
ATOM     93  C   LEU d   7      50.812   9.947 -33.495  0.00  0.00     0.241 C 
ATOM     94  O   LEU d   7      51.515  10.342 -34.437  0.00  0.00    -0.271 OA
ATOM     95  H   ASP d   8      49.353  10.449 -32.221  0.00  0.00     0.163 HD
BRANCH  93  96
ATOM     96  CA  LEU d   7      50.949   8.556 -32.923  0.00  0.00     0.177 C 
BRANCH  96  97
ATOM     97  N   LEU d   7      51.003   8.595 -31.464  0.00  0.00    -0.346 N 
ATOM     98  C   ILE d   6      51.917   9.301 -30.891  0.00  0.00     0.241 C 
ATOM     99  O   ILE d   6      52.724   9.927 -31.595  0.00  0.00    -0.271 OA
ATOM    100  H   LEU d   7      50.334   8.076 -30.913  0.00  0.00     0.163 HD
BRANCH  98 101
ATOM    101  CA  ILE d   6      51.973   9.342 -29.383  0.00  0.00     0.180 C 
BRANCH 101 102
ATOM    102  N   ILE d   6      50.648   9.575 -28.816  0.00  0.00    -0.346 N 
ATOM    103  C   SER d   5      49.994  10.629 -29.170  0.00  0.00     0.243 C 
ATOM    104  O   SER d   5      50.505  11.407 -29.975  0.00  0.00    -0.271 OA
ATOM    105  H   ILE d   6      50.249   8.922 -28.157  0.00  0.00     0.163 HD
BRANCH 103 106
ATOM    106  CA  SER d   5      48.622  10.872 -28.584  0.00  0.00     0.200 C 
BRANCH 106 107
ATOM    107  N   SER d   5      47.808   9.662 -28.643  0.00  0.00    -0.344 N 
ATOM    108  C   GLU d   4      47.606   9.099 -29.786  0.00  0.00     0.241 C 
ATOM    109  O   GLU d   4      48.109   9.603 -30.800  0.00  0.00    -0.271 OA
ATOM    110  H   SER d   5      47.409   9.271 -27.801  0.00  0.00     0.163 HD
BRANCH 108 111
ATOM    111  CA  GLU d   4      46.764   7.848 -29.847  0.00  0.00     0.177 C 
BRANCH 111 112
ATOM    112  N   GLU d   4      47.168   6.895 -28.817  0.00  0.00    -0.346 N 
ATOM    113  C   PRO d   3      48.392   6.491 -28.785  0.00  0.00     0.241 C 
ATOM    114  O   PRO d   3      49.197   6.911 -29.617  0.00  0.00    -0.271 OA
ATOM    115  H   GLU d   4      46.499   6.557 -28.140  0.00  0.00     0.163 HD
BRANCH 113 116
ATOM    116  CA  PRO d   3      48.838   5.487 -27.708  0.00  0.00     0.179 C 
ATOM    117  N   PRO d   3      48.368   5.875 -26.387  0.00  0.00    -0.337 N 
ATOM    118  C   ASN d   2      48.843   6.893 -25.753  0.00  0.00     0.243 C 
ATOM    119  CD  PRO d   3      47.327   5.033 -25.837  0.00  0.00     0.127 C 
ATOM    120  O   ASN d   2      49.728   7.565 -26.282  0.00  0.00    -0.271 OA
ATOM    121  CG  PRO d   3      46.908   4.194 -27.047  0.00  0.00     0.022 C 
ATOM    122  CB  PRO d   3      48.196   4.101 -27.878  0.00  0.00     0.037 C 
BRANCH 118 123
ATOM    123  CA  ASN d   2      48.296   7.223 -24.384  0.00  0.00     0.185 C 
BRANCH 123 124
ATOM    124  N   ASN d   2      46.837   7.195 -24.384  0.00  0.00    -0.345 N 
ATOM    125  C   ILE d   1      46.197   7.952 -25.209  0.00  0.00     0.242 C 
ATOM    126  O   ILE d   1      46.840   8.682 -25.978  0.00  0.00    -0.271 OA
ATOM    127  H   ASN d   2      46.336   6.592 -23.747  0.00  0.00     0.163 HD
BRANCH 125 128
ATOM    128  CA  ILE d   1      44.688   7.923 -25.209  0.00  0.00     0.194 C 
BRANCH 128 129
ATOM    129  N   ILE d   1      44.191   6.550 -25.209  0.00  0.00    -0.326 NA
ATOM    130  H   ILE d   1      44.857   5.700 -25.209  0.00  0.00     0.180 HD
ENDBRANCH 128 129
BRANCH 128 131
ATOM    131  CB  ILE d   1      44.083   8.755 -24.006  0.00  0.00     0.014 C 
ATOM    132  CG2 ILE d   1      44.522  10.252 -24.024  0.00  0.00     0.012 C 
BRANCH 131 133
ATOM    133  CG1 ILE d   1      42.525   8.707 -23.899  0.00  0.00     0.002 C 
ATOM    134  CD1 ILE d   1      41.925   9.227 -22.576  0.00  0.00     0.005 C 
ENDBRANCH 131 133
ENDBRANCH 128 131
ENDBRANCH 125 128
ENDBRANCH 123 124
BRANCH 123 135
ATOM    135  CB  ASN d   2      48.835   6.224 -23.320  0.00  0.00     0.137 C 
BRANCH 135 136
ATOM    136  CG  ASN d   2      48.363   6.426 -21.876  0.00  0.00     0.217 C 
ATOM    137  ND2 ASN d   2      48.914   7.368 -21.158  0.00  0.00    -0.370 N 
ATOM    138 21HD ASN d   2      48.426   7.518 -20.272  0.00  0.00     0.159 HD
ATOM    139 22HD ASN d   2      49.589   7.971 -21.628  0.00  0.00     0.159 HD
ATOM    140  OD1 ASN d   2      47.472   5.751 -21.382  0.00  0.00    -0.274 OA
ENDBRANCH 135 136
ENDBRANCH 123 135
ENDBRANCH 118 123
ENDBRANCH 113 116
ENDBRANCH 111 112
BRANCH 111 141
ATOM    141  CB  GLU d   4      45.257   8.198 -29.676  0.00  0.00     0.045 C 
BRANCH 141 142
ATOM    142  CG  GLU d   4      44.663   9.175 -30.742  0.00  0.00     0.116 C 
BRANCH 142 143
ATOM    143  CD  GLU d   4      43.215   9.606 -30.598  0.00  0.00     0.172 C 
ATOM    144  OE1 GLU d   4      42.509   9.174 -29.666  0.00  0.00    -0.648 OA
ATOM    145  OE2 GLU d   4      42.788  10.416 -31.446  0.00  0.00    -0.648 OA
ENDBRANCH 142 143
ENDBRANCH 141 142
ENDBRANCH 111 141
ENDBRANCH 108 111
ENDBRANCH 106 107
BRANCH 106 146
ATOM    146  CB  SER d   5      48.710  11.409 -27.134  0.00  0.00     0.199 C 
BRANCH 146 147
ATOM    147  OG  SER d   5      49.481  10.564 -26.273  0.00  0.00    -0.398 OA
ATOM    148  HG  SER d   5      49.031   9.718 -26.222  0.00  0.00     0.209 HD
ENDBRANCH 146 147
ENDBRANCH 106 146
ENDBRANCH 103 106
ENDBRANCH 101 102
BRANCH 101 149
ATOM    149  CB  ILE d   6      52.634   8.034 -28.783  0.00  0.00     0.013 C 
ATOM    150  CG2 ILE d   6      54.088   7.799 -29.299  0.00  0.00     0.012 C 
BRANCH 149 151
ATOM    151  CG1 ILE d   6      52.657   7.973 -27.222  0.00  0.00     0.002 C 
ATOM    152  CD1 ILE d   6      52.991   6.598 -26.607  0.00  0.00     0.005 C 
ENDBRANCH 149 151
ENDBRANCH 101 149
ENDBRANCH  98 101
ENDBRANCH  96  97
BRANCH  96 153
ATOM    153  CB  LEU d   7      49.787   7.641 -33.403  0.00  0.00     0.038 C 
BRANCH 153 154
ATOM    154  CG  LEU d   7      49.783   6.160 -32.936  0.00  0.00    -0.020 C 
ATOM    155  CD1 LEU d   7      48.627   5.400 -33.602  0.00  0.00     0.009 C 
ATOM    156  CD2 LEU d   7      51.111   5.442 -33.228  0.00  0.00     0.009 C 
ENDBRANCH 153 154
ENDBRANCH  96 153
ENDBRANCH  93  96
ENDBRANCH  91  92
BRANCH  91 157
ATOM    157  CB  ASP d   8      48.689  12.881 -32.800  0.00  0.00     0.147 C 
BRANCH 157 158
ATOM    158  CG  ASP d   8      48.405  14.290 -33.340  0.00  0.00     0.175 C 
ATOM    159  OD1 ASP d   8      48.459  14.492 -34.571  0.00  0.00    -0.648 OA
ATOM    160  OD2 ASP d   8      48.170  15.206 -32.524  0.00  0.00    -0.648 OA
ENDBRANCH 157 158
ENDBRANCH  91 157
ENDBRANCH  88  91
ENDBRANCH  86  87
BRANCH  86 161
ATOM    161  CB  GLU d   9      53.714  13.354 -30.929  0.00  0.00     0.045 C 
BRANCH 161 162
ATOM    162  CG  GLU d   9      55.063  14.110 -30.700  0.00  0.00     0.116 C 
BRANCH 162 163
ATOM    163  CD  GLU d   9      55.774  13.929 -29.372  0.00  0.00     0.172 C 
ATOM    164  OE1 GLU d   9      55.285  13.215 -28.476  0.00  0.00    -0.648 OA
ATOM    165  OE2 GLU d   9      56.867  14.518 -29.241  0.00  0.00    -0.648 OA
ENDBRANCH 162 163
ENDBRANCH 161 162
ENDBRANCH  86 161
ENDBRANCH   1  86
TORSDOF 67
