@<TRIPOS>MOLECULE
9-19
272 273 16              
SMALL
USER_CHARGES
@<TRIPOS>ATOM
1	   N	1500.922	442.703	-1519.807	N.3	1	GLU1	-0.516	
2	  CA	1501.481	444.052	-1519.807	C.3	1	GLU1	0.040	
3	   C	1502.990	444.012	-1519.807	C.2	1	GLU1	0.537	
4	   O	1503.666	444.711	-1520.575	O.2	1	GLU1	-0.582	
5	  CB	1500.958	444.836	-1518.570	C.3	1	GLU1	0.056	
6	  CG	1501.433	446.322	-1518.459	C.3	1	GLU1	0.014	
7	  CD	1501.009	447.125	-1517.244	C.2	1	GLU1	0.805	
8	 OE1	1500.281	446.624	-1516.366	O.co2	1	GLU1	-0.819	
9	 OE2	1501.439	448.296	-1517.172	O.co2	1	GLU1	-0.819	
10	   H	1501.549	441.823	-1519.807	 H	1	GLU1	0.294	
11	  HA	1501.155	444.569	-1520.727	 H	1	GLU1	0.111	
12	 2HB	1501.247	444.306	-1517.640	 H	1	GLU1	-0.017	
13	 3HB	1499.851	444.827	-1518.557	 H	1	GLU1	-0.017	
14	 2HG	1501.123	446.906	-1519.340	 H	1	GLU1	-0.043	
15	 3HG	1502.533	446.388	-1518.430	 H	1	GLU1	-0.043	
16	   N	1503.594	443.226	-1518.982	N.am	2	ASN2	-0.416	
17	  CA	1505.054	443.187	-1518.982	C.3	2	ASN2	0.014	
18	   C	1505.585	442.832	-1520.350	C.2	2	ASN2	0.597	
19	   O	1506.500	443.462	-1520.879	O.2	2	ASN2	-0.568	
20	  CB	1505.546	442.164	-1517.917	C.3	2	ASN2	-0.204	
21	  CG	1505.083	442.388	-1516.474	C.2	2	ASN2	0.713	
22	 ND2	1505.677	443.303	-1515.756	N.pl3	2	ASN2	-0.919	
23	 OD1	1504.162	441.754	-1515.980	O.2	2	ASN2	-0.593	
24	   H	1503.066	442.646	-1518.345	 H	2	ASN2	0.272	
25	  HA	1505.431	444.197	-1518.736	 H	2	ASN2	0.105	
26	 2HB	1506.650	442.105	-1517.921	 H	2	ASN2	0.080	
27	 3HB	1505.217	441.146	-1518.203	 H	2	ASN2	0.080	
28	1HD2	1505.196	443.476	-1514.869	 H	2	ASN2	0.420	
29	2HD2	1506.379	443.875	-1516.225	 H	2	ASN2	0.420	
30	   N	1505.063	441.836	-1520.984	N.am	3	PRO3	-0.255	
31	  CA	1505.515	441.427	-1522.306	C.3	3	PRO3	-0.027	
32	   C	1505.117	442.451	-1523.383	C.2	3	PRO3	0.590	
33	   O	1505.940	442.834	-1524.214	O.2	3	PRO3	-0.575	
34	  CB	1504.811	440.072	-1522.475	C.3	3	PRO3	-0.007	
35	  CG	1503.528	440.225	-1521.645	C.3	3	PRO3	0.019	
36	  CD	1503.985	441.043	-1520.435	C.3	3	PRO3	0.019	
37	  HA	1506.601	441.307	-1522.320	 H	3	PRO3	0.064	
38	 2HB	1505.434	439.291	-1522.034	 H	3	PRO3	0.025	
39	 3HB	1504.613	439.824	-1523.521	 H	3	PRO3	0.025	
40	 2HG	1503.100	439.262	-1521.354	 H	3	PRO3	0.021	
41	 3HG	1502.790	440.795	-1522.212	 H	3	PRO3	0.021	
42	 2HD	1504.375	440.394	-1519.648	 H	3	PRO3	0.039	
43	 3HD	1503.189	441.679	-1520.042	 H	3	PRO3	0.039	
44	   N	1503.912	442.911	-1523.415	N.am	4	GLU4	-0.516	
45	  CA	1503.552	443.882	-1524.445	C.3	4	GLU4	0.040	
46	   C	1504.451	445.093	-1524.383	C.2	4	GLU4	0.537	
47	   O	1504.977	445.573	-1525.398	O.2	4	GLU4	-0.582	
48	  CB	1502.064	444.300	-1524.274	C.3	4	GLU4	0.056	
49	  CG	1501.516	445.304	-1525.340	C.3	4	GLU4	0.014	
50	  CD	1500.089	445.801	-1525.196	C.2	4	GLU4	0.805	
51	 OE1	1499.363	445.402	-1524.265	O.co2	4	GLU4	-0.819	
52	 OE2	1499.699	446.630	-1526.044	O.co2	4	GLU4	-0.819	
53	   H	1503.228	442.604	-1522.738	 H	4	GLU4	0.294	
54	  HA	1503.683	443.411	-1525.436	 H	4	GLU4	0.111	
55	 2HB	1501.911	444.740	-1523.267	 H	4	GLU4	-0.017	
56	 3HB	1501.416	443.402	-1524.280	 H	4	GLU4	-0.017	
57	 2HG	1501.597	444.889	-1526.357	 H	4	GLU4	-0.043	
58	 3HG	1502.104	446.236	-1525.351	 H	4	GLU4	-0.043	
59	   N	1504.679	445.646	-1523.240	N.am	5	SER5	-0.416	
60	  CA	1505.548	446.817	-1523.182	C.3	5	SER5	-0.025	
61	   C	1506.907	446.512	-1523.768	C.2	5	SER5	0.597	
62	   O	1507.454	447.265	-1524.573	O.2	5	SER5	-0.568	
63	  CB	1505.660	447.349	-1521.731	C.3	5	SER5	0.212	
64	  OG	1506.392	446.470	-1520.870	O.3	5	SER5	-0.655	
65	   H	1504.262	445.274	-1522.399	 H	5	SER5	0.272	
66	  HA	1505.099	447.607	-1523.811	 H	5	SER5	0.084	
67	 2HB	1504.660	447.543	-1521.298	 H	5	SER5	0.035	
68	 3HB	1506.165	448.335	-1521.734	 H	5	SER5	0.035	
69	  HG	1505.903	445.645	-1520.820	 H	5	SER5	0.428	
70	   N	1507.512	445.428	-1523.414	N.am	6	ILE6	-0.416	
71	  CA	1508.825	445.134	-1523.980	C.3	6	ILE6	-0.060	
72	   C	1508.768	445.096	-1525.488	C.2	6	ILE6	0.597	
73	   O	1509.602	445.684	-1526.192	O.2	6	ILE6	-0.568	
74	  CB	1509.425	443.798	-1523.380	C.3	6	ILE6	0.130	
75	 CG1	1509.444	443.735	-1521.819	C.3	6	ILE6	-0.043	
76	 CG2	1510.866	443.496	-1523.896	C.3	6	ILE6	-0.320	
77	 CD1	1509.714	442.346	-1521.205	C.3	6	ILE6	-0.066	
78	   H	1507.083	444.794	-1522.755	 H	6	ILE6	0.272	
79	  HA	1509.499	445.968	-1523.712	 H	6	ILE6	0.087	
80	  HB	1508.767	442.972	-1523.724	 H	6	ILE6	0.019	
81	2HG1	1508.462	444.055	-1521.423	 H	6	ILE6	0.024	
82	3HG1	1510.160	444.477	-1521.415	 H	6	ILE6	0.024	
83	1HG2	1510.925	443.403	-1524.994	 H	6	ILE6	0.088	
84	2HG2	1511.588	444.278	-1523.594	 H	6	ILE6	0.088	
85	3HG2	1511.256	442.534	-1523.517	 H	6	ILE6	0.088	
86	1HD1	1508.986	441.592	-1521.559	 H	6	ILE6	0.019	
87	2HD1	1510.725	441.967	-1521.440	 H	6	ILE6	0.019	
88	3HD1	1509.638	442.376	-1520.102	 H	6	ILE6	0.019	
89	   N	1507.822	444.433	-1526.062	N.am	7	LEU7	-0.416	
90	  CA	1507.767	444.397	-1527.520	C.3	7	LEU7	-0.052	
91	   C	1507.694	445.793	-1528.092	C.2	7	LEU7	0.597	
92	   O	1508.415	446.156	-1529.034	O.2	7	LEU7	-0.568	
93	  CB	1506.564	443.537	-1528.000	C.3	7	LEU7	-0.110	
94	  CG	1506.491	442.057	-1527.534	C.3	7	LEU7	0.353	
95	 CD1	1505.301	441.352	-1528.200	C.3	7	LEU7	-0.412	
96	 CD2	1507.784	441.278	-1527.826	C.3	7	LEU7	-0.412	
97	   H	1507.130	443.946	-1525.510	 H	7	LEU7	0.272	
98	  HA	1508.708	443.957	-1527.895	 H	7	LEU7	0.092	
99	 2HB	1506.540	443.553	-1529.108	 H	7	LEU7	0.046	
100	 3HB	1505.624	444.040	-1527.696	 H	7	LEU7	0.046	
101	  HG	1506.321	442.049	-1526.437	 H	7	LEU7	-0.036	
102	1HD1	1504.344	441.861	-1527.977	 H	7	LEU7	0.100	
103	2HD1	1505.400	441.311	-1529.301	 H	7	LEU7	0.100	
104	3HD1	1505.194	440.310	-1527.844	 H	7	LEU7	0.100	
105	1HD2	1508.060	441.309	-1528.896	 H	7	LEU7	0.100	
106	2HD2	1508.638	441.690	-1527.255	 H	7	LEU7	0.100	
107	3HD2	1507.703	440.216	-1527.530	 H	7	LEU7	0.100	
108	   N	1506.857	446.633	-1527.586	N.am	8	ASP8	-0.516	
109	  CA	1506.786	447.983	-1528.139	C.3	8	ASP8	0.038	
110	   C	1508.133	448.663	-1528.081	C.2	8	ASP8	0.537	
111	   O	1508.606	449.268	-1529.056	O.2	8	ASP8	-0.582	
112	  CB	1505.708	448.822	-1527.397	C.3	8	ASP8	-0.030	
113	  CG	1505.489	450.242	-1527.937	C.2	8	ASP8	0.799	
114	 OD1	1505.553	450.442	-1529.167	O.co2	8	ASP8	-0.801	
115	 OD2	1505.297	451.168	-1527.121	O.co2	8	ASP8	-0.801	
116	   H	1506.259	446.362	-1526.818	 H	8	ASP8	0.294	
117	  HA	1506.503	447.905	-1529.206	 H	8	ASP8	0.088	
118	 2HB	1505.966	448.904	-1526.325	 H	8	ASP8	-0.012	
119	 3HB	1504.729	448.316	-1527.430	 H	8	ASP8	-0.012	
120	   N	1508.813	448.613	-1526.986	N.am	9	LYS9	-0.348	
121	  CA	1510.115	449.270	-1526.930	C.3	9	LYS9	-0.240	
122	   C	1511.034	448.743	-1528.006	C.2	9	LYS9	0.734	
123	   O	1511.698	449.498	-1528.732	O.2	9	LYS9	-0.589	
124	  CB	1510.736	449.068	-1525.521	C.3	9	LYS9	-0.009	
125	  CG	1512.091	449.795	-1525.335	C.3	9	LYS9	0.019	
126	  CD	1512.765	449.564	-1523.979	C.3	9	LYS9	-0.048	
127	  CE	1514.123	450.279	-1523.961	C.3	9	LYS9	-0.014	
128	  NZ	1514.696	450.207	-1522.606	N.4	9	LYS9	-0.385	
129	   H	1508.449	448.126	-1526.179	 H	9	LYS9	0.275	
130	  HA	1509.969	450.350	-1527.118	 H	9	LYS9	0.143	
131	 2HB	1510.860	447.983	-1525.320	 H	9	LYS9	0.036	
132	 3HB	1510.027	449.421	-1524.747	 H	9	LYS9	0.036	
133	 2HG	1511.958	450.880	-1525.510	 H	9	LYS9	0.010	
134	 3HG	1512.813	449.459	-1526.103	 H	9	LYS9	0.010	
135	 2HD	1512.903	448.477	-1523.808	 H	9	LYS9	0.062	
136	 3HD	1512.106	449.926	-1523.167	 H	9	LYS9	0.062	
137	 2HE	1514.020	451.342	-1524.264	 H	9	LYS9	0.113	
138	 3HE	1514.813	449.819	-1524.699	 H	9	LYS9	0.113	
139	 1HZ	1514.486	449.300	-1522.172	 H	9	LYS9	0.340	
140	 2HZ	1515.719	450.281	-1522.629	 H	9	LYS9	0.340	
141	 3HZ	1514.292	450.971	-1522.084	 H	9	LYS9	0.340	
142	   N	1511.131	447.468	-1528.176	N.am	10	HIS10	-0.416	
143	  CA	1512.020	446.957	-1529.217	C.3	10	HIS10	-0.058	
144	   C	1511.653	447.522	-1530.568	C.2	10	HIS10	0.597	
145	   O	1512.505	447.987	-1531.339	O.2	10	HIS10	-0.568	
146	  CB	1511.856	445.428	-1529.212	C.3	10	HIS10	-0.007	
147	  CG	1513.141	444.718	-1528.904	C.2	10	HIS10	0.187	
148	 CD2	1513.522	444.382	-1527.612	C.2	10	HIS10	-0.221	
149	 ND1	1514.094	444.312	-1529.837	N.2	10	HIS10	-0.543	
150	 CE1	1515.000	443.754	-1529.013	C.2	10	HIS10	0.163	
151	 NE2	1514.737	443.750	-1527.678	N.pl3	10	HIS10	-0.280	
152	   H	1510.600	446.832	-1527.598	 H	10	HIS10	0.272	
153	  HA	1513.038	447.314	-1528.991	 H	10	HIS10	0.136	
154	 2HB	1511.491	445.061	-1530.193	 H	10	HIS10	0.037	
155	 3HB	1511.100	445.090	-1528.473	 H	10	HIS10	0.037	
156	 2HD	1512.936	444.597	-1526.723	 H	10	HIS10	0.186	
157	 1HE	1515.891	443.333	-1529.460	 H	10	HIS10	0.144	
158	 2HE	1515.303	443.373	-1526.905	 H	10	HIS10	0.334	
159	   N	1510.415	447.521	-1530.931	N.am	11	VAL11	-0.416	
160	  CA	1510.060	448.067	-1532.238	C.3	11	VAL11	-0.087	
161	   C	1510.524	449.498	-1532.370	C.2	11	VAL11	0.597	
162	   O	1511.126	449.903	-1533.373	O.2	11	VAL11	-0.568	
163	  CB	1508.499	447.960	-1532.458	C.3	11	VAL11	0.299	
164	 CG1	1507.931	448.664	-1533.720	C.3	11	VAL11	-0.319	
165	 CG2	1507.975	446.506	-1532.531	C.3	11	VAL11	-0.319	
166	   H	1509.702	447.147	-1530.321	 H	11	VAL11	0.272	
167	  HA	1510.580	447.485	-1533.020	 H	11	VAL11	0.097	
168	  HB	1508.011	448.440	-1531.582	 H	11	VAL11	-0.030	
169	1HG1	1508.370	448.273	-1534.657	 H	11	VAL11	0.079	
170	2HG1	1506.832	448.557	-1533.803	 H	11	VAL11	0.079	
171	3HG1	1508.109	449.757	-1533.711	 H	11	VAL11	0.079	
172	1HG2	1508.265	445.918	-1531.641	 H	11	VAL11	0.079	
173	2HG2	1506.869	446.468	-1532.574	 H	11	VAL11	0.079	
174	3HG2	1508.357	445.965	-1533.418	 H	11	VAL11	0.079	
175	   N	1510.287	450.323	-1531.407	N.am	12	GLN12	-0.416	
176	  CA	1510.735	451.706	-1531.534	C.3	12	GLN12	-0.003	
177	   C	1512.225	451.774	-1531.772	C.2	12	GLN12	0.597	
178	   O	1512.712	452.483	-1532.650	O.2	12	GLN12	-0.568	
179	  CB	1510.344	452.474	-1530.251	C.3	12	GLN12	-0.004	
180	  CG	1510.704	453.995	-1530.220	C.3	12	GLN12	-0.064	
181	  CD	1510.401	454.809	-1528.955	C.2	12	GLN12	0.695	
182	 NE2	1509.833	454.232	-1527.926	N.pl3	12	GLN12	-0.941	
183	 OE1	1510.702	455.990	-1528.877	O.2	12	GLN12	-0.609	
184	   H	1509.798	450.017	-1530.578	 H	12	GLN12	0.272	
185	  HA	1510.236	452.163	-1532.409	 H	12	GLN12	0.085	
186	 2HB	1510.820	451.973	-1529.382	 H	12	GLN12	0.017	
187	 3HB	1509.253	452.366	-1530.089	 H	12	GLN12	0.017	
188	 2HG	1510.226	454.516	-1531.071	 H	12	GLN12	0.035	
189	 3HG	1511.787	454.138	-1530.385	 H	12	GLN12	0.035	
190	1HE2	1509.726	454.826	-1527.103	 H	12	GLN12	0.425	
191	2HE2	1509.670	453.228	-1528.030	 H	12	GLN12	0.425	
192	   N	1513.010	451.067	-1531.031	N.am	13	ARG13	-0.348	
193	  CA	1514.450	451.133	-1531.261	C.3	13	ARG13	-0.264	
194	   C	1514.787	450.762	-1532.686	C.2	13	ARG13	0.734	
195	   O	1515.555	451.434	-1533.370	O.2	13	ARG13	-0.589	
196	  CB	1515.163	450.194	-1530.247	C.3	13	ARG13	-0.001	
197	  CG	1516.708	450.348	-1530.165	C.3	13	ARG13	0.039	
198	  CD	1517.335	449.360	-1529.167	C.3	13	ARG13	0.049	
199	  NE	1518.812	449.567	-1529.116	N.pl3	13	ARG13	-0.530	
200	  CZ	1519.660	448.876	-1528.361	C.cat	13	ARG13	0.808	
201	 NH1	1519.294	447.911	-1527.564	N.pl3	13	ARG13	-0.863	
202	 NH2	1520.919	449.175	-1528.417	N.pl3	13	ARG13	-0.863	
203	   H	1512.633	450.477	-1530.302	 H	13	ARG13	0.275	
204	  HA	1514.774	452.179	-1531.102	 H	13	ARG13	0.156	
205	 2HB	1514.897	449.144	-1530.486	 H	13	ARG13	0.033	
206	 3HB	1514.737	450.361	-1529.236	 H	13	ARG13	0.033	
207	 2HG	1516.956	451.392	-1529.885	 H	13	ARG13	0.029	
208	 3HG	1517.159	450.192	-1531.167	 H	13	ARG13	0.029	
209	 2HD	1517.091	448.320	-1529.477	 H	13	ARG13	0.069	
210	 3HD	1516.878	449.505	-1528.165	 H	13	ARG13	0.069	
211	  HE	1519.263	450.290	-1529.687	 H	13	ARG13	0.346	
212	1HH1	1518.289	447.725	-1527.567	 H	13	ARG13	0.448	
213	2HH1	1520.007	447.428	-1527.015	 H	13	ARG13	0.448	
214	1HH2	1521.187	449.933	-1529.048	 H	13	ARG13	0.448	
215	2HH2	1521.554	448.634	-1527.828	 H	13	ARG13	0.448	
216	   N	1514.251	449.708	-1533.201	N.am	14	VAL14	-0.416	
217	  CA	1514.576	449.349	-1534.578	C.3	14	VAL14	-0.087	
218	   C	1514.246	450.479	-1535.524	C.2	14	VAL14	0.597	
219	   O	1515.040	450.860	-1536.393	O.2	14	VAL14	-0.568	
220	  CB	1513.804	448.032	-1534.986	C.3	14	VAL14	0.299	
221	 CG1	1513.894	447.613	-1536.479	C.3	14	VAL14	-0.319	
222	 CG2	1514.236	446.779	-1534.185	C.3	14	VAL14	-0.319	
223	   H	1513.616	449.139	-1532.659	 H	14	VAL14	0.272	
224	  HA	1515.665	449.172	-1534.653	 H	14	VAL14	0.097	
225	  HB	1512.728	448.203	-1534.770	 H	14	VAL14	-0.030	
226	1HG1	1514.936	447.436	-1536.808	 H	14	VAL14	0.079	
227	2HG1	1513.321	446.690	-1536.692	 H	14	VAL14	0.079	
228	3HG1	1513.465	448.376	-1537.157	 H	14	VAL14	0.079	
229	1HG2	1514.149	446.938	-1533.095	 H	14	VAL14	0.079	
230	2HG2	1513.601	445.903	-1534.418	 H	14	VAL14	0.079	
231	3HG2	1515.284	446.490	-1534.390	 H	14	VAL14	0.079	
232	   N	1513.102	451.064	-1535.422	N.am	15	MET15	-0.416	
233	  CA	1512.781	452.157	-1536.336	C.3	15	MET15	-0.024	
234	   C	1513.811	453.257	-1536.248	C.2	15	MET15	0.597	
235	   O	1514.314	453.768	-1537.260	O.2	15	MET15	-0.568	
236	  CB	1511.360	452.703	-1536.027	C.3	15	MET15	0.034	
237	  CG	1510.198	451.704	-1536.219	C.3	15	MET15	0.002	
238	  SD	1508.624	452.570	-1536.106	S.3	15	MET15	-0.274	
239	  CE	1507.543	451.140	-1535.970	C.3	15	MET15	-0.054	
240	   H	1512.437	450.771	-1534.721	 H	15	MET15	0.272	
241	  HA	1512.807	451.770	-1537.372	 H	15	MET15	0.088	
242	 2HB	1511.157	453.581	-1536.669	 H	15	MET15	0.024	
243	 3HB	1511.324	453.095	-1534.991	 H	15	MET15	0.024	
244	 2HG	1510.241	450.919	-1535.442	 H	15	MET15	0.044	
245	 3HG	1510.261	451.189	-1537.196	 H	15	MET15	0.044	
246	 1HE	1507.687	450.452	-1536.822	 H	15	MET15	0.068	
247	 2HE	1507.752	450.588	-1535.037	 H	15	MET15	0.068	
248	 3HE	1506.485	451.455	-1535.953	 H	15	MET15	0.068	
249	   N	1514.180	453.678	-1535.085	N.am	16	ARG16	-0.348	
250	  CA	1515.176	454.742	-1535.001	C.3	16	ARG16	-0.264	
251	   C	1516.447	454.349	-1535.717	C.2	16	ARG16	0.734	
252	   O	1516.561	453.273	-1536.298	O.2	16	ARG16	-0.589	
253	  CB	1515.444	455.059	-1533.502	C.3	16	ARG16	-0.001	
254	  CG	1516.269	456.348	-1533.229	C.3	16	ARG16	0.039	
255	  CD	1516.519	456.567	-1531.728	C.3	16	ARG16	0.049	
256	  NE	1517.295	457.826	-1531.526	N.pl3	16	ARG16	-0.530	
257	  CZ	1517.685	458.308	-1530.350	C.cat	16	ARG16	0.808	
258	 NH1	1517.437	457.724	-1529.212	N.pl3	16	ARG16	-0.863	
259	 NH2	1518.349	459.421	-1530.331	N.pl3	16	ARG16	-0.863	
260	   H	1513.785	453.278	-1534.246	 H	16	ARG16	0.275	
261	  HA	1514.767	455.635	-1535.511	 H	16	ARG16	0.156	
262	 2HB	1515.941	454.183	-1533.036	 H	16	ARG16	0.033	
263	 3HB	1514.475	455.140	-1532.969	 H	16	ARG16	0.033	
264	 2HG	1515.739	457.219	-1533.666	 H	16	ARG16	0.029	
265	 3HG	1517.243	456.296	-1533.758	 H	16	ARG16	0.029	
266	 2HD	1517.067	455.692	-1531.314	 H	16	ARG16	0.069	
267	 3HD	1515.546	456.610	-1531.193	 H	16	ARG16	0.069	
268	  HE	1517.573	458.408	-1532.323	 H	16	ARG16	0.346	
269	1HH1	1516.912	456.851	-1529.297	 H	16	ARG16	0.448	
270	2HH1	1517.771	458.159	-1528.350	 H	16	ARG16	0.448	
271	1HH2	1518.535	459.864	-1531.233	 H	16	ARG16	0.448	
272	2HH2	1518.639	459.776	-1529.418	 H	16	ARG16	0.448	
@<TRIPOS>BOND
1 1 2 1
2 1 10 1
3 2 3 1
4 2 5 1
5 2 11 1
6 3 4 2
7 3 16 1
8 5 6 1
9 6 7 1
10 7 8 2
11 7 9 1
12 5 12 1
13 5 13 1
14 6 14 1
15 6 15 1
16 16 17 1
17 16 24 1
18 17 18 1
19 17 20 1
20 17 25 1
21 18 19 2
22 18 30 1
23 20 21 1
24 21 22 1
25 21 23 2
26 20 26 1
27 20 27 1
28 22 28 1
29 22 29 1
30 30 31 1
31 30 36 1
32 31 32 1
33 31 34 1
34 31 37 1
35 32 33 2
36 32 44 1
37 34 35 1
38 35 36 1
39 34 38 1
40 34 39 1
41 35 40 1
42 35 41 1
43 36 42 1
44 36 43 1
45 44 45 1
46 44 53 1
47 45 46 1
48 45 48 1
49 45 54 1
50 46 47 2
51 46 59 1
52 48 49 1
53 49 50 1
54 50 51 2
55 50 52 1
56 48 55 1
57 48 56 1
58 49 57 1
59 49 58 1
60 59 60 1
61 59 65 1
62 60 61 1
63 60 63 1
64 60 66 1
65 61 62 2
66 61 70 1
67 63 64 1
68 63 67 1
69 63 68 1
70 64 69 1
71 70 71 1
72 70 78 1
73 71 72 1
74 71 74 1
75 71 79 1
76 72 73 2
77 72 89 1
78 74 75 1
79 74 76 1
80 75 77 1
81 74 80 1
82 75 81 1
83 75 82 1
84 76 83 1
85 76 84 1
86 76 85 1
87 77 86 1
88 77 87 1
89 77 88 1
90 89 90 1
91 89 97 1
92 90 91 1
93 90 93 1
94 90 98 1
95 91 92 2
96 91 108 1
97 93 94 1
98 94 95 1
99 94 96 1
100 93 99 1
101 93 100 1
102 94 101 1
103 95 102 1
104 95 103 1
105 95 104 1
106 96 105 1
107 96 106 1
108 96 107 1
109 108 109 1
110 108 116 1
111 109 110 1
112 109 112 1
113 109 117 1
114 110 111 2
115 110 120 1
116 112 113 1
117 113 114 2
118 113 115 1
119 112 118 1
120 112 119 1
121 120 121 1
122 120 129 1
123 121 122 1
124 121 124 1
125 121 130 1
126 122 123 2
127 122 142 1
128 124 125 1
129 125 126 1
130 126 127 1
131 127 128 1
132 128 141 1
133 124 131 1
134 124 132 1
135 125 133 1
136 125 134 1
137 126 135 1
138 126 136 1
139 127 137 1
140 127 138 1
141 128 139 1
142 128 140 1
143 142 143 1
144 142 152 1
145 143 144 1
146 143 146 1
147 143 153 1
148 144 145 2
149 144 159 1
150 146 147 1
151 147 148 2
152 148 151 1
153 147 149 1
154 149 150 2
155 150 151 1
156 146 154 1
157 146 155 1
158 148 156 1
159 150 157 1
160 151 158 1
161 159 160 1
162 159 166 1
163 160 161 1
164 160 163 1
165 160 167 1
166 161 162 2
167 161 175 1
168 163 164 1
169 163 165 1
170 163 168 1
171 164 169 1
172 164 170 1
173 164 171 1
174 165 172 1
175 165 173 1
176 165 174 1
177 175 176 1
178 175 184 1
179 176 177 1
180 176 179 1
181 176 185 1
182 177 178 2
183 177 192 1
184 179 180 1
185 180 181 1
186 181 182 1
187 181 183 2
188 179 186 1
189 179 187 1
190 180 188 1
191 180 189 1
192 182 190 1
193 182 191 1
194 192 193 1
195 192 203 1
196 193 194 1
197 193 196 1
198 193 204 1
199 194 195 2
200 194 216 1
201 196 197 1
202 197 198 1
203 198 199 1
204 199 200 1
205 200 201 2
206 200 202 1
207 196 205 1
208 196 206 1
209 197 207 1
210 197 208 1
211 198 209 1
212 198 210 1
213 199 211 1
214 201 212 1
215 201 213 1
216 202 214 1
217 202 215 1
218 216 217 1
219 216 223 1
220 217 218 1
221 217 220 1
222 217 224 1
223 218 219 2
224 218 232 1
225 220 221 1
226 220 222 1
227 220 225 1
228 221 226 1
229 221 227 1
230 221 228 1
231 222 229 1
232 222 230 1
233 222 231 1
234 232 233 1
235 232 240 1
236 233 234 1
237 233 236 1
238 233 241 1
239 234 235 2
240 234 249 1
241 236 237 1
242 237 238 1
243 238 239 1
244 236 242 1
245 236 243 1
246 237 244 1
247 237 245 1
248 239 246 1
249 239 247 1
250 239 248 1
251 249 250 1
252 249 260 1
253 250 251 1
254 250 253 1
255 250 261 1
256 251 252 2
257 253 254 1
258 254 255 1
259 255 256 1
260 256 257 1
261 257 258 2
262 257 259 1
263 253 262 1
264 253 263 1
265 254 264 1
266 254 265 1
267 255 266 1
268 255 267 1
269 256 268 1
270 258 269 1
271 258 270 1
272 259 271 1
273 259 272 1
@<TRIPOS>SUBSTRUCTURE
1	GLU1	1	RESIDUE	1 ****	GLU
2	ASN2	16	RESIDUE	1 ****	ASN
3	PRO3	30	RESIDUE	1 ****	PRO
4	GLU4	44	RESIDUE	1 ****	GLU
5	SER5	59	RESIDUE	1 ****	SER
6	ILE6	70	RESIDUE	1 ****	ILE
7	LEU7	89	RESIDUE	1 ****	LEU
8	ASP8	108	RESIDUE	1 ****	ASP
9	LYS9	120	RESIDUE	1 ****	LYS
10	HIS10	142	RESIDUE	1 ****	HIS
11	VAL11	159	RESIDUE	1 ****	VAL
12	GLN12	175	RESIDUE	1 ****	GLN
13	ARG13	192	RESIDUE	1 ****	ARG
14	VAL14	216	RESIDUE	1 ****	VAL
15	MET15	232	RESIDUE	1 ****	MET
16	ARG16	249	RESIDUE	1 ****	ARG
