@<TRIPOS>MOLECULE
8-18
268 269 16              
SMALL
USER_CHARGES
@<TRIPOS>ATOM
1	   N	1328.647	386.330	-1333.608	N.3	1	GLU1	-0.516	
2	  CA	1329.206	387.679	-1333.608	C.3	1	GLU1	0.040	
3	   C	1330.715	387.639	-1333.608	C.2	1	GLU1	0.537	
4	   O	1331.391	388.338	-1334.377	O.2	1	GLU1	-0.582	
5	  CB	1328.683	388.464	-1332.371	C.3	1	GLU1	0.056	
6	  CG	1329.158	389.949	-1332.260	C.3	1	GLU1	0.014	
7	  CD	1328.734	390.753	-1331.045	C.2	1	GLU1	0.805	
8	 OE1	1328.006	390.251	-1330.167	O.co2	1	GLU1	-0.819	
9	 OE2	1329.164	391.923	-1330.973	O.co2	1	GLU1	-0.819	
10	   H	1329.274	385.451	-1333.608	 H	1	GLU1	0.294	
11	  HA	1328.880	388.197	-1334.528	 H	1	GLU1	0.111	
12	 2HB	1328.972	387.933	-1331.441	 H	1	GLU1	-0.017	
13	 3HB	1327.576	388.454	-1332.358	 H	1	GLU1	-0.017	
14	 2HG	1328.848	390.534	-1333.141	 H	1	GLU1	-0.043	
15	 3HG	1330.258	390.016	-1332.231	 H	1	GLU1	-0.043	
16	   N	1331.320	386.853	-1332.783	N.am	2	ASN2	-0.416	
17	  CA	1332.779	386.814	-1332.783	C.3	2	ASN2	0.014	
18	   C	1333.310	386.459	-1334.152	C.2	2	ASN2	0.597	
19	   O	1334.225	387.089	-1334.681	O.2	2	ASN2	-0.568	
20	  CB	1333.271	385.791	-1331.719	C.3	2	ASN2	-0.204	
21	  CG	1332.808	386.015	-1330.276	C.2	2	ASN2	0.713	
22	 ND2	1333.402	386.930	-1329.557	N.pl3	2	ASN2	-0.919	
23	 OD1	1331.887	385.381	-1329.781	O.2	2	ASN2	-0.593	
24	   H	1330.792	386.273	-1332.147	 H	2	ASN2	0.272	
25	  HA	1333.156	387.824	-1332.538	 H	2	ASN2	0.105	
26	 2HB	1334.376	385.732	-1331.723	 H	2	ASN2	0.080	
27	 3HB	1332.942	384.773	-1332.005	 H	2	ASN2	0.080	
28	1HD2	1332.922	387.103	-1328.671	 H	2	ASN2	0.420	
29	2HD2	1334.104	387.502	-1330.027	 H	2	ASN2	0.420	
30	   N	1332.789	385.464	-1334.786	N.am	3	PRO3	-0.255	
31	  CA	1333.240	385.054	-1336.108	C.3	3	PRO3	-0.027	
32	   C	1332.842	386.078	-1337.184	C.2	3	PRO3	0.590	
33	   O	1333.666	386.461	-1338.016	O.2	3	PRO3	-0.575	
34	  CB	1332.536	383.699	-1336.277	C.3	3	PRO3	-0.007	
35	  CG	1331.253	383.852	-1335.447	C.3	3	PRO3	0.019	
36	  CD	1331.711	384.670	-1334.237	C.3	3	PRO3	0.019	
37	  HA	1334.326	384.934	-1336.121	 H	3	PRO3	0.064	
38	 2HB	1333.159	382.918	-1335.836	 H	3	PRO3	0.025	
39	 3HB	1332.338	383.451	-1337.322	 H	3	PRO3	0.025	
40	 2HG	1330.826	382.889	-1335.156	 H	3	PRO3	0.021	
41	 3HG	1330.516	384.423	-1336.014	 H	3	PRO3	0.021	
42	 2HD	1332.100	384.021	-1333.449	 H	3	PRO3	0.039	
43	 3HD	1330.914	385.306	-1333.844	 H	3	PRO3	0.039	
44	   N	1331.638	386.538	-1337.217	N.am	4	GLU4	-0.516	
45	  CA	1331.278	387.509	-1338.246	C.3	4	GLU4	0.040	
46	   C	1332.177	388.720	-1338.185	C.2	4	GLU4	0.537	
47	   O	1332.703	389.200	-1339.200	O.2	4	GLU4	-0.582	
48	  CB	1329.789	387.927	-1338.076	C.3	4	GLU4	0.056	
49	  CG	1329.241	388.931	-1339.141	C.3	4	GLU4	0.014	
50	  CD	1327.814	389.428	-1338.997	C.2	4	GLU4	0.805	
51	 OE1	1327.088	389.029	-1338.066	O.co2	4	GLU4	-0.819	
52	 OE2	1327.425	390.257	-1339.846	O.co2	4	GLU4	-0.819	
53	   H	1330.953	386.231	-1336.540	 H	4	GLU4	0.294	
54	  HA	1331.409	387.038	-1339.237	 H	4	GLU4	0.111	
55	 2HB	1329.637	388.367	-1337.069	 H	4	GLU4	-0.017	
56	 3HB	1329.141	387.030	-1338.082	 H	4	GLU4	-0.017	
57	 2HG	1329.322	388.516	-1340.159	 H	4	GLU4	-0.043	
58	 3HG	1329.829	389.863	-1339.152	 H	4	GLU4	-0.043	
59	   N	1332.404	389.273	-1337.042	N.am	5	SER5	-0.416	
60	  CA	1333.274	390.444	-1336.984	C.3	5	SER5	-0.025	
61	   C	1334.632	390.139	-1337.569	C.2	5	SER5	0.597	
62	   O	1335.179	390.892	-1338.374	O.2	5	SER5	-0.568	
63	  CB	1333.385	390.976	-1335.533	C.3	5	SER5	0.212	
64	  OG	1334.117	390.097	-1334.672	O.3	5	SER5	-0.655	
65	   H	1331.987	388.901	-1336.200	 H	5	SER5	0.272	
66	  HA	1332.824	391.234	-1337.612	 H	5	SER5	0.084	
67	 2HB	1332.385	391.170	-1335.099	 H	5	SER5	0.035	
68	 3HB	1333.891	391.962	-1335.535	 H	5	SER5	0.035	
69	  HG	1333.628	389.272	-1334.621	 H	5	SER5	0.428	
70	   N	1335.237	389.056	-1337.215	N.am	6	ILE6	-0.416	
71	  CA	1336.550	388.761	-1337.782	C.3	6	ILE6	-0.060	
72	   C	1336.493	388.724	-1339.290	C.2	6	ILE6	0.597	
73	   O	1337.328	389.311	-1339.994	O.2	6	ILE6	-0.568	
74	  CB	1337.150	387.425	-1337.182	C.3	6	ILE6	0.130	
75	 CG1	1337.170	387.362	-1335.621	C.3	6	ILE6	-0.043	
76	 CG2	1338.591	387.123	-1337.697	C.3	6	ILE6	-0.320	
77	 CD1	1337.440	385.973	-1335.006	C.3	6	ILE6	-0.066	
78	   H	1334.809	388.421	-1336.556	 H	6	ILE6	0.272	
79	  HA	1337.224	389.595	-1337.514	 H	6	ILE6	0.087	
80	  HB	1336.492	386.599	-1337.526	 H	6	ILE6	0.019	
81	2HG1	1336.188	387.682	-1335.225	 H	6	ILE6	0.024	
82	3HG1	1337.885	388.104	-1335.216	 H	6	ILE6	0.024	
83	1HG2	1338.650	387.030	-1338.796	 H	6	ILE6	0.088	
84	2HG2	1339.313	387.905	-1337.395	 H	6	ILE6	0.088	
85	3HG2	1338.982	386.161	-1337.319	 H	6	ILE6	0.088	
86	1HD1	1336.712	385.219	-1335.361	 H	6	ILE6	0.019	
87	2HD1	1338.450	385.594	-1335.242	 H	6	ILE6	0.019	
88	3HD1	1337.364	386.003	-1333.904	 H	6	ILE6	0.019	
89	   N	1335.547	388.060	-1339.863	N.am	7	LEU7	-0.416	
90	  CA	1335.492	388.024	-1341.322	C.3	7	LEU7	-0.052	
91	   C	1335.419	389.420	-1341.894	C.2	7	LEU7	0.597	
92	   O	1336.140	389.783	-1342.836	O.2	7	LEU7	-0.568	
93	  CB	1334.289	387.164	-1341.802	C.3	7	LEU7	-0.110	
94	  CG	1334.216	385.685	-1341.336	C.3	7	LEU7	0.353	
95	 CD1	1333.026	384.979	-1342.001	C.3	7	LEU7	-0.412	
96	 CD2	1335.510	384.905	-1341.628	C.3	7	LEU7	-0.412	
97	   H	1334.855	387.573	-1339.312	 H	7	LEU7	0.272	
98	  HA	1336.434	387.584	-1341.696	 H	7	LEU7	0.092	
99	 2HB	1334.266	387.180	-1342.910	 H	7	LEU7	0.046	
100	 3HB	1333.349	387.667	-1341.498	 H	7	LEU7	0.046	
101	  HG	1334.047	385.676	-1340.239	 H	7	LEU7	-0.036	
102	1HD1	1332.069	385.488	-1341.779	 H	7	LEU7	0.100	
103	2HD1	1333.125	384.939	-1343.103	 H	7	LEU7	0.100	
104	3HD1	1332.920	383.938	-1341.646	 H	7	LEU7	0.100	
105	1HD2	1335.785	384.936	-1342.698	 H	7	LEU7	0.100	
106	2HD2	1336.363	385.317	-1341.056	 H	7	LEU7	0.100	
107	3HD2	1335.428	383.843	-1341.332	 H	7	LEU7	0.100	
108	   N	1334.582	390.260	-1341.387	N.am	8	GLU8	-0.516	
109	  CA	1334.512	391.610	-1341.940	C.3	8	GLU8	0.040	
110	   C	1335.859	392.289	-1341.882	C.2	8	GLU8	0.537	
111	   O	1336.332	392.894	-1342.855	O.2	8	GLU8	-0.582	
112	  CB	1333.450	392.441	-1341.163	C.3	8	GLU8	0.056	
113	  CG	1333.225	393.900	-1341.675	C.3	8	GLU8	0.014	
114	  CD	1332.248	394.785	-1340.924	C.2	8	GLU8	0.805	
115	 OE1	1331.622	394.354	-1339.936	O.co2	8	GLU8	-0.819	
116	 OE2	1332.122	395.956	-1341.340	O.co2	8	GLU8	-0.819	
117	   H	1333.984	389.989	-1340.620	 H	8	GLU8	0.294	
118	  HA	1334.211	391.542	-1343.001	 H	8	GLU8	0.111	
119	 2HB	1333.722	392.484	-1340.089	 H	8	GLU8	-0.017	
120	 3HB	1332.476	391.916	-1341.177	 H	8	GLU8	-0.017	
121	 2HG	1332.901	393.908	-1342.729	 H	8	GLU8	-0.043	
122	 3HG	1334.160	394.483	-1341.647	 H	8	GLU8	-0.043	
123	   N	1336.538	392.238	-1340.787	N.am	9	GLU9	-0.516	
124	  CA	1337.841	392.895	-1340.731	C.3	9	GLU9	0.040	
125	   C	1338.759	392.367	-1341.806	C.2	9	GLU9	0.537	
126	   O	1339.424	393.122	-1342.531	O.2	9	GLU9	-0.582	
127	  CB	1338.474	392.686	-1339.325	C.3	9	GLU9	0.056	
128	  CG	1339.857	393.377	-1339.095	C.3	9	GLU9	0.014	
129	  CD	1340.558	393.163	-1337.766	C.2	9	GLU9	0.805	
130	 OE1	1340.036	392.472	-1336.871	O.co2	9	GLU9	-0.819	
131	 OE2	1341.677	393.700	-1337.634	O.co2	9	GLU9	-0.819	
132	   H	1336.174	391.751	-1339.980	 H	9	GLU9	0.294	
133	  HA	1337.699	393.977	-1340.905	 H	9	GLU9	0.111	
134	 2HB	1338.586	391.601	-1339.122	 H	9	GLU9	-0.017	
135	 3HB	1337.777	393.039	-1338.541	 H	9	GLU9	-0.017	
136	 2HG	1339.785	394.468	-1339.234	 H	9	GLU9	-0.043	
137	 3HG	1340.603	393.033	-1339.829	 H	9	GLU9	-0.043	
138	   N	1338.855	391.092	-1341.977	N.am	10	HIS10	-0.416	
139	  CA	1339.744	390.581	-1343.017	C.3	10	HIS10	-0.058	
140	   C	1339.378	391.147	-1344.368	C.2	10	HIS10	0.597	
141	   O	1340.230	391.613	-1345.139	O.2	10	HIS10	-0.568	
142	  CB	1339.580	389.053	-1343.014	C.3	10	HIS10	-0.007	
143	  CG	1340.865	388.342	-1342.706	C.2	10	HIS10	0.187	
144	 CD2	1341.245	388.006	-1341.413	C.2	10	HIS10	-0.221	
145	 ND1	1341.818	387.937	-1343.638	N.2	10	HIS10	-0.543	
146	 CE1	1342.723	387.378	-1342.815	C.2	10	HIS10	0.163	
147	 NE2	1342.460	387.374	-1341.480	N.pl3	10	HIS10	-0.280	
148	   H	1338.324	390.456	-1341.399	 H	10	HIS10	0.272	
149	  HA	1340.763	390.938	-1342.791	 H	10	HIS10	0.136	
150	 2HB	1339.215	388.687	-1343.994	 H	10	HIS10	0.037	
151	 3HB	1338.823	388.715	-1342.275	 H	10	HIS10	0.037	
152	 2HD	1340.659	388.220	-1340.524	 H	10	HIS10	0.186	
153	 1HE	1343.615	386.957	-1343.262	 H	10	HIS10	0.144	
154	 2HE	1343.026	386.996	-1340.707	 H	10	HIS10	0.334	
155	   N	1338.140	391.147	-1344.731	N.am	11	VAL11	-0.416	
156	  CA	1337.785	391.694	-1346.038	C.3	11	VAL11	-0.087	
157	   C	1338.250	393.125	-1346.169	C.2	11	VAL11	0.597	
158	   O	1338.851	393.531	-1347.171	O.2	11	VAL11	-0.568	
159	  CB	1336.224	391.588	-1346.258	C.3	11	VAL11	0.299	
160	 CG1	1335.656	392.293	-1347.520	C.3	11	VAL11	-0.319	
161	 CG2	1335.700	390.134	-1346.333	C.3	11	VAL11	-0.319	
162	   H	1337.427	390.774	-1344.121	 H	11	VAL11	0.272	
163	  HA	1338.305	391.112	-1346.821	 H	11	VAL11	0.097	
164	  HB	1335.736	392.067	-1345.382	 H	11	VAL11	-0.030	
165	1HG1	1336.095	391.902	-1348.458	 H	11	VAL11	0.079	
166	2HG1	1334.557	392.186	-1347.603	 H	11	VAL11	0.079	
167	3HG1	1335.834	393.385	-1347.510	 H	11	VAL11	0.079	
168	1HG2	1335.989	389.546	-1345.442	 H	11	VAL11	0.079	
169	2HG2	1334.594	390.097	-1346.376	 H	11	VAL11	0.079	
170	3HG2	1336.082	389.594	-1347.219	 H	11	VAL11	0.079	
171	   N	1338.012	393.949	-1345.206	N.am	12	GLN12	-0.416	
172	  CA	1338.461	395.333	-1345.331	C.3	12	GLN12	-0.003	
173	   C	1339.951	395.400	-1345.568	C.2	12	GLN12	0.597	
174	   O	1340.438	396.110	-1346.446	O.2	12	GLN12	-0.568	
175	  CB	1338.069	396.099	-1344.047	C.3	12	GLN12	-0.004	
176	  CG	1338.430	397.620	-1344.015	C.3	12	GLN12	-0.064	
177	  CD	1338.127	398.432	-1342.749	C.2	12	GLN12	0.695	
178	 NE2	1337.559	397.855	-1341.721	N.pl3	12	GLN12	-0.941	
179	 OE1	1338.428	399.613	-1342.670	O.2	12	GLN12	-0.609	
180	   H	1337.523	393.643	-1344.377	 H	12	GLN12	0.272	
181	  HA	1337.962	395.790	-1346.206	 H	12	GLN12	0.085	
182	 2HB	1338.545	395.597	-1343.179	 H	12	GLN12	0.017	
183	 3HB	1336.979	395.991	-1343.885	 H	12	GLN12	0.017	
184	 2HG	1337.952	398.142	-1344.865	 H	12	GLN12	0.035	
185	 3HG	1339.513	397.763	-1344.180	 H	12	GLN12	0.035	
186	1HE2	1337.452	398.448	-1340.897	 H	12	GLN12	0.425	
187	2HE2	1337.396	396.851	-1341.826	 H	12	GLN12	0.425	
188	   N	1340.735	394.693	-1344.828	N.am	13	ARG13	-0.348	
189	  CA	1342.175	394.759	-1345.058	C.3	13	ARG13	-0.264	
190	   C	1342.512	394.389	-1346.483	C.2	13	ARG13	0.734	
191	   O	1343.281	395.061	-1347.166	O.2	13	ARG13	-0.589	
192	  CB	1342.888	393.819	-1344.044	C.3	13	ARG13	-0.001	
193	  CG	1344.433	393.972	-1343.963	C.3	13	ARG13	0.039	
194	  CD	1345.060	392.983	-1342.966	C.3	13	ARG13	0.049	
195	  NE	1346.537	393.190	-1342.914	N.pl3	13	ARG13	-0.530	
196	  CZ	1347.385	392.498	-1342.159	C.cat	13	ARG13	0.808	
197	 NH1	1347.019	391.533	-1341.363	N.pl3	13	ARG13	-0.863	
198	 NH2	1348.644	392.797	-1342.215	N.pl3	13	ARG13	-0.863	
199	   H	1340.359	394.102	-1344.100	 H	13	ARG13	0.275	
200	  HA	1342.500	395.805	-1344.898	 H	13	ARG13	0.156	
201	 2HB	1342.622	392.769	-1344.285	 H	13	ARG13	0.033	
202	 3HB	1342.463	393.984	-1343.034	 H	13	ARG13	0.033	
203	 2HG	1344.681	395.016	-1343.682	 H	13	ARG13	0.029	
204	 3HG	1344.884	393.817	-1344.964	 H	13	ARG13	0.029	
205	 2HD	1344.816	391.944	-1343.276	 H	13	ARG13	0.069	
206	 3HD	1344.603	393.128	-1341.963	 H	13	ARG13	0.069	
207	  HE	1346.988	393.913	-1343.484	 H	13	ARG13	0.346	
208	1HH1	1346.014	391.347	-1341.367	 H	13	ARG13	0.448	
209	2HH1	1347.732	391.049	-1340.815	 H	13	ARG13	0.448	
210	1HH2	1348.912	393.556	-1342.845	 H	13	ARG13	0.448	
211	2HH2	1349.279	392.255	-1341.627	 H	13	ARG13	0.448	
212	   N	1341.976	393.335	-1346.998	N.am	14	VAL14	-0.416	
213	  CA	1342.302	392.977	-1348.376	C.3	14	VAL14	-0.087	
214	   C	1341.972	394.108	-1349.321	C.2	14	VAL14	0.597	
215	   O	1342.766	394.490	-1350.190	O.2	14	VAL14	-0.568	
216	  CB	1341.530	391.660	-1348.784	C.3	14	VAL14	0.299	
217	 CG1	1341.619	391.243	-1350.278	C.3	14	VAL14	-0.319	
218	 CG2	1341.961	390.407	-1347.985	C.3	14	VAL14	-0.319	
219	   H	1341.341	392.766	-1346.457	 H	14	VAL14	0.272	
220	  HA	1343.390	392.800	-1348.450	 H	14	VAL14	0.097	
221	  HB	1340.453	391.831	-1348.569	 H	14	VAL14	-0.030	
222	1HG1	1342.661	391.067	-1350.607	 H	14	VAL14	0.079	
223	2HG1	1341.047	390.320	-1350.492	 H	14	VAL14	0.079	
224	3HG1	1341.191	392.006	-1350.956	 H	14	VAL14	0.079	
225	1HG2	1341.874	390.565	-1346.894	 H	14	VAL14	0.079	
226	2HG2	1341.326	389.531	-1348.218	 H	14	VAL14	0.079	
227	3HG2	1343.009	390.118	-1348.191	 H	14	VAL14	0.079	
228	   N	1340.827	394.694	-1349.219	N.am	15	MET15	-0.416	
229	  CA	1340.507	395.787	-1350.132	C.3	15	MET15	-0.024	
230	   C	1341.537	396.887	-1350.043	C.2	15	MET15	0.597	
231	   O	1342.040	397.399	-1351.054	O.2	15	MET15	-0.568	
232	  CB	1339.086	396.333	-1349.823	C.3	15	MET15	0.034	
233	  CG	1337.924	395.335	-1350.016	C.3	15	MET15	0.002	
234	  SD	1336.350	396.201	-1349.901	S.3	15	MET15	-0.274	
235	  CE	1335.268	394.771	-1349.766	C.3	15	MET15	-0.054	
236	   H	1340.162	394.400	-1348.518	 H	15	MET15	0.272	
237	  HA	1340.533	395.401	-1351.168	 H	15	MET15	0.088	
238	 2HB	1338.884	397.212	-1350.464	 H	15	MET15	0.024	
239	 3HB	1339.050	396.724	-1348.786	 H	15	MET15	0.024	
240	 2HG	1337.966	394.548	-1349.239	 H	15	MET15	0.044	
241	 3HG	1337.987	394.820	-1350.992	 H	15	MET15	0.044	
242	 1HE	1335.412	394.083	-1350.619	 H	15	MET15	0.068	
243	 2HE	1335.477	394.217	-1348.834	 H	15	MET15	0.068	
244	 3HE	1334.211	395.086	-1349.750	 H	15	MET15	0.068	
245	   N	1341.906	397.307	-1348.880	N.am	16	ARG16	-0.348	
246	  CA	1342.902	398.370	-1348.795	C.3	16	ARG16	-0.264	
247	   C	1344.173	397.978	-1349.511	C.2	16	ARG16	0.734	
248	   O	1344.287	396.903	-1350.094	O.2	16	ARG16	-0.589	
249	  CB	1343.171	398.687	-1347.296	C.3	16	ARG16	-0.001	
250	  CG	1343.996	399.975	-1347.021	C.3	16	ARG16	0.039	
251	  CD	1344.245	400.193	-1345.520	C.3	16	ARG16	0.049	
252	  NE	1345.021	401.452	-1345.317	N.pl3	16	ARG16	-0.530	
253	  CZ	1345.412	401.932	-1344.141	C.cat	16	ARG16	0.808	
254	 NH1	1345.164	401.347	-1343.003	N.pl3	16	ARG16	-0.863	
255	 NH2	1346.076	403.045	-1344.121	N.pl3	16	ARG16	-0.863	
256	   H	1341.511	396.906	-1348.041	 H	16	ARG16	0.275	
257	  HA	1342.493	399.264	-1349.304	 H	16	ARG16	0.156	
258	 2HB	1343.668	397.810	-1346.830	 H	16	ARG16	0.033	
259	 3HB	1342.202	398.767	-1346.762	 H	16	ARG16	0.033	
260	 2HG	1343.466	400.847	-1347.458	 H	16	ARG16	0.029	
261	 3HG	1344.970	399.923	-1347.550	 H	16	ARG16	0.029	
262	 2HD	1344.794	399.318	-1345.107	 H	16	ARG16	0.069	
263	 3HD	1343.272	400.235	-1344.985	 H	16	ARG16	0.069	
264	  HE	1345.300	402.034	-1346.114	 H	16	ARG16	0.346	
265	1HH1	1344.639	400.474	-1343.089	 H	16	ARG16	0.448	
266	2HH1	1345.499	401.781	-1342.141	 H	16	ARG16	0.448	
267	1HH2	1346.262	403.489	-1345.022	 H	16	ARG16	0.448	
268	2HH2	1346.366	403.399	-1343.208	 H	16	ARG16	0.448	
@<TRIPOS>BOND
1 1 2 1
2 1 10 1
3 2 3 1
4 2 5 1
5 2 11 1
6 3 4 2
7 3 16 1
8 5 6 1
9 6 7 1
10 7 8 2
11 7 9 1
12 5 12 1
13 5 13 1
14 6 14 1
15 6 15 1
16 16 17 1
17 16 24 1
18 17 18 1
19 17 20 1
20 17 25 1
21 18 19 2
22 18 30 1
23 20 21 1
24 21 22 1
25 21 23 2
26 20 26 1
27 20 27 1
28 22 28 1
29 22 29 1
30 30 31 1
31 30 36 1
32 31 32 1
33 31 34 1
34 31 37 1
35 32 33 2
36 32 44 1
37 34 35 1
38 35 36 1
39 34 38 1
40 34 39 1
41 35 40 1
42 35 41 1
43 36 42 1
44 36 43 1
45 44 45 1
46 44 53 1
47 45 46 1
48 45 48 1
49 45 54 1
50 46 47 2
51 46 59 1
52 48 49 1
53 49 50 1
54 50 51 2
55 50 52 1
56 48 55 1
57 48 56 1
58 49 57 1
59 49 58 1
60 59 60 1
61 59 65 1
62 60 61 1
63 60 63 1
64 60 66 1
65 61 62 2
66 61 70 1
67 63 64 1
68 63 67 1
69 63 68 1
70 64 69 1
71 70 71 1
72 70 78 1
73 71 72 1
74 71 74 1
75 71 79 1
76 72 73 2
77 72 89 1
78 74 75 1
79 74 76 1
80 75 77 1
81 74 80 1
82 75 81 1
83 75 82 1
84 76 83 1
85 76 84 1
86 76 85 1
87 77 86 1
88 77 87 1
89 77 88 1
90 89 90 1
91 89 97 1
92 90 91 1
93 90 93 1
94 90 98 1
95 91 92 2
96 91 108 1
97 93 94 1
98 94 95 1
99 94 96 1
100 93 99 1
101 93 100 1
102 94 101 1
103 95 102 1
104 95 103 1
105 95 104 1
106 96 105 1
107 96 106 1
108 96 107 1
109 108 109 1
110 108 117 1
111 109 110 1
112 109 112 1
113 109 118 1
114 110 111 2
115 110 123 1
116 112 113 1
117 113 114 1
118 114 115 2
119 114 116 1
120 112 119 1
121 112 120 1
122 113 121 1
123 113 122 1
124 123 124 1
125 123 132 1
126 124 125 1
127 124 127 1
128 124 133 1
129 125 126 2
130 125 138 1
131 127 128 1
132 128 129 1
133 129 130 2
134 129 131 1
135 127 134 1
136 127 135 1
137 128 136 1
138 128 137 1
139 138 139 1
140 138 148 1
141 139 140 1
142 139 142 1
143 139 149 1
144 140 141 2
145 140 155 1
146 142 143 1
147 143 144 2
148 144 147 1
149 143 145 1
150 145 146 2
151 146 147 1
152 142 150 1
153 142 151 1
154 144 152 1
155 146 153 1
156 147 154 1
157 155 156 1
158 155 162 1
159 156 157 1
160 156 159 1
161 156 163 1
162 157 158 2
163 157 171 1
164 159 160 1
165 159 161 1
166 159 164 1
167 160 165 1
168 160 166 1
169 160 167 1
170 161 168 1
171 161 169 1
172 161 170 1
173 171 172 1
174 171 180 1
175 172 173 1
176 172 175 1
177 172 181 1
178 173 174 2
179 173 188 1
180 175 176 1
181 176 177 1
182 177 178 1
183 177 179 2
184 175 182 1
185 175 183 1
186 176 184 1
187 176 185 1
188 178 186 1
189 178 187 1
190 188 189 1
191 188 199 1
192 189 190 1
193 189 192 1
194 189 200 1
195 190 191 2
196 190 212 1
197 192 193 1
198 193 194 1
199 194 195 1
200 195 196 1
201 196 197 2
202 196 198 1
203 192 201 1
204 192 202 1
205 193 203 1
206 193 204 1
207 194 205 1
208 194 206 1
209 195 207 1
210 197 208 1
211 197 209 1
212 198 210 1
213 198 211 1
214 212 213 1
215 212 219 1
216 213 214 1
217 213 216 1
218 213 220 1
219 214 215 2
220 214 228 1
221 216 217 1
222 216 218 1
223 216 221 1
224 217 222 1
225 217 223 1
226 217 224 1
227 218 225 1
228 218 226 1
229 218 227 1
230 228 229 1
231 228 236 1
232 229 230 1
233 229 232 1
234 229 237 1
235 230 231 2
236 230 245 1
237 232 233 1
238 233 234 1
239 234 235 1
240 232 238 1
241 232 239 1
242 233 240 1
243 233 241 1
244 235 242 1
245 235 243 1
246 235 244 1
247 245 246 1
248 245 256 1
249 246 247 1
250 246 249 1
251 246 257 1
252 247 248 2
253 249 250 1
254 250 251 1
255 251 252 1
256 252 253 1
257 253 254 2
258 253 255 1
259 249 258 1
260 249 259 1
261 250 260 1
262 250 261 1
263 251 262 1
264 251 263 1
265 252 264 1
266 254 265 1
267 254 266 1
268 255 267 1
269 255 268 1
@<TRIPOS>SUBSTRUCTURE
1	GLU1	1	RESIDUE	1 ****	GLU
2	ASN2	16	RESIDUE	1 ****	ASN
3	PRO3	30	RESIDUE	1 ****	PRO
4	GLU4	44	RESIDUE	1 ****	GLU
5	SER5	59	RESIDUE	1 ****	SER
6	ILE6	70	RESIDUE	1 ****	ILE
7	LEU7	89	RESIDUE	1 ****	LEU
8	GLU8	108	RESIDUE	1 ****	GLU
9	GLU9	123	RESIDUE	1 ****	GLU
10	HIS10	138	RESIDUE	1 ****	HIS
11	VAL11	155	RESIDUE	1 ****	VAL
12	GLN12	171	RESIDUE	1 ****	GLN
13	ARG13	188	RESIDUE	1 ****	ARG
14	VAL14	212	RESIDUE	1 ****	VAL
15	MET15	228	RESIDUE	1 ****	MET
16	ARG16	245	RESIDUE	1 ****	ARG
