REMARK WARNING: 32 MAX_TORS EXCEEDED!!!
REMARK  69 active torsions:
REMARK  status: ('A' for Active; 'I' for Inactive)
REMARK    1  A    between atoms: N_1  and  CA_2 
REMARK    2  A    between atoms: CA_2  and  C_3 
REMARK    3  A    between atoms: CA_2  and  CB_5 
REMARK       I    between atoms: C_3  and  N_11 
REMARK    4  A    between atoms: CB_5  and  CG_6 
REMARK    5  A    between atoms: CG_6  and  CD_7 
REMARK    6  A    between atoms: N_11  and  CA_12 
REMARK    7  A    between atoms: CA_12  and  C_13 
REMARK    8  A    between atoms: CA_12  and  CB_15 
REMARK       I    between atoms: C_13  and  N_22 
REMARK    9  A    between atoms: CB_15  and  CG_16 
REMARK       I    between atoms: CG_16  and  ND2_17 
REMARK   10  A    between atoms: CA_23  and  C_24 
REMARK       I    between atoms: C_24  and  N_29 
REMARK   11  A    between atoms: N_29  and  CA_30 
REMARK   12  A    between atoms: CA_30  and  C_31 
REMARK   13  A    between atoms: CA_30  and  CB_33 
REMARK       I    between atoms: C_31  and  N_39 
REMARK   14  A    between atoms: CB_33  and  CG_34 
REMARK   15  A    between atoms: CG_34  and  CD_35 
REMARK   16  A    between atoms: N_39  and  CA_40 
REMARK   17  A    between atoms: CA_40  and  C_41 
REMARK   18  A    between atoms: CA_40  and  CB_43 
REMARK       I    between atoms: C_41  and  N_47 
REMARK   19  A    between atoms: CB_43  and  OG_44 
REMARK   20  A    between atoms: N_47  and  CA_48 
REMARK   21  A    between atoms: CA_48  and  C_49 
REMARK   22  A    between atoms: CA_48  and  CB_51 
REMARK       I    between atoms: C_49  and  N_56 
REMARK   23  A    between atoms: CB_51  and  CG1_52 
REMARK   24  A    between atoms: N_56  and  CA_57 
REMARK   25  A    between atoms: CA_57  and  C_58 
REMARK   26  A    between atoms: CA_57  and  CB_60 
REMARK       I    between atoms: C_58  and  N_65 
REMARK   27  A    between atoms: CB_60  and  CG_61 
REMARK   28  A    between atoms: N_65  and  CA_66 
REMARK   29  A    between atoms: CA_66  and  C_67 
REMARK   30  A    between atoms: CA_66  and  CB_69 
REMARK       I    between atoms: C_67  and  N_74 
REMARK   31  A    between atoms: CB_69  and  CG_70 
REMARK   32  A    between atoms: N_74  and  CA_75 
REMARK   33  A    between atoms: CA_75  and  C_76 
REMARK   34  A    between atoms: CA_75  and  CB_78 
REMARK       I    between atoms: C_76  and  N_84 
REMARK   35  A    between atoms: CB_78  and  CG_79 
REMARK   36  A    between atoms: CG_79  and  CD_80 
REMARK   37  A    between atoms: N_84  and  CA_85 
REMARK   38  A    between atoms: CA_85  and  C_86 
REMARK   39  A    between atoms: CA_85  and  CB_88 
REMARK       I    between atoms: C_86  and  N_96 
REMARK   40  A    between atoms: CB_88  and  CG_89 
REMARK   41  A    between atoms: N_96  and  CA_97 
REMARK   42  A    between atoms: CA_97  and  C_98 
REMARK   43  A    between atoms: CA_97  and  CB_100 
REMARK       I    between atoms: C_98  and  N_107 
REMARK   44  A    between atoms: CB_100  and  CG_101 
REMARK       I    between atoms: CG_101  and  ND2_102 
REMARK   45  A    between atoms: N_107  and  CA_108 
REMARK   46  A    between atoms: CA_108  and  C_109 
REMARK   47  A    between atoms: CA_108  and  CB_111 
REMARK       I    between atoms: C_109  and  N_119 
REMARK   48  A    between atoms: CB_111  and  CG_112 
REMARK   49  A    between atoms: CG_112  and  CD_113 
REMARK       I    between atoms: CD_113  and  NE2_114 
REMARK   50  A    between atoms: N_119  and  CA_120 
REMARK   51  A    between atoms: CA_120  and  C_121 
REMARK   52  A    between atoms: CA_120  and  CB_123 
REMARK       I    between atoms: C_121  and  N_136 
REMARK   53  A    between atoms: CB_123  and  CG_124 
REMARK   54  A    between atoms: CG_124  and  CD_125 
REMARK   55  A    between atoms: CD_125  and  NE_126 
REMARK       I    between atoms: NE_126  and  CZ_127 
REMARK       I    between atoms: CZ_127  and  NH1_128 
REMARK       I    between atoms: CZ_127  and  NH2_129 
REMARK   56  A    between atoms: N_136  and  CA_137 
REMARK   57  A    between atoms: CA_137  and  C_138 
REMARK   58  A    between atoms: CA_137  and  CB_140 
REMARK       I    between atoms: C_138  and  N_144 
REMARK   59  A    between atoms: N_144  and  CA_145 
REMARK   60  A    between atoms: CA_145  and  C_146 
REMARK   61  A    between atoms: CA_145  and  CB_148 
REMARK       I    between atoms: C_146  and  N_153 
REMARK   62  A    between atoms: CB_148  and  CG_149 
REMARK   63  A    between atoms: CG_149  and  SD_150 
REMARK   64  A    between atoms: N_153  and  CA_154 
REMARK   65  A    between atoms: CA_154  and  C_155 
REMARK   66  A    between atoms: CA_154  and  CB_157 
REMARK   67  A    between atoms: CB_157  and  CG_158 
REMARK   68  A    between atoms: CG_158  and  CD_159 
REMARK   69  A    between atoms: CD_159  and  NE_160 
REMARK       I    between atoms: NE_160  and  CZ_161 
REMARK       I    between atoms: CZ_161  and  NH1_162 
ROOT
ATOM      1  C   GLU d   9    1806.507 544.924-1848.266  0.00  0.00     0.241 C 
ATOM      2  O   GLU d   9    1807.170 545.679-1848.991  0.00  0.00    -0.271 OA
ATOM      3  N   HIS d  10    1806.604 543.649-1848.436  0.00  0.00    -0.346 N 
ATOM      4  H   HIS d  10    1806.073 543.013-1847.857  0.00  0.00     0.163 HD
ENDROOT
BRANCH   3   5
ATOM      5  CA  HIS d  10    1807.492 543.138-1849.476  0.00  0.00     0.182 C 
BRANCH   5   6
ATOM      6  C   HIS d  10    1807.124 543.703-1850.827  0.00  0.00     0.241 C 
ATOM      7  O   HIS d  10    1807.976 544.168-1851.599  0.00  0.00    -0.271 OA
ATOM      8  N   ASN d  11    1805.886 543.701-1851.190  0.00  0.00    -0.346 N 
ATOM      9  H   ASN d  11    1805.174 543.328-1850.579  0.00  0.00     0.163 HD
BRANCH   8  10
ATOM     10  CA  ASN d  11    1805.531 544.247-1852.496  0.00  0.00     0.185 C 
BRANCH  10  11
ATOM     11  C   ASN d  11    1805.995 545.679-1852.628  0.00  0.00     0.241 C 
ATOM     12  O   ASN d  11    1806.593 546.082-1853.625  0.00  0.00    -0.271 OA
ATOM     13  N   GLN d  12    1805.758 546.504-1851.666  0.00  0.00    -0.346 N 
ATOM     14  H   GLN d  12    1805.269 546.198-1850.837  0.00  0.00     0.163 HD
BRANCH  13  15
ATOM     15  CA  GLN d  12    1806.206 547.887-1851.792  0.00  0.00     0.177 C 
BRANCH  15  16
ATOM     16  C   GLN d  12    1807.696 547.955-1852.030  0.00  0.00     0.241 C 
ATOM     17  O   GLN d  12    1808.183 548.664-1852.908  0.00  0.00    -0.271 OA
ATOM     18  N   ARG d  13    1808.481 547.248-1851.289  0.00  0.00    -0.346 N 
ATOM     19  H   ARG d  13    1808.105 546.658-1850.561  0.00  0.00     0.163 HD
BRANCH  18  20
ATOM     20  CA  ARG d  13    1809.921 547.315-1851.520  0.00  0.00     0.176 C 
BRANCH  20  21
ATOM     21  C   ARG d  13    1810.257 546.944-1852.945  0.00  0.00     0.241 C 
ATOM     22  O   ARG d  13    1811.026 547.617-1853.629  0.00  0.00    -0.271 OA
ATOM     23  N   VAL d  14    1809.722 545.890-1853.460  0.00  0.00    -0.346 N 
ATOM     24  H   VAL d  14    1809.087 545.321-1852.919  0.00  0.00     0.163 HD
BRANCH  23  25
ATOM     25  CA  VAL d  14    1810.047 545.531-1854.838  0.00  0.00     0.180 C 
BRANCH  25  26
ATOM     26  C   VAL d  14    1809.716 546.662-1855.783  0.00  0.00     0.241 C 
ATOM     27  O   VAL d  14    1810.509 547.044-1856.652  0.00  0.00    -0.271 OA
ATOM     28  N   MET d  15    1808.571 547.247-1855.681  0.00  0.00    -0.346 N 
ATOM     29  H   MET d  15    1807.906 546.954-1854.979  0.00  0.00     0.163 HD
BRANCH  28  30
ATOM     30  CA  MET d  15    1808.250 548.340-1856.594  0.00  0.00     0.177 C 
BRANCH  30  31
ATOM     31  C   MET d  15    1809.280 549.440-1856.506  0.00  0.00     0.241 C 
ATOM     32  O   MET d  15    1809.783 549.952-1857.518  0.00  0.00    -0.271 OA
ATOM     33  N   ARG d  16    1809.649 549.861-1855.343  0.00  0.00    -0.347 N 
ATOM     34  H   ARG d  16    1809.254 549.461-1854.504  0.00  0.00     0.163 HD
BRANCH  33  35
ATOM     35  CA  ARG d  16    1810.645 550.925-1855.259  0.00  0.00     0.162 C 
BRANCH  35  36
ATOM     36  C   ARG d  16    1811.916 550.533-1855.976  0.00  0.00     0.219 C 
ATOM     37  O   ARG d  16    1812.030 549.457-1856.558  0.00  0.00    -0.287 OA
ENDBRANCH  35  36
BRANCH  35  38
ATOM     38  CB  ARG d  16    1810.914 551.243-1853.761  0.00  0.00     0.035 C 
BRANCH  38  39
ATOM     39  CG  ARG d  16    1811.739 552.532-1853.488  0.00  0.00     0.023 C 
BRANCH  39  40
ATOM     40  CD  ARG d  16    1811.989 552.751-1851.987  0.00  0.00     0.138 C 
BRANCH  40  41
ATOM     41  NE  ARG d  16    1812.765 554.010-1851.785  0.00  0.00    -0.227 N 
ATOM     42  CZ  ARG d  16    1813.156 554.492-1850.609  0.00  0.00     0.665 C 
ATOM     43  NH1 ARG d  16    1812.909 553.907-1849.471  0.00  0.00    -0.235 N 
ATOM     44  NH2 ARG d  16    1813.820 555.605-1850.591  0.00  0.00    -0.235 N 
ATOM     45 11HH ARG d  16    1812.384 553.034-1849.556  0.00  0.00     0.174 HD
ATOM     46 12HH ARG d  16    1813.244 554.343-1848.610  0.00  0.00     0.174 HD
ATOM     47 21HH ARG d  16    1814.005 556.048-1851.492  0.00  0.00     0.174 HD
ATOM     48 22HH ARG d  16    1814.110 555.959-1849.678  0.00  0.00     0.174 HD
ATOM     49  HE  ARG d  16    1813.043 554.591-1852.582  0.00  0.00     0.177 HD
ENDBRANCH  40  41
ENDBRANCH  39  40
ENDBRANCH  38  39
ENDBRANCH  35  38
ENDBRANCH  33  35
ENDBRANCH  30  31
BRANCH  30  50
ATOM     50  CB  MET d  15    1806.829 548.885-1856.284  0.00  0.00     0.045 C 
BRANCH  50  51
ATOM     51  CG  MET d  15    1805.667 547.887-1856.476  0.00  0.00     0.076 C 
BRANCH  51  52
ATOM     52  SD  MET d  15    1804.093 548.752-1856.361  0.00  0.00    -0.173 SA
ATOM     53  CE  MET d  15    1803.012 547.322-1856.225  0.00  0.00     0.089 C 
ENDBRANCH  51  52
ENDBRANCH  50  51
ENDBRANCH  30  50
ENDBRANCH  28  30
ENDBRANCH  25  26
BRANCH  25  54
ATOM     54  CB  VAL d  14    1809.275 544.214-1855.246  0.00  0.00     0.009 C 
ATOM     55  CG1 VAL d  14    1809.364 543.797-1856.739  0.00  0.00     0.012 C 
ATOM     56  CG2 VAL d  14    1809.707 542.962-1854.446  0.00  0.00     0.012 C 
ENDBRANCH  25  54
ENDBRANCH  23  25
ENDBRANCH  20  21
BRANCH  20  57
ATOM     57  CB  ARG d  13    1810.635 546.376-1850.507  0.00  0.00     0.036 C 
BRANCH  57  58
ATOM     58  CG  ARG d  13    1812.180 546.529-1850.425  0.00  0.00     0.023 C 
BRANCH  58  59
ATOM     59  CD  ARG d  13    1812.807 545.541-1849.428  0.00  0.00     0.138 C 
BRANCH  59  60
ATOM     60  NE  ARG d  13    1814.284 545.749-1849.378  0.00  0.00    -0.227 N 
ATOM     61  CZ  ARG d  13    1815.132 545.057-1848.623  0.00  0.00     0.665 C 
ATOM     62  NH1 ARG d  13    1814.768 544.092-1847.826  0.00  0.00    -0.235 N 
ATOM     63  NH2 ARG d  13    1816.392 545.357-1848.680  0.00  0.00    -0.235 N 
ATOM     64 11HH ARG d  13    1813.762 543.906-1847.829  0.00  0.00     0.174 HD
ATOM     65 12HH ARG d  13    1815.481 543.609-1847.277  0.00  0.00     0.174 HD
ATOM     66 21HH ARG d  13    1816.659 546.115-1849.310  0.00  0.00     0.174 HD
ATOM     67 22HH ARG d  13    1817.027 544.815-1848.091  0.00  0.00     0.174 HD
ATOM     68  HE  ARG d  13    1814.735 546.472-1849.948  0.00  0.00     0.177 HD
ENDBRANCH  59  60
ENDBRANCH  58  59
ENDBRANCH  57  58
ENDBRANCH  20  57
ENDBRANCH  18  20
ENDBRANCH  15  16
BRANCH  15  69
ATOM     69  CB  GLN d  12    1805.815 548.654-1850.509  0.00  0.00     0.044 C 
BRANCH  69  70
ATOM     70  CG  GLN d  12    1806.175 550.176-1850.477  0.00  0.00     0.105 C 
BRANCH  70  71
ATOM     71  CD  GLN d  12    1805.872 550.989-1849.212  0.00  0.00     0.215 C 
ATOM     72  NE2 GLN d  12    1805.305 550.412-1848.184  0.00  0.00    -0.370 N 
ATOM     73 21HE GLN d  12    1805.198 551.006-1847.360  0.00  0.00     0.159 HD
ATOM     74 22HE GLN d  12    1805.142 549.408-1848.287  0.00  0.00     0.159 HD
ATOM     75  OE1 GLN d  12    1806.173 552.170-1849.134  0.00  0.00    -0.274 OA
ENDBRANCH  70  71
ENDBRANCH  69  70
ENDBRANCH  15  69
ENDBRANCH  13  15
ENDBRANCH  10  11
BRANCH  10  76
ATOM     76  CB  ASN d  11    1803.992 544.147-1852.700  0.00  0.00     0.137 C 
BRANCH  76  77
ATOM     77  CG  ASN d  11    1803.367 542.752-1852.589  0.00  0.00     0.217 C 
ATOM     78  ND2 ASN d  11    1803.476 541.931-1853.599  0.00  0.00    -0.370 N 
ATOM     79 21HD ASN d  11    1803.163 540.984-1853.367  0.00  0.00     0.159 HD
ATOM     80 22HD ASN d  11    1804.040 542.242-1854.389  0.00  0.00     0.159 HD
ATOM     81  OD1 ASN d  11    1802.790 542.375-1851.580  0.00  0.00    -0.274 OA
ENDBRANCH  76  77
ENDBRANCH  10  76
ENDBRANCH   8  10
ENDBRANCH   5   6
BRANCH   5  82
ATOM     82  CB  HIS d  10    1807.329 541.609-1849.472  0.00  0.00     0.095 C 
BRANCH  82  83
ATOM     83  CG  HIS d  10    1808.615 540.900-1849.164  0.00  0.00     0.053 A 
ATOM     84  CD2 HIS d  10    1808.996 540.564-1847.872  0.00  0.00     0.116 A 
ATOM     85  NE2 HIS d  10    1810.211 539.933-1847.939  0.00  0.00    -0.359 N 
ATOM     86  CE1 HIS d  10    1810.474 539.936-1849.274  0.00  0.00     0.207 A 
ATOM     87  2HE HIS d  10    1810.778 539.556-1847.166  0.00  0.00     0.166 HD
ATOM     88  ND1 HIS d  10    1809.567 540.495-1850.097  0.00  0.00    -0.247 NA
ENDBRANCH  82  83
ENDBRANCH   5  82
ENDBRANCH   3   5
BRANCH   1  89
ATOM     89  CA  GLU d   9    1805.588 545.451-1847.190  0.00  0.00     0.177 C 
BRANCH  89  90
ATOM     90  N   GLU d   9    1804.286 544.793-1847.245  0.00  0.00    -0.346 N 
ATOM     91  C   ASP d   8    1803.606 544.843-1848.340  0.00  0.00     0.241 C 
ATOM     92  O   ASP d   8    1804.079 545.448-1849.315  0.00  0.00    -0.271 OA
ATOM     93  H   GLU d   9    1803.923 544.306-1846.438  0.00  0.00     0.163 HD
BRANCH  91  94
ATOM     94  CA  ASP d   8    1802.260 544.163-1848.398  0.00  0.00     0.186 C 
BRANCH  94  95
ATOM     95  N   ASP d   8    1802.330 542.813-1847.844  0.00  0.00    -0.346 N 
ATOM     96  C   LEU d   7    1803.168 541.973-1848.351  0.00  0.00     0.241 C 
ATOM     97  O   LEU d   7    1803.888 542.336-1849.293  0.00  0.00    -0.271 OA
ATOM     98  H   ASP d   8    1801.732 542.542-1847.077  0.00  0.00     0.163 HD
BRANCH  96  99
ATOM     99  CA  LEU d   7    1803.240 540.578-1847.778  0.00  0.00     0.177 C 
BRANCH  99 100
ATOM    100  N   LEU d   7    1803.295 540.614-1846.320  0.00  0.00    -0.346 N 
ATOM    101  C   ILE d   6    1804.241 541.277-1845.746  0.00  0.00     0.241 C 
ATOM    102  O   ILE d   6    1805.076 541.865-1846.450  0.00  0.00    -0.271 OA
ATOM    103  H   LEU d   7    1802.603 540.126-1845.768  0.00  0.00     0.163 HD
BRANCH 101 104
ATOM    104  CA  ILE d   6    1804.298 541.315-1844.238  0.00  0.00     0.180 C 
BRANCH 104 105
ATOM    105  N   ILE d   6    1802.985 541.609-1843.672  0.00  0.00    -0.346 N 
ATOM    106  C   SER d   5    1802.380 542.693-1844.026  0.00  0.00     0.243 C 
ATOM    107  O   SER d   5    1802.927 543.446-1844.831  0.00  0.00    -0.271 OA
ATOM    108  H   ILE d   6    1802.557 540.975-1843.013  0.00  0.00     0.163 HD
BRANCH 106 109
ATOM    109  CA  SER d   5    1801.021 542.998-1843.441  0.00  0.00     0.200 C 
BRANCH 109 110
ATOM    110  N   SER d   5    1800.152 541.827-1843.499  0.00  0.00    -0.344 N 
ATOM    111  C   GLU d   4    1799.924 541.274-1844.642  0.00  0.00     0.241 C 
ATOM    112  O   GLU d   4    1800.451 541.754-1845.657  0.00  0.00    -0.271 OA
ATOM    113  H   SER d   5    1799.735 541.455-1842.658  0.00  0.00     0.163 HD
BRANCH 111 114
ATOM    114  CA  GLU d   4    1799.026 540.063-1844.703  0.00  0.00     0.177 C 
BRANCH 114 115
ATOM    115  N   GLU d   4    1799.385 539.092-1843.674  0.00  0.00    -0.346 N 
ATOM    116  C   PRO d   3    1800.590 538.632-1843.641  0.00  0.00     0.241 C 
ATOM    117  O   PRO d   3    1801.413 539.015-1844.473  0.00  0.00    -0.271 OA
ATOM    118  H   GLU d   4    1798.701 538.785-1842.997  0.00  0.00     0.163 HD
BRANCH 116 119
ATOM    119  CA  PRO d   3    1800.988 537.608-1842.565  0.00  0.00     0.179 C 
ATOM    120  N   PRO d   3    1800.536 538.018-1841.243  0.00  0.00    -0.337 N 
ATOM    121  C   ASN d   2    1801.058 539.013-1840.609  0.00  0.00     0.243 C 
ATOM    122  CD  PRO d   3    1799.458 537.225-1840.694  0.00  0.00     0.127 C 
ATOM    123  O   ASN d   2    1801.973 539.643-1841.138  0.00  0.00    -0.271 OA
ATOM    124  CG  PRO d   3    1799.001 536.406-1841.904  0.00  0.00     0.022 C 
ATOM    125  CB  PRO d   3    1800.284 536.254-1842.734  0.00  0.00     0.037 C 
BRANCH 121 126
ATOM    126  CA  ASN d   2    1800.527 539.368-1839.240  0.00  0.00     0.185 C 
BRANCH 126 127
ATOM    127  N   ASN d   2    1799.067 539.407-1839.240  0.00  0.00    -0.346 N 
ATOM    128  C   GLU d   1    1798.463 540.193-1840.066  0.00  0.00     0.242 C 
ATOM    129  O   GLU d   1    1799.139 540.892-1840.834  0.00  0.00    -0.271 OA
ATOM    130  H   ASN d   2    1798.539 538.827-1838.604  0.00  0.00     0.163 HD
BRANCH 128 131
ATOM    131  CA  GLU d   1    1796.954 540.233-1840.066  0.00  0.00     0.191 C 
BRANCH 131 132
ATOM    132  N   GLU d   1    1796.395 538.884-1840.066  0.00  0.00    -0.326 NA
ATOM    133  H   GLU d   1    1797.022 538.005-1840.066  0.00  0.00     0.180 HD
ENDBRANCH 131 132
BRANCH 131 134
ATOM    134  CB  GLU d   1    1796.431 541.018-1838.828  0.00  0.00     0.047 C 
BRANCH 134 135
ATOM    135  CG  GLU d   1    1796.906 542.503-1838.718  0.00  0.00     0.116 C 
BRANCH 135 136
ATOM    136  CD  GLU d   1    1796.482 543.307-1837.502  0.00  0.00     0.172 C 
ATOM    137  OE1 GLU d   1    1795.754 542.805-1836.625  0.00  0.00    -0.648 OA
ATOM    138  OE2 GLU d   1    1796.912 544.477-1837.431  0.00  0.00    -0.648 OA
ENDBRANCH 135 136
ENDBRANCH 134 135
ENDBRANCH 131 134
ENDBRANCH 128 131
ENDBRANCH 126 127
BRANCH 126 139
ATOM    139  CB  ASN d   2    1801.019 538.345-1838.176  0.00  0.00     0.137 C 
BRANCH 139 140
ATOM    140  CG  ASN d   2    1800.555 538.569-1836.733  0.00  0.00     0.217 C 
ATOM    141  ND2 ASN d   2    1801.150 539.484-1836.015  0.00  0.00    -0.370 N 
ATOM    142 21HD ASN d   2    1800.669 539.657-1835.128  0.00  0.00     0.159 HD
ATOM    143 22HD ASN d   2    1801.851 540.056-1836.484  0.00  0.00     0.159 HD
ATOM    144  OD1 ASN d   2    1799.635 537.935-1836.239  0.00  0.00    -0.274 OA
ENDBRANCH 139 140
ENDBRANCH 126 139
ENDBRANCH 121 126
ENDBRANCH 116 119
ENDBRANCH 114 115
BRANCH 114 145
ATOM    145  CB  GLU d   4    1797.537 540.482-1844.533  0.00  0.00     0.045 C 
BRANCH 145 146
ATOM    146  CG  GLU d   4    1796.989 541.485-1845.599  0.00  0.00     0.116 C 
BRANCH 146 147
ATOM    147  CD  GLU d   4    1795.562 541.982-1845.455  0.00  0.00     0.172 C 
ATOM    148  OE1 GLU d   4    1794.836 541.584-1844.524  0.00  0.00    -0.648 OA
ATOM    149  OE2 GLU d   4    1795.173 542.811-1846.303  0.00  0.00    -0.648 OA
ENDBRANCH 146 147
ENDBRANCH 145 146
ENDBRANCH 114 145
ENDBRANCH 111 114
ENDBRANCH 109 110
BRANCH 109 150
ATOM    150  CB  SER d   5    1801.133 543.530-1841.990  0.00  0.00     0.199 C 
BRANCH 150 151
ATOM    151  OG  SER d   5    1801.865 542.651-1841.129  0.00  0.00    -0.398 OA
ATOM    152  HG  SER d   5    1801.376 541.826-1841.078  0.00  0.00     0.209 HD
ENDBRANCH 150 151
ENDBRANCH 109 150
ENDBRANCH 106 109
ENDBRANCH 104 105
BRANCH 104 153
ATOM    153  CB  ILE d   6    1804.898 539.978-1843.638  0.00  0.00     0.013 C 
ATOM    154  CG2 ILE d   6    1806.339 539.677-1844.154  0.00  0.00     0.012 C 
BRANCH 153 155
ATOM    155  CG1 ILE d   6    1804.918 539.917-1842.077  0.00  0.00     0.002 C 
ATOM    156  CD1 ILE d   6    1805.188 538.527-1841.462  0.00  0.00     0.005 C 
ENDBRANCH 153 155
ENDBRANCH 104 153
ENDBRANCH 101 104
ENDBRANCH  99 100
BRANCH  99 157
ATOM    157  CB  LEU d   7    1802.037 539.717-1848.259  0.00  0.00     0.038 C 
BRANCH 157 158
ATOM    158  CG  LEU d   7    1801.965 538.238-1847.792  0.00  0.00    -0.020 C 
ATOM    159  CD1 LEU d   7    1800.775 537.532-1848.458  0.00  0.00     0.009 C 
ATOM    160  CD2 LEU d   7    1803.259 537.459-1848.084  0.00  0.00     0.009 C 
ENDBRANCH 157 158
ENDBRANCH  99 157
ENDBRANCH  96  99
ENDBRANCH  94  95
BRANCH  94 161
ATOM    161  CB  ASP d   8    1801.181 545.001-1847.656  0.00  0.00     0.147 C 
BRANCH 161 162
ATOM    162  CG  ASP d   8    1800.962 546.422-1848.196  0.00  0.00     0.175 C 
ATOM    163  OD1 ASP d   8    1801.026 546.622-1849.427  0.00  0.00    -0.648 OA
ATOM    164  OD2 ASP d   8    1800.770 547.348-1847.380  0.00  0.00    -0.648 OA
ENDBRANCH 161 162
ENDBRANCH  94 161
ENDBRANCH  91  94
ENDBRANCH  89  90
BRANCH  89 165
ATOM    165  CB  GLU d   9    1806.222 545.244-1845.784  0.00  0.00     0.045 C 
BRANCH 165 166
ATOM    166  CG  GLU d   9    1807.605 545.936-1845.555  0.00  0.00     0.116 C 
BRANCH 166 167
ATOM    167  CD  GLU d   9    1808.307 545.723-1844.227  0.00  0.00     0.172 C 
ATOM    168  OE1 GLU d   9    1807.786 545.032-1843.331  0.00  0.00    -0.648 OA
ATOM    169  OE2 GLU d   9    1809.426 546.261-1844.095  0.00  0.00    -0.648 OA
ENDBRANCH 166 167
ENDBRANCH 165 166
ENDBRANCH  89 165
ENDBRANCH   1  89
TORSDOF 69
