REMARK WARNING: 32 MAX_TORS EXCEEDED!!!
REMARK  68 active torsions:
REMARK  status: ('A' for Active; 'I' for Inactive)
REMARK    1  A    between atoms: N_1  and  CA_2 
REMARK    2  A    between atoms: CA_2  and  C_3 
REMARK    3  A    between atoms: CA_2  and  CB_5 
REMARK       I    between atoms: C_3  and  N_11 
REMARK    4  A    between atoms: CB_5  and  CG_6 
REMARK    5  A    between atoms: CG_6  and  CD_7 
REMARK    6  A    between atoms: N_11  and  CA_12 
REMARK    7  A    between atoms: CA_12  and  C_13 
REMARK    8  A    between atoms: CA_12  and  CB_15 
REMARK       I    between atoms: C_13  and  N_27 
REMARK    9  A    between atoms: CB_15  and  CG_16 
REMARK   10  A    between atoms: CA_28  and  C_29 
REMARK       I    between atoms: C_29  and  N_34 
REMARK   11  A    between atoms: N_34  and  CA_35 
REMARK   12  A    between atoms: CA_35  and  C_36 
REMARK   13  A    between atoms: CA_35  and  CB_38 
REMARK       I    between atoms: C_36  and  N_44 
REMARK   14  A    between atoms: CB_38  and  CG_39 
REMARK   15  A    between atoms: CG_39  and  CD_40 
REMARK   16  A    between atoms: N_44  and  CA_45 
REMARK   17  A    between atoms: CA_45  and  C_46 
REMARK   18  A    between atoms: CA_45  and  CB_48 
REMARK       I    between atoms: C_46  and  N_52 
REMARK   19  A    between atoms: CB_48  and  OG_49 
REMARK   20  A    between atoms: N_52  and  CA_53 
REMARK   21  A    between atoms: CA_53  and  C_54 
REMARK   22  A    between atoms: CA_53  and  CB_56 
REMARK       I    between atoms: C_54  and  N_61 
REMARK   23  A    between atoms: CB_56  and  CG1_57 
REMARK   24  A    between atoms: N_61  and  CA_62 
REMARK   25  A    between atoms: CA_62  and  C_63 
REMARK   26  A    between atoms: CA_62  and  CB_65 
REMARK       I    between atoms: C_63  and  N_70 
REMARK   27  A    between atoms: CB_65  and  CG_66 
REMARK   28  A    between atoms: N_70  and  CA_71 
REMARK   29  A    between atoms: CA_71  and  C_72 
REMARK   30  A    between atoms: CA_71  and  CB_74 
REMARK       I    between atoms: C_72  and  N_79 
REMARK   31  A    between atoms: CB_74  and  CG_75 
REMARK   32  A    between atoms: N_79  and  CA_80 
REMARK   33  A    between atoms: CA_80  and  C_81 
REMARK   34  A    between atoms: CA_80  and  CB_83 
REMARK       I    between atoms: C_81  and  N_89 
REMARK   35  A    between atoms: CB_83  and  CG_84 
REMARK   36  A    between atoms: CG_84  and  CD_85 
REMARK   37  A    between atoms: N_89  and  CA_90 
REMARK   38  A    between atoms: CA_90  and  C_91 
REMARK   39  A    between atoms: CA_90  and  CB_93 
REMARK       I    between atoms: C_91  and  N_101 
REMARK   40  A    between atoms: CB_93  and  CG_94 
REMARK   41  A    between atoms: N_101  and  CA_102 
REMARK   42  A    between atoms: CA_102  and  C_103 
REMARK   43  A    between atoms: CA_102  and  CB_105 
REMARK       I    between atoms: C_103  and  N_109 
REMARK   44  A    between atoms: N_109  and  CA_110 
REMARK   45  A    between atoms: CA_110  and  C_111 
REMARK   46  A    between atoms: CA_110  and  CB_113 
REMARK       I    between atoms: C_111  and  N_121 
REMARK   47  A    between atoms: CB_113  and  CG_114 
REMARK   48  A    between atoms: CG_114  and  CD_115 
REMARK       I    between atoms: CD_115  and  NE2_116 
REMARK   49  A    between atoms: N_121  and  CA_122 
REMARK   50  A    between atoms: CA_122  and  C_123 
REMARK   51  A    between atoms: CA_122  and  CB_125 
REMARK       I    between atoms: C_123  and  N_138 
REMARK   52  A    between atoms: CB_125  and  CG_126 
REMARK   53  A    between atoms: CG_126  and  CD_127 
REMARK   54  A    between atoms: CD_127  and  NE_128 
REMARK       I    between atoms: NE_128  and  CZ_129 
REMARK       I    between atoms: CZ_129  and  NH1_130 
REMARK       I    between atoms: CZ_129  and  NH2_131 
REMARK   55  A    between atoms: N_138  and  CA_139 
REMARK   56  A    between atoms: CA_139  and  C_140 
REMARK   57  A    between atoms: CA_139  and  CB_142 
REMARK       I    between atoms: C_140  and  N_146 
REMARK   58  A    between atoms: N_146  and  CA_147 
REMARK   59  A    between atoms: CA_147  and  C_148 
REMARK   60  A    between atoms: CA_147  and  CB_150 
REMARK       I    between atoms: C_148  and  N_155 
REMARK   61  A    between atoms: CB_150  and  CG_151 
REMARK   62  A    between atoms: CG_151  and  SD_152 
REMARK   63  A    between atoms: N_155  and  CA_156 
REMARK   64  A    between atoms: CA_156  and  C_157 
REMARK   65  A    between atoms: CA_156  and  CB_159 
REMARK   66  A    between atoms: CB_159  and  CG_160 
REMARK   67  A    between atoms: CG_160  and  CD_161 
REMARK   68  A    between atoms: CD_161  and  NE_162 
REMARK       I    between atoms: NE_162  and  CZ_163 
REMARK       I    between atoms: CZ_163  and  NH1_164 
ROOT
ATOM      1  CA  GLU d   9     257.171  53.879-229.648  0.00  0.00     0.177 C 
ENDROOT
BRANCH   1   2
ATOM      2  N   GLU d   9     255.869  53.221-229.705  0.00  0.00    -0.346 N 
ATOM      3  C   ASP d   8     255.190  53.271-230.801  0.00  0.00     0.241 C 
ATOM      4  O   ASP d   8     255.664  53.876-231.775  0.00  0.00    -0.271 OA
ATOM      5  H   GLU d   9     255.505  52.734-228.898  0.00  0.00     0.163 HD
BRANCH   3   6
ATOM      6  CA  ASP d   8     253.844  52.590-230.860  0.00  0.00     0.186 C 
BRANCH   6   7
ATOM      7  N   ASP d   8     253.914  51.241-230.307  0.00  0.00    -0.346 N 
ATOM      8  C   LEU d   7     254.753  50.400-230.812  0.00  0.00     0.241 C 
ATOM      9  O   LEU d   7     255.474  50.764-231.753  0.00  0.00    -0.271 OA
ATOM     10  H   ASP d   8     253.316  50.969-229.540  0.00  0.00     0.163 HD
BRANCH   8  11
ATOM     11  CA  LEU d   7     254.825  49.005-230.240  0.00  0.00     0.177 C 
BRANCH  11  12
ATOM     12  N   LEU d   7     254.878  49.041-228.781  0.00  0.00    -0.346 N 
ATOM     13  C   ILE d   6     255.823  49.705-228.206  0.00  0.00     0.241 C 
ATOM     14  O   ILE d   6     256.658  50.293-228.909  0.00  0.00    -0.271 OA
ATOM     15  H   LEU d   7     254.185  48.553-228.231  0.00  0.00     0.163 HD
BRANCH  13  16
ATOM     16  CA  ILE d   6     255.878  49.742-226.699  0.00  0.00     0.180 C 
BRANCH  16  17
ATOM     17  N   ILE d   6     254.564  50.036-226.134  0.00  0.00    -0.346 N 
ATOM     18  C   SER d   5     253.959  51.119-226.488  0.00  0.00     0.243 C 
ATOM     19  O   SER d   5     254.507  51.873-227.292  0.00  0.00    -0.271 OA
ATOM     20  H   ILE d   6     254.135  49.402-225.476  0.00  0.00     0.163 HD
BRANCH  18  21
ATOM     21  CA  SER d   5     252.600  51.424-225.905  0.00  0.00     0.200 C 
BRANCH  21  22
ATOM     22  N   SER d   5     251.731  50.252-225.964  0.00  0.00    -0.344 N 
ATOM     23  C   GLU d   4     251.505  49.700-227.108  0.00  0.00     0.241 C 
ATOM     24  O   GLU d   4     252.032  50.180-228.122  0.00  0.00    -0.271 OA
ATOM     25  H   SER d   5     251.313  49.880-225.124  0.00  0.00     0.163 HD
BRANCH  23  26
ATOM     26  CA  GLU d   4     250.606  48.488-227.171  0.00  0.00     0.177 C 
BRANCH  26  27
ATOM     27  N   GLU d   4     250.965  47.517-226.141  0.00  0.00    -0.346 N 
ATOM     28  C   PRO d   3     252.170  47.058-226.107  0.00  0.00     0.241 C 
ATOM     29  O   PRO d   3     252.994  47.441-226.937  0.00  0.00    -0.271 OA
ATOM     30  H   GLU d   4     250.280  47.210-225.465  0.00  0.00     0.163 HD
BRANCH  28  31
ATOM     31  CA  PRO d   3     252.567  46.034-225.030  0.00  0.00     0.179 C 
ATOM     32  N   PRO d   3     252.113  46.443-223.709  0.00  0.00    -0.337 N 
ATOM     33  C   TRP d   2     252.634  47.438-223.074  0.00  0.00     0.243 C 
ATOM     34  CD  PRO d   3     251.035  45.649-223.161  0.00  0.00     0.127 C 
ATOM     35  O   TRP d   2     253.549  48.069-223.600  0.00  0.00    -0.271 OA
ATOM     36  CG  PRO d   3     250.579  44.831-224.372  0.00  0.00     0.022 C 
ATOM     37  CB  PRO d   3     251.863  44.679-225.200  0.00  0.00     0.037 C 
BRANCH  33  38
ATOM     38  CA  TRP d   2     252.101  47.794-221.706  0.00  0.00     0.181 C 
BRANCH  38  39
ATOM     39  N   TRP d   2     250.642  47.833-221.706  0.00  0.00    -0.346 N 
ATOM     40  C   GLU d   1     250.037  48.618-222.531  0.00  0.00     0.242 C 
ATOM     41  O   GLU d   1     250.713  49.318-223.300  0.00  0.00    -0.271 OA
ATOM     42  H   TRP d   2     250.113  47.253-221.070  0.00  0.00     0.163 HD
BRANCH  40  43
ATOM     43  CA  GLU d   1     248.528  48.658-222.531  0.00  0.00     0.191 C 
BRANCH  43  44
ATOM     44  N   GLU d   1     247.969  47.309-222.531  0.00  0.00    -0.326 NA
ATOM     45  H   GLU d   1     248.596  46.430-222.531  0.00  0.00     0.180 HD
ENDBRANCH  43  44
BRANCH  43  46
ATOM     46  CB  GLU d   1     248.005  49.443-221.294  0.00  0.00     0.047 C 
BRANCH  46  47
ATOM     47  CG  GLU d   1     248.480  50.928-221.183  0.00  0.00     0.116 C 
BRANCH  47  48
ATOM     48  CD  GLU d   1     248.056  51.732-219.968  0.00  0.00     0.172 C 
ATOM     49  OE1 GLU d   1     247.328  51.230-219.090  0.00  0.00    -0.648 OA
ATOM     50  OE2 GLU d   1     248.486  52.902-219.896  0.00  0.00    -0.648 OA
ENDBRANCH  47  48
ENDBRANCH  46  47
ENDBRANCH  43  46
ENDBRANCH  40  43
ENDBRANCH  38  39
BRANCH  38  51
ATOM     51  CB  TRP d   2     252.581  46.743-220.666  0.00  0.00     0.075 C 
BRANCH  51  52
ATOM     52  CG  TRP d   2     252.268  47.095-219.208  0.00  0.00    -0.028 A 
ATOM     53  CD2 TRP d   2     252.928  47.979-218.381  0.00  0.00    -0.002 A 
ATOM     54  CE3 TRP d   2     254.084  48.776-218.586  0.00  0.00     0.014 A 
ATOM     55  CE2 TRP d   2     252.221  48.037-217.154  0.00  0.00     0.042 A 
ATOM     56  CZ3 TRP d   2     254.513  49.600-217.546  0.00  0.00     0.001 A 
ATOM     57  CH2 TRP d   2     253.820  49.653-216.329  0.00  0.00     0.002 A 
ATOM     58  CZ2 TRP d   2     252.672  48.885-216.119  0.00  0.00     0.030 A 
ATOM     59  NE1 TRP d   2     251.114  47.202-217.185  0.00  0.00    -0.365 N 
ATOM     60  CD1 TRP d   2     251.160  46.629-218.470  0.00  0.00     0.096 A 
ATOM     61  1HE TRP d   2     250.403  47.074-216.457  0.00  0.00     0.165 HD
ENDBRANCH  51  52
ENDBRANCH  38  51
ENDBRANCH  33  38
ENDBRANCH  28  31
ENDBRANCH  26  27
BRANCH  26  62
ATOM     62  CB  GLU d   4     249.118  48.907-227.002  0.00  0.00     0.045 C 
BRANCH  62  63
ATOM     63  CG  GLU d   4     248.570  49.910-228.068  0.00  0.00     0.116 C 
BRANCH  63  64
ATOM     64  CD  GLU d   4     247.144  50.406-227.926  0.00  0.00     0.172 C 
ATOM     65  OE1 GLU d   4     246.416  50.008-226.996  0.00  0.00    -0.648 OA
ATOM     66  OE2 GLU d   4     246.755  51.236-228.775  0.00  0.00    -0.648 OA
ENDBRANCH  63  64
ENDBRANCH  62  63
ENDBRANCH  26  62
ENDBRANCH  23  26
ENDBRANCH  21  22
BRANCH  21  67
ATOM     67  CB  SER d   5     252.709  51.956-224.454  0.00  0.00     0.199 C 
BRANCH  67  68
ATOM     68  OG  SER d   5     253.440  51.077-223.592  0.00  0.00    -0.398 OA
ATOM     69  HG  SER d   5     252.952  50.252-223.542  0.00  0.00     0.209 HD
ENDBRANCH  67  68
ENDBRANCH  21  67
ENDBRANCH  18  21
ENDBRANCH  16  17
BRANCH  16  70
ATOM     70  CB  ILE d   6     256.478  48.406-226.098  0.00  0.00     0.013 C 
ATOM     71  CG2 ILE d   6     257.920  48.105-226.611  0.00  0.00     0.012 C 
BRANCH  70  72
ATOM     72  CG1 ILE d   6     256.495  48.344-224.537  0.00  0.00     0.002 C 
ATOM     73  CD1 ILE d   6     256.765  46.954-223.922  0.00  0.00     0.005 C 
ENDBRANCH  70  72
ENDBRANCH  16  70
ENDBRANCH  13  16
ENDBRANCH  11  12
BRANCH  11  74
ATOM     74  CB  LEU d   7     253.623  48.144-230.722  0.00  0.00     0.038 C 
BRANCH  74  75
ATOM     75  CG  LEU d   7     253.550  46.665-230.256  0.00  0.00    -0.020 C 
ATOM     76  CD1 LEU d   7     252.361  45.959-230.923  0.00  0.00     0.009 C 
ATOM     77  CD2 LEU d   7     254.844  45.886-230.546  0.00  0.00     0.009 C 
ENDBRANCH  74  75
ENDBRANCH  11  74
ENDBRANCH   8  11
ENDBRANCH   6   7
BRANCH   6  78
ATOM     78  CB  ASP d   8     252.765  53.428-230.119  0.00  0.00     0.147 C 
BRANCH  78  79
ATOM     79  CG  ASP d   8     252.546  54.849-230.660  0.00  0.00     0.175 C 
ATOM     80  OD1 ASP d   8     252.611  55.049-231.890  0.00  0.00    -0.648 OA
ATOM     81  OD2 ASP d   8     252.352  55.775-229.844  0.00  0.00    -0.648 OA
ENDBRANCH  78  79
ENDBRANCH   6  78
ENDBRANCH   3   6
ENDBRANCH   1   2
BRANCH   1  82
ATOM     82  C   GLU d   9     258.091  53.352-230.722  0.00  0.00     0.241 C 
ATOM     83  O   GLU d   9     258.755  54.107-231.447  0.00  0.00    -0.271 OA
ATOM     84  N   HIS d  10     258.188  52.077-230.892  0.00  0.00    -0.346 N 
ATOM     85  H   HIS d  10     257.657  51.441-230.315  0.00  0.00     0.163 HD
BRANCH  84  86
ATOM     86  CA  HIS d  10     259.078  51.566-231.932  0.00  0.00     0.182 C 
BRANCH  86  87
ATOM     87  C   HIS d  10     258.712  52.131-233.283  0.00  0.00     0.241 C 
ATOM     88  O   HIS d  10     259.565  52.597-234.053  0.00  0.00    -0.271 OA
ATOM     89  N   VAL d  11     257.475  52.130-233.648  0.00  0.00    -0.346 N 
ATOM     90  H   VAL d  11     256.761  51.756-233.038  0.00  0.00     0.163 HD
BRANCH  89  91
ATOM     91  CA  VAL d  11     257.121  52.676-234.955  0.00  0.00     0.180 C 
BRANCH  91  92
ATOM     92  C   VAL d  11     257.585  54.107-235.086  0.00  0.00     0.241 C 
ATOM     93  O   VAL d  11     258.187  54.513-236.088  0.00  0.00    -0.271 OA
ATOM     94  N   GLN d  12     257.346  54.932-234.124  0.00  0.00    -0.346 N 
ATOM     95  H   GLN d  12     256.856  54.626-233.295  0.00  0.00     0.163 HD
BRANCH  94  96
ATOM     96  CA  GLN d  12     257.794  56.316-234.250  0.00  0.00     0.177 C 
BRANCH  96  97
ATOM     97  C   GLN d  12     259.284  56.384-234.486  0.00  0.00     0.241 C 
ATOM     98  O   GLN d  12     259.772  57.093-235.363  0.00  0.00    -0.271 OA
ATOM     99  N   ARG d  13     260.068  55.677-233.744  0.00  0.00    -0.346 N 
ATOM    100  H   ARG d  13     259.691  55.087-233.016  0.00  0.00     0.163 HD
BRANCH  99 101
ATOM    101  CA  ARG d  13     261.509  55.744-233.973  0.00  0.00     0.176 C 
BRANCH 101 102
ATOM    102  C   ARG d  13     261.847  55.373-235.398  0.00  0.00     0.241 C 
ATOM    103  O   ARG d  13     262.616  56.046-236.080  0.00  0.00    -0.271 OA
ATOM    104  N   VAL d  14     261.312  54.319-235.913  0.00  0.00    -0.346 N 
ATOM    105  H   VAL d  14     260.677  53.749-235.372  0.00  0.00     0.163 HD
BRANCH 104 106
ATOM    106  CA  VAL d  14     261.639  53.960-237.290  0.00  0.00     0.180 C 
BRANCH 106 107
ATOM    107  C   VAL d  14     261.309  55.090-238.236  0.00  0.00     0.241 C 
ATOM    108  O   VAL d  14     262.104  55.472-239.104  0.00  0.00    -0.271 OA
ATOM    109  N   MET d  15     260.164  55.675-238.135  0.00  0.00    -0.346 N 
ATOM    110  H   MET d  15     259.499  55.382-237.435  0.00  0.00     0.163 HD
BRANCH 109 111
ATOM    111  CA  MET d  15     259.844  56.768-239.049  0.00  0.00     0.177 C 
BRANCH 111 112
ATOM    112  C   MET d  15     260.874  57.869-238.960  0.00  0.00     0.241 C 
ATOM    113  O   MET d  15     261.378  58.380-239.971  0.00  0.00    -0.271 OA
ATOM    114  N   ARG d  16     261.241  58.289-237.797  0.00  0.00    -0.347 N 
ATOM    115  H   ARG d  16     260.845  57.889-236.958  0.00  0.00     0.163 HD
BRANCH 114 116
ATOM    116  CA  ARG d  16     262.237  59.354-237.711  0.00  0.00     0.162 C 
BRANCH 116 117
ATOM    117  C   ARG d  16     263.508  58.962-238.426  0.00  0.00     0.219 C 
ATOM    118  O   ARG d  16     263.624  57.886-239.008  0.00  0.00    -0.287 OA
ENDBRANCH 116 117
BRANCH 116 119
ATOM    119  CB  ARG d  16     262.503  59.671-236.213  0.00  0.00     0.035 C 
BRANCH 119 120
ATOM    120  CG  ARG d  16     263.327  60.961-235.938  0.00  0.00     0.023 C 
BRANCH 120 121
ATOM    121  CD  ARG d  16     263.575  61.180-234.437  0.00  0.00     0.138 C 
BRANCH 121 122
ATOM    122  NE  ARG d  16     264.350  62.439-234.234  0.00  0.00    -0.227 N 
ATOM    123  CZ  ARG d  16     264.740  62.921-233.058  0.00  0.00     0.665 C 
ATOM    124  NH1 ARG d  16     264.491  62.336-231.920  0.00  0.00    -0.235 N 
ATOM    125  NH2 ARG d  16     265.403  64.034-233.038  0.00  0.00    -0.235 N 
ATOM    126 11HH ARG d  16     263.966  61.463-232.005  0.00  0.00     0.174 HD
ATOM    127 12HH ARG d  16     264.824  62.772-231.058  0.00  0.00     0.174 HD
ATOM    128 21HH ARG d  16     265.589  64.478-233.940  0.00  0.00     0.174 HD
ATOM    129 22HH ARG d  16     265.692  64.389-232.125  0.00  0.00     0.174 HD
ATOM    130  HE  ARG d  16     264.629  63.021-235.031  0.00  0.00     0.177 HD
ENDBRANCH 121 122
ENDBRANCH 120 121
ENDBRANCH 119 120
ENDBRANCH 116 119
ENDBRANCH 114 116
ENDBRANCH 111 112
BRANCH 111 131
ATOM    131  CB  MET d  15     258.422  57.313-238.742  0.00  0.00     0.045 C 
BRANCH 131 132
ATOM    132  CG  MET d  15     257.261  56.314-238.936  0.00  0.00     0.076 C 
BRANCH 132 133
ATOM    133  SD  MET d  15     255.686  57.179-238.823  0.00  0.00    -0.173 SA
ATOM    134  CE  MET d  15     254.606  55.749-238.688  0.00  0.00     0.089 C 
ENDBRANCH 132 133
ENDBRANCH 131 132
ENDBRANCH 111 131
ENDBRANCH 109 111
ENDBRANCH 106 107
BRANCH 106 135
ATOM    135  CB  VAL d  14     260.868  52.643-237.699  0.00  0.00     0.009 C 
ATOM    136  CG1 VAL d  14     260.959  52.225-239.192  0.00  0.00     0.012 C 
ATOM    137  CG2 VAL d  14     261.300  51.390-236.898  0.00  0.00     0.012 C 
ENDBRANCH 106 135
ENDBRANCH 104 106
ENDBRANCH 101 102
BRANCH 101 138
ATOM    138  CB  ARG d  13     262.221  54.805-232.958  0.00  0.00     0.036 C 
BRANCH 138 139
ATOM    139  CG  ARG d  13     263.766  54.959-232.875  0.00  0.00     0.023 C 
BRANCH 139 140
ATOM    140  CD  ARG d  13     264.392  53.972-231.877  0.00  0.00     0.138 C 
BRANCH 140 141
ATOM    141  NE  ARG d  13     265.869  54.180-231.824  0.00  0.00    -0.227 N 
ATOM    142  CZ  ARG d  13     266.717  53.488-231.068  0.00  0.00     0.665 C 
ATOM    143  NH1 ARG d  13     266.351  52.524-230.272  0.00  0.00    -0.235 N 
ATOM    144  NH2 ARG d  13     267.976  53.788-231.123  0.00  0.00    -0.235 N 
ATOM    145 11HH ARG d  13     265.346  52.337-230.276  0.00  0.00     0.174 HD
ATOM    146 12HH ARG d  13     267.064  52.041-229.722  0.00  0.00     0.174 HD
ATOM    147 21HH ARG d  13     268.244  54.546-231.754  0.00  0.00     0.174 HD
ATOM    148 22HH ARG d  13     268.611  53.247-230.534  0.00  0.00     0.174 HD
ATOM    149  HE  ARG d  13     266.321  54.902-232.394  0.00  0.00     0.177 HD
ENDBRANCH 140 141
ENDBRANCH 139 140
ENDBRANCH 138 139
ENDBRANCH 101 138
ENDBRANCH  99 101
ENDBRANCH  96  97
BRANCH  96 150
ATOM    150  CB  GLN d  12     257.401  57.082-232.967  0.00  0.00     0.044 C 
BRANCH 150 151
ATOM    151  CG  GLN d  12     257.760  58.604-232.935  0.00  0.00     0.105 C 
BRANCH 151 152
ATOM    152  CD  GLN d  12     257.455  59.417-231.671  0.00  0.00     0.215 C 
ATOM    153  NE2 GLN d  12     256.887  58.840-230.643  0.00  0.00    -0.370 N 
ATOM    154 21HE GLN d  12     256.779  59.434-229.819  0.00  0.00     0.159 HD
ATOM    155 22HE GLN d  12     256.725  57.836-230.747  0.00  0.00     0.159 HD
ATOM    156  OE1 GLN d  12     257.756  60.598-231.592  0.00  0.00    -0.274 OA
ENDBRANCH 151 152
ENDBRANCH 150 151
ENDBRANCH  96 150
ENDBRANCH  94  96
ENDBRANCH  91  92
BRANCH  91 157
ATOM    157  CB  VAL d  11     255.560  52.569-235.176  0.00  0.00     0.009 C 
ATOM    158  CG1 VAL d  11     254.993  53.273-236.439  0.00  0.00     0.012 C 
ATOM    159  CG2 VAL d  11     255.037  51.114-235.250  0.00  0.00     0.012 C 
ENDBRANCH  91 157
ENDBRANCH  89  91
ENDBRANCH  86  87
BRANCH  86 160
ATOM    160  CB  HIS d  10     258.915  50.038-231.927  0.00  0.00     0.095 C 
BRANCH 160 161
ATOM    161  CG  HIS d  10     260.200  49.328-231.618  0.00  0.00     0.053 A 
ATOM    162  CD2 HIS d  10     260.580  48.993-230.325  0.00  0.00     0.116 A 
ATOM    163  NE2 HIS d  10     261.795  48.362-230.390  0.00  0.00    -0.359 N 
ATOM    164  CE1 HIS d  10     262.059  48.365-231.725  0.00  0.00     0.207 A 
ATOM    165  2HE HIS d  10     262.361  47.984-229.616  0.00  0.00     0.166 HD
ATOM    166  ND1 HIS d  10     261.154  48.923-232.549  0.00  0.00    -0.247 NA
ENDBRANCH 160 161
ENDBRANCH  86 160
ENDBRANCH  84  86
ENDBRANCH   1  82
BRANCH   1 167
ATOM    167  CB  GLU d   9     257.803  53.671-228.241  0.00  0.00     0.045 C 
BRANCH 167 168
ATOM    168  CG  GLU d   9     259.185  54.364-228.010  0.00  0.00     0.116 C 
BRANCH 168 169
ATOM    169  CD  GLU d   9     259.885  54.151-226.681  0.00  0.00     0.172 C 
ATOM    170  OE1 GLU d   9     259.363  53.459-225.785  0.00  0.00    -0.648 OA
ATOM    171  OE2 GLU d   9     261.004  54.689-226.548  0.00  0.00    -0.648 OA
ENDBRANCH 168 169
ENDBRANCH 167 168
ENDBRANCH   1 167
TORSDOF 68
