@<TRIPOS>MOLECULE
7-1
256 257 16              
SMALL
USER_CHARGES
@<TRIPOS>ATOM
1	   N	1025.591	284.934	-1004.506	N.3	1	GLU1	-0.516	
2	  CA	1026.150	286.283	-1004.506	C.3	1	GLU1	0.040	
3	   C	1027.659	286.243	-1004.506	C.2	1	GLU1	0.537	
4	   O	1028.335	286.942	-1005.275	O.2	1	GLU1	-0.582	
5	  CB	1025.627	287.068	-1003.269	C.3	1	GLU1	0.056	
6	  CG	1026.102	288.553	-1003.158	C.3	1	GLU1	0.014	
7	  CD	1025.678	289.357	-1001.943	C.2	1	GLU1	0.805	
8	 OE1	1024.950	288.855	-1001.065	O.co2	1	GLU1	-0.819	
9	 OE2	1026.108	290.527	-1001.871	O.co2	1	GLU1	-0.819	
10	   H	1026.218	284.055	-1004.506	 H	1	GLU1	0.294	
11	  HA	1025.824	286.801	-1005.426	 H	1	GLU1	0.111	
12	 2HB	1025.916	286.537	-1002.339	 H	1	GLU1	-0.017	
13	 3HB	1024.520	287.058	-1003.256	 H	1	GLU1	-0.017	
14	 2HG	1025.792	289.138	-1004.039	 H	1	GLU1	-0.043	
15	 3HG	1027.202	288.620	-1003.129	 H	1	GLU1	-0.043	
16	   N	1028.264	285.457	-1003.681	N.am	2	ASN2	-0.416	
17	  CA	1029.723	285.418	-1003.681	C.3	2	ASN2	0.014	
18	   C	1030.254	285.063	-1005.050	C.2	2	ASN2	0.597	
19	   O	1031.169	285.693	-1005.579	O.2	2	ASN2	-0.568	
20	  CB	1030.215	284.396	-1002.617	C.3	2	ASN2	-0.204	
21	  CG	1029.752	284.619	-1001.174	C.2	2	ASN2	0.713	
22	 ND2	1030.346	285.534	-1000.455	N.pl3	2	ASN2	-0.919	
23	 OD1	1028.831	283.986	-1000.679	O.2	2	ASN2	-0.593	
24	   H	1027.736	284.877	-1003.045	 H	2	ASN2	0.272	
25	  HA	1030.100	286.428	-1003.436	 H	2	ASN2	0.105	
26	 2HB	1031.320	284.337	-1002.621	 H	2	ASN2	0.080	
27	 3HB	1029.886	283.377	-1002.903	 H	2	ASN2	0.080	
28	1HD2	1029.866	285.707	-999.569	 H	2	ASN2	0.420	
29	2HD2	1031.048	286.106	-1000.925	 H	2	ASN2	0.420	
30	   N	1029.733	284.068	-1005.684	N.am	3	PRO3	-0.255	
31	  CA	1030.184	283.659	-1007.005	C.3	3	PRO3	-0.027	
32	   C	1029.786	284.682	-1008.082	C.2	3	PRO3	0.590	
33	   O	1030.610	285.065	-1008.914	O.2	3	PRO3	-0.575	
34	  CB	1029.480	282.304	-1007.175	C.3	3	PRO3	-0.007	
35	  CG	1028.197	282.456	-1006.344	C.3	3	PRO3	0.019	
36	  CD	1028.655	283.275	-1005.135	C.3	3	PRO3	0.019	
37	  HA	1031.271	283.539	-1007.019	 H	3	PRO3	0.064	
38	 2HB	1030.103	281.523	-1006.734	 H	3	PRO3	0.025	
39	 3HB	1029.282	282.055	-1008.220	 H	3	PRO3	0.025	
40	 2HG	1027.770	281.494	-1006.053	 H	3	PRO3	0.021	
41	 3HG	1027.460	283.027	-1006.912	 H	3	PRO3	0.021	
42	 2HD	1029.044	282.625	-1004.347	 H	3	PRO3	0.039	
43	 3HD	1027.858	283.911	-1004.742	 H	3	PRO3	0.039	
44	   N	1028.581	285.142	-1008.115	N.am	4	GLU4	-0.516	
45	  CA	1028.222	286.113	-1009.144	C.3	4	GLU4	0.040	
46	   C	1029.121	287.324	-1009.083	C.2	4	GLU4	0.537	
47	   O	1029.647	287.804	-1010.098	O.2	4	GLU4	-0.582	
48	  CB	1026.733	286.531	-1008.974	C.3	4	GLU4	0.056	
49	  CG	1026.185	287.535	-1010.040	C.3	4	GLU4	0.014	
50	  CD	1024.758	288.032	-1009.896	C.2	4	GLU4	0.805	
51	 OE1	1024.032	287.633	-1008.965	O.co2	4	GLU4	-0.819	
52	 OE2	1024.369	288.861	-1010.745	O.co2	4	GLU4	-0.819	
53	   H	1027.897	284.835	-1007.438	 H	4	GLU4	0.294	
54	  HA	1028.353	285.642	-1010.136	 H	4	GLU4	0.111	
55	 2HB	1026.581	286.971	-1007.967	 H	4	GLU4	-0.017	
56	 3HB	1026.085	285.634	-1008.980	 H	4	GLU4	-0.017	
57	 2HG	1026.267	287.120	-1011.058	 H	4	GLU4	-0.043	
58	 3HG	1026.773	288.467	-1010.051	 H	4	GLU4	-0.043	
59	   N	1029.348	287.877	-1007.940	N.am	5	SER5	-0.416	
60	  CA	1030.217	289.048	-1007.882	C.3	5	SER5	-0.025	
61	   C	1031.576	288.743	-1008.467	C.2	5	SER5	0.597	
62	   O	1032.124	289.496	-1009.272	O.2	5	SER5	-0.568	
63	  CB	1030.329	289.580	-1006.431	C.3	5	SER5	0.212	
64	  OG	1031.061	288.701	-1005.570	O.3	5	SER5	-0.655	
65	   H	1028.931	287.505	-1007.099	 H	5	SER5	0.272	
66	  HA	1029.768	289.838	-1008.511	 H	5	SER5	0.084	
67	 2HB	1029.329	289.774	-1005.998	 H	5	SER5	0.035	
68	 3HB	1030.834	290.566	-1006.433	 H	5	SER5	0.035	
69	  HG	1030.572	287.876	-1005.519	 H	5	SER5	0.428	
70	   N	1032.181	287.659	-1008.113	N.am	6	ILE6	-0.416	
71	  CA	1033.494	287.365	-1008.680	C.3	6	ILE6	-0.060	
72	   C	1033.437	287.327	-1010.187	C.2	6	ILE6	0.597	
73	   O	1034.272	287.915	-1010.891	O.2	6	ILE6	-0.568	
74	  CB	1034.094	286.028	-1008.079	C.3	6	ILE6	0.130	
75	 CG1	1034.113	285.966	-1006.518	C.3	6	ILE6	-0.043	
76	 CG2	1035.535	285.726	-1008.595	C.3	6	ILE6	-0.320	
77	 CD1	1034.383	284.577	-1005.904	C.3	6	ILE6	-0.066	
78	   H	1031.753	287.025	-1007.454	 H	6	ILE6	0.272	
79	  HA	1034.168	288.199	-1008.412	 H	6	ILE6	0.087	
80	  HB	1033.436	285.202	-1008.424	 H	6	ILE6	0.019	
81	2HG1	1033.131	286.286	-1006.123	 H	6	ILE6	0.024	
82	3HG1	1034.829	286.708	-1006.114	 H	6	ILE6	0.024	
83	1HG2	1035.594	285.633	-1009.693	 H	6	ILE6	0.088	
84	2HG2	1036.257	286.509	-1008.292	 H	6	ILE6	0.088	
85	3HG2	1035.925	284.764	-1008.216	 H	6	ILE6	0.088	
86	1HD1	1033.655	283.823	-1006.258	 H	6	ILE6	0.019	
87	2HD1	1035.394	284.198	-1006.139	 H	6	ILE6	0.019	
88	3HD1	1034.307	284.606	-1004.801	 H	6	ILE6	0.019	
89	   N	1032.491	286.664	-1010.761	N.am	7	ALA7	-0.416	
90	  CA	1032.437	286.628	-1012.219	C.3	7	ALA7	0.034	
91	   C	1032.365	288.024	-1012.792	C.2	7	ALA7	0.597	
92	   O	1033.083	288.386	-1013.731	O.2	7	ALA7	-0.568	
93	  CB	1031.234	285.757	-1012.620	C.3	7	ALA7	-0.183	
94	   H	1031.799	286.176	-1010.210	 H	7	ALA7	0.272	
95	  HA	1033.368	286.166	-1012.597	 H	7	ALA7	0.082	
96	 1HB	1031.323	284.727	-1012.224	 H	7	ALA7	0.060	
97	 2HB	1030.277	286.167	-1012.242	 H	7	ALA7	0.060	
98	 3HB	1031.138	285.667	-1013.718	 H	7	ALA7	0.060	
99	   N	1031.527	288.864	-1012.285	N.am	8	ASP8	-0.516	
100	  CA	1031.457	290.214	-1012.838	C.3	8	ASP8	0.038	
101	   C	1032.803	290.894	-1012.780	C.2	8	ASP8	0.537	
102	   O	1033.276	291.499	-1013.755	O.2	8	ASP8	-0.582	
103	  CB	1030.378	291.052	-1012.096	C.3	8	ASP8	-0.030	
104	  CG	1030.159	292.473	-1012.636	C.2	8	ASP8	0.799	
105	 OD1	1030.224	292.673	-1013.867	O.co2	8	ASP8	-0.801	
106	 OD2	1029.967	293.399	-1011.820	O.co2	8	ASP8	-0.801	
107	   H	1030.929	288.593	-1011.518	 H	8	ASP8	0.294	
108	  HA	1031.174	290.136	-1013.905	 H	8	ASP8	0.088	
109	 2HB	1030.635	291.135	-1011.024	 H	8	ASP8	-0.012	
110	 3HB	1029.399	290.547	-1012.130	 H	8	ASP8	-0.012	
111	   N	1033.483	290.844	-1011.685	N.am	9	GLU9	-0.516	
112	  CA	1034.785	291.501	-1011.629	C.3	9	GLU9	0.040	
113	   C	1035.704	290.974	-1012.705	C.2	9	GLU9	0.537	
114	   O	1036.368	291.729	-1013.430	O.2	9	GLU9	-0.582	
115	  CB	1035.418	291.293	-1010.224	C.3	9	GLU9	0.056	
116	  CG	1036.801	291.986	-1009.993	C.3	9	GLU9	0.014	
117	  CD	1037.502	291.772	-1008.665	C.2	9	GLU9	0.805	
118	 OE1	1036.981	291.081	-1007.769	O.co2	9	GLU9	-0.819	
119	 OE2	1038.621	292.310	-1008.533	O.co2	9	GLU9	-0.819	
120	   H	1033.119	290.357	-1010.878	 H	9	GLU9	0.294	
121	  HA	1034.643	292.583	-1011.804	 H	9	GLU9	0.111	
122	 2HB	1035.531	290.209	-1010.021	 H	9	GLU9	-0.017	
123	 3HB	1034.721	291.646	-1009.439	 H	9	GLU9	-0.017	
124	 2HG	1036.729	293.077	-1010.133	 H	9	GLU9	-0.043	
125	 3HG	1037.548	291.641	-1010.727	 H	9	GLU9	-0.043	
126	   N	1035.800	289.699	-1012.875	N.am	10	HIS10	-0.416	
127	  CA	1036.689	289.188	-1013.915	C.3	10	HIS10	-0.058	
128	   C	1036.322	289.753	-1015.266	C.2	10	HIS10	0.597	
129	   O	1037.175	290.218	-1016.037	O.2	10	HIS10	-0.568	
130	  CB	1036.525	287.659	-1013.911	C.3	10	HIS10	-0.007	
131	  CG	1037.811	286.949	-1013.602	C.2	10	HIS10	0.187	
132	 CD2	1038.191	286.613	-1012.310	C.2	10	HIS10	-0.221	
133	 ND1	1038.763	286.544	-1014.535	N.2	10	HIS10	-0.543	
134	 CE1	1039.669	285.985	-1013.712	C.2	10	HIS10	0.163	
135	 NE2	1039.406	285.982	-1012.377	N.pl3	10	HIS10	-0.280	
136	   H	1035.270	289.063	-1012.296	 H	10	HIS10	0.272	
137	  HA	1037.708	289.545	-1013.690	 H	10	HIS10	0.136	
138	 2HB	1036.160	287.292	-1014.891	 H	10	HIS10	0.037	
139	 3HB	1035.769	287.322	-1013.171	 H	10	HIS10	0.037	
140	 2HD	1037.605	286.828	-1011.421	 H	10	HIS10	0.186	
141	 1HE	1040.560	285.565	-1014.159	 H	10	HIS10	0.144	
142	 2HE	1039.973	285.604	-1011.603	 H	10	HIS10	0.334	
143	   N	1035.084	289.752	-1015.629	N.am	11	VAL11	-0.416	
144	  CA	1034.730	290.298	-1016.936	C.3	11	VAL11	-0.087	
145	   C	1035.194	291.729	-1017.068	C.2	11	VAL11	0.597	
146	   O	1035.795	292.135	-1018.070	O.2	11	VAL11	-0.568	
147	  CB	1033.168	290.192	-1017.156	C.3	11	VAL11	0.299	
148	 CG1	1032.600	290.896	-1018.419	C.3	11	VAL11	-0.319	
149	 CG2	1032.644	288.738	-1017.230	C.3	11	VAL11	-0.319	
150	   H	1034.371	289.379	-1015.019	 H	11	VAL11	0.272	
151	  HA	1035.249	289.717	-1017.719	 H	11	VAL11	0.097	
152	  HB	1032.681	290.672	-1016.281	 H	11	VAL11	-0.030	
153	1HG1	1033.039	290.505	-1019.356	 H	11	VAL11	0.079	
154	2HG1	1031.501	290.789	-1018.501	 H	11	VAL11	0.079	
155	3HG1	1032.778	291.989	-1018.409	 H	11	VAL11	0.079	
156	1HG2	1032.933	288.150	-1016.340	 H	11	VAL11	0.079	
157	2HG2	1031.538	288.701	-1017.273	 H	11	VAL11	0.079	
158	3HG2	1033.026	288.197	-1018.117	 H	11	VAL11	0.079	
159	   N	1034.956	292.555	-1016.105	N.am	12	GLN12	-0.416	
160	  CA	1035.405	293.938	-1016.231	C.3	12	GLN12	-0.003	
161	   C	1036.895	294.005	-1016.469	C.2	12	GLN12	0.597	
162	   O	1037.382	294.714	-1017.347	O.2	12	GLN12	-0.568	
163	  CB	1035.013	294.704	-1014.948	C.3	12	GLN12	-0.004	
164	  CG	1035.373	296.226	-1014.916	C.3	12	GLN12	-0.064	
165	  CD	1035.070	297.039	-1013.651	C.2	12	GLN12	0.695	
166	 NE2	1034.503	296.462	-1012.623	N.pl3	12	GLN12	-0.941	
167	 OE1	1035.372	298.220	-1013.573	O.2	12	GLN12	-0.609	
168	   H	1034.467	292.248	-1015.276	 H	12	GLN12	0.272	
169	  HA	1034.906	294.394	-1017.106	 H	12	GLN12	0.085	
170	 2HB	1035.489	294.204	-1014.079	 H	12	GLN12	0.017	
171	 3HB	1033.923	294.597	-1014.786	 H	12	GLN12	0.017	
172	 2HG	1034.896	296.747	-1015.767	 H	12	GLN12	0.035	
173	 3HG	1036.457	296.368	-1015.081	 H	12	GLN12	0.035	
174	1HE2	1034.396	297.056	-1011.799	 H	12	GLN12	0.425	
175	2HE2	1034.340	295.458	-1012.727	 H	12	GLN12	0.425	
176	   N	1037.679	293.298	-1015.728	N.am	13	ARG13	-0.348	
177	  CA	1039.120	293.364	-1015.958	C.3	13	ARG13	-0.264	
178	   C	1039.456	292.993	-1017.383	C.2	13	ARG13	0.734	
179	   O	1040.225	293.666	-1018.066	O.2	13	ARG13	-0.589	
180	  CB	1039.833	292.425	-1014.944	C.3	13	ARG13	-0.001	
181	  CG	1041.377	292.578	-1014.862	C.3	13	ARG13	0.039	
182	  CD	1042.004	291.590	-1013.865	C.3	13	ARG13	0.049	
183	  NE	1043.481	291.797	-1013.814	N.pl3	13	ARG13	-0.530	
184	  CZ	1044.329	291.105	-1013.058	C.cat	13	ARG13	0.808	
185	 NH1	1043.963	290.140	-1012.262	N.pl3	13	ARG13	-0.863	
186	 NH2	1045.588	291.404	-1013.115	N.pl3	13	ARG13	-0.863	
187	   H	1037.303	292.708	-1015.000	 H	13	ARG13	0.275	
188	  HA	1039.444	294.410	-1015.799	 H	13	ARG13	0.156	
189	 2HB	1039.566	291.374	-1015.184	 H	13	ARG13	0.033	
190	 3HB	1039.407	292.591	-1013.934	 H	13	ARG13	0.033	
191	 2HG	1041.625	293.622	-1014.582	 H	13	ARG13	0.029	
192	 3HG	1041.828	292.422	-1015.864	 H	13	ARG13	0.029	
193	 2HD	1041.760	290.550	-1014.175	 H	13	ARG13	0.069	
194	 3HD	1041.547	291.735	-1012.862	 H	13	ARG13	0.069	
195	  HE	1043.932	292.519	-1014.384	 H	13	ARG13	0.346	
196	1HH1	1042.958	289.954	-1012.266	 H	13	ARG13	0.448	
197	2HH1	1044.676	289.657	-1011.713	 H	13	ARG13	0.448	
198	1HH2	1045.856	292.162	-1013.745	 H	13	ARG13	0.448	
199	2HH2	1046.223	290.862	-1012.526	 H	13	ARG13	0.448	
200	   N	1038.921	291.939	-1017.898	N.am	14	VAL14	-0.416	
201	  CA	1039.246	291.581	-1019.276	C.3	14	VAL14	-0.087	
202	   C	1038.917	292.711	-1020.221	C.2	14	VAL14	0.597	
203	   O	1039.710	293.093	-1021.090	O.2	14	VAL14	-0.568	
204	  CB	1038.474	290.264	-1019.684	C.3	14	VAL14	0.299	
205	 CG1	1038.564	289.846	-1021.177	C.3	14	VAL14	-0.319	
206	 CG2	1038.906	289.011	-1018.884	C.3	14	VAL14	-0.319	
207	   H	1038.286	291.370	-1017.357	 H	14	VAL14	0.272	
208	  HA	1040.335	291.404	-1019.350	 H	14	VAL14	0.097	
209	  HB	1037.398	290.435	-1019.468	 H	14	VAL14	-0.030	
210	1HG1	1039.606	289.669	-1021.506	 H	14	VAL14	0.079	
211	2HG1	1037.992	288.923	-1021.391	 H	14	VAL14	0.079	
212	3HG1	1038.135	290.609	-1021.855	 H	14	VAL14	0.079	
213	1HG2	1038.818	289.169	-1017.793	 H	14	VAL14	0.079	
214	2HG2	1038.270	288.135	-1019.117	 H	14	VAL14	0.079	
215	3HG2	1039.954	288.721	-1019.089	 H	14	VAL14	0.079	
216	   N	1037.772	293.297	-1020.119	N.am	15	MET15	-0.416	
217	  CA	1037.452	294.390	-1021.033	C.3	15	MET15	-0.024	
218	   C	1038.482	295.490	-1020.944	C.2	15	MET15	0.597	
219	   O	1038.985	296.001	-1021.956	O.2	15	MET15	-0.568	
220	  CB	1036.030	294.935	-1020.724	C.3	15	MET15	0.034	
221	  CG	1034.868	293.937	-1020.917	C.3	15	MET15	0.002	
222	  SD	1033.294	294.803	-1020.803	S.3	15	MET15	-0.274	
223	  CE	1032.213	293.373	-1020.668	C.3	15	MET15	-0.054	
224	   H	1037.106	293.003	-1019.418	 H	15	MET15	0.272	
225	  HA	1037.478	294.003	-1022.069	 H	15	MET15	0.088	
226	 2HB	1035.828	295.814	-1021.366	 H	15	MET15	0.024	
227	 3HB	1035.994	295.327	-1019.688	 H	15	MET15	0.024	
228	 2HG	1034.911	293.151	-1020.140	 H	15	MET15	0.044	
229	 3HG	1034.932	293.422	-1021.893	 H	15	MET15	0.044	
230	 1HE	1032.357	292.685	-1021.521	 H	15	MET15	0.068	
231	 2HE	1032.422	292.820	-1019.735	 H	15	MET15	0.068	
232	 3HE	1031.155	293.688	-1020.652	 H	15	MET15	0.068	
233	   N	1038.850	295.910	-1019.781	N.am	16	ARG16	-0.348	
234	  CA	1039.846	296.974	-1019.696	C.3	16	ARG16	-0.264	
235	   C	1041.117	296.582	-1020.412	C.2	16	ARG16	0.734	
236	   O	1041.231	295.506	-1020.994	O.2	16	ARG16	-0.589	
237	  CB	1040.114	297.291	-1018.198	C.3	16	ARG16	-0.001	
238	  CG	1040.939	298.580	-1017.923	C.3	16	ARG16	0.039	
239	  CD	1041.188	298.798	-1016.422	C.3	16	ARG16	0.049	
240	  NE	1041.964	300.057	-1016.220	N.pl3	16	ARG16	-0.530	
241	  CZ	1042.355	300.538	-1015.043	C.cat	16	ARG16	0.808	
242	 NH1	1042.107	299.953	-1013.906	N.pl3	16	ARG16	-0.863	
243	 NH2	1043.019	301.651	-1015.024	N.pl3	16	ARG16	-0.863	
244	   H	1038.455	295.510	-1018.942	 H	16	ARG16	0.275	
245	  HA	1039.437	297.867	-1020.206	 H	16	ARG16	0.156	
246	 2HB	1040.611	296.415	-1017.732	 H	16	ARG16	0.033	
247	 3HB	1039.145	297.371	-1017.664	 H	16	ARG16	0.033	
248	 2HG	1040.409	299.451	-1018.360	 H	16	ARG16	0.029	
249	 3HG	1041.913	298.527	-1018.452	 H	16	ARG16	0.029	
250	 2HD	1041.737	297.923	-1016.009	 H	16	ARG16	0.069	
251	 3HD	1040.215	298.840	-1015.887	 H	16	ARG16	0.069	
252	  HE	1042.243	300.638	-1017.016	 H	16	ARG16	0.346	
253	1HH1	1041.581	299.080	-1013.991	 H	16	ARG16	0.448	
254	2HH1	1042.441	300.388	-1013.044	 H	16	ARG16	0.448	
255	1HH2	1043.205	302.095	-1015.925	 H	16	ARG16	0.448	
256	2HH2	1043.308	302.006	-1014.111	 H	16	ARG16	0.448	
@<TRIPOS>BOND
1 1 2 1
2 1 10 1
3 2 3 1
4 2 5 1
5 2 11 1
6 3 4 2
7 3 16 1
8 5 6 1
9 6 7 1
10 7 8 2
11 7 9 1
12 5 12 1
13 5 13 1
14 6 14 1
15 6 15 1
16 16 17 1
17 16 24 1
18 17 18 1
19 17 20 1
20 17 25 1
21 18 19 2
22 18 30 1
23 20 21 1
24 21 22 1
25 21 23 2
26 20 26 1
27 20 27 1
28 22 28 1
29 22 29 1
30 30 31 1
31 30 36 1
32 31 32 1
33 31 34 1
34 31 37 1
35 32 33 2
36 32 44 1
37 34 35 1
38 35 36 1
39 34 38 1
40 34 39 1
41 35 40 1
42 35 41 1
43 36 42 1
44 36 43 1
45 44 45 1
46 44 53 1
47 45 46 1
48 45 48 1
49 45 54 1
50 46 47 2
51 46 59 1
52 48 49 1
53 49 50 1
54 50 51 2
55 50 52 1
56 48 55 1
57 48 56 1
58 49 57 1
59 49 58 1
60 59 60 1
61 59 65 1
62 60 61 1
63 60 63 1
64 60 66 1
65 61 62 2
66 61 70 1
67 63 64 1
68 63 67 1
69 63 68 1
70 64 69 1
71 70 71 1
72 70 78 1
73 71 72 1
74 71 74 1
75 71 79 1
76 72 73 2
77 72 89 1
78 74 75 1
79 74 76 1
80 75 77 1
81 74 80 1
82 75 81 1
83 75 82 1
84 76 83 1
85 76 84 1
86 76 85 1
87 77 86 1
88 77 87 1
89 77 88 1
90 89 90 1
91 89 94 1
92 90 91 1
93 90 93 1
94 90 95 1
95 91 92 2
96 91 99 1
97 93 96 1
98 93 97 1
99 93 98 1
100 99 100 1
101 99 107 1
102 100 101 1
103 100 103 1
104 100 108 1
105 101 102 2
106 101 111 1
107 103 104 1
108 104 105 2
109 104 106 1
110 103 109 1
111 103 110 1
112 111 112 1
113 111 120 1
114 112 113 1
115 112 115 1
116 112 121 1
117 113 114 2
118 113 126 1
119 115 116 1
120 116 117 1
121 117 118 2
122 117 119 1
123 115 122 1
124 115 123 1
125 116 124 1
126 116 125 1
127 126 127 1
128 126 136 1
129 127 128 1
130 127 130 1
131 127 137 1
132 128 129 2
133 128 143 1
134 130 131 1
135 131 132 2
136 132 135 1
137 131 133 1
138 133 134 2
139 134 135 1
140 130 138 1
141 130 139 1
142 132 140 1
143 134 141 1
144 135 142 1
145 143 144 1
146 143 150 1
147 144 145 1
148 144 147 1
149 144 151 1
150 145 146 2
151 145 159 1
152 147 148 1
153 147 149 1
154 147 152 1
155 148 153 1
156 148 154 1
157 148 155 1
158 149 156 1
159 149 157 1
160 149 158 1
161 159 160 1
162 159 168 1
163 160 161 1
164 160 163 1
165 160 169 1
166 161 162 2
167 161 176 1
168 163 164 1
169 164 165 1
170 165 166 1
171 165 167 2
172 163 170 1
173 163 171 1
174 164 172 1
175 164 173 1
176 166 174 1
177 166 175 1
178 176 177 1
179 176 187 1
180 177 178 1
181 177 180 1
182 177 188 1
183 178 179 2
184 178 200 1
185 180 181 1
186 181 182 1
187 182 183 1
188 183 184 1
189 184 185 2
190 184 186 1
191 180 189 1
192 180 190 1
193 181 191 1
194 181 192 1
195 182 193 1
196 182 194 1
197 183 195 1
198 185 196 1
199 185 197 1
200 186 198 1
201 186 199 1
202 200 201 1
203 200 207 1
204 201 202 1
205 201 204 1
206 201 208 1
207 202 203 2
208 202 216 1
209 204 205 1
210 204 206 1
211 204 209 1
212 205 210 1
213 205 211 1
214 205 212 1
215 206 213 1
216 206 214 1
217 206 215 1
218 216 217 1
219 216 224 1
220 217 218 1
221 217 220 1
222 217 225 1
223 218 219 2
224 218 233 1
225 220 221 1
226 221 222 1
227 222 223 1
228 220 226 1
229 220 227 1
230 221 228 1
231 221 229 1
232 223 230 1
233 223 231 1
234 223 232 1
235 233 234 1
236 233 244 1
237 234 235 1
238 234 237 1
239 234 245 1
240 235 236 2
241 237 238 1
242 238 239 1
243 239 240 1
244 240 241 1
245 241 242 2
246 241 243 1
247 237 246 1
248 237 247 1
249 238 248 1
250 238 249 1
251 239 250 1
252 239 251 1
253 240 252 1
254 242 253 1
255 242 254 1
256 243 255 1
257 243 256 1
@<TRIPOS>SUBSTRUCTURE
1	GLU1	1	RESIDUE	1 ****	GLU
2	ASN2	16	RESIDUE	1 ****	ASN
3	PRO3	30	RESIDUE	1 ****	PRO
4	GLU4	44	RESIDUE	1 ****	GLU
5	SER5	59	RESIDUE	1 ****	SER
6	ILE6	70	RESIDUE	1 ****	ILE
7	ALA7	89	RESIDUE	1 ****	ALA
8	ASP8	99	RESIDUE	1 ****	ASP
9	GLU9	111	RESIDUE	1 ****	GLU
10	HIS10	126	RESIDUE	1 ****	HIS
11	VAL11	143	RESIDUE	1 ****	VAL
12	GLN12	159	RESIDUE	1 ****	GLN
13	ARG13	176	RESIDUE	1 ****	ARG
14	VAL14	200	RESIDUE	1 ****	VAL
15	MET15	216	RESIDUE	1 ****	MET
16	ARG16	233	RESIDUE	1 ****	ARG
