REMARK WARNING: 32 MAX_TORS EXCEEDED!!!
REMARK  67 active torsions:
REMARK  status: ('A' for Active; 'I' for Inactive)
REMARK    1  A    between atoms: N_1  and  CA_2 
REMARK    2  A    between atoms: CA_2  and  C_3 
REMARK    3  A    between atoms: CA_2  and  CB_5 
REMARK       I    between atoms: C_3  and  N_11 
REMARK    4  A    between atoms: CB_5  and  CG_6 
REMARK    5  A    between atoms: CG_6  and  CD_7 
REMARK    6  A    between atoms: N_11  and  CA_12 
REMARK    7  A    between atoms: CA_12  and  C_13 
REMARK    8  A    between atoms: CA_12  and  CB_15 
REMARK       I    between atoms: C_13  and  N_22 
REMARK    9  A    between atoms: CB_15  and  CG_16 
REMARK       I    between atoms: CG_16  and  ND2_17 
REMARK   10  A    between atoms: CA_23  and  C_24 
REMARK       I    between atoms: C_24  and  N_29 
REMARK   11  A    between atoms: N_29  and  CA_30 
REMARK   12  A    between atoms: CA_30  and  C_31 
REMARK   13  A    between atoms: CA_30  and  CB_33 
REMARK       I    between atoms: C_31  and  N_39 
REMARK   14  A    between atoms: CB_33  and  CG_34 
REMARK   15  A    between atoms: CG_34  and  CD_35 
REMARK   16  A    between atoms: N_39  and  CA_40 
REMARK   17  A    between atoms: CA_40  and  C_41 
REMARK   18  A    between atoms: CA_40  and  CB_43 
REMARK       I    between atoms: C_41  and  N_47 
REMARK   19  A    between atoms: CB_43  and  OG_44 
REMARK   20  A    between atoms: N_47  and  CA_48 
REMARK   21  A    between atoms: CA_48  and  C_49 
REMARK   22  A    between atoms: CA_48  and  CB_51 
REMARK       I    between atoms: C_49  and  N_56 
REMARK   23  A    between atoms: CB_51  and  CG1_52 
REMARK   24  A    between atoms: N_56  and  CA_57 
REMARK   25  A    between atoms: CA_57  and  C_58 
REMARK   26  A    between atoms: CA_57  and  CB_60 
REMARK       I    between atoms: C_58  and  N_65 
REMARK   27  A    between atoms: CB_60  and  CG_61 
REMARK   28  A    between atoms: N_65  and  CA_66 
REMARK   29  A    between atoms: CA_66  and  C_67 
REMARK   30  A    between atoms: CA_66  and  CB_69 
REMARK       I    between atoms: C_67  and  N_74 
REMARK   31  A    between atoms: CB_69  and  CG_70 
REMARK   32  A    between atoms: N_74  and  CA_75 
REMARK   33  A    between atoms: CA_75  and  C_76 
REMARK   34  A    between atoms: CA_75  and  CB_78 
REMARK       I    between atoms: C_76  and  N_84 
REMARK   35  A    between atoms: CB_78  and  CG_79 
REMARK   36  A    between atoms: CG_79  and  CD_80 
REMARK   37  A    between atoms: N_84  and  CA_85 
REMARK   38  A    between atoms: CA_85  and  C_86 
REMARK   39  A    between atoms: CA_85  and  CB_88 
REMARK       I    between atoms: C_86  and  N_96 
REMARK   40  A    between atoms: CB_88  and  CG_89 
REMARK   41  A    between atoms: N_96  and  CA_97 
REMARK   42  A    between atoms: CA_97  and  C_98 
REMARK   43  A    between atoms: CA_97  and  CB_100 
REMARK       I    between atoms: C_98  and  N_104 
REMARK   44  A    between atoms: N_104  and  CA_105 
REMARK   45  A    between atoms: CA_105  and  C_106 
REMARK   46  A    between atoms: CA_105  and  CB_108 
REMARK       I    between atoms: C_106  and  N_116 
REMARK   47  A    between atoms: CB_108  and  CG_109 
REMARK   48  A    between atoms: CG_109  and  CD_110 
REMARK       I    between atoms: CD_110  and  NE2_111 
REMARK   49  A    between atoms: N_116  and  CA_117 
REMARK   50  A    between atoms: CA_117  and  C_118 
REMARK   51  A    between atoms: CA_117  and  CB_120 
REMARK       I    between atoms: C_118  and  N_126 
REMARK   52  A    between atoms: CB_120  and  CG_121 
REMARK   53  A    between atoms: CG_121  and  CD_122 
REMARK   54  A    between atoms: N_126  and  CA_127 
REMARK   55  A    between atoms: CA_127  and  C_128 
REMARK   56  A    between atoms: CA_127  and  CB_130 
REMARK       I    between atoms: C_128  and  N_134 
REMARK   57  A    between atoms: N_134  and  CA_135 
REMARK   58  A    between atoms: CA_135  and  C_136 
REMARK   59  A    between atoms: CA_135  and  CB_138 
REMARK       I    between atoms: C_136  and  N_143 
REMARK   60  A    between atoms: CB_138  and  CG_139 
REMARK   61  A    between atoms: CG_139  and  SD_140 
REMARK   62  A    between atoms: N_143  and  CA_144 
REMARK   63  A    between atoms: CA_144  and  C_145 
REMARK   64  A    between atoms: CA_144  and  CB_147 
REMARK   65  A    between atoms: CB_147  and  CG_148 
REMARK   66  A    between atoms: CG_148  and  CD_149 
REMARK   67  A    between atoms: CD_149  and  NE_150 
REMARK       I    between atoms: NE_150  and  CZ_151 
REMARK       I    between atoms: CZ_151  and  NH1_152 
ROOT
ATOM      1  CA  GLU d   9    2153.023 659.434-2229.295  0.00  0.00     0.177 C 
ENDROOT
BRANCH   1   2
ATOM      2  N   GLU d   9    2151.720 658.777-2229.350  0.00  0.00    -0.346 N 
ATOM      3  C   ASP d   8    2151.040 658.827-2230.445  0.00  0.00     0.241 C 
ATOM      4  O   ASP d   8    2151.513 659.431-2231.420  0.00  0.00    -0.271 OA
ATOM      5  H   GLU d   9    2151.357 658.291-2228.543  0.00  0.00     0.163 HD
BRANCH   3   6
ATOM      6  CA  ASP d   8    2149.693 658.148-2230.502  0.00  0.00     0.186 C 
BRANCH   6   7
ATOM      7  N   ASP d   8    2149.763 656.798-2229.948  0.00  0.00    -0.346 N 
ATOM      8  C   LEU d   7    2150.600 655.957-2230.454  0.00  0.00     0.241 C 
ATOM      9  O   LEU d   7    2151.321 656.319-2231.396  0.00  0.00    -0.271 OA
ATOM     10  H   ASP d   8    2149.165 656.528-2229.180  0.00  0.00     0.163 HD
BRANCH   8  11
ATOM     11  CA  LEU d   7    2150.672 654.562-2229.881  0.00  0.00     0.177 C 
BRANCH  11  12
ATOM     12  N   LEU d   7    2150.727 654.598-2228.422  0.00  0.00    -0.346 N 
ATOM     13  C   ILE d   6    2151.673 655.261-2227.849  0.00  0.00     0.241 C 
ATOM     14  O   ILE d   6    2152.508 655.849-2228.553  0.00  0.00    -0.271 OA
ATOM     15  H   LEU d   7    2150.035 654.111-2227.871  0.00  0.00     0.163 HD
BRANCH  13  16
ATOM     16  CA  ILE d   6    2151.730 655.299-2226.341  0.00  0.00     0.180 C 
BRANCH  16  17
ATOM     17  N   ILE d   6    2150.417 655.594-2225.775  0.00  0.00    -0.346 N 
ATOM     18  C   SER d   5    2149.812 656.678-2226.129  0.00  0.00     0.243 C 
ATOM     19  O   SER d   5    2150.360 657.431-2226.934  0.00  0.00    -0.271 OA
ATOM     20  H   ILE d   6    2149.988 654.960-2225.116  0.00  0.00     0.163 HD
BRANCH  18  21
ATOM     21  CA  SER d   5    2148.454 656.984-2225.544  0.00  0.00     0.200 C 
BRANCH  21  22
ATOM     22  N   SER d   5    2147.584 655.813-2225.603  0.00  0.00    -0.344 N 
ATOM     23  C   GLU d   4    2147.357 655.260-2226.746  0.00  0.00     0.241 C 
ATOM     24  O   GLU d   4    2147.884 655.739-2227.760  0.00  0.00    -0.271 OA
ATOM     25  H   SER d   5    2147.166 655.441-2224.762  0.00  0.00     0.163 HD
BRANCH  23  26
ATOM     26  CA  GLU d   4    2146.458 654.049-2226.808  0.00  0.00     0.177 C 
BRANCH  26  27
ATOM     27  N   GLU d   4    2146.817 653.078-2225.778  0.00  0.00    -0.346 N 
ATOM     28  C   PRO d   3    2148.021 652.618-2225.745  0.00  0.00     0.241 C 
ATOM     29  O   PRO d   3    2148.845 653.001-2226.577  0.00  0.00    -0.271 OA
ATOM     30  H   GLU d   4    2146.132 652.772-2225.102  0.00  0.00     0.163 HD
BRANCH  28  31
ATOM     31  CA  PRO d   3    2148.419 651.594-2224.668  0.00  0.00     0.179 C 
ATOM     32  N   PRO d   3    2147.967 652.004-2223.347  0.00  0.00    -0.337 N 
ATOM     33  C   ASN d   2    2148.489 652.999-2222.713  0.00  0.00     0.243 C 
ATOM     34  CD  PRO d   3    2146.889 651.211-2222.798  0.00  0.00     0.127 C 
ATOM     35  O   ASN d   2    2149.404 653.629-2223.241  0.00  0.00    -0.271 OA
ATOM     36  CG  PRO d   3    2146.431 650.392-2224.008  0.00  0.00     0.022 C 
ATOM     37  CB  PRO d   3    2147.715 650.240-2224.838  0.00  0.00     0.037 C 
BRANCH  33  38
ATOM     38  CA  ASN d   2    2147.957 653.354-2221.344  0.00  0.00     0.185 C 
BRANCH  38  39
ATOM     39  N   ASN d   2    2146.498 653.393-2221.344  0.00  0.00    -0.346 N 
ATOM     40  C   GLU d   1    2145.893 654.179-2222.169  0.00  0.00     0.242 C 
ATOM     41  O   GLU d   1    2146.569 654.878-2222.938  0.00  0.00    -0.271 OA
ATOM     42  H   ASN d   2    2145.969 652.814-2220.708  0.00  0.00     0.163 HD
BRANCH  40  43
ATOM     43  CA  GLU d   1    2144.384 654.219-2222.169  0.00  0.00     0.191 C 
BRANCH  43  44
ATOM     44  N   GLU d   1    2143.825 652.870-2222.169  0.00  0.00    -0.326 NA
ATOM     45  H   GLU d   1    2144.452 651.991-2222.169  0.00  0.00     0.180 HD
ENDBRANCH  43  44
BRANCH  43  46
ATOM     46  CB  GLU d   1    2143.861 655.004-2220.933  0.00  0.00     0.047 C 
BRANCH  46  47
ATOM     47  CG  GLU d   1    2144.336 656.489-2220.822  0.00  0.00     0.116 C 
BRANCH  47  48
ATOM     48  CD  GLU d   1    2143.912 657.293-2219.606  0.00  0.00     0.172 C 
ATOM     49  OE1 GLU d   1    2143.184 656.791-2218.729  0.00  0.00    -0.648 OA
ATOM     50  OE2 GLU d   1    2144.342 658.463-2219.534  0.00  0.00    -0.648 OA
ENDBRANCH  47  48
ENDBRANCH  46  47
ENDBRANCH  43  46
ENDBRANCH  40  43
ENDBRANCH  38  39
BRANCH  38  51
ATOM     51  CB  ASN d   2    2148.449 652.331-2220.280  0.00  0.00     0.137 C 
BRANCH  51  52
ATOM     52  CG  ASN d   2    2147.985 652.555-2218.836  0.00  0.00     0.217 C 
ATOM     53  ND2 ASN d   2    2148.579 653.470-2218.118  0.00  0.00    -0.370 N 
ATOM     54 21HD ASN d   2    2148.098 653.643-2217.231  0.00  0.00     0.159 HD
ATOM     55 22HD ASN d   2    2149.281 654.041-2218.587  0.00  0.00     0.159 HD
ATOM     56  OD1 ASN d   2    2147.064 651.922-2218.342  0.00  0.00    -0.274 OA
ENDBRANCH  51  52
ENDBRANCH  38  51
ENDBRANCH  33  38
ENDBRANCH  28  31
ENDBRANCH  26  27
BRANCH  26  57
ATOM     57  CB  GLU d   4    2144.969 654.468-2226.638  0.00  0.00     0.045 C 
BRANCH  57  58
ATOM     58  CG  GLU d   4    2144.422 655.472-2227.704  0.00  0.00     0.116 C 
BRANCH  58  59
ATOM     59  CD  GLU d   4    2142.995 655.969-2227.561  0.00  0.00     0.172 C 
ATOM     60  OE1 GLU d   4    2142.268 655.571-2226.630  0.00  0.00    -0.648 OA
ATOM     61  OE2 GLU d   4    2142.606 656.798-2228.409  0.00  0.00    -0.648 OA
ENDBRANCH  58  59
ENDBRANCH  57  58
ENDBRANCH  26  57
ENDBRANCH  23  26
ENDBRANCH  21  22
BRANCH  21  62
ATOM     62  CB  SER d   5    2148.565 657.516-2224.094  0.00  0.00     0.199 C 
BRANCH  62  63
ATOM     63  OG  SER d   5    2149.296 656.636-2223.233  0.00  0.00    -0.398 OA
ATOM     64  HG  SER d   5    2148.807 655.811-2223.182  0.00  0.00     0.209 HD
ENDBRANCH  62  63
ENDBRANCH  21  62
ENDBRANCH  18  21
ENDBRANCH  16  17
BRANCH  16  65
ATOM     65  CB  ILE d   6    2152.329 653.963-2225.741  0.00  0.00     0.013 C 
ATOM     66  CG2 ILE d   6    2153.770 653.660-2226.256  0.00  0.00     0.012 C 
BRANCH  65  67
ATOM     67  CG1 ILE d   6    2152.348 653.900-2224.180  0.00  0.00     0.002 C 
ATOM     68  CD1 ILE d   6    2152.617 652.511-2223.565  0.00  0.00     0.005 C 
ENDBRANCH  65  67
ENDBRANCH  16  65
ENDBRANCH  13  16
ENDBRANCH  11  12
BRANCH  11  69
ATOM     69  CB  LEU d   7    2149.469 653.702-2230.361  0.00  0.00     0.038 C 
BRANCH  69  70
ATOM     70  CG  LEU d   7    2149.395 652.223-2229.895  0.00  0.00    -0.020 C 
ATOM     71  CD1 LEU d   7    2148.205 651.517-2230.560  0.00  0.00     0.009 C 
ATOM     72  CD2 LEU d   7    2150.689 651.443-2230.186  0.00  0.00     0.009 C 
ENDBRANCH  69  70
ENDBRANCH  11  69
ENDBRANCH   8  11
ENDBRANCH   6   7
BRANCH   6  73
ATOM     73  CB  ASP d   8    2148.615 658.988-2229.761  0.00  0.00     0.147 C 
BRANCH  73  74
ATOM     74  CG  ASP d   8    2148.397 660.408-2230.302  0.00  0.00     0.175 C 
ATOM     75  OD1 ASP d   8    2148.462 660.606-2231.533  0.00  0.00    -0.648 OA
ATOM     76  OD2 ASP d   8    2148.206 661.335-2229.488  0.00  0.00    -0.648 OA
ENDBRANCH  73  74
ENDBRANCH   6  73
ENDBRANCH   3   6
ENDBRANCH   1   2
BRANCH   1  77
ATOM     77  C   GLU d   9    2153.941 658.906-2230.371  0.00  0.00     0.241 C 
ATOM     78  O   GLU d   9    2154.605 659.659-2231.097  0.00  0.00    -0.271 OA
ATOM     79  N   HIS d  10    2154.037 657.630-2230.540  0.00  0.00    -0.346 N 
ATOM     80  H   HIS d  10    2153.506 656.995-2229.961  0.00  0.00     0.163 HD
BRANCH  79  81
ATOM     81  CA  HIS d  10    2154.924 657.118-2231.581  0.00  0.00     0.182 C 
BRANCH  81  82
ATOM     82  C   HIS d  10    2154.557 657.682-2232.932  0.00  0.00     0.241 C 
ATOM     83  O   HIS d  10    2155.410 658.146-2233.704  0.00  0.00    -0.271 OA
ATOM     84  N   VAL d  11    2153.319 657.682-2233.295  0.00  0.00    -0.346 N 
ATOM     85  H   VAL d  11    2152.606 657.310-2232.684  0.00  0.00     0.163 HD
BRANCH  84  86
ATOM     86  CA  VAL d  11    2152.964 658.227-2234.602  0.00  0.00     0.180 C 
BRANCH  86  87
ATOM     87  C   VAL d  11    2153.429 659.657-2234.735  0.00  0.00     0.241 C 
ATOM     88  O   VAL d  11    2154.031 660.062-2235.738  0.00  0.00    -0.271 OA
ATOM     89  N   GLN d  12    2153.193 660.484-2233.773  0.00  0.00    -0.346 N 
ATOM     90  H   GLN d  12    2152.704 660.178-2232.944  0.00  0.00     0.163 HD
BRANCH  89  91
ATOM     91  CA  GLN d  12    2153.642 661.866-2233.901  0.00  0.00     0.177 C 
BRANCH  91  92
ATOM     92  C   GLN d  12    2155.132 661.933-2234.139  0.00  0.00     0.241 C 
ATOM     93  O   GLN d  12    2155.619 662.640-2235.018  0.00  0.00    -0.271 OA
ATOM     94  N   GLU d  13    2155.917 661.226-2233.398  0.00  0.00    -0.346 N 
ATOM     95  H   GLU d  13    2155.540 660.637-2232.669  0.00  0.00     0.163 HD
BRANCH  94  96
ATOM     96  CA  GLU d  13    2157.357 661.291-2233.629  0.00  0.00     0.177 C 
BRANCH  96  97
ATOM     97  C   GLU d  13    2157.694 660.918-2235.052  0.00  0.00     0.241 C 
ATOM     98  O   GLU d  13    2158.470 661.595-2235.742  0.00  0.00    -0.271 OA
ATOM     99  N   VAL d  14    2157.158 659.864-2235.566  0.00  0.00    -0.346 N 
ATOM    100  H   VAL d  14    2156.522 659.296-2235.025  0.00  0.00     0.163 HD
BRANCH  99 101
ATOM    101  CA  VAL d  14    2157.483 659.504-2236.943  0.00  0.00     0.180 C 
BRANCH 101 102
ATOM    102  C   VAL d  14    2157.155 660.634-2237.890  0.00  0.00     0.241 C 
ATOM    103  O   VAL d  14    2157.949 661.014-2238.759  0.00  0.00    -0.271 OA
ATOM    104  N   MET d  15    2156.010 661.220-2237.789  0.00  0.00    -0.346 N 
ATOM    105  H   MET d  15    2155.344 660.928-2237.088  0.00  0.00     0.163 HD
BRANCH 104 106
ATOM    106  CA  MET d  15    2155.691 662.313-2238.704  0.00  0.00     0.177 C 
BRANCH 106 107
ATOM    107  C   MET d  15    2156.722 663.412-2238.615  0.00  0.00     0.241 C 
ATOM    108  O   MET d  15    2157.226 663.922-2239.628  0.00  0.00    -0.271 OA
ATOM    109  N   ARG d  16    2157.091 663.833-2237.453  0.00  0.00    -0.347 N 
ATOM    110  H   ARG d  16    2156.695 663.434-2236.614  0.00  0.00     0.163 HD
BRANCH 109 111
ATOM    111  CA  ARG d  16    2158.088 664.896-2237.369  0.00  0.00     0.162 C 
BRANCH 111 112
ATOM    112  C   ARG d  16    2159.359 664.503-2238.084  0.00  0.00     0.219 C 
ATOM    113  O   ARG d  16    2159.473 663.426-2238.665  0.00  0.00    -0.287 OA
ENDBRANCH 111 112
BRANCH 111 114
ATOM    114  CB  ARG d  16    2158.355 665.215-2235.871  0.00  0.00     0.035 C 
BRANCH 114 115
ATOM    115  CG  ARG d  16    2159.181 666.503-2235.598  0.00  0.00     0.023 C 
BRANCH 115 116
ATOM    116  CD  ARG d  16    2159.430 666.723-2234.096  0.00  0.00     0.138 C 
BRANCH 116 117
ATOM    117  NE  ARG d  16    2160.207 667.981-2233.895  0.00  0.00    -0.227 N 
ATOM    118  CZ  ARG d  16    2160.597 668.464-2232.719  0.00  0.00     0.665 C 
ATOM    119  NH1 ARG d  16    2160.348 667.880-2231.581  0.00  0.00    -0.235 N 
ATOM    120  NH2 ARG d  16    2161.262 669.576-2232.700  0.00  0.00    -0.235 N 
ATOM    121 11HH ARG d  16    2159.822 667.008-2231.665  0.00  0.00     0.174 HD
ATOM    122 12HH ARG d  16    2160.682 668.316-2230.719  0.00  0.00     0.174 HD
ATOM    123 21HH ARG d  16    2161.448 670.019-2233.602  0.00  0.00     0.174 HD
ATOM    124 22HH ARG d  16    2161.552 669.931-2231.788  0.00  0.00     0.174 HD
ATOM    125  HE  ARG d  16    2160.486 668.562-2234.692  0.00  0.00     0.177 HD
ENDBRANCH 116 117
ENDBRANCH 115 116
ENDBRANCH 114 115
ENDBRANCH 111 114
ENDBRANCH 109 111
ENDBRANCH 106 107
BRANCH 106 126
ATOM    126  CB  MET d  15    2154.270 662.860-2238.396  0.00  0.00     0.045 C 
BRANCH 126 127
ATOM    127  CG  MET d  15    2153.107 661.863-2238.588  0.00  0.00     0.076 C 
BRANCH 127 128
ATOM    128  SD  MET d  15    2151.534 662.730-2238.475  0.00  0.00    -0.173 SA
ATOM    129  CE  MET d  15    2150.451 661.302-2238.339  0.00  0.00     0.089 C 
ENDBRANCH 127 128
ENDBRANCH 126 127
ENDBRANCH 106 126
ENDBRANCH 104 106
ENDBRANCH 101 102
BRANCH 101 130
ATOM    130  CB  VAL d  14    2156.711 658.187-2237.351  0.00  0.00     0.009 C 
ATOM    131  CG1 VAL d  14    2156.801 657.768-2238.844  0.00  0.00     0.012 C 
ATOM    132  CG2 VAL d  14    2157.142 656.935-2236.549  0.00  0.00     0.012 C 
ENDBRANCH 101 130
ENDBRANCH  99 101
ENDBRANCH  96  97
BRANCH  96 133
ATOM    133  CB  GLU d  13    2158.091 660.349-2232.632  0.00  0.00     0.045 C 
BRANCH 133 134
ATOM    134  CG  GLU d  13    2159.652 660.347-2232.725  0.00  0.00     0.116 C 
BRANCH 134 135
ATOM    135  CD  GLU d  13    2160.427 659.405-2231.823  0.00  0.00     0.172 C 
ATOM    136  OE1 GLU d  13    2159.838 658.666-2231.011  0.00  0.00    -0.648 OA
ATOM    137  OE2 GLU d  13    2161.669 659.406-2231.952  0.00  0.00    -0.648 OA
ENDBRANCH 134 135
ENDBRANCH 133 134
ENDBRANCH  96 133
ENDBRANCH  94  96
ENDBRANCH  91  92
BRANCH  91 138
ATOM    138  CB  GLN d  12    2153.252 662.635-2232.619  0.00  0.00     0.044 C 
BRANCH 138 139
ATOM    139  CG  GLN d  12    2153.613 664.156-2232.588  0.00  0.00     0.105 C 
BRANCH 139 140
ATOM    140  CD  GLN d  12    2153.312 664.971-2231.324  0.00  0.00     0.215 C 
ATOM    141  NE2 GLN d  12    2152.745 664.395-2230.295  0.00  0.00    -0.370 N 
ATOM    142 21HE GLN d  12    2152.638 664.990-2229.471  0.00  0.00     0.159 HD
ATOM    143 22HE GLN d  12    2152.580 663.392-2230.397  0.00  0.00     0.159 HD
ATOM    144  OE1 GLN d  12    2153.614 666.151-2231.247  0.00  0.00    -0.274 OA
ENDBRANCH 139 140
ENDBRANCH 138 139
ENDBRANCH  91 138
ENDBRANCH  89  91
ENDBRANCH  86  87
BRANCH  86 145
ATOM    145  CB  VAL d  11    2151.403 658.121-2234.821  0.00  0.00     0.009 C 
ATOM    146  CG1 VAL d  11    2150.834 658.825-2236.084  0.00  0.00     0.012 C 
ATOM    147  CG2 VAL d  11    2150.878 656.667-2234.893  0.00  0.00     0.012 C 
ENDBRANCH  86 145
ENDBRANCH  84  86
ENDBRANCH  81  82
BRANCH  81 148
ATOM    148  CB  HIS d  10    2154.760 655.589-2231.575  0.00  0.00     0.095 C 
BRANCH 148 149
ATOM    149  CG  HIS d  10    2156.045 654.878-2231.267  0.00  0.00     0.053 A 
ATOM    150  CD2 HIS d  10    2156.426 654.544-2229.974  0.00  0.00     0.116 A 
ATOM    151  NE2 HIS d  10    2157.641 653.911-2230.041  0.00  0.00    -0.359 N 
ATOM    152  CE1 HIS d  10    2157.903 653.914-2231.376  0.00  0.00     0.207 A 
ATOM    153  2HE HIS d  10    2158.208 653.534-2229.268  0.00  0.00     0.166 HD
ATOM    154  ND1 HIS d  10    2156.996 654.472-2232.199  0.00  0.00    -0.247 NA
ENDBRANCH 148 149
ENDBRANCH  81 148
ENDBRANCH  79  81
ENDBRANCH   1  77
BRANCH   1 155
ATOM    155  CB  GLU d   9    2153.657 659.227-2227.890  0.00  0.00     0.045 C 
BRANCH 155 156
ATOM    156  CG  GLU d   9    2155.040 659.919-2227.661  0.00  0.00     0.116 C 
BRANCH 156 157
ATOM    157  CD  GLU d   9    2155.742 659.706-2226.333  0.00  0.00     0.172 C 
ATOM    158  OE1 GLU d   9    2155.220 659.015-2225.436  0.00  0.00    -0.648 OA
ATOM    159  OE2 GLU d   9    2156.861 660.243-2226.202  0.00  0.00    -0.648 OA
ENDBRANCH 156 157
ENDBRANCH 155 156
ENDBRANCH   1 155
TORSDOF 67
