REMARK WARNING: 32 MAX_TORS EXCEEDED!!!
REMARK  66 active torsions:
REMARK  status: ('A' for Active; 'I' for Inactive)
REMARK    1  A    between atoms: N_1  and  CA_2 
REMARK    2  A    between atoms: CA_2  and  C_3 
REMARK    3  A    between atoms: CA_2  and  CB_5 
REMARK       I    between atoms: C_3  and  N_11 
REMARK    4  A    between atoms: CB_5  and  CG_6 
REMARK    5  A    between atoms: CG_6  and  CD_7 
REMARK    6  A    between atoms: N_11  and  CA_12 
REMARK    7  A    between atoms: CA_12  and  C_13 
REMARK    8  A    between atoms: CA_12  and  CB_15 
REMARK       I    between atoms: C_13  and  N_22 
REMARK    9  A    between atoms: CB_15  and  CG_16 
REMARK       I    between atoms: CG_16  and  ND2_17 
REMARK   10  A    between atoms: CA_23  and  C_24 
REMARK       I    between atoms: C_24  and  N_29 
REMARK   11  A    between atoms: N_29  and  CA_30 
REMARK   12  A    between atoms: CA_30  and  C_31 
REMARK   13  A    between atoms: CA_30  and  CB_33 
REMARK       I    between atoms: C_31  and  N_39 
REMARK   14  A    between atoms: CB_33  and  CG_34 
REMARK   15  A    between atoms: CG_34  and  CD_35 
REMARK   16  A    between atoms: N_39  and  CA_40 
REMARK   17  A    between atoms: CA_40  and  C_41 
REMARK   18  A    between atoms: CA_40  and  CB_43 
REMARK       I    between atoms: C_41  and  N_47 
REMARK   19  A    between atoms: CB_43  and  OG_44 
REMARK   20  A    between atoms: N_47  and  CA_48 
REMARK   21  A    between atoms: CA_48  and  C_49 
REMARK   22  A    between atoms: CA_48  and  CB_51 
REMARK       I    between atoms: C_49  and  N_56 
REMARK   23  A    between atoms: CB_51  and  CG1_52 
REMARK   24  A    between atoms: N_56  and  CA_57 
REMARK   25  A    between atoms: CA_57  and  C_58 
REMARK       I    between atoms: C_58  and  N_61 
REMARK   26  A    between atoms: N_61  and  CA_62 
REMARK   27  A    between atoms: CA_62  and  C_63 
REMARK   28  A    between atoms: CA_62  and  CB_65 
REMARK       I    between atoms: C_63  and  N_70 
REMARK   29  A    between atoms: CB_65  and  CG_66 
REMARK   30  A    between atoms: N_70  and  CA_71 
REMARK   31  A    between atoms: CA_71  and  C_72 
REMARK   32  A    between atoms: CA_71  and  CB_74 
REMARK       I    between atoms: C_72  and  N_80 
REMARK   33  A    between atoms: CB_74  and  CG_75 
REMARK   34  A    between atoms: CG_75  and  CD_76 
REMARK   35  A    between atoms: N_80  and  CA_81 
REMARK   36  A    between atoms: CA_81  and  C_82 
REMARK   37  A    between atoms: CA_81  and  CB_84 
REMARK       I    between atoms: C_82  and  N_92 
REMARK   38  A    between atoms: CB_84  and  CG_85 
REMARK   39  A    between atoms: N_92  and  CA_93 
REMARK   40  A    between atoms: CA_93  and  C_94 
REMARK   41  A    between atoms: CA_93  and  CB_96 
REMARK       I    between atoms: C_94  and  N_100 
REMARK   42  A    between atoms: N_100  and  CA_101 
REMARK   43  A    between atoms: CA_101  and  C_102 
REMARK   44  A    between atoms: CA_101  and  CB_104 
REMARK       I    between atoms: C_102  and  N_112 
REMARK   45  A    between atoms: CB_104  and  CG_105 
REMARK   46  A    between atoms: CG_105  and  CD_106 
REMARK       I    between atoms: CD_106  and  NE2_107 
REMARK   47  A    between atoms: N_112  and  CA_113 
REMARK   48  A    between atoms: CA_113  and  C_114 
REMARK   49  A    between atoms: CA_113  and  CB_116 
REMARK       I    between atoms: C_114  and  N_129 
REMARK   50  A    between atoms: CB_116  and  CG_117 
REMARK   51  A    between atoms: CG_117  and  CD_118 
REMARK   52  A    between atoms: CD_118  and  NE_119 
REMARK       I    between atoms: NE_119  and  CZ_120 
REMARK       I    between atoms: CZ_120  and  NH1_121 
REMARK       I    between atoms: CZ_120  and  NH2_122 
REMARK   53  A    between atoms: N_129  and  CA_130 
REMARK   54  A    between atoms: CA_130  and  C_131 
REMARK   55  A    between atoms: CA_130  and  CB_133 
REMARK       I    between atoms: C_131  and  N_137 
REMARK   56  A    between atoms: N_137  and  CA_138 
REMARK   57  A    between atoms: CA_138  and  C_139 
REMARK   58  A    between atoms: CA_138  and  CB_141 
REMARK       I    between atoms: C_139  and  N_146 
REMARK   59  A    between atoms: CB_141  and  CG_142 
REMARK   60  A    between atoms: CG_142  and  SD_143 
REMARK   61  A    between atoms: N_146  and  CA_147 
REMARK   62  A    between atoms: CA_147  and  C_148 
REMARK   63  A    between atoms: CA_147  and  CB_150 
REMARK   64  A    between atoms: CB_150  and  CG_151 
REMARK   65  A    between atoms: CG_151  and  CD_152 
REMARK   66  A    between atoms: CD_152  and  NE_153 
REMARK       I    between atoms: NE_153  and  CZ_154 
REMARK       I    between atoms: CZ_154  and  NH1_155 
ROOT
ATOM      1  C   GLU d   9    1051.299 297.155-1030.731  0.00  0.00     0.241 C 
ATOM      2  O   GLU d   9    1051.963 297.910-1031.456  0.00  0.00    -0.271 OA
ATOM      3  N   HIS d  10    1051.396 295.880-1030.900  0.00  0.00    -0.346 N 
ATOM      4  H   HIS d  10    1050.865 295.245-1030.321  0.00  0.00     0.163 HD
ENDROOT
BRANCH   3   5
ATOM      5  CA  HIS d  10    1052.285 295.369-1031.940  0.00  0.00     0.182 C 
BRANCH   5   6
ATOM      6  C   HIS d  10    1051.918 295.933-1033.291  0.00  0.00     0.241 C 
ATOM      7  O   HIS d  10    1052.771 296.397-1034.063  0.00  0.00    -0.271 OA
ATOM      8  N   VAL d  11    1050.680 295.931-1033.654  0.00  0.00    -0.346 N 
ATOM      9  H   VAL d  11    1049.967 295.558-1033.044  0.00  0.00     0.163 HD
BRANCH   8  10
ATOM     10  CA  VAL d  11    1050.325 296.476-1034.962  0.00  0.00     0.180 C 
BRANCH  10  11
ATOM     11  C   VAL d  11    1050.789 297.907-1035.095  0.00  0.00     0.241 C 
ATOM     12  O   VAL d  11    1051.391 298.312-1036.098  0.00  0.00    -0.271 OA
ATOM     13  N   GLN d  12    1050.551 298.733-1034.133  0.00  0.00    -0.346 N 
ATOM     14  H   GLN d  12    1050.062 298.427-1033.304  0.00  0.00     0.163 HD
BRANCH  13  15
ATOM     15  CA  GLN d  12    1050.999 300.116-1034.260  0.00  0.00     0.177 C 
BRANCH  15  16
ATOM     16  C   GLN d  12    1052.489 300.184-1034.497  0.00  0.00     0.241 C 
ATOM     17  O   GLN d  12    1052.977 300.892-1035.376  0.00  0.00    -0.271 OA
ATOM     18  N   ARG d  13    1053.274 299.478-1033.756  0.00  0.00    -0.346 N 
ATOM     19  H   ARG d  13    1052.898 298.888-1033.027  0.00  0.00     0.163 HD
BRANCH  18  20
ATOM     20  CA  ARG d  13    1054.714 299.544-1033.986  0.00  0.00     0.176 C 
BRANCH  20  21
ATOM     21  C   ARG d  13    1055.051 299.172-1035.411  0.00  0.00     0.241 C 
ATOM     22  O   ARG d  13    1055.819 299.844-1036.095  0.00  0.00    -0.271 OA
ATOM     23  N   VAL d  14    1054.515 298.117-1035.925  0.00  0.00    -0.346 N 
ATOM     24  H   VAL d  14    1053.880 297.549-1035.383  0.00  0.00     0.163 HD
BRANCH  23  25
ATOM     25  CA  VAL d  14    1054.841 297.758-1037.302  0.00  0.00     0.180 C 
BRANCH  25  26
ATOM     26  C   VAL d  14    1054.510 298.887-1038.248  0.00  0.00     0.241 C 
ATOM     27  O   VAL d  14    1055.304 299.269-1039.118  0.00  0.00    -0.271 OA
ATOM     28  N   MET d  15    1053.365 299.473-1038.147  0.00  0.00    -0.346 N 
ATOM     29  H   MET d  15    1052.700 299.180-1037.445  0.00  0.00     0.163 HD
BRANCH  28  30
ATOM     30  CA  MET d  15    1053.045 300.565-1039.061  0.00  0.00     0.177 C 
BRANCH  30  31
ATOM     31  C   MET d  15    1054.075 301.665-1038.973  0.00  0.00     0.241 C 
ATOM     32  O   MET d  15    1054.577 302.176-1039.986  0.00  0.00    -0.271 OA
ATOM     33  N   ARG d  16    1054.443 302.087-1037.811  0.00  0.00    -0.347 N 
ATOM     34  H   ARG d  16    1054.048 301.687-1036.972  0.00  0.00     0.163 HD
BRANCH  33  35
ATOM     35  CA  ARG d  16    1055.439 303.151-1037.727  0.00  0.00     0.162 C 
BRANCH  35  36
ATOM     36  C   ARG d  16    1056.710 302.759-1038.443  0.00  0.00     0.219 C 
ATOM     37  O   ARG d  16    1056.824 301.682-1039.024  0.00  0.00    -0.287 OA
ENDBRANCH  35  36
BRANCH  35  38
ATOM     38  CB  ARG d  16    1055.708 303.470-1036.229  0.00  0.00     0.035 C 
BRANCH  38  39
ATOM     39  CG  ARG d  16    1056.532 304.759-1035.956  0.00  0.00     0.023 C 
BRANCH  39  40
ATOM     40  CD  ARG d  16    1056.782 304.979-1034.455  0.00  0.00     0.138 C 
BRANCH  40  41
ATOM     41  NE  ARG d  16    1057.557 306.238-1034.254  0.00  0.00    -0.227 N 
ATOM     42  CZ  ARG d  16    1057.948 306.721-1033.079  0.00  0.00     0.665 C 
ATOM     43  NH1 ARG d  16    1057.701 306.136-1031.940  0.00  0.00    -0.235 N 
ATOM     44  NH2 ARG d  16    1058.612 307.833-1033.060  0.00  0.00    -0.235 N 
ATOM     45 11HH ARG d  16    1057.176 305.263-1032.025  0.00  0.00     0.174 HD
ATOM     46 12HH ARG d  16    1058.035 306.572-1031.079  0.00  0.00     0.174 HD
ATOM     47 21HH ARG d  16    1058.797 308.276-1033.962  0.00  0.00     0.174 HD
ATOM     48 22HH ARG d  16    1058.902 308.189-1032.148  0.00  0.00     0.174 HD
ATOM     49  HE  ARG d  16    1057.836 306.819-1035.052  0.00  0.00     0.177 HD
ENDBRANCH  40  41
ENDBRANCH  39  40
ENDBRANCH  38  39
ENDBRANCH  35  38
ENDBRANCH  33  35
ENDBRANCH  30  31
BRANCH  30  50
ATOM     50  CB  MET d  15    1051.623 301.110-1038.752  0.00  0.00     0.045 C 
BRANCH  50  51
ATOM     51  CG  MET d  15    1050.461 300.112-1038.944  0.00  0.00     0.076 C 
BRANCH  51  52
ATOM     52  SD  MET d  15    1048.887 300.977-1038.831  0.00  0.00    -0.173 SA
ATOM     53  CE  MET d  15    1047.807 299.547-1038.694  0.00  0.00     0.089 C 
ENDBRANCH  51  52
ENDBRANCH  50  51
ENDBRANCH  30  50
ENDBRANCH  28  30
ENDBRANCH  25  26
BRANCH  25  54
ATOM     54  CB  VAL d  14    1054.069 296.440-1037.709  0.00  0.00     0.009 C 
ATOM     55  CG1 VAL d  14    1054.158 296.021-1039.202  0.00  0.00     0.012 C 
ATOM     56  CG2 VAL d  14    1054.501 295.188-1036.908  0.00  0.00     0.012 C 
ENDBRANCH  25  54
ENDBRANCH  23  25
ENDBRANCH  20  21
BRANCH  20  57
ATOM     57  CB  ARG d  13    1055.428 298.605-1032.972  0.00  0.00     0.036 C 
BRANCH  57  58
ATOM     58  CG  ARG d  13    1056.973 298.759-1032.890  0.00  0.00     0.023 C 
BRANCH  58  59
ATOM     59  CD  ARG d  13    1057.599 297.772-1031.892  0.00  0.00     0.138 C 
BRANCH  59  60
ATOM     60  NE  ARG d  13    1059.077 297.980-1031.841  0.00  0.00    -0.227 N 
ATOM     61  CZ  ARG d  13    1059.925 297.289-1031.085  0.00  0.00     0.665 C 
ATOM     62  NH1 ARG d  13    1059.560 296.324-1030.288  0.00  0.00    -0.235 N 
ATOM     63  NH2 ARG d  13    1061.184 297.588-1031.142  0.00  0.00    -0.235 N 
ATOM     64 11HH ARG d  13    1058.554 296.138-1030.291  0.00  0.00     0.174 HD
ATOM     65 12HH ARG d  13    1060.273 295.842-1029.739  0.00  0.00     0.174 HD
ATOM     66 21HH ARG d  13    1061.451 298.346-1031.773  0.00  0.00     0.174 HD
ATOM     67 22HH ARG d  13    1061.819 297.047-1030.553  0.00  0.00     0.174 HD
ATOM     68  HE  ARG d  13    1059.528 298.702-1032.412  0.00  0.00     0.177 HD
ENDBRANCH  59  60
ENDBRANCH  58  59
ENDBRANCH  57  58
ENDBRANCH  20  57
ENDBRANCH  18  20
ENDBRANCH  15  16
BRANCH  15  69
ATOM     69  CB  GLN d  12    1050.608 300.884-1032.978  0.00  0.00     0.044 C 
BRANCH  69  70
ATOM     70  CG  GLN d  12    1050.967 302.406-1032.947  0.00  0.00     0.105 C 
BRANCH  70  71
ATOM     71  CD  GLN d  12    1050.664 303.219-1031.683  0.00  0.00     0.215 C 
ATOM     72  NE2 GLN d  12    1050.097 302.643-1030.654  0.00  0.00    -0.370 N 
ATOM     73 21HE GLN d  12    1049.989 303.238-1029.831  0.00  0.00     0.159 HD
ATOM     74 22HE GLN d  12    1049.934 301.640-1030.757  0.00  0.00     0.159 HD
ATOM     75  OE1 GLN d  12    1050.965 304.401-1031.606  0.00  0.00    -0.274 OA
ENDBRANCH  70  71
ENDBRANCH  69  70
ENDBRANCH  15  69
ENDBRANCH  13  15
ENDBRANCH  10  11
BRANCH  10  76
ATOM     76  CB  VAL d  11    1048.764 296.369-1035.182  0.00  0.00     0.009 C 
ATOM     77  CG1 VAL d  11    1048.196 297.072-1036.445  0.00  0.00     0.012 C 
ATOM     78  CG2 VAL d  11    1048.240 294.914-1035.254  0.00  0.00     0.012 C 
ENDBRANCH  10  76
ENDBRANCH   8  10
ENDBRANCH   5   6
BRANCH   5  79
ATOM     79  CB  HIS d  10    1052.121 293.840-1031.934  0.00  0.00     0.095 C 
BRANCH  79  80
ATOM     80  CG  HIS d  10    1053.407 293.130-1031.625  0.00  0.00     0.053 A 
ATOM     81  CD2 HIS d  10    1053.787 292.796-1030.332  0.00  0.00     0.116 A 
ATOM     82  NE2 HIS d  10    1055.003 292.165-1030.398  0.00  0.00    -0.359 N 
ATOM     83  CE1 HIS d  10    1055.266 292.167-1031.733  0.00  0.00     0.207 A 
ATOM     84  2HE HIS d  10    1055.569 291.788-1029.624  0.00  0.00     0.166 HD
ATOM     85  ND1 HIS d  10    1054.359 292.724-1032.557  0.00  0.00    -0.247 NA
ENDBRANCH  79  80
ENDBRANCH   5  79
ENDBRANCH   3   5
BRANCH   1  86
ATOM     86  CA  GLU d   9    1050.380 297.683-1029.656  0.00  0.00     0.177 C 
BRANCH  86  87
ATOM     87  N   GLU d   9    1049.078 297.025-1029.711  0.00  0.00    -0.346 N 
ATOM     88  C   ASP d   8    1048.398 297.074-1030.806  0.00  0.00     0.241 C 
ATOM     89  O   ASP d   8    1048.871 297.679-1031.781  0.00  0.00    -0.271 OA
ATOM     90  H   GLU d   9    1048.714 296.539-1028.904  0.00  0.00     0.163 HD
BRANCH  88  91
ATOM     91  CA  ASP d   8    1047.052 296.394-1030.864  0.00  0.00     0.186 C 
BRANCH  91  92
ATOM     92  N   ASP d   8    1047.122 295.045-1030.309  0.00  0.00    -0.346 N 
ATOM     93  C   GLY d   7    1047.960 294.204-1030.815  0.00  0.00     0.236 C 
ATOM     94  O   GLY d   7    1048.677 294.564-1031.752  0.00  0.00    -0.272 OA
ATOM     95  H   ASP d   8    1046.524 294.774-1029.542  0.00  0.00     0.163 HD
BRANCH  93  96
ATOM     96  CA  GLY d   7    1048.033 292.810-1030.242  0.00  0.00     0.225 C 
BRANCH  96  97
ATOM     97  N   GLY d   7    1048.088 292.846-1028.783  0.00  0.00    -0.351 N 
ATOM     98  C   ILE d   6    1049.033 293.509-1028.209  0.00  0.00     0.241 C 
ATOM     99  O   ILE d   6    1049.868 294.097-1028.913  0.00  0.00    -0.271 OA
ATOM    100  H   GLY d   7    1047.396 292.358-1028.232  0.00  0.00     0.163 HD
BRANCH  98 101
ATOM    101  CA  ILE d   6    1049.090 293.547-1026.702  0.00  0.00     0.180 C 
BRANCH 101 102
ATOM    102  N   ILE d   6    1047.777 293.842-1026.136  0.00  0.00    -0.346 N 
ATOM    103  C   SER d   5    1047.172 294.925-1026.490  0.00  0.00     0.243 C 
ATOM    104  O   SER d   5    1047.720 295.678-1027.295  0.00  0.00    -0.271 OA
ATOM    105  H   ILE d   6    1047.349 293.207-1025.477  0.00  0.00     0.163 HD
BRANCH 103 106
ATOM    106  CA  SER d   5    1045.814 295.230-1025.904  0.00  0.00     0.200 C 
BRANCH 106 107
ATOM    107  N   SER d   5    1044.944 294.059-1025.963  0.00  0.00    -0.344 N 
ATOM    108  C   GLU d   4    1044.717 293.506-1027.106  0.00  0.00     0.241 C 
ATOM    109  O   GLU d   4    1045.243 293.985-1028.120  0.00  0.00    -0.271 OA
ATOM    110  H   SER d   5    1044.527 293.687-1025.121  0.00  0.00     0.163 HD
BRANCH 108 111
ATOM    111  CA  GLU d   4    1043.818 292.295-1027.167  0.00  0.00     0.177 C 
BRANCH 111 112
ATOM    112  N   GLU d   4    1044.177 291.324-1026.137  0.00  0.00    -0.346 N 
ATOM    113  C   PRO d   3    1045.382 290.864-1026.105  0.00  0.00     0.241 C 
ATOM    114  O   PRO d   3    1046.205 291.247-1026.936  0.00  0.00    -0.271 OA
ATOM    115  H   GLU d   4    1043.493 291.017-1025.460  0.00  0.00     0.163 HD
BRANCH 113 116
ATOM    116  CA  PRO d   3    1045.780 289.841-1025.028  0.00  0.00     0.179 C 
ATOM    117  N   PRO d   3    1045.329 290.250-1023.706  0.00  0.00    -0.337 N 
ATOM    118  C   ASN d   2    1045.850 291.245-1023.072  0.00  0.00     0.243 C 
ATOM    119  CD  PRO d   3    1044.251 289.457-1023.157  0.00  0.00     0.127 C 
ATOM    120  O   ASN d   2    1046.765 291.876-1023.601  0.00  0.00    -0.271 OA
ATOM    121  CG  PRO d   3    1043.793 288.638-1024.367  0.00  0.00     0.022 C 
ATOM    122  CB  PRO d   3    1045.076 288.486-1025.197  0.00  0.00     0.037 C 
BRANCH 118 123
ATOM    123  CA  ASN d   2    1045.319 291.601-1021.704  0.00  0.00     0.185 C 
BRANCH 123 124
ATOM    124  N   ASN d   2    1043.860 291.639-1021.703  0.00  0.00    -0.346 N 
ATOM    125  C   GLU d   1    1043.255 292.425-1022.529  0.00  0.00     0.242 C 
ATOM    126  O   GLU d   1    1043.931 293.124-1023.297  0.00  0.00    -0.271 OA
ATOM    127  H   ASN d   2    1043.331 291.060-1021.067  0.00  0.00     0.163 HD
BRANCH 125 128
ATOM    128  CA  GLU d   1    1041.746 292.465-1022.529  0.00  0.00     0.191 C 
BRANCH 128 129
ATOM    129  N   GLU d   1    1041.187 291.116-1022.529  0.00  0.00    -0.326 NA
ATOM    130  H   GLU d   1    1041.814 290.237-1022.529  0.00  0.00     0.180 HD
ENDBRANCH 128 129
BRANCH 128 131
ATOM    131  CB  GLU d   1    1041.223 293.250-1021.292  0.00  0.00     0.047 C 
BRANCH 131 132
ATOM    132  CG  GLU d   1    1041.698 294.735-1021.181  0.00  0.00     0.116 C 
BRANCH 132 133
ATOM    133  CD  GLU d   1    1041.274 295.539-1019.966  0.00  0.00     0.172 C 
ATOM    134  OE1 GLU d   1    1040.546 295.037-1019.088  0.00  0.00    -0.648 OA
ATOM    135  OE2 GLU d   1    1041.704 296.709-1019.894  0.00  0.00    -0.648 OA
ENDBRANCH 132 133
ENDBRANCH 131 132
ENDBRANCH 128 131
ENDBRANCH 125 128
ENDBRANCH 123 124
BRANCH 123 136
ATOM    136  CB  ASN d   2    1045.811 290.578-1020.639  0.00  0.00     0.137 C 
BRANCH 136 137
ATOM    137  CG  ASN d   2    1045.348 290.801-1019.196  0.00  0.00     0.217 C 
ATOM    138  ND2 ASN d   2    1045.942 291.716-1018.478  0.00  0.00    -0.370 N 
ATOM    139 21HD ASN d   2    1045.462 291.889-1017.591  0.00  0.00     0.159 HD
ATOM    140 22HD ASN d   2    1046.644 292.288-1018.947  0.00  0.00     0.159 HD
ATOM    141  OD1 ASN d   2    1044.427 290.168-1018.702  0.00  0.00    -0.274 OA
ENDBRANCH 136 137
ENDBRANCH 123 136
ENDBRANCH 118 123
ENDBRANCH 113 116
ENDBRANCH 111 112
BRANCH 111 142
ATOM    142  CB  GLU d   4    1042.329 292.714-1026.996  0.00  0.00     0.045 C 
BRANCH 142 143
ATOM    143  CG  GLU d   4    1041.781 293.717-1028.062  0.00  0.00     0.116 C 
BRANCH 143 144
ATOM    144  CD  GLU d   4    1040.354 294.214-1027.918  0.00  0.00     0.172 C 
ATOM    145  OE1 GLU d   4    1039.628 293.816-1026.987  0.00  0.00    -0.648 OA
ATOM    146  OE2 GLU d   4    1039.965 295.043-1028.767  0.00  0.00    -0.648 OA
ENDBRANCH 143 144
ENDBRANCH 142 143
ENDBRANCH 111 142
ENDBRANCH 108 111
ENDBRANCH 106 107
BRANCH 106 147
ATOM    147  CB  SER d   5    1045.925 295.763-1024.454  0.00  0.00     0.199 C 
BRANCH 147 148
ATOM    148  OG  SER d   5    1046.657 294.884-1023.593  0.00  0.00    -0.398 OA
ATOM    149  HG  SER d   5    1046.168 294.059-1023.542  0.00  0.00     0.209 HD
ENDBRANCH 147 148
ENDBRANCH 106 147
ENDBRANCH 103 106
ENDBRANCH 101 102
BRANCH 101 150
ATOM    150  CB  ILE d   6    1049.690 292.211-1026.102  0.00  0.00     0.013 C 
ATOM    151  CG2 ILE d   6    1051.132 291.909-1026.617  0.00  0.00     0.012 C 
BRANCH 150 152
ATOM    152  CG1 ILE d   6    1049.710 292.149-1024.541  0.00  0.00     0.002 C 
ATOM    153  CD1 ILE d   6    1049.980 290.760-1023.926  0.00  0.00     0.005 C 
ENDBRANCH 150 152
ENDBRANCH 101 150
ENDBRANCH  98 101
ENDBRANCH  96  97
ENDBRANCH  93  96
ENDBRANCH  91  92
BRANCH  91 154
ATOM    154  CB  ASP d   8    1045.973 297.233-1030.122  0.00  0.00     0.147 C 
BRANCH 154 155
ATOM    155  CG  ASP d   8    1045.754 298.654-1030.664  0.00  0.00     0.175 C 
ATOM    156  OD1 ASP d   8    1045.819 298.852-1031.895  0.00  0.00    -0.648 OA
ATOM    157  OD2 ASP d   8    1045.562 299.580-1029.849  0.00  0.00    -0.648 OA
ENDBRANCH 154 155
ENDBRANCH  91 154
ENDBRANCH  88  91
ENDBRANCH  86  87
BRANCH  86 158
ATOM    158  CB  GLU d   9    1051.013 297.476-1028.250  0.00  0.00     0.045 C 
BRANCH 158 159
ATOM    159  CG  GLU d   9    1052.396 298.169-1028.020  0.00  0.00     0.116 C 
BRANCH 159 160
ATOM    160  CD  GLU d   9    1053.097 297.957-1026.692  0.00  0.00     0.172 C 
ATOM    161  OE1 GLU d   9    1052.575 297.266-1025.795  0.00  0.00    -0.648 OA
ATOM    162  OE2 GLU d   9    1054.216 298.495-1026.560  0.00  0.00    -0.648 OA
ENDBRANCH 159 160
ENDBRANCH 158 159
ENDBRANCH  86 158
ENDBRANCH   1  86
TORSDOF 66
