@<TRIPOS>MOLECULE
4-19
272 273 16              
SMALL
USER_CHARGES
@<TRIPOS>ATOM
1	   N	680.617	172.252	-633.115	N.3	1	GLU1	-0.516	
2	  CA	681.176	173.601	-633.115	C.3	1	GLU1	0.040	
3	   C	682.685	173.561	-633.115	C.2	1	GLU1	0.537	
4	   O	683.360	174.260	-633.884	O.2	1	GLU1	-0.582	
5	  CB	680.653	174.386	-631.878	C.3	1	GLU1	0.056	
6	  CG	681.128	175.871	-631.767	C.3	1	GLU1	0.014	
7	  CD	680.703	176.675	-630.552	C.2	1	GLU1	0.805	
8	 OE1	679.976	176.173	-629.674	O.co2	1	GLU1	-0.819	
9	 OE2	681.134	177.845	-630.480	O.co2	1	GLU1	-0.819	
10	   H	681.244	171.373	-633.115	 H	1	GLU1	0.294	
11	  HA	680.849	174.119	-634.035	 H	1	GLU1	0.111	
12	 2HB	680.942	173.855	-630.948	 H	1	GLU1	-0.017	
13	 3HB	679.546	174.376	-631.865	 H	1	GLU1	-0.017	
14	 2HG	680.818	176.456	-632.648	 H	1	GLU1	-0.043	
15	 3HG	682.228	175.938	-631.738	 H	1	GLU1	-0.043	
16	   N	683.289	172.775	-632.290	N.am	2	ASN2	-0.416	
17	  CA	684.748	172.737	-632.290	C.3	2	ASN2	0.014	
18	   C	685.280	172.381	-633.659	C.2	2	ASN2	0.597	
19	   O	686.195	173.012	-634.188	O.2	2	ASN2	-0.568	
20	  CB	685.241	171.714	-631.226	C.3	2	ASN2	-0.204	
21	  CG	684.778	171.938	-629.783	C.2	2	ASN2	0.713	
22	 ND2	685.372	172.853	-629.065	N.pl3	2	ASN2	-0.919	
23	 OD1	683.857	171.304	-629.289	O.2	2	ASN2	-0.593	
24	   H	682.761	172.196	-631.654	 H	2	ASN2	0.272	
25	  HA	685.126	173.747	-632.045	 H	2	ASN2	0.105	
26	 2HB	686.345	171.655	-631.230	 H	2	ASN2	0.080	
27	 3HB	684.912	170.696	-631.512	 H	2	ASN2	0.080	
28	1HD2	684.891	173.026	-628.178	 H	2	ASN2	0.420	
29	2HD2	686.073	173.424	-629.534	 H	2	ASN2	0.420	
30	   N	684.758	171.386	-634.293	N.am	3	PRO3	-0.255	
31	  CA	685.210	170.977	-635.615	C.3	3	PRO3	-0.027	
32	   C	684.812	172.000	-636.692	C.2	3	PRO3	0.590	
33	   O	685.635	172.384	-637.523	O.2	3	PRO3	-0.575	
34	  CB	684.506	169.622	-635.784	C.3	3	PRO3	-0.007	
35	  CG	683.223	169.774	-634.954	C.3	3	PRO3	0.019	
36	  CD	683.680	170.593	-633.744	C.3	3	PRO3	0.019	
37	  HA	686.296	170.857	-635.628	 H	3	PRO3	0.064	
38	 2HB	685.129	168.841	-635.343	 H	3	PRO3	0.025	
39	 3HB	684.308	169.374	-636.829	 H	3	PRO3	0.025	
40	 2HG	682.796	168.812	-634.663	 H	3	PRO3	0.021	
41	 3HG	682.485	170.345	-635.521	 H	3	PRO3	0.021	
42	 2HD	684.070	169.943	-632.957	 H	3	PRO3	0.039	
43	 3HD	682.884	171.229	-633.351	 H	3	PRO3	0.039	
44	   N	683.607	172.460	-636.724	N.am	4	LYS4	-0.348	
45	  CA	683.247	173.431	-637.753	C.3	4	LYS4	-0.240	
46	   C	684.146	174.644	-637.692	C.2	4	LYS4	0.734	
47	   O	684.672	175.123	-638.707	O.2	4	LYS4	-0.589	
48	  CB	681.757	173.835	-637.584	C.3	4	LYS4	-0.009	
49	  CG	681.254	174.809	-638.679	C.3	4	LYS4	0.019	
50	  CD	679.808	175.281	-638.506	C.3	4	LYS4	-0.048	
51	  CE	679.470	176.289	-639.612	C.3	4	LYS4	-0.014	
52	  NZ	678.034	176.615	-639.556	N.4	4	LYS4	-0.385	
53	   H	682.923	172.153	-636.047	 H	4	LYS4	0.275	
54	  HA	683.391	172.960	-638.743	 H	4	LYS4	0.143	
55	 2HB	681.605	174.285	-636.581	 H	4	LYS4	0.036	
56	 3HB	681.122	172.928	-637.587	 H	4	LYS4	0.036	
57	 2HG	681.384	174.345	-639.676	 H	4	LYS4	0.010	
58	 3HG	681.880	175.721	-638.695	 H	4	LYS4	0.010	
59	 2HD	679.682	175.750	-637.509	 H	4	LYS4	0.062	
60	 3HD	679.124	174.410	-638.530	 H	4	LYS4	0.062	
61	 2HE	679.719	175.883	-640.615	 H	4	LYS4	0.113	
62	 3HE	680.080	177.210	-639.498	 H	4	LYS4	0.113	
63	 1HZ	677.710	176.655	-638.582	 H	4	LYS4	0.340	
64	 2HZ	677.844	177.539	-639.958	 H	4	LYS4	0.340	
65	 3HZ	677.557	175.892	-640.076	 H	4	LYS4	0.340	
66	   N	684.374	175.196	-636.549	N.am	5	SER5	-0.416	
67	  CA	685.243	176.368	-636.491	C.3	5	SER5	-0.025	
68	   C	686.601	176.063	-637.077	C.2	5	SER5	0.597	
69	   O	687.148	176.817	-637.882	O.2	5	SER5	-0.568	
70	  CB	685.354	176.900	-635.040	C.3	5	SER5	0.212	
71	  OG	686.086	176.021	-634.180	O.3	5	SER5	-0.655	
72	   H	683.957	174.825	-635.708	 H	5	SER5	0.272	
73	  HA	684.793	177.158	-637.120	 H	5	SER5	0.084	
74	 2HB	684.354	177.094	-634.607	 H	5	SER5	0.035	
75	 3HB	685.859	177.886	-635.043	 H	5	SER5	0.035	
76	  HG	685.598	175.196	-634.129	 H	5	SER5	0.428	
77	   N	687.207	174.980	-636.723	N.am	6	ILE6	-0.416	
78	  CA	688.520	174.686	-637.289	C.3	6	ILE6	-0.060	
79	   C	688.462	174.648	-638.797	C.2	6	ILE6	0.597	
80	   O	689.297	175.236	-639.501	O.2	6	ILE6	-0.568	
81	  CB	689.120	173.350	-636.689	C.3	6	ILE6	0.130	
82	 CG1	689.140	173.288	-635.128	C.3	6	ILE6	-0.043	
83	 CG2	690.562	173.048	-637.205	C.3	6	ILE6	-0.320	
84	 CD1	689.410	171.898	-634.514	C.3	6	ILE6	-0.066	
85	   H	686.779	174.346	-636.064	 H	6	ILE6	0.272	
86	  HA	689.194	175.520	-637.021	 H	6	ILE6	0.087	
87	  HB	688.463	172.524	-637.033	 H	6	ILE6	0.019	
88	2HG1	688.158	173.607	-634.732	 H	6	ILE6	0.024	
89	3HG1	689.855	174.030	-634.724	 H	6	ILE6	0.024	
90	1HG2	690.620	172.955	-638.303	 H	6	ILE6	0.088	
91	2HG2	691.283	173.831	-636.903	 H	6	ILE6	0.088	
92	3HG2	690.952	172.086	-636.826	 H	6	ILE6	0.088	
93	1HD1	688.682	171.144	-634.868	 H	6	ILE6	0.019	
94	2HD1	690.421	171.520	-634.749	 H	6	ILE6	0.019	
95	3HD1	689.334	171.928	-633.411	 H	6	ILE6	0.019	
96	   N	687.517	173.984	-639.371	N.am	7	LEU7	-0.416	
97	  CA	687.462	173.949	-640.829	C.3	7	LEU7	-0.052	
98	   C	687.389	175.344	-641.401	C.2	7	LEU7	0.597	
99	   O	688.109	175.707	-642.344	O.2	7	LEU7	-0.568	
100	  CB	686.259	173.088	-641.309	C.3	7	LEU7	-0.110	
101	  CG	686.186	171.609	-640.843	C.3	7	LEU7	0.353	
102	 CD1	684.997	170.902	-641.509	C.3	7	LEU7	-0.412	
103	 CD2	687.480	170.830	-641.135	C.3	7	LEU7	-0.412	
104	   H	686.825	173.497	-638.819	 H	7	LEU7	0.272	
105	  HA	688.404	173.509	-641.204	 H	7	LEU7	0.092	
106	 2HB	686.235	173.104	-642.417	 H	7	LEU7	0.046	
107	 3HB	685.319	173.591	-641.005	 H	7	LEU7	0.046	
108	  HG	686.017	171.600	-639.746	 H	7	LEU7	-0.036	
109	1HD1	684.039	171.411	-641.286	 H	7	LEU7	0.100	
110	2HD1	685.096	170.862	-642.610	 H	7	LEU7	0.100	
111	3HD1	684.890	169.861	-641.153	 H	7	LEU7	0.100	
112	1HD2	687.755	170.860	-642.205	 H	7	LEU7	0.100	
113	2HD2	688.333	171.241	-640.564	 H	7	LEU7	0.100	
114	3HD2	687.399	169.767	-640.839	 H	7	LEU7	0.100	
115	   N	686.551	176.184	-640.895	N.am	8	ASP8	-0.516	
116	  CA	686.480	177.534	-641.448	C.3	8	ASP8	0.038	
117	   C	687.827	178.214	-641.391	C.2	8	ASP8	0.537	
118	   O	688.299	178.819	-642.366	O.2	8	ASP8	-0.582	
119	  CB	685.402	178.372	-640.706	C.3	8	ASP8	-0.030	
120	  CG	685.183	179.793	-641.246	C.2	8	ASP8	0.799	
121	 OD1	685.247	179.992	-642.477	O.co2	8	ASP8	-0.801	
122	 OD2	684.990	180.719	-640.431	O.co2	8	ASP8	-0.801	
123	   H	685.954	175.913	-640.127	 H	8	ASP8	0.294	
124	  HA	686.197	177.456	-642.515	 H	8	ASP8	0.088	
125	 2HB	685.660	178.455	-639.634	 H	8	ASP8	-0.012	
126	 3HB	684.423	177.867	-640.739	 H	8	ASP8	-0.012	
127	   N	688.507	178.164	-640.296	N.am	9	GLU9	-0.516	
128	  CA	689.809	178.822	-640.241	C.3	9	GLU9	0.040	
129	   C	690.727	178.295	-641.317	C.2	9	GLU9	0.537	
130	   O	691.391	179.050	-642.042	O.2	9	GLU9	-0.582	
131	  CB	690.443	178.615	-638.835	C.3	9	GLU9	0.056	
132	  CG	691.825	179.308	-638.606	C.3	9	GLU9	0.014	
133	  CD	692.528	179.094	-637.278	C.2	9	GLU9	0.805	
134	 OE1	692.006	178.403	-636.382	O.co2	9	GLU9	-0.819	
135	 OE2	693.646	179.633	-637.146	O.co2	9	GLU9	-0.819	
136	   H	688.144	177.678	-639.489	 H	9	GLU9	0.294	
137	  HA	689.667	179.904	-640.416	 H	9	GLU9	0.111	
138	 2HB	690.556	177.530	-638.632	 H	9	GLU9	-0.017	
139	 3HB	689.746	178.968	-638.051	 H	9	GLU9	-0.017	
140	 2HG	691.753	180.398	-638.746	 H	9	GLU9	-0.043	
141	 3HG	692.572	178.963	-639.340	 H	9	GLU9	-0.043	
142	   N	690.824	177.020	-641.486	N.am	10	HIS10	-0.416	
143	  CA	691.712	176.509	-642.527	C.3	10	HIS10	-0.058	
144	   C	691.345	177.074	-643.878	C.2	10	HIS10	0.597	
145	   O	692.197	177.539	-644.650	O.2	10	HIS10	-0.568	
146	  CB	691.549	174.980	-642.522	C.3	10	HIS10	-0.007	
147	  CG	692.835	174.271	-642.214	C.2	10	HIS10	0.187	
148	 CD2	693.216	173.935	-640.922	C.2	10	HIS10	-0.221	
149	 ND1	693.787	173.865	-643.147	N.2	10	HIS10	-0.543	
150	 CE1	694.694	173.307	-642.324	C.2	10	HIS10	0.163	
151	 NE2	694.432	173.304	-640.989	N.pl3	10	HIS10	-0.280	
152	   H	690.294	176.384	-640.908	 H	10	HIS10	0.272	
153	  HA	692.731	176.867	-642.302	 H	10	HIS10	0.136	
154	 2HB	691.184	174.613	-643.502	 H	10	HIS10	0.037	
155	 3HB	690.794	174.643	-641.782	 H	10	HIS10	0.037	
156	 2HD	692.631	174.150	-640.032	 H	10	HIS10	0.186	
157	 1HE	695.585	172.887	-642.771	 H	10	HIS10	0.144	
158	 2HE	694.999	172.927	-640.215	 H	10	HIS10	0.334	
159	   N	690.107	177.072	-644.241	N.am	11	VAL11	-0.416	
160	  CA	689.752	177.618	-645.547	C.3	11	VAL11	-0.087	
161	   C	690.216	179.049	-645.680	C.2	11	VAL11	0.597	
162	   O	690.816	179.455	-646.683	O.2	11	VAL11	-0.568	
163	  CB	688.191	177.511	-645.767	C.3	11	VAL11	0.299	
164	 CG1	687.621	178.215	-647.029	C.3	11	VAL11	-0.319	
165	 CG2	687.667	176.056	-645.840	C.3	11	VAL11	-0.319	
166	   H	689.395	176.699	-643.630	 H	11	VAL11	0.272	
167	  HA	690.272	177.036	-646.330	 H	11	VAL11	0.097	
168	  HB	687.703	177.991	-644.891	 H	11	VAL11	-0.030	
169	1HG1	688.060	177.823	-647.966	 H	11	VAL11	0.079	
170	2HG1	686.523	178.107	-647.111	 H	11	VAL11	0.079	
171	3HG1	687.799	179.307	-647.020	 H	11	VAL11	0.079	
172	1HG2	687.957	175.469	-644.949	 H	11	VAL11	0.079	
173	2HG2	686.561	176.019	-645.882	 H	11	VAL11	0.079	
174	3HG2	688.049	175.516	-646.726	 H	11	VAL11	0.079	
175	   N	689.978	179.875	-644.717	N.am	12	GLN12	-0.416	
176	  CA	690.426	181.258	-644.844	C.3	12	GLN12	-0.003	
177	   C	691.916	181.326	-645.082	C.2	12	GLN12	0.597	
178	   O	692.402	182.035	-645.961	O.2	12	GLN12	-0.568	
179	  CB	690.035	182.025	-643.561	C.3	12	GLN12	-0.004	
180	  CG	690.394	183.547	-643.530	C.3	12	GLN12	-0.064	
181	  CD	690.091	184.360	-642.265	C.2	12	GLN12	0.695	
182	 NE2	689.525	183.783	-641.236	N.pl3	12	GLN12	-0.941	
183	 OE1	690.392	185.541	-642.187	O.2	12	GLN12	-0.609	
184	   H	689.490	179.568	-643.888	 H	12	GLN12	0.272	
185	  HA	689.926	181.714	-645.719	 H	12	GLN12	0.085	
186	 2HB	690.511	181.525	-642.692	 H	12	GLN12	0.017	
187	 3HB	688.944	181.917	-643.398	 H	12	GLN12	0.017	
188	 2HG	689.916	184.067	-644.380	 H	12	GLN12	0.035	
189	 3HG	691.477	183.690	-643.696	 H	12	GLN12	0.035	
190	1HE2	689.417	184.377	-640.412	 H	12	GLN12	0.425	
191	2HE2	689.362	182.779	-641.340	 H	12	GLN12	0.425	
192	   N	692.701	180.620	-644.342	N.am	13	ARG13	-0.348	
193	  CA	694.141	180.686	-644.572	C.3	13	ARG13	-0.264	
194	   C	694.477	180.315	-645.997	C.2	13	ARG13	0.734	
195	   O	695.245	180.987	-646.682	O.2	13	ARG13	-0.589	
196	  CB	694.855	179.747	-643.559	C.3	13	ARG13	-0.001	
197	  CG	696.400	179.901	-643.478	C.3	13	ARG13	0.039	
198	  CD	697.027	178.914	-642.480	C.3	13	ARG13	0.049	
199	  NE	698.504	179.122	-642.430	N.pl3	13	ARG13	-0.530	
200	  CZ	699.353	178.430	-641.675	C.cat	13	ARG13	0.808	
201	 NH1	698.988	177.466	-640.878	N.pl3	13	ARG13	-0.863	
202	 NH2	700.612	178.730	-641.732	N.pl3	13	ARG13	-0.863	
203	   H	692.325	180.029	-643.613	 H	13	ARG13	0.275	
204	  HA	694.465	181.732	-644.414	 H	13	ARG13	0.156	
205	 2HB	694.589	178.697	-643.798	 H	13	ARG13	0.033	
206	 3HB	694.430	179.914	-642.548	 H	13	ARG13	0.033	
207	 2HG	696.647	180.946	-643.198	 H	13	ARG13	0.029	
208	 3HG	696.850	179.746	-644.479	 H	13	ARG13	0.029	
209	 2HD	696.784	177.874	-642.790	 H	13	ARG13	0.069	
210	 3HD	696.571	179.059	-641.478	 H	13	ARG13	0.069	
211	  HE	698.955	179.844	-643.000	 H	13	ARG13	0.346	
212	1HH1	697.983	177.279	-640.881	 H	13	ARG13	0.448	
213	2HH1	699.702	176.983	-640.329	 H	13	ARG13	0.448	
214	1HH2	700.879	179.488	-642.363	 H	13	ARG13	0.448	
215	2HH2	701.248	178.189	-641.143	 H	13	ARG13	0.448	
216	   N	693.941	179.261	-646.512	N.am	14	VAL14	-0.416	
217	  CA	694.266	178.902	-647.890	C.3	14	VAL14	-0.087	
218	   C	693.935	180.032	-648.835	C.2	14	VAL14	0.597	
219	   O	694.728	180.414	-649.705	O.2	14	VAL14	-0.568	
220	  CB	693.495	177.584	-648.297	C.3	14	VAL14	0.299	
221	 CG1	693.584	177.167	-649.790	C.3	14	VAL14	-0.319	
222	 CG2	693.927	176.332	-647.497	C.3	14	VAL14	-0.319	
223	   H	693.307	178.692	-645.970	 H	14	VAL14	0.272	
224	  HA	695.355	178.726	-647.965	 H	14	VAL14	0.097	
225	  HB	692.418	177.755	-648.081	 H	14	VAL14	-0.030	
226	1HG1	694.625	176.990	-650.120	 H	14	VAL14	0.079	
227	2HG1	693.011	176.243	-650.003	 H	14	VAL14	0.079	
228	3HG1	693.154	177.929	-650.468	 H	14	VAL14	0.079	
229	1HG2	693.840	176.490	-646.406	 H	14	VAL14	0.079	
230	2HG2	693.292	175.456	-647.729	 H	14	VAL14	0.079	
231	3HG2	694.975	176.043	-647.703	 H	14	VAL14	0.079	
232	   N	692.790	180.617	-648.733	N.am	15	MET15	-0.416	
233	  CA	692.469	181.710	-649.646	C.3	15	MET15	-0.024	
234	   C	693.499	182.810	-649.558	C.2	15	MET15	0.597	
235	   O	694.001	183.322	-650.571	O.2	15	MET15	-0.568	
236	  CB	691.048	182.255	-649.337	C.3	15	MET15	0.034	
237	  CG	689.886	181.256	-649.528	C.3	15	MET15	0.002	
238	  SD	688.312	182.121	-649.413	S.3	15	MET15	-0.274	
239	  CE	687.231	180.691	-649.277	C.3	15	MET15	-0.054	
240	   H	692.126	180.324	-648.031	 H	15	MET15	0.272	
241	  HA	692.495	181.323	-650.682	 H	15	MET15	0.088	
242	 2HB	690.845	183.134	-649.978	 H	15	MET15	0.024	
243	 3HB	691.012	182.647	-648.300	 H	15	MET15	0.024	
244	 2HG	689.930	180.470	-648.751	 H	15	MET15	0.044	
245	 3HG	689.949	180.741	-650.505	 H	15	MET15	0.044	
246	 1HE	687.375	180.003	-650.130	 H	15	MET15	0.068	
247	 2HE	687.441	180.138	-648.344	 H	15	MET15	0.068	
248	 3HE	686.174	181.006	-649.260	 H	15	MET15	0.068	
249	   N	693.868	183.231	-648.396	N.am	16	ARG16	-0.348	
250	  CA	694.864	184.296	-648.312	C.3	16	ARG16	-0.264	
251	   C	696.134	183.904	-649.029	C.2	16	ARG16	0.734	
252	   O	696.249	182.827	-649.610	O.2	16	ARG16	-0.589	
253	  CB	695.133	184.613	-646.814	C.3	16	ARG16	-0.001	
254	  CG	695.957	185.902	-646.541	C.3	16	ARG16	0.039	
255	  CD	696.207	186.122	-645.040	C.3	16	ARG16	0.049	
256	  NE	696.983	187.381	-644.838	N.pl3	16	ARG16	-0.530	
257	  CZ	697.374	187.863	-643.663	C.cat	16	ARG16	0.808	
258	 NH1	697.127	187.278	-642.524	N.pl3	16	ARG16	-0.863	
259	 NH2	698.037	188.976	-643.644	N.pl3	16	ARG16	-0.863	
260	   H	693.473	182.831	-647.557	 H	16	ARG16	0.275	
261	  HA	694.454	185.188	-648.822	 H	16	ARG16	0.156	
262	 2HB	695.630	183.737	-646.348	 H	16	ARG16	0.033	
263	 3HB	694.164	184.694	-646.280	 H	16	ARG16	0.033	
264	 2HG	695.427	186.773	-646.978	 H	16	ARG16	0.029	
265	 3HG	696.931	185.850	-647.070	 H	16	ARG16	0.029	
266	 2HD	696.756	185.247	-644.627	 H	16	ARG16	0.069	
267	 3HD	695.234	186.164	-644.504	 H	16	ARG16	0.069	
268	  HE	697.261	187.962	-645.635	 H	16	ARG16	0.346	
269	1HH1	696.602	186.405	-642.609	 H	16	ARG16	0.448	
270	2HH1	697.461	187.714	-641.663	 H	16	ARG16	0.448	
271	1HH2	698.223	189.419	-644.546	 H	16	ARG16	0.448	
272	2HH2	698.328	189.331	-642.731	 H	16	ARG16	0.448	
@<TRIPOS>BOND
1 1 2 1
2 1 10 1
3 2 3 1
4 2 5 1
5 2 11 1
6 3 4 2
7 3 16 1
8 5 6 1
9 6 7 1
10 7 8 2
11 7 9 1
12 5 12 1
13 5 13 1
14 6 14 1
15 6 15 1
16 16 17 1
17 16 24 1
18 17 18 1
19 17 20 1
20 17 25 1
21 18 19 2
22 18 30 1
23 20 21 1
24 21 22 1
25 21 23 2
26 20 26 1
27 20 27 1
28 22 28 1
29 22 29 1
30 30 31 1
31 30 36 1
32 31 32 1
33 31 34 1
34 31 37 1
35 32 33 2
36 32 44 1
37 34 35 1
38 35 36 1
39 34 38 1
40 34 39 1
41 35 40 1
42 35 41 1
43 36 42 1
44 36 43 1
45 44 45 1
46 44 53 1
47 45 46 1
48 45 48 1
49 45 54 1
50 46 47 2
51 46 66 1
52 48 49 1
53 49 50 1
54 50 51 1
55 51 52 1
56 52 65 1
57 48 55 1
58 48 56 1
59 49 57 1
60 49 58 1
61 50 59 1
62 50 60 1
63 51 61 1
64 51 62 1
65 52 63 1
66 52 64 1
67 66 67 1
68 66 72 1
69 67 68 1
70 67 70 1
71 67 73 1
72 68 69 2
73 68 77 1
74 70 71 1
75 70 74 1
76 70 75 1
77 71 76 1
78 77 78 1
79 77 85 1
80 78 79 1
81 78 81 1
82 78 86 1
83 79 80 2
84 79 96 1
85 81 82 1
86 81 83 1
87 82 84 1
88 81 87 1
89 82 88 1
90 82 89 1
91 83 90 1
92 83 91 1
93 83 92 1
94 84 93 1
95 84 94 1
96 84 95 1
97 96 97 1
98 96 104 1
99 97 98 1
100 97 100 1
101 97 105 1
102 98 99 2
103 98 115 1
104 100 101 1
105 101 102 1
106 101 103 1
107 100 106 1
108 100 107 1
109 101 108 1
110 102 109 1
111 102 110 1
112 102 111 1
113 103 112 1
114 103 113 1
115 103 114 1
116 115 116 1
117 115 123 1
118 116 117 1
119 116 119 1
120 116 124 1
121 117 118 2
122 117 127 1
123 119 120 1
124 120 121 2
125 120 122 1
126 119 125 1
127 119 126 1
128 127 128 1
129 127 136 1
130 128 129 1
131 128 131 1
132 128 137 1
133 129 130 2
134 129 142 1
135 131 132 1
136 132 133 1
137 133 134 2
138 133 135 1
139 131 138 1
140 131 139 1
141 132 140 1
142 132 141 1
143 142 143 1
144 142 152 1
145 143 144 1
146 143 146 1
147 143 153 1
148 144 145 2
149 144 159 1
150 146 147 1
151 147 148 2
152 148 151 1
153 147 149 1
154 149 150 2
155 150 151 1
156 146 154 1
157 146 155 1
158 148 156 1
159 150 157 1
160 151 158 1
161 159 160 1
162 159 166 1
163 160 161 1
164 160 163 1
165 160 167 1
166 161 162 2
167 161 175 1
168 163 164 1
169 163 165 1
170 163 168 1
171 164 169 1
172 164 170 1
173 164 171 1
174 165 172 1
175 165 173 1
176 165 174 1
177 175 176 1
178 175 184 1
179 176 177 1
180 176 179 1
181 176 185 1
182 177 178 2
183 177 192 1
184 179 180 1
185 180 181 1
186 181 182 1
187 181 183 2
188 179 186 1
189 179 187 1
190 180 188 1
191 180 189 1
192 182 190 1
193 182 191 1
194 192 193 1
195 192 203 1
196 193 194 1
197 193 196 1
198 193 204 1
199 194 195 2
200 194 216 1
201 196 197 1
202 197 198 1
203 198 199 1
204 199 200 1
205 200 201 2
206 200 202 1
207 196 205 1
208 196 206 1
209 197 207 1
210 197 208 1
211 198 209 1
212 198 210 1
213 199 211 1
214 201 212 1
215 201 213 1
216 202 214 1
217 202 215 1
218 216 217 1
219 216 223 1
220 217 218 1
221 217 220 1
222 217 224 1
223 218 219 2
224 218 232 1
225 220 221 1
226 220 222 1
227 220 225 1
228 221 226 1
229 221 227 1
230 221 228 1
231 222 229 1
232 222 230 1
233 222 231 1
234 232 233 1
235 232 240 1
236 233 234 1
237 233 236 1
238 233 241 1
239 234 235 2
240 234 249 1
241 236 237 1
242 237 238 1
243 238 239 1
244 236 242 1
245 236 243 1
246 237 244 1
247 237 245 1
248 239 246 1
249 239 247 1
250 239 248 1
251 249 250 1
252 249 260 1
253 250 251 1
254 250 253 1
255 250 261 1
256 251 252 2
257 253 254 1
258 254 255 1
259 255 256 1
260 256 257 1
261 257 258 2
262 257 259 1
263 253 262 1
264 253 263 1
265 254 264 1
266 254 265 1
267 255 266 1
268 255 267 1
269 256 268 1
270 258 269 1
271 258 270 1
272 259 271 1
273 259 272 1
@<TRIPOS>SUBSTRUCTURE
1	GLU1	1	RESIDUE	1 ****	GLU
2	ASN2	16	RESIDUE	1 ****	ASN
3	PRO3	30	RESIDUE	1 ****	PRO
4	LYS4	44	RESIDUE	1 ****	LYS
5	SER5	66	RESIDUE	1 ****	SER
6	ILE6	77	RESIDUE	1 ****	ILE
7	LEU7	96	RESIDUE	1 ****	LEU
8	ASP8	115	RESIDUE	1 ****	ASP
9	GLU9	127	RESIDUE	1 ****	GLU
10	HIS10	142	RESIDUE	1 ****	HIS
11	VAL11	159	RESIDUE	1 ****	VAL
12	GLN12	175	RESIDUE	1 ****	GLN
13	ARG13	192	RESIDUE	1 ****	ARG
14	VAL14	216	RESIDUE	1 ****	VAL
15	MET15	232	RESIDUE	1 ****	MET
16	ARG16	249	RESIDUE	1 ****	ARG
