@<TRIPOS>MOLECULE
16-11
258 260 16              
SMALL
USER_CHARGES
@<TRIPOS>ATOM
1	   N	2577.908	791.007	-2692.964	N.3	1	GLU1	-0.516	
2	  CA	2578.468	792.356	-2692.964	C.3	1	GLU1	0.040	
3	   C	2579.977	792.316	-2692.964	C.2	1	GLU1	0.537	
4	   O	2580.652	793.015	-2693.732	O.2	1	GLU1	-0.582	
5	  CB	2577.944	793.141	-2691.727	C.3	1	GLU1	0.056	
6	  CG	2578.419	794.626	-2691.616	C.3	1	GLU1	0.014	
7	  CD	2577.995	795.430	-2690.401	C.2	1	GLU1	0.805	
8	 OE1	2577.267	794.928	-2689.523	O.co2	1	GLU1	-0.819	
9	 OE2	2578.426	796.600	-2690.329	O.co2	1	GLU1	-0.819	
10	   H	2578.535	790.128	-2692.964	 H	1	GLU1	0.294	
11	  HA	2578.141	792.874	-2693.884	 H	1	GLU1	0.111	
12	 2HB	2578.233	792.610	-2690.797	 H	1	GLU1	-0.017	
13	 3HB	2576.837	793.131	-2691.714	 H	1	GLU1	-0.017	
14	 2HG	2578.109	795.211	-2692.497	 H	1	GLU1	-0.043	
15	 3HG	2579.520	794.693	-2691.587	 H	1	GLU1	-0.043	
16	   N	2580.581	791.530	-2692.138	N.am	2	ASN2	-0.416	
17	  CA	2582.040	791.491	-2692.138	C.3	2	ASN2	0.014	
18	   C	2582.572	791.135	-2693.507	C.2	2	ASN2	0.597	
19	   O	2583.487	791.766	-2694.035	O.2	2	ASN2	-0.568	
20	  CB	2582.532	790.468	-2691.074	C.3	2	ASN2	-0.204	
21	  CG	2582.069	790.692	-2689.631	C.2	2	ASN2	0.713	
22	 ND2	2582.663	791.607	-2688.912	N.pl3	2	ASN2	-0.919	
23	 OD1	2581.147	790.058	-2689.136	O.2	2	ASN2	-0.593	
24	   H	2580.053	790.950	-2691.502	 H	2	ASN2	0.272	
25	  HA	2582.418	792.501	-2691.893	 H	2	ASN2	0.105	
26	 2HB	2583.636	790.409	-2691.077	 H	2	ASN2	0.080	
27	 3HB	2582.203	789.450	-2691.360	 H	2	ASN2	0.080	
28	1HD2	2582.182	791.780	-2688.026	 H	2	ASN2	0.420	
29	2HD2	2583.365	792.178	-2689.381	 H	2	ASN2	0.420	
30	   N	2582.050	790.141	-2694.141	N.am	3	PRO3	-0.255	
31	  CA	2582.502	789.731	-2695.462	C.3	3	PRO3	-0.027	
32	   C	2582.105	790.755	-2696.540	C.2	3	PRO3	0.590	
33	   O	2582.928	791.138	-2697.371	O.2	3	PRO3	-0.575	
34	  CB	2581.798	788.377	-2695.632	C.3	3	PRO3	-0.007	
35	  CG	2580.514	788.529	-2694.802	C.3	3	PRO3	0.019	
36	  CD	2580.972	789.348	-2693.592	C.3	3	PRO3	0.019	
37	  HA	2583.588	789.611	-2695.476	 H	3	PRO3	0.064	
38	 2HB	2582.421	787.595	-2695.191	 H	3	PRO3	0.025	
39	 3HB	2581.600	788.128	-2696.677	 H	3	PRO3	0.025	
40	 2HG	2580.087	787.567	-2694.511	 H	3	PRO3	0.021	
41	 3HG	2579.777	789.100	-2695.370	 H	3	PRO3	0.021	
42	 2HD	2581.361	788.698	-2692.805	 H	3	PRO3	0.039	
43	 3HD	2580.175	789.983	-2693.200	 H	3	PRO3	0.039	
44	   N	2580.900	791.215	-2696.572	N.am	4	GLU4	-0.516	
45	  CA	2580.541	792.186	-2697.602	C.3	4	GLU4	0.040	
46	   C	2581.440	793.397	-2697.541	C.2	4	GLU4	0.537	
47	   O	2581.967	793.876	-2698.555	O.2	4	GLU4	-0.582	
48	  CB	2579.052	792.605	-2697.432	C.3	4	GLU4	0.056	
49	  CG	2578.505	793.609	-2698.498	C.3	4	GLU4	0.014	
50	  CD	2577.078	794.106	-2698.355	C.2	4	GLU4	0.805	
51	 OE1	2576.352	793.708	-2697.425	O.co2	4	GLU4	-0.819	
52	 OE2	2576.689	794.935	-2699.204	O.co2	4	GLU4	-0.819	
53	   H	2580.215	790.909	-2695.896	 H	4	GLU4	0.294	
54	  HA	2580.672	791.716	-2698.593	 H	4	GLU4	0.111	
55	 2HB	2578.899	793.045	-2696.426	 H	4	GLU4	-0.017	
56	 3HB	2578.404	791.707	-2697.439	 H	4	GLU4	-0.017	
57	 2HG	2578.587	793.194	-2699.516	 H	4	GLU4	-0.043	
58	 3HG	2579.093	794.541	-2698.509	 H	4	GLU4	-0.043	
59	   N	2581.667	793.949	-2696.397	N.am	5	SER5	-0.416	
60	  CA	2582.537	795.120	-2696.338	C.3	5	SER5	-0.025	
61	   C	2583.896	794.814	-2696.924	C.2	5	SER5	0.597	
62	   O	2584.444	795.568	-2697.728	O.2	5	SER5	-0.568	
63	  CB	2582.648	795.653	-2694.888	C.3	5	SER5	0.212	
64	  OG	2583.379	794.773	-2694.027	O.3	5	SER5	-0.655	
65	   H	2581.250	793.578	-2695.556	 H	5	SER5	0.272	
66	  HA	2582.088	795.911	-2696.968	 H	5	SER5	0.084	
67	 2HB	2581.648	795.847	-2694.455	 H	5	SER5	0.035	
68	 3HB	2583.154	796.638	-2694.890	 H	5	SER5	0.035	
69	  HG	2582.890	793.948	-2693.976	 H	5	SER5	0.428	
70	   N	2584.500	793.731	-2696.569	N.am	6	ILE6	-0.416	
71	  CA	2585.813	793.436	-2697.135	C.3	6	ILE6	-0.060	
72	   C	2585.756	793.398	-2698.643	C.2	6	ILE6	0.597	
73	   O	2586.591	793.985	-2699.347	O.2	6	ILE6	-0.568	
74	  CB	2586.412	792.099	-2696.535	C.3	6	ILE6	0.130	
75	 CG1	2586.431	792.037	-2694.974	C.3	6	ILE6	-0.043	
76	 CG2	2587.854	791.797	-2697.050	C.3	6	ILE6	-0.320	
77	 CD1	2586.701	790.648	-2694.359	C.3	6	ILE6	-0.066	
78	   H	2584.071	793.097	-2695.911	 H	6	ILE6	0.272	
79	  HA	2586.488	794.270	-2696.867	 H	6	ILE6	0.087	
80	  HB	2585.754	791.273	-2696.879	 H	6	ILE6	0.019	
81	2HG1	2585.449	792.357	-2694.578	 H	6	ILE6	0.024	
82	3HG1	2587.147	792.779	-2694.569	 H	6	ILE6	0.024	
83	1HG2	2587.913	791.703	-2698.148	 H	6	ILE6	0.088	
84	2HG2	2588.576	792.579	-2696.747	 H	6	ILE6	0.088	
85	3HG2	2588.243	790.835	-2696.671	 H	6	ILE6	0.088	
86	1HD1	2585.972	789.894	-2694.714	 H	6	ILE6	0.019	
87	2HD1	2587.711	790.269	-2694.594	 H	6	ILE6	0.019	
88	3HD1	2586.624	790.678	-2693.256	 H	6	ILE6	0.019	
89	   N	2584.810	792.735	-2699.217	N.am	7	LEU7	-0.416	
90	  CA	2584.755	792.699	-2700.675	C.3	7	LEU7	-0.052	
91	   C	2584.683	794.094	-2701.248	C.2	7	LEU7	0.597	
92	   O	2585.404	794.456	-2702.190	O.2	7	LEU7	-0.568	
93	  CB	2583.552	791.839	-2701.156	C.3	7	LEU7	-0.110	
94	  CG	2583.479	790.359	-2700.689	C.3	7	LEU7	0.353	
95	 CD1	2582.289	789.654	-2701.354	C.3	7	LEU7	-0.412	
96	 CD2	2584.772	789.580	-2700.980	C.3	7	LEU7	-0.412	
97	   H	2584.118	792.248	-2698.665	 H	7	LEU7	0.272	
98	  HA	2585.697	792.258	-2701.050	 H	7	LEU7	0.092	
99	 2HB	2583.529	791.855	-2702.263	 H	7	LEU7	0.046	
100	 3HB	2582.612	792.342	-2700.852	 H	7	LEU7	0.046	
101	  HG	2583.309	790.352	-2699.592	 H	7	LEU7	-0.036	
102	1HD1	2581.331	790.163	-2701.132	 H	7	LEU7	0.100	
103	2HD1	2582.388	789.613	-2702.456	 H	7	LEU7	0.100	
104	3HD1	2582.181	788.613	-2700.998	 H	7	LEU7	0.100	
105	1HD2	2585.047	789.610	-2702.050	 H	7	LEU7	0.100	
106	2HD2	2585.625	789.991	-2700.409	 H	7	LEU7	0.100	
107	3HD2	2584.690	788.518	-2700.684	 H	7	LEU7	0.100	
108	   N	2583.846	794.935	-2700.742	N.am	8	ASP8	-0.516	
109	  CA	2583.776	796.284	-2701.296	C.3	8	ASP8	0.038	
110	   C	2585.124	796.964	-2701.240	C.2	8	ASP8	0.537	
111	   O	2585.596	797.568	-2702.215	O.2	8	ASP8	-0.582	
112	  CB	2582.699	797.124	-2700.555	C.3	8	ASP8	-0.030	
113	  CG	2582.481	798.545	-2701.096	C.2	8	ASP8	0.799	
114	 OD1	2582.545	798.743	-2702.327	O.co2	8	ASP8	-0.801	
115	 OD2	2582.289	799.471	-2700.282	O.co2	8	ASP8	-0.801	
116	   H	2583.248	794.665	-2699.974	 H	8	ASP8	0.294	
117	  HA	2583.493	796.206	-2702.363	 H	8	ASP8	0.088	
118	 2HB	2582.956	797.208	-2699.483	 H	8	ASP8	-0.012	
119	 3HB	2581.719	796.620	-2700.588	 H	8	ASP8	-0.012	
120	   N	2585.803	796.914	-2700.144	N.am	9	GLU9	-0.516	
121	  CA	2587.107	797.571	-2700.090	C.3	9	GLU9	0.040	
122	   C	2588.024	797.042	-2701.166	C.2	9	GLU9	0.537	
123	   O	2588.688	797.796	-2701.892	O.2	9	GLU9	-0.582	
124	  CB	2587.740	797.364	-2698.684	C.3	9	GLU9	0.056	
125	  CG	2589.123	798.055	-2698.456	C.3	9	GLU9	0.014	
126	  CD	2589.825	797.842	-2697.127	C.2	9	GLU9	0.805	
127	 OE1	2589.303	797.152	-2696.230	O.co2	9	GLU9	-0.819	
128	 OE2	2590.945	798.380	-2696.996	O.co2	9	GLU9	-0.819	
129	   H	2585.440	796.428	-2699.337	 H	9	GLU9	0.294	
130	  HA	2586.965	798.653	-2700.265	 H	9	GLU9	0.111	
131	 2HB	2587.853	796.279	-2698.480	 H	9	GLU9	-0.017	
132	 3HB	2587.043	797.718	-2697.900	 H	9	GLU9	-0.017	
133	 2HG	2589.052	799.146	-2698.596	 H	9	GLU9	-0.043	
134	 3HG	2589.870	797.710	-2699.189	 H	9	GLU9	-0.043	
135	   N	2588.120	795.767	-2701.334	N.am	10	HIS10	-0.416	
136	  CA	2589.007	795.255	-2702.375	C.3	10	HIS10	-0.058	
137	   C	2588.640	795.819	-2703.726	C.2	10	HIS10	0.597	
138	   O	2589.493	796.283	-2704.498	O.2	10	HIS10	-0.568	
139	  CB	2588.843	793.726	-2702.369	C.3	10	HIS10	-0.007	
140	  CG	2590.128	793.015	-2702.061	C.2	10	HIS10	0.187	
141	 CD2	2590.510	792.681	-2700.769	C.2	10	HIS10	-0.221	
142	 ND1	2591.080	792.608	-2702.994	N.2	10	HIS10	-0.543	
143	 CE1	2591.986	792.050	-2702.170	C.2	10	HIS10	0.163	
144	 NE2	2591.724	792.048	-2700.835	N.pl3	10	HIS10	-0.280	
145	   H	2587.589	795.132	-2700.755	 H	10	HIS10	0.272	
146	  HA	2590.027	795.612	-2702.150	 H	10	HIS10	0.136	
147	 2HB	2588.477	793.359	-2703.349	 H	10	HIS10	0.037	
148	 3HB	2588.087	793.390	-2701.628	 H	10	HIS10	0.037	
149	 2HD	2589.924	792.896	-2699.879	 H	10	HIS10	0.186	
150	 1HE	2592.877	791.629	-2702.618	 H	10	HIS10	0.144	
151	 2HE	2592.291	791.671	-2700.062	 H	10	HIS10	0.334	
152	   N	2587.403	795.818	-2704.089	N.am	11	VAL11	-0.416	
153	  CA	2587.047	796.364	-2705.396	C.3	11	VAL11	-0.087	
154	   C	2587.513	797.794	-2705.529	C.2	11	VAL11	0.597	
155	   O	2588.114	798.198	-2706.532	O.2	11	VAL11	-0.568	
156	  CB	2585.486	796.258	-2705.615	C.3	11	VAL11	0.299	
157	 CG1	2584.918	796.961	-2706.878	C.3	11	VAL11	-0.319	
158	 CG2	2584.961	794.804	-2705.687	C.3	11	VAL11	-0.319	
159	   H	2586.689	795.446	-2703.478	 H	11	VAL11	0.272	
160	  HA	2587.567	795.781	-2706.178	 H	11	VAL11	0.097	
161	  HB	2584.999	796.739	-2704.740	 H	11	VAL11	-0.030	
162	1HG1	2585.356	796.569	-2707.815	 H	11	VAL11	0.079	
163	2HG1	2583.819	796.855	-2706.960	 H	11	VAL11	0.079	
164	3HG1	2585.096	798.054	-2706.869	 H	11	VAL11	0.079	
165	1HG2	2585.250	794.217	-2704.796	 H	11	VAL11	0.079	
166	2HG2	2583.855	794.768	-2705.730	 H	11	VAL11	0.079	
167	3HG2	2585.342	794.262	-2706.573	 H	11	VAL11	0.079	
168	   N	2587.276	798.620	-2704.567	N.am	12	GLN12	-0.416	
169	  CA	2587.726	800.003	-2704.695	C.3	12	GLN12	-0.003	
170	   C	2589.215	800.070	-2704.933	C.2	12	GLN12	0.597	
171	   O	2589.703	800.777	-2705.812	O.2	12	GLN12	-0.568	
172	  CB	2587.335	800.771	-2703.413	C.3	12	GLN12	-0.004	
173	  CG	2587.697	802.293	-2703.383	C.3	12	GLN12	-0.064	
174	  CD	2587.395	803.107	-2702.118	C.2	12	GLN12	0.695	
175	 NE2	2586.828	802.532	-2701.089	N.pl3	12	GLN12	-0.941	
176	 OE1	2587.698	804.288	-2702.041	O.2	12	GLN12	-0.609	
177	   H	2586.788	798.315	-2703.738	 H	12	GLN12	0.272	
178	  HA	2587.226	800.459	-2705.570	 H	12	GLN12	0.085	
179	 2HB	2587.811	800.271	-2702.543	 H	12	GLN12	0.017	
180	 3HB	2586.245	800.665	-2703.249	 H	12	GLN12	0.017	
181	 2HG	2587.219	802.814	-2704.233	 H	12	GLN12	0.035	
182	 3HG	2588.780	802.435	-2703.549	 H	12	GLN12	0.035	
183	1HE2	2586.721	803.127	-2700.266	 H	12	GLN12	0.425	
184	2HE2	2586.664	801.528	-2701.192	 H	12	GLN12	0.425	
185	   N	2590.000	799.363	-2704.192	N.am	13	ARG13	-0.348	
186	  CA	2591.440	799.428	-2704.423	C.3	13	ARG13	-0.264	
187	   C	2591.776	799.055	-2705.848	C.2	13	ARG13	0.734	
188	   O	2592.545	799.727	-2706.533	O.2	13	ARG13	-0.589	
189	  CB	2592.153	798.490	-2703.409	C.3	13	ARG13	-0.001	
190	  CG	2593.698	798.642	-2703.329	C.3	13	ARG13	0.039	
191	  CD	2594.325	797.655	-2702.330	C.3	13	ARG13	0.049	
192	  NE	2595.802	797.862	-2702.280	N.pl3	13	ARG13	-0.530	
193	  CZ	2596.651	797.171	-2701.525	C.cat	13	ARG13	0.808	
194	 NH1	2596.286	796.207	-2700.727	N.pl3	13	ARG13	-0.863	
195	 NH2	2597.910	797.469	-2701.582	N.pl3	13	ARG13	-0.863	
196	   H	2589.624	798.774	-2703.463	 H	13	ARG13	0.275	
197	  HA	2591.765	800.474	-2704.266	 H	13	ARG13	0.156	
198	 2HB	2591.887	797.439	-2703.647	 H	13	ARG13	0.033	
199	 3HB	2591.729	798.657	-2702.398	 H	13	ARG13	0.033	
200	 2HG	2593.947	799.687	-2703.050	 H	13	ARG13	0.029	
201	 3HG	2594.149	798.485	-2704.330	 H	13	ARG13	0.029	
202	 2HD	2594.081	796.615	-2702.638	 H	13	ARG13	0.069	
203	 3HD	2593.870	797.802	-2701.328	 H	13	ARG13	0.069	
204	  HE	2596.254	798.584	-2702.852	 H	13	ARG13	0.346	
205	1HH1	2595.280	796.021	-2700.729	 H	13	ARG13	0.448	
206	2HH1	2596.999	795.724	-2700.178	 H	13	ARG13	0.448	
207	1HH2	2598.178	798.227	-2702.214	 H	13	ARG13	0.448	
208	2HH2	2598.546	796.928	-2700.994	 H	13	ARG13	0.448	
209	   N	2591.239	798.001	-2706.362	N.am	14	VAL14	-0.416	
210	  CA	2591.564	797.641	-2707.739	C.3	14	VAL14	-0.087	
211	   C	2591.234	798.770	-2708.685	C.2	14	VAL14	0.597	
212	   O	2592.027	799.151	-2709.555	O.2	14	VAL14	-0.568	
213	  CB	2590.791	796.324	-2708.145	C.3	14	VAL14	0.299	
214	 CG1	2590.879	795.904	-2709.639	C.3	14	VAL14	-0.319	
215	 CG2	2591.222	795.072	-2707.344	C.3	14	VAL14	-0.319	
216	   H	2590.604	797.433	-2705.819	 H	14	VAL14	0.272	
217	  HA	2592.652	797.463	-2707.814	 H	14	VAL14	0.097	
218	  HB	2589.715	796.495	-2707.929	 H	14	VAL14	-0.030	
219	1HG1	2591.921	795.727	-2709.968	 H	14	VAL14	0.079	
220	2HG1	2590.306	794.981	-2709.850	 H	14	VAL14	0.079	
221	3HG1	2590.450	796.666	-2710.317	 H	14	VAL14	0.079	
222	1HG2	2591.135	795.231	-2706.254	 H	14	VAL14	0.079	
223	2HG2	2590.586	794.195	-2707.576	 H	14	VAL14	0.079	
224	3HG2	2592.270	794.781	-2707.550	 H	14	VAL14	0.079	
225	   N	2590.089	799.356	-2708.583	N.am	15	MET15	-0.416	
226	  CA	2589.769	800.449	-2709.498	C.3	15	MET15	-0.024	
227	   C	2590.799	801.549	-2709.410	C.2	15	MET15	0.597	
228	   O	2591.302	802.059	-2710.423	O.2	15	MET15	-0.568	
229	  CB	2588.348	800.995	-2709.188	C.3	15	MET15	0.034	
230	  CG	2587.185	799.997	-2709.379	C.3	15	MET15	0.002	
231	  SD	2585.612	800.863	-2709.265	S.3	15	MET15	-0.274	
232	  CE	2584.531	799.434	-2709.128	C.3	15	MET15	-0.054	
233	   H	2589.424	799.064	-2707.882	 H	15	MET15	0.272	
234	  HA	2589.794	800.061	-2710.533	 H	15	MET15	0.088	
235	 2HB	2588.145	801.873	-2709.831	 H	15	MET15	0.024	
236	 3HB	2588.312	801.388	-2708.152	 H	15	MET15	0.024	
237	 2HG	2587.229	799.211	-2708.602	 H	15	MET15	0.044	
238	 3HG	2587.248	799.481	-2710.355	 H	15	MET15	0.044	
239	 1HE	2584.674	798.745	-2709.980	 H	15	MET15	0.068	
240	 2HE	2584.740	798.881	-2708.195	 H	15	MET15	0.068	
241	 3HE	2583.473	799.749	-2709.111	 H	15	MET15	0.068	
242	   N	2591.168	801.970	-2708.248	N.am	16	HIS16	-0.416	
243	  CA	2592.165	803.034	-2708.164	C.3	16	HIS16	-0.058	
244	   C	2593.436	802.644	-2708.878	C.2	16	HIS16	0.597	
245	   O	2593.561	801.548	-2709.446	O.2	16	HIS16	-0.568	
246	  CB	2592.438	803.253	-2706.666	C.3	16	HIS16	-0.007	
247	  CG	2592.100	804.647	-2706.224	C.2	16	HIS16	0.187	
248	 CD2	2590.846	804.999	-2705.742	C.2	16	HIS16	-0.221	
249	 ND1	2592.966	805.739	-2706.234	N.2	16	HIS16	-0.543	
250	 CE1	2592.145	806.689	-2705.750	C.2	16	HIS16	0.163	
251	 NE2	2590.871	806.333	-2705.430	N.pl3	16	HIS16	-0.280	
252	   H	2590.773	801.570	-2707.409	 H	16	HIS16	0.272	
253	  HA	2591.761	803.913	-2708.695	 H	16	HIS16	0.136	
254	 2HB	2593.502	803.066	-2706.421	 H	16	HIS16	0.037	
255	 3HB	2591.862	802.550	-2706.029	 H	16	HIS16	0.037	
256	 2HD	2590.011	804.312	-2705.642	 H	16	HIS16	0.186	
257	 1HE	2592.546	807.688	-2705.639	 H	16	HIS16	0.144	
258	 2HE	2590.110	806.915	-2705.051	 H	16	HIS16	0.334	
@<TRIPOS>BOND
1 1 2 1
2 1 10 1
3 2 3 1
4 2 5 1
5 2 11 1
6 3 4 2
7 3 16 1
8 5 6 1
9 6 7 1
10 7 8 2
11 7 9 1
12 5 12 1
13 5 13 1
14 6 14 1
15 6 15 1
16 16 17 1
17 16 24 1
18 17 18 1
19 17 20 1
20 17 25 1
21 18 19 2
22 18 30 1
23 20 21 1
24 21 22 1
25 21 23 2
26 20 26 1
27 20 27 1
28 22 28 1
29 22 29 1
30 30 31 1
31 30 36 1
32 31 32 1
33 31 34 1
34 31 37 1
35 32 33 2
36 32 44 1
37 34 35 1
38 35 36 1
39 34 38 1
40 34 39 1
41 35 40 1
42 35 41 1
43 36 42 1
44 36 43 1
45 44 45 1
46 44 53 1
47 45 46 1
48 45 48 1
49 45 54 1
50 46 47 2
51 46 59 1
52 48 49 1
53 49 50 1
54 50 51 2
55 50 52 1
56 48 55 1
57 48 56 1
58 49 57 1
59 49 58 1
60 59 60 1
61 59 65 1
62 60 61 1
63 60 63 1
64 60 66 1
65 61 62 2
66 61 70 1
67 63 64 1
68 63 67 1
69 63 68 1
70 64 69 1
71 70 71 1
72 70 78 1
73 71 72 1
74 71 74 1
75 71 79 1
76 72 73 2
77 72 89 1
78 74 75 1
79 74 76 1
80 75 77 1
81 74 80 1
82 75 81 1
83 75 82 1
84 76 83 1
85 76 84 1
86 76 85 1
87 77 86 1
88 77 87 1
89 77 88 1
90 89 90 1
91 89 97 1
92 90 91 1
93 90 93 1
94 90 98 1
95 91 92 2
96 91 108 1
97 93 94 1
98 94 95 1
99 94 96 1
100 93 99 1
101 93 100 1
102 94 101 1
103 95 102 1
104 95 103 1
105 95 104 1
106 96 105 1
107 96 106 1
108 96 107 1
109 108 109 1
110 108 116 1
111 109 110 1
112 109 112 1
113 109 117 1
114 110 111 2
115 110 120 1
116 112 113 1
117 113 114 2
118 113 115 1
119 112 118 1
120 112 119 1
121 120 121 1
122 120 129 1
123 121 122 1
124 121 124 1
125 121 130 1
126 122 123 2
127 122 135 1
128 124 125 1
129 125 126 1
130 126 127 2
131 126 128 1
132 124 131 1
133 124 132 1
134 125 133 1
135 125 134 1
136 135 136 1
137 135 145 1
138 136 137 1
139 136 139 1
140 136 146 1
141 137 138 2
142 137 152 1
143 139 140 1
144 140 141 2
145 141 144 1
146 140 142 1
147 142 143 2
148 143 144 1
149 139 147 1
150 139 148 1
151 141 149 1
152 143 150 1
153 144 151 1
154 152 153 1
155 152 159 1
156 153 154 1
157 153 156 1
158 153 160 1
159 154 155 2
160 154 168 1
161 156 157 1
162 156 158 1
163 156 161 1
164 157 162 1
165 157 163 1
166 157 164 1
167 158 165 1
168 158 166 1
169 158 167 1
170 168 169 1
171 168 177 1
172 169 170 1
173 169 172 1
174 169 178 1
175 170 171 2
176 170 185 1
177 172 173 1
178 173 174 1
179 174 175 1
180 174 176 2
181 172 179 1
182 172 180 1
183 173 181 1
184 173 182 1
185 175 183 1
186 175 184 1
187 185 186 1
188 185 196 1
189 186 187 1
190 186 189 1
191 186 197 1
192 187 188 2
193 187 209 1
194 189 190 1
195 190 191 1
196 191 192 1
197 192 193 1
198 193 194 2
199 193 195 1
200 189 198 1
201 189 199 1
202 190 200 1
203 190 201 1
204 191 202 1
205 191 203 1
206 192 204 1
207 194 205 1
208 194 206 1
209 195 207 1
210 195 208 1
211 209 210 1
212 209 216 1
213 210 211 1
214 210 213 1
215 210 217 1
216 211 212 2
217 211 225 1
218 213 214 1
219 213 215 1
220 213 218 1
221 214 219 1
222 214 220 1
223 214 221 1
224 215 222 1
225 215 223 1
226 215 224 1
227 225 226 1
228 225 233 1
229 226 227 1
230 226 229 1
231 226 234 1
232 227 228 2
233 227 242 1
234 229 230 1
235 230 231 1
236 231 232 1
237 229 235 1
238 229 236 1
239 230 237 1
240 230 238 1
241 232 239 1
242 232 240 1
243 232 241 1
244 242 243 1
245 242 252 1
246 243 244 1
247 243 246 1
248 243 253 1
249 244 245 2
250 246 247 1
251 247 248 2
252 248 251 1
253 247 249 1
254 249 250 2
255 250 251 1
256 246 254 1
257 246 255 1
258 248 256 1
259 250 257 1
260 251 258 1
@<TRIPOS>SUBSTRUCTURE
1	GLU1	1	RESIDUE	1 ****	GLU
2	ASN2	16	RESIDUE	1 ****	ASN
3	PRO3	30	RESIDUE	1 ****	PRO
4	GLU4	44	RESIDUE	1 ****	GLU
5	SER5	59	RESIDUE	1 ****	SER
6	ILE6	70	RESIDUE	1 ****	ILE
7	LEU7	89	RESIDUE	1 ****	LEU
8	ASP8	108	RESIDUE	1 ****	ASP
9	GLU9	120	RESIDUE	1 ****	GLU
10	HIS10	135	RESIDUE	1 ****	HIS
11	VAL11	152	RESIDUE	1 ****	VAL
12	GLN12	168	RESIDUE	1 ****	GLN
13	ARG13	185	RESIDUE	1 ****	ARG
14	VAL14	209	RESIDUE	1 ****	VAL
15	MET15	225	RESIDUE	1 ****	MET
16	HIS16	242	RESIDUE	1 ****	HIS
