@<TRIPOS>MOLECULE
5-9
275 277 16              
SMALL
USER_CHARGES
@<TRIPOS>ATOM
1	   N	762.683	198.761	-720.004	N.3	1	GLU1	-0.516	
2	  CA	763.242	200.110	-720.004	C.3	1	GLU1	0.040	
3	   C	764.751	200.070	-720.004	C.2	1	GLU1	0.537	
4	   O	765.426	200.769	-720.773	O.2	1	GLU1	-0.582	
5	  CB	762.719	200.895	-718.767	C.3	1	GLU1	0.056	
6	  CG	763.194	202.380	-718.656	C.3	1	GLU1	0.014	
7	  CD	762.770	203.184	-717.441	C.2	1	GLU1	0.805	
8	 OE1	762.042	202.682	-716.563	O.co2	1	GLU1	-0.819	
9	 OE2	763.200	204.354	-717.369	O.co2	1	GLU1	-0.819	
10	   H	763.310	197.882	-720.004	 H	1	GLU1	0.294	
11	  HA	762.916	200.628	-720.924	 H	1	GLU1	0.111	
12	 2HB	763.008	200.364	-717.837	 H	1	GLU1	-0.017	
13	 3HB	761.612	200.885	-718.754	 H	1	GLU1	-0.017	
14	 2HG	762.884	202.965	-719.537	 H	1	GLU1	-0.043	
15	 3HG	764.294	202.447	-718.627	 H	1	GLU1	-0.043	
16	   N	765.355	199.284	-719.179	N.am	2	ASN2	-0.416	
17	  CA	766.815	199.246	-719.179	C.3	2	ASN2	0.014	
18	   C	767.346	198.890	-720.548	C.2	2	ASN2	0.597	
19	   O	768.261	199.521	-721.076	O.2	2	ASN2	-0.568	
20	  CB	767.307	198.223	-718.115	C.3	2	ASN2	-0.204	
21	  CG	766.844	198.446	-716.671	C.2	2	ASN2	0.713	
22	 ND2	767.438	199.361	-715.953	N.pl3	2	ASN2	-0.919	
23	 OD1	765.923	197.813	-716.177	O.2	2	ASN2	-0.593	
24	   H	764.827	198.704	-718.543	 H	2	ASN2	0.272	
25	  HA	767.192	200.255	-718.934	 H	2	ASN2	0.105	
26	 2HB	768.411	198.164	-718.118	 H	2	ASN2	0.080	
27	 3HB	766.978	197.204	-718.401	 H	2	ASN2	0.080	
28	1HD2	766.957	199.534	-715.067	 H	2	ASN2	0.420	
29	2HD2	768.140	199.933	-716.422	 H	2	ASN2	0.420	
30	   N	766.824	197.895	-721.182	N.am	3	PRO3	-0.255	
31	  CA	767.276	197.486	-722.503	C.3	3	PRO3	-0.027	
32	   C	766.878	198.509	-723.580	C.2	3	PRO3	0.590	
33	   O	767.701	198.893	-724.412	O.2	3	PRO3	-0.575	
34	  CB	766.572	196.131	-722.673	C.3	3	PRO3	-0.007	
35	  CG	765.289	196.283	-721.843	C.3	3	PRO3	0.019	
36	  CD	765.746	197.102	-720.633	C.3	3	PRO3	0.019	
37	  HA	768.362	197.366	-722.517	 H	3	PRO3	0.064	
38	 2HB	767.195	195.350	-722.232	 H	3	PRO3	0.025	
39	 3HB	766.374	195.883	-723.718	 H	3	PRO3	0.025	
40	 2HG	764.862	195.321	-721.552	 H	3	PRO3	0.021	
41	 3HG	764.551	196.854	-722.410	 H	3	PRO3	0.021	
42	 2HD	766.136	196.452	-719.845	 H	3	PRO3	0.039	
43	 3HD	764.950	197.737	-720.240	 H	3	PRO3	0.039	
44	   N	765.673	198.969	-723.613	N.am	4	GLU4	-0.516	
45	  CA	765.313	199.940	-724.642	C.3	4	GLU4	0.040	
46	   C	766.212	201.151	-724.581	C.2	4	GLU4	0.537	
47	   O	766.739	201.631	-725.596	O.2	4	GLU4	-0.582	
48	  CB	763.825	200.358	-724.472	C.3	4	GLU4	0.056	
49	  CG	763.277	201.362	-725.538	C.3	4	GLU4	0.014	
50	  CD	761.850	201.858	-725.394	C.2	4	GLU4	0.805	
51	 OE1	761.124	201.460	-724.463	O.co2	4	GLU4	-0.819	
52	 OE2	761.460	202.687	-726.243	O.co2	4	GLU4	-0.819	
53	   H	764.989	198.662	-722.936	 H	4	GLU4	0.294	
54	  HA	765.445	199.469	-725.633	 H	4	GLU4	0.111	
55	 2HB	763.672	200.798	-723.465	 H	4	GLU4	-0.017	
56	 3HB	763.177	199.461	-724.478	 H	4	GLU4	-0.017	
57	 2HG	763.358	200.947	-726.556	 H	4	GLU4	-0.043	
58	 3HG	763.865	202.294	-725.549	 H	4	GLU4	-0.043	
59	   N	766.440	201.704	-723.438	N.am	5	TYR5	-0.416	
60	  CA	767.309	202.876	-723.379	C.3	5	TYR5	-0.001	
61	   C	768.667	202.571	-723.963	C.2	5	TYR5	0.597	
62	   O	769.216	203.327	-724.769	O.2	5	TYR5	-0.568	
63	  CB	767.513	203.342	-721.908	C.3	5	TYR5	-0.015	
64	  CG	766.258	203.785	-721.146	C.2	5	TYR5	-0.001	
65	 CD1	765.701	205.049	-721.365	C.2	5	TYR5	-0.191	
66	 CD2	765.658	202.916	-720.230	C.2	5	TYR5	-0.191	
67	 CE1	764.553	205.435	-720.678	C.2	5	TYR5	-0.234	
68	 CE2	764.511	203.304	-719.544	C.2	5	TYR5	-0.234	
69	  CZ	763.959	204.563	-719.768	C.2	5	TYR5	0.323	
70	  OH	762.832	204.945	-719.099	O.3	5	TYR5	-0.558	
71	   H	766.022	201.332	-722.597	 H	5	TYR5	0.272	
72	  HA	766.856	203.689	-723.976	 H	5	TYR5	0.088	
73	 2HB	768.234	204.183	-721.880	 H	5	TYR5	0.030	
74	 3HB	768.029	202.542	-721.337	 H	5	TYR5	0.030	
75	 1HD	766.152	205.731	-722.073	 H	5	TYR5	0.170	
76	 2HD	766.075	201.933	-720.059	 H	5	TYR5	0.170	
77	 1HE	764.118	206.408	-720.850	 H	5	TYR5	0.166	
78	 2HE	764.054	202.621	-718.844	 H	5	TYR5	0.166	
79	  HH	762.563	204.226	-718.523	 H	5	TYR5	0.399	
80	   N	769.272	201.488	-723.609	N.am	6	ILE6	-0.416	
81	  CA	770.585	201.194	-724.175	C.3	6	ILE6	-0.060	
82	   C	770.529	201.157	-725.683	C.2	6	ILE6	0.597	
83	   O	771.364	201.745	-726.386	O.2	6	ILE6	-0.568	
84	  CB	771.185	199.858	-723.575	C.3	6	ILE6	0.130	
85	 CG1	771.203	199.795	-722.014	C.3	6	ILE6	-0.043	
86	 CG2	772.627	199.557	-724.089	C.3	6	ILE6	-0.320	
87	 CD1	771.473	198.406	-721.399	C.3	6	ILE6	-0.066	
88	   H	768.843	200.854	-722.951	 H	6	ILE6	0.272	
89	  HA	771.259	202.028	-723.906	 H	6	ILE6	0.087	
90	  HB	770.528	199.032	-723.920	 H	6	ILE6	0.019	
91	2HG1	770.221	200.114	-721.619	 H	6	ILE6	0.024	
92	3HG1	771.919	200.537	-721.608	 H	6	ILE6	0.024	
93	1HG2	772.686	199.464	-725.188	 H	6	ILE6	0.088	
94	2HG2	773.348	200.339	-723.786	 H	6	ILE6	0.088	
95	3HG2	773.017	198.594	-723.711	 H	6	ILE6	0.088	
96	1HD1	770.745	197.651	-721.755	 H	6	ILE6	0.019	
97	2HD1	772.484	198.027	-721.635	 H	6	ILE6	0.019	
98	3HD1	771.396	198.435	-720.297	 H	6	ILE6	0.019	
99	   N	769.584	200.494	-726.257	N.am	7	LEU7	-0.416	
100	  CA	769.530	200.458	-727.716	C.3	7	LEU7	-0.052	
101	   C	769.457	201.854	-728.288	C.2	7	LEU7	0.597	
102	   O	770.178	202.217	-729.229	O.2	7	LEU7	-0.568	
103	  CB	768.327	199.598	-728.197	C.3	7	LEU7	-0.110	
104	  CG	768.255	198.118	-727.732	C.3	7	LEU7	0.353	
105	 CD1	767.065	197.412	-728.398	C.3	7	LEU7	-0.412	
106	 CD2	769.549	197.340	-728.023	C.3	7	LEU7	-0.412	
107	   H	768.892	200.006	-725.707	 H	7	LEU7	0.272	
108	  HA	770.472	200.019	-728.090	 H	7	LEU7	0.092	
109	 2HB	768.305	199.614	-729.305	 H	7	LEU7	0.046	
110	 3HB	767.387	200.100	-727.894	 H	7	LEU7	0.046	
111	  HG	768.084	198.110	-726.635	 H	7	LEU7	-0.036	
112	1HD1	766.108	197.921	-728.176	 H	7	LEU7	0.100	
113	2HD1	767.165	197.373	-729.500	 H	7	LEU7	0.100	
114	3HD1	766.958	196.371	-728.043	 H	7	LEU7	0.100	
115	1HD2	769.824	197.370	-729.092	 H	7	LEU7	0.100	
116	2HD2	770.401	197.751	-727.451	 H	7	LEU7	0.100	
117	3HD2	769.467	196.277	-727.727	 H	7	LEU7	0.100	
118	   N	768.620	202.694	-727.781	N.am	8	ASP8	-0.516	
119	  CA	768.549	204.044	-728.334	C.3	8	ASP8	0.038	
120	   C	769.895	204.724	-728.275	C.2	8	ASP8	0.537	
121	   O	770.369	205.330	-729.249	O.2	8	ASP8	-0.582	
122	  CB	767.470	204.882	-727.592	C.3	8	ASP8	-0.030	
123	  CG	767.251	206.303	-728.132	C.2	8	ASP8	0.799	
124	 OD1	767.316	206.503	-729.363	O.co2	8	ASP8	-0.801	
125	 OD2	767.058	207.228	-727.316	O.co2	8	ASP8	-0.801	
126	   H	768.021	202.422	-727.014	 H	8	ASP8	0.294	
127	  HA	768.267	203.966	-729.401	 H	8	ASP8	0.088	
128	 2HB	767.727	204.965	-726.520	 H	8	ASP8	-0.012	
129	 3HB	766.491	204.377	-727.626	 H	8	ASP8	-0.012	
130	   N	770.575	204.674	-727.180	N.am	9	GLU9	-0.516	
131	  CA	771.877	205.332	-727.123	C.3	9	GLU9	0.040	
132	   C	772.796	204.805	-728.199	C.2	9	GLU9	0.537	
133	   O	773.460	205.560	-728.923	O.2	9	GLU9	-0.582	
134	  CB	772.510	205.123	-725.717	C.3	9	GLU9	0.056	
135	  CG	773.892	205.816	-725.487	C.3	9	GLU9	0.014	
136	  CD	774.593	205.602	-724.158	C.2	9	GLU9	0.805	
137	 OE1	774.071	204.910	-723.262	O.co2	9	GLU9	-0.819	
138	 OE2	775.712	206.140	-724.025	O.co2	9	GLU9	-0.819	
139	   H	770.211	204.187	-726.373	 H	9	GLU9	0.294	
140	  HA	771.735	206.413	-727.298	 H	9	GLU9	0.111	
141	 2HB	772.623	204.038	-725.515	 H	9	GLU9	-0.017	
142	 3HB	771.812	205.476	-724.933	 H	9	GLU9	-0.017	
143	 2HG	773.820	206.906	-725.626	 H	9	GLU9	-0.043	
144	 3HG	774.639	205.471	-726.220	 H	9	GLU9	-0.043	
145	   N	772.893	203.530	-728.369	N.am	10	HIS10	-0.416	
146	  CA	773.782	203.019	-729.409	C.3	10	HIS10	-0.058	
147	   C	773.416	203.585	-730.760	C.2	10	HIS10	0.597	
148	   O	774.269	204.050	-731.531	O.2	10	HIS10	-0.568	
149	  CB	773.618	201.490	-729.405	C.3	10	HIS10	-0.007	
150	  CG	774.904	200.780	-729.096	C.2	10	HIS10	0.187	
151	 CD2	775.284	200.444	-727.804	C.2	10	HIS10	-0.221	
152	 ND1	775.857	200.375	-730.029	N.2	10	HIS10	-0.543	
153	 CE1	776.763	199.817	-729.205	C.2	10	HIS10	0.163	
154	 NE2	776.499	199.813	-727.870	N.pl3	10	HIS10	-0.280	
155	   H	772.362	202.894	-727.791	 H	10	HIS10	0.272	
156	  HA	774.801	203.377	-729.183	 H	10	HIS10	0.136	
157	 2HB	773.254	201.124	-730.386	 H	10	HIS10	0.037	
158	 3HB	772.862	201.153	-728.666	 H	10	HIS10	0.037	
159	 2HD	774.698	200.659	-726.915	 H	10	HIS10	0.186	
160	 1HE	777.654	199.397	-729.651	 H	10	HIS10	0.144	
161	 2HE	777.065	199.436	-727.096	 H	10	HIS10	0.334	
162	   N	772.178	203.584	-731.124	N.am	11	VAL11	-0.416	
163	  CA	771.824	204.130	-732.431	C.3	11	VAL11	-0.087	
164	   C	772.288	205.561	-732.562	C.2	11	VAL11	0.597	
165	   O	772.890	205.967	-733.564	O.2	11	VAL11	-0.568	
166	  CB	770.263	204.023	-732.652	C.3	11	VAL11	0.299	
167	 CG1	769.695	204.728	-733.914	C.3	11	VAL11	-0.319	
168	 CG2	769.739	202.569	-732.726	C.3	11	VAL11	-0.319	
169	   H	771.465	203.210	-730.514	 H	11	VAL11	0.272	
170	  HA	772.345	203.549	-733.213	 H	11	VAL11	0.097	
171	  HB	769.775	204.503	-731.776	 H	11	VAL11	-0.030	
172	1HG1	770.135	204.337	-734.851	 H	11	VAL11	0.079	
173	2HG1	768.597	204.621	-733.997	 H	11	VAL11	0.079	
174	3HG1	769.873	205.821	-733.904	 H	11	VAL11	0.079	
175	1HG2	770.028	201.982	-731.835	 H	11	VAL11	0.079	
176	2HG2	768.633	202.532	-732.770	 H	11	VAL11	0.079	
177	3HG2	770.122	202.029	-733.613	 H	11	VAL11	0.079	
178	   N	772.050	206.386	-731.599	N.am	12	GLN12	-0.416	
179	  CA	772.498	207.770	-731.725	C.3	12	GLN12	-0.003	
180	   C	773.988	207.838	-731.962	C.2	12	GLN12	0.597	
181	   O	774.476	208.547	-732.839	O.2	12	GLN12	-0.568	
182	  CB	772.106	208.536	-730.442	C.3	12	GLN12	-0.004	
183	  CG	772.466	210.058	-730.409	C.3	12	GLN12	-0.064	
184	  CD	772.162	210.870	-729.144	C.2	12	GLN12	0.695	
185	 NE2	771.594	210.293	-728.116	N.pl3	12	GLN12	-0.941	
186	 OE1	772.463	212.051	-729.066	O.2	12	GLN12	-0.609	
187	   H	771.561	206.080	-730.771	 H	12	GLN12	0.272	
188	  HA	771.999	208.226	-732.600	 H	12	GLN12	0.085	
189	 2HB	772.582	208.035	-729.573	 H	12	GLN12	0.017	
190	 3HB	771.016	208.428	-730.280	 H	12	GLN12	0.017	
191	 2HG	771.989	210.579	-731.260	 H	12	GLN12	0.035	
192	 3HG	773.549	210.200	-730.574	 H	12	GLN12	0.035	
193	1HE2	771.486	210.887	-727.292	 H	12	GLN12	0.425	
194	2HE2	771.431	209.289	-728.221	 H	12	GLN12	0.425	
195	   N	774.773	207.131	-731.221	N.am	13	ARG13	-0.348	
196	  CA	776.213	207.197	-731.450	C.3	13	ARG13	-0.264	
197	   C	776.551	206.827	-732.875	C.2	13	ARG13	0.734	
198	   O	777.319	207.499	-733.558	O.2	13	ARG13	-0.589	
199	  CB	776.926	206.258	-730.436	C.3	13	ARG13	-0.001	
200	  CG	778.471	206.412	-730.354	C.3	13	ARG13	0.039	
201	  CD	779.097	205.424	-729.356	C.3	13	ARG13	0.049	
202	  NE	780.574	205.631	-729.304	N.pl3	13	ARG13	-0.530	
203	  CZ	781.422	204.940	-728.549	C.cat	13	ARG13	0.808	
204	 NH1	781.057	203.974	-727.752	N.pl3	13	ARG13	-0.863	
205	 NH2	782.681	205.239	-728.604	N.pl3	13	ARG13	-0.863	
206	   H	774.396	206.540	-730.493	 H	13	ARG13	0.275	
207	  HA	776.537	208.243	-731.291	 H	13	ARG13	0.156	
208	 2HB	776.660	205.207	-730.676	 H	13	ARG13	0.033	
209	 3HB	776.500	206.424	-729.426	 H	13	ARG13	0.033	
210	 2HG	778.718	207.456	-730.073	 H	13	ARG13	0.029	
211	 3HG	778.922	206.256	-731.355	 H	13	ARG13	0.029	
212	 2HD	778.854	204.384	-729.666	 H	13	ARG13	0.069	
213	 3HD	778.640	205.568	-728.354	 H	13	ARG13	0.069	
214	  HE	781.026	206.354	-729.874	 H	13	ARG13	0.346	
215	1HH1	780.051	203.788	-727.756	 H	13	ARG13	0.448	
216	2HH1	781.770	203.491	-727.203	 H	13	ARG13	0.448	
217	1HH2	782.949	205.997	-729.235	 H	13	ARG13	0.448	
218	2HH2	783.316	204.698	-728.016	 H	13	ARG13	0.448	
219	   N	776.015	205.772	-733.391	N.am	14	VAL14	-0.416	
220	  CA	776.341	205.414	-734.768	C.3	14	VAL14	-0.087	
221	   C	776.012	206.545	-735.713	C.2	14	VAL14	0.597	
222	   O	776.806	206.927	-736.582	O.2	14	VAL14	-0.568	
223	  CB	775.570	204.097	-735.177	C.3	14	VAL14	0.299	
224	 CG1	775.660	203.680	-736.670	C.3	14	VAL14	-0.319	
225	 CG2	776.002	202.844	-734.377	C.3	14	VAL14	-0.319	
226	   H	775.380	205.203	-732.850	 H	14	VAL14	0.272	
227	  HA	777.430	205.238	-734.842	 H	14	VAL14	0.097	
228	  HB	774.493	204.268	-734.961	 H	14	VAL14	-0.030	
229	1HG1	776.702	203.504	-736.999	 H	14	VAL14	0.079	
230	2HG1	775.088	202.757	-736.884	 H	14	VAL14	0.079	
231	3HG1	775.232	204.443	-737.348	 H	14	VAL14	0.079	
232	1HG2	775.913	203.002	-733.286	 H	14	VAL14	0.079	
233	2HG2	775.366	201.968	-734.610	 H	14	VAL14	0.079	
234	3HG2	777.050	202.555	-734.582	 H	14	VAL14	0.079	
235	   N	774.867	207.130	-735.612	N.am	15	MET15	-0.416	
236	  CA	774.547	208.223	-736.525	C.3	15	MET15	-0.024	
237	   C	775.576	209.323	-736.436	C.2	15	MET15	0.597	
238	   O	776.080	209.835	-737.447	O.2	15	MET15	-0.568	
239	  CB	773.125	208.768	-736.217	C.3	15	MET15	0.034	
240	  CG	771.963	207.770	-736.411	C.3	15	MET15	0.002	
241	  SD	770.389	208.635	-736.297	S.3	15	MET15	-0.274	
242	  CE	769.308	207.205	-736.163	C.3	15	MET15	-0.054	
243	   H	774.201	206.836	-734.911	 H	15	MET15	0.272	
244	  HA	774.574	207.837	-737.561	 H	15	MET15	0.088	
245	 2HB	772.923	209.647	-736.859	 H	15	MET15	0.024	
246	 3HB	773.088	209.160	-735.180	 H	15	MET15	0.024	
247	 2HG	772.006	206.983	-735.633	 H	15	MET15	0.044	
248	 3HG	772.027	207.255	-737.387	 H	15	MET15	0.044	
249	 1HE	769.453	206.517	-737.015	 H	15	MET15	0.068	
250	 2HE	769.517	206.652	-735.230	 H	15	MET15	0.068	
251	 3HE	768.250	207.520	-736.147	 H	15	MET15	0.068	
252	   N	775.944	209.744	-735.273	N.am	16	ARG16	-0.348	
253	  CA	776.940	210.808	-735.187	C.3	16	ARG16	-0.264	
254	   C	778.211	210.416	-735.903	C.2	16	ARG16	0.734	
255	   O	778.326	209.341	-736.485	O.2	16	ARG16	-0.589	
256	  CB	777.207	211.125	-733.688	C.3	16	ARG16	-0.001	
257	  CG	778.032	212.414	-733.414	C.3	16	ARG16	0.039	
258	  CD	778.280	212.632	-731.912	C.3	16	ARG16	0.049	
259	  NE	779.055	213.891	-731.709	N.pl3	16	ARG16	-0.530	
260	  CZ	779.445	214.373	-730.533	C.cat	16	ARG16	0.808	
261	 NH1	779.197	213.788	-729.395	N.pl3	16	ARG16	-0.863	
262	 NH2	780.109	215.486	-730.513	N.pl3	16	ARG16	-0.863	
263	   H	775.549	209.343	-734.434	 H	16	ARG16	0.275	
264	  HA	776.531	211.701	-735.697	 H	16	ARG16	0.156	
265	 2HB	777.704	210.249	-733.222	 H	16	ARG16	0.033	
266	 3HB	776.238	211.205	-733.155	 H	16	ARG16	0.033	
267	 2HG	777.502	213.285	-733.851	 H	16	ARG16	0.029	
268	 3HG	779.006	212.362	-733.942	 H	16	ARG16	0.029	
269	 2HD	778.829	211.758	-731.499	 H	16	ARG16	0.069	
270	 3HD	777.307	212.674	-731.378	 H	16	ARG16	0.069	
271	  HE	779.334	214.473	-732.506	 H	16	ARG16	0.346	
272	1HH1	778.672	212.914	-729.481	 H	16	ARG16	0.448	
273	2HH1	779.530	214.223	-728.534	 H	16	ARG16	0.448	
274	1HH2	780.295	215.930	-731.414	 H	16	ARG16	0.448	
275	2HH2	780.398	215.840	-729.600	 H	16	ARG16	0.448	
@<TRIPOS>BOND
1 1 2 1
2 1 10 1
3 2 3 1
4 2 5 1
5 2 11 1
6 3 4 2
7 3 16 1
8 5 6 1
9 6 7 1
10 7 8 2
11 7 9 1
12 5 12 1
13 5 13 1
14 6 14 1
15 6 15 1
16 16 17 1
17 16 24 1
18 17 18 1
19 17 20 1
20 17 25 1
21 18 19 2
22 18 30 1
23 20 21 1
24 21 22 1
25 21 23 2
26 20 26 1
27 20 27 1
28 22 28 1
29 22 29 1
30 30 31 1
31 30 36 1
32 31 32 1
33 31 34 1
34 31 37 1
35 32 33 2
36 32 44 1
37 34 35 1
38 35 36 1
39 34 38 1
40 34 39 1
41 35 40 1
42 35 41 1
43 36 42 1
44 36 43 1
45 44 45 1
46 44 53 1
47 45 46 1
48 45 48 1
49 45 54 1
50 46 47 2
51 46 59 1
52 48 49 1
53 49 50 1
54 50 51 2
55 50 52 1
56 48 55 1
57 48 56 1
58 49 57 1
59 49 58 1
60 59 60 1
61 59 71 1
62 60 61 1
63 60 63 1
64 60 72 1
65 61 62 2
66 61 80 1
67 63 64 1
68 64 65 2
69 64 66 1
70 66 68 2
71 65 67 1
72 68 69 1
73 67 69 2
74 69 70 1
75 63 73 1
76 63 74 1
77 65 75 1
78 66 76 1
79 67 77 1
80 68 78 1
81 70 79 1
82 80 81 1
83 80 88 1
84 81 82 1
85 81 84 1
86 81 89 1
87 82 83 2
88 82 99 1
89 84 85 1
90 84 86 1
91 85 87 1
92 84 90 1
93 85 91 1
94 85 92 1
95 86 93 1
96 86 94 1
97 86 95 1
98 87 96 1
99 87 97 1
100 87 98 1
101 99 100 1
102 99 107 1
103 100 101 1
104 100 103 1
105 100 108 1
106 101 102 2
107 101 118 1
108 103 104 1
109 104 105 1
110 104 106 1
111 103 109 1
112 103 110 1
113 104 111 1
114 105 112 1
115 105 113 1
116 105 114 1
117 106 115 1
118 106 116 1
119 106 117 1
120 118 119 1
121 118 126 1
122 119 120 1
123 119 122 1
124 119 127 1
125 120 121 2
126 120 130 1
127 122 123 1
128 123 124 2
129 123 125 1
130 122 128 1
131 122 129 1
132 130 131 1
133 130 139 1
134 131 132 1
135 131 134 1
136 131 140 1
137 132 133 2
138 132 145 1
139 134 135 1
140 135 136 1
141 136 137 2
142 136 138 1
143 134 141 1
144 134 142 1
145 135 143 1
146 135 144 1
147 145 146 1
148 145 155 1
149 146 147 1
150 146 149 1
151 146 156 1
152 147 148 2
153 147 162 1
154 149 150 1
155 150 151 2
156 151 154 1
157 150 152 1
158 152 153 2
159 153 154 1
160 149 157 1
161 149 158 1
162 151 159 1
163 153 160 1
164 154 161 1
165 162 163 1
166 162 169 1
167 163 164 1
168 163 166 1
169 163 170 1
170 164 165 2
171 164 178 1
172 166 167 1
173 166 168 1
174 166 171 1
175 167 172 1
176 167 173 1
177 167 174 1
178 168 175 1
179 168 176 1
180 168 177 1
181 178 179 1
182 178 187 1
183 179 180 1
184 179 182 1
185 179 188 1
186 180 181 2
187 180 195 1
188 182 183 1
189 183 184 1
190 184 185 1
191 184 186 2
192 182 189 1
193 182 190 1
194 183 191 1
195 183 192 1
196 185 193 1
197 185 194 1
198 195 196 1
199 195 206 1
200 196 197 1
201 196 199 1
202 196 207 1
203 197 198 2
204 197 219 1
205 199 200 1
206 200 201 1
207 201 202 1
208 202 203 1
209 203 204 2
210 203 205 1
211 199 208 1
212 199 209 1
213 200 210 1
214 200 211 1
215 201 212 1
216 201 213 1
217 202 214 1
218 204 215 1
219 204 216 1
220 205 217 1
221 205 218 1
222 219 220 1
223 219 226 1
224 220 221 1
225 220 223 1
226 220 227 1
227 221 222 2
228 221 235 1
229 223 224 1
230 223 225 1
231 223 228 1
232 224 229 1
233 224 230 1
234 224 231 1
235 225 232 1
236 225 233 1
237 225 234 1
238 235 236 1
239 235 243 1
240 236 237 1
241 236 239 1
242 236 244 1
243 237 238 2
244 237 252 1
245 239 240 1
246 240 241 1
247 241 242 1
248 239 245 1
249 239 246 1
250 240 247 1
251 240 248 1
252 242 249 1
253 242 250 1
254 242 251 1
255 252 253 1
256 252 263 1
257 253 254 1
258 253 256 1
259 253 264 1
260 254 255 2
261 256 257 1
262 257 258 1
263 258 259 1
264 259 260 1
265 260 261 2
266 260 262 1
267 256 265 1
268 256 266 1
269 257 267 1
270 257 268 1
271 258 269 1
272 258 270 1
273 259 271 1
274 261 272 1
275 261 273 1
276 262 274 1
277 262 275 1
@<TRIPOS>SUBSTRUCTURE
1	GLU1	1	RESIDUE	1 ****	GLU
2	ASN2	16	RESIDUE	1 ****	ASN
3	PRO3	30	RESIDUE	1 ****	PRO
4	GLU4	44	RESIDUE	1 ****	GLU
5	TYR5	59	RESIDUE	1 ****	TYR
6	ILE6	80	RESIDUE	1 ****	ILE
7	LEU7	99	RESIDUE	1 ****	LEU
8	ASP8	118	RESIDUE	1 ****	ASP
9	GLU9	130	RESIDUE	1 ****	GLU
10	HIS10	145	RESIDUE	1 ****	HIS
11	VAL11	162	RESIDUE	1 ****	VAL
12	GLN12	178	RESIDUE	1 ****	GLN
13	ARG13	195	RESIDUE	1 ****	ARG
14	VAL14	219	RESIDUE	1 ****	VAL
15	MET15	235	RESIDUE	1 ****	MET
16	ARG16	252	RESIDUE	1 ****	ARG
