@<TRIPOS>MOLECULE
9-1
260 261 16              
SMALL
USER_CHARGES
@<TRIPOS>ATOM
1	   N	1352.863	394.771	-1360.264	N.3	1	GLU1	-0.516	
2	  CA	1353.422	396.120	-1360.264	C.3	1	GLU1	0.040	
3	   C	1354.931	396.080	-1360.264	C.2	1	GLU1	0.537	
4	   O	1355.607	396.779	-1361.033	O.2	1	GLU1	-0.582	
5	  CB	1352.899	396.905	-1359.027	C.3	1	GLU1	0.056	
6	  CG	1353.374	398.390	-1358.916	C.3	1	GLU1	0.014	
7	  CD	1352.950	399.194	-1357.701	C.2	1	GLU1	0.805	
8	 OE1	1352.222	398.692	-1356.823	O.co2	1	GLU1	-0.819	
9	 OE2	1353.380	400.364	-1357.629	O.co2	1	GLU1	-0.819	
10	   H	1353.490	393.892	-1360.264	 H	1	GLU1	0.294	
11	  HA	1353.096	396.638	-1361.184	 H	1	GLU1	0.111	
12	 2HB	1353.188	396.374	-1358.097	 H	1	GLU1	-0.017	
13	 3HB	1351.792	396.895	-1359.014	 H	1	GLU1	-0.017	
14	 2HG	1353.064	398.975	-1359.797	 H	1	GLU1	-0.043	
15	 3HG	1354.474	398.457	-1358.887	 H	1	GLU1	-0.043	
16	   N	1355.536	395.294	-1359.439	N.am	2	ASN2	-0.416	
17	  CA	1356.995	395.256	-1359.439	C.3	2	ASN2	0.014	
18	   C	1357.526	394.900	-1360.808	C.2	2	ASN2	0.597	
19	   O	1358.441	395.531	-1361.337	O.2	2	ASN2	-0.568	
20	  CB	1357.487	394.233	-1358.375	C.3	2	ASN2	-0.204	
21	  CG	1357.024	394.457	-1356.932	C.2	2	ASN2	0.713	
22	 ND2	1357.618	395.372	-1356.213	N.pl3	2	ASN2	-0.919	
23	 OD1	1356.103	393.823	-1356.437	O.2	2	ASN2	-0.593	
24	   H	1355.007	394.715	-1358.803	 H	2	ASN2	0.272	
25	  HA	1357.372	396.266	-1359.194	 H	2	ASN2	0.105	
26	 2HB	1358.591	394.174	-1358.379	 H	2	ASN2	0.080	
27	 3HB	1357.158	393.215	-1358.661	 H	2	ASN2	0.080	
28	1HD2	1357.137	395.545	-1355.327	 H	2	ASN2	0.420	
29	2HD2	1358.320	395.943	-1356.683	 H	2	ASN2	0.420	
30	   N	1357.005	393.905	-1361.442	N.am	3	PRO3	-0.255	
31	  CA	1357.456	393.496	-1362.764	C.3	3	PRO3	-0.027	
32	   C	1357.058	394.519	-1363.840	C.2	3	PRO3	0.590	
33	   O	1357.881	394.902	-1364.672	O.2	3	PRO3	-0.575	
34	  CB	1356.752	392.141	-1362.933	C.3	3	PRO3	-0.007	
35	  CG	1355.469	392.293	-1362.103	C.3	3	PRO3	0.019	
36	  CD	1355.927	393.112	-1360.893	C.3	3	PRO3	0.019	
37	  HA	1358.542	393.376	-1362.777	 H	3	PRO3	0.064	
38	 2HB	1357.375	391.360	-1362.492	 H	3	PRO3	0.025	
39	 3HB	1356.554	391.893	-1363.978	 H	3	PRO3	0.025	
40	 2HG	1355.041	391.331	-1361.812	 H	3	PRO3	0.021	
41	 3HG	1354.731	392.864	-1362.670	 H	3	PRO3	0.021	
42	 2HD	1356.316	392.463	-1360.105	 H	3	PRO3	0.039	
43	 3HD	1355.130	393.748	-1360.500	 H	3	PRO3	0.039	
44	   N	1355.853	394.979	-1363.873	N.am	4	GLU4	-0.516	
45	  CA	1355.493	395.950	-1364.902	C.3	4	GLU4	0.040	
46	   C	1356.392	397.162	-1364.841	C.2	4	GLU4	0.537	
47	   O	1356.918	397.641	-1365.856	O.2	4	GLU4	-0.582	
48	  CB	1354.005	396.369	-1364.732	C.3	4	GLU4	0.056	
49	  CG	1353.457	397.373	-1365.797	C.3	4	GLU4	0.014	
50	  CD	1352.030	397.869	-1365.653	C.2	4	GLU4	0.805	
51	 OE1	1351.304	397.471	-1364.722	O.co2	4	GLU4	-0.819	
52	 OE2	1351.640	398.698	-1366.502	O.co2	4	GLU4	-0.819	
53	   H	1355.169	394.673	-1363.196	 H	4	GLU4	0.294	
54	  HA	1355.624	395.480	-1365.893	 H	4	GLU4	0.111	
55	 2HB	1353.853	396.809	-1363.725	 H	4	GLU4	-0.017	
56	 3HB	1353.357	395.471	-1364.738	 H	4	GLU4	-0.017	
57	 2HG	1353.538	396.958	-1366.815	 H	4	GLU4	-0.043	
58	 3HG	1354.045	398.305	-1365.808	 H	4	GLU4	-0.043	
59	   N	1356.620	397.714	-1363.698	N.am	5	SER5	-0.416	
60	  CA	1357.489	398.886	-1363.640	C.3	5	SER5	-0.025	
61	   C	1358.848	398.580	-1364.225	C.2	5	SER5	0.597	
62	   O	1359.395	399.334	-1365.030	O.2	5	SER5	-0.568	
63	  CB	1357.601	399.418	-1362.189	C.3	5	SER5	0.212	
64	  OG	1358.333	398.538	-1361.328	O.3	5	SER5	-0.655	
65	   H	1356.203	397.343	-1362.856	 H	5	SER5	0.272	
66	  HA	1357.040	399.676	-1364.268	 H	5	SER5	0.084	
67	 2HB	1356.601	399.611	-1361.755	 H	5	SER5	0.035	
68	 3HB	1358.106	400.403	-1362.191	 H	5	SER5	0.035	
69	  HG	1357.844	397.713	-1361.277	 H	5	SER5	0.428	
70	   N	1359.453	397.497	-1363.871	N.am	6	ILE6	-0.416	
71	  CA	1360.766	397.203	-1364.438	C.3	6	ILE6	-0.060	
72	   C	1360.709	397.165	-1365.946	C.2	6	ILE6	0.597	
73	   O	1361.543	397.753	-1366.650	O.2	6	ILE6	-0.568	
74	  CB	1361.366	395.866	-1363.838	C.3	6	ILE6	0.130	
75	 CG1	1361.385	395.804	-1362.277	C.3	6	ILE6	-0.043	
76	 CG2	1362.807	395.565	-1364.353	C.3	6	ILE6	-0.320	
77	 CD1	1361.655	394.415	-1361.662	C.3	6	ILE6	-0.066	
78	   H	1359.025	396.863	-1363.212	 H	6	ILE6	0.272	
79	  HA	1361.440	398.037	-1364.170	 H	6	ILE6	0.087	
80	  HB	1360.708	395.040	-1364.182	 H	6	ILE6	0.019	
81	2HG1	1360.403	396.124	-1361.881	 H	6	ILE6	0.024	
82	3HG1	1362.101	396.546	-1361.872	 H	6	ILE6	0.024	
83	1HG2	1362.866	395.471	-1365.452	 H	6	ILE6	0.088	
84	2HG2	1363.529	396.347	-1364.051	 H	6	ILE6	0.088	
85	3HG2	1363.197	394.603	-1363.975	 H	6	ILE6	0.088	
86	1HD1	1360.927	393.661	-1362.017	 H	6	ILE6	0.019	
87	2HD1	1362.666	394.036	-1361.898	 H	6	ILE6	0.019	
88	3HD1	1361.579	394.445	-1360.560	 H	6	ILE6	0.019	
89	   N	1359.763	396.502	-1366.519	N.am	7	LEU7	-0.416	
90	  CA	1359.708	396.466	-1367.978	C.3	7	LEU7	-0.052	
91	   C	1359.635	397.861	-1368.550	C.2	7	LEU7	0.597	
92	   O	1360.356	398.224	-1369.492	O.2	7	LEU7	-0.568	
93	  CB	1358.505	395.606	-1368.458	C.3	7	LEU7	-0.110	
94	  CG	1358.432	394.126	-1367.992	C.3	7	LEU7	0.353	
95	 CD1	1357.242	393.420	-1368.657	C.3	7	LEU7	-0.412	
96	 CD2	1359.725	393.347	-1368.284	C.3	7	LEU7	-0.412	
97	   H	1359.071	396.014	-1365.968	 H	7	LEU7	0.272	
98	  HA	1360.649	396.026	-1368.352	 H	7	LEU7	0.092	
99	 2HB	1358.481	395.622	-1369.566	 H	7	LEU7	0.046	
100	 3HB	1357.565	396.108	-1368.154	 H	7	LEU7	0.046	
101	  HG	1358.262	394.118	-1366.895	 H	7	LEU7	-0.036	
102	1HD1	1356.285	393.929	-1368.435	 H	7	LEU7	0.100	
103	2HD1	1357.341	393.380	-1369.759	 H	7	LEU7	0.100	
104	3HD1	1357.135	392.379	-1368.302	 H	7	LEU7	0.100	
105	1HD2	1360.001	393.378	-1369.354	 H	7	LEU7	0.100	
106	2HD2	1360.579	393.759	-1367.712	 H	7	LEU7	0.100	
107	3HD2	1359.644	392.285	-1367.988	 H	7	LEU7	0.100	
108	   N	1358.798	398.702	-1368.043	N.am	8	ASP8	-0.516	
109	  CA	1358.727	400.051	-1368.596	C.3	8	ASP8	0.038	
110	   C	1360.074	400.731	-1368.539	C.2	8	ASP8	0.537	
111	   O	1360.547	401.337	-1369.513	O.2	8	ASP8	-0.582	
112	  CB	1357.649	400.890	-1367.854	C.3	8	ASP8	-0.030	
113	  CG	1357.430	402.311	-1368.394	C.2	8	ASP8	0.799	
114	 OD1	1357.494	402.510	-1369.625	O.co2	8	ASP8	-0.801	
115	 OD2	1357.238	403.237	-1367.579	O.co2	8	ASP8	-0.801	
116	   H	1358.200	398.430	-1367.276	 H	8	ASP8	0.294	
117	  HA	1358.444	399.974	-1369.663	 H	8	ASP8	0.088	
118	 2HB	1357.907	400.973	-1366.782	 H	8	ASP8	-0.012	
119	 3HB	1356.670	400.385	-1367.887	 H	8	ASP8	-0.012	
120	   N	1360.754	400.681	-1367.444	N.am	9	ALA9	-0.416	
121	  CA	1362.056	401.339	-1367.389	C.3	9	ALA9	0.034	
122	   C	1362.974	400.811	-1368.465	C.2	9	ALA9	0.597	
123	   O	1363.636	401.563	-1369.190	O.2	9	ALA9	-0.568	
124	  CB	1362.621	401.137	-1365.972	C.3	9	ALA9	-0.183	
125	   H	1360.391	400.195	-1366.637	 H	9	ALA9	0.272	
126	  HA	1361.915	402.419	-1367.578	 H	9	ALA9	0.082	
127	 1HB	1361.954	401.564	-1365.199	 H	9	ALA9	0.060	
128	 2HB	1362.757	400.066	-1365.726	 H	9	ALA9	0.060	
129	 3HB	1363.604	401.627	-1365.848	 H	9	ALA9	0.060	
130	   N	1363.070	399.535	-1368.635	N.am	10	HIS10	-0.416	
131	  CA	1363.957	399.024	-1369.676	C.3	10	HIS10	-0.058	
132	   C	1363.590	399.588	-1371.027	C.2	10	HIS10	0.597	
133	   O	1364.442	400.052	-1371.799	O.2	10	HIS10	-0.568	
134	  CB	1363.793	397.495	-1369.670	C.3	10	HIS10	-0.007	
135	  CG	1365.078	396.784	-1369.363	C.2	10	HIS10	0.187	
136	 CD2	1365.460	396.449	-1368.070	C.2	10	HIS10	-0.221	
137	 ND1	1366.030	396.378	-1370.296	N.2	10	HIS10	-0.543	
138	 CE1	1366.937	395.820	-1369.473	C.2	10	HIS10	0.163	
139	 NE2	1366.675	395.817	-1368.137	N.pl3	10	HIS10	-0.280	
140	   H	1362.539	398.900	-1368.056	 H	10	HIS10	0.272	
141	  HA	1364.976	399.381	-1369.451	 H	10	HIS10	0.136	
142	 2HB	1363.427	397.128	-1370.650	 H	10	HIS10	0.037	
143	 3HB	1363.038	397.158	-1368.930	 H	10	HIS10	0.037	
144	 2HD	1364.875	396.665	-1367.181	 H	10	HIS10	0.186	
145	 1HE	1367.827	395.399	-1369.920	 H	10	HIS10	0.144	
146	 2HE	1367.242	395.440	-1367.364	 H	10	HIS10	0.334	
147	   N	1362.352	399.587	-1371.389	N.am	11	VAL11	-0.416	
148	  CA	1361.996	400.133	-1372.696	C.3	11	VAL11	-0.087	
149	   C	1362.461	401.564	-1372.829	C.2	11	VAL11	0.597	
150	   O	1363.061	401.968	-1373.832	O.2	11	VAL11	-0.568	
151	  CB	1360.435	400.027	-1372.914	C.3	11	VAL11	0.299	
152	 CG1	1359.865	400.730	-1374.177	C.3	11	VAL11	-0.319	
153	 CG2	1359.910	398.572	-1372.987	C.3	11	VAL11	-0.319	
154	   H	1361.639	399.215	-1370.778	 H	11	VAL11	0.272	
155	  HA	1362.515	399.550	-1373.478	 H	11	VAL11	0.097	
156	  HB	1359.948	400.507	-1372.039	 H	11	VAL11	-0.030	
157	1HG1	1360.303	400.338	-1375.114	 H	11	VAL11	0.079	
158	2HG1	1358.766	400.623	-1374.258	 H	11	VAL11	0.079	
159	3HG1	1360.044	401.823	-1374.168	 H	11	VAL11	0.079	
160	1HG2	1360.200	397.986	-1372.096	 H	11	VAL11	0.079	
161	2HG2	1358.804	398.536	-1373.029	 H	11	VAL11	0.079	
162	3HG2	1360.291	398.031	-1373.873	 H	11	VAL11	0.079	
163	   N	1362.224	402.389	-1371.866	N.am	12	GLN12	-0.416	
164	  CA	1362.673	403.772	-1371.994	C.3	12	GLN12	-0.003	
165	   C	1364.162	403.839	-1372.233	C.2	12	GLN12	0.597	
166	   O	1364.649	404.547	-1373.112	O.2	12	GLN12	-0.568	
167	  CB	1362.283	404.540	-1370.712	C.3	12	GLN12	-0.004	
168	  CG	1362.643	406.062	-1370.681	C.3	12	GLN12	-0.064	
169	  CD	1362.342	406.876	-1369.416	C.2	12	GLN12	0.695	
170	 NE2	1361.775	406.300	-1368.387	N.pl3	12	GLN12	-0.941	
171	 OE1	1362.644	408.057	-1369.339	O.2	12	GLN12	-0.609	
172	   H	1361.736	402.084	-1371.037	 H	12	GLN12	0.272	
173	  HA	1362.173	404.228	-1372.869	 H	12	GLN12	0.085	
174	 2HB	1362.759	404.040	-1369.842	 H	12	GLN12	0.017	
175	 3HB	1361.193	404.433	-1370.548	 H	12	GLN12	0.017	
176	 2HG	1362.166	406.583	-1371.532	 H	12	GLN12	0.035	
177	 3HG	1363.727	406.204	-1370.847	 H	12	GLN12	0.035	
178	1HE2	1361.668	406.895	-1367.564	 H	12	GLN12	0.425	
179	2HE2	1361.611	405.296	-1368.490	 H	12	GLN12	0.425	
180	   N	1364.947	403.133	-1371.492	N.am	13	ARG13	-0.348	
181	  CA	1366.387	403.198	-1371.724	C.3	13	ARG13	-0.264	
182	   C	1366.723	402.826	-1373.149	C.2	13	ARG13	0.734	
183	   O	1367.491	403.497	-1373.833	O.2	13	ARG13	-0.589	
184	  CB	1367.101	402.259	-1370.710	C.3	13	ARG13	-0.001	
185	  CG	1368.646	402.412	-1370.629	C.3	13	ARG13	0.039	
186	  CD	1369.273	401.424	-1369.631	C.3	13	ARG13	0.049	
187	  NE	1370.750	401.631	-1369.582	N.pl3	13	ARG13	-0.530	
188	  CZ	1371.599	400.939	-1368.827	C.cat	13	ARG13	0.808	
189	 NH1	1371.234	399.975	-1368.029	N.pl3	13	ARG13	-0.863	
190	 NH2	1372.858	401.238	-1368.884	N.pl3	13	ARG13	-0.863	
191	   H	1364.571	402.543	-1370.763	 H	13	ARG13	0.275	
192	  HA	1366.712	404.244	-1371.566	 H	13	ARG13	0.156	
193	 2HB	1366.834	401.208	-1370.948	 H	13	ARG13	0.033	
194	 3HB	1366.676	402.426	-1369.699	 H	13	ARG13	0.033	
195	 2HG	1368.894	403.456	-1370.350	 H	13	ARG13	0.029	
196	 3HG	1369.096	402.255	-1371.631	 H	13	ARG13	0.029	
197	 2HD	1369.028	400.384	-1369.940	 H	13	ARG13	0.069	
198	 3HD	1368.817	401.570	-1368.629	 H	13	ARG13	0.069	
199	  HE	1371.202	402.353	-1370.153	 H	13	ARG13	0.346	
200	1HH1	1370.228	399.789	-1368.032	 H	13	ARG13	0.448	
201	2HH1	1371.947	399.492	-1367.480	 H	13	ARG13	0.448	
202	1HH2	1373.126	401.996	-1369.516	 H	13	ARG13	0.448	
203	2HH2	1373.494	400.697	-1368.296	 H	13	ARG13	0.448	
204	   N	1366.186	401.771	-1373.662	N.am	14	VAL14	-0.416	
205	  CA	1366.510	401.411	-1375.040	C.3	14	VAL14	-0.087	
206	   C	1366.180	402.541	-1375.986	C.2	14	VAL14	0.597	
207	   O	1366.973	402.922	-1376.856	O.2	14	VAL14	-0.568	
208	  CB	1365.737	400.094	-1375.446	C.3	14	VAL14	0.299	
209	 CG1	1365.826	399.675	-1376.939	C.3	14	VAL14	-0.319	
210	 CG2	1366.169	398.842	-1374.645	C.3	14	VAL14	-0.319	
211	   H	1365.552	401.203	-1373.120	 H	14	VAL14	0.272	
212	  HA	1367.599	401.234	-1375.115	 H	14	VAL14	0.097	
213	  HB	1364.661	400.266	-1375.229	 H	14	VAL14	-0.030	
214	1HG1	1366.867	399.498	-1377.268	 H	14	VAL14	0.079	
215	2HG1	1365.252	398.752	-1377.151	 H	14	VAL14	0.079	
216	3HG1	1365.396	400.437	-1377.617	 H	14	VAL14	0.079	
217	1HG2	1366.083	399.001	-1373.554	 H	14	VAL14	0.079	
218	2HG2	1365.533	397.966	-1374.877	 H	14	VAL14	0.079	
219	3HG2	1367.217	398.552	-1374.851	 H	14	VAL14	0.079	
220	   N	1365.036	403.127	-1375.884	N.am	15	MET15	-0.416	
221	  CA	1364.715	404.219	-1376.798	C.3	15	MET15	-0.024	
222	   C	1365.746	405.319	-1376.711	C.2	15	MET15	0.597	
223	   O	1366.248	405.829	-1377.724	O.2	15	MET15	-0.568	
224	  CB	1363.294	404.766	-1376.489	C.3	15	MET15	0.034	
225	  CG	1362.131	403.768	-1376.680	C.3	15	MET15	0.002	
226	  SD	1360.558	404.634	-1376.565	S.3	15	MET15	-0.274	
227	  CE	1359.476	403.205	-1376.427	C.3	15	MET15	-0.054	
228	   H	1364.371	402.835	-1375.182	 H	15	MET15	0.272	
229	  HA	1364.740	403.832	-1377.833	 H	15	MET15	0.088	
230	 2HB	1363.092	405.644	-1377.131	 H	15	MET15	0.024	
231	 3HB	1363.259	405.159	-1375.453	 H	15	MET15	0.024	
232	 2HG	1362.175	402.982	-1375.901	 H	15	MET15	0.044	
233	 3HG	1362.194	403.252	-1377.656	 H	15	MET15	0.044	
234	 1HE	1359.620	402.516	-1377.279	 H	15	MET15	0.068	
235	 2HE	1359.686	402.653	-1375.494	 H	15	MET15	0.068	
236	 3HE	1358.419	403.520	-1376.410	 H	15	MET15	0.068	
237	   N	1366.115	405.741	-1375.549	N.am	16	ARG16	-0.348	
238	  CA	1367.112	406.804	-1375.467	C.3	16	ARG16	-0.264	
239	   C	1368.382	406.411	-1376.183	C.2	16	ARG16	0.734	
240	   O	1368.495	405.334	-1376.764	O.2	16	ARG16	-0.589	
241	  CB	1367.381	407.123	-1373.968	C.3	16	ARG16	-0.001	
242	  CG	1368.207	408.412	-1373.696	C.3	16	ARG16	0.039	
243	  CD	1368.457	408.632	-1372.195	C.3	16	ARG16	0.049	
244	  NE	1369.233	409.891	-1371.995	N.pl3	16	ARG16	-0.530	
245	  CZ	1369.625	410.373	-1370.820	C.cat	16	ARG16	0.808	
246	 NH1	1369.377	409.790	-1369.681	N.pl3	16	ARG16	-0.863	
247	 NH2	1370.289	411.486	-1370.802	N.pl3	16	ARG16	-0.863	
248	   H	1365.720	405.341	-1374.710	 H	16	ARG16	0.275	
249	  HA	1366.703	407.697	-1375.977	 H	16	ARG16	0.156	
250	 2HB	1367.878	406.247	-1373.502	 H	16	ARG16	0.033	
251	 3HB	1366.412	407.204	-1373.434	 H	16	ARG16	0.033	
252	 2HG	1367.676	409.283	-1374.134	 H	16	ARG16	0.029	
253	 3HG	1369.180	408.358	-1374.225	 H	16	ARG16	0.029	
254	 2HD	1369.005	407.757	-1371.782	 H	16	ARG16	0.069	
255	 3HD	1367.484	408.675	-1371.660	 H	16	ARG16	0.069	
256	  HE	1369.512	410.471	-1372.793	 H	16	ARG16	0.346	
257	1HH1	1368.851	408.917	-1369.765	 H	16	ARG16	0.448	
258	2HH1	1369.712	410.226	-1368.820	 H	16	ARG16	0.448	
259	1HH2	1370.475	411.928	-1371.704	 H	16	ARG16	0.448	
260	2HH2	1370.580	411.841	-1369.890	 H	16	ARG16	0.448	
@<TRIPOS>BOND
1 1 2 1
2 1 10 1
3 2 3 1
4 2 5 1
5 2 11 1
6 3 4 2
7 3 16 1
8 5 6 1
9 6 7 1
10 7 8 2
11 7 9 1
12 5 12 1
13 5 13 1
14 6 14 1
15 6 15 1
16 16 17 1
17 16 24 1
18 17 18 1
19 17 20 1
20 17 25 1
21 18 19 2
22 18 30 1
23 20 21 1
24 21 22 1
25 21 23 2
26 20 26 1
27 20 27 1
28 22 28 1
29 22 29 1
30 30 31 1
31 30 36 1
32 31 32 1
33 31 34 1
34 31 37 1
35 32 33 2
36 32 44 1
37 34 35 1
38 35 36 1
39 34 38 1
40 34 39 1
41 35 40 1
42 35 41 1
43 36 42 1
44 36 43 1
45 44 45 1
46 44 53 1
47 45 46 1
48 45 48 1
49 45 54 1
50 46 47 2
51 46 59 1
52 48 49 1
53 49 50 1
54 50 51 2
55 50 52 1
56 48 55 1
57 48 56 1
58 49 57 1
59 49 58 1
60 59 60 1
61 59 65 1
62 60 61 1
63 60 63 1
64 60 66 1
65 61 62 2
66 61 70 1
67 63 64 1
68 63 67 1
69 63 68 1
70 64 69 1
71 70 71 1
72 70 78 1
73 71 72 1
74 71 74 1
75 71 79 1
76 72 73 2
77 72 89 1
78 74 75 1
79 74 76 1
80 75 77 1
81 74 80 1
82 75 81 1
83 75 82 1
84 76 83 1
85 76 84 1
86 76 85 1
87 77 86 1
88 77 87 1
89 77 88 1
90 89 90 1
91 89 97 1
92 90 91 1
93 90 93 1
94 90 98 1
95 91 92 2
96 91 108 1
97 93 94 1
98 94 95 1
99 94 96 1
100 93 99 1
101 93 100 1
102 94 101 1
103 95 102 1
104 95 103 1
105 95 104 1
106 96 105 1
107 96 106 1
108 96 107 1
109 108 109 1
110 108 116 1
111 109 110 1
112 109 112 1
113 109 117 1
114 110 111 2
115 110 120 1
116 112 113 1
117 113 114 2
118 113 115 1
119 112 118 1
120 112 119 1
121 120 121 1
122 120 125 1
123 121 122 1
124 121 124 1
125 121 126 1
126 122 123 2
127 122 130 1
128 124 127 1
129 124 128 1
130 124 129 1
131 130 131 1
132 130 140 1
133 131 132 1
134 131 134 1
135 131 141 1
136 132 133 2
137 132 147 1
138 134 135 1
139 135 136 2
140 136 139 1
141 135 137 1
142 137 138 2
143 138 139 1
144 134 142 1
145 134 143 1
146 136 144 1
147 138 145 1
148 139 146 1
149 147 148 1
150 147 154 1
151 148 149 1
152 148 151 1
153 148 155 1
154 149 150 2
155 149 163 1
156 151 152 1
157 151 153 1
158 151 156 1
159 152 157 1
160 152 158 1
161 152 159 1
162 153 160 1
163 153 161 1
164 153 162 1
165 163 164 1
166 163 172 1
167 164 165 1
168 164 167 1
169 164 173 1
170 165 166 2
171 165 180 1
172 167 168 1
173 168 169 1
174 169 170 1
175 169 171 2
176 167 174 1
177 167 175 1
178 168 176 1
179 168 177 1
180 170 178 1
181 170 179 1
182 180 181 1
183 180 191 1
184 181 182 1
185 181 184 1
186 181 192 1
187 182 183 2
188 182 204 1
189 184 185 1
190 185 186 1
191 186 187 1
192 187 188 1
193 188 189 2
194 188 190 1
195 184 193 1
196 184 194 1
197 185 195 1
198 185 196 1
199 186 197 1
200 186 198 1
201 187 199 1
202 189 200 1
203 189 201 1
204 190 202 1
205 190 203 1
206 204 205 1
207 204 211 1
208 205 206 1
209 205 208 1
210 205 212 1
211 206 207 2
212 206 220 1
213 208 209 1
214 208 210 1
215 208 213 1
216 209 214 1
217 209 215 1
218 209 216 1
219 210 217 1
220 210 218 1
221 210 219 1
222 220 221 1
223 220 228 1
224 221 222 1
225 221 224 1
226 221 229 1
227 222 223 2
228 222 237 1
229 224 225 1
230 225 226 1
231 226 227 1
232 224 230 1
233 224 231 1
234 225 232 1
235 225 233 1
236 227 234 1
237 227 235 1
238 227 236 1
239 237 238 1
240 237 248 1
241 238 239 1
242 238 241 1
243 238 249 1
244 239 240 2
245 241 242 1
246 242 243 1
247 243 244 1
248 244 245 1
249 245 246 2
250 245 247 1
251 241 250 1
252 241 251 1
253 242 252 1
254 242 253 1
255 243 254 1
256 243 255 1
257 244 256 1
258 246 257 1
259 246 258 1
260 247 259 1
261 247 260 1
@<TRIPOS>SUBSTRUCTURE
1	GLU1	1	RESIDUE	1 ****	GLU
2	ASN2	16	RESIDUE	1 ****	ASN
3	PRO3	30	RESIDUE	1 ****	PRO
4	GLU4	44	RESIDUE	1 ****	GLU
5	SER5	59	RESIDUE	1 ****	SER
6	ILE6	70	RESIDUE	1 ****	ILE
7	LEU7	89	RESIDUE	1 ****	LEU
8	ASP8	108	RESIDUE	1 ****	ASP
9	ALA9	120	RESIDUE	1 ****	ALA
10	HIS10	130	RESIDUE	1 ****	HIS
11	VAL11	147	RESIDUE	1 ****	VAL
12	GLN12	163	RESIDUE	1 ****	GLN
13	ARG13	180	RESIDUE	1 ****	ARG
14	VAL14	204	RESIDUE	1 ****	VAL
15	MET15	220	RESIDUE	1 ****	MET
16	ARG16	237	RESIDUE	1 ****	ARG
