REMARK WARNING: 32 MAX_TORS EXCEEDED!!!
REMARK  68 active torsions:
REMARK  status: ('A' for Active; 'I' for Inactive)
REMARK    1  A    between atoms: N_1  and  CA_2 
REMARK    2  A    between atoms: CA_2  and  C_3 
REMARK    3  A    between atoms: CA_2  and  CB_5 
REMARK       I    between atoms: C_3  and  N_11 
REMARK    4  A    between atoms: CB_5  and  CG_6 
REMARK    5  A    between atoms: CG_6  and  CD_7 
REMARK    6  A    between atoms: N_11  and  CA_12 
REMARK    7  A    between atoms: CA_12  and  C_13 
REMARK    8  A    between atoms: CA_12  and  CB_15 
REMARK       I    between atoms: C_13  and  N_22 
REMARK    9  A    between atoms: CB_15  and  CG_16 
REMARK       I    between atoms: CG_16  and  ND2_17 
REMARK   10  A    between atoms: CA_23  and  C_24 
REMARK       I    between atoms: C_24  and  N_29 
REMARK   11  A    between atoms: N_29  and  CA_30 
REMARK   12  A    between atoms: CA_30  and  C_31 
REMARK   13  A    between atoms: CA_30  and  CB_33 
REMARK       I    between atoms: C_31  and  N_39 
REMARK   14  A    between atoms: CB_33  and  CG_34 
REMARK   15  A    between atoms: CG_34  and  CD_35 
REMARK   16  A    between atoms: N_39  and  CA_40 
REMARK   17  A    between atoms: CA_40  and  C_41 
REMARK   18  A    between atoms: CA_40  and  CB_43 
REMARK       I    between atoms: C_41  and  N_47 
REMARK   19  A    between atoms: CB_43  and  OG_44 
REMARK   20  A    between atoms: N_47  and  CA_48 
REMARK   21  A    between atoms: CA_48  and  C_49 
REMARK   22  A    between atoms: CA_48  and  CB_51 
REMARK       I    between atoms: C_49  and  N_56 
REMARK   23  A    between atoms: CB_51  and  CG1_52 
REMARK   24  A    between atoms: N_56  and  CA_57 
REMARK   25  A    between atoms: CA_57  and  C_58 
REMARK   26  A    between atoms: CA_57  and  CB_60 
REMARK       I    between atoms: C_58  and  N_65 
REMARK   27  A    between atoms: CB_60  and  CG_61 
REMARK   28  A    between atoms: N_65  and  CA_66 
REMARK   29  A    between atoms: CA_66  and  C_67 
REMARK   30  A    between atoms: CA_66  and  CB_69 
REMARK       I    between atoms: C_67  and  N_74 
REMARK   31  A    between atoms: CB_69  and  CG_70 
REMARK   32  A    between atoms: N_74  and  CA_75 
REMARK   33  A    between atoms: CA_75  and  C_76 
REMARK   34  A    between atoms: CA_75  and  CB_78 
REMARK       I    between atoms: C_76  and  N_84 
REMARK   35  A    between atoms: CB_78  and  CG_79 
REMARK   36  A    between atoms: CG_79  and  CD_80 
REMARK   37  A    between atoms: N_84  and  CA_85 
REMARK   38  A    between atoms: CA_85  and  C_86 
REMARK   39  A    between atoms: CA_85  and  CB_88 
REMARK       I    between atoms: C_86  and  N_96 
REMARK   40  A    between atoms: CB_88  and  CG_89 
REMARK   41  A    between atoms: N_96  and  CA_97 
REMARK   42  A    between atoms: CA_97  and  C_98 
REMARK   43  A    between atoms: CA_97  and  CB_100 
REMARK       I    between atoms: C_98  and  N_104 
REMARK   44  A    between atoms: N_104  and  CA_105 
REMARK   45  A    between atoms: CA_105  and  C_106 
REMARK   46  A    between atoms: CA_105  and  CB_108 
REMARK       I    between atoms: C_106  and  N_116 
REMARK   47  A    between atoms: CB_108  and  CG_109 
REMARK   48  A    between atoms: CG_109  and  CD_110 
REMARK       I    between atoms: CD_110  and  NE2_111 
REMARK   49  A    between atoms: N_116  and  CA_117 
REMARK   50  A    between atoms: CA_117  and  C_118 
REMARK   51  A    between atoms: CA_117  and  CB_120 
REMARK       I    between atoms: C_118  and  N_133 
REMARK   52  A    between atoms: CB_120  and  CG_121 
REMARK   53  A    between atoms: CG_121  and  CD_122 
REMARK   54  A    between atoms: CD_122  and  NE_123 
REMARK       I    between atoms: NE_123  and  CZ_124 
REMARK       I    between atoms: CZ_124  and  NH1_125 
REMARK       I    between atoms: CZ_124  and  NH2_126 
REMARK   55  A    between atoms: N_133  and  CA_134 
REMARK   56  A    between atoms: CA_134  and  C_135 
REMARK   57  A    between atoms: CA_134  and  CB_137 
REMARK       I    between atoms: C_135  and  N_141 
REMARK   58  A    between atoms: N_141  and  CA_142 
REMARK   59  A    between atoms: CA_142  and  C_143 
REMARK   60  A    between atoms: CA_142  and  CB_145 
REMARK       I    between atoms: C_143  and  N_150 
REMARK   61  A    between atoms: CB_145  and  CG_146 
REMARK   62  A    between atoms: CG_146  and  SD_147 
REMARK   63  A    between atoms: N_150  and  CA_151 
REMARK   64  A    between atoms: CA_151  and  C_152 
REMARK   65  A    between atoms: CA_151  and  CB_154 
REMARK   66  A    between atoms: CB_154  and  CG_155 
REMARK   67  A    between atoms: CG_155  and  CD_156 
REMARK   68  A    between atoms: CD_156  and  NE_157 
REMARK       I    between atoms: NE_157  and  CZ_158 
REMARK       I    between atoms: CZ_158  and  NH1_159 
ROOT
ATOM      1  C   GLU d   9    1167.246 335.505-1155.418  0.00  0.00     0.241 C 
ATOM      2  O   GLU d   9    1167.910 336.259-1156.145  0.00  0.00    -0.271 OA
ATOM      3  N   HIS d  10    1167.343 334.230-1155.586  0.00  0.00    -0.346 N 
ATOM      4  H   HIS d  10    1166.812 333.595-1155.007  0.00  0.00     0.163 HD
ENDROOT
BRANCH   1   5
ATOM      5  CA  GLU d   9    1166.328 336.034-1154.343  0.00  0.00     0.177 C 
BRANCH   5   6
ATOM      6  N   GLU d   9    1165.026 335.377-1154.397  0.00  0.00    -0.346 N 
ATOM      7  C   ASP d   8    1164.346 335.425-1155.492  0.00  0.00     0.241 C 
ATOM      8  O   ASP d   8    1164.818 336.029-1156.468  0.00  0.00    -0.271 OA
ATOM      9  H   GLU d   9    1164.662 334.892-1153.589  0.00  0.00     0.163 HD
BRANCH   7  10
ATOM     10  CA  ASP d   8    1162.999 334.746-1155.548  0.00  0.00     0.186 C 
BRANCH  10  11
ATOM     11  N   ASP d   8    1163.069 333.397-1154.993  0.00  0.00    -0.345 N 
ATOM     12  C   ASP d   7    1163.906 332.555-1155.498  0.00  0.00     0.241 C 
ATOM     13  O   ASP d   7    1164.627 332.916-1156.441  0.00  0.00    -0.271 OA
ATOM     14  H   ASP d   8    1162.472 333.127-1154.224  0.00  0.00     0.163 HD
BRANCH  12  15
ATOM     15  CA  ASP d   7    1163.979 331.161-1154.924  0.00  0.00     0.186 C 
BRANCH  15  16
ATOM     16  N   ASP d   7    1164.034 331.197-1153.465  0.00  0.00    -0.345 N 
ATOM     17  C   ILE d   6    1164.980 331.861-1152.891  0.00  0.00     0.241 C 
ATOM     18  O   ILE d   6    1165.815 332.448-1153.595  0.00  0.00    -0.271 OA
ATOM     19  H   ASP d   7    1163.343 330.710-1152.913  0.00  0.00     0.163 HD
BRANCH  17  20
ATOM     20  CA  ILE d   6    1165.038 331.898-1151.384  0.00  0.00     0.180 C 
BRANCH  20  21
ATOM     21  N   ILE d   6    1163.725 332.193-1150.817  0.00  0.00    -0.346 N 
ATOM     22  C   SER d   5    1163.120 333.276-1151.171  0.00  0.00     0.243 C 
ATOM     23  O   SER d   5    1163.667 334.029-1151.976  0.00  0.00    -0.271 OA
ATOM     24  H   ILE d   6    1163.296 331.558-1150.158  0.00  0.00     0.163 HD
BRANCH  22  25
ATOM     25  CA  SER d   5    1161.761 333.581-1150.585  0.00  0.00     0.200 C 
BRANCH  25  26
ATOM     26  N   SER d   5    1160.892 332.410-1150.644  0.00  0.00    -0.344 N 
ATOM     27  C   GLU d   4    1160.664 331.857-1151.787  0.00  0.00     0.241 C 
ATOM     28  O   GLU d   4    1161.190 332.337-1152.801  0.00  0.00    -0.271 OA
ATOM     29  H   SER d   5    1160.475 332.038-1149.802  0.00  0.00     0.163 HD
BRANCH  27  30
ATOM     30  CA  GLU d   4    1159.765 330.646-1151.848  0.00  0.00     0.177 C 
BRANCH  30  31
ATOM     31  N   GLU d   4    1160.125 329.675-1150.818  0.00  0.00    -0.346 N 
ATOM     32  C   PRO d   3    1161.330 329.215-1150.786  0.00  0.00     0.241 C 
ATOM     33  O   PRO d   3    1162.153 329.598-1151.618  0.00  0.00    -0.271 OA
ATOM     34  H   GLU d   4    1159.441 329.368-1150.142  0.00  0.00     0.163 HD
BRANCH  32  35
ATOM     35  CA  PRO d   3    1161.728 328.191-1149.709  0.00  0.00     0.179 C 
ATOM     36  N   PRO d   3    1161.276 328.601-1148.388  0.00  0.00    -0.337 N 
ATOM     37  C   ASN d   2    1161.798 329.596-1147.754  0.00  0.00     0.243 C 
ATOM     38  CD  PRO d   3    1160.198 327.807-1147.839  0.00  0.00     0.127 C 
ATOM     39  O   ASN d   2    1162.712 330.226-1148.282  0.00  0.00    -0.271 OA
ATOM     40  CG  PRO d   3    1159.741 326.989-1149.048  0.00  0.00     0.022 C 
ATOM     41  CB  PRO d   3    1161.024 326.837-1149.879  0.00  0.00     0.037 C 
BRANCH  37  42
ATOM     42  CA  ASN d   2    1161.267 329.951-1146.385  0.00  0.00     0.185 C 
BRANCH  42  43
ATOM     43  N   ASN d   2    1159.807 329.990-1146.385  0.00  0.00    -0.346 N 
ATOM     44  C   GLU d   1    1159.203 330.776-1147.210  0.00  0.00     0.242 C 
ATOM     45  O   GLU d   1    1159.879 331.475-1147.979  0.00  0.00    -0.271 OA
ATOM     46  H   ASN d   2    1159.279 329.410-1145.749  0.00  0.00     0.163 HD
BRANCH  44  47
ATOM     47  CA  GLU d   1    1157.694 330.816-1147.210  0.00  0.00     0.191 C 
BRANCH  47  48
ATOM     48  N   GLU d   1    1157.135 329.467-1147.210  0.00  0.00    -0.326 NA
ATOM     49  H   GLU d   1    1157.762 328.588-1147.210  0.00  0.00     0.180 HD
ENDBRANCH  47  48
BRANCH  47  50
ATOM     50  CB  GLU d   1    1157.171 331.601-1145.973  0.00  0.00     0.047 C 
BRANCH  50  51
ATOM     51  CG  GLU d   1    1157.646 333.086-1145.862  0.00  0.00     0.116 C 
BRANCH  51  52
ATOM     52  CD  GLU d   1    1157.222 333.890-1144.647  0.00  0.00     0.172 C 
ATOM     53  OE1 GLU d   1    1156.494 333.388-1143.769  0.00  0.00    -0.648 OA
ATOM     54  OE2 GLU d   1    1157.652 335.060-1144.575  0.00  0.00    -0.648 OA
ENDBRANCH  51  52
ENDBRANCH  50  51
ENDBRANCH  47  50
ENDBRANCH  44  47
ENDBRANCH  42  43
BRANCH  42  55
ATOM     55  CB  ASN d   2    1161.759 328.928-1145.321  0.00  0.00     0.137 C 
BRANCH  55  56
ATOM     56  CG  ASN d   2    1161.296 329.152-1143.877  0.00  0.00     0.217 C 
ATOM     57  ND2 ASN d   2    1161.890 330.067-1143.159  0.00  0.00    -0.370 N 
ATOM     58 21HD ASN d   2    1161.409 330.240-1142.273  0.00  0.00     0.159 HD
ATOM     59 22HD ASN d   2    1162.591 330.639-1143.629  0.00  0.00     0.159 HD
ATOM     60  OD1 ASN d   2    1160.375 328.518-1143.383  0.00  0.00    -0.274 OA
ENDBRANCH  55  56
ENDBRANCH  42  55
ENDBRANCH  37  42
ENDBRANCH  32  35
ENDBRANCH  30  31
BRANCH  30  61
ATOM     61  CB  GLU d   4    1158.277 331.064-1151.677  0.00  0.00     0.045 C 
BRANCH  61  62
ATOM     62  CG  GLU d   4    1157.728 332.068-1152.743  0.00  0.00     0.116 C 
BRANCH  62  63
ATOM     63  CD  GLU d   4    1156.302 332.565-1152.599  0.00  0.00     0.172 C 
ATOM     64  OE1 GLU d   4    1155.576 332.166-1151.668  0.00  0.00    -0.648 OA
ATOM     65  OE2 GLU d   4    1155.912 333.394-1153.447  0.00  0.00    -0.648 OA
ENDBRANCH  62  63
ENDBRANCH  61  62
ENDBRANCH  30  61
ENDBRANCH  27  30
ENDBRANCH  25  26
BRANCH  25  66
ATOM     66  CB  SER d   5    1161.873 334.113-1149.135  0.00  0.00     0.199 C 
BRANCH  66  67
ATOM     67  OG  SER d   5    1162.605 333.234-1148.274  0.00  0.00    -0.398 OA
ATOM     68  HG  SER d   5    1162.116 332.409-1148.223  0.00  0.00     0.209 HD
ENDBRANCH  66  67
ENDBRANCH  25  66
ENDBRANCH  22  25
ENDBRANCH  20  21
BRANCH  20  69
ATOM     69  CB  ILE d   6    1165.637 330.562-1150.784  0.00  0.00     0.013 C 
ATOM     70  CG2 ILE d   6    1167.079 330.260-1151.299  0.00  0.00     0.012 C 
BRANCH  69  71
ATOM     71  CG1 ILE d   6    1165.657 330.499-1149.223  0.00  0.00     0.002 C 
ATOM     72  CD1 ILE d   6    1165.927 329.110-1148.608  0.00  0.00     0.005 C 
ENDBRANCH  69  71
ENDBRANCH  20  69
ENDBRANCH  17  20
ENDBRANCH  15  16
BRANCH  15  73
ATOM     73  CB  ASP d   7    1162.778 330.299-1155.404  0.00  0.00     0.147 C 
BRANCH  73  74
ATOM     74  CG  ASP d   7    1162.655 330.125-1156.925  0.00  0.00     0.175 C 
ATOM     75  OD1 ASP d   7    1163.692 330.006-1157.609  0.00  0.00    -0.648 OA
ATOM     76  OD2 ASP d   7    1161.517 330.154-1157.438  0.00  0.00    -0.648 OA
ENDBRANCH  73  74
ENDBRANCH  15  73
ENDBRANCH  12  15
ENDBRANCH  10  11
BRANCH  10  77
ATOM     77  CB  ASP d   8    1161.921 335.586-1154.807  0.00  0.00     0.147 C 
BRANCH  77  78
ATOM     78  CG  ASP d   8    1161.703 337.006-1155.350  0.00  0.00     0.175 C 
ATOM     79  OD1 ASP d   8    1161.766 337.203-1156.581  0.00  0.00    -0.648 OA
ATOM     80  OD2 ASP d   8    1161.511 337.933-1154.536  0.00  0.00    -0.648 OA
ENDBRANCH  77  78
ENDBRANCH  10  77
ENDBRANCH   7  10
ENDBRANCH   5   6
BRANCH   5  81
ATOM     81  CB  GLU d   9    1166.962 335.829-1152.938  0.00  0.00     0.045 C 
BRANCH  81  82
ATOM     82  CG  GLU d   9    1168.345 336.521-1152.710  0.00  0.00     0.116 C 
BRANCH  82  83
ATOM     83  CD  GLU d   9    1169.047 336.310-1151.381  0.00  0.00     0.172 C 
ATOM     84  OE1 GLU d   9    1168.526 335.620-1150.484  0.00  0.00    -0.648 OA
ATOM     85  OE2 GLU d   9    1170.167 336.847-1151.251  0.00  0.00    -0.648 OA
ENDBRANCH  82  83
ENDBRANCH  81  82
ENDBRANCH   5  81
ENDBRANCH   1   5
BRANCH   3  86
ATOM     86  CA  HIS d  10    1168.230 333.717-1156.626  0.00  0.00     0.182 C 
BRANCH  86  87
ATOM     87  C   HIS d  10    1167.863 334.280-1157.978  0.00  0.00     0.241 C 
ATOM     88  O   HIS d  10    1168.716 334.743-1158.750  0.00  0.00    -0.271 OA
ATOM     89  N   VAL d  11    1166.625 334.278-1158.341  0.00  0.00    -0.346 N 
ATOM     90  H   VAL d  11    1165.912 333.906-1157.729  0.00  0.00     0.163 HD
BRANCH  89  91
ATOM     91  CA  VAL d  11    1166.270 334.823-1159.648  0.00  0.00     0.180 C 
BRANCH  91  92
ATOM     92  C   VAL d  11    1166.734 336.253-1159.782  0.00  0.00     0.241 C 
ATOM     93  O   VAL d  11    1167.335 336.657-1160.786  0.00  0.00    -0.271 OA
ATOM     94  N   GLN d  12    1166.498 337.080-1158.821  0.00  0.00    -0.346 N 
ATOM     95  H   GLN d  12    1166.009 336.775-1157.992  0.00  0.00     0.163 HD
BRANCH  94  96
ATOM     96  CA  GLN d  12    1166.946 338.463-1158.950  0.00  0.00     0.177 C 
BRANCH  96  97
ATOM     97  C   GLN d  12    1168.436 338.530-1159.188  0.00  0.00     0.241 C 
ATOM     98  O   GLN d  12    1168.923 339.237-1160.068  0.00  0.00    -0.271 OA
ATOM     99  N   ARG d  13    1169.221 337.824-1158.447  0.00  0.00    -0.346 N 
ATOM    100  H   ARG d  13    1168.845 337.235-1157.718  0.00  0.00     0.163 HD
BRANCH  99 101
ATOM    101  CA  ARG d  13    1170.661 337.890-1158.678  0.00  0.00     0.176 C 
BRANCH 101 102
ATOM    102  C   ARG d  13    1170.997 337.516-1160.103  0.00  0.00     0.241 C 
ATOM    103  O   ARG d  13    1171.765 338.187-1160.788  0.00  0.00    -0.271 OA
ATOM    104  N   VAL d  14    1170.460 336.461-1160.615  0.00  0.00    -0.346 N 
ATOM    105  H   VAL d  14    1169.826 335.893-1160.073  0.00  0.00     0.163 HD
BRANCH 104 106
ATOM    106  CA  VAL d  14    1170.784 336.100-1161.992  0.00  0.00     0.180 C 
BRANCH 106 107
ATOM    107  C   VAL d  14    1170.454 337.229-1162.939  0.00  0.00     0.241 C 
ATOM    108  O   VAL d  14    1171.247 337.609-1163.810  0.00  0.00    -0.271 OA
ATOM    109  N   MET d  15    1169.309 337.815-1162.838  0.00  0.00    -0.346 N 
ATOM    110  H   MET d  15    1168.645 337.523-1162.136  0.00  0.00     0.163 HD
BRANCH 109 111
ATOM    111  CA  MET d  15    1168.989 338.907-1163.753  0.00  0.00     0.177 C 
BRANCH 111 112
ATOM    112  C   MET d  15    1170.019 340.006-1163.667  0.00  0.00     0.241 C 
ATOM    113  O   MET d  15    1170.521 340.516-1164.680  0.00  0.00    -0.271 OA
ATOM    114  N   ARG d  16    1170.388 340.429-1162.505  0.00  0.00    -0.347 N 
ATOM    115  H   ARG d  16    1169.994 340.030-1161.666  0.00  0.00     0.163 HD
BRANCH 114 116
ATOM    116  CA  ARG d  16    1171.385 341.493-1162.423  0.00  0.00     0.162 C 
BRANCH 116 117
ATOM    117  C   ARG d  16    1172.655 341.099-1163.140  0.00  0.00     0.219 C 
ATOM    118  O   ARG d  16    1172.769 340.022-1163.720  0.00  0.00    -0.287 OA
ENDBRANCH 116 117
BRANCH 116 119
ATOM    119  CB  ARG d  16    1171.655 341.812-1160.925  0.00  0.00     0.035 C 
BRANCH 119 120
ATOM    120  CG  ARG d  16    1172.480 343.101-1160.654  0.00  0.00     0.023 C 
BRANCH 120 121
ATOM    121  CD  ARG d  16    1172.731 343.322-1159.153  0.00  0.00     0.138 C 
BRANCH 121 122
ATOM    122  NE  ARG d  16    1173.507 344.581-1158.954  0.00  0.00    -0.227 N 
ATOM    123  CZ  ARG d  16    1173.899 345.064-1157.779  0.00  0.00     0.665 C 
ATOM    124  NH1 ARG d  16    1173.652 344.481-1156.640  0.00  0.00    -0.235 N 
ATOM    125  NH2 ARG d  16    1174.563 346.177-1157.762  0.00  0.00    -0.235 N 
ATOM    126 11HH ARG d  16    1173.126 343.608-1156.723  0.00  0.00     0.174 HD
ATOM    127 12HH ARG d  16    1173.987 344.917-1155.779  0.00  0.00     0.174 HD
ATOM    128 21HH ARG d  16    1174.748 346.619-1158.664  0.00  0.00     0.174 HD
ATOM    129 22HH ARG d  16    1174.854 346.533-1156.850  0.00  0.00     0.174 HD
ATOM    130  HE  ARG d  16    1173.785 345.161-1159.752  0.00  0.00     0.177 HD
ENDBRANCH 121 122
ENDBRANCH 120 121
ENDBRANCH 119 120
ENDBRANCH 116 119
ENDBRANCH 114 116
ENDBRANCH 111 112
BRANCH 111 131
ATOM    131  CB  MET d  15    1167.568 339.453-1163.444  0.00  0.00     0.045 C 
BRANCH 131 132
ATOM    132  CG  MET d  15    1166.405 338.455-1163.634  0.00  0.00     0.076 C 
BRANCH 132 133
ATOM    133  SD  MET d  15    1164.832 339.321-1163.520  0.00  0.00    -0.173 SA
ATOM    134  CE  MET d  15    1163.750 337.892-1163.381  0.00  0.00     0.089 C 
ENDBRANCH 132 133
ENDBRANCH 131 132
ENDBRANCH 111 131
ENDBRANCH 109 111
ENDBRANCH 106 107
BRANCH 106 135
ATOM    135  CB  VAL d  14    1170.012 334.783-1162.397  0.00  0.00     0.009 C 
ATOM    136  CG1 VAL d  14    1170.100 334.362-1163.890  0.00  0.00     0.012 C 
ATOM    137  CG2 VAL d  14    1170.444 333.531-1161.596  0.00  0.00     0.012 C 
ENDBRANCH 106 135
ENDBRANCH 104 106
ENDBRANCH 101 102
BRANCH 101 138
ATOM    138  CB  ARG d  13    1171.375 336.952-1157.663  0.00  0.00     0.036 C 
BRANCH 138 139
ATOM    139  CG  ARG d  13    1172.920 337.105-1157.583  0.00  0.00     0.023 C 
BRANCH 139 140
ATOM    140  CD  ARG d  13    1173.547 336.119-1156.584  0.00  0.00     0.138 C 
BRANCH 140 141
ATOM    141  NE  ARG d  13    1175.024 336.326-1156.534  0.00  0.00    -0.227 N 
ATOM    142  CZ  ARG d  13    1175.873 335.635-1155.779  0.00  0.00     0.665 C 
ATOM    143  NH1 ARG d  13    1175.508 334.672-1154.980  0.00  0.00    -0.235 N 
ATOM    144  NH2 ARG d  13    1177.132 335.934-1155.836  0.00  0.00    -0.235 N 
ATOM    145 11HH ARG d  13    1174.502 334.485-1154.983  0.00  0.00     0.174 HD
ATOM    146 12HH ARG d  13    1176.221 334.189-1154.431  0.00  0.00     0.174 HD
ATOM    147 21HH ARG d  13    1177.399 336.691-1156.468  0.00  0.00     0.174 HD
ATOM    148 22HH ARG d  13    1177.767 335.393-1155.247  0.00  0.00     0.174 HD
ATOM    149  HE  ARG d  13    1175.475 337.047-1157.106  0.00  0.00     0.177 HD
ENDBRANCH 140 141
ENDBRANCH 139 140
ENDBRANCH 138 139
ENDBRANCH 101 138
ENDBRANCH  99 101
ENDBRANCH  96  97
BRANCH  96 150
ATOM    150  CB  GLN d  12    1166.556 339.232-1157.668  0.00  0.00     0.044 C 
BRANCH 150 151
ATOM    151  CG  GLN d  12    1166.916 340.754-1157.639  0.00  0.00     0.105 C 
BRANCH 151 152
ATOM    152  CD  GLN d  12    1166.614 341.569-1156.375  0.00  0.00     0.215 C 
ATOM    153  NE2 GLN d  12    1166.047 340.994-1155.345  0.00  0.00    -0.370 N 
ATOM    154 21HE GLN d  12    1165.940 341.589-1154.523  0.00  0.00     0.159 HD
ATOM    155 22HE GLN d  12    1165.883 339.990-1155.448  0.00  0.00     0.159 HD
ATOM    156  OE1 GLN d  12    1166.916 342.750-1156.299  0.00  0.00    -0.274 OA
ENDBRANCH 151 152
ENDBRANCH 150 151
ENDBRANCH  96 150
ENDBRANCH  94  96
ENDBRANCH  91  92
BRANCH  91 157
ATOM    157  CB  VAL d  11    1164.709 334.716-1159.867  0.00  0.00     0.009 C 
ATOM    158  CG1 VAL d  11    1164.140 335.419-1161.130  0.00  0.00     0.012 C 
ATOM    159  CG2 VAL d  11    1164.184 333.262-1159.938  0.00  0.00     0.012 C 
ENDBRANCH  91 157
ENDBRANCH  89  91
ENDBRANCH  86  87
BRANCH  86 160
ATOM    160  CB  HIS d  10    1168.066 332.188-1156.619  0.00  0.00     0.095 C 
BRANCH 160 161
ATOM    161  CG  HIS d  10    1169.352 331.478-1156.310  0.00  0.00     0.053 A 
ATOM    162  CD2 HIS d  10    1169.733 331.145-1155.017  0.00  0.00     0.116 A 
ATOM    163  NE2 HIS d  10    1170.948 330.513-1155.083  0.00  0.00    -0.359 N 
ATOM    164  CE1 HIS d  10    1171.210 330.514-1156.418  0.00  0.00     0.207 A 
ATOM    165  2HE HIS d  10    1171.515 330.137-1154.310  0.00  0.00     0.166 HD
ATOM    166  ND1 HIS d  10    1170.303 331.071-1157.242  0.00  0.00    -0.247 NA
ENDBRANCH 160 161
ENDBRANCH  86 160
ENDBRANCH   3  86
TORSDOF 68
