@<TRIPOS>MOLECULE
10-13
259 259 16              
SMALL
USER_CHARGES
@<TRIPOS>ATOM
1	   N	1615.759	480.210	-1644.222	N.3	1	GLU1	-0.516	
2	  CA	1616.318	481.559	-1644.222	C.3	1	GLU1	0.040	
3	   C	1617.827	481.519	-1644.222	C.2	1	GLU1	0.537	
4	   O	1618.503	482.218	-1644.990	O.2	1	GLU1	-0.582	
5	  CB	1615.795	482.344	-1642.985	C.3	1	GLU1	0.056	
6	  CG	1616.270	483.829	-1642.874	C.3	1	GLU1	0.014	
7	  CD	1615.846	484.633	-1641.659	C.2	1	GLU1	0.805	
8	 OE1	1615.118	484.131	-1640.781	O.co2	1	GLU1	-0.819	
9	 OE2	1616.276	485.803	-1641.587	O.co2	1	GLU1	-0.819	
10	   H	1616.386	479.331	-1644.222	 H	1	GLU1	0.294	
11	  HA	1615.992	482.077	-1645.142	 H	1	GLU1	0.111	
12	 2HB	1616.084	481.813	-1642.055	 H	1	GLU1	-0.017	
13	 3HB	1614.688	482.334	-1642.972	 H	1	GLU1	-0.017	
14	 2HG	1615.960	484.414	-1643.755	 H	1	GLU1	-0.043	
15	 3HG	1617.370	483.896	-1642.845	 H	1	GLU1	-0.043	
16	   N	1618.431	480.733	-1643.397	N.am	2	ASN2	-0.416	
17	  CA	1619.891	480.694	-1643.397	C.3	2	ASN2	0.014	
18	   C	1620.422	480.339	-1644.766	C.2	2	ASN2	0.597	
19	   O	1621.337	480.969	-1645.294	O.2	2	ASN2	-0.568	
20	  CB	1620.383	479.672	-1642.332	C.3	2	ASN2	-0.204	
21	  CG	1619.920	479.895	-1640.889	C.2	2	ASN2	0.713	
22	 ND2	1620.514	480.810	-1640.171	N.pl3	2	ASN2	-0.919	
23	 OD1	1618.999	479.261	-1640.395	O.2	2	ASN2	-0.593	
24	   H	1617.903	480.153	-1642.760	 H	2	ASN2	0.272	
25	  HA	1620.268	481.705	-1643.151	 H	2	ASN2	0.105	
26	 2HB	1621.487	479.612	-1642.336	 H	2	ASN2	0.080	
27	 3HB	1620.054	478.653	-1642.618	 H	2	ASN2	0.080	
28	1HD2	1620.033	480.983	-1639.284	 H	2	ASN2	0.420	
29	2HD2	1621.216	481.382	-1640.640	 H	2	ASN2	0.420	
30	   N	1619.900	479.344	-1645.400	N.am	3	PRO3	-0.255	
31	  CA	1620.352	478.935	-1646.721	C.3	3	PRO3	-0.027	
32	   C	1619.954	479.958	-1647.798	C.2	3	PRO3	0.590	
33	   O	1620.777	480.341	-1648.630	O.2	3	PRO3	-0.575	
34	  CB	1619.648	477.580	-1646.890	C.3	3	PRO3	-0.007	
35	  CG	1618.365	477.732	-1646.060	C.3	3	PRO3	0.019	
36	  CD	1618.822	478.551	-1644.850	C.3	3	PRO3	0.019	
37	  HA	1621.438	478.815	-1646.735	 H	3	PRO3	0.064	
38	 2HB	1620.271	476.799	-1646.450	 H	3	PRO3	0.025	
39	 3HB	1619.450	477.331	-1647.936	 H	3	PRO3	0.025	
40	 2HG	1617.937	476.770	-1645.769	 H	3	PRO3	0.021	
41	 3HG	1617.627	478.303	-1646.627	 H	3	PRO3	0.021	
42	 2HD	1619.212	477.901	-1644.063	 H	3	PRO3	0.039	
43	 3HD	1618.026	479.187	-1644.457	 H	3	PRO3	0.039	
44	   N	1618.749	480.418	-1647.830	N.am	4	GLU4	-0.516	
45	  CA	1618.389	481.389	-1648.860	C.3	4	GLU4	0.040	
46	   C	1619.288	482.600	-1648.799	C.2	4	GLU4	0.537	
47	   O	1619.814	483.080	-1649.813	O.2	4	GLU4	-0.582	
48	  CB	1616.901	481.808	-1648.689	C.3	4	GLU4	0.056	
49	  CG	1616.352	482.811	-1649.755	C.3	4	GLU4	0.014	
50	  CD	1614.926	483.308	-1649.611	C.2	4	GLU4	0.805	
51	 OE1	1614.200	482.909	-1648.680	O.co2	4	GLU4	-0.819	
52	 OE2	1614.536	484.137	-1650.459	O.co2	4	GLU4	-0.819	
53	   H	1618.065	480.111	-1647.153	 H	4	GLU4	0.294	
54	  HA	1618.520	480.919	-1649.851	 H	4	GLU4	0.111	
55	 2HB	1616.748	482.248	-1647.682	 H	4	GLU4	-0.017	
56	 3HB	1616.253	480.910	-1648.695	 H	4	GLU4	-0.017	
57	 2HG	1616.434	482.397	-1650.772	 H	4	GLU4	-0.043	
58	 3HG	1616.940	483.744	-1649.766	 H	4	GLU4	-0.043	
59	   N	1619.516	483.153	-1647.656	N.am	5	SER5	-0.416	
60	  CA	1620.385	484.324	-1647.597	C.3	5	SER5	-0.025	
61	   C	1621.744	484.019	-1648.183	C.2	5	SER5	0.597	
62	   O	1622.291	484.773	-1648.988	O.2	5	SER5	-0.568	
63	  CB	1620.497	484.857	-1646.146	C.3	5	SER5	0.212	
64	  OG	1621.229	483.977	-1645.286	O.3	5	SER5	-0.655	
65	   H	1619.099	482.781	-1646.814	 H	5	SER5	0.272	
66	  HA	1619.936	485.115	-1648.226	 H	5	SER5	0.084	
67	 2HB	1619.497	485.050	-1645.713	 H	5	SER5	0.035	
68	 3HB	1621.002	485.842	-1646.149	 H	5	SER5	0.035	
69	  HG	1620.740	483.152	-1645.235	 H	5	SER5	0.428	
70	   N	1622.349	482.936	-1647.829	N.am	6	ILE6	-0.416	
71	  CA	1623.662	482.641	-1648.395	C.3	6	ILE6	-0.060	
72	   C	1623.604	482.604	-1649.903	C.2	6	ILE6	0.597	
73	   O	1624.439	483.192	-1650.607	O.2	6	ILE6	-0.568	
74	  CB	1624.262	481.305	-1647.796	C.3	6	ILE6	0.130	
75	 CG1	1624.281	481.243	-1646.234	C.3	6	ILE6	-0.043	
76	 CG2	1625.703	481.004	-1648.311	C.3	6	ILE6	-0.320	
77	 CD1	1624.551	479.853	-1645.620	C.3	6	ILE6	-0.066	
78	   H	1621.920	482.302	-1647.170	 H	6	ILE6	0.272	
79	  HA	1624.336	483.476	-1648.127	 H	6	ILE6	0.087	
80	  HB	1623.604	480.479	-1648.140	 H	6	ILE6	0.019	
81	2HG1	1623.299	481.562	-1645.839	 H	6	ILE6	0.024	
82	3HG1	1624.997	481.985	-1645.830	 H	6	ILE6	0.024	
83	1HG2	1625.762	480.910	-1649.409	 H	6	ILE6	0.088	
84	2HG2	1626.425	481.786	-1648.009	 H	6	ILE6	0.088	
85	3HG2	1626.093	480.041	-1647.932	 H	6	ILE6	0.088	
86	1HD1	1623.823	479.099	-1645.974	 H	6	ILE6	0.019	
87	2HD1	1625.562	479.475	-1645.856	 H	6	ILE6	0.019	
88	3HD1	1624.475	479.883	-1644.517	 H	6	ILE6	0.019	
89	   N	1622.659	481.940	-1650.477	N.am	7	LEU7	-0.416	
90	  CA	1622.604	481.905	-1651.935	C.3	7	LEU7	-0.052	
91	   C	1622.531	483.300	-1652.507	C.2	7	LEU7	0.597	
92	   O	1623.251	483.663	-1653.449	O.2	7	LEU7	-0.568	
93	  CB	1621.401	481.044	-1652.416	C.3	7	LEU7	-0.110	
94	  CG	1621.328	479.565	-1651.949	C.3	7	LEU7	0.353	
95	 CD1	1620.138	478.859	-1652.615	C.3	7	LEU7	-0.412	
96	 CD2	1622.621	478.786	-1652.241	C.3	7	LEU7	-0.412	
97	   H	1621.967	481.453	-1649.925	 H	7	LEU7	0.272	
98	  HA	1623.545	481.465	-1652.310	 H	7	LEU7	0.092	
99	 2HB	1621.377	481.061	-1653.523	 H	7	LEU7	0.046	
100	 3HB	1620.461	481.547	-1652.111	 H	7	LEU7	0.046	
101	  HG	1621.158	479.557	-1650.852	 H	7	LEU7	-0.036	
102	1HD1	1619.181	479.368	-1652.392	 H	7	LEU7	0.100	
103	2HD1	1620.237	478.819	-1653.716	 H	7	LEU7	0.100	
104	3HD1	1620.031	477.818	-1652.259	 H	7	LEU7	0.100	
105	1HD2	1622.896	478.816	-1653.311	 H	7	LEU7	0.100	
106	2HD2	1623.475	479.197	-1651.670	 H	7	LEU7	0.100	
107	3HD2	1622.540	477.723	-1651.945	 H	7	LEU7	0.100	
108	   N	1621.694	484.141	-1652.001	N.am	8	ASP8	-0.516	
109	  CA	1621.623	485.490	-1652.554	C.3	8	ASP8	0.038	
110	   C	1622.970	486.170	-1652.496	C.2	8	ASP8	0.537	
111	   O	1623.443	486.775	-1653.471	O.2	8	ASP8	-0.582	
112	  CB	1620.545	486.329	-1651.812	C.3	8	ASP8	-0.030	
113	  CG	1620.326	487.750	-1652.352	C.2	8	ASP8	0.799	
114	 OD1	1620.390	487.949	-1653.583	O.co2	8	ASP8	-0.801	
115	 OD2	1620.134	488.675	-1651.536	O.co2	8	ASP8	-0.801	
116	   H	1621.096	483.869	-1651.233	 H	8	ASP8	0.294	
117	  HA	1621.340	485.413	-1653.621	 H	8	ASP8	0.088	
118	 2HB	1620.802	486.412	-1650.740	 H	8	ASP8	-0.012	
119	 3HB	1619.566	485.824	-1651.845	 H	8	ASP8	-0.012	
120	   N	1623.650	486.120	-1651.401	N.am	9	GLU9	-0.516	
121	  CA	1624.952	486.778	-1651.346	C.3	9	GLU9	0.040	
122	   C	1625.870	486.250	-1652.422	C.2	9	GLU9	0.537	
123	   O	1626.534	487.005	-1653.147	O.2	9	GLU9	-0.582	
124	  CB	1625.586	486.569	-1649.941	C.3	9	GLU9	0.056	
125	  CG	1626.969	487.262	-1649.711	C.3	9	GLU9	0.014	
126	  CD	1627.671	487.048	-1648.383	C.2	9	GLU9	0.805	
127	 OE1	1627.149	486.357	-1647.487	O.co2	9	GLU9	-0.819	
128	 OE2	1628.790	487.586	-1648.251	O.co2	9	GLU9	-0.819	
129	   H	1623.286	485.633	-1650.594	 H	9	GLU9	0.294	
130	  HA	1624.810	487.859	-1651.521	 H	9	GLU9	0.111	
131	 2HB	1625.699	485.485	-1649.738	 H	9	GLU9	-0.017	
132	 3HB	1624.889	486.922	-1649.156	 H	9	GLU9	-0.017	
133	 2HG	1626.897	488.353	-1649.850	 H	9	GLU9	-0.043	
134	 3HG	1627.715	486.917	-1650.445	 H	9	GLU9	-0.043	
135	   N	1625.967	484.975	-1652.592	N.am	10	SER10	-0.416	
136	  CA	1626.855	484.466	-1653.633	C.3	10	SER10	-0.025	
137	   C	1626.486	485.034	-1654.984	C.2	10	SER10	0.597	
138	   O	1627.331	485.498	-1655.749	O.2	10	SER10	-0.568	
139	  CB	1626.857	482.917	-1653.648	C.3	10	SER10	0.212	
140	  OG	1625.618	482.363	-1654.104	O.3	10	SER10	-0.655	
141	   H	1625.436	484.339	-1652.014	 H	10	SER10	0.272	
142	  HA	1627.879	484.815	-1653.408	 H	10	SER10	0.084	
143	 2HB	1627.099	482.508	-1652.648	 H	10	SER10	0.035	
144	 3HB	1627.666	482.551	-1654.309	 H	10	SER10	0.035	
145	  HG	1624.938	482.628	-1653.480	 H	10	SER10	0.428	
146	   N	1625.248	485.033	-1655.346	N.am	11	VAL11	-0.416	
147	  CA	1624.891	485.581	-1656.651	C.3	11	VAL11	-0.087	
148	   C	1625.354	487.013	-1656.781	C.2	11	VAL11	0.597	
149	   O	1625.954	487.420	-1657.784	O.2	11	VAL11	-0.568	
150	  CB	1623.330	485.474	-1656.870	C.3	11	VAL11	0.299	
151	 CG1	1622.760	486.180	-1658.131	C.3	11	VAL11	-0.319	
152	 CG2	1622.807	484.019	-1656.946	C.3	11	VAL11	-0.319	
153	   H	1624.536	484.658	-1654.736	 H	11	VAL11	0.272	
154	  HA	1625.411	485.001	-1657.435	 H	11	VAL11	0.097	
155	  HB	1622.843	485.951	-1655.993	 H	11	VAL11	-0.030	
156	1HG1	1623.198	485.791	-1659.069	 H	11	VAL11	0.079	
157	2HG1	1621.661	486.072	-1658.212	 H	11	VAL11	0.079	
158	3HG1	1622.937	487.272	-1658.119	 H	11	VAL11	0.079	
159	1HG2	1623.098	483.430	-1656.057	 H	11	VAL11	0.079	
160	2HG2	1621.701	483.981	-1656.988	 H	11	VAL11	0.079	
161	3HG2	1623.188	483.481	-1657.834	 H	11	VAL11	0.079	
162	   N	1625.117	487.836	-1655.817	N.am	12	GLN12	-0.416	
163	  CA	1625.564	489.220	-1655.941	C.3	12	GLN12	-0.003	
164	   C	1627.054	489.289	-1656.180	C.2	12	GLN12	0.597	
165	   O	1627.540	490.000	-1657.058	O.2	12	GLN12	-0.568	
166	  CB	1625.174	489.984	-1654.657	C.3	12	GLN12	-0.004	
167	  CG	1625.532	491.506	-1654.622	C.3	12	GLN12	-0.064	
168	  CD	1625.230	492.317	-1653.356	C.2	12	GLN12	0.695	
169	 NE2	1624.664	491.738	-1652.328	N.pl3	12	GLN12	-0.941	
170	 OE1	1625.531	493.498	-1653.276	O.2	12	GLN12	-0.609	
171	   H	1624.629	487.528	-1654.988	 H	12	GLN12	0.272	
172	  HA	1625.064	489.677	-1656.815	 H	12	GLN12	0.085	
173	 2HB	1625.651	489.482	-1653.789	 H	12	GLN12	0.017	
174	 3HB	1624.083	489.875	-1654.493	 H	12	GLN12	0.017	
175	 2HG	1625.054	492.028	-1655.472	 H	12	GLN12	0.035	
176	 3HG	1626.616	491.649	-1654.789	 H	12	GLN12	0.035	
177	1HE2	1624.558	492.330	-1651.503	 H	12	GLN12	0.425	
178	2HE2	1624.502	490.734	-1652.433	 H	12	GLN12	0.425	
179	   N	1627.840	488.581	-1655.442	N.am	13	ARG13	-0.348	
180	  CA	1629.280	488.649	-1655.673	C.3	13	ARG13	-0.264	
181	   C	1629.615	488.281	-1657.099	C.2	13	ARG13	0.734	
182	   O	1630.382	488.955	-1657.782	O.2	13	ARG13	-0.589	
183	  CB	1629.995	487.708	-1654.662	C.3	13	ARG13	-0.001	
184	  CG	1631.539	487.862	-1654.582	C.3	13	ARG13	0.039	
185	  CD	1632.168	486.873	-1653.587	C.3	13	ARG13	0.049	
186	  NE	1633.645	487.081	-1653.537	N.pl3	13	ARG13	-0.530	
187	  CZ	1634.494	486.389	-1652.784	C.cat	13	ARG13	0.808	
188	 NH1	1634.130	485.422	-1651.989	N.pl3	13	ARG13	-0.863	
189	 NH2	1635.753	486.689	-1652.841	N.pl3	13	ARG13	-0.863	
190	   H	1627.464	487.989	-1654.714	 H	13	ARG13	0.275	
191	  HA	1629.603	489.695	-1655.512	 H	13	ARG13	0.156	
192	 2HB	1629.729	486.658	-1654.903	 H	13	ARG13	0.033	
193	 3HB	1629.570	487.872	-1653.651	 H	13	ARG13	0.033	
194	 2HG	1631.787	488.907	-1654.300	 H	13	ARG13	0.029	
195	 3HG	1631.990	487.709	-1655.584	 H	13	ARG13	0.029	
196	 2HD	1631.924	485.833	-1653.898	 H	13	ARG13	0.069	
197	 3HD	1631.712	487.016	-1652.583	 H	13	ARG13	0.069	
198	  HE	1634.095	487.805	-1654.106	 H	13	ARG13	0.346	
199	1HH1	1633.125	485.235	-1651.991	 H	13	ARG13	0.448	
200	2HH1	1634.844	484.938	-1651.441	 H	13	ARG13	0.448	
201	1HH2	1636.020	487.449	-1653.470	 H	13	ARG13	0.448	
202	2HH2	1636.389	486.147	-1652.254	 H	13	ARG13	0.448	
203	   N	1629.080	487.227	-1657.616	N.am	14	VAL14	-0.416	
204	  CA	1629.404	486.871	-1658.994	C.3	14	VAL14	-0.087	
205	   C	1629.072	488.003	-1659.937	C.2	14	VAL14	0.597	
206	   O	1629.864	488.387	-1660.806	O.2	14	VAL14	-0.568	
207	  CB	1628.632	485.554	-1659.403	C.3	14	VAL14	0.299	
208	 CG1	1628.720	485.140	-1660.898	C.3	14	VAL14	-0.319	
209	 CG2	1629.066	484.301	-1658.606	C.3	14	VAL14	-0.319	
210	   H	1628.446	486.657	-1657.074	 H	14	VAL14	0.272	
211	  HA	1630.492	486.696	-1659.070	 H	14	VAL14	0.097	
212	  HB	1627.556	485.724	-1659.186	 H	14	VAL14	-0.030	
213	1HG1	1629.761	484.964	-1661.228	 H	14	VAL14	0.079	
214	2HG1	1628.148	484.216	-1661.112	 H	14	VAL14	0.079	
215	3HG1	1628.290	485.903	-1661.574	 H	14	VAL14	0.079	
216	1HG2	1628.979	484.457	-1657.515	 H	14	VAL14	0.079	
217	2HG2	1628.430	483.424	-1658.839	 H	14	VAL14	0.079	
218	3HG2	1630.114	484.012	-1658.813	 H	14	VAL14	0.079	
219	   N	1627.927	488.588	-1659.833	N.am	15	MET15	-0.416	
220	  CA	1627.605	489.682	-1660.744	C.3	15	MET15	-0.024	
221	   C	1628.634	490.783	-1660.655	C.2	15	MET15	0.597	
222	   O	1629.136	491.296	-1661.667	O.2	15	MET15	-0.568	
223	  CB	1626.183	490.226	-1660.433	C.3	15	MET15	0.034	
224	  CG	1625.022	489.228	-1660.626	C.3	15	MET15	0.002	
225	  SD	1623.447	490.092	-1660.509	S.3	15	MET15	-0.274	
226	  CE	1622.367	488.661	-1660.374	C.3	15	MET15	-0.054	
227	   H	1627.262	488.293	-1659.132	 H	15	MET15	0.272	
228	  HA	1627.630	489.297	-1661.781	 H	15	MET15	0.088	
229	 2HB	1625.980	491.106	-1661.073	 H	15	MET15	0.024	
230	 3HB	1626.148	490.616	-1659.396	 H	15	MET15	0.024	
231	 2HG	1625.066	488.440	-1659.850	 H	15	MET15	0.044	
232	 3HG	1625.084	488.714	-1661.603	 H	15	MET15	0.044	
233	 1HE	1622.511	487.975	-1661.228	 H	15	MET15	0.068	
234	 2HE	1622.578	488.107	-1659.443	 H	15	MET15	0.068	
235	 3HE	1621.309	488.976	-1660.356	 H	15	MET15	0.068	
236	   N	1629.003	491.201	-1659.492	N.am	16	ARG16	-0.348	
237	  CA	1629.999	492.266	-1659.407	C.3	16	ARG16	-0.264	
238	   C	1631.269	491.876	-1660.125	C.2	16	ARG16	0.734	
239	   O	1631.384	490.801	-1660.708	O.2	16	ARG16	-0.589	
240	  CB	1630.269	492.581	-1657.908	C.3	16	ARG16	-0.001	
241	  CG	1631.093	493.870	-1657.633	C.3	16	ARG16	0.039	
242	  CD	1631.343	494.086	-1656.131	C.3	16	ARG16	0.049	
243	  NE	1632.118	495.346	-1655.928	N.pl3	16	ARG16	-0.530	
244	  CZ	1632.510	495.826	-1654.751	C.cat	16	ARG16	0.808	
245	 NH1	1632.264	495.239	-1653.614	N.pl3	16	ARG16	-0.863	
246	 NH2	1633.173	496.939	-1654.731	N.pl3	16	ARG16	-0.863	
247	   H	1628.609	490.799	-1658.653	 H	16	ARG16	0.275	
248	  HA	1629.589	493.160	-1659.914	 H	16	ARG16	0.156	
249	 2HB	1630.767	491.704	-1657.444	 H	16	ARG16	0.033	
250	 3HB	1629.300	492.660	-1657.373	 H	16	ARG16	0.033	
251	 2HG	1630.561	494.741	-1658.068	 H	16	ARG16	0.029	
252	 3HG	1632.066	493.819	-1658.162	 H	16	ARG16	0.029	
253	 2HD	1631.893	493.211	-1655.720	 H	16	ARG16	0.069	
254	 3HD	1630.371	494.127	-1655.595	 H	16	ARG16	0.069	
255	  HE	1632.396	495.928	-1656.724	 H	16	ARG16	0.346	
256	1HH1	1631.739	494.365	-1653.700	 H	16	ARG16	0.448	
257	2HH1	1632.598	495.673	-1652.752	 H	16	ARG16	0.448	
258	1HH2	1633.358	497.384	-1655.632	 H	16	ARG16	0.448	
259	2HH2	1633.464	497.292	-1653.818	 H	16	ARG16	0.448	
@<TRIPOS>BOND
1 1 2 1
2 1 10 1
3 2 3 1
4 2 5 1
5 2 11 1
6 3 4 2
7 3 16 1
8 5 6 1
9 6 7 1
10 7 8 2
11 7 9 1
12 5 12 1
13 5 13 1
14 6 14 1
15 6 15 1
16 16 17 1
17 16 24 1
18 17 18 1
19 17 20 1
20 17 25 1
21 18 19 2
22 18 30 1
23 20 21 1
24 21 22 1
25 21 23 2
26 20 26 1
27 20 27 1
28 22 28 1
29 22 29 1
30 30 31 1
31 30 36 1
32 31 32 1
33 31 34 1
34 31 37 1
35 32 33 2
36 32 44 1
37 34 35 1
38 35 36 1
39 34 38 1
40 34 39 1
41 35 40 1
42 35 41 1
43 36 42 1
44 36 43 1
45 44 45 1
46 44 53 1
47 45 46 1
48 45 48 1
49 45 54 1
50 46 47 2
51 46 59 1
52 48 49 1
53 49 50 1
54 50 51 2
55 50 52 1
56 48 55 1
57 48 56 1
58 49 57 1
59 49 58 1
60 59 60 1
61 59 65 1
62 60 61 1
63 60 63 1
64 60 66 1
65 61 62 2
66 61 70 1
67 63 64 1
68 63 67 1
69 63 68 1
70 64 69 1
71 70 71 1
72 70 78 1
73 71 72 1
74 71 74 1
75 71 79 1
76 72 73 2
77 72 89 1
78 74 75 1
79 74 76 1
80 75 77 1
81 74 80 1
82 75 81 1
83 75 82 1
84 76 83 1
85 76 84 1
86 76 85 1
87 77 86 1
88 77 87 1
89 77 88 1
90 89 90 1
91 89 97 1
92 90 91 1
93 90 93 1
94 90 98 1
95 91 92 2
96 91 108 1
97 93 94 1
98 94 95 1
99 94 96 1
100 93 99 1
101 93 100 1
102 94 101 1
103 95 102 1
104 95 103 1
105 95 104 1
106 96 105 1
107 96 106 1
108 96 107 1
109 108 109 1
110 108 116 1
111 109 110 1
112 109 112 1
113 109 117 1
114 110 111 2
115 110 120 1
116 112 113 1
117 113 114 2
118 113 115 1
119 112 118 1
120 112 119 1
121 120 121 1
122 120 129 1
123 121 122 1
124 121 124 1
125 121 130 1
126 122 123 2
127 122 135 1
128 124 125 1
129 125 126 1
130 126 127 2
131 126 128 1
132 124 131 1
133 124 132 1
134 125 133 1
135 125 134 1
136 135 136 1
137 135 141 1
138 136 137 1
139 136 139 1
140 136 142 1
141 137 138 2
142 137 146 1
143 139 140 1
144 139 143 1
145 139 144 1
146 140 145 1
147 146 147 1
148 146 153 1
149 147 148 1
150 147 150 1
151 147 154 1
152 148 149 2
153 148 162 1
154 150 151 1
155 150 152 1
156 150 155 1
157 151 156 1
158 151 157 1
159 151 158 1
160 152 159 1
161 152 160 1
162 152 161 1
163 162 163 1
164 162 171 1
165 163 164 1
166 163 166 1
167 163 172 1
168 164 165 2
169 164 179 1
170 166 167 1
171 167 168 1
172 168 169 1
173 168 170 2
174 166 173 1
175 166 174 1
176 167 175 1
177 167 176 1
178 169 177 1
179 169 178 1
180 179 180 1
181 179 190 1
182 180 181 1
183 180 183 1
184 180 191 1
185 181 182 2
186 181 203 1
187 183 184 1
188 184 185 1
189 185 186 1
190 186 187 1
191 187 188 2
192 187 189 1
193 183 192 1
194 183 193 1
195 184 194 1
196 184 195 1
197 185 196 1
198 185 197 1
199 186 198 1
200 188 199 1
201 188 200 1
202 189 201 1
203 189 202 1
204 203 204 1
205 203 210 1
206 204 205 1
207 204 207 1
208 204 211 1
209 205 206 2
210 205 219 1
211 207 208 1
212 207 209 1
213 207 212 1
214 208 213 1
215 208 214 1
216 208 215 1
217 209 216 1
218 209 217 1
219 209 218 1
220 219 220 1
221 219 227 1
222 220 221 1
223 220 223 1
224 220 228 1
225 221 222 2
226 221 236 1
227 223 224 1
228 224 225 1
229 225 226 1
230 223 229 1
231 223 230 1
232 224 231 1
233 224 232 1
234 226 233 1
235 226 234 1
236 226 235 1
237 236 237 1
238 236 247 1
239 237 238 1
240 237 240 1
241 237 248 1
242 238 239 2
243 240 241 1
244 241 242 1
245 242 243 1
246 243 244 1
247 244 245 2
248 244 246 1
249 240 249 1
250 240 250 1
251 241 251 1
252 241 252 1
253 242 253 1
254 242 254 1
255 243 255 1
256 245 256 1
257 245 257 1
258 246 258 1
259 246 259 1
@<TRIPOS>SUBSTRUCTURE
1	GLU1	1	RESIDUE	1 ****	GLU
2	ASN2	16	RESIDUE	1 ****	ASN
3	PRO3	30	RESIDUE	1 ****	PRO
4	GLU4	44	RESIDUE	1 ****	GLU
5	SER5	59	RESIDUE	1 ****	SER
6	ILE6	70	RESIDUE	1 ****	ILE
7	LEU7	89	RESIDUE	1 ****	LEU
8	ASP8	108	RESIDUE	1 ****	ASP
9	GLU9	120	RESIDUE	1 ****	GLU
10	SER10	135	RESIDUE	1 ****	SER
11	VAL11	146	RESIDUE	1 ****	VAL
12	GLN12	162	RESIDUE	1 ****	GLN
13	ARG13	179	RESIDUE	1 ****	ARG
14	VAL14	203	RESIDUE	1 ****	VAL
15	MET15	219	RESIDUE	1 ****	MET
16	ARG16	236	RESIDUE	1 ****	ARG
