@<TRIPOS>MOLECULE
15-1
258 259 16              
SMALL
USER_CHARGES
@<TRIPOS>ATOM
1	   N	2333.112	713.713	-2426.943	N.3	1	GLU1	-0.516	
2	  CA	2333.671	715.062	-2426.943	C.3	1	GLU1	0.040	
3	   C	2335.180	715.022	-2426.943	C.2	1	GLU1	0.537	
4	   O	2335.856	715.721	-2427.712	O.2	1	GLU1	-0.582	
5	  CB	2333.148	715.847	-2425.707	C.3	1	GLU1	0.056	
6	  CG	2333.623	717.332	-2425.595	C.3	1	GLU1	0.014	
7	  CD	2333.199	718.136	-2424.380	C.2	1	GLU1	0.805	
8	 OE1	2332.471	717.634	-2423.502	O.co2	1	GLU1	-0.819	
9	 OE2	2333.629	719.306	-2424.308	O.co2	1	GLU1	-0.819	
10	   H	2333.739	712.834	-2426.943	 H	1	GLU1	0.294	
11	  HA	2333.345	715.580	-2427.864	 H	1	GLU1	0.111	
12	 2HB	2333.437	715.316	-2424.776	 H	1	GLU1	-0.017	
13	 3HB	2332.041	715.837	-2425.693	 H	1	GLU1	-0.017	
14	 2HG	2333.313	717.917	-2426.476	 H	1	GLU1	-0.043	
15	 3HG	2334.723	717.399	-2425.566	 H	1	GLU1	-0.043	
16	   N	2335.785	714.236	-2426.118	N.am	2	ASN2	-0.416	
17	  CA	2337.244	714.197	-2426.118	C.3	2	ASN2	0.014	
18	   C	2337.776	713.842	-2427.487	C.2	2	ASN2	0.597	
19	   O	2338.691	714.472	-2428.015	O.2	2	ASN2	-0.568	
20	  CB	2337.736	713.174	-2425.053	C.3	2	ASN2	-0.204	
21	  CG	2337.272	713.398	-2423.610	C.2	2	ASN2	0.713	
22	 ND2	2337.866	714.313	-2422.892	N.pl3	2	ASN2	-0.919	
23	 OD1	2336.351	712.765	-2423.116	O.2	2	ASN2	-0.593	
24	   H	2335.257	713.657	-2425.482	 H	2	ASN2	0.272	
25	  HA	2337.622	715.207	-2425.873	 H	2	ASN2	0.105	
26	 2HB	2338.840	713.115	-2425.057	 H	2	ASN2	0.080	
27	 3HB	2337.407	712.156	-2425.339	 H	2	ASN2	0.080	
28	1HD2	2337.385	714.486	-2422.006	 H	2	ASN2	0.420	
29	2HD2	2338.568	714.885	-2423.361	 H	2	ASN2	0.420	
30	   N	2337.254	712.847	-2428.121	N.am	3	PRO3	-0.255	
31	  CA	2337.706	712.438	-2429.442	C.3	3	PRO3	-0.027	
32	   C	2337.309	713.461	-2430.519	C.2	3	PRO3	0.590	
33	   O	2338.132	713.844	-2431.351	O.2	3	PRO3	-0.575	
34	  CB	2337.002	711.083	-2429.612	C.3	3	PRO3	-0.007	
35	  CG	2335.718	711.235	-2428.782	C.3	3	PRO3	0.019	
36	  CD	2336.176	712.054	-2427.572	C.3	3	PRO3	0.019	
37	  HA	2338.792	712.317	-2429.456	 H	3	PRO3	0.064	
38	 2HB	2337.625	710.302	-2429.171	 H	3	PRO3	0.025	
39	 3HB	2336.804	710.835	-2430.657	 H	3	PRO3	0.025	
40	 2HG	2335.291	710.273	-2428.491	 H	3	PRO3	0.021	
41	 3HG	2334.981	711.807	-2429.350	 H	3	PRO3	0.021	
42	 2HD	2336.565	711.404	-2426.785	 H	3	PRO3	0.039	
43	 3HD	2335.379	712.690	-2427.179	 H	3	PRO3	0.039	
44	   N	2336.104	713.921	-2430.552	N.am	4	GLU4	-0.516	
45	  CA	2335.745	714.892	-2431.582	C.3	4	GLU4	0.040	
46	   C	2336.644	716.103	-2431.520	C.2	4	GLU4	0.537	
47	   O	2337.171	716.583	-2432.534	O.2	4	GLU4	-0.582	
48	  CB	2334.256	715.312	-2431.412	C.3	4	GLU4	0.056	
49	  CG	2333.709	716.315	-2432.478	C.3	4	GLU4	0.014	
50	  CD	2332.282	716.812	-2432.335	C.2	4	GLU4	0.805	
51	 OE1	2331.555	716.414	-2431.404	O.co2	4	GLU4	-0.819	
52	 OE2	2331.893	717.642	-2433.183	O.co2	4	GLU4	-0.819	
53	   H	2335.419	713.615	-2429.875	 H	4	GLU4	0.294	
54	  HA	2335.876	714.422	-2432.573	 H	4	GLU4	0.111	
55	 2HB	2334.103	715.751	-2430.406	 H	4	GLU4	-0.017	
56	 3HB	2333.608	714.414	-2431.418	 H	4	GLU4	-0.017	
57	 2HG	2333.791	715.900	-2433.496	 H	4	GLU4	-0.043	
58	 3HG	2334.297	717.247	-2432.489	 H	4	GLU4	-0.043	
59	   N	2336.871	716.656	-2430.377	N.am	5	SER5	-0.416	
60	  CA	2337.741	717.827	-2430.318	C.3	5	SER5	-0.025	
61	   C	2339.100	717.521	-2430.903	C.2	5	SER5	0.597	
62	   O	2339.647	718.274	-2431.708	O.2	5	SER5	-0.568	
63	  CB	2337.852	718.359	-2428.868	C.3	5	SER5	0.212	
64	  OG	2338.583	717.479	-2428.007	O.3	5	SER5	-0.655	
65	   H	2336.453	716.284	-2429.536	 H	5	SER5	0.272	
66	  HA	2337.292	718.617	-2430.947	 H	5	SER5	0.084	
67	 2HB	2336.852	718.553	-2428.435	 H	5	SER5	0.035	
68	 3HB	2338.357	719.345	-2428.870	 H	5	SER5	0.035	
69	  HG	2338.094	716.655	-2427.956	 H	5	SER5	0.428	
70	   N	2339.704	716.438	-2430.549	N.am	6	ILE6	-0.416	
71	  CA	2341.017	716.142	-2431.115	C.3	6	ILE6	-0.060	
72	   C	2340.960	716.104	-2432.623	C.2	6	ILE6	0.597	
73	   O	2341.795	716.692	-2433.327	O.2	6	ILE6	-0.568	
74	  CB	2341.616	714.806	-2430.515	C.3	6	ILE6	0.130	
75	 CG1	2341.635	714.743	-2428.954	C.3	6	ILE6	-0.043	
76	 CG2	2343.057	714.503	-2431.030	C.3	6	ILE6	-0.320	
77	 CD1	2341.905	713.354	-2428.339	C.3	6	ILE6	-0.066	
78	   H	2339.275	715.803	-2429.890	 H	6	ILE6	0.272	
79	  HA	2341.691	716.976	-2430.847	 H	6	ILE6	0.087	
80	  HB	2340.958	713.980	-2430.859	 H	6	ILE6	0.019	
81	2HG1	2340.653	715.063	-2428.558	 H	6	ILE6	0.024	
82	3HG1	2342.351	715.485	-2428.549	 H	6	ILE6	0.024	
83	1HG2	2343.116	714.410	-2432.128	 H	6	ILE6	0.088	
84	2HG2	2343.780	715.286	-2430.727	 H	6	ILE6	0.088	
85	3HG2	2343.447	713.541	-2430.651	 H	6	ILE6	0.088	
86	1HD1	2341.176	712.600	-2428.694	 H	6	ILE6	0.019	
87	2HD1	2342.915	712.975	-2428.574	 H	6	ILE6	0.019	
88	3HD1	2341.828	713.384	-2427.236	 H	6	ILE6	0.019	
89	   N	2340.014	715.441	-2433.196	N.am	7	LEU7	-0.416	
90	  CA	2339.959	715.405	-2434.655	C.3	7	LEU7	-0.052	
91	   C	2339.887	716.800	-2435.228	C.2	7	LEU7	0.597	
92	   O	2340.608	717.162	-2436.170	O.2	7	LEU7	-0.568	
93	  CB	2338.756	714.545	-2435.135	C.3	7	LEU7	-0.110	
94	  CG	2338.682	713.066	-2434.669	C.3	7	LEU7	0.353	
95	 CD1	2337.492	712.360	-2435.334	C.3	7	LEU7	-0.412	
96	 CD2	2339.976	712.286	-2434.960	C.3	7	LEU7	-0.412	
97	   H	2339.322	714.954	-2432.645	 H	7	LEU7	0.272	
98	  HA	2340.901	714.965	-2435.029	 H	7	LEU7	0.092	
99	 2HB	2338.732	714.561	-2436.243	 H	7	LEU7	0.046	
100	 3HB	2337.816	715.048	-2434.831	 H	7	LEU7	0.046	
101	  HG	2338.512	713.058	-2433.572	 H	7	LEU7	-0.036	
102	1HD1	2336.535	712.870	-2435.112	 H	7	LEU7	0.100	
103	2HD1	2337.592	712.320	-2436.436	 H	7	LEU7	0.100	
104	3HD1	2337.385	711.319	-2434.978	 H	7	LEU7	0.100	
105	1HD2	2340.251	712.317	-2436.030	 H	7	LEU7	0.100	
106	2HD2	2340.829	712.698	-2434.389	 H	7	LEU7	0.100	
107	3HD2	2339.894	711.224	-2434.664	 H	7	LEU7	0.100	
108	   N	2339.050	717.642	-2434.722	N.am	8	ASP8	-0.516	
109	  CA	2338.980	718.991	-2435.276	C.3	8	ASP8	0.038	
110	   C	2340.327	719.670	-2435.219	C.2	8	ASP8	0.537	
111	   O	2340.800	720.274	-2436.194	O.2	8	ASP8	-0.582	
112	  CB	2337.903	719.831	-2434.535	C.3	8	ASP8	-0.030	
113	  CG	2337.685	721.251	-2435.076	C.2	8	ASP8	0.799	
114	 OD1	2337.749	721.450	-2436.307	O.co2	8	ASP8	-0.801	
115	 OD2	2337.493	722.178	-2434.261	O.co2	8	ASP8	-0.801	
116	   H	2338.452	717.371	-2433.954	 H	8	ASP8	0.294	
117	  HA	2338.697	718.912	-2436.343	 H	8	ASP8	0.088	
118	 2HB	2338.160	719.915	-2433.463	 H	8	ASP8	-0.012	
119	 3HB	2336.923	719.326	-2434.568	 H	8	ASP8	-0.012	
120	   N	2341.007	719.620	-2434.124	N.am	9	GLU9	-0.516	
121	  CA	2342.311	720.277	-2434.069	C.3	9	GLU9	0.040	
122	   C	2343.228	719.749	-2435.145	C.2	9	GLU9	0.537	
123	   O	2343.892	720.502	-2435.871	O.2	9	GLU9	-0.582	
124	  CB	2342.944	720.070	-2432.664	C.3	9	GLU9	0.056	
125	  CG	2344.327	720.762	-2432.435	C.3	9	GLU9	0.014	
126	  CD	2345.029	720.549	-2431.107	C.2	9	GLU9	0.805	
127	 OE1	2344.507	719.859	-2430.210	O.co2	9	GLU9	-0.819	
128	 OE2	2346.148	721.086	-2430.976	O.co2	9	GLU9	-0.819	
129	   H	2340.644	719.135	-2433.317	 H	9	GLU9	0.294	
130	  HA	2342.169	721.359	-2434.245	 H	9	GLU9	0.111	
131	 2HB	2343.056	718.986	-2432.460	 H	9	GLU9	-0.017	
132	 3HB	2342.247	720.424	-2431.880	 H	9	GLU9	-0.017	
133	 2HG	2344.255	721.852	-2432.575	 H	9	GLU9	-0.043	
134	 3HG	2345.073	720.416	-2433.169	 H	9	GLU9	-0.043	
135	   N	2343.324	718.473	-2435.314	N.am	10	HIS10	-0.416	
136	  CA	2344.211	717.961	-2436.354	C.3	10	HIS10	-0.058	
137	   C	2343.844	718.525	-2437.706	C.2	10	HIS10	0.597	
138	   O	2344.697	718.989	-2438.478	O.2	10	HIS10	-0.568	
139	  CB	2344.047	716.432	-2436.349	C.3	10	HIS10	-0.007	
140	  CG	2345.332	715.721	-2436.041	C.2	10	HIS10	0.187	
141	 CD2	2345.713	715.387	-2434.748	C.2	10	HIS10	-0.221	
142	 ND1	2346.283	715.315	-2436.973	N.2	10	HIS10	-0.543	
143	 CE1	2347.190	714.757	-2436.150	C.2	10	HIS10	0.163	
144	 NE2	2346.928	714.755	-2434.815	N.pl3	10	HIS10	-0.280	
145	   H	2342.793	717.839	-2434.735	 H	10	HIS10	0.272	
146	  HA	2345.231	718.318	-2436.130	 H	10	HIS10	0.136	
147	 2HB	2343.681	716.065	-2437.328	 H	10	HIS10	0.037	
148	 3HB	2343.291	716.096	-2435.608	 H	10	HIS10	0.037	
149	 2HD	2345.128	715.603	-2433.859	 H	10	HIS10	0.186	
150	 1HE	2348.081	714.335	-2436.597	 H	10	HIS10	0.144	
151	 2HE	2347.495	714.378	-2434.042	 H	10	HIS10	0.334	
152	   N	2342.606	718.525	-2438.069	N.am	11	VAL11	-0.416	
153	  CA	2342.251	719.070	-2439.376	C.3	11	VAL11	-0.087	
154	   C	2342.717	720.501	-2439.509	C.2	11	VAL11	0.597	
155	   O	2343.318	720.905	-2440.512	O.2	11	VAL11	-0.568	
156	  CB	2340.690	718.964	-2439.595	C.3	11	VAL11	0.299	
157	 CG1	2340.122	719.668	-2440.858	C.3	11	VAL11	-0.319	
158	 CG2	2340.165	717.510	-2439.667	C.3	11	VAL11	-0.319	
159	   H	2341.893	718.153	-2437.458	 H	11	VAL11	0.272	
160	  HA	2342.771	718.487	-2440.158	 H	11	VAL11	0.097	
161	  HB	2340.203	719.445	-2438.720	 H	11	VAL11	-0.030	
162	1HG1	2340.560	719.275	-2441.795	 H	11	VAL11	0.079	
163	2HG1	2339.022	719.561	-2440.940	 H	11	VAL11	0.079	
164	3HG1	2340.300	720.760	-2440.849	 H	11	VAL11	0.079	
165	1HG2	2340.454	716.924	-2438.776	 H	11	VAL11	0.079	
166	2HG2	2339.059	717.474	-2439.709	 H	11	VAL11	0.079	
167	3HG2	2340.546	716.969	-2440.553	 H	11	VAL11	0.079	
168	   N	2342.480	721.327	-2438.547	N.am	12	GLN12	-0.416	
169	  CA	2342.929	722.710	-2438.675	C.3	12	GLN12	-0.003	
170	   C	2344.419	722.776	-2438.913	C.2	12	GLN12	0.597	
171	   O	2344.906	723.484	-2439.792	O.2	12	GLN12	-0.568	
172	  CB	2342.539	723.478	-2437.393	C.3	12	GLN12	-0.004	
173	  CG	2342.900	724.999	-2437.362	C.3	12	GLN12	-0.064	
174	  CD	2342.599	725.814	-2436.098	C.2	12	GLN12	0.695	
175	 NE2	2342.032	725.238	-2435.069	N.pl3	12	GLN12	-0.941	
176	 OE1	2342.901	726.995	-2436.021	O.2	12	GLN12	-0.609	
177	   H	2341.991	721.021	-2437.718	 H	12	GLN12	0.272	
178	  HA	2342.430	723.166	-2439.550	 H	12	GLN12	0.085	
179	 2HB	2343.015	722.978	-2436.523	 H	12	GLN12	0.017	
180	 3HB	2341.449	723.371	-2437.229	 H	12	GLN12	0.017	
181	 2HG	2342.423	725.520	-2438.213	 H	12	GLN12	0.035	
182	 3HG	2343.984	725.141	-2437.528	 H	12	GLN12	0.035	
183	1HE2	2341.925	725.833	-2434.245	 H	12	GLN12	0.425	
184	2HE2	2341.867	724.235	-2435.171	 H	12	GLN12	0.425	
185	   N	2345.204	722.069	-2438.172	N.am	13	ARG13	-0.348	
186	  CA	2346.644	722.134	-2438.403	C.3	13	ARG13	-0.264	
187	   C	2346.980	721.762	-2439.828	C.2	13	ARG13	0.734	
188	   O	2347.749	722.433	-2440.513	O.2	13	ARG13	-0.589	
189	  CB	2347.357	721.196	-2437.389	C.3	13	ARG13	-0.001	
190	  CG	2348.902	721.349	-2437.308	C.3	13	ARG13	0.039	
191	  CD	2349.529	720.362	-2436.310	C.3	13	ARG13	0.049	
192	  NE	2351.006	720.568	-2436.260	N.pl3	13	ARG13	-0.530	
193	  CZ	2351.855	719.877	-2435.505	C.cat	13	ARG13	0.808	
194	 NH1	2351.490	718.914	-2434.706	N.pl3	13	ARG13	-0.863	
195	 NH2	2353.114	720.176	-2435.562	N.pl3	13	ARG13	-0.863	
196	   H	2344.827	721.480	-2437.443	 H	13	ARG13	0.275	
197	  HA	2346.969	723.180	-2438.246	 H	13	ARG13	0.156	
198	 2HB	2347.091	720.145	-2437.627	 H	13	ARG13	0.033	
199	 3HB	2346.932	721.363	-2436.378	 H	13	ARG13	0.033	
200	 2HG	2349.151	722.394	-2437.030	 H	13	ARG13	0.029	
201	 3HG	2349.353	721.192	-2438.310	 H	13	ARG13	0.029	
202	 2HD	2349.284	719.321	-2436.618	 H	13	ARG13	0.069	
203	 3HD	2349.073	720.508	-2435.307	 H	13	ARG13	0.069	
204	  HE	2351.458	721.290	-2436.832	 H	13	ARG13	0.346	
205	1HH1	2350.484	718.728	-2434.709	 H	13	ARG13	0.448	
206	2HH1	2352.203	718.431	-2434.157	 H	13	ARG13	0.448	
207	1HH2	2353.382	720.933	-2436.194	 H	13	ARG13	0.448	
208	2HH2	2353.750	719.635	-2434.973	 H	13	ARG13	0.448	
209	   N	2346.443	720.707	-2440.342	N.am	14	VAL14	-0.416	
210	  CA	2346.768	720.347	-2441.719	C.3	14	VAL14	-0.087	
211	   C	2346.438	721.477	-2442.665	C.2	14	VAL14	0.597	
212	   O	2347.230	721.858	-2443.535	O.2	14	VAL14	-0.568	
213	  CB	2345.995	719.030	-2442.125	C.3	14	VAL14	0.299	
214	 CG1	2346.083	718.611	-2443.618	C.3	14	VAL14	-0.319	
215	 CG2	2346.426	717.778	-2441.324	C.3	14	VAL14	-0.319	
216	   H	2345.808	720.139	-2439.799	 H	14	VAL14	0.272	
217	  HA	2347.856	720.170	-2441.794	 H	14	VAL14	0.097	
218	  HB	2344.918	719.202	-2441.909	 H	14	VAL14	-0.030	
219	1HG1	2347.125	718.433	-2443.947	 H	14	VAL14	0.079	
220	2HG1	2345.510	717.688	-2443.830	 H	14	VAL14	0.079	
221	3HG1	2345.654	719.373	-2444.297	 H	14	VAL14	0.079	
222	1HG2	2346.339	717.937	-2440.233	 H	14	VAL14	0.079	
223	2HG2	2345.790	716.902	-2441.555	 H	14	VAL14	0.079	
224	3HG2	2347.474	717.487	-2441.530	 H	14	VAL14	0.079	
225	   N	2345.293	722.063	-2442.563	N.am	15	ALA15	-0.416	
226	  CA	2344.974	723.155	-2443.478	C.3	15	ALA15	0.034	
227	   C	2346.007	724.253	-2443.389	C.2	15	ALA15	0.597	
228	   O	2346.511	724.763	-2444.397	O.2	15	ALA15	-0.568	
229	  CB	2343.554	723.644	-2443.144	C.3	15	ALA15	-0.183	
230	   H	2344.628	721.771	-2441.861	 H	15	ALA15	0.272	
231	  HA	2344.996	722.767	-2444.513	 H	15	ALA15	0.082	
232	 1HB	2342.806	722.836	-2443.250	 H	15	ALA15	0.060	
233	 2HB	2343.477	724.021	-2442.105	 H	15	ALA15	0.060	
234	 3HB	2343.233	724.464	-2443.812	 H	15	ALA15	0.060	
235	   N	2346.375	724.673	-2442.226	N.am	16	ARG16	-0.348	
236	  CA	2347.373	725.734	-2442.140	C.3	16	ARG16	-0.264	
237	   C	2348.644	725.339	-2442.855	C.2	16	ARG16	0.734	
238	   O	2348.756	724.263	-2443.437	O.2	16	ARG16	-0.589	
239	  CB	2347.641	726.050	-2440.641	C.3	16	ARG16	-0.001	
240	  CG	2348.469	727.337	-2440.366	C.3	16	ARG16	0.039	
241	  CD	2348.717	727.555	-2438.864	C.3	16	ARG16	0.049	
242	  NE	2349.495	728.812	-2438.661	N.pl3	16	ARG16	-0.530	
243	  CZ	2349.886	729.292	-2437.484	C.cat	16	ARG16	0.808	
244	 NH1	2349.635	728.707	-2436.347	N.pl3	16	ARG16	-0.863	
245	 NH2	2350.552	730.403	-2437.464	N.pl3	16	ARG16	-0.863	
246	   H	2345.978	724.273	-2441.387	 H	16	ARG16	0.275	
247	  HA	2346.967	726.628	-2442.650	 H	16	ARG16	0.156	
248	 2HB	2348.135	725.173	-2440.175	 H	16	ARG16	0.033	
249	 3HB	2346.672	726.133	-2440.109	 H	16	ARG16	0.033	
250	 2HG	2347.941	728.210	-2440.803	 H	16	ARG16	0.029	
251	 3HG	2349.443	727.282	-2440.893	 H	16	ARG16	0.029	
252	 2HD	2349.263	726.678	-2438.450	 H	16	ARG16	0.069	
253	 3HD	2347.743	727.599	-2438.330	 H	16	ARG16	0.069	
254	  HE	2349.777	729.393	-2439.457	 H	16	ARG16	0.346	
255	1HH1	2349.108	727.836	-2436.433	 H	16	ARG16	0.448	
256	2HH1	2349.969	729.142	-2435.485	 H	16	ARG16	0.448	
257	1HH2	2350.740	730.846	-2438.365	 H	16	ARG16	0.448	
258	2HH2	2350.842	730.757	-2436.551	 H	16	ARG16	0.448	
@<TRIPOS>BOND
1 1 2 1
2 1 10 1
3 2 3 1
4 2 5 1
5 2 11 1
6 3 4 2
7 3 16 1
8 5 6 1
9 6 7 1
10 7 8 2
11 7 9 1
12 5 12 1
13 5 13 1
14 6 14 1
15 6 15 1
16 16 17 1
17 16 24 1
18 17 18 1
19 17 20 1
20 17 25 1
21 18 19 2
22 18 30 1
23 20 21 1
24 21 22 1
25 21 23 2
26 20 26 1
27 20 27 1
28 22 28 1
29 22 29 1
30 30 31 1
31 30 36 1
32 31 32 1
33 31 34 1
34 31 37 1
35 32 33 2
36 32 44 1
37 34 35 1
38 35 36 1
39 34 38 1
40 34 39 1
41 35 40 1
42 35 41 1
43 36 42 1
44 36 43 1
45 44 45 1
46 44 53 1
47 45 46 1
48 45 48 1
49 45 54 1
50 46 47 2
51 46 59 1
52 48 49 1
53 49 50 1
54 50 51 2
55 50 52 1
56 48 55 1
57 48 56 1
58 49 57 1
59 49 58 1
60 59 60 1
61 59 65 1
62 60 61 1
63 60 63 1
64 60 66 1
65 61 62 2
66 61 70 1
67 63 64 1
68 63 67 1
69 63 68 1
70 64 69 1
71 70 71 1
72 70 78 1
73 71 72 1
74 71 74 1
75 71 79 1
76 72 73 2
77 72 89 1
78 74 75 1
79 74 76 1
80 75 77 1
81 74 80 1
82 75 81 1
83 75 82 1
84 76 83 1
85 76 84 1
86 76 85 1
87 77 86 1
88 77 87 1
89 77 88 1
90 89 90 1
91 89 97 1
92 90 91 1
93 90 93 1
94 90 98 1
95 91 92 2
96 91 108 1
97 93 94 1
98 94 95 1
99 94 96 1
100 93 99 1
101 93 100 1
102 94 101 1
103 95 102 1
104 95 103 1
105 95 104 1
106 96 105 1
107 96 106 1
108 96 107 1
109 108 109 1
110 108 116 1
111 109 110 1
112 109 112 1
113 109 117 1
114 110 111 2
115 110 120 1
116 112 113 1
117 113 114 2
118 113 115 1
119 112 118 1
120 112 119 1
121 120 121 1
122 120 129 1
123 121 122 1
124 121 124 1
125 121 130 1
126 122 123 2
127 122 135 1
128 124 125 1
129 125 126 1
130 126 127 2
131 126 128 1
132 124 131 1
133 124 132 1
134 125 133 1
135 125 134 1
136 135 136 1
137 135 145 1
138 136 137 1
139 136 139 1
140 136 146 1
141 137 138 2
142 137 152 1
143 139 140 1
144 140 141 2
145 141 144 1
146 140 142 1
147 142 143 2
148 143 144 1
149 139 147 1
150 139 148 1
151 141 149 1
152 143 150 1
153 144 151 1
154 152 153 1
155 152 159 1
156 153 154 1
157 153 156 1
158 153 160 1
159 154 155 2
160 154 168 1
161 156 157 1
162 156 158 1
163 156 161 1
164 157 162 1
165 157 163 1
166 157 164 1
167 158 165 1
168 158 166 1
169 158 167 1
170 168 169 1
171 168 177 1
172 169 170 1
173 169 172 1
174 169 178 1
175 170 171 2
176 170 185 1
177 172 173 1
178 173 174 1
179 174 175 1
180 174 176 2
181 172 179 1
182 172 180 1
183 173 181 1
184 173 182 1
185 175 183 1
186 175 184 1
187 185 186 1
188 185 196 1
189 186 187 1
190 186 189 1
191 186 197 1
192 187 188 2
193 187 209 1
194 189 190 1
195 190 191 1
196 191 192 1
197 192 193 1
198 193 194 2
199 193 195 1
200 189 198 1
201 189 199 1
202 190 200 1
203 190 201 1
204 191 202 1
205 191 203 1
206 192 204 1
207 194 205 1
208 194 206 1
209 195 207 1
210 195 208 1
211 209 210 1
212 209 216 1
213 210 211 1
214 210 213 1
215 210 217 1
216 211 212 2
217 211 225 1
218 213 214 1
219 213 215 1
220 213 218 1
221 214 219 1
222 214 220 1
223 214 221 1
224 215 222 1
225 215 223 1
226 215 224 1
227 225 226 1
228 225 230 1
229 226 227 1
230 226 229 1
231 226 231 1
232 227 228 2
233 227 235 1
234 229 232 1
235 229 233 1
236 229 234 1
237 235 236 1
238 235 246 1
239 236 237 1
240 236 239 1
241 236 247 1
242 237 238 2
243 239 240 1
244 240 241 1
245 241 242 1
246 242 243 1
247 243 244 2
248 243 245 1
249 239 248 1
250 239 249 1
251 240 250 1
252 240 251 1
253 241 252 1
254 241 253 1
255 242 254 1
256 244 255 1
257 244 256 1
258 245 257 1
259 245 258 1
@<TRIPOS>SUBSTRUCTURE
1	GLU1	1	RESIDUE	1 ****	GLU
2	ASN2	16	RESIDUE	1 ****	ASN
3	PRO3	30	RESIDUE	1 ****	PRO
4	GLU4	44	RESIDUE	1 ****	GLU
5	SER5	59	RESIDUE	1 ****	SER
6	ILE6	70	RESIDUE	1 ****	ILE
7	LEU7	89	RESIDUE	1 ****	LEU
8	ASP8	108	RESIDUE	1 ****	ASP
9	GLU9	120	RESIDUE	1 ****	GLU
10	HIS10	135	RESIDUE	1 ****	HIS
11	VAL11	152	RESIDUE	1 ****	VAL
12	GLN12	168	RESIDUE	1 ****	GLN
13	ARG13	185	RESIDUE	1 ****	ARG
14	VAL14	209	RESIDUE	1 ****	VAL
15	ALA15	225	RESIDUE	1 ****	ALA
16	ARG16	235	RESIDUE	1 ****	ARG
