@<TRIPOS>MOLECULE
1-14
264 265 16              
SMALL
USER_CHARGES
@<TRIPOS>ATOM
1	   N	114.393	18.100	-83.796	N.3	1	THR1	-0.416	
2	  CA	115.011	19.422	-83.796	C.3	1	THR1	-0.039	
3	   C	116.517	19.316	-83.796	C.2	1	THR1	0.597	
4	   O	117.208	19.971	-84.550	O.2	1	THR1	-0.568	
5	  CB	114.515	20.261	-82.570	C.3	1	THR1	0.365	
6	 CG2	115.096	21.685	-82.435	C.3	1	THR1	-0.244	
7	 OG1	113.108	20.455	-82.634	O.3	1	THR1	-0.676	
8	   H	114.980	17.193	-83.796	 H	1	THR1	0.272	
9	  HA	114.717	19.944	-84.725	 H	1	THR1	0.101	
10	  HB	114.753	19.697	-81.642	 H	1	THR1	0.004	
11	 1HG	112.864	20.910	-81.823	 H	1	THR1	0.410	
12	1HG2	114.683	22.222	-81.561	 H	1	THR1	0.064	
13	2HG2	116.193	21.683	-82.294	 H	1	THR1	0.064	
14	3HG2	114.884	22.301	-83.329	 H	1	THR1	0.064	
15	   N	117.088	18.504	-82.971	N.am	2	ASN2	-0.416	
16	  CA	118.544	18.402	-82.972	C.3	2	ASN2	0.014	
17	   C	119.059	18.024	-84.341	C.2	2	ASN2	0.597	
18	   O	120.000	18.614	-84.870	O.2	2	ASN2	-0.568	
19	  CB	118.991	17.359	-81.908	C.3	2	ASN2	-0.204	
20	  CG	118.539	17.603	-80.464	C.2	2	ASN2	0.713	
21	 ND2	119.173	18.491	-79.746	N.pl3	2	ASN2	-0.919	
22	 OD1	117.592	17.009	-79.970	O.2	2	ASN2	-0.593	
23	   H	116.535	17.948	-82.335	 H	2	ASN2	0.272	
24	  HA	118.965	19.395	-82.727	 H	2	ASN2	0.105	
25	 2HB	120.092	17.252	-81.912	 H	2	ASN2	0.080	
26	 3HB	118.618	16.356	-82.194	 H	2	ASN2	0.080	
27	1HD2	118.700	18.685	-78.860	 H	2	ASN2	0.420	
28	2HD2	119.898	19.031	-80.216	 H	2	ASN2	0.420	
29	   N	118.494	17.053	-84.975	N.am	3	PRO3	-0.255	
30	  CA	118.927	16.624	-86.296	C.3	3	PRO3	-0.027	
31	   C	118.573	17.664	-87.373	C.2	3	PRO3	0.590	
32	   O	119.412	18.011	-88.205	O.2	3	PRO3	-0.575	
33	  CB	118.165	15.301	-86.466	C.3	3	PRO3	-0.007	
34	  CG	116.890	15.509	-85.635	C.3	3	PRO3	0.019	
35	  CD	117.383	16.307	-84.425	C.3	3	PRO3	0.019	
36	  HA	120.007	16.457	-86.311	 H	3	PRO3	0.064	
37	 2HB	118.754	14.494	-86.025	 H	3	PRO3	0.025	
38	 3HB	117.956	15.062	-87.511	 H	3	PRO3	0.025	
39	 2HG	116.421	14.566	-85.344	 H	3	PRO3	0.021	
40	 3HG	116.178	16.111	-86.202	 H	3	PRO3	0.021	
41	 2HD	117.744	15.641	-83.638	 H	3	PRO3	0.039	
42	 3HD	116.615	16.977	-84.032	 H	3	PRO3	0.039	
43	   N	117.390	18.176	-87.405	N.am	4	GLU4	-0.516	
44	  CA	117.072	19.161	-88.434	C.3	4	GLU4	0.040	
45	   C	118.022	20.332	-88.374	C.2	4	GLU4	0.537	
46	   O	118.569	20.789	-89.388	O.2	4	GLU4	-0.582	
47	  CB	115.603	19.644	-88.264	C.3	4	GLU4	0.056	
48	  CG	115.098	20.670	-89.329	C.3	4	GLU4	0.014	
49	  CD	113.695	21.228	-89.185	C.2	4	GLU4	0.805	
50	 OE1	112.952	20.862	-88.253	O.co2	4	GLU4	-0.819	
51	 OE2	113.341	22.074	-90.033	O.co2	4	GLU4	-0.819	
52	   H	116.693	17.899	-86.728	 H	4	GLU4	0.294	
53	  HA	117.182	18.686	-89.426	 H	4	GLU4	0.111	
54	 2HB	115.470	20.090	-87.257	 H	4	GLU4	-0.017	
55	 3HB	114.917	18.775	-88.270	 H	4	GLU4	-0.017	
56	 2HG	115.161	20.253	-90.347	 H	4	GLU4	-0.043	
57	 3HG	115.726	21.576	-89.340	 H	4	GLU4	-0.043	
58	   N	118.274	20.875	-87.231	N.am	5	SER5	-0.416	
59	  CA	119.193	22.007	-87.172	C.3	5	SER5	-0.025	
60	   C	120.537	21.643	-87.759	C.2	5	SER5	0.597	
61	   O	121.116	22.373	-88.564	O.2	5	SER5	-0.568	
62	  CB	119.328	22.534	-85.722	C.3	5	SER5	0.212	
63	  OG	120.022	21.624	-84.861	O.3	5	SER5	-0.655	
64	   H	117.842	20.521	-86.389	 H	5	SER5	0.272	
65	  HA	118.778	22.816	-87.801	 H	5	SER5	0.084	
66	 2HB	118.338	22.771	-85.288	 H	5	SER5	0.035	
67	 3HB	119.876	23.497	-85.725	 H	5	SER5	0.035	
68	  HG	119.498	20.821	-84.810	 H	5	SER5	0.428	
69	   N	121.095	20.535	-87.405	N.am	6	ILE6	-0.416	
70	  CA	122.394	20.184	-87.972	C.3	6	ILE6	-0.060	
71	   C	122.335	20.149	-89.479	C.2	6	ILE6	0.597	
72	   O	123.194	20.700	-90.184	O.2	6	ILE6	-0.568	
73	  CB	122.936	18.823	-87.372	C.3	6	ILE6	0.130	
74	 CG1	122.953	18.760	-85.811	C.3	6	ILE6	-0.043	
75	 CG2	124.362	18.459	-87.888	C.3	6	ILE6	-0.320	
76	 CD1	123.163	17.361	-85.196	C.3	6	ILE6	-0.066	
77	   H	120.640	19.920	-86.746	 H	6	ILE6	0.272	
78	  HA	123.104	20.988	-87.704	 H	6	ILE6	0.087	
79	  HB	122.243	18.026	-87.716	 H	6	ILE6	0.019	
80	2HG1	121.986	19.122	-85.415	 H	6	ILE6	0.024	
81	3HG1	123.701	19.470	-85.407	 H	6	ILE6	0.024	
82	1HG2	124.417	18.363	-88.986	 H	6	ILE6	0.088	
83	2HG2	125.118	19.210	-87.586	 H	6	ILE6	0.088	
84	3HG2	124.711	17.481	-87.509	 H	6	ILE6	0.088	
85	1HD1	122.403	16.639	-85.550	 H	6	ILE6	0.019	
86	2HD1	124.156	16.938	-85.432	 H	6	ILE6	0.019	
87	3HD1	123.089	17.394	-84.093	 H	6	ILE6	0.019	
88	   N	121.361	19.527	-90.053	N.am	7	LEU7	-0.416	
89	  CA	121.304	19.493	-91.511	C.3	7	LEU7	-0.052	
90	   C	121.291	20.890	-92.084	C.2	7	LEU7	0.597	
91	   O	122.027	21.222	-93.026	O.2	7	LEU7	-0.568	
92	  CB	120.064	18.686	-91.991	C.3	7	LEU7	-0.110	
93	  CG	119.928	17.211	-91.525	C.3	7	LEU7	0.353	
94	 CD1	118.708	16.557	-92.190	C.3	7	LEU7	-0.412	
95	 CD2	121.187	16.377	-91.817	C.3	7	LEU7	-0.412	
96	   H	120.649	19.070	-89.501	 H	7	LEU7	0.272	
97	  HA	122.225	19.013	-91.886	 H	7	LEU7	0.092	
98	 2HB	120.041	18.703	-93.099	 H	7	LEU7	0.046	
99	 3HB	119.147	19.229	-91.687	 H	7	LEU7	0.046	
100	  HG	119.758	17.210	-90.427	 H	7	LEU7	-0.036	
101	1HD1	117.774	17.107	-91.967	 H	7	LEU7	0.100	
102	2HD1	118.805	16.513	-93.291	 H	7	LEU7	0.100	
103	3HD1	118.557	15.522	-91.834	 H	7	LEU7	0.100	
104	1HD2	121.462	16.395	-92.887	 H	7	LEU7	0.100	
105	2HD2	122.057	16.751	-91.246	 H	7	LEU7	0.100	
106	3HD2	121.060	15.319	-91.521	 H	7	LEU7	0.100	
107	   N	120.491	21.766	-91.577	N.am	8	ASP8	-0.516	
108	  CA	120.479	23.118	-92.130	C.3	8	ASP8	0.038	
109	   C	121.854	23.739	-92.073	C.2	8	ASP8	0.537	
110	   O	122.352	24.323	-93.048	O.2	8	ASP8	-0.582	
111	  CB	119.438	24.002	-91.388	C.3	8	ASP8	-0.030	
112	  CG	119.281	25.431	-91.928	C.2	8	ASP8	0.799	
113	 OD1	119.353	25.628	-93.159	O.co2	8	ASP8	-0.801	
114	 OD2	119.129	26.365	-91.112	O.co2	8	ASP8	-0.801	
115	   H	119.883	21.521	-90.809	 H	8	ASP8	0.294	
116	  HA	120.193	23.052	-93.197	 H	8	ASP8	0.088	
117	 2HB	119.700	24.074	-90.316	 H	8	ASP8	-0.012	
118	 3HB	118.439	23.540	-91.420	 H	8	ASP8	-0.012	
119	   N	122.531	23.660	-90.978	N.am	9	GLU9	-0.516	
120	  CA	123.861	24.260	-90.923	C.3	9	GLU9	0.040	
121	   C	124.755	23.694	-92.000	C.2	9	GLU9	0.537	
122	   O	125.451	24.419	-92.725	O.2	9	GLU9	-0.582	
123	  CB	124.486	24.025	-89.518	C.3	9	GLU9	0.056	
124	  CG	125.897	24.657	-89.289	C.3	9	GLU9	0.014	
125	  CD	126.589	24.414	-87.961	C.2	9	GLU9	0.805	
126	 OE1	126.039	23.746	-87.065	O.co2	9	GLU9	-0.819	
127	 OE2	127.731	24.903	-87.830	O.co2	9	GLU9	-0.819	
128	   H	122.148	23.189	-90.171	 H	9	GLU9	0.294	
129	  HA	123.766	25.347	-91.099	 H	9	GLU9	0.111	
130	 2HB	124.552	22.937	-89.315	 H	9	GLU9	-0.017	
131	 3HB	123.805	24.408	-88.734	 H	9	GLU9	-0.017	
132	 2HG	125.872	25.750	-89.429	 H	9	GLU9	-0.043	
133	 3HG	126.628	24.281	-90.024	 H	9	GLU9	-0.043	
134	   N	124.796	22.416	-92.169	N.am	10	HIS10	-0.416	
135	  CA	125.661	21.867	-93.210	C.3	10	HIS10	-0.058	
136	   C	125.318	22.447	-94.561	C.2	10	HIS10	0.597	
137	   O	126.190	22.875	-95.333	O.2	10	HIS10	-0.568	
138	  CB	125.432	20.346	-93.206	C.3	10	HIS10	-0.007	
139	  CG	126.686	19.581	-92.898	C.2	10	HIS10	0.187	
140	 CD2	127.052	19.230	-91.606	C.2	10	HIS10	-0.221	
141	 ND1	127.619	19.135	-93.831	N.2	10	HIS10	-0.543	
142	 CE1	128.501	18.538	-93.008	C.2	10	HIS10	0.163	
143	 NE2	128.239	18.547	-91.673	N.pl3	10	HIS10	-0.280	
144	   H	124.239	21.804	-91.591	 H	10	HIS10	0.272	
145	  HA	126.695	22.180	-92.985	 H	10	HIS10	0.136	
146	 2HB	125.051	19.996	-94.185	 H	10	HIS10	0.037	
147	 3HB	124.662	20.042	-92.465	 H	10	HIS10	0.037	
148	 2HD	126.477	19.470	-90.716	 H	10	HIS10	0.186	
149	 1HE	129.373	18.080	-93.456	 H	10	HIS10	0.144	
150	 2HE	128.789	18.145	-90.900	 H	10	HIS10	0.334	
151	   N	124.082	22.499	-94.924	N.am	11	VAL11	-0.416	
152	  CA	123.750	23.060	-96.230	C.3	11	VAL11	-0.087	
153	   C	124.275	24.470	-96.363	C.2	11	VAL11	0.597	
154	   O	124.893	24.849	-97.366	O.2	11	VAL11	-0.568	
155	  CB	122.185	23.021	-96.449	C.3	11	VAL11	0.299	
156	 CG1	121.647	23.749	-97.712	C.3	11	VAL11	-0.319	
157	 CG2	121.599	21.591	-96.522	C.3	11	VAL11	-0.319	
158	   H	123.353	22.157	-94.313	 H	11	VAL11	0.272	
159	  HA	124.244	22.456	-97.013	 H	11	VAL11	0.097	
160	  HB	121.719	23.521	-95.574	 H	11	VAL11	-0.030	
161	1HG1	122.068	23.339	-98.649	 H	11	VAL11	0.079	
162	2HG1	120.545	23.689	-97.793	 H	11	VAL11	0.079	
163	3HG1	121.872	24.833	-97.702	 H	11	VAL11	0.079	
164	1HG2	121.863	20.991	-95.632	 H	11	VAL11	0.079	
165	2HG2	120.492	21.601	-96.565	 H	11	VAL11	0.079	
166	3HG2	121.957	21.034	-97.409	 H	11	VAL11	0.079	
167	   N	124.074	25.305	-95.400	N.am	12	GLN12	-0.416	
168	  CA	124.582	26.667	-95.527	C.3	12	GLN12	-0.003	
169	   C	126.073	26.670	-95.765	C.2	12	GLN12	0.597	
170	   O	126.590	27.357	-96.644	O.2	12	GLN12	-0.568	
171	  CB	124.225	27.450	-94.244	C.3	12	GLN12	-0.004	
172	  CG	124.650	28.955	-94.213	C.3	12	GLN12	-0.064	
173	  CD	124.383	29.781	-92.948	C.2	12	GLN12	0.695	
174	 NE2	123.792	29.229	-91.919	N.pl3	12	GLN12	-0.941	
175	 OE1	124.735	30.948	-92.870	O.2	12	GLN12	-0.609	
176	   H	123.573	25.020	-94.571	 H	12	GLN12	0.272	
177	  HA	124.102	27.145	-96.402	 H	12	GLN12	0.085	
178	 2HB	124.679	26.930	-93.375	 H	12	GLN12	0.017	
179	 3HB	123.131	27.390	-94.080	 H	12	GLN12	0.017	
180	 2HG	124.195	29.496	-95.063	 H	12	GLN12	0.035	
181	 3HG	125.738	29.051	-94.379	 H	12	GLN12	0.035	
182	1HE2	123.711	29.827	-91.095	 H	12	GLN12	0.425	
183	2HE2	123.586	28.233	-92.022	 H	12	GLN12	0.425	
184	   N	126.827	25.930	-95.025	N.am	13	ARG13	-0.348	
185	  CA	128.269	25.934	-95.256	C.3	13	ARG13	-0.264	
186	   C	128.588	25.549	-96.681	C.2	13	ARG13	0.734	
187	   O	129.384	26.187	-97.366	O.2	13	ARG13	-0.589	
188	  CB	128.941	24.965	-94.243	C.3	13	ARG13	-0.001	
189	  CG	130.491	25.052	-94.162	C.3	13	ARG13	0.039	
190	  CD	131.076	24.038	-93.165	C.3	13	ARG13	0.049	
191	  NE	132.560	24.181	-93.115	N.pl3	13	ARG13	-0.530	
192	  CZ	133.378	23.454	-92.360	C.cat	13	ARG13	0.808	
193	 NH1	132.972	22.506	-91.563	N.pl3	13	ARG13	-0.863	
194	 NH2	134.649	23.698	-92.417	N.pl3	13	ARG13	-0.863	
195	   H	126.426	25.357	-94.297	 H	13	ARG13	0.275	
196	  HA	128.638	26.965	-95.098	 H	13	ARG13	0.156	
197	 2HB	128.630	23.927	-94.482	 H	13	ARG13	0.033	
198	 3HB	128.524	25.150	-93.232	 H	13	ARG13	0.033	
199	 2HG	130.784	26.085	-93.883	 H	13	ARG13	0.029	
200	 3HG	130.934	24.877	-95.164	 H	13	ARG13	0.029	
201	 2HD	130.787	23.009	-93.474	 H	13	ARG13	0.069	
202	 3HD	130.626	24.203	-92.162	 H	13	ARG13	0.069	
203	  HE	133.042	24.884	-93.686	 H	13	ARG13	0.346	
204	1HH1	131.960	22.363	-91.566	 H	13	ARG13	0.448	
205	2HH1	133.664	21.992	-91.015	 H	13	ARG13	0.448	
206	1HH2	134.949	24.444	-93.048	 H	13	ARG13	0.448	
207	2HH2	135.261	23.130	-91.829	 H	13	ARG13	0.448	
208	   N	128.007	24.519	-97.196	N.am	14	VAL14	-0.416	
209	  CA	128.315	24.146	-98.574	C.3	14	VAL14	-0.087	
210	   C	128.034	25.289	-99.519	C.2	14	VAL14	0.597	
211	   O	128.843	25.637	-100.389	O.2	14	VAL14	-0.568	
212	  CB	127.487	22.863	-98.980	C.3	14	VAL14	0.299	
213	 CG1	127.557	22.442	-100.474	C.3	14	VAL14	-0.319	
214	 CG2	127.865	21.594	-98.181	C.3	14	VAL14	-0.319	
215	   H	127.348	23.978	-96.654	 H	14	VAL14	0.272	
216	  HA	129.395	23.923	-98.649	 H	14	VAL14	0.097	
217	  HB	126.419	23.081	-98.764	 H	14	VAL14	-0.030	
218	1HG1	128.590	22.220	-100.803	 H	14	VAL14	0.079	
219	2HG1	126.945	21.544	-100.687	 H	14	VAL14	0.079	
220	3HG1	127.161	23.222	-101.152	 H	14	VAL14	0.079	
221	1HG2	127.785	21.755	-97.090	 H	14	VAL14	0.079	
222	2HG2	127.192	20.745	-98.413	 H	14	VAL14	0.079	
223	3HG2	128.899	21.259	-98.387	 H	14	VAL14	0.079	
224	   N	126.915	25.924	-99.417	N.am	15	MET15	-0.416	
225	  CA	126.642	27.030	-100.330	C.3	15	MET15	-0.024	
226	   C	127.719	28.084	-100.242	C.2	15	MET15	0.597	
227	   O	128.242	28.573	-101.255	O.2	15	MET15	-0.568	
228	  CB	125.245	27.636	-100.020	C.3	15	MET15	0.034	
229	  CG	124.041	26.688	-100.212	C.3	15	MET15	0.002	
230	  SD	122.506	27.621	-100.097	S.3	15	MET15	-0.274	
231	  CE	121.365	26.239	-99.960	C.3	15	MET15	-0.054	
232	   H	126.239	25.660	-98.715	 H	15	MET15	0.272	
233	  HA	126.651	26.642	-101.366	 H	15	MET15	0.088	
234	 2HB	125.081	28.522	-100.662	 H	15	MET15	0.024	
235	 3HB	125.227	28.029	-98.984	 H	15	MET15	0.024	
236	 2HG	124.051	25.901	-99.434	 H	15	MET15	0.044	
237	 3HG	124.082	26.171	-101.188	 H	15	MET15	0.044	
238	 1HE	121.478	25.546	-100.813	 H	15	MET15	0.068	
239	 2HE	121.550	25.678	-99.027	 H	15	MET15	0.068	
240	 3HE	120.322	26.600	-99.943	 H	15	MET15	0.068	
241	   N	128.105	28.489	-99.080	N.am	16	ARG16	-0.348	
242	  CA	129.147	29.509	-98.997	C.3	16	ARG16	-0.264	
243	   C	130.399	29.062	-99.713	C.2	16	ARG16	0.734	
244	   O	130.466	27.982	-100.295	O.2	16	ARG16	-0.589	
245	  CB	129.430	29.814	-97.498	C.3	16	ARG16	-0.001	
246	  CG	130.310	31.067	-97.225	C.3	16	ARG16	0.039	
247	  CD	130.569	31.275	-95.724	C.3	16	ARG16	0.049	
248	  NE	131.399	32.499	-95.523	N.pl3	16	ARG16	-0.530	
249	  CZ	131.811	32.964	-94.348	C.cat	16	ARG16	0.808	
250	 NH1	131.539	32.390	-93.209	N.pl3	16	ARG16	-0.863	
251	 NH2	132.522	34.047	-94.329	N.pl3	16	ARG16	-0.863	
252	   H	127.694	28.106	-98.241	 H	16	ARG16	0.275	
253	  HA	128.776	30.418	-99.506	 H	16	ARG16	0.156	
254	 2HB	129.889	28.918	-97.032	 H	16	ARG16	0.033	
255	 3HB	128.465	29.937	-96.964	 H	16	ARG16	0.033	
256	 2HG	129.817	31.960	-97.662	 H	16	ARG16	0.029	
257	 3HG	131.280	30.972	-97.755	 H	16	ARG16	0.029	
258	 2HD	131.080	30.377	-95.311	 H	16	ARG16	0.069	
259	 3HD	129.599	31.359	-95.189	 H	16	ARG16	0.069	
260	  HE	131.702	33.068	-96.320	 H	16	ARG16	0.346	
261	1HH1	130.976	31.541	-93.294	 H	16	ARG16	0.448	
262	2HH1	131.892	32.811	-92.348	 H	16	ARG16	0.448	
263	1HH2	132.726	34.482	-95.231	 H	16	ARG16	0.448	
264	2HH2	132.827	34.389	-93.417	 H	16	ARG16	0.448	
@<TRIPOS>BOND
1 1 2 1
2 1 8 1
3 2 3 1
4 2 5 1
5 2 9 1
6 3 4 2
7 3 15 1
8 5 6 1
9 5 7 1
10 5 10 1
11 7 11 1
12 6 12 1
13 6 13 1
14 6 14 1
15 15 16 1
16 15 23 1
17 16 17 1
18 16 19 1
19 16 24 1
20 17 18 2
21 17 29 1
22 19 20 1
23 20 21 1
24 20 22 2
25 19 25 1
26 19 26 1
27 21 27 1
28 21 28 1
29 29 30 1
30 29 35 1
31 30 31 1
32 30 33 1
33 30 36 1
34 31 32 2
35 31 43 1
36 33 34 1
37 34 35 1
38 33 37 1
39 33 38 1
40 34 39 1
41 34 40 1
42 35 41 1
43 35 42 1
44 43 44 1
45 43 52 1
46 44 45 1
47 44 47 1
48 44 53 1
49 45 46 2
50 45 58 1
51 47 48 1
52 48 49 1
53 49 50 2
54 49 51 1
55 47 54 1
56 47 55 1
57 48 56 1
58 48 57 1
59 58 59 1
60 58 64 1
61 59 60 1
62 59 62 1
63 59 65 1
64 60 61 2
65 60 69 1
66 62 63 1
67 62 66 1
68 62 67 1
69 63 68 1
70 69 70 1
71 69 77 1
72 70 71 1
73 70 73 1
74 70 78 1
75 71 72 2
76 71 88 1
77 73 74 1
78 73 75 1
79 74 76 1
80 73 79 1
81 74 80 1
82 74 81 1
83 75 82 1
84 75 83 1
85 75 84 1
86 76 85 1
87 76 86 1
88 76 87 1
89 88 89 1
90 88 96 1
91 89 90 1
92 89 92 1
93 89 97 1
94 90 91 2
95 90 107 1
96 92 93 1
97 93 94 1
98 93 95 1
99 92 98 1
100 92 99 1
101 93 100 1
102 94 101 1
103 94 102 1
104 94 103 1
105 95 104 1
106 95 105 1
107 95 106 1
108 107 108 1
109 107 115 1
110 108 109 1
111 108 111 1
112 108 116 1
113 109 110 2
114 109 119 1
115 111 112 1
116 112 113 2
117 112 114 1
118 111 117 1
119 111 118 1
120 119 120 1
121 119 128 1
122 120 121 1
123 120 123 1
124 120 129 1
125 121 122 2
126 121 134 1
127 123 124 1
128 124 125 1
129 125 126 2
130 125 127 1
131 123 130 1
132 123 131 1
133 124 132 1
134 124 133 1
135 134 135 1
136 134 144 1
137 135 136 1
138 135 138 1
139 135 145 1
140 136 137 2
141 136 151 1
142 138 139 1
143 139 140 2
144 140 143 1
145 139 141 1
146 141 142 2
147 142 143 1
148 138 146 1
149 138 147 1
150 140 148 1
151 142 149 1
152 143 150 1
153 151 152 1
154 151 158 1
155 152 153 1
156 152 155 1
157 152 159 1
158 153 154 2
159 153 167 1
160 155 156 1
161 155 157 1
162 155 160 1
163 156 161 1
164 156 162 1
165 156 163 1
166 157 164 1
167 157 165 1
168 157 166 1
169 167 168 1
170 167 176 1
171 168 169 1
172 168 171 1
173 168 177 1
174 169 170 2
175 169 184 1
176 171 172 1
177 172 173 1
178 173 174 1
179 173 175 2
180 171 178 1
181 171 179 1
182 172 180 1
183 172 181 1
184 174 182 1
185 174 183 1
186 184 185 1
187 184 195 1
188 185 186 1
189 185 188 1
190 185 196 1
191 186 187 2
192 186 208 1
193 188 189 1
194 189 190 1
195 190 191 1
196 191 192 1
197 192 193 2
198 192 194 1
199 188 197 1
200 188 198 1
201 189 199 1
202 189 200 1
203 190 201 1
204 190 202 1
205 191 203 1
206 193 204 1
207 193 205 1
208 194 206 1
209 194 207 1
210 208 209 1
211 208 215 1
212 209 210 1
213 209 212 1
214 209 216 1
215 210 211 2
216 210 224 1
217 212 213 1
218 212 214 1
219 212 217 1
220 213 218 1
221 213 219 1
222 213 220 1
223 214 221 1
224 214 222 1
225 214 223 1
226 224 225 1
227 224 232 1
228 225 226 1
229 225 228 1
230 225 233 1
231 226 227 2
232 226 241 1
233 228 229 1
234 229 230 1
235 230 231 1
236 228 234 1
237 228 235 1
238 229 236 1
239 229 237 1
240 231 238 1
241 231 239 1
242 231 240 1
243 241 242 1
244 241 252 1
245 242 243 1
246 242 245 1
247 242 253 1
248 243 244 2
249 245 246 1
250 246 247 1
251 247 248 1
252 248 249 1
253 249 250 2
254 249 251 1
255 245 254 1
256 245 255 1
257 246 256 1
258 246 257 1
259 247 258 1
260 247 259 1
261 248 260 1
262 250 261 1
263 250 262 1
264 251 263 1
265 251 264 1
@<TRIPOS>SUBSTRUCTURE
1	THR1	1	RESIDUE	1 ****	THR
2	ASN2	15	RESIDUE	1 ****	ASN
3	PRO3	29	RESIDUE	1 ****	PRO
4	GLU4	43	RESIDUE	1 ****	GLU
5	SER5	58	RESIDUE	1 ****	SER
6	ILE6	69	RESIDUE	1 ****	ILE
7	LEU7	88	RESIDUE	1 ****	LEU
8	ASP8	107	RESIDUE	1 ****	ASP
9	GLU9	119	RESIDUE	1 ****	GLU
10	HIS10	134	RESIDUE	1 ****	HIS
11	VAL11	151	RESIDUE	1 ****	VAL
12	GLN12	167	RESIDUE	1 ****	GLN
13	ARG13	184	RESIDUE	1 ****	ARG
14	VAL14	208	RESIDUE	1 ****	VAL
15	MET15	224	RESIDUE	1 ****	MET
16	ARG16	241	RESIDUE	1 ****	ARG
