@<TRIPOS>MOLECULE
6-10
270 273 16              
SMALL
USER_CHARGES
@<TRIPOS>ATOM
1	   N	934.531	255.057	-905.884	N.3	1	GLU1	-0.516	
2	  CA	935.090	256.406	-905.884	C.3	1	GLU1	0.040	
3	   C	936.599	256.366	-905.884	C.2	1	GLU1	0.537	
4	   O	937.275	257.065	-906.653	O.2	1	GLU1	-0.582	
5	  CB	934.567	257.191	-904.647	C.3	1	GLU1	0.056	
6	  CG	935.042	258.676	-904.536	C.3	1	GLU1	0.014	
7	  CD	934.618	259.480	-903.321	C.2	1	GLU1	0.805	
8	 OE1	933.890	258.978	-902.443	O.co2	1	GLU1	-0.819	
9	 OE2	935.048	260.650	-903.249	O.co2	1	GLU1	-0.819	
10	   H	935.158	254.178	-905.884	 H	1	GLU1	0.294	
11	  HA	934.764	256.924	-906.804	 H	1	GLU1	0.111	
12	 2HB	934.856	256.660	-903.717	 H	1	GLU1	-0.017	
13	 3HB	933.460	257.181	-904.634	 H	1	GLU1	-0.017	
14	 2HG	934.732	259.261	-905.417	 H	1	GLU1	-0.043	
15	 3HG	936.142	258.743	-904.507	 H	1	GLU1	-0.043	
16	   N	937.204	255.580	-905.059	N.am	2	ASN2	-0.416	
17	  CA	938.663	255.541	-905.059	C.3	2	ASN2	0.014	
18	   C	939.194	255.186	-906.428	C.2	2	ASN2	0.597	
19	   O	940.109	255.817	-906.957	O.2	2	ASN2	-0.568	
20	  CB	939.155	254.519	-903.995	C.3	2	ASN2	-0.204	
21	  CG	938.692	254.742	-902.552	C.2	2	ASN2	0.713	
22	 ND2	939.287	255.657	-901.833	N.pl3	2	ASN2	-0.919	
23	 OD1	937.772	254.108	-902.057	O.2	2	ASN2	-0.593	
24	   H	936.675	255.000	-904.422	 H	2	ASN2	0.272	
25	  HA	939.040	256.551	-904.814	 H	2	ASN2	0.105	
26	 2HB	940.260	254.460	-903.999	 H	2	ASN2	0.080	
27	 3HB	938.826	253.500	-904.281	 H	2	ASN2	0.080	
28	1HD2	938.806	255.830	-900.947	 H	2	ASN2	0.420	
29	2HD2	939.988	256.229	-902.303	 H	2	ASN2	0.420	
30	   N	938.673	254.191	-907.062	N.am	3	PRO3	-0.255	
31	  CA	939.124	253.782	-908.383	C.3	3	PRO3	-0.027	
32	   C	938.726	254.805	-909.460	C.2	3	PRO3	0.590	
33	   O	939.549	255.189	-910.292	O.2	3	PRO3	-0.575	
34	  CB	938.421	252.427	-908.553	C.3	3	PRO3	-0.007	
35	  CG	937.137	252.579	-907.722	C.3	3	PRO3	0.019	
36	  CD	937.595	253.398	-906.513	C.3	3	PRO3	0.019	
37	  HA	940.210	253.662	-908.397	 H	3	PRO3	0.064	
38	 2HB	939.044	251.646	-908.112	 H	3	PRO3	0.025	
39	 3HB	938.222	252.178	-909.598	 H	3	PRO3	0.025	
40	 2HG	936.710	251.616	-907.431	 H	3	PRO3	0.021	
41	 3HG	936.400	253.150	-908.290	 H	3	PRO3	0.021	
42	 2HD	937.984	252.748	-905.725	 H	3	PRO3	0.039	
43	 3HD	936.798	254.033	-906.119	 H	3	PRO3	0.039	
44	   N	937.521	255.265	-909.492	N.am	4	GLU4	-0.516	
45	  CA	937.161	256.236	-910.522	C.3	4	GLU4	0.040	
46	   C	938.060	257.447	-910.461	C.2	4	GLU4	0.537	
47	   O	938.586	257.927	-911.475	O.2	4	GLU4	-0.582	
48	  CB	935.672	256.654	-910.351	C.3	4	GLU4	0.056	
49	  CG	935.124	257.657	-911.417	C.3	4	GLU4	0.014	
50	  CD	933.697	258.154	-911.273	C.2	4	GLU4	0.805	
51	 OE1	932.971	257.755	-910.342	O.co2	4	GLU4	-0.819	
52	 OE2	933.307	258.983	-912.121	O.co2	4	GLU4	-0.819	
53	   H	936.837	254.958	-908.816	 H	4	GLU4	0.294	
54	  HA	937.292	255.765	-911.513	 H	4	GLU4	0.111	
55	 2HB	935.520	257.094	-909.344	 H	4	GLU4	-0.017	
56	 3HB	935.025	255.756	-910.358	 H	4	GLU4	-0.017	
57	 2HG	935.205	257.243	-912.435	 H	4	GLU4	-0.043	
58	 3HG	935.711	258.590	-911.428	 H	4	GLU4	-0.043	
59	   N	938.287	258.000	-909.318	N.am	5	SER5	-0.416	
60	  CA	939.156	259.171	-909.259	C.3	5	SER5	-0.025	
61	   C	940.515	258.866	-909.845	C.2	5	SER5	0.597	
62	   O	941.062	259.620	-910.650	O.2	5	SER5	-0.568	
63	  CB	939.268	259.704	-907.809	C.3	5	SER5	0.212	
64	  OG	940.000	258.825	-906.948	O.3	5	SER5	-0.655	
65	   H	937.870	257.628	-908.476	 H	5	SER5	0.272	
66	  HA	938.706	259.961	-909.888	 H	5	SER5	0.084	
67	 2HB	938.268	259.897	-907.375	 H	5	SER5	0.035	
68	 3HB	939.773	260.689	-907.811	 H	5	SER5	0.035	
69	  HG	939.512	257.999	-906.897	 H	5	SER5	0.428	
70	   N	941.120	257.783	-909.491	N.am	6	TRP6	-0.416	
71	  CA	942.433	257.489	-910.057	C.3	6	TRP6	-0.027	
72	   C	942.376	257.451	-911.566	C.2	6	TRP6	0.597	
73	   O	943.204	258.034	-912.264	O.2	6	TRP6	-0.568	
74	  CB	942.924	256.117	-909.516	C.3	6	TRP6	-0.005	
75	  CG	943.208	256.087	-908.011	C.2	6	TRP6	-0.141	
76	 CD1	942.318	255.633	-907.015	C.2	6	TRP6	-0.164	
77	 CD2	944.313	256.567	-907.339	C.2	6	TRP6	0.124	
78	 CE2	944.086	256.396	-905.951	C.2	6	TRP6	0.138	
79	 CE3	945.508	257.172	-907.806	C.2	6	TRP6	-0.239	
80	 NE1	942.848	255.813	-905.724	N.pl3	6	TRP6	-0.342	
81	 CZ2	945.059	256.818	-905.019	C.2	6	TRP6	-0.260	
82	 CZ3	946.457	257.575	-906.866	C.2	6	TRP6	-0.197	
83	 CH2	946.238	257.399	-905.493	C.2	6	TRP6	-0.113	
84	   H	940.692	257.149	-908.832	 H	6	TRP6	0.272	
85	  HA	943.140	258.290	-909.770	 H	6	TRP6	0.112	
86	 2HB	943.851	255.810	-910.036	 H	6	TRP6	0.034	
87	 3HB	942.193	255.324	-909.768	 H	6	TRP6	0.034	
88	 1HD	941.331	255.240	-907.223	 H	6	TRP6	0.206	
89	 1HE	942.405	255.610	-904.820	 H	6	TRP6	0.341	
90	 3HE	945.682	257.318	-908.863	 H	6	TRP6	0.170	
91	 2HZ	944.890	256.691	-903.960	 H	6	TRP6	0.157	
92	 3HZ	947.376	258.031	-907.205	 H	6	TRP6	0.145	
93	 2HH	946.993	257.717	-904.790	 H	6	TRP6	0.142	
94	   N	941.431	256.787	-912.141	N.am	7	LEU7	-0.416	
95	  CA	941.376	256.751	-913.599	C.3	7	LEU7	-0.052	
96	   C	941.304	258.146	-914.172	C.2	7	LEU7	0.597	
97	   O	942.025	258.509	-915.113	O.2	7	LEU7	-0.568	
98	  CB	940.173	255.890	-914.080	C.3	7	LEU7	-0.110	
99	  CG	940.101	254.411	-913.613	C.3	7	LEU7	0.353	
100	 CD1	938.911	253.705	-914.280	C.3	7	LEU7	-0.412	
101	 CD2	941.395	253.632	-913.904	C.3	7	LEU7	-0.412	
102	   H	940.738	256.300	-911.590	 H	7	LEU7	0.272	
103	  HA	942.318	256.311	-913.973	 H	7	LEU7	0.092	
104	 2HB	940.151	255.907	-915.187	 H	7	LEU7	0.046	
105	 3HB	939.234	256.393	-913.776	 H	7	LEU7	0.046	
106	  HG	939.931	254.403	-912.516	 H	7	LEU7	-0.036	
107	1HD1	937.954	254.214	-914.057	 H	7	LEU7	0.100	
108	2HD1	939.011	253.665	-915.381	 H	7	LEU7	0.100	
109	3HD1	938.804	252.664	-913.923	 H	7	LEU7	0.100	
110	1HD2	941.670	253.663	-914.974	 H	7	LEU7	0.100	
111	2HD2	942.248	254.044	-913.333	 H	7	LEU7	0.100	
112	3HD2	941.313	252.570	-913.608	 H	7	LEU7	0.100	
113	   N	940.466	258.987	-913.666	N.am	8	ASP8	-0.516	
114	  CA	940.396	260.336	-914.219	C.3	8	ASP8	0.038	
115	   C	941.742	261.016	-914.161	C.2	8	ASP8	0.537	
116	   O	942.215	261.622	-915.135	O.2	8	ASP8	-0.582	
117	  CB	939.317	261.175	-913.477	C.3	8	ASP8	-0.030	
118	  CG	939.098	262.596	-914.018	C.2	8	ASP8	0.799	
119	 OD1	939.162	262.795	-915.249	O.co2	8	ASP8	-0.801	
120	 OD2	938.905	263.521	-913.202	O.co2	8	ASP8	-0.801	
121	   H	939.868	258.715	-912.898	 H	8	ASP8	0.294	
122	  HA	940.113	260.258	-915.286	 H	8	ASP8	0.088	
123	 2HB	939.574	261.258	-912.405	 H	8	ASP8	-0.012	
124	 3HB	938.338	260.670	-913.511	 H	8	ASP8	-0.012	
125	   N	942.421	260.967	-913.065	N.am	9	GLU9	-0.516	
126	  CA	943.724	261.625	-913.009	C.3	9	GLU9	0.040	
127	   C	944.643	261.098	-914.085	C.2	9	GLU9	0.537	
128	   O	945.307	261.852	-914.810	O.2	9	GLU9	-0.582	
129	  CB	944.357	261.417	-911.604	C.3	9	GLU9	0.056	
130	  CG	945.739	262.110	-911.374	C.3	9	GLU9	0.014	
131	  CD	946.440	261.896	-910.045	C.2	9	GLU9	0.805	
132	 OE1	945.919	261.205	-909.149	O.co2	9	GLU9	-0.819	
133	 OE2	947.559	262.434	-909.913	O.co2	9	GLU9	-0.819	
134	   H	942.058	260.480	-912.259	 H	9	GLU9	0.294	
135	  HA	943.581	262.706	-913.185	 H	9	GLU9	0.111	
136	 2HB	944.470	260.332	-911.401	 H	9	GLU9	-0.017	
137	 3HB	943.659	261.770	-910.820	 H	9	GLU9	-0.017	
138	 2HG	945.667	263.200	-911.513	 H	9	GLU9	-0.043	
139	 3HG	946.486	261.765	-912.107	 H	9	GLU9	-0.043	
140	   N	944.740	259.822	-914.255	N.am	10	HIS10	-0.416	
141	  CA	945.628	259.312	-915.295	C.3	10	HIS10	-0.058	
142	   C	945.262	259.876	-916.646	C.2	10	HIS10	0.597	
143	   O	946.114	260.342	-917.417	O.2	10	HIS10	-0.568	
144	  CB	945.465	257.783	-915.290	C.3	10	HIS10	-0.007	
145	  CG	946.751	257.073	-914.981	C.2	10	HIS10	0.187	
146	 CD2	947.131	256.738	-913.689	C.2	10	HIS10	-0.221	
147	 ND1	947.703	256.668	-915.914	N.2	10	HIS10	-0.543	
148	 CE1	948.610	256.110	-915.090	C.2	10	HIS10	0.163	
149	 NE2	948.347	256.107	-913.755	N.pl3	10	HIS10	-0.280	
150	   H	944.209	259.187	-913.676	 H	10	HIS10	0.272	
151	  HA	946.647	259.669	-915.069	 H	10	HIS10	0.136	
152	 2HB	945.100	257.416	-916.270	 H	10	HIS10	0.037	
153	 3HB	944.709	257.445	-914.550	 H	10	HIS10	0.037	
154	 2HD	946.545	256.952	-912.800	 H	10	HIS10	0.186	
155	 1HE	949.501	255.690	-915.537	 H	10	HIS10	0.144	
156	 2HE	948.913	255.730	-912.982	 H	10	HIS10	0.334	
157	   N	944.024	259.875	-917.009	N.am	11	VAL11	-0.416	
158	  CA	943.669	260.421	-918.316	C.3	11	VAL11	-0.087	
159	   C	944.133	261.852	-918.448	C.2	11	VAL11	0.597	
160	   O	944.734	262.257	-919.451	O.2	11	VAL11	-0.568	
161	  CB	942.108	260.314	-918.536	C.3	11	VAL11	0.299	
162	 CG1	941.540	261.017	-919.799	C.3	11	VAL11	-0.319	
163	 CG2	941.584	258.859	-918.610	C.3	11	VAL11	-0.319	
164	   H	943.311	259.502	-916.399	 H	11	VAL11	0.272	
165	  HA	944.189	259.839	-919.098	 H	11	VAL11	0.097	
166	  HB	941.620	260.793	-917.661	 H	11	VAL11	-0.030	
167	1HG1	941.979	260.626	-920.736	 H	11	VAL11	0.079	
168	2HG1	940.441	260.910	-919.881	 H	11	VAL11	0.079	
169	3HG1	941.717	262.110	-919.789	 H	11	VAL11	0.079	
170	1HG2	941.874	258.272	-917.719	 H	11	VAL11	0.079	
171	2HG2	940.478	258.822	-918.653	 H	11	VAL11	0.079	
172	3HG2	941.967	258.319	-919.496	 H	11	VAL11	0.079	
173	   N	943.895	262.677	-917.486	N.am	12	GLN12	-0.416	
174	  CA	944.343	264.061	-917.613	C.3	12	GLN12	-0.003	
175	   C	945.833	264.129	-917.850	C.2	12	GLN12	0.597	
176	   O	946.320	264.837	-918.728	O.2	12	GLN12	-0.568	
177	  CB	943.951	264.828	-916.330	C.3	12	GLN12	-0.004	
178	  CG	944.310	266.350	-916.299	C.3	12	GLN12	-0.064	
179	  CD	944.007	267.163	-915.034	C.2	12	GLN12	0.695	
180	 NE2	943.440	266.586	-914.005	N.pl3	12	GLN12	-0.941	
181	 OE1	944.308	268.344	-914.956	O.2	12	GLN12	-0.609	
182	   H	943.406	262.371	-916.657	 H	12	GLN12	0.272	
183	  HA	943.844	264.517	-918.488	 H	12	GLN12	0.085	
184	 2HB	944.427	264.328	-915.461	 H	12	GLN12	0.017	
185	 3HB	942.861	264.720	-916.167	 H	12	GLN12	0.017	
186	 2HG	943.833	266.870	-917.149	 H	12	GLN12	0.035	
187	 3HG	945.394	266.492	-916.464	 H	12	GLN12	0.035	
188	1HE2	943.332	267.180	-913.182	 H	12	GLN12	0.425	
189	2HE2	943.277	265.582	-914.109	 H	12	GLN12	0.425	
190	   N	946.618	263.422	-917.109	N.am	13	ARG13	-0.348	
191	  CA	948.058	263.489	-917.339	C.3	13	ARG13	-0.264	
192	   C	948.395	263.118	-918.764	C.2	13	ARG13	0.734	
193	   O	949.163	263.790	-919.448	O.2	13	ARG13	-0.589	
194	  CB	948.772	262.550	-916.325	C.3	13	ARG13	-0.001	
195	  CG	950.316	262.704	-916.243	C.3	13	ARG13	0.039	
196	  CD	950.944	261.717	-915.245	C.3	13	ARG13	0.049	
197	  NE	952.421	261.925	-915.194	N.pl3	13	ARG13	-0.530	
198	  CZ	953.269	261.234	-914.439	C.cat	13	ARG13	0.808	
199	 NH1	952.904	260.269	-913.642	N.pl3	13	ARG13	-0.863	
200	 NH2	954.528	261.533	-914.496	N.pl3	13	ARG13	-0.863	
201	   H	946.242	262.832	-916.380	 H	13	ARG13	0.275	
202	  HA	948.382	264.535	-917.180	 H	13	ARG13	0.156	
203	 2HB	948.506	261.500	-916.564	 H	13	ARG13	0.033	
204	 3HB	948.346	262.716	-915.314	 H	13	ARG13	0.033	
205	 2HG	950.564	263.749	-915.964	 H	13	ARG13	0.029	
206	 3HG	950.767	262.549	-917.245	 H	13	ARG13	0.029	
207	 2HD	950.700	260.677	-915.555	 H	13	ARG13	0.069	
208	 3HD	950.487	261.862	-914.243	 H	13	ARG13	0.069	
209	  HE	952.872	262.647	-915.765	 H	13	ARG13	0.346	
210	1HH1	951.899	260.082	-913.646	 H	13	ARG13	0.448	
211	2HH1	953.617	259.786	-913.093	 H	13	ARG13	0.448	
212	1HH2	954.795	262.291	-915.126	 H	13	ARG13	0.448	
213	2HH2	955.163	260.992	-913.907	 H	13	ARG13	0.448	
214	   N	947.859	262.063	-919.278	N.am	14	VAL14	-0.416	
215	  CA	948.185	261.704	-920.656	C.3	14	VAL14	-0.087	
216	   C	947.854	262.834	-921.602	C.2	14	VAL14	0.597	
217	   O	948.648	263.216	-922.471	O.2	14	VAL14	-0.568	
218	  CB	947.413	260.387	-921.063	C.3	14	VAL14	0.299	
219	 CG1	947.503	259.969	-922.557	C.3	14	VAL14	-0.319	
220	 CG2	947.846	259.135	-920.263	C.3	14	VAL14	-0.319	
221	   H	947.225	261.494	-918.737	 H	14	VAL14	0.272	
222	  HA	949.273	261.528	-920.730	 H	14	VAL14	0.097	
223	  HB	946.337	260.557	-920.847	 H	14	VAL14	-0.030	
224	1HG1	948.545	259.792	-922.885	 H	14	VAL14	0.079	
225	2HG1	946.931	259.045	-922.770	 H	14	VAL14	0.079	
226	3HG1	947.074	260.731	-923.235	 H	14	VAL14	0.079	
227	1HG2	947.758	259.293	-919.172	 H	14	VAL14	0.079	
228	2HG2	947.211	258.258	-920.495	 H	14	VAL14	0.079	
229	3HG2	948.894	258.845	-920.468	 H	14	VAL14	0.079	
230	   N	946.709	263.419	-921.500	N.am	15	MET15	-0.416	
231	  CA	946.388	264.512	-922.414	C.3	15	MET15	-0.024	
232	   C	947.418	265.612	-922.326	C.2	15	MET15	0.597	
233	   O	947.920	266.124	-923.338	O.2	15	MET15	-0.568	
234	  CB	944.966	265.057	-922.105	C.3	15	MET15	0.034	
235	  CG	943.805	264.058	-922.297	C.3	15	MET15	0.002	
236	  SD	942.231	264.923	-922.183	S.3	15	MET15	-0.274	
237	  CE	941.150	263.493	-922.047	C.3	15	MET15	-0.054	
238	   H	946.044	263.126	-920.799	 H	15	MET15	0.272	
239	  HA	946.414	264.125	-923.449	 H	15	MET15	0.088	
240	 2HB	944.764	265.935	-922.747	 H	15	MET15	0.024	
241	 3HB	944.931	265.449	-921.069	 H	15	MET15	0.024	
242	 2HG	943.848	263.272	-921.519	 H	15	MET15	0.044	
243	 3HG	943.869	263.543	-923.273	 H	15	MET15	0.044	
244	 1HE	941.295	262.804	-922.899	 H	15	MET15	0.068	
245	 2HE	941.360	262.940	-921.114	 H	15	MET15	0.068	
246	 3HE	940.092	263.807	-922.030	 H	15	MET15	0.068	
247	   N	947.786	266.034	-921.163	N.am	16	ARG16	-0.348	
248	  CA	948.782	267.098	-921.079	C.3	16	ARG16	-0.264	
249	   C	950.053	266.706	-921.795	C.2	16	ARG16	0.734	
250	   O	950.168	265.630	-922.377	O.2	16	ARG16	-0.589	
251	  CB	949.050	267.416	-919.581	C.3	16	ARG16	-0.001	
252	  CG	949.875	268.705	-919.307	C.3	16	ARG16	0.039	
253	  CD	950.124	268.925	-917.806	C.3	16	ARG16	0.049	
254	  NE	950.899	270.184	-917.605	N.pl3	16	ARG16	-0.530	
255	  CZ	951.290	270.667	-916.429	C.cat	16	ARG16	0.808	
256	 NH1	951.042	270.082	-915.291	N.pl3	16	ARG16	-0.863	
257	 NH2	951.953	271.780	-916.410	N.pl3	16	ARG16	-0.863	
258	   H	947.391	265.633	-920.324	 H	16	ARG16	0.275	
259	  HA	948.372	267.991	-921.589	 H	16	ARG16	0.156	
260	 2HB	949.548	266.540	-919.114	 H	16	ARG16	0.033	
261	 3HB	948.081	267.496	-919.047	 H	16	ARG16	0.033	
262	 2HG	949.344	269.576	-919.745	 H	16	ARG16	0.029	
263	 3HG	950.848	268.653	-919.836	 H	16	ARG16	0.029	
264	 2HD	950.673	268.050	-917.393	 H	16	ARG16	0.069	
265	 3HD	949.151	268.967	-917.271	 H	16	ARG16	0.069	
266	  HE	951.178	270.765	-918.402	 H	16	ARG16	0.346	
267	1HH1	950.517	269.208	-915.375	 H	16	ARG16	0.448	
268	2HH1	951.376	270.517	-914.430	 H	16	ARG16	0.448	
269	1HH2	952.139	272.223	-917.312	 H	16	ARG16	0.448	
270	2HH2	952.243	272.135	-915.498	 H	16	ARG16	0.448	
@<TRIPOS>BOND
1 1 2 1
2 1 10 1
3 2 3 1
4 2 5 1
5 2 11 1
6 3 4 2
7 3 16 1
8 5 6 1
9 6 7 1
10 7 8 2
11 7 9 1
12 5 12 1
13 5 13 1
14 6 14 1
15 6 15 1
16 16 17 1
17 16 24 1
18 17 18 1
19 17 20 1
20 17 25 1
21 18 19 2
22 18 30 1
23 20 21 1
24 21 22 1
25 21 23 2
26 20 26 1
27 20 27 1
28 22 28 1
29 22 29 1
30 30 31 1
31 30 36 1
32 31 32 1
33 31 34 1
34 31 37 1
35 32 33 2
36 32 44 1
37 34 35 1
38 35 36 1
39 34 38 1
40 34 39 1
41 35 40 1
42 35 41 1
43 36 42 1
44 36 43 1
45 44 45 1
46 44 53 1
47 45 46 1
48 45 48 1
49 45 54 1
50 46 47 2
51 46 59 1
52 48 49 1
53 49 50 1
54 50 51 2
55 50 52 1
56 48 55 1
57 48 56 1
58 49 57 1
59 49 58 1
60 59 60 1
61 59 65 1
62 60 61 1
63 60 63 1
64 60 66 1
65 61 62 2
66 61 70 1
67 63 64 1
68 63 67 1
69 63 68 1
70 64 69 1
71 70 71 1
72 70 84 1
73 71 72 1
74 71 74 1
75 71 85 1
76 72 73 2
77 72 94 1
78 74 75 1
79 75 77 1
80 75 76 2
81 77 79 1
82 77 78 2
83 78 80 1
84 79 82 2
85 76 80 1
86 78 81 1
87 82 83 1
88 81 83 2
89 74 86 1
90 74 87 1
91 76 88 1
92 80 89 1
93 79 90 1
94 81 91 1
95 82 92 1
96 83 93 1
97 94 95 1
98 94 102 1
99 95 96 1
100 95 98 1
101 95 103 1
102 96 97 2
103 96 113 1
104 98 99 1
105 99 100 1
106 99 101 1
107 98 104 1
108 98 105 1
109 99 106 1
110 100 107 1
111 100 108 1
112 100 109 1
113 101 110 1
114 101 111 1
115 101 112 1
116 113 114 1
117 113 121 1
118 114 115 1
119 114 117 1
120 114 122 1
121 115 116 2
122 115 125 1
123 117 118 1
124 118 119 2
125 118 120 1
126 117 123 1
127 117 124 1
128 125 126 1
129 125 134 1
130 126 127 1
131 126 129 1
132 126 135 1
133 127 128 2
134 127 140 1
135 129 130 1
136 130 131 1
137 131 132 2
138 131 133 1
139 129 136 1
140 129 137 1
141 130 138 1
142 130 139 1
143 140 141 1
144 140 150 1
145 141 142 1
146 141 144 1
147 141 151 1
148 142 143 2
149 142 157 1
150 144 145 1
151 145 146 2
152 146 149 1
153 145 147 1
154 147 148 2
155 148 149 1
156 144 152 1
157 144 153 1
158 146 154 1
159 148 155 1
160 149 156 1
161 157 158 1
162 157 164 1
163 158 159 1
164 158 161 1
165 158 165 1
166 159 160 2
167 159 173 1
168 161 162 1
169 161 163 1
170 161 166 1
171 162 167 1
172 162 168 1
173 162 169 1
174 163 170 1
175 163 171 1
176 163 172 1
177 173 174 1
178 173 182 1
179 174 175 1
180 174 177 1
181 174 183 1
182 175 176 2
183 175 190 1
184 177 178 1
185 178 179 1
186 179 180 1
187 179 181 2
188 177 184 1
189 177 185 1
190 178 186 1
191 178 187 1
192 180 188 1
193 180 189 1
194 190 191 1
195 190 201 1
196 191 192 1
197 191 194 1
198 191 202 1
199 192 193 2
200 192 214 1
201 194 195 1
202 195 196 1
203 196 197 1
204 197 198 1
205 198 199 2
206 198 200 1
207 194 203 1
208 194 204 1
209 195 205 1
210 195 206 1
211 196 207 1
212 196 208 1
213 197 209 1
214 199 210 1
215 199 211 1
216 200 212 1
217 200 213 1
218 214 215 1
219 214 221 1
220 215 216 1
221 215 218 1
222 215 222 1
223 216 217 2
224 216 230 1
225 218 219 1
226 218 220 1
227 218 223 1
228 219 224 1
229 219 225 1
230 219 226 1
231 220 227 1
232 220 228 1
233 220 229 1
234 230 231 1
235 230 238 1
236 231 232 1
237 231 234 1
238 231 239 1
239 232 233 2
240 232 247 1
241 234 235 1
242 235 236 1
243 236 237 1
244 234 240 1
245 234 241 1
246 235 242 1
247 235 243 1
248 237 244 1
249 237 245 1
250 237 246 1
251 247 248 1
252 247 258 1
253 248 249 1
254 248 251 1
255 248 259 1
256 249 250 2
257 251 252 1
258 252 253 1
259 253 254 1
260 254 255 1
261 255 256 2
262 255 257 1
263 251 260 1
264 251 261 1
265 252 262 1
266 252 263 1
267 253 264 1
268 253 265 1
269 254 266 1
270 256 267 1
271 256 268 1
272 257 269 1
273 257 270 1
@<TRIPOS>SUBSTRUCTURE
1	GLU1	1	RESIDUE	1 ****	GLU
2	ASN2	16	RESIDUE	1 ****	ASN
3	PRO3	30	RESIDUE	1 ****	PRO
4	GLU4	44	RESIDUE	1 ****	GLU
5	SER5	59	RESIDUE	1 ****	SER
6	TRP6	70	RESIDUE	1 ****	TRP
7	LEU7	94	RESIDUE	1 ****	LEU
8	ASP8	113	RESIDUE	1 ****	ASP
9	GLU9	125	RESIDUE	1 ****	GLU
10	HIS10	140	RESIDUE	1 ****	HIS
11	VAL11	157	RESIDUE	1 ****	VAL
12	GLN12	173	RESIDUE	1 ****	GLN
13	ARG13	190	RESIDUE	1 ****	ARG
14	VAL14	214	RESIDUE	1 ****	VAL
15	MET15	230	RESIDUE	1 ****	MET
16	ARG16	247	RESIDUE	1 ****	ARG
