@<TRIPOS>MOLECULE
2-12
262 263 16              
SMALL
USER_CHARGES
@<TRIPOS>ATOM
1	   N	264.350	52.486	-239.683	N.3	1	GLU1	-0.516	
2	  CA	264.909	53.835	-239.683	C.3	1	GLU1	0.040	
3	   C	266.418	53.795	-239.683	C.2	1	GLU1	0.537	
4	   O	267.094	54.494	-240.452	O.2	1	GLU1	-0.582	
5	  CB	264.386	54.620	-238.446	C.3	1	GLU1	0.056	
6	  CG	264.861	56.105	-238.335	C.3	1	GLU1	0.014	
7	  CD	264.437	56.909	-237.120	C.2	1	GLU1	0.805	
8	 OE1	263.709	56.407	-236.242	O.co2	1	GLU1	-0.819	
9	 OE2	264.867	58.079	-237.048	O.co2	1	GLU1	-0.819	
10	   H	264.977	51.607	-239.683	 H	1	GLU1	0.294	
11	  HA	264.583	54.353	-240.603	 H	1	GLU1	0.111	
12	 2HB	264.675	54.089	-237.516	 H	1	GLU1	-0.017	
13	 3HB	263.279	54.610	-238.433	 H	1	GLU1	-0.017	
14	 2HG	264.551	56.690	-239.216	 H	1	GLU1	-0.043	
15	 3HG	265.961	56.172	-238.306	 H	1	GLU1	-0.043	
16	   N	267.023	53.009	-238.858	N.am	2	CYS2	-0.416	
17	  CA	268.482	52.970	-238.858	C.3	2	CYS2	0.021	
18	   C	269.015	52.615	-240.226	C.2	2	CYS2	0.597	
19	   O	269.937	53.249	-240.757	O.2	2	CYS2	-0.568	
20	  CB	268.945	51.981	-237.770	C.3	2	CYS2	-0.123	
21	  SG	270.744	52.020	-237.594	S.3	2	CYS2	-0.312	
22	   H	266.494	52.430	-238.222	 H	2	CYS2	0.272	
23	  HA	268.856	53.981	-238.612	 H	2	CYS2	0.112	
24	 2HB	268.622	50.945	-237.999	 H	2	CYS2	0.111	
25	 3HB	268.503	52.230	-236.789	 H	2	CYS2	0.111	
26	  HG	270.989	50.865	-238.207	 H	2	CYS2	0.193	
27	   N	268.493	51.620	-240.860	N.am	3	PRO3	-0.255	
28	  CA	268.946	51.210	-242.181	C.3	3	PRO3	-0.027	
29	   C	268.549	52.234	-243.259	C.2	3	PRO3	0.590	
30	   O	269.373	52.617	-244.089	O.2	3	PRO3	-0.575	
31	  CB	268.242	49.856	-242.351	C.3	3	PRO3	-0.007	
32	  CG	266.958	50.008	-241.522	C.3	3	PRO3	0.019	
33	  CD	267.415	50.827	-240.312	C.3	3	PRO3	0.019	
34	  HA	270.032	51.090	-242.194	 H	3	PRO3	0.064	
35	 2HB	268.864	49.074	-241.910	 H	3	PRO3	0.025	
36	 3HB	268.045	49.607	-243.397	 H	3	PRO3	0.025	
37	 2HG	266.530	49.046	-241.231	 H	3	PRO3	0.021	
38	 3HG	266.221	50.579	-242.090	 H	3	PRO3	0.021	
39	 2HD	267.803	50.177	-239.524	 H	3	PRO3	0.039	
40	 3HD	266.618	51.463	-239.920	 H	3	PRO3	0.039	
41	   N	267.345	52.694	-243.292	N.am	4	GLU4	-0.516	
42	  CA	266.986	53.665	-244.322	C.3	4	GLU4	0.040	
43	   C	267.885	54.876	-244.260	C.2	4	GLU4	0.537	
44	   O	268.412	55.355	-245.274	O.2	4	GLU4	-0.582	
45	  CB	265.497	54.084	-244.153	C.3	4	GLU4	0.056	
46	  CG	264.950	55.087	-245.219	C.3	4	GLU4	0.014	
47	  CD	263.524	55.584	-245.077	C.2	4	GLU4	0.805	
48	 OE1	262.797	55.186	-244.146	O.co2	4	GLU4	-0.819	
49	 OE2	263.135	56.414	-245.925	O.co2	4	GLU4	-0.819	
50	   H	266.660	52.387	-242.616	 H	4	GLU4	0.294	
51	  HA	267.118	53.194	-245.313	 H	4	GLU4	0.111	
52	 2HB	265.344	54.524	-243.146	 H	4	GLU4	-0.017	
53	 3HB	264.849	53.186	-244.160	 H	4	GLU4	-0.017	
54	 2HG	265.033	54.673	-246.237	 H	4	GLU4	-0.043	
55	 3HG	265.538	56.020	-245.230	 H	4	GLU4	-0.043	
56	   N	268.112	55.429	-243.117	N.am	5	SER5	-0.416	
57	  CA	268.981	56.600	-243.057	C.3	5	SER5	-0.025	
58	   C	270.340	56.294	-243.642	C.2	5	SER5	0.597	
59	   O	270.888	57.048	-244.446	O.2	5	SER5	-0.568	
60	  CB	269.091	57.132	-241.607	C.3	5	SER5	0.212	
61	  OG	269.822	56.253	-240.745	O.3	5	SER5	-0.655	
62	   H	267.694	55.057	-242.275	 H	5	SER5	0.272	
63	  HA	268.532	57.390	-243.687	 H	5	SER5	0.084	
64	 2HB	268.091	57.326	-241.174	 H	5	SER5	0.035	
65	 3HB	269.597	58.118	-241.609	 H	5	SER5	0.035	
66	  HG	269.333	55.428	-240.695	 H	5	SER5	0.428	
67	   N	270.945	55.211	-243.287	N.am	6	ILE6	-0.416	
68	  CA	272.258	54.916	-243.852	C.3	6	ILE6	-0.060	
69	   C	272.203	54.878	-245.360	C.2	6	ILE6	0.597	
70	   O	273.038	55.466	-246.063	O.2	6	ILE6	-0.568	
71	  CB	272.858	53.580	-243.252	C.3	6	ILE6	0.130	
72	 CG1	272.876	53.518	-241.691	C.3	6	ILE6	-0.043	
73	 CG2	274.299	53.278	-243.766	C.3	6	ILE6	-0.320	
74	 CD1	273.145	52.129	-241.075	C.3	6	ILE6	-0.066	
75	   H	270.516	54.577	-242.628	 H	6	ILE6	0.272	
76	  HA	272.932	55.750	-243.584	 H	6	ILE6	0.087	
77	  HB	272.200	52.754	-243.596	 H	6	ILE6	0.019	
78	2HG1	271.893	53.838	-241.296	 H	6	ILE6	0.024	
79	3HG1	273.591	54.260	-241.285	 H	6	ILE6	0.024	
80	1HG2	274.359	53.184	-244.864	 H	6	ILE6	0.088	
81	2HG2	275.021	54.060	-243.463	 H	6	ILE6	0.088	
82	3HG2	274.689	52.316	-243.387	 H	6	ILE6	0.088	
83	1HD1	272.417	51.374	-241.431	 H	6	ILE6	0.019	
84	2HD1	274.156	51.750	-241.310	 H	6	ILE6	0.019	
85	3HD1	273.068	52.158	-239.973	 H	6	ILE6	0.019	
86	   N	271.257	54.215	-245.935	N.am	7	LEU7	-0.416	
87	  CA	271.204	54.179	-247.393	C.3	7	LEU7	-0.052	
88	   C	271.132	55.574	-247.966	C.2	7	LEU7	0.597	
89	   O	271.853	55.937	-248.907	O.2	7	LEU7	-0.568	
90	  CB	270.001	53.319	-247.875	C.3	7	LEU7	-0.110	
91	  CG	269.928	51.839	-247.408	C.3	7	LEU7	0.353	
92	 CD1	268.738	51.133	-248.075	C.3	7	LEU7	-0.412	
93	 CD2	271.221	51.060	-247.698	C.3	7	LEU7	-0.412	
94	   H	270.565	53.728	-245.384	 H	7	LEU7	0.272	
95	  HA	272.146	53.739	-247.767	 H	7	LEU7	0.092	
96	 2HB	269.979	53.335	-248.982	 H	7	LEU7	0.046	
97	 3HB	269.061	53.821	-247.571	 H	7	LEU7	0.046	
98	  HG	269.757	51.831	-246.311	 H	7	LEU7	-0.036	
99	1HD1	267.781	51.643	-247.853	 H	7	LEU7	0.100	
100	2HD1	268.839	51.093	-249.176	 H	7	LEU7	0.100	
101	3HD1	268.631	50.092	-247.719	 H	7	LEU7	0.100	
102	1HD2	271.498	51.090	-248.768	 H	7	LEU7	0.100	
103	2HD2	272.074	51.472	-247.127	 H	7	LEU7	0.100	
104	3HD2	271.140	49.998	-247.403	 H	7	LEU7	0.100	
105	   N	270.294	56.415	-247.460	N.am	8	ASP8	-0.516	
106	  CA	270.224	57.764	-248.013	C.3	8	ASP8	0.038	
107	   C	271.571	58.444	-247.955	C.2	8	ASP8	0.537	
108	   O	272.044	59.049	-248.929	O.2	8	ASP8	-0.582	
109	  CB	269.145	58.603	-247.273	C.3	8	ASP8	-0.030	
110	  CG	268.927	60.024	-247.813	C.2	8	ASP8	0.799	
111	 OD1	268.992	60.223	-249.044	O.co2	8	ASP8	-0.801	
112	 OD2	268.734	60.950	-246.998	O.co2	8	ASP8	-0.801	
113	   H	269.695	56.144	-246.693	 H	8	ASP8	0.294	
114	  HA	269.942	57.686	-249.081	 H	8	ASP8	0.088	
115	 2HB	269.402	58.687	-246.201	 H	8	ASP8	-0.012	
116	 3HB	268.166	58.098	-247.306	 H	8	ASP8	-0.012	
117	   N	272.250	58.394	-246.859	N.am	9	GLU9	-0.516	
118	  CA	273.552	59.052	-246.803	C.3	9	GLU9	0.040	
119	   C	274.471	58.524	-247.877	C.2	9	GLU9	0.537	
120	   O	275.136	59.279	-248.602	O.2	9	GLU9	-0.582	
121	  CB	274.184	58.844	-245.396	C.3	9	GLU9	0.056	
122	  CG	275.567	59.536	-245.166	C.3	9	GLU9	0.014	
123	  CD	276.267	59.323	-243.837	C.2	9	GLU9	0.805	
124	 OE1	275.745	58.632	-242.941	O.co2	9	GLU9	-0.819	
125	 OE2	277.386	59.861	-243.704	O.co2	9	GLU9	-0.819	
126	   H	271.885	57.908	-246.052	 H	9	GLU9	0.294	
127	  HA	273.410	60.134	-246.978	 H	9	GLU9	0.111	
128	 2HB	274.297	57.760	-245.193	 H	9	GLU9	-0.017	
129	 3HB	273.487	59.197	-244.613	 H	9	GLU9	-0.017	
130	 2HG	275.495	60.627	-245.306	 H	9	GLU9	-0.043	
131	 3HG	276.314	59.191	-245.899	 H	9	GLU9	-0.043	
132	   N	274.568	57.249	-248.047	N.am	10	HIS10	-0.416	
133	  CA	275.457	56.738	-249.087	C.3	10	HIS10	-0.058	
134	   C	275.091	57.302	-250.438	C.2	10	HIS10	0.597	
135	   O	275.944	57.767	-251.209	O.2	10	HIS10	-0.568	
136	  CB	275.293	55.209	-249.082	C.3	10	HIS10	-0.007	
137	  CG	276.578	54.499	-248.773	C.2	10	HIS10	0.187	
138	 CD2	276.958	54.163	-247.480	C.2	10	HIS10	-0.221	
139	 ND1	277.531	54.093	-249.704	N.2	10	HIS10	-0.543	
140	 CE1	278.437	53.535	-248.880	C.2	10	HIS10	0.163	
141	 NE2	278.173	53.532	-247.545	N.pl3	10	HIS10	-0.280	
142	   H	274.037	56.614	-247.469	 H	10	HIS10	0.272	
143	  HA	276.476	57.095	-248.860	 H	10	HIS10	0.136	
144	 2HB	274.929	54.842	-250.062	 H	10	HIS10	0.037	
145	 3HB	274.537	54.872	-248.343	 H	10	HIS10	0.037	
146	 2HD	276.371	54.378	-246.591	 H	10	HIS10	0.186	
147	 1HE	279.328	53.114	-249.326	 H	10	HIS10	0.144	
148	 2HE	278.739	53.154	-246.771	 H	10	HIS10	0.334	
149	   N	273.854	57.301	-250.802	N.am	11	VAL11	-0.416	
150	  CA	273.500	57.847	-252.109	C.3	11	VAL11	-0.087	
151	   C	273.964	59.278	-252.241	C.2	11	VAL11	0.597	
152	   O	274.566	59.683	-253.244	O.2	11	VAL11	-0.568	
153	  CB	271.939	57.741	-252.330	C.3	11	VAL11	0.299	
154	 CG1	271.371	58.445	-253.593	C.3	11	VAL11	-0.319	
155	 CG2	271.414	56.287	-252.404	C.3	11	VAL11	-0.319	
156	   H	273.140	56.928	-250.192	 H	11	VAL11	0.272	
157	  HA	274.020	57.265	-252.891	 H	11	VAL11	0.097	
158	  HB	271.450	58.221	-251.455	 H	11	VAL11	-0.030	
159	1HG1	271.811	58.053	-254.530	 H	11	VAL11	0.079	
160	2HG1	270.273	58.337	-253.676	 H	11	VAL11	0.079	
161	3HG1	271.549	59.537	-253.584	 H	11	VAL11	0.079	
162	1HG2	271.703	55.699	-251.513	 H	11	VAL11	0.079	
163	2HG2	270.309	56.250	-252.448	 H	11	VAL11	0.079	
164	3HG2	271.797	55.746	-253.290	 H	11	VAL11	0.079	
165	   N	273.726	60.104	-251.279	N.am	12	GLN12	-0.416	
166	  CA	274.175	61.487	-251.406	C.3	12	GLN12	-0.003	
167	   C	275.665	61.554	-251.642	C.2	12	GLN12	0.597	
168	   O	276.153	62.263	-252.520	O.2	12	GLN12	-0.568	
169	  CB	273.783	62.254	-250.123	C.3	12	GLN12	-0.004	
170	  CG	274.143	63.776	-250.092	C.3	12	GLN12	-0.064	
171	  CD	273.839	64.589	-248.827	C.2	12	GLN12	0.695	
172	 NE2	273.271	64.013	-247.799	N.pl3	12	GLN12	-0.941	
173	 OE1	274.141	65.770	-248.749	O.2	12	GLN12	-0.609	
174	   H	273.237	59.798	-250.450	 H	12	GLN12	0.272	
175	  HA	273.676	61.943	-252.281	 H	12	GLN12	0.085	
176	 2HB	274.258	61.754	-249.253	 H	12	GLN12	0.017	
177	 3HB	272.692	62.147	-249.961	 H	12	GLN12	0.017	
178	 2HG	273.666	64.297	-250.943	 H	12	GLN12	0.035	
179	 3HG	275.226	63.918	-250.256	 H	12	GLN12	0.035	
180	1HE2	273.163	64.607	-246.975	 H	12	GLN12	0.425	
181	2HE2	273.108	63.009	-247.902	 H	12	GLN12	0.425	
182	   N	276.449	60.847	-250.900	N.am	13	ARG13	-0.348	
183	  CA	277.889	60.913	-251.130	C.3	13	ARG13	-0.264	
184	   C	278.227	60.542	-252.554	C.2	13	ARG13	0.734	
185	   O	278.996	61.214	-253.238	O.2	13	ARG13	-0.589	
186	  CB	278.602	59.974	-250.115	C.3	13	ARG13	-0.001	
187	  CG	280.147	60.128	-250.033	C.3	13	ARG13	0.039	
188	  CD	280.773	59.140	-249.034	C.3	13	ARG13	0.049	
189	  NE	282.250	59.347	-248.982	N.pl3	13	ARG13	-0.530	
190	  CZ	283.097	58.655	-248.227	C.cat	13	ARG13	0.808	
191	 NH1	282.731	57.691	-247.430	N.pl3	13	ARG13	-0.863	
192	 NH2	284.357	58.955	-248.282	N.pl3	13	ARG13	-0.863	
193	   H	276.072	60.257	-250.172	 H	13	ARG13	0.275	
194	  HA	278.214	61.959	-250.971	 H	13	ARG13	0.156	
195	 2HB	278.336	58.924	-250.355	 H	13	ARG13	0.033	
196	 3HB	278.176	60.141	-249.105	 H	13	ARG13	0.033	
197	 2HG	280.394	61.172	-249.753	 H	13	ARG13	0.029	
198	 3HG	280.598	59.972	-251.034	 H	13	ARG13	0.029	
199	 2HD	280.529	58.100	-249.344	 H	13	ARG13	0.069	
200	 3HD	280.315	59.285	-248.032	 H	13	ARG13	0.069	
201	  HE	282.702	60.069	-249.553	 H	13	ARG13	0.346	
202	1HH1	281.726	57.505	-247.434	 H	13	ARG13	0.448	
203	2HH1	283.444	57.208	-246.880	 H	13	ARG13	0.448	
204	1HH2	284.625	59.712	-248.913	 H	13	ARG13	0.448	
205	2HH2	284.991	58.413	-247.693	 H	13	ARG13	0.448	
206	   N	277.691	59.487	-253.069	N.am	14	VAL14	-0.416	
207	  CA	278.018	59.128	-254.447	C.3	14	VAL14	-0.087	
208	   C	277.688	60.258	-255.393	C.2	14	VAL14	0.597	
209	   O	278.483	60.640	-256.261	O.2	14	VAL14	-0.568	
210	  CB	277.246	57.811	-254.854	C.3	14	VAL14	0.299	
211	 CG1	277.336	57.393	-256.348	C.3	14	VAL14	-0.319	
212	 CG2	277.677	56.559	-254.054	C.3	14	VAL14	-0.319	
213	   H	277.056	58.919	-252.528	 H	14	VAL14	0.272	
214	  HA	279.106	58.952	-254.520	 H	14	VAL14	0.097	
215	  HB	276.169	57.982	-254.639	 H	14	VAL14	-0.030	
216	1HG1	278.378	57.216	-256.676	 H	14	VAL14	0.079	
217	2HG1	276.764	56.470	-256.561	 H	14	VAL14	0.079	
218	3HG1	276.908	58.155	-257.026	 H	14	VAL14	0.079	
219	1HG2	277.589	56.717	-252.963	 H	14	VAL14	0.079	
220	2HG2	277.041	55.683	-254.287	 H	14	VAL14	0.079	
221	3HG2	278.725	56.269	-254.258	 H	14	VAL14	0.079	
222	   N	276.543	60.844	-255.292	N.am	15	MET15	-0.416	
223	  CA	276.224	61.937	-256.206	C.3	15	MET15	-0.024	
224	   C	277.254	63.037	-256.117	C.2	15	MET15	0.597	
225	   O	277.758	63.548	-257.129	O.2	15	MET15	-0.568	
226	  CB	274.802	62.483	-255.898	C.3	15	MET15	0.034	
227	  CG	273.640	61.484	-256.091	C.3	15	MET15	0.002	
228	  SD	272.066	62.350	-255.978	S.3	15	MET15	-0.274	
229	  CE	270.985	60.921	-255.843	C.3	15	MET15	-0.054	
230	   H	275.878	60.551	-254.591	 H	15	MET15	0.272	
231	  HA	276.251	61.550	-257.241	 H	15	MET15	0.088	
232	 2HB	274.600	63.361	-256.540	 H	15	MET15	0.024	
233	 3HB	274.766	62.875	-254.862	 H	15	MET15	0.024	
234	 2HG	273.683	60.699	-255.313	 H	15	MET15	0.044	
235	 3HG	273.704	60.969	-257.067	 H	15	MET15	0.044	
236	 1HE	271.129	60.232	-256.695	 H	15	MET15	0.068	
237	 2HE	271.193	60.368	-254.910	 H	15	MET15	0.068	
238	 3HE	269.927	61.236	-255.827	 H	15	MET15	0.068	
239	   N	277.621	63.458	-254.954	N.am	16	ARG16	-0.348	
240	  CA	278.618	64.522	-254.870	C.3	16	ARG16	-0.264	
241	   C	279.889	64.129	-255.585	C.2	16	ARG16	0.734	
242	   O	280.004	63.053	-256.166	O.2	16	ARG16	-0.589	
243	  CB	278.885	64.840	-253.371	C.3	16	ARG16	-0.001	
244	  CG	279.710	66.129	-253.097	C.3	16	ARG16	0.039	
245	  CD	279.959	66.348	-251.596	C.3	16	ARG16	0.049	
246	  NE	280.734	67.607	-251.394	N.pl3	16	ARG16	-0.530	
247	  CZ	281.125	68.089	-250.218	C.cat	16	ARG16	0.808	
248	 NH1	280.876	67.505	-249.080	N.pl3	16	ARG16	-0.863	
249	 NH2	281.789	69.202	-250.199	N.pl3	16	ARG16	-0.863	
250	   H	277.226	63.058	-254.115	 H	16	ARG16	0.275	
251	  HA	278.209	65.415	-255.380	 H	16	ARG16	0.156	
252	 2HB	279.382	63.964	-252.904	 H	16	ARG16	0.033	
253	 3HB	277.916	64.920	-252.838	 H	16	ARG16	0.033	
254	 2HG	279.180	66.999	-253.535	 H	16	ARG16	0.029	
255	 3HG	280.684	66.076	-253.625	 H	16	ARG16	0.029	
256	 2HD	280.507	65.473	-251.182	 H	16	ARG16	0.069	
257	 3HD	278.985	66.390	-251.061	 H	16	ARG16	0.069	
258	  HE	281.014	68.188	-252.191	 H	16	ARG16	0.346	
259	1HH1	280.350	66.632	-249.165	 H	16	ARG16	0.448	
260	2HH1	281.210	67.940	-248.218	 H	16	ARG16	0.448	
261	1HH2	281.975	69.645	-251.100	 H	16	ARG16	0.448	
262	2HH2	282.078	69.557	-249.286	 H	16	ARG16	0.448	
@<TRIPOS>BOND
1 1 2 1
2 1 10 1
3 2 3 1
4 2 5 1
5 2 11 1
6 3 4 2
7 3 16 1
8 5 6 1
9 6 7 1
10 7 8 2
11 7 9 1
12 5 12 1
13 5 13 1
14 6 14 1
15 6 15 1
16 16 17 1
17 16 22 1
18 17 18 1
19 17 20 1
20 17 23 1
21 18 19 2
22 18 27 1
23 20 21 1
24 20 24 1
25 20 25 1
26 21 26 1
27 27 28 1
28 27 33 1
29 28 29 1
30 28 31 1
31 28 34 1
32 29 30 2
33 29 41 1
34 31 32 1
35 32 33 1
36 31 35 1
37 31 36 1
38 32 37 1
39 32 38 1
40 33 39 1
41 33 40 1
42 41 42 1
43 41 50 1
44 42 43 1
45 42 45 1
46 42 51 1
47 43 44 2
48 43 56 1
49 45 46 1
50 46 47 1
51 47 48 2
52 47 49 1
53 45 52 1
54 45 53 1
55 46 54 1
56 46 55 1
57 56 57 1
58 56 62 1
59 57 58 1
60 57 60 1
61 57 63 1
62 58 59 2
63 58 67 1
64 60 61 1
65 60 64 1
66 60 65 1
67 61 66 1
68 67 68 1
69 67 75 1
70 68 69 1
71 68 71 1
72 68 76 1
73 69 70 2
74 69 86 1
75 71 72 1
76 71 73 1
77 72 74 1
78 71 77 1
79 72 78 1
80 72 79 1
81 73 80 1
82 73 81 1
83 73 82 1
84 74 83 1
85 74 84 1
86 74 85 1
87 86 87 1
88 86 94 1
89 87 88 1
90 87 90 1
91 87 95 1
92 88 89 2
93 88 105 1
94 90 91 1
95 91 92 1
96 91 93 1
97 90 96 1
98 90 97 1
99 91 98 1
100 92 99 1
101 92 100 1
102 92 101 1
103 93 102 1
104 93 103 1
105 93 104 1
106 105 106 1
107 105 113 1
108 106 107 1
109 106 109 1
110 106 114 1
111 107 108 2
112 107 117 1
113 109 110 1
114 110 111 2
115 110 112 1
116 109 115 1
117 109 116 1
118 117 118 1
119 117 126 1
120 118 119 1
121 118 121 1
122 118 127 1
123 119 120 2
124 119 132 1
125 121 122 1
126 122 123 1
127 123 124 2
128 123 125 1
129 121 128 1
130 121 129 1
131 122 130 1
132 122 131 1
133 132 133 1
134 132 142 1
135 133 134 1
136 133 136 1
137 133 143 1
138 134 135 2
139 134 149 1
140 136 137 1
141 137 138 2
142 138 141 1
143 137 139 1
144 139 140 2
145 140 141 1
146 136 144 1
147 136 145 1
148 138 146 1
149 140 147 1
150 141 148 1
151 149 150 1
152 149 156 1
153 150 151 1
154 150 153 1
155 150 157 1
156 151 152 2
157 151 165 1
158 153 154 1
159 153 155 1
160 153 158 1
161 154 159 1
162 154 160 1
163 154 161 1
164 155 162 1
165 155 163 1
166 155 164 1
167 165 166 1
168 165 174 1
169 166 167 1
170 166 169 1
171 166 175 1
172 167 168 2
173 167 182 1
174 169 170 1
175 170 171 1
176 171 172 1
177 171 173 2
178 169 176 1
179 169 177 1
180 170 178 1
181 170 179 1
182 172 180 1
183 172 181 1
184 182 183 1
185 182 193 1
186 183 184 1
187 183 186 1
188 183 194 1
189 184 185 2
190 184 206 1
191 186 187 1
192 187 188 1
193 188 189 1
194 189 190 1
195 190 191 2
196 190 192 1
197 186 195 1
198 186 196 1
199 187 197 1
200 187 198 1
201 188 199 1
202 188 200 1
203 189 201 1
204 191 202 1
205 191 203 1
206 192 204 1
207 192 205 1
208 206 207 1
209 206 213 1
210 207 208 1
211 207 210 1
212 207 214 1
213 208 209 2
214 208 222 1
215 210 211 1
216 210 212 1
217 210 215 1
218 211 216 1
219 211 217 1
220 211 218 1
221 212 219 1
222 212 220 1
223 212 221 1
224 222 223 1
225 222 230 1
226 223 224 1
227 223 226 1
228 223 231 1
229 224 225 2
230 224 239 1
231 226 227 1
232 227 228 1
233 228 229 1
234 226 232 1
235 226 233 1
236 227 234 1
237 227 235 1
238 229 236 1
239 229 237 1
240 229 238 1
241 239 240 1
242 239 250 1
243 240 241 1
244 240 243 1
245 240 251 1
246 241 242 2
247 243 244 1
248 244 245 1
249 245 246 1
250 246 247 1
251 247 248 2
252 247 249 1
253 243 252 1
254 243 253 1
255 244 254 1
256 244 255 1
257 245 256 1
258 245 257 1
259 246 258 1
260 248 259 1
261 248 260 1
262 249 261 1
263 249 262 1
@<TRIPOS>SUBSTRUCTURE
1	GLU1	1	RESIDUE	1 ****	GLU
2	CYS2	16	RESIDUE	1 ****	CYS
3	PRO3	27	RESIDUE	1 ****	PRO
4	GLU4	41	RESIDUE	1 ****	GLU
5	SER5	56	RESIDUE	1 ****	SER
6	ILE6	67	RESIDUE	1 ****	ILE
7	LEU7	86	RESIDUE	1 ****	LEU
8	ASP8	105	RESIDUE	1 ****	ASP
9	GLU9	117	RESIDUE	1 ****	GLU
10	HIS10	132	RESIDUE	1 ****	HIS
11	VAL11	149	RESIDUE	1 ****	VAL
12	GLN12	165	RESIDUE	1 ****	GLN
13	ARG13	182	RESIDUE	1 ****	ARG
14	VAL14	206	RESIDUE	1 ****	VAL
15	MET15	222	RESIDUE	1 ****	MET
16	ARG16	239	RESIDUE	1 ****	ARG
