@<TRIPOS>MOLECULE
16-13
252 253 16              
SMALL
USER_CHARGES
@<TRIPOS>ATOM
1	   N	2593.735	795.552	-2710.554	N.3	1	GLU1	-0.516	
2	  CA	2594.294	796.901	-2710.554	C.3	1	GLU1	0.040	
3	   C	2595.803	796.861	-2710.554	C.2	1	GLU1	0.537	
4	   O	2596.479	797.560	-2711.323	O.2	1	GLU1	-0.582	
5	  CB	2593.771	797.686	-2709.317	C.3	1	GLU1	0.056	
6	  CG	2594.246	799.171	-2709.206	C.3	1	GLU1	0.014	
7	  CD	2593.822	799.975	-2707.991	C.2	1	GLU1	0.805	
8	 OE1	2593.094	799.473	-2707.113	O.co2	1	GLU1	-0.819	
9	 OE2	2594.252	801.145	-2707.919	O.co2	1	GLU1	-0.819	
10	   H	2594.362	794.673	-2710.554	 H	1	GLU1	0.294	
11	  HA	2593.968	797.419	-2711.474	 H	1	GLU1	0.111	
12	 2HB	2594.060	797.155	-2708.387	 H	1	GLU1	-0.017	
13	 3HB	2592.664	797.676	-2709.304	 H	1	GLU1	-0.017	
14	 2HG	2593.936	799.756	-2710.087	 H	1	GLU1	-0.043	
15	 3HG	2595.346	799.238	-2709.177	 H	1	GLU1	-0.043	
16	   N	2596.407	796.075	-2709.729	N.am	2	ASN2	-0.416	
17	  CA	2597.866	796.036	-2709.729	C.3	2	ASN2	0.014	
18	   C	2598.398	795.681	-2711.097	C.2	2	ASN2	0.597	
19	   O	2599.313	796.311	-2711.625	O.2	2	ASN2	-0.568	
20	  CB	2598.358	795.013	-2708.664	C.3	2	ASN2	-0.204	
21	  CG	2597.895	795.237	-2707.221	C.2	2	ASN2	0.713	
22	 ND2	2598.489	796.152	-2706.502	N.pl3	2	ASN2	-0.919	
23	 OD1	2596.974	794.604	-2706.727	O.2	2	ASN2	-0.593	
24	   H	2595.879	795.496	-2709.092	 H	2	ASN2	0.272	
25	  HA	2598.244	797.046	-2709.483	 H	2	ASN2	0.105	
26	 2HB	2599.462	794.954	-2708.667	 H	2	ASN2	0.080	
27	 3HB	2598.029	793.995	-2708.950	 H	2	ASN2	0.080	
28	1HD2	2598.008	796.325	-2705.616	 H	2	ASN2	0.420	
29	2HD2	2599.191	796.724	-2706.971	 H	2	ASN2	0.420	
30	   N	2597.876	794.686	-2711.731	N.am	3	PRO3	-0.255	
31	  CA	2598.329	794.277	-2713.053	C.3	3	PRO3	-0.027	
32	   C	2597.931	795.300	-2714.130	C.2	3	PRO3	0.590	
33	   O	2598.754	795.683	-2714.961	O.2	3	PRO3	-0.575	
34	  CB	2597.624	792.922	-2713.222	C.3	3	PRO3	-0.007	
35	  CG	2596.341	793.074	-2712.393	C.3	3	PRO3	0.019	
36	  CD	2596.798	793.893	-2711.183	C.3	3	PRO3	0.019	
37	  HA	2599.415	794.156	-2713.066	 H	3	PRO3	0.064	
38	 2HB	2598.247	792.141	-2712.781	 H	3	PRO3	0.025	
39	 3HB	2597.426	792.674	-2714.268	 H	3	PRO3	0.025	
40	 2HG	2595.913	792.112	-2712.102	 H	3	PRO3	0.021	
41	 3HG	2595.604	793.646	-2712.960	 H	3	PRO3	0.021	
42	 2HD	2597.187	793.243	-2710.395	 H	3	PRO3	0.039	
43	 3HD	2596.001	794.529	-2710.790	 H	3	PRO3	0.039	
44	   N	2596.726	795.760	-2714.163	N.am	4	GLU4	-0.516	
45	  CA	2596.367	796.732	-2715.192	C.3	4	GLU4	0.040	
46	   C	2597.266	797.942	-2715.131	C.2	4	GLU4	0.537	
47	   O	2597.793	798.422	-2716.145	O.2	4	GLU4	-0.582	
48	  CB	2594.878	797.151	-2715.023	C.3	4	GLU4	0.056	
49	  CG	2594.331	798.154	-2716.088	C.3	4	GLU4	0.014	
50	  CD	2592.905	798.651	-2715.945	C.2	4	GLU4	0.805	
51	 OE1	2592.178	798.253	-2715.015	O.co2	4	GLU4	-0.819	
52	 OE2	2592.516	799.481	-2716.794	O.co2	4	GLU4	-0.819	
53	   H	2596.042	795.454	-2713.486	 H	4	GLU4	0.294	
54	  HA	2596.499	796.261	-2716.184	 H	4	GLU4	0.111	
55	 2HB	2594.726	797.590	-2714.016	 H	4	GLU4	-0.017	
56	 3HB	2594.230	796.253	-2715.029	 H	4	GLU4	-0.017	
57	 2HG	2594.413	797.740	-2717.106	 H	4	GLU4	-0.043	
58	 3HG	2594.919	799.086	-2716.099	 H	4	GLU4	-0.043	
59	   N	2597.493	798.495	-2713.988	N.am	5	SER5	-0.416	
60	  CA	2598.363	799.666	-2713.929	C.3	5	SER5	-0.025	
61	   C	2599.722	799.360	-2714.514	C.2	5	SER5	0.597	
62	   O	2600.270	800.113	-2715.319	O.2	5	SER5	-0.568	
63	  CB	2598.474	800.198	-2712.478	C.3	5	SER5	0.212	
64	  OG	2599.205	799.318	-2711.617	O.3	5	SER5	-0.655	
65	   H	2597.076	798.123	-2713.146	 H	5	SER5	0.272	
66	  HA	2597.914	800.456	-2714.558	 H	5	SER5	0.084	
67	 2HB	2597.474	800.392	-2712.045	 H	5	SER5	0.035	
68	 3HB	2598.980	801.184	-2712.480	 H	5	SER5	0.035	
69	  HG	2598.716	798.494	-2711.566	 H	5	SER5	0.428	
70	   N	2600.326	798.277	-2714.160	N.am	6	ILE6	-0.416	
71	  CA	2601.639	797.981	-2714.726	C.3	6	ILE6	-0.060	
72	   C	2601.582	797.944	-2716.233	C.2	6	ILE6	0.597	
73	   O	2602.417	798.531	-2716.937	O.2	6	ILE6	-0.568	
74	  CB	2602.239	796.645	-2714.125	C.3	6	ILE6	0.130	
75	 CG1	2602.257	796.582	-2712.564	C.3	6	ILE6	-0.043	
76	 CG2	2603.680	796.342	-2714.640	C.3	6	ILE6	-0.320	
77	 CD1	2602.527	795.193	-2711.949	C.3	6	ILE6	-0.066	
78	   H	2599.897	797.642	-2713.501	 H	6	ILE6	0.272	
79	  HA	2602.314	798.815	-2714.458	 H	6	ILE6	0.087	
80	  HB	2601.580	795.819	-2714.470	 H	6	ILE6	0.019	
81	2HG1	2601.275	796.903	-2712.169	 H	6	ILE6	0.024	
82	3HG1	2602.973	797.324	-2712.159	 H	6	ILE6	0.024	
83	1HG2	2603.739	796.249	-2715.739	 H	6	ILE6	0.088	
84	2HG2	2604.402	797.125	-2714.338	 H	6	ILE6	0.088	
85	3HG2	2604.069	795.380	-2714.261	 H	6	ILE6	0.088	
86	1HD1	2601.798	794.439	-2712.304	 H	6	ILE6	0.019	
87	2HD1	2603.537	794.814	-2712.185	 H	6	ILE6	0.019	
88	3HD1	2602.450	795.223	-2710.847	 H	6	ILE6	0.019	
89	   N	2600.636	797.280	-2716.807	N.am	7	LEU7	-0.416	
90	  CA	2600.581	797.244	-2718.265	C.3	7	LEU7	-0.052	
91	   C	2600.509	798.639	-2718.838	C.2	7	LEU7	0.597	
92	   O	2601.230	799.001	-2719.781	O.2	7	LEU7	-0.568	
93	  CB	2599.378	796.384	-2718.746	C.3	7	LEU7	-0.110	
94	  CG	2599.305	794.905	-2718.279	C.3	7	LEU7	0.353	
95	 CD1	2598.115	794.199	-2718.945	C.3	7	LEU7	-0.412	
96	 CD2	2600.598	794.125	-2718.571	C.3	7	LEU7	-0.412	
97	   H	2599.944	796.793	-2716.256	 H	7	LEU7	0.272	
98	  HA	2601.523	796.804	-2718.640	 H	7	LEU7	0.092	
99	 2HB	2599.355	796.400	-2719.854	 H	7	LEU7	0.046	
100	 3HB	2598.438	796.887	-2718.442	 H	7	LEU7	0.046	
101	  HG	2599.135	794.897	-2717.182	 H	7	LEU7	-0.036	
102	1HD1	2597.157	794.709	-2718.722	 H	7	LEU7	0.100	
103	2HD1	2598.214	794.159	-2720.046	 H	7	LEU7	0.100	
104	3HD1	2598.007	793.158	-2718.589	 H	7	LEU7	0.100	
105	1HD2	2600.873	794.156	-2719.641	 H	7	LEU7	0.100	
106	2HD2	2601.451	794.537	-2717.999	 H	7	LEU7	0.100	
107	3HD2	2600.516	793.063	-2718.275	 H	7	LEU7	0.100	
108	   N	2599.672	799.481	-2718.333	N.am	8	ASP8	-0.516	
109	  CA	2599.603	800.830	-2718.886	C.3	8	ASP8	0.038	
110	   C	2600.950	801.509	-2718.830	C.2	8	ASP8	0.537	
111	   O	2601.423	802.113	-2719.805	O.2	8	ASP8	-0.582	
112	  CB	2598.525	801.670	-2718.146	C.3	8	ASP8	-0.030	
113	  CG	2598.307	803.090	-2718.687	C.2	8	ASP8	0.799	
114	 OD1	2598.371	803.289	-2719.918	O.co2	8	ASP8	-0.801	
115	 OD2	2598.115	804.017	-2717.872	O.co2	8	ASP8	-0.801	
116	   H	2599.074	799.210	-2717.565	 H	8	ASP8	0.294	
117	  HA	2599.320	800.752	-2719.954	 H	8	ASP8	0.088	
118	 2HB	2598.782	801.754	-2717.074	 H	8	ASP8	-0.012	
119	 3HB	2597.546	801.165	-2718.178	 H	8	ASP8	-0.012	
120	   N	2601.630	801.459	-2717.735	N.am	9	GLU9	-0.516	
121	  CA	2602.933	802.116	-2717.680	C.3	9	GLU9	0.040	
122	   C	2603.850	801.588	-2718.756	C.2	9	GLU9	0.537	
123	   O	2604.514	802.341	-2719.482	O.2	9	GLU9	-0.582	
124	  CB	2603.566	801.909	-2716.275	C.3	9	GLU9	0.056	
125	  CG	2604.949	802.601	-2716.046	C.3	9	GLU9	0.014	
126	  CD	2605.651	802.388	-2714.718	C.2	9	GLU9	0.805	
127	 OE1	2605.130	801.698	-2713.821	O.co2	9	GLU9	-0.819	
128	 OE2	2606.771	802.925	-2714.586	O.co2	9	GLU9	-0.819	
129	   H	2601.266	800.974	-2716.927	 H	9	GLU9	0.294	
130	  HA	2602.791	803.198	-2717.856	 H	9	GLU9	0.111	
131	 2HB	2603.679	800.825	-2716.071	 H	9	GLU9	-0.017	
132	 3HB	2602.870	802.263	-2715.490	 H	9	GLU9	-0.017	
133	 2HG	2604.878	803.692	-2716.186	 H	9	GLU9	-0.043	
134	 3HG	2605.696	802.255	-2716.780	 H	9	GLU9	-0.043	
135	   N	2603.946	800.312	-2718.925	N.am	10	HIS10	-0.416	
136	  CA	2604.833	799.800	-2719.965	C.3	10	HIS10	-0.058	
137	   C	2604.467	800.364	-2721.316	C.2	10	HIS10	0.597	
138	   O	2605.319	800.828	-2722.089	O.2	10	HIS10	-0.568	
139	  CB	2604.669	798.271	-2719.959	C.3	10	HIS10	-0.007	
140	  CG	2605.954	797.560	-2719.651	C.2	10	HIS10	0.187	
141	 CD2	2606.336	797.226	-2718.359	C.2	10	HIS10	-0.221	
142	 ND1	2606.906	797.154	-2720.584	N.2	10	HIS10	-0.543	
143	 CE1	2607.812	796.596	-2719.761	C.2	10	HIS10	0.163	
144	 NE2	2607.550	796.594	-2718.426	N.pl3	10	HIS10	-0.280	
145	   H	2603.416	799.678	-2718.346	 H	10	HIS10	0.272	
146	  HA	2605.853	800.157	-2719.741	 H	10	HIS10	0.136	
147	 2HB	2604.303	797.904	-2720.939	 H	10	HIS10	0.037	
148	 3HB	2603.913	797.935	-2719.219	 H	10	HIS10	0.037	
149	 2HD	2605.750	797.442	-2717.470	 H	10	HIS10	0.186	
150	 1HE	2608.703	796.174	-2720.208	 H	10	HIS10	0.144	
151	 2HE	2608.117	796.217	-2717.652	 H	10	HIS10	0.334	
152	   N	2603.229	800.364	-2721.679	N.am	11	VAL11	-0.416	
153	  CA	2602.874	800.909	-2722.986	C.3	11	VAL11	-0.087	
154	   C	2603.339	802.340	-2723.120	C.2	11	VAL11	0.597	
155	   O	2603.940	802.744	-2724.123	O.2	11	VAL11	-0.568	
156	  CB	2601.312	800.803	-2723.205	C.3	11	VAL11	0.299	
157	 CG1	2600.744	801.507	-2724.468	C.3	11	VAL11	-0.319	
158	 CG2	2600.787	799.349	-2723.277	C.3	11	VAL11	-0.319	
159	   H	2602.516	799.992	-2721.068	 H	11	VAL11	0.272	
160	  HA	2603.393	800.326	-2723.769	 H	11	VAL11	0.097	
161	  HB	2600.825	801.284	-2722.330	 H	11	VAL11	-0.030	
162	1HG1	2601.182	801.114	-2725.405	 H	11	VAL11	0.079	
163	2HG1	2599.645	801.400	-2724.550	 H	11	VAL11	0.079	
164	3HG1	2600.923	802.599	-2724.460	 H	11	VAL11	0.079	
165	1HG2	2601.077	798.763	-2722.386	 H	11	VAL11	0.079	
166	2HG2	2599.681	799.313	-2723.320	 H	11	VAL11	0.079	
167	3HG2	2601.168	798.808	-2724.164	 H	11	VAL11	0.079	
168	   N	2603.103	803.166	-2722.157	N.am	12	GLN12	-0.416	
169	  CA	2603.552	804.549	-2722.285	C.3	12	GLN12	-0.003	
170	   C	2605.042	804.615	-2722.524	C.2	12	GLN12	0.597	
171	   O	2605.529	805.323	-2723.403	O.2	12	GLN12	-0.568	
172	  CB	2603.161	805.317	-2721.003	C.3	12	GLN12	-0.004	
173	  CG	2603.523	806.839	-2720.973	C.3	12	GLN12	-0.064	
174	  CD	2603.221	807.653	-2719.708	C.2	12	GLN12	0.695	
175	 NE2	2602.654	807.077	-2718.679	N.pl3	12	GLN12	-0.941	
176	 OE1	2603.524	808.834	-2719.632	O.2	12	GLN12	-0.609	
177	   H	2602.614	802.860	-2721.328	 H	12	GLN12	0.272	
178	  HA	2603.052	805.005	-2723.161	 H	12	GLN12	0.085	
179	 2HB	2603.637	804.817	-2720.134	 H	12	GLN12	0.017	
180	 3HB	2602.071	805.210	-2720.840	 H	12	GLN12	0.017	
181	 2HG	2603.045	807.359	-2721.824	 H	12	GLN12	0.035	
182	 3HG	2604.606	806.980	-2721.139	 H	12	GLN12	0.035	
183	1HE2	2602.548	807.672	-2717.856	 H	12	GLN12	0.425	
184	2HE2	2602.490	806.074	-2718.782	 H	12	GLN12	0.425	
185	   N	2605.826	803.908	-2721.782	N.am	13	ARG13	-0.348	
186	  CA	2607.266	803.973	-2722.014	C.3	13	ARG13	-0.264	
187	   C	2607.602	803.601	-2723.438	C.2	13	ARG13	0.734	
188	   O	2608.371	804.272	-2724.123	O.2	13	ARG13	-0.589	
189	  CB	2607.979	803.035	-2720.999	C.3	13	ARG13	-0.001	
190	  CG	2609.525	803.188	-2720.919	C.3	13	ARG13	0.039	
191	  CD	2610.152	802.201	-2719.921	C.3	13	ARG13	0.049	
192	  NE	2611.629	802.407	-2719.871	N.pl3	13	ARG13	-0.530	
193	  CZ	2612.477	801.716	-2719.115	C.cat	13	ARG13	0.808	
194	 NH1	2612.112	800.753	-2718.317	N.pl3	13	ARG13	-0.863	
195	 NH2	2613.737	802.015	-2719.173	N.pl3	13	ARG13	-0.863	
196	   H	2605.450	803.319	-2721.053	 H	13	ARG13	0.275	
197	  HA	2607.591	805.019	-2721.856	 H	13	ARG13	0.156	
198	 2HB	2607.713	801.984	-2721.238	 H	13	ARG13	0.033	
199	 3HB	2607.555	803.202	-2719.989	 H	13	ARG13	0.033	
200	 2HG	2609.773	804.233	-2720.640	 H	13	ARG13	0.029	
201	 3HG	2609.975	803.031	-2721.920	 H	13	ARG13	0.029	
202	 2HD	2609.907	801.160	-2720.229	 H	13	ARG13	0.069	
203	 3HD	2609.696	802.347	-2718.918	 H	13	ARG13	0.069	
204	  HE	2612.080	803.129	-2720.442	 H	13	ARG13	0.346	
205	1HH1	2611.106	800.567	-2718.320	 H	13	ARG13	0.448	
206	2HH1	2612.825	800.270	-2717.768	 H	13	ARG13	0.448	
207	1HH2	2614.004	802.772	-2719.804	 H	13	ARG13	0.448	
208	2HH2	2614.372	801.474	-2718.584	 H	13	ARG13	0.448	
209	   N	2607.065	802.546	-2723.952	N.am	14	VAL14	-0.416	
210	  CA	2607.390	802.186	-2725.330	C.3	14	VAL14	-0.087	
211	   C	2607.060	803.316	-2726.276	C.2	14	VAL14	0.597	
212	   O	2607.853	803.697	-2727.145	O.2	14	VAL14	-0.568	
213	  CB	2606.617	800.869	-2725.736	C.3	14	VAL14	0.299	
214	 CG1	2606.706	800.450	-2727.229	C.3	14	VAL14	-0.319	
215	 CG2	2607.049	799.617	-2724.935	C.3	14	VAL14	-0.319	
216	   H	2606.430	801.978	-2723.410	 H	14	VAL14	0.272	
217	  HA	2608.478	802.009	-2725.405	 H	14	VAL14	0.097	
218	  HB	2605.541	801.041	-2725.519	 H	14	VAL14	-0.030	
219	1HG1	2607.747	800.272	-2727.558	 H	14	VAL14	0.079	
220	2HG1	2606.132	799.527	-2727.441	 H	14	VAL14	0.079	
221	3HG1	2606.277	801.212	-2727.907	 H	14	VAL14	0.079	
222	1HG2	2606.962	799.776	-2723.844	 H	14	VAL14	0.079	
223	2HG2	2606.412	798.741	-2725.166	 H	14	VAL14	0.079	
224	3HG2	2608.096	799.327	-2725.140	 H	14	VAL14	0.079	
225	   N	2605.916	803.902	-2726.174	N.am	15	MET15	-0.416	
226	  CA	2605.595	804.994	-2727.088	C.3	15	MET15	-0.024	
227	   C	2606.625	806.094	-2727.000	C.2	15	MET15	0.597	
228	   O	2607.127	806.605	-2728.013	O.2	15	MET15	-0.568	
229	  CB	2604.174	805.540	-2726.779	C.3	15	MET15	0.034	
230	  CG	2603.011	804.542	-2726.970	C.3	15	MET15	0.002	
231	  SD	2601.438	805.409	-2726.855	S.3	15	MET15	-0.274	
232	  CE	2600.357	803.979	-2726.718	C.3	15	MET15	-0.054	
233	   H	2605.250	803.609	-2725.472	 H	15	MET15	0.272	
234	  HA	2605.621	804.607	-2728.123	 H	15	MET15	0.088	
235	 2HB	2603.971	806.419	-2727.421	 H	15	MET15	0.024	
236	 3HB	2604.138	805.933	-2725.742	 H	15	MET15	0.024	
237	 2HG	2603.055	803.757	-2726.192	 H	15	MET15	0.044	
238	 3HG	2603.074	804.027	-2727.946	 H	15	MET15	0.044	
239	 1HE	2600.500	803.291	-2727.570	 H	15	MET15	0.068	
240	 2HE	2600.566	803.427	-2725.785	 H	15	MET15	0.068	
241	 3HE	2599.299	804.294	-2726.701	 H	15	MET15	0.068	
242	   N	2606.995	806.516	-2725.838	N.am	16	SER16	-0.416	
243	  CA	2607.991	807.579	-2725.756	C.3	16	SER16	-0.025	
244	   C	2609.262	807.186	-2726.473	C.2	16	SER16	0.597	
245	   O	2609.383	806.098	-2727.035	O.2	16	SER16	-0.568	
246	  CB	2608.266	807.965	-2724.281	C.3	16	SER16	0.212	
247	  OG	2608.955	806.940	-2723.556	O.3	16	SER16	-0.655	
248	   H	2606.600	806.116	-2724.999	 H	16	SER16	0.272	
249	  HA	2607.589	808.465	-2726.280	 H	16	SER16	0.084	
250	 2HB	2607.328	808.223	-2723.753	 H	16	SER16	0.035	
251	 3HB	2608.876	808.888	-2724.244	 H	16	SER16	0.035	
252	  HG	2608.382	806.170	-2723.533	 H	16	SER16	0.428	
@<TRIPOS>BOND
1 1 2 1
2 1 10 1
3 2 3 1
4 2 5 1
5 2 11 1
6 3 4 2
7 3 16 1
8 5 6 1
9 6 7 1
10 7 8 2
11 7 9 1
12 5 12 1
13 5 13 1
14 6 14 1
15 6 15 1
16 16 17 1
17 16 24 1
18 17 18 1
19 17 20 1
20 17 25 1
21 18 19 2
22 18 30 1
23 20 21 1
24 21 22 1
25 21 23 2
26 20 26 1
27 20 27 1
28 22 28 1
29 22 29 1
30 30 31 1
31 30 36 1
32 31 32 1
33 31 34 1
34 31 37 1
35 32 33 2
36 32 44 1
37 34 35 1
38 35 36 1
39 34 38 1
40 34 39 1
41 35 40 1
42 35 41 1
43 36 42 1
44 36 43 1
45 44 45 1
46 44 53 1
47 45 46 1
48 45 48 1
49 45 54 1
50 46 47 2
51 46 59 1
52 48 49 1
53 49 50 1
54 50 51 2
55 50 52 1
56 48 55 1
57 48 56 1
58 49 57 1
59 49 58 1
60 59 60 1
61 59 65 1
62 60 61 1
63 60 63 1
64 60 66 1
65 61 62 2
66 61 70 1
67 63 64 1
68 63 67 1
69 63 68 1
70 64 69 1
71 70 71 1
72 70 78 1
73 71 72 1
74 71 74 1
75 71 79 1
76 72 73 2
77 72 89 1
78 74 75 1
79 74 76 1
80 75 77 1
81 74 80 1
82 75 81 1
83 75 82 1
84 76 83 1
85 76 84 1
86 76 85 1
87 77 86 1
88 77 87 1
89 77 88 1
90 89 90 1
91 89 97 1
92 90 91 1
93 90 93 1
94 90 98 1
95 91 92 2
96 91 108 1
97 93 94 1
98 94 95 1
99 94 96 1
100 93 99 1
101 93 100 1
102 94 101 1
103 95 102 1
104 95 103 1
105 95 104 1
106 96 105 1
107 96 106 1
108 96 107 1
109 108 109 1
110 108 116 1
111 109 110 1
112 109 112 1
113 109 117 1
114 110 111 2
115 110 120 1
116 112 113 1
117 113 114 2
118 113 115 1
119 112 118 1
120 112 119 1
121 120 121 1
122 120 129 1
123 121 122 1
124 121 124 1
125 121 130 1
126 122 123 2
127 122 135 1
128 124 125 1
129 125 126 1
130 126 127 2
131 126 128 1
132 124 131 1
133 124 132 1
134 125 133 1
135 125 134 1
136 135 136 1
137 135 145 1
138 136 137 1
139 136 139 1
140 136 146 1
141 137 138 2
142 137 152 1
143 139 140 1
144 140 141 2
145 141 144 1
146 140 142 1
147 142 143 2
148 143 144 1
149 139 147 1
150 139 148 1
151 141 149 1
152 143 150 1
153 144 151 1
154 152 153 1
155 152 159 1
156 153 154 1
157 153 156 1
158 153 160 1
159 154 155 2
160 154 168 1
161 156 157 1
162 156 158 1
163 156 161 1
164 157 162 1
165 157 163 1
166 157 164 1
167 158 165 1
168 158 166 1
169 158 167 1
170 168 169 1
171 168 177 1
172 169 170 1
173 169 172 1
174 169 178 1
175 170 171 2
176 170 185 1
177 172 173 1
178 173 174 1
179 174 175 1
180 174 176 2
181 172 179 1
182 172 180 1
183 173 181 1
184 173 182 1
185 175 183 1
186 175 184 1
187 185 186 1
188 185 196 1
189 186 187 1
190 186 189 1
191 186 197 1
192 187 188 2
193 187 209 1
194 189 190 1
195 190 191 1
196 191 192 1
197 192 193 1
198 193 194 2
199 193 195 1
200 189 198 1
201 189 199 1
202 190 200 1
203 190 201 1
204 191 202 1
205 191 203 1
206 192 204 1
207 194 205 1
208 194 206 1
209 195 207 1
210 195 208 1
211 209 210 1
212 209 216 1
213 210 211 1
214 210 213 1
215 210 217 1
216 211 212 2
217 211 225 1
218 213 214 1
219 213 215 1
220 213 218 1
221 214 219 1
222 214 220 1
223 214 221 1
224 215 222 1
225 215 223 1
226 215 224 1
227 225 226 1
228 225 233 1
229 226 227 1
230 226 229 1
231 226 234 1
232 227 228 2
233 227 242 1
234 229 230 1
235 230 231 1
236 231 232 1
237 229 235 1
238 229 236 1
239 230 237 1
240 230 238 1
241 232 239 1
242 232 240 1
243 232 241 1
244 242 243 1
245 242 248 1
246 243 244 1
247 243 246 1
248 243 249 1
249 244 245 2
250 246 247 1
251 246 250 1
252 246 251 1
253 247 252 1
@<TRIPOS>SUBSTRUCTURE
1	GLU1	1	RESIDUE	1 ****	GLU
2	ASN2	16	RESIDUE	1 ****	ASN
3	PRO3	30	RESIDUE	1 ****	PRO
4	GLU4	44	RESIDUE	1 ****	GLU
5	SER5	59	RESIDUE	1 ****	SER
6	ILE6	70	RESIDUE	1 ****	ILE
7	LEU7	89	RESIDUE	1 ****	LEU
8	ASP8	108	RESIDUE	1 ****	ASP
9	GLU9	120	RESIDUE	1 ****	GLU
10	HIS10	135	RESIDUE	1 ****	HIS
11	VAL11	152	RESIDUE	1 ****	VAL
12	GLN12	168	RESIDUE	1 ****	GLN
13	ARG13	185	RESIDUE	1 ****	ARG
14	VAL14	209	RESIDUE	1 ****	VAL
15	MET15	225	RESIDUE	1 ****	MET
16	SER16	242	RESIDUE	1 ****	SER
