@<TRIPOS>MOLECULE
9-4
266 267 16              
SMALL
USER_CHARGES
@<TRIPOS>ATOM
1	   N	1377.797	402.187	-1386.884	N.3	1	GLU1	-0.516	
2	  CA	1378.356	403.536	-1386.884	C.3	1	GLU1	0.040	
3	   C	1379.865	403.496	-1386.884	C.2	1	GLU1	0.537	
4	   O	1380.541	404.195	-1387.653	O.2	1	GLU1	-0.582	
5	  CB	1377.833	404.321	-1385.647	C.3	1	GLU1	0.056	
6	  CG	1378.308	405.806	-1385.536	C.3	1	GLU1	0.014	
7	  CD	1377.884	406.610	-1384.321	C.2	1	GLU1	0.805	
8	 OE1	1377.156	406.108	-1383.443	O.co2	1	GLU1	-0.819	
9	 OE2	1378.314	407.780	-1384.249	O.co2	1	GLU1	-0.819	
10	   H	1378.424	401.308	-1386.884	 H	1	GLU1	0.294	
11	  HA	1378.030	404.054	-1387.804	 H	1	GLU1	0.111	
12	 2HB	1378.122	403.790	-1384.717	 H	1	GLU1	-0.017	
13	 3HB	1376.726	404.311	-1385.634	 H	1	GLU1	-0.017	
14	 2HG	1377.998	406.391	-1386.417	 H	1	GLU1	-0.043	
15	 3HG	1379.408	405.873	-1385.507	 H	1	GLU1	-0.043	
16	   N	1380.470	402.710	-1386.059	N.am	2	ASN2	-0.416	
17	  CA	1381.929	402.672	-1386.059	C.3	2	ASN2	0.014	
18	   C	1382.460	402.316	-1387.428	C.2	2	ASN2	0.597	
19	   O	1383.375	402.947	-1387.956	O.2	2	ASN2	-0.568	
20	  CB	1382.421	401.649	-1384.995	C.3	2	ASN2	-0.204	
21	  CG	1381.958	401.873	-1383.551	C.2	2	ASN2	0.713	
22	 ND2	1382.552	402.788	-1382.833	N.pl3	2	ASN2	-0.919	
23	 OD1	1381.037	401.239	-1383.057	O.2	2	ASN2	-0.593	
24	   H	1379.941	402.131	-1385.422	 H	2	ASN2	0.272	
25	  HA	1382.306	403.682	-1385.813	 H	2	ASN2	0.105	
26	 2HB	1383.525	401.590	-1384.998	 H	2	ASN2	0.080	
27	 3HB	1382.092	400.631	-1385.280	 H	2	ASN2	0.080	
28	1HD2	1382.072	402.961	-1381.947	 H	2	ASN2	0.420	
29	2HD2	1383.254	403.359	-1383.302	 H	2	ASN2	0.420	
30	   N	1381.939	401.321	-1388.062	N.am	3	PRO3	-0.255	
31	  CA	1382.390	400.912	-1389.383	C.3	3	PRO3	-0.027	
32	   C	1381.992	401.935	-1390.460	C.2	3	PRO3	0.590	
33	   O	1382.815	402.318	-1391.292	O.2	3	PRO3	-0.575	
34	  CB	1381.686	399.557	-1389.552	C.3	3	PRO3	-0.007	
35	  CG	1380.403	399.709	-1388.722	C.3	3	PRO3	0.019	
36	  CD	1380.861	400.528	-1387.513	C.3	3	PRO3	0.019	
37	  HA	1383.476	400.792	-1389.397	 H	3	PRO3	0.064	
38	 2HB	1382.309	398.776	-1389.112	 H	3	PRO3	0.025	
39	 3HB	1381.488	399.309	-1390.598	 H	3	PRO3	0.025	
40	 2HG	1379.975	398.747	-1388.431	 H	3	PRO3	0.021	
41	 3HG	1379.665	400.280	-1389.290	 H	3	PRO3	0.021	
42	 2HD	1381.250	399.879	-1386.725	 H	3	PRO3	0.039	
43	 3HD	1380.064	401.164	-1387.119	 H	3	PRO3	0.039	
44	   N	1380.787	402.395	-1390.492	N.am	4	GLU4	-0.516	
45	  CA	1380.427	403.366	-1391.522	C.3	4	GLU4	0.040	
46	   C	1381.326	404.578	-1391.461	C.2	4	GLU4	0.537	
47	   O	1381.853	405.057	-1392.475	O.2	4	GLU4	-0.582	
48	  CB	1378.939	403.785	-1391.351	C.3	4	GLU4	0.056	
49	  CG	1378.391	404.789	-1392.417	C.3	4	GLU4	0.014	
50	  CD	1376.964	405.285	-1392.273	C.2	4	GLU4	0.805	
51	 OE1	1376.238	404.887	-1391.342	O.co2	4	GLU4	-0.819	
52	 OE2	1376.574	406.114	-1393.121	O.co2	4	GLU4	-0.819	
53	   H	1380.103	402.089	-1389.816	 H	4	GLU4	0.294	
54	  HA	1380.558	402.896	-1392.513	 H	4	GLU4	0.111	
55	 2HB	1378.787	404.225	-1390.344	 H	4	GLU4	-0.017	
56	 3HB	1378.291	402.887	-1391.357	 H	4	GLU4	-0.017	
57	 2HG	1378.472	404.374	-1393.435	 H	4	GLU4	-0.043	
58	 3HG	1378.979	405.721	-1392.428	 H	4	GLU4	-0.043	
59	   N	1381.554	405.130	-1390.318	N.am	5	SER5	-0.416	
60	  CA	1382.423	406.302	-1390.259	C.3	5	SER5	-0.025	
61	   C	1383.782	405.996	-1390.845	C.2	5	SER5	0.597	
62	   O	1384.329	406.750	-1391.650	O.2	5	SER5	-0.568	
63	  CB	1382.535	406.834	-1388.808	C.3	5	SER5	0.212	
64	  OG	1383.267	405.954	-1387.948	O.3	5	SER5	-0.655	
65	   H	1381.137	404.759	-1389.476	 H	5	SER5	0.272	
66	  HA	1381.974	407.092	-1390.888	 H	5	SER5	0.084	
67	 2HB	1381.535	407.027	-1388.375	 H	5	SER5	0.035	
68	 3HB	1383.040	407.819	-1388.811	 H	5	SER5	0.035	
69	  HG	1382.778	405.129	-1387.897	 H	5	SER5	0.428	
70	   N	1384.387	404.913	-1390.491	N.am	6	ILE6	-0.416	
71	  CA	1385.700	404.619	-1391.057	C.3	6	ILE6	-0.060	
72	   C	1385.643	404.581	-1392.565	C.2	6	ILE6	0.597	
73	   O	1386.477	405.169	-1393.269	O.2	6	ILE6	-0.568	
74	  CB	1386.300	403.282	-1390.458	C.3	6	ILE6	0.130	
75	 CG1	1386.319	403.220	-1388.897	C.3	6	ILE6	-0.043	
76	 CG2	1387.741	402.981	-1390.973	C.3	6	ILE6	-0.320	
77	 CD1	1386.589	401.831	-1388.282	C.3	6	ILE6	-0.066	
78	   H	1383.959	404.279	-1389.832	 H	6	ILE6	0.272	
79	  HA	1386.374	405.453	-1390.790	 H	6	ILE6	0.087	
80	  HB	1385.642	402.456	-1390.802	 H	6	ILE6	0.019	
81	2HG1	1385.337	403.540	-1388.501	 H	6	ILE6	0.024	
82	3HG1	1387.035	403.962	-1388.492	 H	6	ILE6	0.024	
83	1HG2	1387.800	402.887	-1392.071	 H	6	ILE6	0.088	
84	2HG2	1388.463	403.763	-1390.671	 H	6	ILE6	0.088	
85	3HG2	1388.131	402.019	-1390.594	 H	6	ILE6	0.088	
86	1HD1	1385.861	401.077	-1388.637	 H	6	ILE6	0.019	
87	2HD1	1387.600	401.452	-1388.518	 H	6	ILE6	0.019	
88	3HD1	1386.513	401.861	-1387.179	 H	6	ILE6	0.019	
89	   N	1384.697	403.918	-1393.139	N.am	7	LEU7	-0.416	
90	  CA	1384.642	403.882	-1394.597	C.3	7	LEU7	-0.052	
91	   C	1384.569	405.277	-1395.170	C.2	7	LEU7	0.597	
92	   O	1385.290	405.640	-1396.111	O.2	7	LEU7	-0.568	
93	  CB	1383.439	403.022	-1395.078	C.3	7	LEU7	-0.110	
94	  CG	1383.366	401.542	-1394.611	C.3	7	LEU7	0.353	
95	 CD1	1382.176	400.836	-1395.277	C.3	7	LEU7	-0.412	
96	 CD2	1384.660	400.763	-1394.903	C.3	7	LEU7	-0.412	
97	   H	1384.005	403.430	-1392.587	 H	7	LEU7	0.272	
98	  HA	1385.583	403.442	-1394.972	 H	7	LEU7	0.092	
99	 2HB	1383.415	403.038	-1396.185	 H	7	LEU7	0.046	
100	 3HB	1382.499	403.524	-1394.773	 H	7	LEU7	0.046	
101	  HG	1383.196	401.534	-1393.514	 H	7	LEU7	-0.036	
102	1HD1	1381.219	401.345	-1395.054	 H	7	LEU7	0.100	
103	2HD1	1382.275	400.796	-1396.378	 H	7	LEU7	0.100	
104	3HD1	1382.069	399.795	-1394.921	 H	7	LEU7	0.100	
105	1HD2	1384.935	400.794	-1395.973	 H	7	LEU7	0.100	
106	2HD2	1385.513	401.175	-1394.332	 H	7	LEU7	0.100	
107	3HD2	1384.578	399.701	-1394.607	 H	7	LEU7	0.100	
108	   N	1383.732	406.118	-1394.663	N.am	8	ASP8	-0.516	
109	  CA	1383.661	407.467	-1395.216	C.3	8	ASP8	0.038	
110	   C	1385.008	408.147	-1395.159	C.2	8	ASP8	0.537	
111	   O	1385.481	408.753	-1396.133	O.2	8	ASP8	-0.582	
112	  CB	1382.583	408.306	-1394.474	C.3	8	ASP8	-0.030	
113	  CG	1382.364	409.727	-1395.014	C.2	8	ASP8	0.799	
114	 OD1	1382.428	409.926	-1396.245	O.co2	8	ASP8	-0.801	
115	 OD2	1382.172	410.653	-1394.198	O.co2	8	ASP8	-0.801	
116	   H	1383.134	405.846	-1393.895	 H	8	ASP8	0.294	
117	  HA	1383.379	407.390	-1396.283	 H	8	ASP8	0.088	
118	 2HB	1382.841	408.389	-1393.402	 H	8	ASP8	-0.012	
119	 3HB	1381.604	407.801	-1394.507	 H	8	ASP8	-0.012	
120	   N	1385.688	408.097	-1394.063	N.am	9	VAL9	-0.416	
121	  CA	1386.990	408.755	-1394.008	C.3	9	VAL9	-0.087	
122	   C	1387.909	408.227	-1395.084	C.2	9	VAL9	0.597	
123	   O	1388.572	408.980	-1395.809	O.2	9	VAL9	-0.568	
124	  CB	1387.630	408.558	-1392.577	C.3	9	VAL9	0.299	
125	 CG1	1389.098	409.037	-1392.406	C.3	9	VAL9	-0.319	
126	 CG2	1386.841	409.246	-1391.437	C.3	9	VAL9	-0.319	
127	   H	1385.325	407.611	-1393.256	 H	9	VAL9	0.272	
128	  HA	1386.853	409.834	-1394.201	 H	9	VAL9	0.097	
129	  HB	1387.628	407.467	-1392.364	 H	9	VAL9	-0.030	
130	1HG1	1389.218	410.116	-1392.616	 H	9	VAL9	0.079	
131	2HG1	1389.482	408.857	-1391.383	 H	9	VAL9	0.079	
132	3HG1	1389.799	408.497	-1393.071	 H	9	VAL9	0.079	
133	1HG2	1385.784	408.925	-1391.417	 H	9	VAL9	0.079	
134	2HG2	1387.254	408.995	-1390.441	 H	9	VAL9	0.079	
135	3HG2	1386.847	410.348	-1391.528	 H	9	VAL9	0.079	
136	   N	1388.005	406.952	-1395.254	N.am	10	HIS10	-0.416	
137	  CA	1388.893	406.440	-1396.294	C.3	10	HIS10	-0.058	
138	   C	1388.526	407.005	-1397.645	C.2	10	HIS10	0.597	
139	   O	1389.378	407.470	-1398.417	O.2	10	HIS10	-0.568	
140	  CB	1388.729	404.912	-1396.289	C.3	10	HIS10	-0.007	
141	  CG	1390.014	404.202	-1395.981	C.2	10	HIS10	0.187	
142	 CD2	1390.395	403.866	-1394.689	C.2	10	HIS10	-0.221	
143	 ND1	1390.966	403.796	-1396.914	N.2	10	HIS10	-0.543	
144	 CE1	1391.873	403.237	-1396.091	C.2	10	HIS10	0.163	
145	 NE2	1391.610	403.235	-1394.756	N.pl3	10	HIS10	-0.280	
146	   H	1387.474	406.317	-1394.675	 H	10	HIS10	0.272	
147	  HA	1389.912	406.798	-1396.069	 H	10	HIS10	0.136	
148	 2HB	1388.363	404.545	-1397.269	 H	10	HIS10	0.037	
149	 3HB	1387.973	404.574	-1395.549	 H	10	HIS10	0.037	
150	 2HD	1389.810	404.081	-1393.800	 H	10	HIS10	0.186	
151	 1HE	1392.764	402.816	-1396.538	 H	10	HIS10	0.144	
152	 2HE	1392.177	402.857	-1393.983	 H	10	HIS10	0.334	
153	   N	1387.288	407.004	-1398.008	N.am	11	VAL11	-0.416	
154	  CA	1386.932	407.551	-1399.315	C.3	11	VAL11	-0.087	
155	   C	1387.397	408.981	-1399.447	C.2	11	VAL11	0.597	
156	   O	1387.998	409.386	-1400.451	O.2	11	VAL11	-0.568	
157	  CB	1385.371	407.444	-1399.534	C.3	11	VAL11	0.299	
158	 CG1	1384.802	408.148	-1400.797	C.3	11	VAL11	-0.319	
159	 CG2	1384.846	405.990	-1399.607	C.3	11	VAL11	-0.319	
160	   H	1386.575	406.632	-1397.397	 H	11	VAL11	0.272	
161	  HA	1387.452	406.968	-1400.097	 H	11	VAL11	0.097	
162	  HB	1384.884	407.924	-1398.658	 H	11	VAL11	-0.030	
163	1HG1	1385.241	407.756	-1401.734	 H	11	VAL11	0.079	
164	2HG1	1383.703	408.041	-1400.878	 H	11	VAL11	0.079	
165	3HG1	1384.981	409.241	-1400.787	 H	11	VAL11	0.079	
166	1HG2	1385.136	405.403	-1398.716	 H	11	VAL11	0.079	
167	2HG2	1383.741	405.953	-1399.649	 H	11	VAL11	0.079	
168	3HG2	1385.228	405.449	-1400.494	 H	11	VAL11	0.079	
169	   N	1387.160	409.807	-1398.485	N.am	12	GLN12	-0.416	
170	  CA	1387.609	411.190	-1398.612	C.3	12	GLN12	-0.003	
171	   C	1389.099	411.257	-1398.850	C.2	12	GLN12	0.597	
172	   O	1389.586	411.966	-1399.729	O.2	12	GLN12	-0.568	
173	  CB	1387.218	411.957	-1397.329	C.3	12	GLN12	-0.004	
174	  CG	1387.578	413.479	-1397.298	C.3	12	GLN12	-0.064	
175	  CD	1387.276	414.292	-1396.033	C.2	12	GLN12	0.695	
176	 NE2	1386.710	413.716	-1395.004	N.pl3	12	GLN12	-0.941	
177	 OE1	1387.578	415.473	-1395.955	O.2	12	GLN12	-0.609	
178	   H	1386.672	409.501	-1397.656	 H	12	GLN12	0.272	
179	  HA	1387.109	411.646	-1399.487	 H	12	GLN12	0.085	
180	 2HB	1387.694	411.457	-1396.460	 H	12	GLN12	0.017	
181	 3HB	1386.128	411.850	-1397.166	 H	12	GLN12	0.017	
182	 2HG	1387.101	414.000	-1398.148	 H	12	GLN12	0.035	
183	 3HG	1388.662	413.621	-1397.464	 H	12	GLN12	0.035	
184	1HE2	1386.603	414.310	-1394.181	 H	12	GLN12	0.425	
185	2HE2	1386.546	412.712	-1395.108	 H	12	GLN12	0.425	
186	   N	1389.883	410.550	-1398.110	N.am	13	ARG13	-0.348	
187	  CA	1391.324	410.616	-1398.341	C.3	13	ARG13	-0.264	
188	   C	1391.659	410.245	-1399.766	C.2	13	ARG13	0.734	
189	   O	1392.428	410.917	-1400.450	O.2	13	ARG13	-0.589	
190	  CB	1392.037	409.677	-1397.327	C.3	13	ARG13	-0.001	
191	  CG	1393.583	409.830	-1397.247	C.3	13	ARG13	0.039	
192	  CD	1394.210	408.842	-1396.249	C.3	13	ARG13	0.049	
193	  NE	1395.687	409.050	-1396.199	N.pl3	13	ARG13	-0.530	
194	  CZ	1396.535	408.358	-1395.445	C.cat	13	ARG13	0.808	
195	 NH1	1396.171	407.393	-1394.647	N.pl3	13	ARG13	-0.863	
196	 NH2	1397.795	408.657	-1395.502	N.pl3	13	ARG13	-0.863	
197	   H	1389.508	409.960	-1397.381	 H	13	ARG13	0.275	
198	  HA	1391.648	411.662	-1398.182	 H	13	ARG13	0.156	
199	 2HB	1391.771	408.627	-1397.567	 H	13	ARG13	0.033	
200	 3HB	1391.613	409.843	-1396.317	 H	13	ARG13	0.033	
201	 2HG	1393.830	410.875	-1396.967	 H	13	ARG13	0.029	
202	 3HG	1394.033	409.674	-1398.249	 H	13	ARG13	0.029	
203	 2HD	1393.965	407.802	-1396.559	 H	13	ARG13	0.069	
204	 3HD	1393.754	408.988	-1395.247	 H	13	ARG13	0.069	
205	  HE	1396.138	409.772	-1396.770	 H	13	ARG13	0.346	
206	1HH1	1395.165	407.207	-1394.650	 H	13	ARG13	0.448	
207	2HH1	1396.884	406.910	-1394.099	 H	13	ARG13	0.448	
208	1HH2	1398.062	409.415	-1396.133	 H	13	ARG13	0.448	
209	2HH2	1398.430	408.116	-1394.914	 H	13	ARG13	0.448	
210	   N	1391.123	409.190	-1400.280	N.am	14	VAL14	-0.416	
211	  CA	1391.448	408.831	-1401.658	C.3	14	VAL14	-0.087	
212	   C	1391.117	409.961	-1402.604	C.2	14	VAL14	0.597	
213	   O	1391.910	410.343	-1403.473	O.2	14	VAL14	-0.568	
214	  CB	1390.675	407.514	-1402.065	C.3	14	VAL14	0.299	
215	 CG1	1390.764	407.096	-1403.559	C.3	14	VAL14	-0.319	
216	 CG2	1391.107	406.262	-1401.265	C.3	14	VAL14	-0.319	
217	   H	1390.489	408.622	-1399.738	 H	14	VAL14	0.272	
218	  HA	1392.536	408.655	-1401.733	 H	14	VAL14	0.097	
219	  HB	1389.599	407.685	-1401.849	 H	14	VAL14	-0.030	
220	1HG1	1391.805	406.919	-1403.888	 H	14	VAL14	0.079	
221	2HG1	1390.191	406.173	-1403.771	 H	14	VAL14	0.079	
222	3HG1	1390.334	407.859	-1404.236	 H	14	VAL14	0.079	
223	1HG2	1391.021	406.420	-1400.174	 H	14	VAL14	0.079	
224	2HG2	1390.472	405.386	-1401.497	 H	14	VAL14	0.079	
225	3HG2	1392.155	405.972	-1401.471	 H	14	VAL14	0.079	
226	   N	1389.972	410.547	-1402.501	N.am	15	MET15	-0.416	
227	  CA	1389.652	411.640	-1403.415	C.3	15	MET15	-0.024	
228	   C	1390.682	412.740	-1403.328	C.2	15	MET15	0.597	
229	   O	1391.185	413.250	-1404.341	O.2	15	MET15	-0.568	
230	  CB	1388.230	412.186	-1403.106	C.3	15	MET15	0.034	
231	  CG	1387.068	411.188	-1403.298	C.3	15	MET15	0.002	
232	  SD	1385.495	412.054	-1403.183	S.3	15	MET15	-0.274	
233	  CE	1384.413	410.624	-1403.047	C.3	15	MET15	-0.054	
234	   H	1389.307	410.254	-1401.800	 H	15	MET15	0.272	
235	  HA	1389.677	411.253	-1404.451	 H	15	MET15	0.088	
236	 2HB	1388.028	413.065	-1403.748	 H	15	MET15	0.024	
237	 3HB	1388.195	412.578	-1402.070	 H	15	MET15	0.024	
238	 2HG	1387.111	410.402	-1402.520	 H	15	MET15	0.044	
239	 3HG	1387.131	410.672	-1404.274	 H	15	MET15	0.044	
240	 1HE	1384.557	409.936	-1403.899	 H	15	MET15	0.068	
241	 2HE	1384.622	410.072	-1402.114	 H	15	MET15	0.068	
242	 3HE	1383.356	410.940	-1403.030	 H	15	MET15	0.068	
243	   N	1391.051	413.161	-1402.166	N.am	16	ARG16	-0.348	
244	  CA	1392.048	414.225	-1402.082	C.3	16	ARG16	-0.264	
245	   C	1393.318	413.832	-1402.799	C.2	16	ARG16	0.734	
246	   O	1393.432	412.755	-1403.380	O.2	16	ARG16	-0.589	
247	  CB	1392.317	414.543	-1400.584	C.3	16	ARG16	-0.001	
248	  CG	1393.142	415.832	-1400.312	C.3	16	ARG16	0.039	
249	  CD	1393.392	416.052	-1398.810	C.3	16	ARG16	0.049	
250	  NE	1394.169	417.311	-1398.610	N.pl3	16	ARG16	-0.530	
251	  CZ	1394.560	417.793	-1397.434	C.cat	16	ARG16	0.808	
252	 NH1	1394.313	417.209	-1396.296	N.pl3	16	ARG16	-0.863	
253	 NH2	1395.224	418.906	-1397.416	N.pl3	16	ARG16	-0.863	
254	   H	1390.656	412.761	-1401.326	 H	16	ARG16	0.275	
255	  HA	1391.639	415.118	-1402.592	 H	16	ARG16	0.156	
256	 2HB	1392.814	413.667	-1400.118	 H	16	ARG16	0.033	
257	 3HB	1391.348	414.624	-1400.050	 H	16	ARG16	0.033	
258	 2HG	1392.612	416.703	-1400.749	 H	16	ARG16	0.029	
259	 3HG	1394.116	415.779	-1400.841	 H	16	ARG16	0.029	
260	 2HD	1393.941	415.177	-1398.397	 H	16	ARG16	0.069	
261	 3HD	1392.420	416.094	-1398.275	 H	16	ARG16	0.069	
262	  HE	1394.447	417.891	-1399.407	 H	16	ARG16	0.346	
263	1HH1	1393.787	416.336	-1396.380	 H	16	ARG16	0.448	
264	2HH1	1394.647	417.645	-1395.435	 H	16	ARG16	0.448	
265	1HH2	1395.410	419.348	-1398.318	 H	16	ARG16	0.448	
266	2HH2	1395.515	419.261	-1396.504	 H	16	ARG16	0.448	
@<TRIPOS>BOND
1 1 2 1
2 1 10 1
3 2 3 1
4 2 5 1
5 2 11 1
6 3 4 2
7 3 16 1
8 5 6 1
9 6 7 1
10 7 8 2
11 7 9 1
12 5 12 1
13 5 13 1
14 6 14 1
15 6 15 1
16 16 17 1
17 16 24 1
18 17 18 1
19 17 20 1
20 17 25 1
21 18 19 2
22 18 30 1
23 20 21 1
24 21 22 1
25 21 23 2
26 20 26 1
27 20 27 1
28 22 28 1
29 22 29 1
30 30 31 1
31 30 36 1
32 31 32 1
33 31 34 1
34 31 37 1
35 32 33 2
36 32 44 1
37 34 35 1
38 35 36 1
39 34 38 1
40 34 39 1
41 35 40 1
42 35 41 1
43 36 42 1
44 36 43 1
45 44 45 1
46 44 53 1
47 45 46 1
48 45 48 1
49 45 54 1
50 46 47 2
51 46 59 1
52 48 49 1
53 49 50 1
54 50 51 2
55 50 52 1
56 48 55 1
57 48 56 1
58 49 57 1
59 49 58 1
60 59 60 1
61 59 65 1
62 60 61 1
63 60 63 1
64 60 66 1
65 61 62 2
66 61 70 1
67 63 64 1
68 63 67 1
69 63 68 1
70 64 69 1
71 70 71 1
72 70 78 1
73 71 72 1
74 71 74 1
75 71 79 1
76 72 73 2
77 72 89 1
78 74 75 1
79 74 76 1
80 75 77 1
81 74 80 1
82 75 81 1
83 75 82 1
84 76 83 1
85 76 84 1
86 76 85 1
87 77 86 1
88 77 87 1
89 77 88 1
90 89 90 1
91 89 97 1
92 90 91 1
93 90 93 1
94 90 98 1
95 91 92 2
96 91 108 1
97 93 94 1
98 94 95 1
99 94 96 1
100 93 99 1
101 93 100 1
102 94 101 1
103 95 102 1
104 95 103 1
105 95 104 1
106 96 105 1
107 96 106 1
108 96 107 1
109 108 109 1
110 108 116 1
111 109 110 1
112 109 112 1
113 109 117 1
114 110 111 2
115 110 120 1
116 112 113 1
117 113 114 2
118 113 115 1
119 112 118 1
120 112 119 1
121 120 121 1
122 120 127 1
123 121 122 1
124 121 124 1
125 121 128 1
126 122 123 2
127 122 136 1
128 124 125 1
129 124 126 1
130 124 129 1
131 125 130 1
132 125 131 1
133 125 132 1
134 126 133 1
135 126 134 1
136 126 135 1
137 136 137 1
138 136 146 1
139 137 138 1
140 137 140 1
141 137 147 1
142 138 139 2
143 138 153 1
144 140 141 1
145 141 142 2
146 142 145 1
147 141 143 1
148 143 144 2
149 144 145 1
150 140 148 1
151 140 149 1
152 142 150 1
153 144 151 1
154 145 152 1
155 153 154 1
156 153 160 1
157 154 155 1
158 154 157 1
159 154 161 1
160 155 156 2
161 155 169 1
162 157 158 1
163 157 159 1
164 157 162 1
165 158 163 1
166 158 164 1
167 158 165 1
168 159 166 1
169 159 167 1
170 159 168 1
171 169 170 1
172 169 178 1
173 170 171 1
174 170 173 1
175 170 179 1
176 171 172 2
177 171 186 1
178 173 174 1
179 174 175 1
180 175 176 1
181 175 177 2
182 173 180 1
183 173 181 1
184 174 182 1
185 174 183 1
186 176 184 1
187 176 185 1
188 186 187 1
189 186 197 1
190 187 188 1
191 187 190 1
192 187 198 1
193 188 189 2
194 188 210 1
195 190 191 1
196 191 192 1
197 192 193 1
198 193 194 1
199 194 195 2
200 194 196 1
201 190 199 1
202 190 200 1
203 191 201 1
204 191 202 1
205 192 203 1
206 192 204 1
207 193 205 1
208 195 206 1
209 195 207 1
210 196 208 1
211 196 209 1
212 210 211 1
213 210 217 1
214 211 212 1
215 211 214 1
216 211 218 1
217 212 213 2
218 212 226 1
219 214 215 1
220 214 216 1
221 214 219 1
222 215 220 1
223 215 221 1
224 215 222 1
225 216 223 1
226 216 224 1
227 216 225 1
228 226 227 1
229 226 234 1
230 227 228 1
231 227 230 1
232 227 235 1
233 228 229 2
234 228 243 1
235 230 231 1
236 231 232 1
237 232 233 1
238 230 236 1
239 230 237 1
240 231 238 1
241 231 239 1
242 233 240 1
243 233 241 1
244 233 242 1
245 243 244 1
246 243 254 1
247 244 245 1
248 244 247 1
249 244 255 1
250 245 246 2
251 247 248 1
252 248 249 1
253 249 250 1
254 250 251 1
255 251 252 2
256 251 253 1
257 247 256 1
258 247 257 1
259 248 258 1
260 248 259 1
261 249 260 1
262 249 261 1
263 250 262 1
264 252 263 1
265 252 264 1
266 253 265 1
267 253 266 1
@<TRIPOS>SUBSTRUCTURE
1	GLU1	1	RESIDUE	1 ****	GLU
2	ASN2	16	RESIDUE	1 ****	ASN
3	PRO3	30	RESIDUE	1 ****	PRO
4	GLU4	44	RESIDUE	1 ****	GLU
5	SER5	59	RESIDUE	1 ****	SER
6	ILE6	70	RESIDUE	1 ****	ILE
7	LEU7	89	RESIDUE	1 ****	LEU
8	ASP8	108	RESIDUE	1 ****	ASP
9	VAL9	120	RESIDUE	1 ****	VAL
10	HIS10	136	RESIDUE	1 ****	HIS
11	VAL11	153	RESIDUE	1 ****	VAL
12	GLN12	169	RESIDUE	1 ****	GLN
13	ARG13	186	RESIDUE	1 ****	ARG
14	VAL14	210	RESIDUE	1 ****	VAL
15	MET15	226	RESIDUE	1 ****	MET
16	ARG16	243	RESIDUE	1 ****	ARG
