REMARK WARNING: 32 MAX_TORS EXCEEDED!!!
REMARK  65 active torsions:
REMARK  status: ('A' for Active; 'I' for Inactive)
REMARK    1  A    between atoms: N_1  and  CA_2 
REMARK    2  A    between atoms: CA_2  and  C_3 
REMARK    3  A    between atoms: CA_2  and  CB_5 
REMARK       I    between atoms: C_3  and  N_11 
REMARK    4  A    between atoms: CB_5  and  CG_6 
REMARK    5  A    between atoms: CG_6  and  CD_7 
REMARK    6  A    between atoms: N_11  and  CA_12 
REMARK    7  A    between atoms: CA_12  and  C_13 
REMARK    8  A    between atoms: CA_12  and  CB_15 
REMARK       I    between atoms: C_13  and  N_22 
REMARK    9  A    between atoms: CB_15  and  CG_16 
REMARK       I    between atoms: CG_16  and  ND2_17 
REMARK   10  A    between atoms: CA_23  and  C_24 
REMARK       I    between atoms: C_24  and  N_29 
REMARK   11  A    between atoms: N_29  and  CA_30 
REMARK   12  A    between atoms: CA_30  and  C_31 
REMARK   13  A    between atoms: CA_30  and  CB_33 
REMARK       I    between atoms: C_31  and  N_39 
REMARK   14  A    between atoms: CB_33  and  CG_34 
REMARK   15  A    between atoms: CG_34  and  CD_35 
REMARK   16  A    between atoms: N_39  and  CA_40 
REMARK   17  A    between atoms: CA_40  and  C_41 
REMARK   18  A    between atoms: CA_40  and  CB_43 
REMARK       I    between atoms: C_41  and  N_47 
REMARK   19  A    between atoms: CB_43  and  OG_44 
REMARK   20  A    between atoms: N_47  and  CA_48 
REMARK   21  A    between atoms: CA_48  and  C_49 
REMARK   22  A    between atoms: CA_48  and  CB_51 
REMARK       I    between atoms: C_49  and  N_56 
REMARK   23  A    between atoms: CB_51  and  CG1_52 
REMARK   24  A    between atoms: N_56  and  CA_57 
REMARK   25  A    between atoms: CA_57  and  C_58 
REMARK   26  A    between atoms: CA_57  and  CB_60 
REMARK       I    between atoms: C_58  and  N_65 
REMARK   27  A    between atoms: CB_60  and  CG_61 
REMARK   28  A    between atoms: CA_66  and  C_67 
REMARK       I    between atoms: C_67  and  N_72 
REMARK   29  A    between atoms: N_72  and  CA_73 
REMARK   30  A    between atoms: CA_73  and  C_74 
REMARK   31  A    between atoms: CA_73  and  CB_76 
REMARK       I    between atoms: C_74  and  N_82 
REMARK   32  A    between atoms: CB_76  and  CG_77 
REMARK   33  A    between atoms: CG_77  and  CD_78 
REMARK   34  A    between atoms: N_82  and  CA_83 
REMARK   35  A    between atoms: CA_83  and  C_84 
REMARK   36  A    between atoms: CA_83  and  CB_86 
REMARK       I    between atoms: C_84  and  N_94 
REMARK   37  A    between atoms: CB_86  and  CG_87 
REMARK   38  A    between atoms: N_94  and  CA_95 
REMARK   39  A    between atoms: CA_95  and  C_96 
REMARK   40  A    between atoms: CA_95  and  CB_98 
REMARK       I    between atoms: C_96  and  N_102 
REMARK   41  A    between atoms: N_102  and  CA_103 
REMARK   42  A    between atoms: CA_103  and  C_104 
REMARK   43  A    between atoms: CA_103  and  CB_106 
REMARK       I    between atoms: C_104  and  N_114 
REMARK   44  A    between atoms: CB_106  and  CG_107 
REMARK   45  A    between atoms: CG_107  and  CD_108 
REMARK       I    between atoms: CD_108  and  NE2_109 
REMARK   46  A    between atoms: N_114  and  CA_115 
REMARK   47  A    between atoms: CA_115  and  C_116 
REMARK   48  A    between atoms: CA_115  and  CB_118 
REMARK       I    between atoms: C_116  and  N_131 
REMARK   49  A    between atoms: CB_118  and  CG_119 
REMARK   50  A    between atoms: CG_119  and  CD_120 
REMARK   51  A    between atoms: CD_120  and  NE_121 
REMARK       I    between atoms: NE_121  and  CZ_122 
REMARK       I    between atoms: CZ_122  and  NH1_123 
REMARK       I    between atoms: CZ_122  and  NH2_124 
REMARK   52  A    between atoms: N_131  and  CA_132 
REMARK   53  A    between atoms: CA_132  and  C_133 
REMARK   54  A    between atoms: CA_132  and  CB_135 
REMARK       I    between atoms: C_133  and  N_139 
REMARK   55  A    between atoms: N_139  and  CA_140 
REMARK   56  A    between atoms: CA_140  and  C_141 
REMARK   57  A    between atoms: CA_140  and  CB_143 
REMARK       I    between atoms: C_141  and  N_148 
REMARK   58  A    between atoms: CB_143  and  CG_144 
REMARK   59  A    between atoms: CG_144  and  SD_145 
REMARK   60  A    between atoms: N_148  and  CA_149 
REMARK   61  A    between atoms: CA_149  and  C_150 
REMARK   62  A    between atoms: CA_149  and  CB_152 
REMARK   63  A    between atoms: CB_152  and  CG_153 
REMARK   64  A    between atoms: CG_153  and  CD_154 
REMARK   65  A    between atoms: CD_154  and  NE_155 
REMARK       I    between atoms: NE_155  and  CZ_156 
REMARK       I    between atoms: CZ_156  and  NH1_157 
ROOT
ATOM      1  C   GLU d   9    1208.108 349.623-1199.382  0.00  0.00     0.241 C 
ATOM      2  O   GLU d   9    1208.780 350.501-1199.943  0.00  0.00    -0.271 OA
ATOM      3  N   HIS d  10    1208.411 348.385-1199.576  0.00  0.00    -0.346 N 
ATOM      4  H   HIS d  10    1207.879 347.651-1199.131  0.00  0.00     0.163 HD
ENDROOT
BRANCH   3   5
ATOM      5  CA  HIS d  10    1209.535 348.059-1200.450  0.00  0.00     0.182 C 
BRANCH   5   6
ATOM      6  C   HIS d  10    1209.343 348.652-1201.824  0.00  0.00     0.241 C 
ATOM      7  O   HIS d  10    1210.248 349.271-1202.406  0.00  0.00    -0.271 OA
ATOM      8  N   VAL d  11    1208.204 348.511-1202.413  0.00  0.00    -0.346 N 
ATOM      9  H   VAL d  11    1207.452 348.011-1201.960  0.00  0.00     0.163 HD
BRANCH   8  10
ATOM     10  CA  VAL d  11    1208.018 349.085-1203.742  0.00  0.00     0.180 C 
BRANCH  10  11
ATOM     11  C   VAL d  11    1208.294 350.569-1203.734  0.00  0.00     0.241 C 
ATOM     12  O   VAL d  11    1209.003 351.110-1204.591  0.00  0.00    -0.271 OA
ATOM     13  N   GLN d  12    1207.773 351.296-1202.804  0.00  0.00    -0.346 N 
ATOM     14  H   GLN d  12    1207.191 350.878-1202.093  0.00  0.00     0.163 HD
BRANCH  13  15
ATOM     15  CA  GLN d  12    1208.039 352.731-1202.795  0.00  0.00     0.177 C 
BRANCH  15  16
ATOM     16  C   GLN d  12    1209.523 353.008-1202.747  0.00  0.00     0.241 C 
ATOM     17  O   GLN d  12    1210.057 353.826-1203.493  0.00  0.00    -0.271 OA
ATOM     18  N   ARG d  13    1210.252 352.366-1201.898  0.00  0.00    -0.346 N 
ATOM     19  H   ARG d  13    1209.837 351.688-1201.275  0.00  0.00     0.163 HD
BRANCH  18  20
ATOM     20  CA  ARG d  13    1211.687 352.634-1201.852  0.00  0.00     0.176 C 
BRANCH  20  21
ATOM     21  C   ARG d  13    1212.323 352.398-1203.201  0.00  0.00     0.241 C 
ATOM     22  O   ARG d  13    1213.101 353.205-1203.704  0.00  0.00    -0.271 OA
ATOM     23  N   VAL d  14    1212.042 351.316-1203.845  0.00  0.00    -0.346 N 
ATOM     24  H   VAL d  14    1211.406 350.637-1203.453  0.00  0.00     0.163 HD
BRANCH  23  25
ATOM     25  CA  VAL d  14    1212.658 351.087-1205.149  0.00  0.00     0.180 C 
BRANCH  25  26
ATOM     26  C   VAL d  14    1212.349 352.220-1206.099  0.00  0.00     0.241 C 
ATOM     27  O   VAL d  14    1213.226 352.755-1206.789  0.00  0.00    -0.271 OA
ATOM     28  N   MET d  15    1211.135 352.644-1206.192  0.00  0.00    -0.346 N 
ATOM     29  H   MET d  15    1210.401 352.224-1205.639  0.00  0.00     0.163 HD
BRANCH  28  30
ATOM     30  CA  MET d  15    1210.835 353.739-1207.110  0.00  0.00     0.177 C 
BRANCH  30  31
ATOM     31  C   MET d  15    1211.667 354.957-1206.791  0.00  0.00     0.241 C 
ATOM     32  O   MET d  15    1212.268 355.591-1207.672  0.00  0.00    -0.271 OA
ATOM     33  N   ARG d  16    1211.757 355.351-1205.565  0.00  0.00    -0.347 N 
ATOM     34  H   ARG d  16    1211.278 354.851-1204.830  0.00  0.00     0.163 HD
BRANCH  33  35
ATOM     35  CA  ARG d  16    1212.563 356.529-1205.258  0.00  0.00     0.162 C 
BRANCH  35  36
ATOM     36  C   ARG d  16    1213.984 356.351-1205.737  0.00  0.00     0.219 C 
ATOM     37  O   ARG d  16    1214.351 355.337-1206.326  0.00  0.00    -0.287 OA
ENDBRANCH  35  36
BRANCH  35  38
ATOM     38  CB  ARG d  16    1212.509 356.786-1203.725  0.00  0.00     0.035 C 
BRANCH  38  39
ATOM     39  CG  ARG d  16    1213.083 358.153-1203.256  0.00  0.00     0.023 C 
BRANCH  39  40
ATOM     40  CD  ARG d  16    1213.023 358.311-1201.728  0.00  0.00     0.138 C 
BRANCH  40  41
ATOM     41  NE  ARG d  16    1213.566 359.646-1201.339  0.00  0.00    -0.227 N 
ATOM     42  CZ  ARG d  16    1213.667 360.102-1200.095  0.00  0.00     0.665 C 
ATOM     43  NH1 ARG d  16    1213.302 359.421-1199.045  0.00  0.00    -0.235 N 
ATOM     44  NH2 ARG d  16    1214.154 361.289-1199.912  0.00  0.00    -0.235 N 
ATOM     45 11HH ARG d  16    1212.928 358.494-1199.258  0.00  0.00     0.174 HD
ATOM     46 12HH ARG d  16    1213.411 359.843-1198.121  0.00  0.00     0.174 HD
ATOM     47 21HH ARG d  16    1214.435 361.807-1200.746  0.00  0.00     0.174 HD
ATOM     48 22HH ARG d  16    1214.222 361.622-1198.949  0.00  0.00     0.174 HD
ATOM     49  HE  ARG d  16    1213.900 360.306-1202.049  0.00  0.00     0.177 HD
ENDBRANCH  40  41
ENDBRANCH  39  40
ENDBRANCH  38  39
ENDBRANCH  35  38
ENDBRANCH  33  35
ENDBRANCH  30  31
BRANCH  30  50
ATOM     50  CB  MET d  15    1209.319 354.074-1207.053  0.00  0.00     0.045 C 
BRANCH  50  51
ATOM     51  CG  MET d  15    1208.362 352.945-1207.495  0.00  0.00     0.076 C 
BRANCH  51  52
ATOM     52  SD  MET d  15    1206.688 353.589-1207.647  0.00  0.00    -0.173 SA
ATOM     53  CE  MET d  15    1205.811 352.024-1207.767  0.00  0.00     0.089 C 
ENDBRANCH  51  52
ENDBRANCH  50  51
ENDBRANCH  30  50
ENDBRANCH  28  30
ENDBRANCH  25  26
BRANCH  25  54
ATOM     54  CB  VAL d  14    1212.165 349.708-1205.741  0.00  0.00     0.009 C 
ATOM     55  CG1 VAL d  14    1212.580 349.398-1207.205  0.00  0.00     0.012 C 
ATOM     56  CG2 VAL d  14    1212.616 348.476-1204.920  0.00  0.00     0.012 C 
ENDBRANCH  25  54
ENDBRANCH  23  25
ENDBRANCH  20  21
BRANCH  20  57
ATOM     57  CB  ARG d  13    1212.329 351.736-1200.757  0.00  0.00     0.036 C 
BRANCH  57  58
ATOM     58  CG  ARG d  13    1213.797 352.085-1200.382  0.00  0.00     0.023 C 
BRANCH  58  59
ATOM     59  CD  ARG d  13    1214.366 351.129-1199.321  0.00  0.00     0.138 C 
BRANCH  59  60
ATOM     60  NE  ARG d  13    1215.765 351.524-1198.987  0.00  0.00    -0.227 N 
ATOM     61  CZ  ARG d  13    1216.551 350.905-1198.112  0.00  0.00     0.665 C 
ATOM     62  NH1 ARG d  13    1216.187 349.854-1197.432  0.00  0.00    -0.235 N 
ATOM     63  NH2 ARG d  13    1217.746 351.369-1197.921  0.00  0.00    -0.235 N 
ATOM     64 11HH ARG d  13    1215.235 349.538-1197.630  0.00  0.00     0.174 HD
ATOM     65 12HH ARG d  13    1216.850 349.436-1196.777  0.00  0.00     0.174 HD
ATOM     66 21HH ARG d  13    1218.014 352.193-1198.463  0.00  0.00     0.174 HD
ATOM     67 22HH ARG d  13    1218.334 350.881-1197.243  0.00  0.00     0.174 HD
ATOM     68  HE  ARG d  13    1216.206 352.333-1199.437  0.00  0.00     0.177 HD
ENDBRANCH  59  60
ENDBRANCH  58  59
ENDBRANCH  57  58
ENDBRANCH  20  57
ENDBRANCH  18  20
ENDBRANCH  15  16
BRANCH  15  69
ATOM     69  CB  GLN d  12    1207.319 353.361-1201.582  0.00  0.00     0.044 C 
BRANCH  69  70
ATOM     70  CG  GLN d  12    1207.451 354.912-1201.429  0.00  0.00     0.105 C 
BRANCH  70  71
ATOM     71  CD  GLN d  12    1206.814 355.600-1200.215  0.00  0.00     0.215 C 
ATOM     72  NE2 GLN d  12    1206.157 354.892-1199.332  0.00  0.00    -0.370 N 
ATOM     73 21HE GLN d  12    1205.821 355.416-1198.522  0.00  0.00     0.159 HD
ATOM     74 22HE GLN d  12    1206.157 353.884-1199.500  0.00  0.00     0.159 HD
ATOM     75  OE1 GLN d  12    1206.928 356.803-1200.040  0.00  0.00    -0.274 OA
ENDBRANCH  70  71
ENDBRANCH  69  70
ENDBRANCH  15  69
ENDBRANCH  13  15
ENDBRANCH  10  11
BRANCH  10  76
ATOM     76  CB  VAL d  11    1206.553 348.788-1204.254  0.00  0.00     0.009 C 
ATOM     77  CG1 VAL d  11    1206.129 349.487-1205.575  0.00  0.00     0.012 C 
ATOM     78  CG2 VAL d  11    1206.259 347.285-1204.477  0.00  0.00     0.012 C 
ENDBRANCH  10  76
ENDBRANCH   8  10
ENDBRANCH   5   6
BRANCH   5  79
ATOM     79  CB  HIS d  10    1209.589 346.524-1200.530  0.00  0.00     0.095 C 
BRANCH  79  80
ATOM     80  CG  HIS d  10    1210.884 345.971-1200.012  0.00  0.00     0.053 A 
ATOM     81  CD2 HIS d  10    1211.068 345.610-1198.684  0.00  0.00     0.116 A 
ATOM     82  NE2 HIS d  10    1212.351 345.148-1198.545  0.00  0.00    -0.359 N 
ATOM     83  CE1 HIS d  10    1212.848 345.267-1199.806  0.00  0.00     0.207 A 
ATOM     84  2HE HIS d  10    1212.816 344.801-1197.693  0.00  0.00     0.166 HD
ATOM     85  ND1 HIS d  10    1212.036 345.751-1200.764  0.00  0.00    -0.247 NA
ENDBRANCH  79  80
ENDBRANCH   5  79
ENDBRANCH   3   5
BRANCH   1  86
ATOM     86  CA  GLU d   9    1206.946 349.959-1198.479  0.00  0.00     0.177 C 
BRANCH  86  87
ATOM     87  N   GLU d   9    1205.780 349.141-1198.801  0.00  0.00    -0.346 N 
ATOM     88  C   PRO d   8    1205.309 349.169-1200.002  0.00  0.00     0.241 C 
ATOM     89  O   PRO d   8    1205.845 349.878-1200.853  0.00  0.00    -0.271 OA
ATOM     90  H   GLU d   9    1205.348 348.563-1198.095  0.00  0.00     0.163 HD
BRANCH  88  91
ATOM     91  CA  PRO d   8    1204.081 348.314-1200.360  0.00  0.00     0.179 C 
ATOM     92  N   PRO d   8    1204.215 346.951-1199.869  0.00  0.00    -0.337 N 
ATOM     93  C   LEU d   7    1205.053 346.110-1200.376  0.00  0.00     0.243 C 
ATOM     94  CD  PRO d   8    1203.339 346.609-1198.770  0.00  0.00     0.127 C 
ATOM     95  O   LEU d   7    1205.773 346.473-1201.318  0.00  0.00    -0.271 OA
ATOM     96  CG  PRO d   8    1202.792 347.974-1198.347  0.00  0.00     0.022 C 
ATOM     97  CB  PRO d   8    1202.799 348.780-1199.655  0.00  0.00     0.037 C 
BRANCH  93  98
ATOM     98  CA  LEU d   7    1205.125 344.715-1199.804  0.00  0.00     0.177 C 
BRANCH  98  99
ATOM     99  N   LEU d   7    1205.180 344.751-1198.345  0.00  0.00    -0.346 N 
ATOM    100  C   ILE d   6    1206.126 345.414-1197.771  0.00  0.00     0.241 C 
ATOM    101  O   ILE d   6    1206.961 346.002-1198.475  0.00  0.00    -0.271 OA
ATOM    102  H   LEU d   7    1204.489 344.263-1197.794  0.00  0.00     0.163 HD
BRANCH 100 103
ATOM    103  CA  ILE d   6    1206.184 345.451-1196.264  0.00  0.00     0.180 C 
BRANCH 103 104
ATOM    104  N   ILE d   6    1204.871 345.746-1195.697  0.00  0.00    -0.346 N 
ATOM    105  C   SER d   5    1204.266 346.829-1196.051  0.00  0.00     0.243 C 
ATOM    106  O   SER d   5    1204.813 347.583-1196.856  0.00  0.00    -0.271 OA
ATOM    107  H   ILE d   6    1204.442 345.112-1195.038  0.00  0.00     0.163 HD
BRANCH 105 108
ATOM    108  CA  SER d   5    1202.907 347.135-1195.465  0.00  0.00     0.200 C 
BRANCH 108 109
ATOM    109  N   SER d   5    1202.038 345.963-1195.524  0.00  0.00    -0.344 N 
ATOM    110  C   GLU d   4    1201.810 345.410-1196.667  0.00  0.00     0.241 C 
ATOM    111  O   GLU d   4    1202.336 345.890-1197.682  0.00  0.00    -0.271 OA
ATOM    112  H   SER d   5    1201.621 345.591-1194.682  0.00  0.00     0.163 HD
BRANCH 110 113
ATOM    113  CA  GLU d   4    1200.911 344.199-1196.728  0.00  0.00     0.177 C 
BRANCH 113 114
ATOM    114  N   GLU d   4    1201.271 343.228-1195.699  0.00  0.00    -0.346 N 
ATOM    115  C   PRO d   3    1202.476 342.768-1195.666  0.00  0.00     0.241 C 
ATOM    116  O   PRO d   3    1203.299 343.151-1196.498  0.00  0.00    -0.271 OA
ATOM    117  H   GLU d   4    1200.587 342.921-1195.022  0.00  0.00     0.163 HD
BRANCH 115 118
ATOM    118  CA  PRO d   3    1202.874 341.745-1194.589  0.00  0.00     0.179 C 
ATOM    119  N   PRO d   3    1202.422 342.154-1193.268  0.00  0.00    -0.337 N 
ATOM    120  C   ASN d   2    1202.944 343.149-1192.634  0.00  0.00     0.243 C 
ATOM    121  CD  PRO d   3    1201.344 341.361-1192.719  0.00  0.00     0.127 C 
ATOM    122  O   ASN d   2    1203.858 343.780-1193.163  0.00  0.00    -0.271 OA
ATOM    123  CG  PRO d   3    1200.887 340.542-1193.929  0.00  0.00     0.022 C 
ATOM    124  CB  PRO d   3    1202.170 340.390-1194.759  0.00  0.00     0.037 C 
BRANCH 120 125
ATOM    125  CA  ASN d   2    1202.413 343.505-1191.265  0.00  0.00     0.185 C 
BRANCH 125 126
ATOM    126  N   ASN d   2    1200.953 343.543-1191.265  0.00  0.00    -0.346 N 
ATOM    127  C   GLU d   1    1200.349 344.329-1192.090  0.00  0.00     0.242 C 
ATOM    128  O   GLU d   1    1201.025 345.028-1192.859  0.00  0.00    -0.271 OA
ATOM    129  H   ASN d   2    1200.425 342.964-1190.629  0.00  0.00     0.163 HD
BRANCH 127 130
ATOM    130  CA  GLU d   1    1198.840 344.369-1192.090  0.00  0.00     0.191 C 
BRANCH 130 131
ATOM    131  N   GLU d   1    1198.281 343.020-1192.090  0.00  0.00    -0.326 NA
ATOM    132  H   GLU d   1    1198.908 342.141-1192.090  0.00  0.00     0.180 HD
ENDBRANCH 130 131
BRANCH 130 133
ATOM    133  CB  GLU d   1    1198.317 345.154-1190.853  0.00  0.00     0.047 C 
BRANCH 133 134
ATOM    134  CG  GLU d   1    1198.792 346.639-1190.742  0.00  0.00     0.116 C 
BRANCH 134 135
ATOM    135  CD  GLU d   1    1198.368 347.443-1189.527  0.00  0.00     0.172 C 
ATOM    136  OE1 GLU d   1    1197.640 346.941-1188.649  0.00  0.00    -0.648 OA
ATOM    137  OE2 GLU d   1    1198.798 348.613-1189.455  0.00  0.00    -0.648 OA
ENDBRANCH 134 135
ENDBRANCH 133 134
ENDBRANCH 130 133
ENDBRANCH 127 130
ENDBRANCH 125 126
BRANCH 125 138
ATOM    138  CB  ASN d   2    1202.905 342.482-1190.201  0.00  0.00     0.137 C 
BRANCH 138 139
ATOM    139  CG  ASN d   2    1202.442 342.706-1188.757  0.00  0.00     0.217 C 
ATOM    140  ND2 ASN d   2    1203.036 343.620-1188.039  0.00  0.00    -0.370 N 
ATOM    141 21HD ASN d   2    1202.555 343.793-1187.153  0.00  0.00     0.159 HD
ATOM    142 22HD ASN d   2    1203.737 344.192-1188.509  0.00  0.00     0.159 HD
ATOM    143  OD1 ASN d   2    1201.521 342.072-1188.263  0.00  0.00    -0.274 OA
ENDBRANCH 138 139
ENDBRANCH 125 138
ENDBRANCH 120 125
ENDBRANCH 115 118
ENDBRANCH 113 114
BRANCH 113 144
ATOM    144  CB  GLU d   4    1199.423 344.618-1196.558  0.00  0.00     0.045 C 
BRANCH 144 145
ATOM    145  CG  GLU d   4    1198.874 345.621-1197.623  0.00  0.00     0.116 C 
BRANCH 145 146
ATOM    146  CD  GLU d   4    1197.448 346.118-1197.479  0.00  0.00     0.172 C 
ATOM    147  OE1 GLU d   4    1196.722 345.720-1196.548  0.00  0.00    -0.648 OA
ATOM    148  OE2 GLU d   4    1197.058 346.947-1198.328  0.00  0.00    -0.648 OA
ENDBRANCH 145 146
ENDBRANCH 144 145
ENDBRANCH 113 144
ENDBRANCH 110 113
ENDBRANCH 108 109
BRANCH 108 149
ATOM    149  CB  SER d   5    1203.019 347.667-1194.015  0.00  0.00     0.199 C 
BRANCH 149 150
ATOM    150  OG  SER d   5    1203.751 346.787-1193.154  0.00  0.00    -0.398 OA
ATOM    151  HG  SER d   5    1203.262 345.962-1193.103  0.00  0.00     0.209 HD
ENDBRANCH 149 150
ENDBRANCH 108 149
ENDBRANCH 105 108
ENDBRANCH 103 104
BRANCH 103 152
ATOM    152  CB  ILE d   6    1206.783 344.115-1195.664  0.00  0.00     0.013 C 
ATOM    153  CG2 ILE d   6    1208.225 343.814-1196.179  0.00  0.00     0.012 C 
BRANCH 152 154
ATOM    154  CG1 ILE d   6    1206.803 344.053-1194.103  0.00  0.00     0.002 C 
ATOM    155  CD1 ILE d   6    1207.073 342.664-1193.488  0.00  0.00     0.005 C 
ENDBRANCH 152 154
ENDBRANCH 103 152
ENDBRANCH 100 103
ENDBRANCH  98  99
BRANCH  98 156
ATOM    156  CB  LEU d   7    1203.922 343.854-1200.284  0.00  0.00     0.038 C 
BRANCH 156 157
ATOM    157  CG  LEU d   7    1203.850 342.375-1199.818  0.00  0.00    -0.020 C 
ATOM    158  CD1 LEU d   7    1202.660 341.669-1200.483  0.00  0.00     0.009 C 
ATOM    159  CD2 LEU d   7    1205.143 341.596-1200.110  0.00  0.00     0.009 C 
ENDBRANCH 156 157
ENDBRANCH  98 156
ENDBRANCH  93  98
ENDBRANCH  88  91
ENDBRANCH  86  87
BRANCH  86 160
ATOM    160  CB  GLU d   9    1207.338 349.751-1196.989  0.00  0.00     0.045 C 
BRANCH 160 161
ATOM    161  CG  GLU d   9    1208.545 350.603-1196.479  0.00  0.00     0.116 C 
BRANCH 161 162
ATOM    162  CD  GLU d   9    1209.018 350.403-1195.052  0.00  0.00     0.172 C 
ATOM    163  OE1 GLU d   9    1208.445 349.596-1194.294  0.00  0.00    -0.648 OA
ATOM    164  OE2 GLU d   9    1210.009 351.073-1194.693  0.00  0.00    -0.648 OA
ENDBRANCH 161 162
ENDBRANCH 160 161
ENDBRANCH  86 160
ENDBRANCH   1  86
TORSDOF 65
