REMARK WARNING: 32 MAX_TORS EXCEEDED!!!
REMARK  67 active torsions:
REMARK  status: ('A' for Active; 'I' for Inactive)
REMARK    1  A    between atoms: N_1  and  CA_2 
REMARK    2  A    between atoms: CA_2  and  C_3 
REMARK    3  A    between atoms: CA_2  and  CB_5 
REMARK       I    between atoms: C_3  and  N_11 
REMARK    4  A    between atoms: CB_5  and  CG_6 
REMARK    5  A    between atoms: CG_6  and  CD_7 
REMARK    6  A    between atoms: N_11  and  CA_12 
REMARK    7  A    between atoms: CA_12  and  C_13 
REMARK    8  A    between atoms: CA_12  and  CB_15 
REMARK       I    between atoms: C_13  and  N_22 
REMARK    9  A    between atoms: CB_15  and  CG_16 
REMARK       I    between atoms: CG_16  and  ND2_17 
REMARK   10  A    between atoms: CA_23  and  C_24 
REMARK       I    between atoms: C_24  and  N_29 
REMARK   11  A    between atoms: N_29  and  CA_30 
REMARK   12  A    between atoms: CA_30  and  C_31 
REMARK   13  A    between atoms: CA_30  and  CB_33 
REMARK       I    between atoms: C_31  and  N_39 
REMARK   14  A    between atoms: CB_33  and  CG_34 
REMARK   15  A    between atoms: CG_34  and  CD_35 
REMARK   16  A    between atoms: N_39  and  CA_40 
REMARK   17  A    between atoms: CA_40  and  C_41 
REMARK   18  A    between atoms: CA_40  and  CB_43 
REMARK       I    between atoms: C_41  and  N_47 
REMARK   19  A    between atoms: CB_43  and  OG_44 
REMARK   20  A    between atoms: N_47  and  CA_48 
REMARK   21  A    between atoms: CA_48  and  C_49 
REMARK   22  A    between atoms: CA_48  and  CB_51 
REMARK       I    between atoms: C_49  and  N_56 
REMARK   23  A    between atoms: CB_51  and  CG1_52 
REMARK   24  A    between atoms: N_56  and  CA_57 
REMARK   25  A    between atoms: CA_57  and  C_58 
REMARK   26  A    between atoms: CA_57  and  CB_60 
REMARK       I    between atoms: C_58  and  N_65 
REMARK   27  A    between atoms: CB_60  and  CG_61 
REMARK   28  A    between atoms: N_65  and  CA_66 
REMARK   29  A    between atoms: CA_66  and  C_67 
REMARK   30  A    between atoms: CA_66  and  CB_69 
REMARK       I    between atoms: C_67  and  N_74 
REMARK   31  A    between atoms: CB_69  and  CG_70 
REMARK   32  A    between atoms: N_74  and  CA_75 
REMARK   33  A    between atoms: CA_75  and  C_76 
REMARK   34  A    between atoms: CA_75  and  CB_78 
REMARK       I    between atoms: C_76  and  N_84 
REMARK   35  A    between atoms: CB_78  and  CG_79 
REMARK   36  A    between atoms: CG_79  and  CD_80 
REMARK   37  A    between atoms: N_84  and  CA_85 
REMARK   38  A    between atoms: CA_85  and  C_86 
REMARK   39  A    between atoms: CA_85  and  CB_88 
REMARK       I    between atoms: C_86  and  N_96 
REMARK   40  A    between atoms: CB_88  and  CG_89 
REMARK   41  A    between atoms: N_96  and  CA_97 
REMARK   42  A    between atoms: CA_97  and  C_98 
REMARK   43  A    between atoms: CA_97  and  CB_100 
REMARK       I    between atoms: C_98  and  N_104 
REMARK   44  A    between atoms: N_104  and  CA_105 
REMARK   45  A    between atoms: CA_105  and  C_106 
REMARK   46  A    between atoms: CA_105  and  CB_108 
REMARK       I    between atoms: C_106  and  N_116 
REMARK   47  A    between atoms: CB_108  and  CG_109 
REMARK   48  A    between atoms: N_116  and  CA_117 
REMARK   49  A    between atoms: CA_117  and  C_118 
REMARK   50  A    between atoms: CA_117  and  CB_120 
REMARK       I    between atoms: C_118  and  N_133 
REMARK   51  A    between atoms: CB_120  and  CG_121 
REMARK   52  A    between atoms: CG_121  and  CD_122 
REMARK   53  A    between atoms: CD_122  and  NE_123 
REMARK       I    between atoms: NE_123  and  CZ_124 
REMARK       I    between atoms: CZ_124  and  NH1_125 
REMARK       I    between atoms: CZ_124  and  NH2_126 
REMARK   54  A    between atoms: N_133  and  CA_134 
REMARK   55  A    between atoms: CA_134  and  C_135 
REMARK   56  A    between atoms: CA_134  and  CB_137 
REMARK       I    between atoms: C_135  and  N_141 
REMARK   57  A    between atoms: N_141  and  CA_142 
REMARK   58  A    between atoms: CA_142  and  C_143 
REMARK   59  A    between atoms: CA_142  and  CB_145 
REMARK       I    between atoms: C_143  and  N_150 
REMARK   60  A    between atoms: CB_145  and  CG_146 
REMARK   61  A    between atoms: CG_146  and  SD_147 
REMARK   62  A    between atoms: N_150  and  CA_151 
REMARK   63  A    between atoms: CA_151  and  C_152 
REMARK   64  A    between atoms: CA_151  and  CB_154 
REMARK   65  A    between atoms: CB_154  and  CG_155 
REMARK   66  A    between atoms: CG_155  and  CD_156 
REMARK   67  A    between atoms: CD_156  and  NE_157 
REMARK       I    between atoms: NE_157  and  CZ_158 
REMARK       I    between atoms: CZ_158  and  NH1_159 
ROOT
ATOM      1  C   GLU d   9    1913.252 579.256-1963.980  0.00  0.00     0.241 C 
ATOM      2  O   GLU d   9    1913.916 580.011-1964.705  0.00  0.00    -0.271 OA
ATOM      3  N   HIS d  10    1913.349 577.981-1964.150  0.00  0.00    -0.346 N 
ATOM      4  H   HIS d  10    1912.819 577.345-1963.572  0.00  0.00     0.163 HD
ENDROOT
BRANCH   1   5
ATOM      5  CA  GLU d   9    1912.334 579.783-1962.904  0.00  0.00     0.177 C 
BRANCH   5   6
ATOM      6  N   GLU d   9    1911.032 579.125-1962.960  0.00  0.00    -0.346 N 
ATOM      7  C   ASP d   8    1910.352 579.175-1964.055  0.00  0.00     0.241 C 
ATOM      8  O   ASP d   8    1910.824 579.780-1965.030  0.00  0.00    -0.271 OA
ATOM      9  H   GLU d   9    1910.668 578.638-1962.153  0.00  0.00     0.163 HD
BRANCH   7  10
ATOM     10  CA  ASP d   8    1909.005 578.495-1964.112  0.00  0.00     0.186 C 
BRANCH  10  11
ATOM     11  N   ASP d   8    1909.076 577.145-1963.559  0.00  0.00    -0.346 N 
ATOM     12  C   LEU d   7    1909.913 576.305-1964.065  0.00  0.00     0.241 C 
ATOM     13  O   LEU d   7    1910.634 576.668-1965.007  0.00  0.00    -0.271 OA
ATOM     14  H   ASP d   8    1908.478 576.874-1962.792  0.00  0.00     0.163 HD
BRANCH  12  15
ATOM     15  CA  LEU d   7    1909.986 574.910-1963.493  0.00  0.00     0.177 C 
BRANCH  15  16
ATOM     16  N   LEU d   7    1910.041 574.946-1962.034  0.00  0.00    -0.346 N 
ATOM     17  C   ILE d   6    1910.987 575.609-1961.461  0.00  0.00     0.241 C 
ATOM     18  O   ILE d   6    1911.821 576.197-1962.165  0.00  0.00    -0.271 OA
ATOM     19  H   LEU d   7    1909.349 574.458-1961.483  0.00  0.00     0.163 HD
BRANCH  17  20
ATOM     20  CA  ILE d   6    1911.044 575.647-1959.953  0.00  0.00     0.180 C 
BRANCH  20  21
ATOM     21  N   ILE d   6    1909.731 575.942-1959.387  0.00  0.00    -0.346 N 
ATOM     22  C   SER d   5    1909.126 577.025-1959.741  0.00  0.00     0.243 C 
ATOM     23  O   SER d   5    1909.673 577.778-1960.546  0.00  0.00    -0.271 OA
ATOM     24  H   ILE d   6    1909.303 575.307-1958.728  0.00  0.00     0.163 HD
BRANCH  22  25
ATOM     25  CA  SER d   5    1907.767 577.330-1959.155  0.00  0.00     0.200 C 
BRANCH  25  26
ATOM     26  N   SER d   5    1906.898 576.159-1959.214  0.00  0.00    -0.344 N 
ATOM     27  C   GLU d   4    1906.670 575.606-1960.357  0.00  0.00     0.241 C 
ATOM     28  O   GLU d   4    1907.197 576.086-1961.372  0.00  0.00    -0.271 OA
ATOM     29  H   SER d   5    1906.481 575.787-1958.372  0.00  0.00     0.163 HD
BRANCH  27  30
ATOM     30  CA  GLU d   4    1905.771 574.395-1960.418  0.00  0.00     0.177 C 
BRANCH  30  31
ATOM     31  N   GLU d   4    1906.131 573.424-1959.388  0.00  0.00    -0.346 N 
ATOM     32  C   PRO d   3    1907.336 572.964-1959.356  0.00  0.00     0.241 C 
ATOM     33  O   PRO d   3    1908.159 573.347-1960.188  0.00  0.00    -0.271 OA
ATOM     34  H   GLU d   4    1905.447 573.117-1958.712  0.00  0.00     0.163 HD
BRANCH  32  35
ATOM     35  CA  PRO d   3    1907.734 571.941-1958.279  0.00  0.00     0.179 C 
ATOM     36  N   PRO d   3    1907.282 572.350-1956.958  0.00  0.00    -0.337 N 
ATOM     37  C   ASN d   2    1907.803 573.345-1956.324  0.00  0.00     0.243 C 
ATOM     38  CD  PRO d   3    1906.204 571.557-1956.409  0.00  0.00     0.127 C 
ATOM     39  O   ASN d   2    1908.718 573.975-1956.852  0.00  0.00    -0.271 OA
ATOM     40  CG  PRO d   3    1905.746 570.738-1957.618  0.00  0.00     0.022 C 
ATOM     41  CB  PRO d   3    1907.030 570.586-1958.449  0.00  0.00     0.037 C 
BRANCH  37  42
ATOM     42  CA  ASN d   2    1907.272 573.700-1954.955  0.00  0.00     0.185 C 
BRANCH  42  43
ATOM     43  N   ASN d   2    1905.813 573.739-1954.955  0.00  0.00    -0.346 N 
ATOM     44  C   GLU d   1    1905.208 574.525-1955.780  0.00  0.00     0.242 C 
ATOM     45  O   GLU d   1    1905.884 575.224-1956.549  0.00  0.00    -0.271 OA
ATOM     46  H   ASN d   2    1905.285 573.159-1954.319  0.00  0.00     0.163 HD
BRANCH  44  47
ATOM     47  CA  GLU d   1    1903.699 574.565-1955.780  0.00  0.00     0.191 C 
BRANCH  47  48
ATOM     48  N   GLU d   1    1903.140 573.216-1955.780  0.00  0.00    -0.326 NA
ATOM     49  H   GLU d   1    1903.767 572.337-1955.780  0.00  0.00     0.180 HD
ENDBRANCH  47  48
BRANCH  47  50
ATOM     50  CB  GLU d   1    1903.176 575.350-1954.543  0.00  0.00     0.047 C 
BRANCH  50  51
ATOM     51  CG  GLU d   1    1903.651 576.835-1954.432  0.00  0.00     0.116 C 
BRANCH  51  52
ATOM     52  CD  GLU d   1    1903.227 577.639-1953.217  0.00  0.00     0.172 C 
ATOM     53  OE1 GLU d   1    1902.499 577.137-1952.339  0.00  0.00    -0.648 OA
ATOM     54  OE2 GLU d   1    1903.657 578.809-1953.145  0.00  0.00    -0.648 OA
ENDBRANCH  51  52
ENDBRANCH  50  51
ENDBRANCH  47  50
ENDBRANCH  44  47
ENDBRANCH  42  43
BRANCH  42  55
ATOM     55  CB  ASN d   2    1907.764 572.677-1953.891  0.00  0.00     0.137 C 
BRANCH  55  56
ATOM     56  CG  ASN d   2    1907.301 572.901-1952.447  0.00  0.00     0.217 C 
ATOM     57  ND2 ASN d   2    1907.895 573.816-1951.729  0.00  0.00    -0.370 N 
ATOM     58 21HD ASN d   2    1907.415 573.989-1950.843  0.00  0.00     0.159 HD
ATOM     59 22HD ASN d   2    1908.597 574.388-1952.198  0.00  0.00     0.159 HD
ATOM     60  OD1 ASN d   2    1906.380 572.268-1951.953  0.00  0.00    -0.274 OA
ENDBRANCH  55  56
ENDBRANCH  42  55
ENDBRANCH  37  42
ENDBRANCH  32  35
ENDBRANCH  30  31
BRANCH  30  61
ATOM     61  CB  GLU d   4    1904.283 574.814-1960.248  0.00  0.00     0.045 C 
BRANCH  61  62
ATOM     62  CG  GLU d   4    1903.735 575.817-1961.313  0.00  0.00     0.116 C 
BRANCH  62  63
ATOM     63  CD  GLU d   4    1902.308 576.314-1961.170  0.00  0.00     0.172 C 
ATOM     64  OE1 GLU d   4    1901.582 575.916-1960.239  0.00  0.00    -0.648 OA
ATOM     65  OE2 GLU d   4    1901.918 577.143-1962.018  0.00  0.00    -0.648 OA
ENDBRANCH  62  63
ENDBRANCH  61  62
ENDBRANCH  30  61
ENDBRANCH  27  30
ENDBRANCH  25  26
BRANCH  25  66
ATOM     66  CB  SER d   5    1907.879 577.862-1957.705  0.00  0.00     0.199 C 
BRANCH  66  67
ATOM     67  OG  SER d   5    1908.610 576.983-1956.844  0.00  0.00    -0.398 OA
ATOM     68  HG  SER d   5    1908.122 576.158-1956.793  0.00  0.00     0.209 HD
ENDBRANCH  66  67
ENDBRANCH  25  66
ENDBRANCH  22  25
ENDBRANCH  20  21
BRANCH  20  69
ATOM     69  CB  ILE d   6    1911.644 574.311-1959.353  0.00  0.00     0.013 C 
ATOM     70  CG2 ILE d   6    1913.085 574.009-1959.868  0.00  0.00     0.012 C 
BRANCH  69  71
ATOM     71  CG1 ILE d   6    1911.663 574.249-1957.792  0.00  0.00     0.002 C 
ATOM     72  CD1 ILE d   6    1911.933 572.859-1957.177  0.00  0.00     0.005 C 
ENDBRANCH  69  71
ENDBRANCH  20  69
ENDBRANCH  17  20
ENDBRANCH  15  16
BRANCH  15  73
ATOM     73  CB  LEU d   7    1908.783 574.049-1963.973  0.00  0.00     0.038 C 
BRANCH  73  74
ATOM     74  CG  LEU d   7    1908.711 572.570-1963.507  0.00  0.00    -0.020 C 
ATOM     75  CD1 LEU d   7    1907.521 571.864-1964.172  0.00  0.00     0.009 C 
ATOM     76  CD2 LEU d   7    1910.004 571.791-1963.798  0.00  0.00     0.009 C 
ENDBRANCH  73  74
ENDBRANCH  15  73
ENDBRANCH  12  15
ENDBRANCH  10  11
BRANCH  10  77
ATOM     77  CB  ASP d   8    1907.927 579.333-1963.371  0.00  0.00     0.147 C 
BRANCH  77  78
ATOM     78  CG  ASP d   8    1907.708 580.754-1963.911  0.00  0.00     0.175 C 
ATOM     79  OD1 ASP d   8    1907.772 580.954-1965.141  0.00  0.00    -0.648 OA
ATOM     80  OD2 ASP d   8    1907.516 581.680-1963.095  0.00  0.00    -0.648 OA
ENDBRANCH  77  78
ENDBRANCH  10  77
ENDBRANCH   7  10
ENDBRANCH   5   6
BRANCH   5  81
ATOM     81  CB  GLU d   9    1912.968 579.575-1961.499  0.00  0.00     0.045 C 
BRANCH  81  82
ATOM     82  CG  GLU d   9    1914.350 580.268-1961.269  0.00  0.00     0.116 C 
BRANCH  82  83
ATOM     83  CD  GLU d   9    1915.052 580.055-1959.941  0.00  0.00     0.172 C 
ATOM     84  OE1 GLU d   9    1914.530 579.363-1959.045  0.00  0.00    -0.648 OA
ATOM     85  OE2 GLU d   9    1916.170 580.593-1959.809  0.00  0.00    -0.648 OA
ENDBRANCH  82  83
ENDBRANCH  81  82
ENDBRANCH   5  81
ENDBRANCH   1   5
BRANCH   3  86
ATOM     86  CA  HIS d  10    1914.238 577.470-1965.190  0.00  0.00     0.182 C 
BRANCH  86  87
ATOM     87  C   HIS d  10    1913.871 578.035-1966.541  0.00  0.00     0.241 C 
ATOM     88  O   HIS d  10    1914.723 578.500-1967.313  0.00  0.00    -0.271 OA
ATOM     89  N   VAL d  11    1912.633 578.034-1966.904  0.00  0.00    -0.346 N 
ATOM     90  H   VAL d  11    1911.920 577.660-1966.294  0.00  0.00     0.163 HD
BRANCH  89  91
ATOM     91  CA  VAL d  11    1912.278 578.580-1968.211  0.00  0.00     0.180 C 
BRANCH  91  92
ATOM     92  C   VAL d  11    1912.742 580.011-1968.343  0.00  0.00     0.241 C 
ATOM     93  O   VAL d  11    1913.343 580.416-1969.346  0.00  0.00    -0.271 OA
ATOM     94  N   PHE d  12    1912.504 580.836-1967.380  0.00  0.00    -0.346 N 
ATOM     95  H   PHE d  12    1912.015 580.529-1966.552  0.00  0.00     0.163 HD
BRANCH  94  96
ATOM     96  CA  PHE d  12    1912.953 582.219-1967.507  0.00  0.00     0.180 C 
BRANCH  96  97
ATOM     97  C   PHE d  12    1914.443 582.287-1967.745  0.00  0.00     0.241 C 
ATOM     98  O   PHE d  12    1914.943 583.015-1968.647  0.00  0.00    -0.271 OA
ATOM     99  N   ARG d  13    1915.227 581.580-1967.004  0.00  0.00    -0.346 N 
ATOM    100  H   ARG d  13    1914.851 580.990-1966.276  0.00  0.00     0.163 HD
BRANCH  99 101
ATOM    101  CA  ARG d  13    1916.667 581.646-1967.234  0.00  0.00     0.176 C 
BRANCH 101 102
ATOM    102  C   ARG d  13    1917.004 581.275-1968.659  0.00  0.00     0.241 C 
ATOM    103  O   ARG d  13    1917.773 581.947-1969.343  0.00  0.00    -0.271 OA
ATOM    104  N   VAL d  14    1916.468 580.221-1969.174  0.00  0.00    -0.346 N 
ATOM    105  H   VAL d  14    1915.833 579.652-1968.633  0.00  0.00     0.163 HD
BRANCH 104 106
ATOM    106  CA  VAL d  14    1916.793 579.862-1970.552  0.00  0.00     0.180 C 
BRANCH 106 107
ATOM    107  C   VAL d  14    1916.464 580.992-1971.497  0.00  0.00     0.241 C 
ATOM    108  O   VAL d  14    1917.258 581.374-1972.366  0.00  0.00    -0.271 OA
ATOM    109  N   MET d  15    1915.319 581.578-1971.396  0.00  0.00    -0.346 N 
ATOM    110  H   MET d  15    1914.654 581.285-1970.694  0.00  0.00     0.163 HD
BRANCH 109 111
ATOM    111  CA  MET d  15    1914.999 582.671-1972.309  0.00  0.00     0.177 C 
BRANCH 111 112
ATOM    112  C   MET d  15    1916.029 583.771-1972.221  0.00  0.00     0.241 C 
ATOM    113  O   MET d  15    1916.532 584.282-1973.233  0.00  0.00    -0.271 OA
ATOM    114  N   ARG d  16    1916.398 584.191-1971.058  0.00  0.00    -0.347 N 
ATOM    115  H   ARG d  16    1916.003 583.791-1970.219  0.00  0.00     0.163 HD
BRANCH 114 116
ATOM    116  CA  ARG d  16    1917.394 585.255-1970.974  0.00  0.00     0.162 C 
BRANCH 116 117
ATOM    117  C   ARG d  16    1918.665 584.863-1971.689  0.00  0.00     0.219 C 
ATOM    118  O   ARG d  16    1918.779 583.786-1972.271  0.00  0.00    -0.287 OA
ENDBRANCH 116 117
BRANCH 116 119
ATOM    119  CB  ARG d  16    1917.663 585.572-1969.475  0.00  0.00     0.035 C 
BRANCH 119 120
ATOM    120  CG  ARG d  16    1918.488 586.861-1969.202  0.00  0.00     0.023 C 
BRANCH 120 121
ATOM    121  CD  ARG d  16    1918.737 587.080-1967.700  0.00  0.00     0.138 C 
BRANCH 121 122
ATOM    122  NE  ARG d  16    1919.513 588.339-1967.498  0.00  0.00    -0.227 N 
ATOM    123  CZ  ARG d  16    1919.904 588.821-1966.322  0.00  0.00     0.665 C 
ATOM    124  NH1 ARG d  16    1919.656 588.236-1965.184  0.00  0.00    -0.235 N 
ATOM    125  NH2 ARG d  16    1920.568 589.933-1966.303  0.00  0.00    -0.235 N 
ATOM    126 11HH ARG d  16    1919.130 587.363-1965.269  0.00  0.00     0.174 HD
ATOM    127 12HH ARG d  16    1919.990 588.671-1964.323  0.00  0.00     0.174 HD
ATOM    128 21HH ARG d  16    1920.754 590.377-1967.205  0.00  0.00     0.174 HD
ATOM    129 22HH ARG d  16    1920.858 590.288-1965.391  0.00  0.00     0.174 HD
ATOM    130  HE  ARG d  16    1919.792 588.920-1968.295  0.00  0.00     0.177 HD
ENDBRANCH 121 122
ENDBRANCH 120 121
ENDBRANCH 119 120
ENDBRANCH 116 119
ENDBRANCH 114 116
ENDBRANCH 111 112
BRANCH 111 131
ATOM    131  CB  MET d  15    1913.578 583.217-1972.001  0.00  0.00     0.045 C 
BRANCH 131 132
ATOM    132  CG  MET d  15    1912.416 582.219-1972.193  0.00  0.00     0.076 C 
BRANCH 132 133
ATOM    133  SD  MET d  15    1910.842 583.085-1972.079  0.00  0.00    -0.173 SA
ATOM    134  CE  MET d  15    1909.760 581.655-1971.944  0.00  0.00     0.089 C 
ENDBRANCH 132 133
ENDBRANCH 131 132
ENDBRANCH 111 131
ENDBRANCH 109 111
ENDBRANCH 106 107
BRANCH 106 135
ATOM    135  CB  VAL d  14    1916.021 578.545-1970.959  0.00  0.00     0.009 C 
ATOM    136  CG1 VAL d  14    1916.111 578.127-1972.453  0.00  0.00     0.012 C 
ATOM    137  CG2 VAL d  14    1916.453 577.292-1970.159  0.00  0.00     0.012 C 
ENDBRANCH 106 135
ENDBRANCH 104 106
ENDBRANCH 101 102
BRANCH 101 138
ATOM    138  CB  ARG d  13    1917.380 580.706-1966.220  0.00  0.00     0.036 C 
BRANCH 138 139
ATOM    139  CG  ARG d  13    1918.925 580.859-1966.139  0.00  0.00     0.023 C 
BRANCH 139 140
ATOM    140  CD  ARG d  13    1919.552 579.872-1965.141  0.00  0.00     0.138 C 
BRANCH 140 141
ATOM    141  NE  ARG d  13    1921.029 580.079-1965.090  0.00  0.00    -0.227 N 
ATOM    142  CZ  ARG d  13    1921.877 579.387-1964.335  0.00  0.00     0.665 C 
ATOM    143  NH1 ARG d  13    1921.512 578.422-1963.538  0.00  0.00    -0.235 N 
ATOM    144  NH2 ARG d  13    1923.137 579.686-1964.391  0.00  0.00    -0.235 N 
ATOM    145 11HH ARG d  13    1920.506 578.236-1963.542  0.00  0.00     0.174 HD
ATOM    146 12HH ARG d  13    1922.225 577.939-1962.989  0.00  0.00     0.174 HD
ATOM    147 21HH ARG d  13    1923.404 580.444-1965.022  0.00  0.00     0.174 HD
ATOM    148 22HH ARG d  13    1923.772 579.144-1963.803  0.00  0.00     0.174 HD
ATOM    149  HE  ARG d  13    1921.481 580.801-1965.661  0.00  0.00     0.177 HD
ENDBRANCH 140 141
ENDBRANCH 139 140
ENDBRANCH 138 139
ENDBRANCH 101 138
ENDBRANCH  99 101
ENDBRANCH  96  97
BRANCH  96 150
ATOM    150  CB  PHE d  12    1912.614 583.012-1966.208  0.00  0.00     0.073 C 
BRANCH 150 151
ATOM    151  CG  PHE d  12    1911.133 583.056-1965.799  0.00  0.00    -0.056 A 
ATOM    152  CD1 PHE d  12    1910.611 582.044-1964.986  0.00  0.00     0.007 A 
ATOM    153  CE1 PHE d  12    1909.255 582.025-1964.674  0.00  0.00     0.001 A 
ATOM    154  CZ  PHE d  12    1908.417 583.027-1965.158  0.00  0.00     0.000 A 
ATOM    155  CE2 PHE d  12    1908.933 584.045-1965.958  0.00  0.00     0.001 A 
ATOM    156  CD2 PHE d  12    1910.287 584.059-1966.280  0.00  0.00     0.007 A 
ENDBRANCH 150 151
ENDBRANCH  96 150
ENDBRANCH  94  96
ENDBRANCH  91  92
BRANCH  91 157
ATOM    157  CB  VAL d  11    1910.717 578.473-1968.431  0.00  0.00     0.009 C 
ATOM    158  CG1 VAL d  11    1910.148 579.177-1969.694  0.00  0.00     0.012 C 
ATOM    159  CG2 VAL d  11    1910.193 577.018-1968.505  0.00  0.00     0.012 C 
ENDBRANCH  91 157
ENDBRANCH  89  91
ENDBRANCH  86  87
BRANCH  86 160
ATOM    160  CB  HIS d  10    1914.074 575.941-1965.186  0.00  0.00     0.095 C 
BRANCH 160 161
ATOM    161  CG  HIS d  10    1915.360 575.231-1964.878  0.00  0.00     0.053 A 
ATOM    162  CD2 HIS d  10    1915.741 574.896-1963.585  0.00  0.00     0.116 A 
ATOM    163  NE2 HIS d  10    1916.956 574.264-1963.652  0.00  0.00    -0.359 N 
ATOM    164  CE1 HIS d  10    1917.219 574.267-1964.987  0.00  0.00     0.207 A 
ATOM    165  2HE HIS d  10    1917.522 573.887-1962.878  0.00  0.00     0.166 HD
ATOM    166  ND1 HIS d  10    1916.312 574.826-1965.810  0.00  0.00    -0.247 NA
ENDBRANCH 160 161
ENDBRANCH  86 160
ENDBRANCH   3  86
TORSDOF 67
