REMARK WARNING: 32 MAX_TORS EXCEEDED!!!
REMARK  68 active torsions:
REMARK  status: ('A' for Active; 'I' for Inactive)
REMARK    1  A    between atoms: N_1  and  CA_2 
REMARK    2  A    between atoms: CA_2  and  C_3 
REMARK    3  A    between atoms: CA_2  and  CB_5 
REMARK       I    between atoms: C_3  and  N_11 
REMARK    4  A    between atoms: CB_5  and  CG_6 
REMARK    5  A    between atoms: CG_6  and  CD_7 
REMARK    6  A    between atoms: N_11  and  CA_12 
REMARK    7  A    between atoms: CA_12  and  C_13 
REMARK    8  A    between atoms: CA_12  and  CB_15 
REMARK       I    between atoms: C_13  and  N_22 
REMARK    9  A    between atoms: CB_15  and  CG_16 
REMARK       I    between atoms: CG_16  and  ND2_17 
REMARK   10  A    between atoms: CA_23  and  C_24 
REMARK       I    between atoms: C_24  and  N_29 
REMARK   11  A    between atoms: N_29  and  CA_30 
REMARK   12  A    between atoms: CA_30  and  C_31 
REMARK   13  A    between atoms: CA_30  and  CB_33 
REMARK       I    between atoms: C_31  and  N_39 
REMARK   14  A    between atoms: CB_33  and  CG_34 
REMARK   15  A    between atoms: CG_34  and  CD_35 
REMARK   16  A    between atoms: N_39  and  CA_40 
REMARK   17  A    between atoms: CA_40  and  C_41 
REMARK   18  A    between atoms: CA_40  and  CB_43 
REMARK       I    between atoms: C_41  and  N_47 
REMARK   19  A    between atoms: CB_43  and  OG_44 
REMARK   20  A    between atoms: N_47  and  CA_48 
REMARK   21  A    between atoms: CA_48  and  C_49 
REMARK   22  A    between atoms: CA_48  and  CB_51 
REMARK       I    between atoms: C_49  and  N_56 
REMARK   23  A    between atoms: CB_51  and  CG1_52 
REMARK   24  A    between atoms: N_56  and  CA_57 
REMARK   25  A    between atoms: CA_57  and  C_58 
REMARK   26  A    between atoms: CA_57  and  CB_60 
REMARK       I    between atoms: C_58  and  N_65 
REMARK   27  A    between atoms: CB_60  and  OG1_62 
REMARK   28  A    between atoms: N_65  and  CA_66 
REMARK   29  A    between atoms: CA_66  and  C_67 
REMARK   30  A    between atoms: CA_66  and  CB_69 
REMARK       I    between atoms: C_67  and  N_74 
REMARK   31  A    between atoms: CB_69  and  CG_70 
REMARK   32  A    between atoms: N_74  and  CA_75 
REMARK   33  A    between atoms: CA_75  and  C_76 
REMARK   34  A    between atoms: CA_75  and  CB_78 
REMARK       I    between atoms: C_76  and  N_84 
REMARK   35  A    between atoms: CB_78  and  CG_79 
REMARK   36  A    between atoms: CG_79  and  CD_80 
REMARK   37  A    between atoms: N_84  and  CA_85 
REMARK   38  A    between atoms: CA_85  and  C_86 
REMARK   39  A    between atoms: CA_85  and  CB_88 
REMARK       I    between atoms: C_86  and  N_96 
REMARK   40  A    between atoms: CB_88  and  CG_89 
REMARK   41  A    between atoms: N_96  and  CA_97 
REMARK   42  A    between atoms: CA_97  and  C_98 
REMARK   43  A    between atoms: CA_97  and  CB_100 
REMARK       I    between atoms: C_98  and  N_104 
REMARK   44  A    between atoms: N_104  and  CA_105 
REMARK   45  A    between atoms: CA_105  and  C_106 
REMARK   46  A    between atoms: CA_105  and  CB_108 
REMARK       I    between atoms: C_106  and  N_116 
REMARK   47  A    between atoms: CB_108  and  CG_109 
REMARK   48  A    between atoms: CG_109  and  CD_110 
REMARK       I    between atoms: CD_110  and  NE2_111 
REMARK   49  A    between atoms: N_116  and  CA_117 
REMARK   50  A    between atoms: CA_117  and  C_118 
REMARK   51  A    between atoms: CA_117  and  CB_120 
REMARK       I    between atoms: C_118  and  N_133 
REMARK   52  A    between atoms: CB_120  and  CG_121 
REMARK   53  A    between atoms: CG_121  and  CD_122 
REMARK   54  A    between atoms: CD_122  and  NE_123 
REMARK       I    between atoms: NE_123  and  CZ_124 
REMARK       I    between atoms: CZ_124  and  NH1_125 
REMARK       I    between atoms: CZ_124  and  NH2_126 
REMARK   55  A    between atoms: N_133  and  CA_134 
REMARK   56  A    between atoms: CA_134  and  C_135 
REMARK   57  A    between atoms: CA_134  and  CB_137 
REMARK       I    between atoms: C_135  and  N_141 
REMARK   58  A    between atoms: N_141  and  CA_142 
REMARK   59  A    between atoms: CA_142  and  C_143 
REMARK   60  A    between atoms: CA_142  and  CB_145 
REMARK       I    between atoms: C_143  and  N_150 
REMARK   61  A    between atoms: CB_145  and  CG_146 
REMARK   62  A    between atoms: CG_146  and  SD_147 
REMARK   63  A    between atoms: N_150  and  CA_151 
REMARK   64  A    between atoms: CA_151  and  C_152 
REMARK   65  A    between atoms: CA_151  and  CB_154 
REMARK   66  A    between atoms: CB_154  and  CG_155 
REMARK   67  A    between atoms: CG_155  and  CD_156 
REMARK   68  A    between atoms: CD_156  and  NE_157 
REMARK       I    between atoms: NE_157  and  CZ_158 
REMARK       I    between atoms: CZ_158  and  NH1_159 
ROOT
ATOM      1  C   GLU d   9    1142.386 327.130-1128.644  0.00  0.00     0.241 C 
ATOM      2  O   GLU d   9    1143.051 327.882-1129.370  0.00  0.00    -0.271 OA
ATOM      3  N   HIS d  10    1142.482 325.854-1128.811  0.00  0.00    -0.346 N 
ATOM      4  H   HIS d  10    1141.951 325.220-1128.232  0.00  0.00     0.163 HD
ENDROOT
BRANCH   1   5
ATOM      5  CA  GLU d   9    1141.468 327.660-1127.569  0.00  0.00     0.177 C 
BRANCH   5   6
ATOM      6  N   GLU d   9    1140.165 327.003-1127.624  0.00  0.00    -0.346 N 
ATOM      7  C   ASP d   8    1139.486 327.051-1128.719  0.00  0.00     0.241 C 
ATOM      8  O   ASP d   8    1139.959 327.654-1129.695  0.00  0.00    -0.271 OA
ATOM      9  H   GLU d   9    1139.802 326.518-1126.816  0.00  0.00     0.163 HD
BRANCH   7  10
ATOM     10  CA  ASP d   8    1138.139 326.372-1128.776  0.00  0.00     0.186 C 
BRANCH  10  11
ATOM     11  N   ASP d   8    1138.208 325.024-1128.220  0.00  0.00    -0.345 N 
ATOM     12  C   THR d   7    1139.045 324.182-1128.725  0.00  0.00     0.243 C 
ATOM     13  O   THR d   7    1139.752 324.534-1129.648  0.00  0.00    -0.271 OA
ATOM     14  H   ASP d   8    1137.610 324.754-1127.452  0.00  0.00     0.163 HD
BRANCH  12  15
ATOM     15  CA  THR d   7    1139.118 322.787-1128.151  0.00  0.00     0.205 C 
BRANCH  15  16
ATOM     16  N   THR d   7    1139.173 322.823-1126.693  0.00  0.00    -0.344 N 
ATOM     17  C   ILE d   6    1140.119 323.486-1126.119  0.00  0.00     0.241 C 
ATOM     18  O   ILE d   6    1140.954 324.074-1126.823  0.00  0.00    -0.271 OA
ATOM     19  H   THR d   7    1138.481 322.336-1126.141  0.00  0.00     0.163 HD
BRANCH  17  20
ATOM     20  CA  ILE d   6    1140.176 323.524-1124.611  0.00  0.00     0.180 C 
BRANCH  20  21
ATOM     21  N   ILE d   6    1138.863 323.818-1124.045  0.00  0.00    -0.346 N 
ATOM     22  C   SER d   5    1138.258 324.901-1124.399  0.00  0.00     0.243 C 
ATOM     23  O   SER d   5    1138.805 325.655-1125.204  0.00  0.00    -0.271 OA
ATOM     24  H   ILE d   6    1138.435 323.184-1123.386  0.00  0.00     0.163 HD
BRANCH  22  25
ATOM     25  CA  SER d   5    1136.900 325.207-1123.813  0.00  0.00     0.200 C 
BRANCH  25  26
ATOM     26  N   SER d   5    1136.030 324.036-1123.872  0.00  0.00    -0.344 N 
ATOM     27  C   GLU d   4    1135.803 323.483-1125.015  0.00  0.00     0.241 C 
ATOM     28  O   GLU d   4    1136.329 323.962-1126.029  0.00  0.00    -0.271 OA
ATOM     29  H   SER d   5    1135.613 323.664-1123.030  0.00  0.00     0.163 HD
BRANCH  27  30
ATOM     30  CA  GLU d   4    1134.904 322.272-1125.076  0.00  0.00     0.177 C 
BRANCH  30  31
ATOM     31  N   GLU d   4    1135.264 321.301-1124.046  0.00  0.00    -0.346 N 
ATOM     32  C   PRO d   3    1136.468 320.840-1124.014  0.00  0.00     0.241 C 
ATOM     33  O   PRO d   3    1137.292 321.224-1124.846  0.00  0.00    -0.271 OA
ATOM     34  H   GLU d   4    1134.579 320.994-1123.370  0.00  0.00     0.163 HD
BRANCH  32  35
ATOM     35  CA  PRO d   3    1136.866 319.817-1122.937  0.00  0.00     0.179 C 
ATOM     36  N   PRO d   3    1136.415 320.226-1121.616  0.00  0.00    -0.337 N 
ATOM     37  C   ASN d   2    1136.936 321.221-1120.982  0.00  0.00     0.243 C 
ATOM     38  CD  PRO d   3    1135.337 319.433-1121.067  0.00  0.00     0.127 C 
ATOM     39  O   ASN d   2    1137.851 321.852-1121.510  0.00  0.00    -0.271 OA
ATOM     40  CG  PRO d   3    1134.879 318.615-1122.276  0.00  0.00     0.022 C 
ATOM     41  CB  PRO d   3    1136.162 318.462-1123.107  0.00  0.00     0.037 C 
BRANCH  37  42
ATOM     42  CA  ASN d   2    1136.405 321.577-1119.613  0.00  0.00     0.185 C 
BRANCH  42  43
ATOM     43  N   ASN d   2    1134.946 321.616-1119.613  0.00  0.00    -0.346 N 
ATOM     44  C   GLU d   1    1134.341 322.401-1120.438  0.00  0.00     0.242 C 
ATOM     45  O   GLU d   1    1135.017 323.100-1121.207  0.00  0.00    -0.271 OA
ATOM     46  H   ASN d   2    1134.418 321.036-1118.976  0.00  0.00     0.163 HD
BRANCH  44  47
ATOM     47  CA  GLU d   1    1132.832 322.441-1120.438  0.00  0.00     0.191 C 
BRANCH  47  48
ATOM     48  N   GLU d   1    1132.273 321.092-1120.438  0.00  0.00    -0.326 NA
ATOM     49  H   GLU d   1    1132.900 320.213-1120.438  0.00  0.00     0.180 HD
ENDBRANCH  47  48
BRANCH  47  50
ATOM     50  CB  GLU d   1    1132.309 323.226-1119.201  0.00  0.00     0.047 C 
BRANCH  50  51
ATOM     51  CG  GLU d   1    1132.784 324.711-1119.090  0.00  0.00     0.116 C 
BRANCH  51  52
ATOM     52  CD  GLU d   1    1132.360 325.515-1117.875  0.00  0.00     0.172 C 
ATOM     53  OE1 GLU d   1    1131.632 325.013-1116.997  0.00  0.00    -0.648 OA
ATOM     54  OE2 GLU d   1    1132.790 326.685-1117.803  0.00  0.00    -0.648 OA
ENDBRANCH  51  52
ENDBRANCH  50  51
ENDBRANCH  47  50
ENDBRANCH  44  47
ENDBRANCH  42  43
BRANCH  42  55
ATOM     55  CB  ASN d   2    1136.897 320.554-1118.549  0.00  0.00     0.137 C 
BRANCH  55  56
ATOM     56  CG  ASN d   2    1136.434 320.778-1117.105  0.00  0.00     0.217 C 
ATOM     57  ND2 ASN d   2    1137.028 321.693-1116.387  0.00  0.00    -0.370 N 
ATOM     58 21HD ASN d   2    1136.548 321.866-1115.501  0.00  0.00     0.159 HD
ATOM     59 22HD ASN d   2    1137.730 322.264-1116.856  0.00  0.00     0.159 HD
ATOM     60  OD1 ASN d   2    1135.513 320.144-1116.611  0.00  0.00    -0.274 OA
ENDBRANCH  55  56
ENDBRANCH  42  55
ENDBRANCH  37  42
ENDBRANCH  32  35
ENDBRANCH  30  31
BRANCH  30  61
ATOM     61  CB  GLU d   4    1133.415 322.690-1124.905  0.00  0.00     0.045 C 
BRANCH  61  62
ATOM     62  CG  GLU d   4    1132.867 323.694-1125.971  0.00  0.00     0.116 C 
BRANCH  62  63
ATOM     63  CD  GLU d   4    1131.440 324.190-1125.827  0.00  0.00     0.172 C 
ATOM     64  OE1 GLU d   4    1130.714 323.792-1124.896  0.00  0.00    -0.648 OA
ATOM     65  OE2 GLU d   4    1131.051 325.020-1126.675  0.00  0.00    -0.648 OA
ENDBRANCH  62  63
ENDBRANCH  61  62
ENDBRANCH  30  61
ENDBRANCH  27  30
ENDBRANCH  25  26
BRANCH  25  66
ATOM     66  CB  SER d   5    1137.011 325.739-1122.363  0.00  0.00     0.199 C 
BRANCH  66  67
ATOM     67  OG  SER d   5    1137.743 324.860-1121.502  0.00  0.00    -0.398 OA
ATOM     68  HG  SER d   5    1137.254 324.035-1121.451  0.00  0.00     0.209 HD
ENDBRANCH  66  67
ENDBRANCH  25  66
ENDBRANCH  22  25
ENDBRANCH  20  21
BRANCH  20  69
ATOM     69  CB  ILE d   6    1140.776 322.188-1124.012  0.00  0.00     0.013 C 
ATOM     70  CG2 ILE d   6    1142.217 321.886-1124.527  0.00  0.00     0.012 C 
BRANCH  69  71
ATOM     71  CG1 ILE d   6    1140.796 322.125-1122.451  0.00  0.00     0.002 C 
ATOM     72  CD1 ILE d   6    1141.066 320.736-1121.836  0.00  0.00     0.005 C 
ENDBRANCH  69  71
ENDBRANCH  20  69
ENDBRANCH  17  20
ENDBRANCH  15  16
BRANCH  15  73
ATOM     73  CB  THR d   7    1137.903 321.925-1128.634  0.00  0.00     0.146 C 
ATOM     74  CG2 THR d   7    1137.713 321.806-1130.162  0.00  0.00     0.042 C 
BRANCH  73  75
ATOM     75  OG1 THR d   7    1138.033 320.583-1128.186  0.00  0.00    -0.393 OA
ATOM     76  1HG THR d   7    1137.227 320.133-1128.453  0.00  0.00     0.210 HD
ENDBRANCH  73  75
ENDBRANCH  15  73
ENDBRANCH  12  15
ENDBRANCH  10  11
BRANCH  10  77
ATOM     77  CB  ASP d   8    1137.061 327.213-1128.036  0.00  0.00     0.147 C 
BRANCH  77  78
ATOM     78  CG  ASP d   8    1136.843 328.633-1128.579  0.00  0.00     0.175 C 
ATOM     79  OD1 ASP d   8    1136.908 328.830-1129.810  0.00  0.00    -0.648 OA
ATOM     80  OD2 ASP d   8    1136.651 329.560-1127.765  0.00  0.00    -0.648 OA
ENDBRANCH  77  78
ENDBRANCH  10  77
ENDBRANCH   7  10
ENDBRANCH   5   6
BRANCH   5  81
ATOM     81  CB  GLU d   9    1142.101 327.454-1126.163  0.00  0.00     0.045 C 
BRANCH  81  82
ATOM     82  CG  GLU d   9    1143.484 328.146-1125.935  0.00  0.00     0.116 C 
BRANCH  82  83
ATOM     83  CD  GLU d   9    1144.185 327.935-1124.606  0.00  0.00     0.172 C 
ATOM     84  OE1 GLU d   9    1143.663 327.245-1123.708  0.00  0.00    -0.648 OA
ATOM     85  OE2 GLU d   9    1145.305 328.472-1124.474  0.00  0.00    -0.648 OA
ENDBRANCH  82  83
ENDBRANCH  81  82
ENDBRANCH   5  81
ENDBRANCH   1   5
BRANCH   3  86
ATOM     86  CA  HIS d  10    1143.370 325.340-1129.850  0.00  0.00     0.182 C 
BRANCH  86  87
ATOM     87  C   HIS d  10    1143.004 325.903-1131.203  0.00  0.00     0.241 C 
ATOM     88  O   HIS d  10    1143.857 326.366-1131.975  0.00  0.00    -0.271 OA
ATOM     89  N   VAL d  11    1141.766 325.902-1131.566  0.00  0.00    -0.346 N 
ATOM     90  H   VAL d  11    1141.053 325.531-1130.955  0.00  0.00     0.163 HD
BRANCH  89  91
ATOM     91  CA  VAL d  11    1141.412 326.446-1132.874  0.00  0.00     0.180 C 
BRANCH  91  92
ATOM     92  C   VAL d  11    1141.877 327.876-1133.009  0.00  0.00     0.241 C 
ATOM     93  O   VAL d  11    1142.478 328.279-1134.012  0.00  0.00    -0.271 OA
ATOM     94  N   GLN d  12    1141.641 328.704-1132.048  0.00  0.00    -0.346 N 
ATOM     95  H   GLN d  12    1141.151 328.400-1131.218  0.00  0.00     0.163 HD
BRANCH  94  96
ATOM     96  CA  GLN d  12    1142.090 330.086-1132.178  0.00  0.00     0.177 C 
BRANCH  96  97
ATOM     97  C   GLN d  12    1143.580 330.152-1132.416  0.00  0.00     0.241 C 
ATOM     98  O   GLN d  12    1144.068 330.858-1133.296  0.00  0.00    -0.271 OA
ATOM     99  N   ARG d  13    1144.364 329.446-1131.673  0.00  0.00    -0.346 N 
ATOM    100  H   ARG d  13    1143.988 328.858-1130.944  0.00  0.00     0.163 HD
BRANCH  99 101
ATOM    101  CA  ARG d  13    1145.805 329.510-1131.904  0.00  0.00     0.176 C 
BRANCH 101 102
ATOM    102  C   ARG d  13    1146.140 329.136-1133.328  0.00  0.00     0.241 C 
ATOM    103  O   ARG d  13    1146.909 329.805-1134.014  0.00  0.00    -0.271 OA
ATOM    104  N   VAL d  14    1145.603 328.080-1133.840  0.00  0.00    -0.346 N 
ATOM    105  H   VAL d  14    1144.968 327.513-1133.297  0.00  0.00     0.163 HD
BRANCH 104 106
ATOM    106  CA  VAL d  14    1145.928 327.718-1135.217  0.00  0.00     0.180 C 
BRANCH 106 107
ATOM    107  C   VAL d  14    1145.599 328.846-1136.165  0.00  0.00     0.241 C 
ATOM    108  O   VAL d  14    1146.392 329.225-1137.036  0.00  0.00    -0.271 OA
ATOM    109  N   MET d  15    1144.454 329.433-1136.065  0.00  0.00    -0.346 N 
ATOM    110  H   MET d  15    1143.789 329.142-1135.363  0.00  0.00     0.163 HD
BRANCH 109 111
ATOM    111  CA  MET d  15    1144.135 330.524-1136.981  0.00  0.00     0.177 C 
BRANCH 111 112
ATOM    112  C   MET d  15    1145.166 331.624-1136.895  0.00  0.00     0.241 C 
ATOM    113  O   MET d  15    1145.669 332.132-1137.909  0.00  0.00    -0.271 OA
ATOM    114  N   ARG d  16    1145.535 332.047-1135.734  0.00  0.00    -0.347 N 
ATOM    115  H   ARG d  16    1145.140 331.649-1134.894  0.00  0.00     0.163 HD
BRANCH 114 116
ATOM    116  CA  ARG d  16    1146.532 333.110-1135.652  0.00  0.00     0.162 C 
BRANCH 116 117
ATOM    117  C   ARG d  16    1147.803 332.715-1136.368  0.00  0.00     0.219 C 
ATOM    118  O   ARG d  16    1147.916 331.637-1136.947  0.00  0.00    -0.287 OA
ENDBRANCH 116 117
BRANCH 116 119
ATOM    119  CB  ARG d  16    1146.801 333.431-1134.154  0.00  0.00     0.035 C 
BRANCH 119 120
ATOM    120  CG  ARG d  16    1147.628 334.720-1133.884  0.00  0.00     0.023 C 
BRANCH 120 121
ATOM    121  CD  ARG d  16    1147.877 334.942-1132.383  0.00  0.00     0.138 C 
BRANCH 121 122
ATOM    122  NE  ARG d  16    1148.654 336.201-1132.185  0.00  0.00    -0.227 N 
ATOM    123  CZ  ARG d  16    1149.046 336.685-1131.010  0.00  0.00     0.665 C 
ATOM    124  NH1 ARG d  16    1148.798 336.103-1129.871  0.00  0.00    -0.235 N 
ATOM    125  NH2 ARG d  16    1149.711 337.797-1130.994  0.00  0.00    -0.235 N 
ATOM    126 11HH ARG d  16    1148.271 335.231-1129.953  0.00  0.00     0.174 HD
ATOM    127 12HH ARG d  16    1149.132 336.541-1129.010  0.00  0.00     0.174 HD
ATOM    128 21HH ARG d  16    1149.897 338.238-1131.897  0.00  0.00     0.174 HD
ATOM    129 22HH ARG d  16    1150.001 338.154-1130.082  0.00  0.00     0.174 HD
ATOM    130  HE  ARG d  16    1148.934 336.780-1132.983  0.00  0.00     0.177 HD
ENDBRANCH 121 122
ENDBRANCH 120 121
ENDBRANCH 119 120
ENDBRANCH 116 119
ENDBRANCH 114 116
ENDBRANCH 111 112
BRANCH 111 131
ATOM    131  CB  MET d  15    1142.714 331.072-1136.673  0.00  0.00     0.045 C 
BRANCH 131 132
ATOM    132  CG  MET d  15    1141.551 330.074-1136.863  0.00  0.00     0.076 C 
BRANCH 132 133
ATOM    133  SD  MET d  15    1139.978 330.941-1136.750  0.00  0.00    -0.173 SA
ATOM    134  CE  MET d  15    1138.896 329.513-1136.610  0.00  0.00     0.089 C 
ENDBRANCH 132 133
ENDBRANCH 131 132
ENDBRANCH 111 131
ENDBRANCH 109 111
ENDBRANCH 106 107
BRANCH 106 135
ATOM    135  CB  VAL d  14    1145.154 326.401-1135.621  0.00  0.00     0.009 C 
ATOM    136  CG1 VAL d  14    1145.243 325.979-1137.114  0.00  0.00     0.012 C 
ATOM    137  CG2 VAL d  14    1145.585 325.150-1134.818  0.00  0.00     0.012 C 
ENDBRANCH 106 135
ENDBRANCH 104 106
ENDBRANCH 101 102
BRANCH 101 138
ATOM    138  CB  ARG d  13    1146.517 328.573-1130.888  0.00  0.00     0.036 C 
BRANCH 138 139
ATOM    139  CG  ARG d  13    1148.062 328.725-1130.807  0.00  0.00     0.023 C 
BRANCH 139 140
ATOM    140  CD  ARG d  13    1148.688 327.739-1129.808  0.00  0.00     0.138 C 
BRANCH 140 141
ATOM    141  NE  ARG d  13    1150.166 327.945-1129.758  0.00  0.00    -0.227 N 
ATOM    142  CZ  ARG d  13    1151.013 327.254-1129.001  0.00  0.00     0.665 C 
ATOM    143  NH1 ARG d  13    1150.647 326.292-1128.202  0.00  0.00    -0.235 N 
ATOM    144  NH2 ARG d  13    1152.273 327.552-1129.059  0.00  0.00    -0.235 N 
ATOM    145 11HH ARG d  13    1149.642 326.106-1128.205  0.00  0.00     0.174 HD
ATOM    146 12HH ARG d  13    1151.360 325.809-1127.652  0.00  0.00     0.174 HD
ATOM    147 21HH ARG d  13    1152.541 328.308-1129.691  0.00  0.00     0.174 HD
ATOM    148 22HH ARG d  13    1152.908 327.011-1128.469  0.00  0.00     0.174 HD
ATOM    149  HE  ARG d  13    1150.617 328.666-1130.330  0.00  0.00     0.177 HD
ENDBRANCH 140 141
ENDBRANCH 139 140
ENDBRANCH 138 139
ENDBRANCH 101 138
ENDBRANCH  99 101
ENDBRANCH  96  97
BRANCH  96 150
ATOM    150  CB  GLN d  12    1141.700 330.856-1130.897  0.00  0.00     0.044 C 
BRANCH 150 151
ATOM    151  CG  GLN d  12    1142.061 332.378-1130.868  0.00  0.00     0.105 C 
BRANCH 151 152
ATOM    152  CD  GLN d  12    1141.759 333.194-1129.605  0.00  0.00     0.215 C 
ATOM    153  NE2 GLN d  12    1141.192 332.620-1128.575  0.00  0.00    -0.370 N 
ATOM    154 21HE GLN d  12    1141.085 333.216-1127.753  0.00  0.00     0.159 HD
ATOM    155 22HE GLN d  12    1141.028 331.617-1128.677  0.00  0.00     0.159 HD
ATOM    156  OE1 GLN d  12    1142.062 334.375-1129.530  0.00  0.00    -0.274 OA
ENDBRANCH 151 152
ENDBRANCH 150 151
ENDBRANCH  96 150
ENDBRANCH  94  96
ENDBRANCH  91  92
BRANCH  91 157
ATOM    157  CB  VAL d  11    1139.850 326.340-1133.094  0.00  0.00     0.009 C 
ATOM    158  CG1 VAL d  11    1139.283 327.042-1134.357  0.00  0.00     0.012 C 
ATOM    159  CG2 VAL d  11    1139.325 324.886-1133.164  0.00  0.00     0.012 C 
ENDBRANCH  91 157
ENDBRANCH  89  91
ENDBRANCH  86  87
BRANCH  86 160
ATOM    160  CB  HIS d  10    1143.205 323.812-1129.843  0.00  0.00     0.095 C 
BRANCH 160 161
ATOM    161  CG  HIS d  10    1144.490 323.101-1129.533  0.00  0.00     0.053 A 
ATOM    162  CD2 HIS d  10    1144.870 322.768-1128.240  0.00  0.00     0.116 A 
ATOM    163  NE2 HIS d  10    1146.084 322.135-1128.305  0.00  0.00    -0.359 N 
ATOM    164  CE1 HIS d  10    1146.347 322.135-1129.640  0.00  0.00     0.207 A 
ATOM    165  2HE HIS d  10    1146.650 321.758-1127.531  0.00  0.00     0.166 HD
ATOM    166  ND1 HIS d  10    1145.442 322.693-1130.465  0.00  0.00    -0.247 NA
ENDBRANCH 160 161
ENDBRANCH  86 160
ENDBRANCH   3  86
TORSDOF 68
