REMARK WARNING: 32 MAX_TORS EXCEEDED!!!
REMARK  68 active torsions:
REMARK  status: ('A' for Active; 'I' for Inactive)
REMARK    1  A    between atoms: N_1  and  CA_2 
REMARK    2  A    between atoms: CA_2  and  C_3 
REMARK    3  A    between atoms: CA_2  and  CB_5 
REMARK       I    between atoms: C_3  and  N_11 
REMARK    4  A    between atoms: CB_5  and  CG_6 
REMARK    5  A    between atoms: CG_6  and  CD_7 
REMARK    6  A    between atoms: N_11  and  CA_12 
REMARK    7  A    between atoms: CA_12  and  C_13 
REMARK    8  A    between atoms: CA_12  and  CB_15 
REMARK       I    between atoms: C_13  and  N_22 
REMARK    9  A    between atoms: CB_15  and  CG_16 
REMARK       I    between atoms: CG_16  and  ND2_17 
REMARK   10  A    between atoms: CA_23  and  C_24 
REMARK       I    between atoms: C_24  and  N_29 
REMARK   11  A    between atoms: N_29  and  CA_30 
REMARK   12  A    between atoms: CA_30  and  C_31 
REMARK   13  A    between atoms: CA_30  and  CB_33 
REMARK       I    between atoms: C_31  and  N_39 
REMARK   14  A    between atoms: CB_33  and  CG_34 
REMARK   15  A    between atoms: CG_34  and  CD_35 
REMARK   16  A    between atoms: N_39  and  CA_40 
REMARK   17  A    between atoms: CA_40  and  C_41 
REMARK   18  A    between atoms: CA_40  and  CB_43 
REMARK       I    between atoms: C_41  and  N_47 
REMARK   19  A    between atoms: CB_43  and  OG_44 
REMARK   20  A    between atoms: N_47  and  CA_48 
REMARK   21  A    between atoms: CA_48  and  C_49 
REMARK   22  A    between atoms: CA_48  and  CB_51 
REMARK       I    between atoms: C_49  and  N_56 
REMARK   23  A    between atoms: CB_51  and  CG1_52 
REMARK   24  A    between atoms: N_56  and  CA_57 
REMARK   25  A    between atoms: CA_57  and  C_58 
REMARK   26  A    between atoms: CA_57  and  CB_60 
REMARK       I    between atoms: C_58  and  N_65 
REMARK   27  A    between atoms: CB_60  and  CG_61 
REMARK   28  A    between atoms: N_65  and  CA_66 
REMARK   29  A    between atoms: CA_66  and  C_67 
REMARK   30  A    between atoms: CA_66  and  CB_69 
REMARK       I    between atoms: C_67  and  N_73 
REMARK   31  A    between atoms: CB_69  and  OG_70 
REMARK   32  A    between atoms: N_73  and  CA_74 
REMARK   33  A    between atoms: CA_74  and  C_75 
REMARK   34  A    between atoms: CA_74  and  CB_77 
REMARK       I    between atoms: C_75  and  N_83 
REMARK   35  A    between atoms: CB_77  and  CG_78 
REMARK   36  A    between atoms: CG_78  and  CD_79 
REMARK   37  A    between atoms: N_83  and  CA_84 
REMARK   38  A    between atoms: CA_84  and  C_85 
REMARK   39  A    between atoms: CA_84  and  CB_87 
REMARK       I    between atoms: C_85  and  N_95 
REMARK   40  A    between atoms: CB_87  and  CG_88 
REMARK   41  A    between atoms: N_95  and  CA_96 
REMARK   42  A    between atoms: CA_96  and  C_97 
REMARK   43  A    between atoms: CA_96  and  CB_99 
REMARK       I    between atoms: C_97  and  N_103 
REMARK   44  A    between atoms: N_103  and  CA_104 
REMARK   45  A    between atoms: CA_104  and  C_105 
REMARK   46  A    between atoms: CA_104  and  CB_107 
REMARK       I    between atoms: C_105  and  N_115 
REMARK   47  A    between atoms: CB_107  and  CG_108 
REMARK   48  A    between atoms: CG_108  and  CD_109 
REMARK       I    between atoms: CD_109  and  NE2_110 
REMARK   49  A    between atoms: N_115  and  CA_116 
REMARK   50  A    between atoms: CA_116  and  C_117 
REMARK   51  A    between atoms: CA_116  and  CB_119 
REMARK       I    between atoms: C_117  and  N_132 
REMARK   52  A    between atoms: CB_119  and  CG_120 
REMARK   53  A    between atoms: CG_120  and  CD_121 
REMARK   54  A    between atoms: CD_121  and  NE_122 
REMARK       I    between atoms: NE_122  and  CZ_123 
REMARK       I    between atoms: CZ_123  and  NH1_124 
REMARK       I    between atoms: CZ_123  and  NH2_125 
REMARK   55  A    between atoms: N_132  and  CA_133 
REMARK   56  A    between atoms: CA_133  and  C_134 
REMARK   57  A    between atoms: CA_133  and  CB_136 
REMARK       I    between atoms: C_134  and  N_140 
REMARK   58  A    between atoms: N_140  and  CA_141 
REMARK   59  A    between atoms: CA_141  and  C_142 
REMARK   60  A    between atoms: CA_141  and  CB_144 
REMARK       I    between atoms: C_142  and  N_149 
REMARK   61  A    between atoms: CB_144  and  CG_145 
REMARK   62  A    between atoms: CG_145  and  SD_146 
REMARK   63  A    between atoms: N_149  and  CA_150 
REMARK   64  A    between atoms: CA_150  and  C_151 
REMARK   65  A    between atoms: CA_150  and  CB_153 
REMARK   66  A    between atoms: CB_153  and  CG_154 
REMARK   67  A    between atoms: CG_154  and  CD_155 
REMARK   68  A    between atoms: CD_155  and  NE_156 
REMARK       I    between atoms: NE_156  and  CZ_157 
REMARK       I    between atoms: CZ_157  and  NH1_158 
ROOT
ATOM      1  C   GLU d   9    1297.690 378.961-1297.346  0.00  0.00     0.241 C 
ATOM      2  O   GLU d   9    1298.355 379.714-1298.072  0.00  0.00    -0.271 OA
ATOM      3  N   HIS d  10    1297.785 377.685-1297.516  0.00  0.00    -0.346 N 
ATOM      4  H   HIS d  10    1297.253 377.051-1296.938  0.00  0.00     0.163 HD
ENDROOT
BRANCH   3   5
ATOM      5  CA  HIS d  10    1298.672 377.173-1298.556  0.00  0.00     0.182 C 
BRANCH   5   6
ATOM      6  C   HIS d  10    1298.306 377.738-1299.907  0.00  0.00     0.241 C 
ATOM      7  O   HIS d  10    1299.159 378.202-1300.679  0.00  0.00    -0.271 OA
ATOM      8  N   VAL d  11    1297.068 377.739-1300.271  0.00  0.00    -0.346 N 
ATOM      9  H   VAL d  11    1296.355 377.367-1299.660  0.00  0.00     0.163 HD
BRANCH   8  10
ATOM     10  CA  VAL d  11    1296.714 378.285-1301.577  0.00  0.00     0.180 C 
BRANCH  10  11
ATOM     11  C   VAL d  11    1297.180 379.715-1301.710  0.00  0.00     0.241 C 
ATOM     12  O   VAL d  11    1297.782 380.120-1302.712  0.00  0.00    -0.271 OA
ATOM     13  N   GLN d  12    1296.944 380.541-1300.747  0.00  0.00    -0.346 N 
ATOM     14  H   GLN d  12    1296.454 380.236-1299.918  0.00  0.00     0.163 HD
BRANCH  13  15
ATOM     15  CA  GLN d  12    1297.394 381.924-1300.874  0.00  0.00     0.177 C 
BRANCH  15  16
ATOM     16  C   GLN d  12    1298.884 381.989-1301.112  0.00  0.00     0.241 C 
ATOM     17  O   GLN d  12    1299.372 382.697-1301.990  0.00  0.00    -0.271 OA
ATOM     18  N   ARG d  13    1299.667 381.282-1300.370  0.00  0.00    -0.346 N 
ATOM     19  H   ARG d  13    1299.290 380.692-1299.642  0.00  0.00     0.163 HD
BRANCH  18  20
ATOM     20  CA  ARG d  13    1301.108 381.346-1300.601  0.00  0.00     0.176 C 
BRANCH  20  21
ATOM     21  C   ARG d  13    1301.444 380.974-1302.026  0.00  0.00     0.241 C 
ATOM     22  O   ARG d  13    1302.214 381.645-1302.710  0.00  0.00    -0.271 OA
ATOM     23  N   VAL d  14    1300.907 379.920-1302.540  0.00  0.00    -0.346 N 
ATOM     24  H   VAL d  14    1300.271 379.352-1301.999  0.00  0.00     0.163 HD
BRANCH  23  25
ATOM     25  CA  VAL d  14    1301.232 379.561-1303.918  0.00  0.00     0.180 C 
BRANCH  25  26
ATOM     26  C   VAL d  14    1300.903 380.691-1304.863  0.00  0.00     0.241 C 
ATOM     27  O   VAL d  14    1301.697 381.072-1305.733  0.00  0.00    -0.271 OA
ATOM     28  N   MET d  15    1299.759 381.278-1304.762  0.00  0.00    -0.346 N 
ATOM     29  H   MET d  15    1299.094 380.986-1304.060  0.00  0.00     0.163 HD
BRANCH  28  30
ATOM     30  CA  MET d  15    1299.440 382.372-1305.675  0.00  0.00     0.177 C 
BRANCH  30  31
ATOM     31  C   MET d  15    1300.471 383.470-1305.587  0.00  0.00     0.241 C 
ATOM     32  O   MET d  15    1300.975 383.981-1306.600  0.00  0.00    -0.271 OA
ATOM     33  N   ARG d  16    1300.840 383.891-1304.425  0.00  0.00    -0.347 N 
ATOM     34  H   ARG d  16    1300.445 383.491-1303.586  0.00  0.00     0.163 HD
BRANCH  33  35
ATOM     35  CA  ARG d  16    1301.838 384.954-1304.340  0.00  0.00     0.162 C 
BRANCH  35  36
ATOM     36  C   ARG d  16    1303.108 384.560-1305.057  0.00  0.00     0.219 C 
ATOM     37  O   ARG d  16    1303.221 383.483-1305.638  0.00  0.00    -0.287 OA
ENDBRANCH  35  36
BRANCH  35  38
ATOM     38  CB  ARG d  16    1302.107 385.271-1302.842  0.00  0.00     0.035 C 
BRANCH  38  39
ATOM     39  CG  ARG d  16    1302.933 386.559-1302.569  0.00  0.00     0.023 C 
BRANCH  39  40
ATOM     40  CD  ARG d  16    1303.183 386.778-1301.068  0.00  0.00     0.138 C 
BRANCH  40  41
ATOM     41  NE  ARG d  16    1303.961 388.036-1300.866  0.00  0.00    -0.227 N 
ATOM     42  CZ  ARG d  16    1304.352 388.517-1299.690  0.00  0.00     0.665 C 
ATOM     43  NH1 ARG d  16    1304.104 387.933-1298.552  0.00  0.00    -0.235 N 
ATOM     44  NH2 ARG d  16    1305.017 389.629-1299.671  0.00  0.00    -0.235 N 
ATOM     45 11HH ARG d  16    1303.577 387.061-1298.637  0.00  0.00     0.174 HD
ATOM     46 12HH ARG d  16    1304.438 388.368-1297.691  0.00  0.00     0.174 HD
ATOM     47 21HH ARG d  16    1305.203 390.072-1300.573  0.00  0.00     0.174 HD
ATOM     48 22HH ARG d  16    1305.308 389.984-1298.759  0.00  0.00     0.174 HD
ATOM     49  HE  ARG d  16    1304.240 388.617-1301.663  0.00  0.00     0.177 HD
ENDBRANCH  40  41
ENDBRANCH  39  40
ENDBRANCH  38  39
ENDBRANCH  35  38
ENDBRANCH  33  35
ENDBRANCH  30  31
BRANCH  30  50
ATOM     50  CB  MET d  15    1298.019 382.919-1305.366  0.00  0.00     0.045 C 
BRANCH  50  51
ATOM     51  CG  MET d  15    1296.856 381.922-1305.559  0.00  0.00     0.076 C 
BRANCH  51  52
ATOM     52  SD  MET d  15    1295.283 382.790-1305.444  0.00  0.00    -0.173 SA
ATOM     53  CE  MET d  15    1294.200 381.361-1305.309  0.00  0.00     0.089 C 
ENDBRANCH  51  52
ENDBRANCH  50  51
ENDBRANCH  30  50
ENDBRANCH  28  30
ENDBRANCH  25  26
BRANCH  25  54
ATOM     54  CB  VAL d  14    1300.458 378.245-1304.325  0.00  0.00     0.009 C 
ATOM     55  CG1 VAL d  14    1300.547 377.826-1305.818  0.00  0.00     0.012 C 
ATOM     56  CG2 VAL d  14    1300.888 376.992-1303.525  0.00  0.00     0.012 C 
ENDBRANCH  25  54
ENDBRANCH  23  25
ENDBRANCH  20  21
BRANCH  20  57
ATOM     57  CB  ARG d  13    1301.819 380.406-1299.587  0.00  0.00     0.036 C 
BRANCH  57  58
ATOM     58  CG  ARG d  13    1303.365 380.557-1299.505  0.00  0.00     0.023 C 
BRANCH  58  59
ATOM     59  CD  ARG d  13    1303.990 379.568-1298.507  0.00  0.00     0.138 C 
BRANCH  59  60
ATOM     60  NE  ARG d  13    1305.468 379.774-1298.456  0.00  0.00    -0.227 N 
ATOM     61  CZ  ARG d  13    1306.314 379.081-1297.700  0.00  0.00     0.665 C 
ATOM     62  NH1 ARG d  13    1305.948 378.117-1296.903  0.00  0.00    -0.235 N 
ATOM     63  NH2 ARG d  13    1307.574 379.378-1297.757  0.00  0.00    -0.235 N 
ATOM     64 11HH ARG d  13    1304.942 377.932-1296.907  0.00  0.00     0.174 HD
ATOM     65 12HH ARG d  13    1306.660 377.633-1296.354  0.00  0.00     0.174 HD
ATOM     66 21HH ARG d  13    1307.843 380.136-1298.388  0.00  0.00     0.174 HD
ATOM     67 22HH ARG d  13    1308.208 378.836-1297.168  0.00  0.00     0.174 HD
ATOM     68  HE  ARG d  13    1305.920 380.495-1299.026  0.00  0.00     0.177 HD
ENDBRANCH  59  60
ENDBRANCH  58  59
ENDBRANCH  57  58
ENDBRANCH  20  57
ENDBRANCH  18  20
ENDBRANCH  15  16
BRANCH  15  69
ATOM     69  CB  GLN d  12    1297.004 382.691-1299.591  0.00  0.00     0.044 C 
BRANCH  69  70
ATOM     70  CG  GLN d  12    1297.366 384.213-1299.560  0.00  0.00     0.105 C 
BRANCH  70  71
ATOM     71  CD  GLN d  12    1297.064 385.026-1298.295  0.00  0.00     0.215 C 
ATOM     72  NE2 GLN d  12    1296.496 384.450-1297.266  0.00  0.00    -0.370 N 
ATOM     73 21HE GLN d  12    1296.389 385.045-1296.443  0.00  0.00     0.159 HD
ATOM     74 22HE GLN d  12    1296.331 383.447-1297.370  0.00  0.00     0.159 HD
ATOM     75  OE1 GLN d  12    1297.367 386.207-1298.217  0.00  0.00    -0.274 OA
ENDBRANCH  70  71
ENDBRANCH  69  70
ENDBRANCH  15  69
ENDBRANCH  13  15
ENDBRANCH  10  11
BRANCH  10  76
ATOM     76  CB  VAL d  11    1295.153 378.180-1301.797  0.00  0.00     0.009 C 
ATOM     77  CG1 VAL d  11    1294.585 378.885-1303.060  0.00  0.00     0.012 C 
ATOM     78  CG2 VAL d  11    1294.626 376.727-1301.870  0.00  0.00     0.012 C 
ENDBRANCH  10  76
ENDBRANCH   8  10
ENDBRANCH   5   6
BRANCH   5  79
ATOM     79  CB  HIS d  10    1298.506 375.644-1298.551  0.00  0.00     0.095 C 
BRANCH  79  80
ATOM     80  CG  HIS d  10    1299.791 374.932-1298.243  0.00  0.00     0.053 A 
ATOM     81  CD2 HIS d  10    1300.171 374.596-1296.950  0.00  0.00     0.116 A 
ATOM     82  NE2 HIS d  10    1301.385 373.963-1297.017  0.00  0.00    -0.359 N 
ATOM     83  CE1 HIS d  10    1301.648 373.966-1298.352  0.00  0.00     0.207 A 
ATOM     84  2HE HIS d  10    1301.952 373.585-1296.244  0.00  0.00     0.166 HD
ATOM     85  ND1 HIS d  10    1300.742 374.525-1299.176  0.00  0.00    -0.247 NA
ENDBRANCH  79  80
ENDBRANCH   5  79
ENDBRANCH   3   5
BRANCH   1  86
ATOM     86  CA  GLU d   9    1296.772 379.489-1296.271  0.00  0.00     0.177 C 
BRANCH  86  87
ATOM     87  N   GLU d   9    1295.469 378.833-1296.326  0.00  0.00    -0.346 N 
ATOM     88  C   SER d   8    1294.789 378.884-1297.422  0.00  0.00     0.243 C 
ATOM     89  O   SER d   8    1295.259 379.484-1298.389  0.00  0.00    -0.271 OA
ATOM     90  H   GLU d   9    1295.105 378.347-1295.519  0.00  0.00     0.163 HD
BRANCH  88  91
ATOM     91  CA  SER d   8    1293.441 378.205-1297.480  0.00  0.00     0.200 C 
BRANCH  91  92
ATOM     92  N   SER d   8    1293.511 376.856-1296.926  0.00  0.00    -0.344 N 
ATOM     93  C   LEU d   7    1294.348 376.016-1297.433  0.00  0.00     0.241 C 
ATOM     94  O   LEU d   7    1295.068 376.379-1298.375  0.00  0.00    -0.271 OA
ATOM     95  H   SER d   8    1292.913 376.585-1296.158  0.00  0.00     0.163 HD
BRANCH  93  96
ATOM     96  CA  LEU d   7    1294.420 374.620-1296.860  0.00  0.00     0.177 C 
BRANCH  96  97
ATOM     97  N   LEU d   7    1294.475 374.656-1295.402  0.00  0.00    -0.346 N 
ATOM     98  C   ILE d   6    1295.421 375.320-1294.828  0.00  0.00     0.241 C 
ATOM     99  O   ILE d   6    1296.256 375.908-1295.532  0.00  0.00    -0.271 OA
ATOM    100  H   LEU d   7    1293.784 374.169-1294.850  0.00  0.00     0.163 HD
BRANCH  98 101
ATOM    101  CA  ILE d   6    1295.479 375.357-1293.320  0.00  0.00     0.180 C 
BRANCH 101 102
ATOM    102  N   ILE d   6    1294.166 375.652-1292.754  0.00  0.00    -0.346 N 
ATOM    103  C   SER d   5    1293.561 376.735-1293.108  0.00  0.00     0.243 C 
ATOM    104  O   SER d   5    1294.108 377.488-1293.913  0.00  0.00    -0.271 OA
ATOM    105  H   ILE d   6    1293.737 375.017-1292.095  0.00  0.00     0.163 HD
BRANCH 103 106
ATOM    106  CA  SER d   5    1292.202 377.040-1292.522  0.00  0.00     0.200 C 
BRANCH 106 107
ATOM    107  N   SER d   5    1291.333 375.869-1292.581  0.00  0.00    -0.344 N 
ATOM    108  C   GLU d   4    1291.105 375.316-1293.724  0.00  0.00     0.241 C 
ATOM    109  O   GLU d   4    1291.631 375.796-1294.738  0.00  0.00    -0.271 OA
ATOM    110  H   SER d   5    1290.916 375.497-1291.739  0.00  0.00     0.163 HD
BRANCH 108 111
ATOM    111  CA  GLU d   4    1290.206 374.105-1293.785  0.00  0.00     0.177 C 
BRANCH 111 112
ATOM    112  N   GLU d   4    1290.566 373.134-1292.755  0.00  0.00    -0.346 N 
ATOM    113  C   PRO d   3    1291.771 372.674-1292.723  0.00  0.00     0.241 C 
ATOM    114  O   PRO d   3    1292.594 373.057-1293.555  0.00  0.00    -0.271 OA
ATOM    115  H   GLU d   4    1289.882 372.827-1292.079  0.00  0.00     0.163 HD
BRANCH 113 116
ATOM    116  CA  PRO d   3    1292.169 371.650-1291.646  0.00  0.00     0.179 C 
ATOM    117  N   PRO d   3    1291.717 372.060-1290.325  0.00  0.00    -0.337 N 
ATOM    118  C   ASN d   2    1292.239 373.055-1289.691  0.00  0.00     0.243 C 
ATOM    119  CD  PRO d   3    1290.639 371.266-1289.776  0.00  0.00     0.127 C 
ATOM    120  O   ASN d   2    1293.153 373.685-1290.219  0.00  0.00    -0.271 OA
ATOM    121  CG  PRO d   3    1290.182 370.448-1290.985  0.00  0.00     0.022 C 
ATOM    122  CB  PRO d   3    1291.465 370.296-1291.816  0.00  0.00     0.037 C 
BRANCH 118 123
ATOM    123  CA  ASN d   2    1291.708 373.410-1288.322  0.00  0.00     0.185 C 
BRANCH 123 124
ATOM    124  N   ASN d   2    1290.248 373.449-1288.322  0.00  0.00    -0.346 N 
ATOM    125  C   GLU d   1    1289.644 374.235-1289.147  0.00  0.00     0.242 C 
ATOM    126  O   GLU d   1    1290.320 374.934-1289.916  0.00  0.00    -0.271 OA
ATOM    127  H   ASN d   2    1289.720 372.869-1287.685  0.00  0.00     0.163 HD
BRANCH 125 128
ATOM    128  CA  GLU d   1    1288.135 374.275-1289.147  0.00  0.00     0.191 C 
BRANCH 128 129
ATOM    129  N   GLU d   1    1287.576 372.926-1289.147  0.00  0.00    -0.326 NA
ATOM    130  H   GLU d   1    1288.203 372.047-1289.147  0.00  0.00     0.180 HD
ENDBRANCH 128 129
BRANCH 128 131
ATOM    131  CB  GLU d   1    1287.612 375.060-1287.910  0.00  0.00     0.047 C 
BRANCH 131 132
ATOM    132  CG  GLU d   1    1288.087 376.545-1287.799  0.00  0.00     0.116 C 
BRANCH 132 133
ATOM    133  CD  GLU d   1    1287.663 377.349-1286.584  0.00  0.00     0.172 C 
ATOM    134  OE1 GLU d   1    1286.935 376.847-1285.706  0.00  0.00    -0.648 OA
ATOM    135  OE2 GLU d   1    1288.093 378.519-1286.512  0.00  0.00    -0.648 OA
ENDBRANCH 132 133
ENDBRANCH 131 132
ENDBRANCH 128 131
ENDBRANCH 125 128
ENDBRANCH 123 124
BRANCH 123 136
ATOM    136  CB  ASN d   2    1292.200 372.387-1287.258  0.00  0.00     0.137 C 
BRANCH 136 137
ATOM    137  CG  ASN d   2    1291.737 372.611-1285.814  0.00  0.00     0.217 C 
ATOM    138  ND2 ASN d   2    1292.331 373.526-1285.096  0.00  0.00    -0.370 N 
ATOM    139 21HD ASN d   2    1291.850 373.699-1284.210  0.00  0.00     0.159 HD
ATOM    140 22HD ASN d   2    1293.032 374.098-1285.565  0.00  0.00     0.159 HD
ATOM    141  OD1 ASN d   2    1290.816 371.977-1285.320  0.00  0.00    -0.274 OA
ENDBRANCH 136 137
ENDBRANCH 123 136
ENDBRANCH 118 123
ENDBRANCH 113 116
ENDBRANCH 111 112
BRANCH 111 142
ATOM    142  CB  GLU d   4    1288.718 374.523-1293.614  0.00  0.00     0.045 C 
BRANCH 142 143
ATOM    143  CG  GLU d   4    1288.169 375.527-1294.680  0.00  0.00     0.116 C 
BRANCH 143 144
ATOM    144  CD  GLU d   4    1286.743 376.024-1294.536  0.00  0.00     0.172 C 
ATOM    145  OE1 GLU d   4    1286.017 375.625-1293.605  0.00  0.00    -0.648 OA
ATOM    146  OE2 GLU d   4    1286.353 376.853-1295.384  0.00  0.00    -0.648 OA
ENDBRANCH 143 144
ENDBRANCH 142 143
ENDBRANCH 111 142
ENDBRANCH 108 111
ENDBRANCH 106 107
BRANCH 106 147
ATOM    147  CB  SER d   5    1292.314 377.572-1291.072  0.00  0.00     0.199 C 
BRANCH 147 148
ATOM    148  OG  SER d   5    1293.046 376.693-1290.211  0.00  0.00    -0.398 OA
ATOM    149  HG  SER d   5    1292.557 375.868-1290.160  0.00  0.00     0.209 HD
ENDBRANCH 147 148
ENDBRANCH 106 147
ENDBRANCH 103 106
ENDBRANCH 101 102
BRANCH 101 150
ATOM    150  CB  ILE d   6    1296.078 374.021-1292.721  0.00  0.00     0.013 C 
ATOM    151  CG2 ILE d   6    1297.520 373.719-1293.236  0.00  0.00     0.012 C 
BRANCH 150 152
ATOM    152  CG1 ILE d   6    1296.098 373.958-1291.160  0.00  0.00     0.002 C 
ATOM    153  CD1 ILE d   6    1296.368 372.569-1290.545  0.00  0.00     0.005 C 
ENDBRANCH 150 152
ENDBRANCH 101 150
ENDBRANCH  98 101
ENDBRANCH  96  97
BRANCH  96 154
ATOM    154  CB  LEU d   7    1293.217 373.760-1297.341  0.00  0.00     0.038 C 
BRANCH 154 155
ATOM    155  CG  LEU d   7    1293.145 372.281-1296.875  0.00  0.00    -0.020 C 
ATOM    156  CD1 LEU d   7    1291.955 371.575-1297.540  0.00  0.00     0.009 C 
ATOM    157  CD2 LEU d   7    1294.438 371.502-1297.166  0.00  0.00     0.009 C 
ENDBRANCH 154 155
ENDBRANCH  96 154
ENDBRANCH  93  96
ENDBRANCH  91  92
BRANCH  91 158
ATOM    158  CB  SER d   8    1292.352 379.041-1296.761  0.00  0.00     0.199 C 
BRANCH 158 159
ATOM    159  OG  SER d   8    1292.696 379.359-1295.409  0.00  0.00    -0.398 OA
ATOM    160  HG  SER d   8    1292.764 378.531-1294.927  0.00  0.00     0.209 HD
ENDBRANCH 158 159
ENDBRANCH  91 158
ENDBRANCH  88  91
ENDBRANCH  86  87
BRANCH  86 161
ATOM    161  CB  GLU d   9    1297.406 379.281-1294.865  0.00  0.00     0.045 C 
BRANCH 161 162
ATOM    162  CG  GLU d   9    1298.789 379.972-1294.636  0.00  0.00     0.116 C 
BRANCH 162 163
ATOM    163  CD  GLU d   9    1299.490 379.758-1293.307  0.00  0.00     0.172 C 
ATOM    164  OE1 GLU d   9    1298.968 379.067-1292.411  0.00  0.00    -0.648 OA
ATOM    165  OE2 GLU d   9    1300.610 380.294-1293.175  0.00  0.00    -0.648 OA
ENDBRANCH 162 163
ENDBRANCH 161 162
ENDBRANCH  86 161
ENDBRANCH   1  86
TORSDOF 68
