@<TRIPOS>MOLECULE
8-6
272 273 16              
SMALL
USER_CHARGES
@<TRIPOS>ATOM
1	   N	1231.099	354.206	-1226.839	N.3	1	GLU1	-0.516	
2	  CA	1231.658	355.555	-1226.839	C.3	1	GLU1	0.040	
3	   C	1233.167	355.515	-1226.839	C.2	1	GLU1	0.537	
4	   O	1233.843	356.214	-1227.608	O.2	1	GLU1	-0.582	
5	  CB	1231.135	356.340	-1225.602	C.3	1	GLU1	0.056	
6	  CG	1231.610	357.825	-1225.491	C.3	1	GLU1	0.014	
7	  CD	1231.186	358.629	-1224.276	C.2	1	GLU1	0.805	
8	 OE1	1230.458	358.127	-1223.398	O.co2	1	GLU1	-0.819	
9	 OE2	1231.616	359.799	-1224.204	O.co2	1	GLU1	-0.819	
10	   H	1231.726	353.327	-1226.839	 H	1	GLU1	0.294	
11	  HA	1231.332	356.073	-1227.759	 H	1	GLU1	0.111	
12	 2HB	1231.424	355.809	-1224.672	 H	1	GLU1	-0.017	
13	 3HB	1230.028	356.330	-1225.589	 H	1	GLU1	-0.017	
14	 2HG	1231.300	358.410	-1226.372	 H	1	GLU1	-0.043	
15	 3HG	1232.710	357.892	-1225.462	 H	1	GLU1	-0.043	
16	   N	1233.772	354.730	-1226.014	N.am	2	ASN2	-0.416	
17	  CA	1235.231	354.691	-1226.014	C.3	2	ASN2	0.014	
18	   C	1235.762	354.335	-1227.383	C.2	2	ASN2	0.597	
19	   O	1236.677	354.966	-1227.912	O.2	2	ASN2	-0.568	
20	  CB	1235.723	353.668	-1224.950	C.3	2	ASN2	-0.204	
21	  CG	1235.260	353.892	-1223.506	C.2	2	ASN2	0.713	
22	 ND2	1235.854	354.807	-1222.788	N.pl3	2	ASN2	-0.919	
23	 OD1	1234.339	353.258	-1223.012	O.2	2	ASN2	-0.593	
24	   H	1233.244	354.150	-1225.378	 H	2	ASN2	0.272	
25	  HA	1235.608	355.701	-1225.769	 H	2	ASN2	0.105	
26	 2HB	1236.828	353.609	-1224.953	 H	2	ASN2	0.080	
27	 3HB	1235.394	352.650	-1225.236	 H	2	ASN2	0.080	
28	1HD2	1235.374	354.980	-1221.902	 H	2	ASN2	0.420	
29	2HD2	1236.556	355.378	-1223.258	 H	2	ASN2	0.420	
30	   N	1235.241	353.340	-1228.017	N.am	3	PRO3	-0.255	
31	  CA	1235.692	352.931	-1229.339	C.3	3	PRO3	-0.027	
32	   C	1235.294	353.954	-1230.415	C.2	3	PRO3	0.590	
33	   O	1236.117	354.338	-1231.247	O.2	3	PRO3	-0.575	
34	  CB	1234.988	351.576	-1229.508	C.3	3	PRO3	-0.007	
35	  CG	1233.705	351.728	-1228.678	C.3	3	PRO3	0.019	
36	  CD	1234.163	352.547	-1227.468	C.3	3	PRO3	0.019	
37	  HA	1236.778	352.811	-1229.352	 H	3	PRO3	0.064	
38	 2HB	1235.611	350.795	-1229.067	 H	3	PRO3	0.025	
39	 3HB	1234.790	351.328	-1230.553	 H	3	PRO3	0.025	
40	 2HG	1233.278	350.766	-1228.386	 H	3	PRO3	0.021	
41	 3HG	1232.967	352.299	-1229.245	 H	3	PRO3	0.021	
42	 2HD	1234.552	351.898	-1226.680	 H	3	PRO3	0.039	
43	 3HD	1233.366	353.183	-1227.075	 H	3	PRO3	0.039	
44	   N	1234.089	354.415	-1230.448	N.am	4	GLU4	-0.516	
45	  CA	1233.730	355.386	-1231.477	C.3	4	GLU4	0.040	
46	   C	1234.629	356.597	-1231.416	C.2	4	GLU4	0.537	
47	   O	1235.155	357.076	-1232.431	O.2	4	GLU4	-0.582	
48	  CB	1232.241	355.804	-1231.307	C.3	4	GLU4	0.056	
49	  CG	1231.693	356.808	-1232.372	C.3	4	GLU4	0.014	
50	  CD	1230.266	357.304	-1232.228	C.2	4	GLU4	0.805	
51	 OE1	1229.540	356.906	-1231.297	O.co2	4	GLU4	-0.819	
52	 OE2	1229.876	358.134	-1233.077	O.co2	4	GLU4	-0.819	
53	   H	1233.405	354.108	-1229.771	 H	4	GLU4	0.294	
54	  HA	1233.861	354.915	-1232.468	 H	4	GLU4	0.111	
55	 2HB	1232.089	356.244	-1230.300	 H	4	GLU4	-0.017	
56	 3HB	1231.593	354.906	-1231.313	 H	4	GLU4	-0.017	
57	 2HG	1231.774	356.393	-1233.390	 H	4	GLU4	-0.043	
58	 3HG	1232.281	357.740	-1232.383	 H	4	GLU4	-0.043	
59	   N	1234.856	357.150	-1230.273	N.am	5	SER5	-0.416	
60	  CA	1235.725	358.321	-1230.214	C.3	5	SER5	-0.025	
61	   C	1237.084	358.015	-1230.800	C.2	5	SER5	0.597	
62	   O	1237.631	358.769	-1231.605	O.2	5	SER5	-0.568	
63	  CB	1235.837	358.853	-1228.764	C.3	5	SER5	0.212	
64	  OG	1236.569	357.974	-1227.903	O.3	5	SER5	-0.655	
65	   H	1234.439	356.778	-1229.431	 H	5	SER5	0.272	
66	  HA	1235.276	359.111	-1230.843	 H	5	SER5	0.084	
67	 2HB	1234.837	359.047	-1228.330	 H	5	SER5	0.035	
68	 3HB	1236.342	359.839	-1228.766	 H	5	SER5	0.035	
69	  HG	1236.080	357.149	-1227.852	 H	5	SER5	0.428	
70	   N	1237.689	356.932	-1230.446	N.am	6	ILE6	-0.416	
71	  CA	1239.002	356.638	-1231.013	C.3	6	ILE6	-0.060	
72	   C	1238.945	356.600	-1232.521	C.2	6	ILE6	0.597	
73	   O	1239.780	357.188	-1233.224	O.2	6	ILE6	-0.568	
74	  CB	1239.602	355.301	-1230.413	C.3	6	ILE6	0.130	
75	 CG1	1239.622	355.239	-1228.852	C.3	6	ILE6	-0.043	
76	 CG2	1241.043	355.000	-1230.928	C.3	6	ILE6	-0.320	
77	 CD1	1239.892	353.850	-1228.237	C.3	6	ILE6	-0.066	
78	   H	1237.261	356.298	-1229.787	 H	6	ILE6	0.272	
79	  HA	1239.676	357.472	-1230.745	 H	6	ILE6	0.087	
80	  HB	1238.944	354.475	-1230.757	 H	6	ILE6	0.019	
81	2HG1	1238.639	355.559	-1228.456	 H	6	ILE6	0.024	
82	3HG1	1240.337	355.981	-1228.447	 H	6	ILE6	0.024	
83	1HG2	1241.102	354.907	-1232.027	 H	6	ILE6	0.088	
84	2HG2	1241.765	355.782	-1230.626	 H	6	ILE6	0.088	
85	3HG2	1241.433	354.038	-1230.550	 H	6	ILE6	0.088	
86	1HD1	1239.164	353.096	-1228.592	 H	6	ILE6	0.019	
87	2HD1	1240.902	353.471	-1228.473	 H	6	ILE6	0.019	
88	3HD1	1239.816	353.880	-1227.135	 H	6	ILE6	0.019	
89	   N	1237.999	355.937	-1233.094	N.am	7	LEU7	-0.416	
90	  CA	1237.944	355.901	-1234.553	C.3	7	LEU7	-0.052	
91	   C	1237.871	357.296	-1235.125	C.2	7	LEU7	0.597	
92	   O	1238.592	357.660	-1236.067	O.2	7	LEU7	-0.568	
93	  CB	1236.741	355.041	-1235.033	C.3	7	LEU7	-0.110	
94	  CG	1236.668	353.561	-1234.567	C.3	7	LEU7	0.353	
95	 CD1	1235.478	352.856	-1235.232	C.3	7	LEU7	-0.412	
96	 CD2	1237.962	352.782	-1234.859	C.3	7	LEU7	-0.412	
97	   H	1237.307	355.450	-1232.543	 H	7	LEU7	0.272	
98	  HA	1238.886	355.461	-1234.927	 H	7	LEU7	0.092	
99	 2HB	1236.717	355.057	-1236.141	 H	7	LEU7	0.046	
100	 3HB	1235.801	355.544	-1234.729	 H	7	LEU7	0.046	
101	  HG	1236.499	353.553	-1233.470	 H	7	LEU7	-0.036	
102	1HD1	1234.521	353.365	-1235.010	 H	7	LEU7	0.100	
103	2HD1	1235.577	352.815	-1236.333	 H	7	LEU7	0.100	
104	3HD1	1235.371	351.814	-1234.876	 H	7	LEU7	0.100	
105	1HD2	1238.237	352.813	-1235.928	 H	7	LEU7	0.100	
106	2HD2	1238.815	353.194	-1234.287	 H	7	LEU7	0.100	
107	3HD2	1237.880	351.720	-1234.563	 H	7	LEU7	0.100	
108	   N	1237.034	358.137	-1234.618	N.am	8	ILE8	-0.416	
109	  CA	1236.964	359.486	-1235.172	C.3	8	ILE8	-0.060	
110	   C	1238.310	360.165	-1235.114	C.2	8	ILE8	0.597	
111	   O	1238.783	360.770	-1236.088	O.2	8	ILE8	-0.568	
112	  CB	1235.841	360.344	-1234.458	C.3	8	ILE8	0.130	
113	 CG1	1234.434	359.667	-1234.413	C.3	8	ILE8	-0.043	
114	 CG2	1235.675	361.764	-1235.082	C.3	8	ILE8	-0.320	
115	 CD1	1233.406	360.312	-1233.459	C.3	8	ILE8	-0.066	
116	   H	1236.436	357.866	-1233.851	 H	8	ILE8	0.272	
117	  HA	1236.704	359.395	-1236.242	 H	8	ILE8	0.087	
118	  HB	1236.165	360.477	-1233.404	 H	8	ILE8	0.019	
119	2HG1	1234.538	358.617	-1234.079	 H	8	ILE8	0.024	
120	3HG1	1234.011	359.591	-1235.434	 H	8	ILE8	0.024	
121	1HG2	1236.601	362.365	-1235.047	 H	8	ILE8	0.088	
122	2HG2	1235.353	361.719	-1236.140	 H	8	ILE8	0.088	
123	3HG2	1234.930	362.377	-1234.543	 H	8	ILE8	0.088	
124	1HD1	1233.785	360.362	-1232.421	 H	8	ILE8	0.019	
125	2HD1	1233.133	361.339	-1233.763	 H	8	ILE8	0.019	
126	3HD1	1232.466	359.730	-1233.433	 H	8	ILE8	0.019	
127	   N	1238.990	360.115	-1234.018	N.am	9	GLU9	-0.516	
128	  CA	1240.293	360.772	-1233.963	C.3	9	GLU9	0.040	
129	   C	1241.211	360.244	-1235.039	C.2	9	GLU9	0.537	
130	   O	1241.875	360.998	-1235.764	O.2	9	GLU9	-0.582	
131	  CB	1240.926	360.564	-1232.557	C.3	9	GLU9	0.056	
132	  CG	1242.309	361.256	-1232.328	C.3	9	GLU9	0.014	
133	  CD	1243.010	361.042	-1230.999	C.2	9	GLU9	0.805	
134	 OE1	1242.489	360.352	-1230.103	O.co2	9	GLU9	-0.819	
135	 OE2	1244.130	361.580	-1230.867	O.co2	9	GLU9	-0.819	
136	   H	1238.626	359.629	-1233.212	 H	9	GLU9	0.294	
137	  HA	1240.151	361.854	-1234.138	 H	9	GLU9	0.111	
138	 2HB	1241.039	359.479	-1232.354	 H	9	GLU9	-0.017	
139	 3HB	1240.229	360.918	-1231.773	 H	9	GLU9	-0.017	
140	 2HG	1242.238	362.347	-1232.468	 H	9	GLU9	-0.043	
141	 3HG	1243.056	360.910	-1233.062	 H	9	GLU9	-0.043	
142	   N	1241.307	358.969	-1235.208	N.am	10	HIS10	-0.416	
143	  CA	1242.195	358.457	-1236.248	C.3	10	HIS10	-0.058	
144	   C	1241.828	359.022	-1237.600	C.2	10	HIS10	0.597	
145	   O	1242.681	359.486	-1238.371	O.2	10	HIS10	-0.568	
146	  CB	1242.031	356.928	-1236.243	C.3	10	HIS10	-0.007	
147	  CG	1243.316	356.218	-1235.935	C.2	10	HIS10	0.187	
148	 CD2	1243.697	355.883	-1234.642	C.2	10	HIS10	-0.221	
149	 ND1	1244.268	355.812	-1236.867	N.2	10	HIS10	-0.543	
150	 CE1	1245.174	355.253	-1236.044	C.2	10	HIS10	0.163	
151	 NE2	1244.911	355.251	-1234.709	N.pl3	10	HIS10	-0.280	
152	   H	1240.776	358.334	-1234.630	 H	10	HIS10	0.272	
153	  HA	1243.214	358.814	-1236.023	 H	10	HIS10	0.136	
154	 2HB	1241.665	356.561	-1237.223	 H	10	HIS10	0.037	
155	 3HB	1241.275	356.591	-1235.503	 H	10	HIS10	0.037	
156	 2HD	1243.111	356.098	-1233.753	 H	10	HIS10	0.186	
157	 1HE	1246.065	354.832	-1236.491	 H	10	HIS10	0.144	
158	 2HE	1245.478	354.873	-1233.936	 H	10	HIS10	0.334	
159	   N	1240.591	359.021	-1237.963	N.am	11	VAL11	-0.416	
160	  CA	1240.236	359.567	-1239.270	C.3	11	VAL11	-0.087	
161	   C	1240.701	360.997	-1239.402	C.2	11	VAL11	0.597	
162	   O	1241.302	361.402	-1240.406	O.2	11	VAL11	-0.568	
163	  CB	1238.675	359.461	-1239.489	C.3	11	VAL11	0.299	
164	 CG1	1238.106	360.164	-1240.752	C.3	11	VAL11	-0.319	
165	 CG2	1238.150	358.007	-1239.562	C.3	11	VAL11	-0.319	
166	   H	1239.877	358.648	-1237.352	 H	11	VAL11	0.272	
167	  HA	1240.755	358.984	-1240.052	 H	11	VAL11	0.097	
168	  HB	1238.187	359.941	-1238.614	 H	11	VAL11	-0.030	
169	1HG1	1238.545	359.772	-1241.689	 H	11	VAL11	0.079	
170	2HG1	1237.007	360.058	-1240.834	 H	11	VAL11	0.079	
171	3HG1	1238.285	361.257	-1240.743	 H	11	VAL11	0.079	
172	1HG2	1238.439	357.420	-1238.672	 H	11	VAL11	0.079	
173	2HG2	1237.044	357.970	-1239.605	 H	11	VAL11	0.079	
174	3HG2	1238.531	357.466	-1240.449	 H	11	VAL11	0.079	
175	   N	1240.464	361.824	-1238.440	N.am	12	GLN12	-0.416	
176	  CA	1240.912	363.206	-1238.568	C.3	12	GLN12	-0.003	
177	   C	1242.402	363.274	-1238.805	C.2	12	GLN12	0.597	
178	   O	1242.890	363.982	-1239.684	O.2	12	GLN12	-0.568	
179	  CB	1240.521	363.974	-1237.285	C.3	12	GLN12	-0.004	
180	  CG	1240.882	365.496	-1237.255	C.3	12	GLN12	-0.064	
181	  CD	1240.579	366.310	-1235.990	C.2	12	GLN12	0.695	
182	 NE2	1240.012	365.734	-1234.961	N.pl3	12	GLN12	-0.941	
183	 OE1	1240.881	367.491	-1235.913	O.2	12	GLN12	-0.609	
184	   H	1239.974	361.518	-1237.611	 H	12	GLN12	0.272	
185	  HA	1240.413	363.663	-1239.443	 H	12	GLN12	0.085	
186	 2HB	1240.997	363.474	-1236.416	 H	12	GLN12	0.017	
187	 3HB	1239.431	363.867	-1237.122	 H	12	GLN12	0.017	
188	 2HG	1240.404	366.017	-1238.105	 H	12	GLN12	0.035	
189	 3HG	1241.965	365.638	-1237.420	 H	12	GLN12	0.035	
190	1HE2	1239.905	366.328	-1234.138	 H	12	GLN12	0.425	
191	2HE2	1239.848	364.730	-1235.064	 H	12	GLN12	0.425	
192	   N	1243.187	362.567	-1238.064	N.am	13	ARG13	-0.348	
193	  CA	1244.627	362.632	-1238.295	C.3	13	ARG13	-0.264	
194	   C	1244.963	362.261	-1239.720	C.2	13	ARG13	0.734	
195	   O	1245.732	362.932	-1240.404	O.2	13	ARG13	-0.589	
196	  CB	1245.340	361.693	-1237.281	C.3	13	ARG13	-0.001	
197	  CG	1246.885	361.846	-1237.200	C.3	13	ARG13	0.039	
198	  CD	1247.512	360.859	-1236.202	C.3	13	ARG13	0.049	
199	  NE	1248.989	361.066	-1236.151	N.pl3	13	ARG13	-0.530	
200	  CZ	1249.837	360.374	-1235.396	C.cat	13	ARG13	0.808	
201	 NH1	1249.471	359.410	-1234.599	N.pl3	13	ARG13	-0.863	
202	 NH2	1251.096	360.673	-1235.453	N.pl3	13	ARG13	-0.863	
203	   H	1242.810	361.977	-1237.336	 H	13	ARG13	0.275	
204	  HA	1244.952	363.678	-1238.137	 H	13	ARG13	0.156	
205	 2HB	1245.074	360.643	-1237.520	 H	13	ARG13	0.033	
206	 3HB	1244.915	361.860	-1236.270	 H	13	ARG13	0.033	
207	 2HG	1247.133	362.891	-1236.920	 H	13	ARG13	0.029	
208	 3HG	1247.336	361.690	-1238.201	 H	13	ARG13	0.029	
209	 2HD	1247.267	359.818	-1236.511	 H	13	ARG13	0.069	
210	 3HD	1247.055	361.004	-1235.199	 H	13	ARG13	0.069	
211	  HE	1249.440	361.788	-1236.722	 H	13	ARG13	0.346	
212	1HH1	1248.466	359.224	-1234.602	 H	13	ARG13	0.448	
213	2HH1	1250.185	358.926	-1234.050	 H	13	ARG13	0.448	
214	1HH2	1251.364	361.430	-1236.084	 H	13	ARG13	0.448	
215	2HH2	1251.731	360.131	-1234.864	 H	13	ARG13	0.448	
216	   N	1244.427	361.206	-1240.234	N.am	14	VAL14	-0.416	
217	  CA	1244.752	360.847	-1241.612	C.3	14	VAL14	-0.087	
218	   C	1244.422	361.977	-1242.557	C.2	14	VAL14	0.597	
219	   O	1245.216	362.358	-1243.427	O.2	14	VAL14	-0.568	
220	  CB	1243.980	359.529	-1242.018	C.3	14	VAL14	0.299	
221	 CG1	1244.069	359.111	-1243.512	C.3	14	VAL14	-0.319	
222	 CG2	1244.411	358.277	-1241.218	C.3	14	VAL14	-0.319	
223	   H	1243.792	360.638	-1239.692	 H	14	VAL14	0.272	
224	  HA	1245.840	360.670	-1241.686	 H	14	VAL14	0.097	
225	  HB	1242.903	359.701	-1241.803	 H	14	VAL14	-0.030	
226	1HG1	1245.110	358.934	-1243.841	 H	14	VAL14	0.079	
227	2HG1	1243.496	358.188	-1243.724	 H	14	VAL14	0.079	
228	3HG1	1243.640	359.873	-1244.190	 H	14	VAL14	0.079	
229	1HG2	1244.324	358.436	-1240.127	 H	14	VAL14	0.079	
230	2HG2	1243.776	357.401	-1241.450	 H	14	VAL14	0.079	
231	3HG2	1245.459	357.987	-1241.423	 H	14	VAL14	0.079	
232	   N	1243.277	362.562	-1242.456	N.am	15	MET15	-0.416	
233	  CA	1242.957	363.655	-1243.370	C.3	15	MET15	-0.024	
234	   C	1243.988	364.755	-1243.282	C.2	15	MET15	0.597	
235	   O	1244.490	365.265	-1244.295	O.2	15	MET15	-0.568	
236	  CB	1241.536	364.201	-1243.062	C.3	15	MET15	0.034	
237	  CG	1240.374	363.203	-1243.253	C.3	15	MET15	0.002	
238	  SD	1238.800	364.069	-1243.139	S.3	15	MET15	-0.274	
239	  CE	1237.719	362.639	-1243.003	C.3	15	MET15	-0.054	
240	   H	1242.612	362.270	-1241.755	 H	15	MET15	0.272	
241	  HA	1242.983	363.268	-1244.406	 H	15	MET15	0.088	
242	 2HB	1241.334	365.080	-1243.704	 H	15	MET15	0.024	
243	 3HB	1241.500	364.594	-1242.025	 H	15	MET15	0.024	
244	 2HG	1240.417	362.417	-1242.475	 H	15	MET15	0.044	
245	 3HG	1240.437	362.687	-1244.229	 H	15	MET15	0.044	
246	 1HE	1237.862	361.951	-1243.855	 H	15	MET15	0.068	
247	 2HE	1237.928	362.087	-1242.070	 H	15	MET15	0.068	
248	 3HE	1236.661	362.955	-1242.986	 H	15	MET15	0.068	
249	   N	1244.356	365.176	-1242.120	N.am	16	ARG16	-0.348	
250	  CA	1245.353	366.240	-1242.037	C.3	16	ARG16	-0.264	
251	   C	1246.623	365.847	-1242.753	C.2	16	ARG16	0.734	
252	   O	1246.737	364.771	-1243.334	O.2	16	ARG16	-0.589	
253	  CB	1245.622	366.558	-1240.538	C.3	16	ARG16	-0.001	
254	  CG	1246.447	367.847	-1240.266	C.3	16	ARG16	0.039	
255	  CD	1246.696	368.067	-1238.765	C.3	16	ARG16	0.049	
256	  NE	1247.473	369.326	-1238.564	N.pl3	16	ARG16	-0.530	
257	  CZ	1247.864	369.809	-1237.388	C.cat	16	ARG16	0.808	
258	 NH1	1247.616	369.225	-1236.250	N.pl3	16	ARG16	-0.863	
259	 NH2	1248.528	370.921	-1237.370	N.pl3	16	ARG16	-0.863	
260	   H	1243.961	364.776	-1241.281	 H	16	ARG16	0.275	
261	  HA	1244.944	367.133	-1242.547	 H	16	ARG16	0.156	
262	 2HB	1246.119	365.682	-1240.072	 H	16	ARG16	0.033	
263	 3HB	1244.653	366.639	-1240.005	 H	16	ARG16	0.033	
264	 2HG	1245.917	368.718	-1240.703	 H	16	ARG16	0.029	
265	 3HG	1247.420	367.794	-1240.795	 H	16	ARG16	0.029	
266	 2HD	1247.245	367.193	-1238.351	 H	16	ARG16	0.069	
267	 3HD	1245.724	368.110	-1238.229	 H	16	ARG16	0.069	
268	  HE	1247.751	369.907	-1239.361	 H	16	ARG16	0.346	
269	1HH1	1247.090	368.352	-1236.334	 H	16	ARG16	0.448	
270	2HH1	1247.950	369.660	-1235.389	 H	16	ARG16	0.448	
271	1HH2	1248.713	371.364	-1238.272	 H	16	ARG16	0.448	
272	2HH2	1248.818	371.277	-1236.458	 H	16	ARG16	0.448	
@<TRIPOS>BOND
1 1 2 1
2 1 10 1
3 2 3 1
4 2 5 1
5 2 11 1
6 3 4 2
7 3 16 1
8 5 6 1
9 6 7 1
10 7 8 2
11 7 9 1
12 5 12 1
13 5 13 1
14 6 14 1
15 6 15 1
16 16 17 1
17 16 24 1
18 17 18 1
19 17 20 1
20 17 25 1
21 18 19 2
22 18 30 1
23 20 21 1
24 21 22 1
25 21 23 2
26 20 26 1
27 20 27 1
28 22 28 1
29 22 29 1
30 30 31 1
31 30 36 1
32 31 32 1
33 31 34 1
34 31 37 1
35 32 33 2
36 32 44 1
37 34 35 1
38 35 36 1
39 34 38 1
40 34 39 1
41 35 40 1
42 35 41 1
43 36 42 1
44 36 43 1
45 44 45 1
46 44 53 1
47 45 46 1
48 45 48 1
49 45 54 1
50 46 47 2
51 46 59 1
52 48 49 1
53 49 50 1
54 50 51 2
55 50 52 1
56 48 55 1
57 48 56 1
58 49 57 1
59 49 58 1
60 59 60 1
61 59 65 1
62 60 61 1
63 60 63 1
64 60 66 1
65 61 62 2
66 61 70 1
67 63 64 1
68 63 67 1
69 63 68 1
70 64 69 1
71 70 71 1
72 70 78 1
73 71 72 1
74 71 74 1
75 71 79 1
76 72 73 2
77 72 89 1
78 74 75 1
79 74 76 1
80 75 77 1
81 74 80 1
82 75 81 1
83 75 82 1
84 76 83 1
85 76 84 1
86 76 85 1
87 77 86 1
88 77 87 1
89 77 88 1
90 89 90 1
91 89 97 1
92 90 91 1
93 90 93 1
94 90 98 1
95 91 92 2
96 91 108 1
97 93 94 1
98 94 95 1
99 94 96 1
100 93 99 1
101 93 100 1
102 94 101 1
103 95 102 1
104 95 103 1
105 95 104 1
106 96 105 1
107 96 106 1
108 96 107 1
109 108 109 1
110 108 116 1
111 109 110 1
112 109 112 1
113 109 117 1
114 110 111 2
115 110 127 1
116 112 113 1
117 112 114 1
118 113 115 1
119 112 118 1
120 113 119 1
121 113 120 1
122 114 121 1
123 114 122 1
124 114 123 1
125 115 124 1
126 115 125 1
127 115 126 1
128 127 128 1
129 127 136 1
130 128 129 1
131 128 131 1
132 128 137 1
133 129 130 2
134 129 142 1
135 131 132 1
136 132 133 1
137 133 134 2
138 133 135 1
139 131 138 1
140 131 139 1
141 132 140 1
142 132 141 1
143 142 143 1
144 142 152 1
145 143 144 1
146 143 146 1
147 143 153 1
148 144 145 2
149 144 159 1
150 146 147 1
151 147 148 2
152 148 151 1
153 147 149 1
154 149 150 2
155 150 151 1
156 146 154 1
157 146 155 1
158 148 156 1
159 150 157 1
160 151 158 1
161 159 160 1
162 159 166 1
163 160 161 1
164 160 163 1
165 160 167 1
166 161 162 2
167 161 175 1
168 163 164 1
169 163 165 1
170 163 168 1
171 164 169 1
172 164 170 1
173 164 171 1
174 165 172 1
175 165 173 1
176 165 174 1
177 175 176 1
178 175 184 1
179 176 177 1
180 176 179 1
181 176 185 1
182 177 178 2
183 177 192 1
184 179 180 1
185 180 181 1
186 181 182 1
187 181 183 2
188 179 186 1
189 179 187 1
190 180 188 1
191 180 189 1
192 182 190 1
193 182 191 1
194 192 193 1
195 192 203 1
196 193 194 1
197 193 196 1
198 193 204 1
199 194 195 2
200 194 216 1
201 196 197 1
202 197 198 1
203 198 199 1
204 199 200 1
205 200 201 2
206 200 202 1
207 196 205 1
208 196 206 1
209 197 207 1
210 197 208 1
211 198 209 1
212 198 210 1
213 199 211 1
214 201 212 1
215 201 213 1
216 202 214 1
217 202 215 1
218 216 217 1
219 216 223 1
220 217 218 1
221 217 220 1
222 217 224 1
223 218 219 2
224 218 232 1
225 220 221 1
226 220 222 1
227 220 225 1
228 221 226 1
229 221 227 1
230 221 228 1
231 222 229 1
232 222 230 1
233 222 231 1
234 232 233 1
235 232 240 1
236 233 234 1
237 233 236 1
238 233 241 1
239 234 235 2
240 234 249 1
241 236 237 1
242 237 238 1
243 238 239 1
244 236 242 1
245 236 243 1
246 237 244 1
247 237 245 1
248 239 246 1
249 239 247 1
250 239 248 1
251 249 250 1
252 249 260 1
253 250 251 1
254 250 253 1
255 250 261 1
256 251 252 2
257 253 254 1
258 254 255 1
259 255 256 1
260 256 257 1
261 257 258 2
262 257 259 1
263 253 262 1
264 253 263 1
265 254 264 1
266 254 265 1
267 255 266 1
268 255 267 1
269 256 268 1
270 258 269 1
271 258 270 1
272 259 271 1
273 259 272 1
@<TRIPOS>SUBSTRUCTURE
1	GLU1	1	RESIDUE	1 ****	GLU
2	ASN2	16	RESIDUE	1 ****	ASN
3	PRO3	30	RESIDUE	1 ****	PRO
4	GLU4	44	RESIDUE	1 ****	GLU
5	SER5	59	RESIDUE	1 ****	SER
6	ILE6	70	RESIDUE	1 ****	ILE
7	LEU7	89	RESIDUE	1 ****	LEU
8	ILE8	108	RESIDUE	1 ****	ILE
9	GLU9	127	RESIDUE	1 ****	GLU
10	HIS10	142	RESIDUE	1 ****	HIS
11	VAL11	159	RESIDUE	1 ****	VAL
12	GLN12	175	RESIDUE	1 ****	GLN
13	ARG13	192	RESIDUE	1 ****	ARG
14	VAL14	216	RESIDUE	1 ****	VAL
15	MET15	232	RESIDUE	1 ****	MET
16	ARG16	249	RESIDUE	1 ****	ARG
