REMARK WARNING: 32 MAX_TORS EXCEEDED!!!
REMARK  67 active torsions:
REMARK  status: ('A' for Active; 'I' for Inactive)
REMARK    1  A    between atoms: N_1  and  CA_2 
REMARK    2  A    between atoms: CA_2  and  C_3 
REMARK    3  A    between atoms: CA_2  and  CB_5 
REMARK       I    between atoms: C_3  and  N_11 
REMARK    4  A    between atoms: CB_5  and  CG_6 
REMARK    5  A    between atoms: CG_6  and  CD_7 
REMARK    6  A    between atoms: N_11  and  CA_12 
REMARK    7  A    between atoms: CA_12  and  C_13 
REMARK    8  A    between atoms: CA_12  and  CB_15 
REMARK       I    between atoms: C_13  and  N_22 
REMARK    9  A    between atoms: CB_15  and  CG_16 
REMARK       I    between atoms: CG_16  and  ND2_17 
REMARK   10  A    between atoms: CA_23  and  C_24 
REMARK       I    between atoms: C_24  and  N_29 
REMARK   11  A    between atoms: N_29  and  CA_30 
REMARK   12  A    between atoms: CA_30  and  C_31 
REMARK   13  A    between atoms: CA_30  and  CB_33 
REMARK       I    between atoms: C_31  and  N_37 
REMARK   14  A    between atoms: CB_33  and  OG_34 
REMARK   15  A    between atoms: N_37  and  CA_38 
REMARK   16  A    between atoms: CA_38  and  C_39 
REMARK   17  A    between atoms: CA_38  and  CB_41 
REMARK       I    between atoms: C_39  and  N_45 
REMARK   18  A    between atoms: CB_41  and  OG_42 
REMARK   19  A    between atoms: N_45  and  CA_46 
REMARK   20  A    between atoms: CA_46  and  C_47 
REMARK   21  A    between atoms: CA_46  and  CB_49 
REMARK       I    between atoms: C_47  and  N_54 
REMARK   22  A    between atoms: CB_49  and  CG1_50 
REMARK   23  A    between atoms: N_54  and  CA_55 
REMARK   24  A    between atoms: CA_55  and  C_56 
REMARK   25  A    between atoms: CA_55  and  CB_58 
REMARK       I    between atoms: C_56  and  N_63 
REMARK   26  A    between atoms: CB_58  and  CG_59 
REMARK   27  A    between atoms: N_63  and  CA_64 
REMARK   28  A    between atoms: CA_64  and  C_65 
REMARK   29  A    between atoms: CA_64  and  CB_67 
REMARK       I    between atoms: C_65  and  N_72 
REMARK   30  A    between atoms: CB_67  and  CG_68 
REMARK   31  A    between atoms: N_72  and  CA_73 
REMARK   32  A    between atoms: CA_73  and  C_74 
REMARK   33  A    between atoms: CA_73  and  CB_76 
REMARK       I    between atoms: C_74  and  N_82 
REMARK   34  A    between atoms: CB_76  and  CG_77 
REMARK   35  A    between atoms: CG_77  and  CD_78 
REMARK   36  A    between atoms: N_82  and  CA_83 
REMARK   37  A    between atoms: CA_83  and  C_84 
REMARK   38  A    between atoms: CA_83  and  CB_86 
REMARK       I    between atoms: C_84  and  N_94 
REMARK   39  A    between atoms: CB_86  and  CG_87 
REMARK   40  A    between atoms: N_94  and  CA_95 
REMARK   41  A    between atoms: CA_95  and  C_96 
REMARK   42  A    between atoms: CA_95  and  CB_98 
REMARK       I    between atoms: C_96  and  N_102 
REMARK   43  A    between atoms: N_102  and  CA_103 
REMARK   44  A    between atoms: CA_103  and  C_104 
REMARK   45  A    between atoms: CA_103  and  CB_106 
REMARK       I    between atoms: C_104  and  N_114 
REMARK   46  A    between atoms: CB_106  and  CG_107 
REMARK   47  A    between atoms: CG_107  and  CD_108 
REMARK       I    between atoms: CD_108  and  NE2_109 
REMARK   48  A    between atoms: N_114  and  CA_115 
REMARK   49  A    between atoms: CA_115  and  C_116 
REMARK   50  A    between atoms: CA_115  and  CB_118 
REMARK       I    between atoms: C_116  and  N_131 
REMARK   51  A    between atoms: CB_118  and  CG_119 
REMARK   52  A    between atoms: CG_119  and  CD_120 
REMARK   53  A    between atoms: CD_120  and  NE_121 
REMARK       I    between atoms: NE_121  and  CZ_122 
REMARK       I    between atoms: CZ_122  and  NH1_123 
REMARK       I    between atoms: CZ_122  and  NH2_124 
REMARK   54  A    between atoms: N_131  and  CA_132 
REMARK   55  A    between atoms: CA_132  and  C_133 
REMARK   56  A    between atoms: CA_132  and  CB_135 
REMARK       I    between atoms: C_133  and  N_139 
REMARK   57  A    between atoms: N_139  and  CA_140 
REMARK   58  A    between atoms: CA_140  and  C_141 
REMARK   59  A    between atoms: CA_140  and  CB_143 
REMARK       I    between atoms: C_141  and  N_148 
REMARK   60  A    between atoms: CB_143  and  CG_144 
REMARK   61  A    between atoms: CG_144  and  SD_145 
REMARK   62  A    between atoms: N_148  and  CA_149 
REMARK   63  A    between atoms: CA_149  and  C_150 
REMARK   64  A    between atoms: CA_149  and  CB_152 
REMARK   65  A    between atoms: CB_152  and  CG_153 
REMARK   66  A    between atoms: CG_153  and  CD_154 
REMARK   67  A    between atoms: CD_154  and  NE_155 
REMARK       I    between atoms: NE_155  and  CZ_156 
REMARK       I    between atoms: CZ_156  and  NH1_157 
ROOT
ATOM      1  C   GLU d   9     640.981 162.260-587.873  0.00  0.00     0.241 C 
ATOM      2  O   GLU d   9     641.646 163.014-588.598  0.00  0.00    -0.271 OA
ATOM      3  N   HIS d  10     641.077 160.984-588.043  0.00  0.00    -0.346 N 
ATOM      4  H   HIS d  10     640.546 160.349-587.464  0.00  0.00     0.163 HD
ENDROOT
BRANCH   3   5
ATOM      5  CA  HIS d  10     641.966 160.473-589.083  0.00  0.00     0.182 C 
BRANCH   5   6
ATOM      6  C   HIS d  10     641.600 161.037-590.434  0.00  0.00     0.241 C 
ATOM      7  O   HIS d  10     642.453 161.502-591.205  0.00  0.00    -0.271 OA
ATOM      8  N   VAL d  11     640.362 161.037-590.798  0.00  0.00    -0.346 N 
ATOM      9  H   VAL d  11     639.649 160.664-590.187  0.00  0.00     0.163 HD
BRANCH   8  10
ATOM     10  CA  VAL d  11     640.008 161.583-592.105  0.00  0.00     0.180 C 
BRANCH  10  11
ATOM     11  C   VAL d  11     640.473 163.013-592.237  0.00  0.00     0.241 C 
ATOM     12  O   VAL d  11     641.074 163.418-593.239  0.00  0.00    -0.271 OA
ATOM     13  N   GLN d  12     640.235 163.839-591.275  0.00  0.00    -0.346 N 
ATOM     14  H   GLN d  12     639.746 163.533-590.446  0.00  0.00     0.163 HD
BRANCH  13  15
ATOM     15  CA  GLN d  12     640.684 165.222-591.401  0.00  0.00     0.177 C 
BRANCH  15  16
ATOM     16  C   GLN d  12     642.174 165.289-591.638  0.00  0.00     0.241 C 
ATOM     17  O   GLN d  12     642.662 165.997-592.517  0.00  0.00    -0.271 OA
ATOM     18  N   ARG d  13     642.958 164.582-590.897  0.00  0.00    -0.346 N 
ATOM     19  H   ARG d  13     642.582 163.992-590.169  0.00  0.00     0.163 HD
BRANCH  18  20
ATOM     20  CA  ARG d  13     644.399 164.648-591.127  0.00  0.00     0.176 C 
BRANCH  20  21
ATOM     21  C   ARG d  13     644.736 164.276-592.552  0.00  0.00     0.241 C 
ATOM     22  O   ARG d  13     645.505 164.948-593.236  0.00  0.00    -0.271 OA
ATOM     23  N   VAL d  14     644.199 163.222-593.067  0.00  0.00    -0.346 N 
ATOM     24  H   VAL d  14     643.564 162.653-592.525  0.00  0.00     0.163 HD
BRANCH  23  25
ATOM     25  CA  VAL d  14     644.525 162.862-594.444  0.00  0.00     0.180 C 
BRANCH  25  26
ATOM     26  C   VAL d  14     644.196 163.993-595.390  0.00  0.00     0.241 C 
ATOM     27  O   VAL d  14     644.990 164.374-596.259  0.00  0.00    -0.271 OA
ATOM     28  N   MET d  15     643.051 164.579-595.288  0.00  0.00    -0.346 N 
ATOM     29  H   MET d  15     642.386 164.286-594.587  0.00  0.00     0.163 HD
BRANCH  28  30
ATOM     30  CA  MET d  15     642.731 165.671-596.202  0.00  0.00     0.177 C 
BRANCH  30  31
ATOM     31  C   MET d  15     643.762 166.771-596.114  0.00  0.00     0.241 C 
ATOM     32  O   MET d  15     644.265 167.282-597.126  0.00  0.00    -0.271 OA
ATOM     33  N   ARG d  16     644.130 167.192-594.951  0.00  0.00    -0.347 N 
ATOM     34  H   ARG d  16     643.735 166.792-594.112  0.00  0.00     0.163 HD
BRANCH  33  35
ATOM     35  CA  ARG d  16     645.127 168.256-594.867  0.00  0.00     0.162 C 
BRANCH  35  36
ATOM     36  C   ARG d  16     646.398 167.863-595.582  0.00  0.00     0.219 C 
ATOM     37  O   ARG d  16     646.512 166.786-596.164  0.00  0.00    -0.287 OA
ENDBRANCH  35  36
BRANCH  35  38
ATOM     38  CB  ARG d  16     645.395 168.573-593.368  0.00  0.00     0.035 C 
BRANCH  38  39
ATOM     39  CG  ARG d  16     646.220 169.862-593.095  0.00  0.00     0.023 C 
BRANCH  39  40
ATOM     40  CD  ARG d  16     646.469 170.081-591.594  0.00  0.00     0.138 C 
BRANCH  40  41
ATOM     41  NE  ARG d  16     647.246 171.340-591.392  0.00  0.00    -0.227 N 
ATOM     42  CZ  ARG d  16     647.636 171.822-590.216  0.00  0.00     0.665 C 
ATOM     43  NH1 ARG d  16     647.388 171.238-589.078  0.00  0.00    -0.235 N 
ATOM     44  NH2 ARG d  16     648.301 172.934-590.197  0.00  0.00    -0.235 N 
ATOM     45 11HH ARG d  16     646.862 170.365-589.163  0.00  0.00     0.174 HD
ATOM     46 12HH ARG d  16     647.722 171.673-588.217  0.00  0.00     0.174 HD
ATOM     47 21HH ARG d  16     648.487 173.378-591.099  0.00  0.00     0.174 HD
ATOM     48 22HH ARG d  16     648.590 173.289-589.284  0.00  0.00     0.174 HD
ATOM     49  HE  ARG d  16     647.525 171.921-592.189  0.00  0.00     0.177 HD
ENDBRANCH  40  41
ENDBRANCH  39  40
ENDBRANCH  38  39
ENDBRANCH  35  38
ENDBRANCH  33  35
ENDBRANCH  30  31
BRANCH  30  50
ATOM     50  CB  MET d  15     641.310 166.218-595.894  0.00  0.00     0.045 C 
BRANCH  50  51
ATOM     51  CG  MET d  15     640.148 165.220-596.086  0.00  0.00     0.076 C 
BRANCH  51  52
ATOM     52  SD  MET d  15     638.574 166.086-595.973  0.00  0.00    -0.173 SA
ATOM     53  CE  MET d  15     637.492 164.657-595.837  0.00  0.00     0.089 C 
ENDBRANCH  51  52
ENDBRANCH  50  51
ENDBRANCH  30  50
ENDBRANCH  28  30
ENDBRANCH  25  26
BRANCH  25  54
ATOM     54  CB  VAL d  14     643.753 161.545-594.851  0.00  0.00     0.009 C 
ATOM     55  CG1 VAL d  14     643.842 161.127-596.345  0.00  0.00     0.012 C 
ATOM     56  CG2 VAL d  14     644.184 160.293-594.051  0.00  0.00     0.012 C 
ENDBRANCH  25  54
ENDBRANCH  23  25
ENDBRANCH  20  21
BRANCH  20  57
ATOM     57  CB  ARG d  13     645.111 163.708-590.113  0.00  0.00     0.036 C 
BRANCH  57  58
ATOM     58  CG  ARG d  13     646.656 163.861-590.031  0.00  0.00     0.023 C 
BRANCH  58  59
ATOM     59  CD  ARG d  13     647.282 162.873-589.033  0.00  0.00     0.138 C 
BRANCH  59  60
ATOM     60  NE  ARG d  13     648.760 163.080-588.981  0.00  0.00    -0.227 N 
ATOM     61  CZ  ARG d  13     649.607 162.388-588.226  0.00  0.00     0.665 C 
ATOM     62  NH1 ARG d  13     649.241 161.424-587.429  0.00  0.00    -0.235 N 
ATOM     63  NH2 ARG d  13     650.866 162.687-588.282  0.00  0.00    -0.235 N 
ATOM     64 11HH ARG d  13     648.236 161.238-587.432  0.00  0.00     0.174 HD
ATOM     65 12HH ARG d  13     649.954 160.941-586.880  0.00  0.00     0.174 HD
ATOM     66 21HH ARG d  13     651.135 163.445-588.913  0.00  0.00     0.174 HD
ATOM     67 22HH ARG d  13     651.501 162.145-587.693  0.00  0.00     0.174 HD
ATOM     68  HE  ARG d  13     649.211 163.802-589.552  0.00  0.00     0.177 HD
ENDBRANCH  59  60
ENDBRANCH  58  59
ENDBRANCH  57  58
ENDBRANCH  20  57
ENDBRANCH  18  20
ENDBRANCH  15  16
BRANCH  15  69
ATOM     69  CB  GLN d  12     640.293 165.989-590.119  0.00  0.00     0.044 C 
BRANCH  69  70
ATOM     70  CG  GLN d  12     640.653 167.511-590.087  0.00  0.00     0.105 C 
BRANCH  70  71
ATOM     71  CD  GLN d  12     640.350 168.325-588.823  0.00  0.00     0.215 C 
ATOM     72  NE2 GLN d  12     639.782 167.748-587.794  0.00  0.00    -0.370 N 
ATOM     73 21HE GLN d  12     639.675 168.343-586.971  0.00  0.00     0.159 HD
ATOM     74 22HE GLN d  12     639.619 166.745-587.898  0.00  0.00     0.159 HD
ATOM     75  OE1 GLN d  12     640.652 169.506-588.745  0.00  0.00    -0.274 OA
ENDBRANCH  70  71
ENDBRANCH  69  70
ENDBRANCH  15  69
ENDBRANCH  13  15
ENDBRANCH  10  11
BRANCH  10  76
ATOM     76  CB  VAL d  11     638.447 161.477-592.325  0.00  0.00     0.009 C 
ATOM     77  CG1 VAL d  11     637.879 162.181-593.588  0.00  0.00     0.012 C 
ATOM     78  CG2 VAL d  11     637.922 160.023-592.398  0.00  0.00     0.012 C 
ENDBRANCH  10  76
ENDBRANCH   8  10
ENDBRANCH   5   6
BRANCH   5  79
ATOM     79  CB  HIS d  10     641.802 158.944-589.078  0.00  0.00     0.095 C 
BRANCH  79  80
ATOM     80  CG  HIS d  10     643.087 158.233-588.769  0.00  0.00     0.053 A 
ATOM     81  CD2 HIS d  10     643.467 157.898-587.476  0.00  0.00     0.116 A 
ATOM     82  NE2 HIS d  10     644.682 157.266-587.542  0.00  0.00    -0.359 N 
ATOM     83  CE1 HIS d  10     644.945 157.269-588.877  0.00  0.00     0.207 A 
ATOM     84  2HE HIS d  10     645.248 156.889-586.769  0.00  0.00     0.166 HD
ATOM     85  ND1 HIS d  10     644.039 157.827-589.701  0.00  0.00    -0.247 NA
ENDBRANCH  79  80
ENDBRANCH   5  79
ENDBRANCH   3   5
BRANCH   1  86
ATOM     86  CA  GLU d   9     640.063 162.788-586.798  0.00  0.00     0.177 C 
BRANCH  86  87
ATOM     87  N   GLU d   9     638.760 162.131-586.854  0.00  0.00    -0.346 N 
ATOM     88  C   ASP d   8     638.081 162.181-587.950  0.00  0.00     0.241 C 
ATOM     89  O   ASP d   8     638.554 162.786-588.924  0.00  0.00    -0.271 OA
ATOM     90  H   GLU d   9     638.396 161.644-586.047  0.00  0.00     0.163 HD
BRANCH  88  91
ATOM     91  CA  ASP d   8     636.734 161.501-588.008  0.00  0.00     0.186 C 
BRANCH  91  92
ATOM     92  N   ASP d   8     636.803 160.152-587.454  0.00  0.00    -0.346 N 
ATOM     93  C   LEU d   7     637.641 159.311-587.960  0.00  0.00     0.241 C 
ATOM     94  O   LEU d   7     638.362 159.673-588.901  0.00  0.00    -0.271 OA
ATOM     95  H   ASP d   8     636.205 159.881-586.687  0.00  0.00     0.163 HD
BRANCH  93  96
ATOM     96  CA  LEU d   7     637.712 157.916-587.387  0.00  0.00     0.177 C 
BRANCH  96  97
ATOM     97  N   LEU d   7     637.766 157.952-585.929  0.00  0.00    -0.346 N 
ATOM     98  C   ILE d   6     638.712 158.615-585.355  0.00  0.00     0.241 C 
ATOM     99  O   ILE d   6     639.548 159.202-586.058  0.00  0.00    -0.271 OA
ATOM    100  H   LEU d   7     637.074 157.465-585.377  0.00  0.00     0.163 HD
BRANCH  98 101
ATOM    101  CA  ILE d   6     638.769 158.653-583.847  0.00  0.00     0.180 C 
BRANCH 101 102
ATOM    102  N   ILE d   6     637.455 158.949-583.281  0.00  0.00    -0.346 N 
ATOM    103  C   SER d   5     636.851 160.032-583.636  0.00  0.00     0.243 C 
ATOM    104  O   SER d   5     637.399 160.785-584.441  0.00  0.00    -0.271 OA
ATOM    105  H   ILE d   6     637.026 158.315-582.622  0.00  0.00     0.163 HD
BRANCH 103 106
ATOM    106  CA  SER d   5     635.492 160.338-583.051  0.00  0.00     0.200 C 
BRANCH 106 107
ATOM    107  N   SER d   5     634.622 159.168-583.109  0.00  0.00    -0.344 N 
ATOM    108  C   SER d   4     634.395 158.615-584.253  0.00  0.00     0.243 C 
ATOM    109  O   SER d   4     634.918 159.090-585.260  0.00  0.00    -0.271 OA
ATOM    110  H   SER d   5     634.205 158.796-582.268  0.00  0.00     0.163 HD
BRANCH 108 111
ATOM    111  CA  SER d   4     633.495 157.403-584.314  0.00  0.00     0.200 C 
BRANCH 111 112
ATOM    112  N   SER d   4     633.854 156.432-583.285  0.00  0.00    -0.344 N 
ATOM    113  C   PRO d   3     635.058 155.972-583.252  0.00  0.00     0.241 C 
ATOM    114  O   PRO d   3     635.882 156.356-584.084  0.00  0.00    -0.271 OA
ATOM    115  H   SER d   4     633.169 156.126-582.608  0.00  0.00     0.163 HD
BRANCH 113 116
ATOM    116  CA  PRO d   3     635.457 154.949-582.175  0.00  0.00     0.179 C 
ATOM    117  N   PRO d   3     635.005 155.358-580.854  0.00  0.00    -0.337 N 
ATOM    118  C   ASN d   2     635.526 156.353-580.220  0.00  0.00     0.243 C 
ATOM    119  CD  PRO d   3     633.927 154.565-580.305  0.00  0.00     0.127 C 
ATOM    120  O   ASN d   2     636.441 156.984-580.748  0.00  0.00    -0.271 OA
ATOM    121  CG  PRO d   3     633.469 153.746-581.515  0.00  0.00     0.022 C 
ATOM    122  CB  PRO d   3     634.753 153.594-582.345  0.00  0.00     0.037 C 
BRANCH 118 123
ATOM    123  CA  ASN d   2     634.995 156.709-578.851  0.00  0.00     0.185 C 
BRANCH 123 124
ATOM    124  N   ASN d   2     633.535 156.747-578.851  0.00  0.00    -0.346 N 
ATOM    125  C   GLU d   1     632.931 157.533-579.676  0.00  0.00     0.242 C 
ATOM    126  O   GLU d   1     633.607 158.232-580.445  0.00  0.00    -0.271 OA
ATOM    127  H   ASN d   2     633.007 156.167-578.214  0.00  0.00     0.163 HD
BRANCH 125 128
ATOM    128  CA  GLU d   1     631.422 157.573-579.676  0.00  0.00     0.191 C 
BRANCH 128 129
ATOM    129  N   GLU d   1     630.863 156.224-579.676  0.00  0.00    -0.326 NA
ATOM    130  H   GLU d   1     631.490 155.345-579.676  0.00  0.00     0.180 HD
ENDBRANCH 128 129
BRANCH 128 131
ATOM    131  CB  GLU d   1     630.899 158.358-578.439  0.00  0.00     0.047 C 
BRANCH 131 132
ATOM    132  CG  GLU d   1     631.374 159.843-578.328  0.00  0.00     0.116 C 
BRANCH 132 133
ATOM    133  CD  GLU d   1     630.950 160.647-577.113  0.00  0.00     0.172 C 
ATOM    134  OE1 GLU d   1     630.222 160.145-576.235  0.00  0.00    -0.648 OA
ATOM    135  OE2 GLU d   1     631.380 161.817-577.041  0.00  0.00    -0.648 OA
ENDBRANCH 132 133
ENDBRANCH 131 132
ENDBRANCH 128 131
ENDBRANCH 125 128
ENDBRANCH 123 124
BRANCH 123 136
ATOM    136  CB  ASN d   2     635.487 155.686-577.787  0.00  0.00     0.137 C 
BRANCH 136 137
ATOM    137  CG  ASN d   2     635.024 155.909-576.343  0.00  0.00     0.217 C 
ATOM    138  ND2 ASN d   2     635.618 156.824-575.625  0.00  0.00    -0.370 N 
ATOM    139 21HD ASN d   2     635.137 156.997-574.739  0.00  0.00     0.159 HD
ATOM    140 22HD ASN d   2     636.320 157.396-576.094  0.00  0.00     0.159 HD
ATOM    141  OD1 ASN d   2     634.103 155.276-575.849  0.00  0.00    -0.274 OA
ENDBRANCH 136 137
ENDBRANCH 123 136
ENDBRANCH 118 123
ENDBRANCH 113 116
ENDBRANCH 111 112
BRANCH 111 142
ATOM    142  CB  SER d   4     632.001 157.797-584.204  0.00  0.00     0.199 C 
BRANCH 142 143
ATOM    143  OG  SER d   4     631.715 158.576-583.037  0.00  0.00    -0.398 OA
ATOM    144  HG  SER d   4     631.908 158.029-582.272  0.00  0.00     0.209 HD
ENDBRANCH 142 143
ENDBRANCH 111 142
ENDBRANCH 108 111
ENDBRANCH 106 107
BRANCH 106 145
ATOM    145  CB  SER d   5     635.604 160.871-581.601  0.00  0.00     0.199 C 
BRANCH 145 146
ATOM    146  OG  SER d   5     636.334 159.992-580.739  0.00  0.00    -0.398 OA
ATOM    147  HG  SER d   5     635.845 159.167-580.688  0.00  0.00     0.209 HD
ENDBRANCH 145 146
ENDBRANCH 106 145
ENDBRANCH 103 106
ENDBRANCH 101 102
BRANCH 101 148
ATOM    148  CB  ILE d   6     639.368 157.317-583.246  0.00  0.00     0.013 C 
ATOM    149  CG2 ILE d   6     640.809 157.014-583.761  0.00  0.00     0.012 C 
BRANCH 148 150
ATOM    150  CG1 ILE d   6     639.386 157.255-581.685  0.00  0.00     0.002 C 
ATOM    151  CD1 ILE d   6     639.655 155.866-581.070  0.00  0.00     0.005 C 
ENDBRANCH 148 150
ENDBRANCH 101 148
ENDBRANCH  98 101
ENDBRANCH  96  97
BRANCH  96 152
ATOM    152  CB  LEU d   7     636.509 157.056-587.868  0.00  0.00     0.038 C 
BRANCH 152 153
ATOM    153  CG  LEU d   7     636.435 155.577-587.401  0.00  0.00    -0.020 C 
ATOM    154  CD1 LEU d   7     635.245 154.871-588.067  0.00  0.00     0.009 C 
ATOM    155  CD2 LEU d   7     637.729 154.797-587.692  0.00  0.00     0.009 C 
ENDBRANCH 152 153
ENDBRANCH  96 152
ENDBRANCH  93  96
ENDBRANCH  91  92
BRANCH  91 156
ATOM    156  CB  ASP d   8     635.656 162.341-587.266  0.00  0.00     0.147 C 
BRANCH 156 157
ATOM    157  CG  ASP d   8     635.438 163.762-587.807  0.00  0.00     0.175 C 
ATOM    158  OD1 ASP d   8     635.503 163.961-589.038  0.00  0.00    -0.648 OA
ATOM    159  OD2 ASP d   8     635.246 164.688-586.992  0.00  0.00    -0.648 OA
ENDBRANCH 156 157
ENDBRANCH  91 156
ENDBRANCH  88  91
ENDBRANCH  86  87
BRANCH  86 160
ATOM    160  CB  GLU d   9     640.695 162.580-585.392  0.00  0.00     0.045 C 
BRANCH 160 161
ATOM    161  CG  GLU d   9     642.078 163.271-585.162  0.00  0.00     0.116 C 
BRANCH 161 162
ATOM    162  CD  GLU d   9     642.779 163.058-583.833  0.00  0.00     0.172 C 
ATOM    163  OE1 GLU d   9     642.257 162.367-582.937  0.00  0.00    -0.648 OA
ATOM    164  OE2 GLU d   9     643.898 163.595-583.701  0.00  0.00    -0.648 OA
ENDBRANCH 161 162
ENDBRANCH 160 161
ENDBRANCH  86 160
ENDBRANCH   1  86
TORSDOF 67
