REMARK WARNING: 32 MAX_TORS EXCEEDED!!!
REMARK  68 active torsions:
REMARK  status: ('A' for Active; 'I' for Inactive)
REMARK    1  A    between atoms: N_1  and  CA_2 
REMARK    2  A    between atoms: CA_2  and  C_3 
REMARK    3  A    between atoms: CA_2  and  CB_5 
REMARK       I    between atoms: C_3  and  N_13 
REMARK    4  A    between atoms: CB_5  and  CG_6 
REMARK    5  A    between atoms: CG_6  and  CD_7 
REMARK       I    between atoms: CD_7  and  NE2_8 
REMARK    6  A    between atoms: N_13  and  CA_14 
REMARK    7  A    between atoms: CA_14  and  C_15 
REMARK    8  A    between atoms: CA_14  and  CB_17 
REMARK       I    between atoms: C_15  and  N_24 
REMARK    9  A    between atoms: CB_17  and  CG_18 
REMARK       I    between atoms: CG_18  and  ND2_19 
REMARK   10  A    between atoms: CA_25  and  C_26 
REMARK       I    between atoms: C_26  and  N_31 
REMARK   11  A    between atoms: N_31  and  CA_32 
REMARK   12  A    between atoms: CA_32  and  C_33 
REMARK   13  A    between atoms: CA_32  and  CB_35 
REMARK       I    between atoms: C_33  and  N_41 
REMARK   14  A    between atoms: CB_35  and  CG_36 
REMARK   15  A    between atoms: CG_36  and  CD_37 
REMARK   16  A    between atoms: N_41  and  CA_42 
REMARK   17  A    between atoms: CA_42  and  C_43 
REMARK   18  A    between atoms: CA_42  and  CB_45 
REMARK       I    between atoms: C_43  and  N_49 
REMARK   19  A    between atoms: CB_45  and  OG_46 
REMARK   20  A    between atoms: N_49  and  CA_50 
REMARK   21  A    between atoms: CA_50  and  C_51 
REMARK   22  A    between atoms: CA_50  and  CB_53 
REMARK       I    between atoms: C_51  and  N_58 
REMARK   23  A    between atoms: CB_53  and  CG1_54 
REMARK   24  A    between atoms: N_58  and  CA_59 
REMARK   25  A    between atoms: CA_59  and  C_60 
REMARK   26  A    between atoms: CA_59  and  CB_62 
REMARK       I    between atoms: C_60  and  N_67 
REMARK   27  A    between atoms: CB_62  and  CG_63 
REMARK   28  A    between atoms: N_67  and  CA_68 
REMARK   29  A    between atoms: CA_68  and  C_69 
REMARK   30  A    between atoms: CA_68  and  CB_71 
REMARK       I    between atoms: C_69  and  N_76 
REMARK   31  A    between atoms: CB_71  and  CG_72 
REMARK   32  A    between atoms: N_76  and  CA_77 
REMARK   33  A    between atoms: CA_77  and  C_78 
REMARK   34  A    between atoms: CA_77  and  CB_80 
REMARK       I    between atoms: C_78  and  N_86 
REMARK   35  A    between atoms: CB_80  and  CG_81 
REMARK   36  A    between atoms: CG_81  and  CD_82 
REMARK   37  A    between atoms: N_86  and  CA_87 
REMARK   38  A    between atoms: CA_87  and  C_88 
REMARK   39  A    between atoms: CA_87  and  CB_90 
REMARK       I    between atoms: C_88  and  N_98 
REMARK   40  A    between atoms: CB_90  and  CG_91 
REMARK   41  A    between atoms: N_98  and  CA_99 
REMARK   42  A    between atoms: CA_99  and  C_100 
REMARK   43  A    between atoms: CA_99  and  CB_102 
REMARK       I    between atoms: C_100  and  N_106 
REMARK   44  A    between atoms: N_106  and  CA_107 
REMARK   45  A    between atoms: CA_107  and  C_108 
REMARK   46  A    between atoms: CA_107  and  CB_110 
REMARK       I    between atoms: C_108  and  N_118 
REMARK   47  A    between atoms: CB_110  and  CG_111 
REMARK   48  A    between atoms: CG_111  and  CD_112 
REMARK       I    between atoms: CD_112  and  NE2_113 
REMARK   49  A    between atoms: N_118  and  CA_119 
REMARK   50  A    between atoms: CA_119  and  C_120 
REMARK   51  A    between atoms: CA_119  and  CB_122 
REMARK       I    between atoms: C_120  and  N_135 
REMARK   52  A    between atoms: CB_122  and  CG_123 
REMARK   53  A    between atoms: CG_123  and  CD_124 
REMARK   54  A    between atoms: CD_124  and  NE_125 
REMARK       I    between atoms: NE_125  and  CZ_126 
REMARK       I    between atoms: CZ_126  and  NH1_127 
REMARK       I    between atoms: CZ_126  and  NH2_128 
REMARK   55  A    between atoms: N_135  and  CA_136 
REMARK   56  A    between atoms: CA_136  and  C_137 
REMARK   57  A    between atoms: CA_136  and  CB_139 
REMARK       I    between atoms: C_137  and  N_143 
REMARK   58  A    between atoms: N_143  and  CA_144 
REMARK   59  A    between atoms: CA_144  and  C_145 
REMARK   60  A    between atoms: CA_144  and  CB_147 
REMARK       I    between atoms: C_145  and  N_152 
REMARK   61  A    between atoms: CB_147  and  CG_148 
REMARK   62  A    between atoms: CG_148  and  SD_149 
REMARK   63  A    between atoms: N_152  and  CA_153 
REMARK   64  A    between atoms: CA_153  and  C_154 
REMARK   65  A    between atoms: CA_153  and  CB_156 
REMARK   66  A    between atoms: CB_156  and  CG_157 
REMARK   67  A    between atoms: CG_157  and  CD_158 
REMARK   68  A    between atoms: CD_158  and  NE_159 
REMARK       I    between atoms: NE_159  and  CZ_160 
REMARK       I    between atoms: CZ_160  and  NH1_161 
ROOT
ATOM      1  C   GLU d   9     142.216  29.432-109.830  0.00  0.00     0.241 C 
ATOM      2  O   GLU d   9     142.874  30.191-110.556  0.00  0.00    -0.271 OA
ATOM      3  N   HIS d  10     142.321  28.157-110.000  0.00  0.00    -0.346 N 
ATOM      4  H   HIS d  10     141.794  27.518-109.421  0.00  0.00     0.163 HD
ENDROOT
BRANCH   1   5
ATOM      5  CA  GLU d   9     141.295  29.953-108.754  0.00  0.00     0.177 C 
BRANCH   5   6
ATOM      6  N   GLU d   9     139.996  29.287-108.809  0.00  0.00    -0.346 N 
ATOM      7  C   ASP d   8     139.316  29.333-109.904  0.00  0.00     0.241 C 
ATOM      8  O   ASP d   8     139.784  29.941-110.879  0.00  0.00    -0.271 OA
ATOM      9  H   GLU d   9     139.637  28.798-108.002  0.00  0.00     0.163 HD
BRANCH   7  10
ATOM     10  CA  ASP d   8     137.974  28.644-109.961  0.00  0.00     0.186 C 
BRANCH  10  11
ATOM     11  N   ASP d   8     138.053  27.295-109.407  0.00  0.00    -0.346 N 
ATOM     12  C   LEU d   7     138.896  26.460-109.914  0.00  0.00     0.241 C 
ATOM     13  O   LEU d   7     139.614  26.827-110.856  0.00  0.00    -0.271 OA
ATOM     14  H   ASP d   8     137.457  27.020-108.640  0.00  0.00     0.163 HD
BRANCH  12  15
ATOM     15  CA  LEU d   7     138.978  25.065-109.342  0.00  0.00     0.177 C 
BRANCH  15  16
ATOM     16  N   LEU d   7     139.033  25.101-107.883  0.00  0.00    -0.346 N 
ATOM     17  C   ILE d   6     139.975  25.771-107.310  0.00  0.00     0.241 C 
ATOM     18  O   ILE d   6     140.805  26.364-108.014  0.00  0.00    -0.271 OA
ATOM     19  H   LEU d   7     138.344  24.610-107.332  0.00  0.00     0.163 HD
BRANCH  17  20
ATOM     20  CA  ILE d   6     140.032  25.809-105.802  0.00  0.00     0.180 C 
BRANCH  20  21
ATOM     21  N   ILE d   6     138.718  26.095-105.235  0.00  0.00    -0.346 N 
ATOM     22  C   SER d   5     138.106  27.174-105.589  0.00  0.00     0.243 C 
ATOM     23  O   SER d   5     138.647  27.931-106.394  0.00  0.00    -0.271 OA
ATOM     24  H   ILE d   6     138.294  25.458-104.576  0.00  0.00     0.163 HD
BRANCH  22  25
ATOM     25  CA  SER d   5     136.745  27.471-105.003  0.00  0.00     0.200 C 
BRANCH  25  26
ATOM     26  N   SER d   5     135.883  26.294-105.061  0.00  0.00    -0.344 N 
ATOM     27  C   GLU d   4     135.659  25.740-106.204  0.00  0.00     0.241 C 
ATOM     28  O   GLU d   4     136.182  26.223-107.219  0.00  0.00    -0.271 OA
ATOM     29  H   SER d   5     135.469  25.920-104.219  0.00  0.00     0.163 HD
BRANCH  27  30
ATOM     30  CA  GLU d   4     134.768  24.523-106.265  0.00  0.00     0.177 C 
BRANCH  30  31
ATOM     31  N   GLU d   4     135.134  23.554-105.235  0.00  0.00    -0.346 N 
ATOM     32  C   PRO d   3     136.342  23.102-105.204  0.00  0.00     0.241 C 
ATOM     33  O   PRO d   3     137.162  23.491-106.035  0.00  0.00    -0.271 OA
ATOM     34  H   GLU d   4     134.452  23.243-104.558  0.00  0.00     0.163 HD
BRANCH  32  35
ATOM     35  CA  PRO d   3     136.747  22.081-104.127  0.00  0.00     0.179 C 
ATOM     36  N   PRO d   3     136.293  22.488-102.805  0.00  0.00    -0.337 N 
ATOM     37  C   ASN d   2     136.809  23.486-102.171  0.00  0.00     0.243 C 
ATOM     38  CD  PRO d   3     135.221  21.687-102.256  0.00  0.00     0.127 C 
ATOM     39  O   ASN d   2     137.719  24.122-102.700  0.00  0.00    -0.271 OA
ATOM     40  CG  PRO d   3     134.768  20.866-103.465  0.00  0.00     0.022 C 
ATOM     41  CB  PRO d   3     136.052  20.722-104.296  0.00  0.00     0.037 C 
BRANCH  37  42
ATOM     42  CA  ASN d   2     136.276  23.838-100.802  0.00  0.00     0.185 C 
BRANCH  42  43
ATOM     43  N   ASN d   2     134.816  23.867-100.802  0.00  0.00    -0.346 N 
ATOM     44  C   GLN d   1     134.206  24.649-101.627  0.00  0.00     0.242 C 
ATOM     45  O   GLN d   1     134.871  25.347-102.389  0.00  0.00    -0.271 OA
ATOM     46  H   ASN d   2     134.292  23.284-100.165  0.00  0.00     0.163 HD
BRANCH  44  47
ATOM     47  CA  GLN d   1     132.696  24.680-101.627  0.00  0.00     0.191 C 
BRANCH  47  48
ATOM     48  N   GLN d   1     132.144  23.329-101.627  0.00  0.00    -0.326 NA
ATOM     49  H   GLN d   1     132.706  22.550-101.627  0.00  0.00     0.180 HD
ENDBRANCH  47  48
BRANCH  47  50
ATOM     50  CB  GLN d   1     132.158  25.435-100.391  0.00  0.00     0.045 C 
BRANCH  50  51
ATOM     51  CG  GLN d   1     132.607  26.926-100.243  0.00  0.00     0.105 C 
BRANCH  51  52
ATOM     52  CD  GLN d   1     132.162  27.721 -99.009  0.00  0.00     0.215 C 
ATOM     53  NE2 GLN d   1     131.403  27.156 -98.105  0.00  0.00    -0.370 N 
ATOM     54 21HE GLN d   1     131.206  27.732 -97.285  0.00  0.00     0.159 HD
ATOM     55 22HE GLN d   1     131.193  26.170 -98.273  0.00  0.00     0.159 HD
ATOM     56  OE1 GLN d   1     132.524  28.875 -98.838  0.00  0.00    -0.274 OA
ENDBRANCH  51  52
ENDBRANCH  50  51
ENDBRANCH  47  50
ENDBRANCH  44  47
ENDBRANCH  42  43
BRANCH  42  57
ATOM     57  CB  ASN d   2     136.775  22.818 -99.738  0.00  0.00     0.137 C 
BRANCH  57  58
ATOM     58  CG  ASN d   2     136.311  23.039 -98.295  0.00  0.00     0.217 C 
ATOM     59  ND2 ASN d   2     136.900  23.958 -97.577  0.00  0.00    -0.370 N 
ATOM     60 21HD ASN d   2     136.418  24.128 -96.690  0.00  0.00     0.159 HD
ATOM     61 22HD ASN d   2     137.598  24.534 -98.046  0.00  0.00     0.159 HD
ATOM     62  OD1 ASN d   2     135.395  22.399 -97.800  0.00  0.00    -0.274 OA
ENDBRANCH  57  58
ENDBRANCH  42  57
ENDBRANCH  37  42
ENDBRANCH  32  35
ENDBRANCH  30  31
BRANCH  30  63
ATOM     63  CB  GLU d   4     133.277  24.932-106.094  0.00  0.00     0.045 C 
BRANCH  63  64
ATOM     64  CG  GLU d   4     132.721  25.932-107.159  0.00  0.00     0.116 C 
BRANCH  64  65
ATOM     65  CD  GLU d   4     131.292  26.419-107.015  0.00  0.00     0.172 C 
ATOM     66  OE1 GLU d   4     130.569  26.016-106.083  0.00  0.00    -0.648 OA
ATOM     67  OE2 GLU d   4     130.896  27.246-107.863  0.00  0.00    -0.648 OA
ENDBRANCH  64  65
ENDBRANCH  63  64
ENDBRANCH  30  63
ENDBRANCH  27  30
ENDBRANCH  25  26
BRANCH  25  68
ATOM     68  CB  SER d   5     136.854  28.004-103.552  0.00  0.00     0.199 C 
BRANCH  68  69
ATOM     69  OG  SER d   5     137.592  27.129-102.692  0.00  0.00    -0.398 OA
ATOM     70  HG  SER d   5     137.108  26.301-102.641  0.00  0.00     0.209 HD
ENDBRANCH  68  69
ENDBRANCH  25  68
ENDBRANCH  22  25
ENDBRANCH  20  21
BRANCH  20  71
ATOM     71  CB  ILE d   6     140.641  24.477-105.203  0.00  0.00     0.013 C 
ATOM     72  CG2 ILE d   6     142.084  24.184-105.719  0.00  0.00     0.012 C 
BRANCH  71  73
ATOM     73  CG1 ILE d   6     140.662  24.415-103.641  0.00  0.00     0.002 C 
ATOM     74  CD1 ILE d   6     140.941  23.027-103.027  0.00  0.00     0.005 C 
ENDBRANCH  71  73
ENDBRANCH  20  71
ENDBRANCH  17  20
ENDBRANCH  15  16
BRANCH  15  75
ATOM     75  CB  LEU d   7     137.780  24.197-109.822  0.00  0.00     0.038 C 
BRANCH  75  76
ATOM     76  CG  LEU d   7     137.717  22.717-109.355  0.00  0.00    -0.020 C 
ATOM     77  CD1 LEU d   7     136.532  22.003-110.020  0.00  0.00     0.009 C 
ATOM     78  CD2 LEU d   7     139.016  21.946-109.647  0.00  0.00     0.009 C 
ENDBRANCH  75  76
ENDBRANCH  15  75
ENDBRANCH  12  15
ENDBRANCH  10  11
BRANCH  10  79
ATOM     79  CB  ASP d   8     136.890  29.476-109.218  0.00  0.00     0.147 C 
BRANCH  79  80
ATOM     80  CG  ASP d   8     136.662  30.895-109.759  0.00  0.00     0.175 C 
ATOM     81  OD1 ASP d   8     136.724  31.094-110.989  0.00  0.00    -0.648 OA
ATOM     82  OD2 ASP d   8     136.464  31.819-108.943  0.00  0.00    -0.648 OA
ENDBRANCH  79  80
ENDBRANCH  10  79
ENDBRANCH   7  10
ENDBRANCH   5   6
BRANCH   5  83
ATOM     83  CB  GLU d   9     141.930  29.750-107.349  0.00  0.00     0.045 C 
BRANCH  83  84
ATOM     84  CG  GLU d   9     143.308  30.451-107.120  0.00  0.00     0.116 C 
BRANCH  84  85
ATOM     85  CD  GLU d   9     144.012  30.243-105.792  0.00  0.00     0.172 C 
ATOM     86  OE1 GLU d   9     143.495  29.548-104.896  0.00  0.00    -0.648 OA
ATOM     87  OE2 GLU d   9     145.128  30.788-105.661  0.00  0.00    -0.648 OA
ENDBRANCH  84  85
ENDBRANCH  83  84
ENDBRANCH   5  83
ENDBRANCH   1   5
BRANCH   3  88
ATOM     88  CA  HIS d  10     143.212  27.652-111.041  0.00  0.00     0.182 C 
BRANCH  88  89
ATOM     89  C   HIS d  10     142.840  28.214-112.392  0.00  0.00     0.241 C 
ATOM     90  O   HIS d  10     143.689  28.685-113.164  0.00  0.00    -0.271 OA
ATOM     91  N   VAL d  11     141.602  28.205-112.754  0.00  0.00    -0.346 N 
ATOM     92  H   VAL d  11     140.892  27.827-112.143  0.00  0.00     0.163 HD
BRANCH  91  93
ATOM     93  CA  VAL d  11     141.243  28.749-114.061  0.00  0.00     0.180 C 
BRANCH  93  94
ATOM     94  C   VAL d  11     141.698  30.183-114.193  0.00  0.00     0.241 C 
ATOM     95  O   VAL d  11     142.296  30.592-115.197  0.00  0.00    -0.271 OA
ATOM     96  N   GLN d  12     141.455  31.007-113.231  0.00  0.00    -0.346 N 
ATOM     97  H   GLN d  12     140.969  30.697-112.402  0.00  0.00     0.163 HD
BRANCH  96  98
ATOM     98  CA  GLN d  12     141.894  32.393-113.358  0.00  0.00     0.177 C 
BRANCH  98  99
ATOM     99  C   GLN d  12     143.384  32.470-113.596  0.00  0.00     0.241 C 
ATOM    100  O   GLN d  12     143.866  33.182-114.475  0.00  0.00    -0.271 OA
ATOM    101  N   ARG d  13     144.173  31.769-112.856  0.00  0.00    -0.346 N 
ATOM    102  H   ARG d  13     143.802  31.176-112.127  0.00  0.00     0.163 HD
BRANCH 101 103
ATOM    103  CA  ARG d  13     145.613  31.844-113.087  0.00  0.00     0.176 C 
BRANCH 103 104
ATOM    104  C   ARG d  13     145.951  31.475-114.513  0.00  0.00     0.241 C 
ATOM    105  O   ARG d  13     146.715  32.152-115.197  0.00  0.00    -0.271 OA
ATOM    106  N   VAL d  14     145.422  30.417-115.027  0.00  0.00    -0.346 N 
ATOM    107  H   VAL d  14     144.791  29.844-114.485  0.00  0.00     0.163 HD
BRANCH 106 108
ATOM    108  CA  VAL d  14     145.749  30.060-116.404  0.00  0.00     0.180 C 
BRANCH 108 109
ATOM    109  C   VAL d  14     145.411  31.188-117.350  0.00  0.00     0.241 C 
ATOM    110  O   VAL d  14     146.201  31.575-118.220  0.00  0.00    -0.271 OA
ATOM    111  N   MET d  15     144.262  31.766-117.248  0.00  0.00    -0.346 N 
ATOM    112  H   MET d  15     143.599  31.469-116.546  0.00  0.00     0.163 HD
BRANCH 111 113
ATOM    113  CA  MET d  15     143.934  32.857-118.161  0.00  0.00     0.177 C 
BRANCH 113 114
ATOM    114  C   MET d  15     144.957  33.964-118.073  0.00  0.00     0.241 C 
ATOM    115  O   MET d  15     145.455  34.478-119.086  0.00  0.00    -0.271 OA
ATOM    116  N   ARG d  16     145.323  34.387-116.911  0.00  0.00    -0.347 N 
ATOM    117  H   ARG d  16     144.931  33.984-116.072  0.00  0.00     0.163 HD
BRANCH 116 118
ATOM    118  CA  ARG d  16     146.312  35.458-116.828  0.00  0.00     0.162 C 
BRANCH 118 119
ATOM    119  C   ARG d  16     147.585  35.074-117.545  0.00  0.00     0.219 C 
ATOM    120  O   ARG d  16     147.706  33.998-118.126  0.00  0.00    -0.287 OA
ENDBRANCH 118 119
BRANCH 118 121
ATOM    121  CB  ARG d  16     146.580  35.777-115.330  0.00  0.00     0.035 C 
BRANCH 121 122
ATOM    122  CG  ARG d  16     147.396  37.072-115.057  0.00  0.00     0.023 C 
BRANCH 122 123
ATOM    123  CD  ARG d  16     147.645  37.293-113.556  0.00  0.00     0.138 C 
BRANCH 123 124
ATOM    124  NE  ARG d  16     148.413  38.557-113.355  0.00  0.00    -0.227 N 
ATOM    125  CZ  ARG d  16     148.801  39.042-112.179  0.00  0.00     0.665 C 
ATOM    126  NH1 ARG d  16     148.558  38.455-111.041  0.00  0.00    -0.235 N 
ATOM    127  NH2 ARG d  16     149.458  40.159-112.161  0.00  0.00    -0.235 N 
ATOM    128 11HH ARG d  16     148.038  37.579-111.125  0.00  0.00     0.174 HD
ATOM    129 12HH ARG d  16     148.890  38.893-110.180  0.00  0.00     0.174 HD
ATOM    130 21HH ARG d  16     149.640  40.603-113.063  0.00  0.00     0.174 HD
ATOM    131 22HH ARG d  16     149.746  40.516-111.249  0.00  0.00     0.174 HD
ATOM    132  HE  ARG d  16     148.687  39.140-114.152  0.00  0.00     0.177 HD
ENDBRANCH 123 124
ENDBRANCH 122 123
ENDBRANCH 121 122
ENDBRANCH 118 121
ENDBRANCH 116 118
ENDBRANCH 113 114
BRANCH 113 133
ATOM    133  CB  MET d  15     142.509  33.393-117.851  0.00  0.00     0.045 C 
BRANCH 133 134
ATOM    134  CG  MET d  15     141.354  32.387-118.043  0.00  0.00     0.076 C 
BRANCH 134 135
ATOM    135  SD  MET d  15     139.774  33.242-117.928  0.00  0.00    -0.173 SA
ATOM    136  CE  MET d  15     138.702  31.805-117.791  0.00  0.00     0.089 C 
ENDBRANCH 134 135
ENDBRANCH 133 134
ENDBRANCH 113 133
ENDBRANCH 111 113
ENDBRANCH 108 109
BRANCH 108 137
ATOM    137  CB  VAL d  14     144.985  28.738-116.811  0.00  0.00     0.009 C 
ATOM    138  CG1 VAL d  14     145.076  28.321-118.305  0.00  0.00     0.012 C 
ATOM    139  CG2 VAL d  14     145.426  27.489-116.011  0.00  0.00     0.012 C 
ENDBRANCH 108 137
ENDBRANCH 106 108
ENDBRANCH 103 104
BRANCH 103 140
ATOM    140  CB  ARG d  13     146.333  30.910-112.074  0.00  0.00     0.036 C 
BRANCH 140 141
ATOM    141  CG  ARG d  13     147.877  31.074-111.993  0.00  0.00     0.023 C 
BRANCH 141 142
ATOM    142  CD  ARG d  13     148.511  30.090-110.996  0.00  0.00     0.138 C 
BRANCH 142 143
ATOM    143  NE  ARG d  13     149.987  30.307-110.946  0.00  0.00    -0.227 N 
ATOM    144  CZ  ARG d  13     150.840  29.621-110.191  0.00  0.00     0.665 C 
ATOM    145  NH1 ARG d  13     150.482  28.654-109.394  0.00  0.00    -0.235 N 
ATOM    146  NH2 ARG d  13     152.097  29.929-110.249  0.00  0.00    -0.235 N 
ATOM    147 11HH ARG d  13     149.478  28.461-109.397  0.00  0.00     0.174 HD
ATOM    148 12HH ARG d  13     151.198  28.176-108.846  0.00  0.00     0.174 HD
ATOM    149 21HH ARG d  13     152.360  30.689-110.880  0.00  0.00     0.174 HD
ATOM    150 22HH ARG d  13     152.736  29.392-109.660  0.00  0.00     0.174 HD
ATOM    151  HE  ARG d  13     150.433  31.033-111.517  0.00  0.00     0.177 HD
ENDBRANCH 142 143
ENDBRANCH 141 142
ENDBRANCH 140 141
ENDBRANCH 103 140
ENDBRANCH 101 103
ENDBRANCH  98  99
BRANCH  98 152
ATOM    152  CB  GLN d  12     141.499  33.157-112.075  0.00  0.00     0.044 C 
BRANCH 152 153
ATOM    153  CG  GLN d  12     141.849  34.682-112.044  0.00  0.00     0.105 C 
BRANCH 153 154
ATOM    154  CD  GLN d  12     141.541  35.493-110.779  0.00  0.00     0.215 C 
ATOM    155  NE2 GLN d  12     140.979  34.912-109.750  0.00  0.00    -0.370 N 
ATOM    156 21HE GLN d  12     140.868  35.506-108.926  0.00  0.00     0.159 HD
ATOM    157 22HE GLN d  12     140.822  33.908-109.853  0.00  0.00     0.159 HD
ATOM    158  OE1 GLN d  12     141.835  36.676-110.701  0.00  0.00    -0.274 OA
ENDBRANCH 153 154
ENDBRANCH 152 153
ENDBRANCH  98 152
ENDBRANCH  96  98
ENDBRANCH  93  94
BRANCH  93 159
ATOM    159  CB  VAL d  11     139.682  28.632-114.280  0.00  0.00     0.009 C 
ATOM    160  CG1 VAL d  11     139.109  29.332-115.542  0.00  0.00     0.012 C 
ATOM    161  CG2 VAL d  11     139.168  27.174-114.353  0.00  0.00     0.012 C 
ENDBRANCH  93 159
ENDBRANCH  91  93
ENDBRANCH  88  89
BRANCH  88 162
ATOM    162  CB  HIS d  10     143.058  26.122-111.036  0.00  0.00     0.095 C 
BRANCH 162 163
ATOM    163  CG  HIS d  10     144.348  25.421-110.729  0.00  0.00     0.053 A 
ATOM    164  CD2 HIS d  10     144.732  25.088-109.436  0.00  0.00     0.116 A 
ATOM    165  NE2 HIS d  10     145.951  24.464-109.504  0.00  0.00    -0.359 N 
ATOM    166  CE1 HIS d  10     146.213  24.469-110.839  0.00  0.00     0.207 A 
ATOM    167  2HE HIS d  10     146.521  24.091-108.731  0.00  0.00     0.166 HD
ATOM    168  ND1 HIS d  10     145.303  25.021-111.662  0.00  0.00    -0.247 NA
ENDBRANCH 162 163
ENDBRANCH  88 162
ENDBRANCH   3  88
TORSDOF 68
