REMARK WARNING: 32 MAX_TORS EXCEEDED!!!
REMARK  68 active torsions:
REMARK  status: ('A' for Active; 'I' for Inactive)
REMARK    1  A    between atoms: N_1  and  CA_2 
REMARK    2  A    between atoms: CA_2  and  C_3 
REMARK    3  A    between atoms: CA_2  and  CB_5 
REMARK       I    between atoms: C_3  and  N_11 
REMARK    4  A    between atoms: CB_5  and  CG_6 
REMARK    5  A    between atoms: CG_6  and  CD_7 
REMARK    6  A    between atoms: N_11  and  CA_12 
REMARK    7  A    between atoms: CA_12  and  C_13 
REMARK    8  A    between atoms: CA_12  and  CB_15 
REMARK       I    between atoms: C_13  and  N_22 
REMARK    9  A    between atoms: CB_15  and  CG_16 
REMARK       I    between atoms: CG_16  and  ND2_17 
REMARK   10  A    between atoms: CA_23  and  C_24 
REMARK       I    between atoms: C_24  and  N_29 
REMARK   11  A    between atoms: N_29  and  CA_30 
REMARK   12  A    between atoms: CA_30  and  C_31 
REMARK   13  A    between atoms: CA_30  and  CB_33 
REMARK       I    between atoms: C_31  and  N_39 
REMARK   14  A    between atoms: CB_33  and  CG_34 
REMARK   15  A    between atoms: CG_34  and  CD_35 
REMARK   16  A    between atoms: N_39  and  CA_40 
REMARK   17  A    between atoms: CA_40  and  C_41 
REMARK   18  A    between atoms: CA_40  and  CB_43 
REMARK       I    between atoms: C_41  and  N_47 
REMARK   19  A    between atoms: CB_43  and  OG_44 
REMARK   20  A    between atoms: N_47  and  CA_48 
REMARK   21  A    between atoms: CA_48  and  C_49 
REMARK   22  A    between atoms: CA_48  and  CB_51 
REMARK       I    between atoms: C_49  and  N_56 
REMARK   23  A    between atoms: CB_51  and  CG1_52 
REMARK   24  A    between atoms: N_56  and  CA_57 
REMARK   25  A    between atoms: CA_57  and  C_58 
REMARK   26  A    between atoms: CA_57  and  CB_60 
REMARK       I    between atoms: C_58  and  N_65 
REMARK   27  A    between atoms: CB_60  and  CG_61 
REMARK   28  A    between atoms: N_65  and  CA_66 
REMARK   29  A    between atoms: CA_66  and  C_67 
REMARK   30  A    between atoms: CA_66  and  CB_69 
REMARK       I    between atoms: C_67  and  N_74 
REMARK   31  A    between atoms: CB_69  and  CG_70 
REMARK   32  A    between atoms: N_74  and  CA_75 
REMARK   33  A    between atoms: CA_75  and  C_76 
REMARK   34  A    between atoms: CA_75  and  CB_78 
REMARK       I    between atoms: C_76  and  N_84 
REMARK   35  A    between atoms: CB_78  and  CG_79 
REMARK   36  A    between atoms: CG_79  and  CD_80 
REMARK   37  A    between atoms: N_84  and  CA_85 
REMARK   38  A    between atoms: CA_85  and  C_86 
REMARK   39  A    between atoms: CA_85  and  CB_88 
REMARK       I    between atoms: C_86  and  N_92 
REMARK   40  A    between atoms: CB_88  and  OG_89 
REMARK   41  A    between atoms: N_92  and  CA_93 
REMARK   42  A    between atoms: CA_93  and  C_94 
REMARK   43  A    between atoms: CA_93  and  CB_96 
REMARK       I    between atoms: C_94  and  N_100 
REMARK   44  A    between atoms: N_100  and  CA_101 
REMARK   45  A    between atoms: CA_101  and  C_102 
REMARK   46  A    between atoms: CA_101  and  CB_104 
REMARK       I    between atoms: C_102  and  N_112 
REMARK   47  A    between atoms: CB_104  and  CG_105 
REMARK   48  A    between atoms: CG_105  and  CD_106 
REMARK       I    between atoms: CD_106  and  NE2_107 
REMARK   49  A    between atoms: N_112  and  CA_113 
REMARK   50  A    between atoms: CA_113  and  C_114 
REMARK   51  A    between atoms: CA_113  and  CB_116 
REMARK       I    between atoms: C_114  and  N_129 
REMARK   52  A    between atoms: CB_116  and  CG_117 
REMARK   53  A    between atoms: CG_117  and  CD_118 
REMARK   54  A    between atoms: CD_118  and  NE_119 
REMARK       I    between atoms: NE_119  and  CZ_120 
REMARK       I    between atoms: CZ_120  and  NH1_121 
REMARK       I    between atoms: CZ_120  and  NH2_122 
REMARK   55  A    between atoms: N_129  and  CA_130 
REMARK   56  A    between atoms: CA_130  and  C_131 
REMARK   57  A    between atoms: CA_130  and  CB_133 
REMARK       I    between atoms: C_131  and  N_137 
REMARK   58  A    between atoms: N_137  and  CA_138 
REMARK   59  A    between atoms: CA_138  and  C_139 
REMARK   60  A    between atoms: CA_138  and  CB_141 
REMARK       I    between atoms: C_139  and  N_146 
REMARK   61  A    between atoms: CB_141  and  CG_142 
REMARK   62  A    between atoms: CG_142  and  SD_143 
REMARK   63  A    between atoms: N_146  and  CA_147 
REMARK   64  A    between atoms: CA_147  and  C_148 
REMARK   65  A    between atoms: CA_147  and  CB_150 
REMARK   66  A    between atoms: CB_150  and  CG_151 
REMARK   67  A    between atoms: CG_151  and  CD_152 
REMARK   68  A    between atoms: CD_152  and  NE_153 
REMARK       I    between atoms: NE_153  and  CZ_154 
REMARK       I    between atoms: CZ_154  and  NH1_155 
ROOT
ATOM      1  CA  GLU d   9    1624.952 486.778-1651.346  0.00  0.00     0.177 C 
ENDROOT
BRANCH   1   2
ATOM      2  N   GLU d   9    1623.650 486.120-1651.401  0.00  0.00    -0.346 N 
ATOM      3  C   ASP d   8    1622.970 486.170-1652.496  0.00  0.00     0.241 C 
ATOM      4  O   ASP d   8    1623.443 486.775-1653.471  0.00  0.00    -0.271 OA
ATOM      5  H   GLU d   9    1623.286 485.633-1650.594  0.00  0.00     0.163 HD
BRANCH   3   6
ATOM      6  CA  ASP d   8    1621.623 485.490-1652.554  0.00  0.00     0.186 C 
BRANCH   6   7
ATOM      7  N   ASP d   8    1621.694 484.141-1652.001  0.00  0.00    -0.346 N 
ATOM      8  C   LEU d   7    1622.531 483.300-1652.507  0.00  0.00     0.241 C 
ATOM      9  O   LEU d   7    1623.251 483.663-1653.449  0.00  0.00    -0.271 OA
ATOM     10  H   ASP d   8    1621.096 483.869-1651.233  0.00  0.00     0.163 HD
BRANCH   8  11
ATOM     11  CA  LEU d   7    1622.604 481.905-1651.935  0.00  0.00     0.177 C 
BRANCH  11  12
ATOM     12  N   LEU d   7    1622.659 481.940-1650.477  0.00  0.00    -0.346 N 
ATOM     13  C   ILE d   6    1623.604 482.604-1649.903  0.00  0.00     0.241 C 
ATOM     14  O   ILE d   6    1624.439 483.192-1650.607  0.00  0.00    -0.271 OA
ATOM     15  H   LEU d   7    1621.967 481.453-1649.925  0.00  0.00     0.163 HD
BRANCH  13  16
ATOM     16  CA  ILE d   6    1623.662 482.641-1648.395  0.00  0.00     0.180 C 
BRANCH  16  17
ATOM     17  N   ILE d   6    1622.349 482.936-1647.829  0.00  0.00    -0.346 N 
ATOM     18  C   SER d   5    1621.744 484.019-1648.183  0.00  0.00     0.243 C 
ATOM     19  O   SER d   5    1622.291 484.773-1648.988  0.00  0.00    -0.271 OA
ATOM     20  H   ILE d   6    1621.920 482.302-1647.170  0.00  0.00     0.163 HD
BRANCH  18  21
ATOM     21  CA  SER d   5    1620.385 484.324-1647.597  0.00  0.00     0.200 C 
BRANCH  21  22
ATOM     22  N   SER d   5    1619.516 483.153-1647.656  0.00  0.00    -0.344 N 
ATOM     23  C   GLU d   4    1619.288 482.600-1648.799  0.00  0.00     0.241 C 
ATOM     24  O   GLU d   4    1619.814 483.080-1649.813  0.00  0.00    -0.271 OA
ATOM     25  H   SER d   5    1619.099 482.781-1646.814  0.00  0.00     0.163 HD
BRANCH  23  26
ATOM     26  CA  GLU d   4    1618.389 481.389-1648.860  0.00  0.00     0.177 C 
BRANCH  26  27
ATOM     27  N   GLU d   4    1618.749 480.418-1647.830  0.00  0.00    -0.346 N 
ATOM     28  C   PRO d   3    1619.954 479.958-1647.798  0.00  0.00     0.241 C 
ATOM     29  O   PRO d   3    1620.777 480.341-1648.630  0.00  0.00    -0.271 OA
ATOM     30  H   GLU d   4    1618.065 480.111-1647.153  0.00  0.00     0.163 HD
BRANCH  28  31
ATOM     31  CA  PRO d   3    1620.352 478.935-1646.721  0.00  0.00     0.179 C 
ATOM     32  N   PRO d   3    1619.900 479.344-1645.400  0.00  0.00    -0.337 N 
ATOM     33  C   ASN d   2    1620.422 480.339-1644.766  0.00  0.00     0.243 C 
ATOM     34  CD  PRO d   3    1618.822 478.551-1644.850  0.00  0.00     0.127 C 
ATOM     35  O   ASN d   2    1621.337 480.969-1645.294  0.00  0.00    -0.271 OA
ATOM     36  CG  PRO d   3    1618.365 477.732-1646.060  0.00  0.00     0.022 C 
ATOM     37  CB  PRO d   3    1619.648 477.580-1646.890  0.00  0.00     0.037 C 
BRANCH  33  38
ATOM     38  CA  ASN d   2    1619.891 480.694-1643.397  0.00  0.00     0.185 C 
BRANCH  38  39
ATOM     39  N   ASN d   2    1618.431 480.733-1643.397  0.00  0.00    -0.346 N 
ATOM     40  C   GLU d   1    1617.827 481.519-1644.222  0.00  0.00     0.242 C 
ATOM     41  O   GLU d   1    1618.503 482.218-1644.990  0.00  0.00    -0.271 OA
ATOM     42  H   ASN d   2    1617.903 480.153-1642.760  0.00  0.00     0.163 HD
BRANCH  40  43
ATOM     43  CA  GLU d   1    1616.318 481.559-1644.222  0.00  0.00     0.191 C 
BRANCH  43  44
ATOM     44  N   GLU d   1    1615.759 480.210-1644.222  0.00  0.00    -0.326 NA
ATOM     45  H   GLU d   1    1616.386 479.331-1644.222  0.00  0.00     0.180 HD
ENDBRANCH  43  44
BRANCH  43  46
ATOM     46  CB  GLU d   1    1615.795 482.344-1642.985  0.00  0.00     0.047 C 
BRANCH  46  47
ATOM     47  CG  GLU d   1    1616.270 483.829-1642.874  0.00  0.00     0.116 C 
BRANCH  47  48
ATOM     48  CD  GLU d   1    1615.846 484.633-1641.659  0.00  0.00     0.172 C 
ATOM     49  OE1 GLU d   1    1615.118 484.131-1640.781  0.00  0.00    -0.648 OA
ATOM     50  OE2 GLU d   1    1616.276 485.803-1641.587  0.00  0.00    -0.648 OA
ENDBRANCH  47  48
ENDBRANCH  46  47
ENDBRANCH  43  46
ENDBRANCH  40  43
ENDBRANCH  38  39
BRANCH  38  51
ATOM     51  CB  ASN d   2    1620.383 479.672-1642.332  0.00  0.00     0.137 C 
BRANCH  51  52
ATOM     52  CG  ASN d   2    1619.920 479.895-1640.889  0.00  0.00     0.217 C 
ATOM     53  ND2 ASN d   2    1620.514 480.810-1640.171  0.00  0.00    -0.370 N 
ATOM     54 21HD ASN d   2    1620.033 480.983-1639.284  0.00  0.00     0.159 HD
ATOM     55 22HD ASN d   2    1621.216 481.382-1640.640  0.00  0.00     0.159 HD
ATOM     56  OD1 ASN d   2    1618.999 479.261-1640.395  0.00  0.00    -0.274 OA
ENDBRANCH  51  52
ENDBRANCH  38  51
ENDBRANCH  33  38
ENDBRANCH  28  31
ENDBRANCH  26  27
BRANCH  26  57
ATOM     57  CB  GLU d   4    1616.901 481.808-1648.689  0.00  0.00     0.045 C 
BRANCH  57  58
ATOM     58  CG  GLU d   4    1616.352 482.811-1649.755  0.00  0.00     0.116 C 
BRANCH  58  59
ATOM     59  CD  GLU d   4    1614.926 483.308-1649.611  0.00  0.00     0.172 C 
ATOM     60  OE1 GLU d   4    1614.200 482.909-1648.680  0.00  0.00    -0.648 OA
ATOM     61  OE2 GLU d   4    1614.536 484.137-1650.459  0.00  0.00    -0.648 OA
ENDBRANCH  58  59
ENDBRANCH  57  58
ENDBRANCH  26  57
ENDBRANCH  23  26
ENDBRANCH  21  22
BRANCH  21  62
ATOM     62  CB  SER d   5    1620.497 484.857-1646.146  0.00  0.00     0.199 C 
BRANCH  62  63
ATOM     63  OG  SER d   5    1621.229 483.977-1645.286  0.00  0.00    -0.398 OA
ATOM     64  HG  SER d   5    1620.740 483.152-1645.235  0.00  0.00     0.209 HD
ENDBRANCH  62  63
ENDBRANCH  21  62
ENDBRANCH  18  21
ENDBRANCH  16  17
BRANCH  16  65
ATOM     65  CB  ILE d   6    1624.262 481.305-1647.796  0.00  0.00     0.013 C 
ATOM     66  CG2 ILE d   6    1625.703 481.004-1648.311  0.00  0.00     0.012 C 
BRANCH  65  67
ATOM     67  CG1 ILE d   6    1624.281 481.243-1646.234  0.00  0.00     0.002 C 
ATOM     68  CD1 ILE d   6    1624.551 479.853-1645.620  0.00  0.00     0.005 C 
ENDBRANCH  65  67
ENDBRANCH  16  65
ENDBRANCH  13  16
ENDBRANCH  11  12
BRANCH  11  69
ATOM     69  CB  LEU d   7    1621.401 481.044-1652.416  0.00  0.00     0.038 C 
BRANCH  69  70
ATOM     70  CG  LEU d   7    1621.328 479.565-1651.949  0.00  0.00    -0.020 C 
ATOM     71  CD1 LEU d   7    1620.138 478.859-1652.615  0.00  0.00     0.009 C 
ATOM     72  CD2 LEU d   7    1622.621 478.786-1652.241  0.00  0.00     0.009 C 
ENDBRANCH  69  70
ENDBRANCH  11  69
ENDBRANCH   8  11
ENDBRANCH   6   7
BRANCH   6  73
ATOM     73  CB  ASP d   8    1620.545 486.329-1651.812  0.00  0.00     0.147 C 
BRANCH  73  74
ATOM     74  CG  ASP d   8    1620.326 487.750-1652.352  0.00  0.00     0.175 C 
ATOM     75  OD1 ASP d   8    1620.390 487.949-1653.583  0.00  0.00    -0.648 OA
ATOM     76  OD2 ASP d   8    1620.134 488.675-1651.536  0.00  0.00    -0.648 OA
ENDBRANCH  73  74
ENDBRANCH   6  73
ENDBRANCH   3   6
ENDBRANCH   1   2
BRANCH   1  77
ATOM     77  C   GLU d   9    1625.870 486.250-1652.422  0.00  0.00     0.241 C 
ATOM     78  O   GLU d   9    1626.534 487.005-1653.147  0.00  0.00    -0.271 OA
ATOM     79  N   SER d  10    1625.967 484.975-1652.592  0.00  0.00    -0.344 N 
ATOM     80  H   SER d  10    1625.436 484.339-1652.014  0.00  0.00     0.163 HD
BRANCH  79  81
ATOM     81  CA  SER d  10    1626.855 484.466-1653.633  0.00  0.00     0.200 C 
BRANCH  81  82
ATOM     82  C   SER d  10    1626.486 485.034-1654.984  0.00  0.00     0.243 C 
ATOM     83  O   SER d  10    1627.331 485.498-1655.749  0.00  0.00    -0.271 OA
ATOM     84  N   VAL d  11    1625.248 485.033-1655.346  0.00  0.00    -0.346 N 
ATOM     85  H   VAL d  11    1624.536 484.658-1654.736  0.00  0.00     0.163 HD
BRANCH  84  86
ATOM     86  CA  VAL d  11    1624.891 485.581-1656.651  0.00  0.00     0.180 C 
BRANCH  86  87
ATOM     87  C   VAL d  11    1625.354 487.013-1656.781  0.00  0.00     0.241 C 
ATOM     88  O   VAL d  11    1625.954 487.420-1657.784  0.00  0.00    -0.271 OA
ATOM     89  N   GLN d  12    1625.117 487.836-1655.817  0.00  0.00    -0.346 N 
ATOM     90  H   GLN d  12    1624.629 487.528-1654.988  0.00  0.00     0.163 HD
BRANCH  89  91
ATOM     91  CA  GLN d  12    1625.564 489.220-1655.941  0.00  0.00     0.177 C 
BRANCH  91  92
ATOM     92  C   GLN d  12    1627.054 489.289-1656.180  0.00  0.00     0.241 C 
ATOM     93  O   GLN d  12    1627.540 490.000-1657.058  0.00  0.00    -0.271 OA
ATOM     94  N   ARG d  13    1627.840 488.581-1655.442  0.00  0.00    -0.346 N 
ATOM     95  H   ARG d  13    1627.464 487.989-1654.714  0.00  0.00     0.163 HD
BRANCH  94  96
ATOM     96  CA  ARG d  13    1629.280 488.649-1655.673  0.00  0.00     0.176 C 
BRANCH  96  97
ATOM     97  C   ARG d  13    1629.615 488.281-1657.099  0.00  0.00     0.241 C 
ATOM     98  O   ARG d  13    1630.382 488.955-1657.782  0.00  0.00    -0.271 OA
ATOM     99  N   VAL d  14    1629.080 487.227-1657.616  0.00  0.00    -0.346 N 
ATOM    100  H   VAL d  14    1628.446 486.657-1657.074  0.00  0.00     0.163 HD
BRANCH  99 101
ATOM    101  CA  VAL d  14    1629.404 486.871-1658.994  0.00  0.00     0.180 C 
BRANCH 101 102
ATOM    102  C   VAL d  14    1629.072 488.003-1659.937  0.00  0.00     0.241 C 
ATOM    103  O   VAL d  14    1629.864 488.387-1660.806  0.00  0.00    -0.271 OA
ATOM    104  N   MET d  15    1627.927 488.588-1659.833  0.00  0.00    -0.346 N 
ATOM    105  H   MET d  15    1627.262 488.293-1659.132  0.00  0.00     0.163 HD
BRANCH 104 106
ATOM    106  CA  MET d  15    1627.605 489.682-1660.744  0.00  0.00     0.177 C 
BRANCH 106 107
ATOM    107  C   MET d  15    1628.634 490.783-1660.655  0.00  0.00     0.241 C 
ATOM    108  O   MET d  15    1629.136 491.296-1661.667  0.00  0.00    -0.271 OA
ATOM    109  N   ARG d  16    1629.003 491.201-1659.492  0.00  0.00    -0.347 N 
ATOM    110  H   ARG d  16    1628.609 490.799-1658.653  0.00  0.00     0.163 HD
BRANCH 109 111
ATOM    111  CA  ARG d  16    1629.999 492.266-1659.407  0.00  0.00     0.162 C 
BRANCH 111 112
ATOM    112  C   ARG d  16    1631.269 491.876-1660.125  0.00  0.00     0.219 C 
ATOM    113  O   ARG d  16    1631.384 490.801-1660.708  0.00  0.00    -0.287 OA
ENDBRANCH 111 112
BRANCH 111 114
ATOM    114  CB  ARG d  16    1630.269 492.581-1657.908  0.00  0.00     0.035 C 
BRANCH 114 115
ATOM    115  CG  ARG d  16    1631.093 493.870-1657.633  0.00  0.00     0.023 C 
BRANCH 115 116
ATOM    116  CD  ARG d  16    1631.343 494.086-1656.131  0.00  0.00     0.138 C 
BRANCH 116 117
ATOM    117  NE  ARG d  16    1632.118 495.346-1655.928  0.00  0.00    -0.227 N 
ATOM    118  CZ  ARG d  16    1632.510 495.826-1654.751  0.00  0.00     0.665 C 
ATOM    119  NH1 ARG d  16    1632.264 495.239-1653.614  0.00  0.00    -0.235 N 
ATOM    120  NH2 ARG d  16    1633.173 496.939-1654.731  0.00  0.00    -0.235 N 
ATOM    121 11HH ARG d  16    1631.739 494.365-1653.700  0.00  0.00     0.174 HD
ATOM    122 12HH ARG d  16    1632.598 495.673-1652.752  0.00  0.00     0.174 HD
ATOM    123 21HH ARG d  16    1633.358 497.384-1655.632  0.00  0.00     0.174 HD
ATOM    124 22HH ARG d  16    1633.464 497.292-1653.818  0.00  0.00     0.174 HD
ATOM    125  HE  ARG d  16    1632.396 495.928-1656.724  0.00  0.00     0.177 HD
ENDBRANCH 116 117
ENDBRANCH 115 116
ENDBRANCH 114 115
ENDBRANCH 111 114
ENDBRANCH 109 111
ENDBRANCH 106 107
BRANCH 106 126
ATOM    126  CB  MET d  15    1626.183 490.226-1660.433  0.00  0.00     0.045 C 
BRANCH 126 127
ATOM    127  CG  MET d  15    1625.022 489.228-1660.626  0.00  0.00     0.076 C 
BRANCH 127 128
ATOM    128  SD  MET d  15    1623.447 490.092-1660.509  0.00  0.00    -0.173 SA
ATOM    129  CE  MET d  15    1622.367 488.661-1660.374  0.00  0.00     0.089 C 
ENDBRANCH 127 128
ENDBRANCH 126 127
ENDBRANCH 106 126
ENDBRANCH 104 106
ENDBRANCH 101 102
BRANCH 101 130
ATOM    130  CB  VAL d  14    1628.632 485.554-1659.403  0.00  0.00     0.009 C 
ATOM    131  CG1 VAL d  14    1628.720 485.140-1660.898  0.00  0.00     0.012 C 
ATOM    132  CG2 VAL d  14    1629.066 484.301-1658.606  0.00  0.00     0.012 C 
ENDBRANCH 101 130
ENDBRANCH  99 101
ENDBRANCH  96  97
BRANCH  96 133
ATOM    133  CB  ARG d  13    1629.995 487.708-1654.662  0.00  0.00     0.036 C 
BRANCH 133 134
ATOM    134  CG  ARG d  13    1631.539 487.862-1654.582  0.00  0.00     0.023 C 
BRANCH 134 135
ATOM    135  CD  ARG d  13    1632.168 486.873-1653.587  0.00  0.00     0.138 C 
BRANCH 135 136
ATOM    136  NE  ARG d  13    1633.645 487.081-1653.537  0.00  0.00    -0.227 N 
ATOM    137  CZ  ARG d  13    1634.494 486.389-1652.784  0.00  0.00     0.665 C 
ATOM    138  NH1 ARG d  13    1634.130 485.422-1651.989  0.00  0.00    -0.235 N 
ATOM    139  NH2 ARG d  13    1635.753 486.689-1652.841  0.00  0.00    -0.235 N 
ATOM    140 11HH ARG d  13    1633.125 485.235-1651.991  0.00  0.00     0.174 HD
ATOM    141 12HH ARG d  13    1634.844 484.938-1651.441  0.00  0.00     0.174 HD
ATOM    142 21HH ARG d  13    1636.020 487.449-1653.470  0.00  0.00     0.174 HD
ATOM    143 22HH ARG d  13    1636.389 486.147-1652.254  0.00  0.00     0.174 HD
ATOM    144  HE  ARG d  13    1634.095 487.805-1654.106  0.00  0.00     0.177 HD
ENDBRANCH 135 136
ENDBRANCH 134 135
ENDBRANCH 133 134
ENDBRANCH  96 133
ENDBRANCH  94  96
ENDBRANCH  91  92
BRANCH  91 145
ATOM    145  CB  GLN d  12    1625.174 489.984-1654.657  0.00  0.00     0.044 C 
BRANCH 145 146
ATOM    146  CG  GLN d  12    1625.532 491.506-1654.622  0.00  0.00     0.105 C 
BRANCH 146 147
ATOM    147  CD  GLN d  12    1625.230 492.317-1653.356  0.00  0.00     0.215 C 
ATOM    148  NE2 GLN d  12    1624.664 491.738-1652.328  0.00  0.00    -0.370 N 
ATOM    149 21HE GLN d  12    1624.558 492.330-1651.503  0.00  0.00     0.159 HD
ATOM    150 22HE GLN d  12    1624.502 490.734-1652.433  0.00  0.00     0.159 HD
ATOM    151  OE1 GLN d  12    1625.531 493.498-1653.276  0.00  0.00    -0.274 OA
ENDBRANCH 146 147
ENDBRANCH 145 146
ENDBRANCH  91 145
ENDBRANCH  89  91
ENDBRANCH  86  87
BRANCH  86 152
ATOM    152  CB  VAL d  11    1623.330 485.474-1656.870  0.00  0.00     0.009 C 
ATOM    153  CG1 VAL d  11    1622.760 486.180-1658.131  0.00  0.00     0.012 C 
ATOM    154  CG2 VAL d  11    1622.807 484.019-1656.946  0.00  0.00     0.012 C 
ENDBRANCH  86 152
ENDBRANCH  84  86
ENDBRANCH  81  82
BRANCH  81 155
ATOM    155  CB  SER d  10    1626.857 482.917-1653.648  0.00  0.00     0.199 C 
BRANCH 155 156
ATOM    156  OG  SER d  10    1625.618 482.363-1654.104  0.00  0.00    -0.398 OA
ATOM    157  HG  SER d  10    1624.938 482.628-1653.480  0.00  0.00     0.209 HD
ENDBRANCH 155 156
ENDBRANCH  81 155
ENDBRANCH  79  81
ENDBRANCH   1  77
BRANCH   1 158
ATOM    158  CB  GLU d   9    1625.586 486.569-1649.941  0.00  0.00     0.045 C 
BRANCH 158 159
ATOM    159  CG  GLU d   9    1626.969 487.262-1649.711  0.00  0.00     0.116 C 
BRANCH 159 160
ATOM    160  CD  GLU d   9    1627.671 487.048-1648.383  0.00  0.00     0.172 C 
ATOM    161  OE1 GLU d   9    1627.149 486.357-1647.487  0.00  0.00    -0.648 OA
ATOM    162  OE2 GLU d   9    1628.790 487.586-1648.251  0.00  0.00    -0.648 OA
ENDBRANCH 159 160
ENDBRANCH 158 159
ENDBRANCH   1 158
TORSDOF 68
