@<TRIPOS>MOLECULE
4-15
264 265 16              
SMALL
USER_CHARGES
@<TRIPOS>ATOM
1	   N	647.555	161.589	-597.507	N.3	1	GLU1	-0.516	
2	  CA	648.114	162.938	-597.507	C.3	1	GLU1	0.040	
3	   C	649.623	162.898	-597.507	C.2	1	GLU1	0.537	
4	   O	650.299	163.597	-598.276	O.2	1	GLU1	-0.582	
5	  CB	647.591	163.723	-596.270	C.3	1	GLU1	0.056	
6	  CG	648.066	165.208	-596.159	C.3	1	GLU1	0.014	
7	  CD	647.642	166.012	-594.944	C.2	1	GLU1	0.805	
8	 OE1	646.914	165.510	-594.066	O.co2	1	GLU1	-0.819	
9	 OE2	648.072	167.182	-594.872	O.co2	1	GLU1	-0.819	
10	   H	648.182	160.710	-597.507	 H	1	GLU1	0.294	
11	  HA	647.788	163.456	-598.427	 H	1	GLU1	0.111	
12	 2HB	647.880	163.192	-595.340	 H	1	GLU1	-0.017	
13	 3HB	646.484	163.713	-596.257	 H	1	GLU1	-0.017	
14	 2HG	647.756	165.793	-597.040	 H	1	GLU1	-0.043	
15	 3HG	649.166	165.275	-596.130	 H	1	GLU1	-0.043	
16	   N	650.228	162.112	-596.682	N.am	2	ASN2	-0.416	
17	  CA	651.687	162.073	-596.682	C.3	2	ASN2	0.014	
18	   C	652.218	161.718	-598.051	C.2	2	ASN2	0.597	
19	   O	653.133	162.348	-598.580	O.2	2	ASN2	-0.568	
20	  CB	652.179	161.050	-595.618	C.3	2	ASN2	-0.204	
21	  CG	651.716	161.274	-594.175	C.2	2	ASN2	0.713	
22	 ND2	652.310	162.189	-593.456	N.pl3	2	ASN2	-0.919	
23	 OD1	650.796	160.640	-593.680	O.2	2	ASN2	-0.593	
24	   H	649.700	161.532	-596.046	 H	2	ASN2	0.272	
25	  HA	652.064	163.083	-596.437	 H	2	ASN2	0.105	
26	 2HB	653.284	160.991	-595.622	 H	2	ASN2	0.080	
27	 3HB	651.850	160.032	-595.904	 H	2	ASN2	0.080	
28	1HD2	651.830	162.362	-592.570	 H	2	ASN2	0.420	
29	2HD2	653.012	162.761	-593.926	 H	2	ASN2	0.420	
30	   N	651.697	160.723	-598.685	N.am	3	PRO3	-0.255	
31	  CA	652.149	160.313	-600.007	C.3	3	PRO3	-0.027	
32	   C	651.751	161.337	-601.084	C.2	3	PRO3	0.590	
33	   O	652.574	161.720	-601.915	O.2	3	PRO3	-0.575	
34	  CB	651.445	158.959	-600.176	C.3	3	PRO3	-0.007	
35	  CG	650.162	159.111	-599.346	C.3	3	PRO3	0.019	
36	  CD	650.619	159.929	-598.136	C.3	3	PRO3	0.019	
37	  HA	653.235	160.194	-600.020	 H	3	PRO3	0.064	
38	 2HB	652.068	158.177	-599.735	 H	3	PRO3	0.025	
39	 3HB	651.247	158.710	-601.221	 H	3	PRO3	0.025	
40	 2HG	649.734	158.148	-599.055	 H	3	PRO3	0.021	
41	 3HG	649.424	159.681	-599.913	 H	3	PRO3	0.021	
42	 2HD	651.008	159.280	-597.349	 H	3	PRO3	0.039	
43	 3HD	649.823	160.565	-597.743	 H	3	PRO3	0.039	
44	   N	650.546	161.797	-601.116	N.am	4	ASN4	-0.416	
45	  CA	650.187	162.767	-602.146	C.3	4	ASN4	0.014	
46	   C	651.087	163.979	-602.084	C.2	4	ASN4	0.597	
47	   O	651.610	164.455	-603.091	O.2	4	ASN4	-0.568	
48	  CB	648.696	163.179	-601.973	C.3	4	ASN4	-0.204	
49	  CG	647.657	162.054	-602.007	C.2	4	ASN4	0.713	
50	 ND2	647.305	161.555	-603.161	N.pl3	4	ASN4	-0.919	
51	 OD1	647.164	161.592	-600.988	O.2	4	ASN4	-0.593	
52	   H	649.862	161.490	-600.439	 H	4	ASN4	0.272	
53	  HA	650.336	162.299	-603.136	 H	4	ASN4	0.105	
54	 2HB	648.414	163.933	-602.731	 H	4	ASN4	0.080	
55	 3HB	648.567	163.703	-601.006	 H	4	ASN4	0.080	
56	1HD2	646.728	160.716	-603.064	 H	4	ASN4	0.420	
57	2HD2	647.800	161.899	-603.983	 H	4	ASN4	0.420	
58	   N	651.314	164.532	-600.940	N.am	5	SER5	-0.416	
59	  CA	652.183	165.703	-600.881	C.3	5	SER5	-0.025	
60	   C	653.542	165.397	-601.466	C.2	5	SER5	0.597	
61	   O	654.090	166.151	-602.271	O.2	5	SER5	-0.568	
62	  CB	652.294	166.235	-599.431	C.3	5	SER5	0.212	
63	  OG	653.026	165.355	-598.569	O.3	5	SER5	-0.655	
64	   H	650.896	164.160	-600.099	 H	5	SER5	0.272	
65	  HA	651.734	166.493	-601.510	 H	5	SER5	0.084	
66	 2HB	651.294	166.429	-598.998	 H	5	SER5	0.035	
67	 3HB	652.800	167.220	-599.432	 H	5	SER5	0.035	
68	  HG	652.536	164.530	-598.519	 H	5	SER5	0.428	
69	   N	654.147	164.314	-601.112	N.am	6	ILE6	-0.416	
70	  CA	655.460	164.019	-601.678	C.3	6	ILE6	-0.060	
71	   C	655.404	163.981	-603.186	C.2	6	ILE6	0.597	
72	   O	656.239	164.569	-603.889	O.2	6	ILE6	-0.568	
73	  CB	656.059	162.682	-601.078	C.3	6	ILE6	0.130	
74	 CG1	656.078	162.620	-599.517	C.3	6	ILE6	-0.043	
75	 CG2	657.501	162.380	-601.593	C.3	6	ILE6	-0.320	
76	 CD1	656.348	161.231	-598.902	C.3	6	ILE6	-0.066	
77	   H	653.718	163.679	-600.453	 H	6	ILE6	0.272	
78	  HA	656.134	164.853	-601.410	 H	6	ILE6	0.087	
79	  HB	655.402	161.857	-601.422	 H	6	ILE6	0.019	
80	2HG1	655.096	162.940	-599.121	 H	6	ILE6	0.024	
81	3HG1	656.794	163.362	-599.112	 H	6	ILE6	0.024	
82	1HG2	657.560	162.287	-602.691	 H	6	ILE6	0.088	
83	2HG2	658.223	163.163	-601.290	 H	6	ILE6	0.088	
84	3HG2	657.891	161.418	-601.214	 H	6	ILE6	0.088	
85	1HD1	655.620	160.477	-599.257	 H	6	ILE6	0.019	
86	2HD1	657.358	160.852	-599.137	 H	6	ILE6	0.019	
87	3HD1	656.271	161.260	-597.799	 H	6	ILE6	0.019	
88	   N	654.458	163.318	-603.760	N.am	7	LEU7	-0.416	
89	  CA	654.404	163.282	-605.218	C.3	7	LEU7	-0.052	
90	   C	654.332	164.678	-605.791	C.2	7	LEU7	0.597	
91	   O	655.053	165.041	-606.732	O.2	7	LEU7	-0.568	
92	  CB	653.201	162.422	-605.700	C.3	7	LEU7	-0.110	
93	  CG	653.128	160.943	-605.233	C.3	7	LEU7	0.353	
94	 CD1	651.938	160.237	-605.900	C.3	7	LEU7	-0.412	
95	 CD2	654.421	160.164	-605.524	C.3	7	LEU7	-0.412	
96	   H	653.766	162.831	-603.209	 H	7	LEU7	0.272	
97	  HA	655.346	162.842	-605.592	 H	7	LEU7	0.092	
98	 2HB	653.178	162.439	-606.807	 H	7	LEU7	0.046	
99	 3HB	652.261	162.925	-605.396	 H	7	LEU7	0.046	
100	  HG	652.957	160.935	-604.136	 H	7	LEU7	-0.036	
101	1HD1	650.981	160.747	-605.677	 H	7	LEU7	0.100	
102	2HD1	652.038	160.197	-607.001	 H	7	LEU7	0.100	
103	3HD1	651.831	159.196	-605.544	 H	7	LEU7	0.100	
104	1HD2	654.697	160.194	-606.594	 H	7	LEU7	0.100	
105	2HD2	655.274	160.575	-604.953	 H	7	LEU7	0.100	
106	3HD2	654.340	159.101	-605.229	 H	7	LEU7	0.100	
107	   N	653.495	165.519	-605.285	N.am	8	ASP8	-0.516	
108	  CA	653.424	166.868	-605.838	C.3	8	ASP8	0.038	
109	   C	654.771	167.548	-605.780	C.2	8	ASP8	0.537	
110	   O	655.244	168.153	-606.754	O.2	8	ASP8	-0.582	
111	  CB	652.346	167.707	-605.096	C.3	8	ASP8	-0.030	
112	  CG	652.128	169.128	-605.636	C.2	8	ASP8	0.799	
113	 OD1	652.192	169.327	-606.867	O.co2	8	ASP8	-0.801	
114	 OD2	651.935	170.054	-604.821	O.co2	8	ASP8	-0.801	
115	   H	652.896	165.247	-604.517	 H	8	ASP8	0.294	
116	  HA	653.142	166.791	-606.905	 H	8	ASP8	0.088	
117	 2HB	652.603	167.790	-604.024	 H	8	ASP8	-0.012	
118	 3HB	651.367	167.202	-605.130	 H	8	ASP8	-0.012	
119	   N	655.451	167.498	-604.684	N.am	9	GLU9	-0.516	
120	  CA	656.753	168.155	-604.628	C.3	9	GLU9	0.040	
121	   C	657.672	167.628	-605.704	C.2	9	GLU9	0.537	
122	   O	658.336	168.382	-606.429	O.2	9	GLU9	-0.582	
123	  CB	657.386	167.947	-603.223	C.3	9	GLU9	0.056	
124	  CG	658.769	168.639	-602.993	C.3	9	GLU9	0.014	
125	  CD	659.470	168.426	-601.664	C.2	9	GLU9	0.805	
126	 OE1	658.948	167.734	-600.768	O.co2	9	GLU9	-0.819	
127	 OE2	660.589	168.963	-601.532	O.co2	9	GLU9	-0.819	
128	   H	655.087	167.011	-603.877	 H	9	GLU9	0.294	
129	  HA	656.611	169.237	-604.803	 H	9	GLU9	0.111	
130	 2HB	657.499	166.863	-603.020	 H	9	GLU9	-0.017	
131	 3HB	656.689	168.300	-602.438	 H	9	GLU9	-0.017	
132	 2HG	658.697	169.730	-603.132	 H	9	GLU9	-0.043	
133	 3HG	659.516	168.294	-603.726	 H	9	GLU9	-0.043	
134	   N	657.768	166.352	-605.874	N.am	10	HIS10	-0.416	
135	  CA	658.656	165.841	-606.914	C.3	10	HIS10	-0.058	
136	   C	658.290	166.406	-608.265	C.2	10	HIS10	0.597	
137	   O	659.143	166.871	-609.036	O.2	10	HIS10	-0.568	
138	  CB	658.492	164.312	-606.909	C.3	10	HIS10	-0.007	
139	  CG	659.778	163.602	-606.601	C.2	10	HIS10	0.187	
140	 CD2	660.158	163.266	-605.308	C.2	10	HIS10	-0.221	
141	 ND1	660.730	163.196	-607.533	N.2	10	HIS10	-0.543	
142	 CE1	661.636	162.638	-606.710	C.2	10	HIS10	0.163	
143	 NE2	661.373	162.635	-605.375	N.pl3	10	HIS10	-0.280	
144	   H	657.237	165.717	-605.295	 H	10	HIS10	0.272	
145	  HA	659.675	166.198	-606.688	 H	10	HIS10	0.136	
146	 2HB	658.127	163.946	-607.889	 H	10	HIS10	0.037	
147	 3HB	657.736	163.975	-606.170	 H	10	HIS10	0.037	
148	 2HD	659.572	163.481	-604.419	 H	10	HIS10	0.186	
149	 1HE	662.527	162.217	-607.156	 H	10	HIS10	0.144	
150	 2HE	661.939	162.257	-604.601	 H	10	HIS10	0.334	
151	   N	657.052	166.405	-608.628	N.am	11	VAL11	-0.416	
152	  CA	656.698	166.952	-609.935	C.3	11	VAL11	-0.087	
153	   C	657.162	168.382	-610.067	C.2	11	VAL11	0.597	
154	   O	657.764	168.788	-611.070	O.2	11	VAL11	-0.568	
155	  CB	655.137	166.845	-610.155	C.3	11	VAL11	0.299	
156	 CG1	654.569	167.550	-611.418	C.3	11	VAL11	-0.319	
157	 CG2	654.612	165.391	-610.229	C.3	11	VAL11	-0.319	
158	   H	656.339	166.033	-608.018	 H	11	VAL11	0.272	
159	  HA	657.217	166.370	-610.718	 H	11	VAL11	0.097	
160	  HB	654.649	167.325	-609.280	 H	11	VAL11	-0.030	
161	1HG1	655.007	167.158	-612.355	 H	11	VAL11	0.079	
162	2HG1	653.470	167.443	-611.500	 H	11	VAL11	0.079	
163	3HG1	654.747	168.642	-611.408	 H	11	VAL11	0.079	
164	1HG2	654.901	164.804	-609.338	 H	11	VAL11	0.079	
165	2HG2	653.506	165.355	-610.272	 H	11	VAL11	0.079	
166	3HG2	654.994	164.851	-611.115	 H	11	VAL11	0.079	
167	   N	656.925	169.208	-609.105	N.am	12	GLN12	-0.416	
168	  CA	657.374	170.591	-609.231	C.3	12	GLN12	-0.003	
169	   C	658.864	170.658	-609.468	C.2	12	GLN12	0.597	
170	   O	659.351	171.367	-610.347	O.2	12	GLN12	-0.568	
171	  CB	656.982	171.358	-607.948	C.3	12	GLN12	-0.004	
172	  CG	657.343	172.880	-607.917	C.3	12	GLN12	-0.064	
173	  CD	657.040	173.693	-606.652	C.2	12	GLN12	0.695	
174	 NE2	656.472	173.116	-605.623	N.pl3	12	GLN12	-0.941	
175	 OE1	657.342	174.874	-606.574	O.2	12	GLN12	-0.609	
176	   H	656.436	168.902	-608.276	 H	12	GLN12	0.272	
177	  HA	656.875	171.047	-610.106	 H	12	GLN12	0.085	
178	 2HB	657.458	170.858	-607.079	 H	12	GLN12	0.017	
179	 3HB	655.892	171.251	-607.786	 H	12	GLN12	0.017	
180	 2HG	656.866	173.401	-608.768	 H	12	GLN12	0.035	
181	 3HG	658.426	173.022	-608.082	 H	12	GLN12	0.035	
182	1HE2	656.365	173.711	-604.800	 H	12	GLN12	0.425	
183	2HE2	656.309	172.113	-605.727	 H	12	GLN12	0.425	
184	   N	659.648	169.951	-608.727	N.am	13	ARG13	-0.348	
185	  CA	661.088	170.017	-608.958	C.3	13	ARG13	-0.264	
186	   C	661.425	169.646	-610.383	C.2	13	ARG13	0.734	
187	   O	662.194	170.318	-611.066	O.2	13	ARG13	-0.589	
188	  CB	661.801	169.078	-607.944	C.3	13	ARG13	-0.001	
189	  CG	663.346	169.231	-607.862	C.3	13	ARG13	0.039	
190	  CD	663.973	168.243	-606.864	C.3	13	ARG13	0.049	
191	  NE	665.450	168.450	-606.813	N.pl3	13	ARG13	-0.530	
192	  CZ	666.298	167.758	-606.058	C.cat	13	ARG13	0.808	
193	 NH1	665.932	166.794	-605.261	N.pl3	13	ARG13	-0.863	
194	 NH2	667.557	168.057	-606.114	N.pl3	13	ARG13	-0.863	
195	   H	659.272	169.361	-607.999	 H	13	ARG13	0.275	
196	  HA	661.413	171.063	-608.799	 H	13	ARG13	0.156	
197	 2HB	661.535	168.027	-608.183	 H	13	ARG13	0.033	
198	 3HB	661.376	169.244	-606.933	 H	13	ARG13	0.033	
199	 2HG	663.594	170.275	-607.582	 H	13	ARG13	0.029	
200	 3HG	663.797	169.075	-608.863	 H	13	ARG13	0.029	
201	 2HD	663.729	167.203	-607.174	 H	13	ARG13	0.069	
202	 3HD	663.516	168.388	-605.862	 H	13	ARG13	0.069	
203	  HE	665.901	169.172	-607.384	 H	13	ARG13	0.346	
204	1HH1	664.927	166.607	-605.265	 H	13	ARG13	0.448	
205	2HH1	666.645	166.310	-604.712	 H	13	ARG13	0.448	
206	1HH2	667.825	168.815	-606.745	 H	13	ARG13	0.448	
207	2HH2	668.192	167.516	-605.526	 H	13	ARG13	0.448	
208	   N	660.889	168.592	-610.898	N.am	14	VAL14	-0.416	
209	  CA	661.214	168.233	-612.275	C.3	14	VAL14	-0.087	
210	   C	660.885	169.363	-613.220	C.2	14	VAL14	0.597	
211	   O	661.679	169.745	-614.090	O.2	14	VAL14	-0.568	
212	  CB	660.442	166.916	-612.682	C.3	14	VAL14	0.299	
213	 CG1	660.532	166.498	-614.176	C.3	14	VAL14	-0.319	
214	 CG2	660.874	165.663	-611.882	C.3	14	VAL14	-0.319	
215	   H	660.254	168.023	-610.356	 H	14	VAL14	0.272	
216	  HA	662.303	168.056	-612.349	 H	14	VAL14	0.097	
217	  HB	659.366	167.087	-612.467	 H	14	VAL14	-0.030	
218	1HG1	661.573	166.321	-614.505	 H	14	VAL14	0.079	
219	2HG1	659.959	165.575	-614.389	 H	14	VAL14	0.079	
220	3HG1	660.103	167.260	-614.854	 H	14	VAL14	0.079	
221	1HG2	660.786	165.821	-610.792	 H	14	VAL14	0.079	
222	2HG2	660.238	164.787	-612.115	 H	14	VAL14	0.079	
223	3HG2	661.922	165.373	-612.088	 H	14	VAL14	0.079	
224	   N	659.740	169.949	-613.119	N.am	15	MET15	-0.416	
225	  CA	659.420	171.042	-614.033	C.3	15	MET15	-0.024	
226	   C	660.450	172.141	-613.944	C.2	15	MET15	0.597	
227	   O	660.953	172.653	-614.956	O.2	15	MET15	-0.568	
228	  CB	657.999	171.587	-613.724	C.3	15	MET15	0.034	
229	  CG	656.837	170.589	-613.917	C.3	15	MET15	0.002	
230	  SD	655.263	171.455	-613.803	S.3	15	MET15	-0.274	
231	  CE	654.181	170.026	-613.667	C.3	15	MET15	-0.054	
232	   H	659.075	169.656	-612.418	 H	15	MET15	0.272	
233	  HA	659.446	170.655	-615.068	 H	15	MET15	0.088	
234	 2HB	657.797	172.466	-614.366	 H	15	MET15	0.024	
235	 3HB	657.963	171.980	-612.688	 H	15	MET15	0.024	
236	 2HG	656.879	169.803	-613.139	 H	15	MET15	0.044	
237	 3HG	656.900	170.074	-614.893	 H	15	MET15	0.044	
238	 1HE	654.326	169.338	-614.520	 H	15	MET15	0.068	
239	 2HE	654.390	169.473	-612.734	 H	15	MET15	0.068	
240	 3HE	653.124	170.341	-613.651	 H	15	MET15	0.068	
241	   N	660.818	172.562	-612.781	N.am	16	ARG16	-0.348	
242	  CA	661.815	173.626	-612.697	C.3	16	ARG16	-0.264	
243	   C	663.086	173.233	-613.413	C.2	16	ARG16	0.734	
244	   O	663.200	172.157	-613.994	O.2	16	ARG16	-0.589	
245	  CB	662.083	173.943	-611.198	C.3	16	ARG16	-0.001	
246	  CG	662.909	175.232	-610.925	C.3	16	ARG16	0.039	
247	  CD	663.158	175.451	-609.423	C.3	16	ARG16	0.049	
248	  NE	663.934	176.710	-609.221	N.pl3	16	ARG16	-0.530	
249	  CZ	664.325	177.192	-608.045	C.cat	16	ARG16	0.808	
250	 NH1	664.076	176.607	-606.907	N.pl3	16	ARG16	-0.863	
251	 NH2	664.989	178.304	-608.026	N.pl3	16	ARG16	-0.863	
252	   H	660.423	172.162	-611.942	 H	16	ARG16	0.275	
253	  HA	661.406	174.519	-613.207	 H	16	ARG16	0.156	
254	 2HB	662.580	173.067	-610.732	 H	16	ARG16	0.033	
255	 3HB	661.114	174.024	-610.665	 H	16	ARG16	0.033	
256	 2HG	662.379	176.103	-611.362	 H	16	ARG16	0.029	
257	 3HG	663.882	175.179	-611.453	 H	16	ARG16	0.029	
258	 2HD	663.706	174.576	-609.010	 H	16	ARG16	0.069	
259	 3HD	662.185	175.494	-608.888	 H	16	ARG16	0.069	
260	  HE	664.213	177.291	-610.018	 H	16	ARG16	0.346	
261	1HH1	663.551	175.734	-606.992	 H	16	ARG16	0.448	
262	2HH1	664.410	177.042	-606.046	 H	16	ARG16	0.448	
263	1HH2	665.174	178.748	-608.928	 H	16	ARG16	0.448	
264	2HH2	665.278	178.659	-607.113	 H	16	ARG16	0.448	
@<TRIPOS>BOND
1 1 2 1
2 1 10 1
3 2 3 1
4 2 5 1
5 2 11 1
6 3 4 2
7 3 16 1
8 5 6 1
9 6 7 1
10 7 8 2
11 7 9 1
12 5 12 1
13 5 13 1
14 6 14 1
15 6 15 1
16 16 17 1
17 16 24 1
18 17 18 1
19 17 20 1
20 17 25 1
21 18 19 2
22 18 30 1
23 20 21 1
24 21 22 1
25 21 23 2
26 20 26 1
27 20 27 1
28 22 28 1
29 22 29 1
30 30 31 1
31 30 36 1
32 31 32 1
33 31 34 1
34 31 37 1
35 32 33 2
36 32 44 1
37 34 35 1
38 35 36 1
39 34 38 1
40 34 39 1
41 35 40 1
42 35 41 1
43 36 42 1
44 36 43 1
45 44 45 1
46 44 52 1
47 45 46 1
48 45 48 1
49 45 53 1
50 46 47 2
51 46 58 1
52 48 49 1
53 49 50 1
54 49 51 2
55 48 54 1
56 48 55 1
57 50 56 1
58 50 57 1
59 58 59 1
60 58 64 1
61 59 60 1
62 59 62 1
63 59 65 1
64 60 61 2
65 60 69 1
66 62 63 1
67 62 66 1
68 62 67 1
69 63 68 1
70 69 70 1
71 69 77 1
72 70 71 1
73 70 73 1
74 70 78 1
75 71 72 2
76 71 88 1
77 73 74 1
78 73 75 1
79 74 76 1
80 73 79 1
81 74 80 1
82 74 81 1
83 75 82 1
84 75 83 1
85 75 84 1
86 76 85 1
87 76 86 1
88 76 87 1
89 88 89 1
90 88 96 1
91 89 90 1
92 89 92 1
93 89 97 1
94 90 91 2
95 90 107 1
96 92 93 1
97 93 94 1
98 93 95 1
99 92 98 1
100 92 99 1
101 93 100 1
102 94 101 1
103 94 102 1
104 94 103 1
105 95 104 1
106 95 105 1
107 95 106 1
108 107 108 1
109 107 115 1
110 108 109 1
111 108 111 1
112 108 116 1
113 109 110 2
114 109 119 1
115 111 112 1
116 112 113 2
117 112 114 1
118 111 117 1
119 111 118 1
120 119 120 1
121 119 128 1
122 120 121 1
123 120 123 1
124 120 129 1
125 121 122 2
126 121 134 1
127 123 124 1
128 124 125 1
129 125 126 2
130 125 127 1
131 123 130 1
132 123 131 1
133 124 132 1
134 124 133 1
135 134 135 1
136 134 144 1
137 135 136 1
138 135 138 1
139 135 145 1
140 136 137 2
141 136 151 1
142 138 139 1
143 139 140 2
144 140 143 1
145 139 141 1
146 141 142 2
147 142 143 1
148 138 146 1
149 138 147 1
150 140 148 1
151 142 149 1
152 143 150 1
153 151 152 1
154 151 158 1
155 152 153 1
156 152 155 1
157 152 159 1
158 153 154 2
159 153 167 1
160 155 156 1
161 155 157 1
162 155 160 1
163 156 161 1
164 156 162 1
165 156 163 1
166 157 164 1
167 157 165 1
168 157 166 1
169 167 168 1
170 167 176 1
171 168 169 1
172 168 171 1
173 168 177 1
174 169 170 2
175 169 184 1
176 171 172 1
177 172 173 1
178 173 174 1
179 173 175 2
180 171 178 1
181 171 179 1
182 172 180 1
183 172 181 1
184 174 182 1
185 174 183 1
186 184 185 1
187 184 195 1
188 185 186 1
189 185 188 1
190 185 196 1
191 186 187 2
192 186 208 1
193 188 189 1
194 189 190 1
195 190 191 1
196 191 192 1
197 192 193 2
198 192 194 1
199 188 197 1
200 188 198 1
201 189 199 1
202 189 200 1
203 190 201 1
204 190 202 1
205 191 203 1
206 193 204 1
207 193 205 1
208 194 206 1
209 194 207 1
210 208 209 1
211 208 215 1
212 209 210 1
213 209 212 1
214 209 216 1
215 210 211 2
216 210 224 1
217 212 213 1
218 212 214 1
219 212 217 1
220 213 218 1
221 213 219 1
222 213 220 1
223 214 221 1
224 214 222 1
225 214 223 1
226 224 225 1
227 224 232 1
228 225 226 1
229 225 228 1
230 225 233 1
231 226 227 2
232 226 241 1
233 228 229 1
234 229 230 1
235 230 231 1
236 228 234 1
237 228 235 1
238 229 236 1
239 229 237 1
240 231 238 1
241 231 239 1
242 231 240 1
243 241 242 1
244 241 252 1
245 242 243 1
246 242 245 1
247 242 253 1
248 243 244 2
249 245 246 1
250 246 247 1
251 247 248 1
252 248 249 1
253 249 250 2
254 249 251 1
255 245 254 1
256 245 255 1
257 246 256 1
258 246 257 1
259 247 258 1
260 247 259 1
261 248 260 1
262 250 261 1
263 250 262 1
264 251 263 1
265 251 264 1
@<TRIPOS>SUBSTRUCTURE
1	GLU1	1	RESIDUE	1 ****	GLU
2	ASN2	16	RESIDUE	1 ****	ASN
3	PRO3	30	RESIDUE	1 ****	PRO
4	ASN4	44	RESIDUE	1 ****	ASN
5	SER5	58	RESIDUE	1 ****	SER
6	ILE6	69	RESIDUE	1 ****	ILE
7	LEU7	88	RESIDUE	1 ****	LEU
8	ASP8	107	RESIDUE	1 ****	ASP
9	GLU9	119	RESIDUE	1 ****	GLU
10	HIS10	134	RESIDUE	1 ****	HIS
11	VAL11	151	RESIDUE	1 ****	VAL
12	GLN12	167	RESIDUE	1 ****	GLN
13	ARG13	184	RESIDUE	1 ****	ARG
14	VAL14	208	RESIDUE	1 ****	VAL
15	MET15	224	RESIDUE	1 ****	MET
16	ARG16	241	RESIDUE	1 ****	ARG
