REMARK WARNING: 32 MAX_TORS EXCEEDED!!!
REMARK  69 active torsions:
REMARK  status: ('A' for Active; 'I' for Inactive)
REMARK    1  A    between atoms: N_1  and  CA_2 
REMARK    2  A    between atoms: CA_2  and  C_3 
REMARK    3  A    between atoms: CA_2  and  CB_5 
REMARK       I    between atoms: C_3  and  N_11 
REMARK    4  A    between atoms: CB_5  and  CG_6 
REMARK    5  A    between atoms: CG_6  and  CD_7 
REMARK    6  A    between atoms: N_11  and  CA_12 
REMARK    7  A    between atoms: CA_12  and  C_13 
REMARK    8  A    between atoms: CA_12  and  CB_15 
REMARK       I    between atoms: C_13  and  N_22 
REMARK    9  A    between atoms: CB_15  and  CG_16 
REMARK       I    between atoms: CG_16  and  ND2_17 
REMARK   10  A    between atoms: CA_23  and  C_24 
REMARK       I    between atoms: C_24  and  N_29 
REMARK   11  A    between atoms: N_29  and  CA_30 
REMARK   12  A    between atoms: CA_30  and  C_31 
REMARK   13  A    between atoms: CA_30  and  CB_33 
REMARK       I    between atoms: C_31  and  N_39 
REMARK   14  A    between atoms: CB_33  and  CG_34 
REMARK   15  A    between atoms: CG_34  and  CD_35 
REMARK   16  A    between atoms: N_39  and  CA_40 
REMARK   17  A    between atoms: CA_40  and  C_41 
REMARK   18  A    between atoms: CA_40  and  CB_43 
REMARK       I    between atoms: C_41  and  N_47 
REMARK   19  A    between atoms: CB_43  and  OG_44 
REMARK   20  A    between atoms: N_47  and  CA_48 
REMARK   21  A    between atoms: CA_48  and  C_49 
REMARK   22  A    between atoms: CA_48  and  CB_51 
REMARK       I    between atoms: C_49  and  N_56 
REMARK   23  A    between atoms: CB_51  and  CG1_52 
REMARK   24  A    between atoms: N_56  and  CA_57 
REMARK   25  A    between atoms: CA_57  and  C_58 
REMARK   26  A    between atoms: CA_57  and  CB_60 
REMARK       I    between atoms: C_58  and  N_65 
REMARK   27  A    between atoms: CB_60  and  CG_61 
REMARK   28  A    between atoms: N_65  and  CA_66 
REMARK   29  A    between atoms: CA_66  and  C_67 
REMARK   30  A    between atoms: CA_66  and  CB_69 
REMARK       I    between atoms: C_67  and  N_74 
REMARK   31  A    between atoms: CB_69  and  CG_70 
REMARK   32  A    between atoms: N_74  and  CA_75 
REMARK   33  A    between atoms: CA_75  and  C_76 
REMARK   34  A    between atoms: CA_75  and  CB_78 
REMARK       I    between atoms: C_76  and  N_84 
REMARK   35  A    between atoms: CB_78  and  CG_79 
REMARK   36  A    between atoms: CG_79  and  CD_80 
REMARK   37  A    between atoms: N_84  and  CA_85 
REMARK   38  A    between atoms: CA_85  and  C_86 
REMARK   39  A    between atoms: CA_85  and  CB_88 
REMARK       I    between atoms: C_86  and  N_96 
REMARK   40  A    between atoms: CB_88  and  CG_89 
REMARK   41  A    between atoms: N_96  and  CA_97 
REMARK   42  A    between atoms: CA_97  and  C_98 
REMARK   43  A    between atoms: CA_97  and  CB_100 
REMARK       I    between atoms: C_98  and  N_104 
REMARK   44  A    between atoms: N_104  and  CA_105 
REMARK   45  A    between atoms: CA_105  and  C_106 
REMARK   46  A    between atoms: CA_105  and  CB_108 
REMARK       I    between atoms: C_106  and  N_116 
REMARK   47  A    between atoms: CB_108  and  CG_109 
REMARK   48  A    between atoms: CG_109  and  CD_110 
REMARK       I    between atoms: CD_110  and  NE2_111 
REMARK   49  A    between atoms: N_116  and  CA_117 
REMARK   50  A    between atoms: CA_117  and  C_118 
REMARK   51  A    between atoms: CA_117  and  CB_120 
REMARK       I    between atoms: C_118  and  N_133 
REMARK   52  A    between atoms: CB_120  and  CG_121 
REMARK   53  A    between atoms: CG_121  and  CD_122 
REMARK   54  A    between atoms: CD_122  and  NE_123 
REMARK       I    between atoms: NE_123  and  CZ_124 
REMARK       I    between atoms: CZ_124  and  NH1_125 
REMARK       I    between atoms: CZ_124  and  NH2_126 
REMARK   55  A    between atoms: N_133  and  CA_134 
REMARK   56  A    between atoms: CA_134  and  C_135 
REMARK   57  A    between atoms: CA_134  and  CB_137 
REMARK       I    between atoms: C_135  and  N_142 
REMARK   58  A    between atoms: CB_137  and  OG1_139 
REMARK   59  A    between atoms: N_142  and  CA_143 
REMARK   60  A    between atoms: CA_143  and  C_144 
REMARK   61  A    between atoms: CA_143  and  CB_146 
REMARK       I    between atoms: C_144  and  N_151 
REMARK   62  A    between atoms: CB_146  and  CG_147 
REMARK   63  A    between atoms: CG_147  and  SD_148 
REMARK   64  A    between atoms: N_151  and  CA_152 
REMARK   65  A    between atoms: CA_152  and  C_153 
REMARK   66  A    between atoms: CA_152  and  CB_155 
REMARK   67  A    between atoms: CB_155  and  CG_156 
REMARK   68  A    between atoms: CG_156  and  CD_157 
REMARK   69  A    between atoms: CD_157  and  NE_158 
REMARK       I    between atoms: NE_158  and  CZ_159 
REMARK       I    between atoms: CZ_159  and  NH1_160 
ROOT
ATOM      1  C   GLU d   9    2285.441 701.232-2372.379  0.00  0.00     0.241 C 
ATOM      2  O   GLU d   9    2286.105 701.985-2373.105  0.00  0.00    -0.271 OA
ATOM      3  N   HIS d  10    2285.537 699.956-2372.548  0.00  0.00    -0.346 N 
ATOM      4  H   HIS d  10    2285.006 699.321-2371.969  0.00  0.00     0.163 HD
ENDROOT
BRANCH   3   5
ATOM      5  CA  HIS d  10    2286.424 699.444-2373.588  0.00  0.00     0.182 C 
BRANCH   5   6
ATOM      6  C   HIS d  10    2286.057 700.008-2374.940  0.00  0.00     0.241 C 
ATOM      7  O   HIS d  10    2286.910 700.472-2375.712  0.00  0.00    -0.271 OA
ATOM      8  N   VAL d  11    2284.820 700.008-2375.302  0.00  0.00    -0.346 N 
ATOM      9  H   VAL d  11    2284.106 699.635-2374.692  0.00  0.00     0.163 HD
BRANCH   8  10
ATOM     10  CA  VAL d  11    2284.464 700.553-2376.610  0.00  0.00     0.180 C 
BRANCH  10  11
ATOM     11  C   VAL d  11    2284.930 701.983-2376.743  0.00  0.00     0.241 C 
ATOM     12  O   VAL d  11    2285.531 702.388-2377.746  0.00  0.00    -0.271 OA
ATOM     13  N   GLN d  12    2284.693 702.810-2375.781  0.00  0.00    -0.346 N 
ATOM     14  H   GLN d  12    2284.205 702.504-2374.951  0.00  0.00     0.163 HD
BRANCH  13  15
ATOM     15  CA  GLN d  12    2285.143 704.192-2375.909  0.00  0.00     0.177 C 
BRANCH  15  16
ATOM     16  C   GLN d  12    2286.632 704.259-2376.147  0.00  0.00     0.241 C 
ATOM     17  O   GLN d  12    2287.120 704.966-2377.026  0.00  0.00    -0.271 OA
ATOM     18  N   ARG d  13    2287.417 703.552-2375.406  0.00  0.00    -0.346 N 
ATOM     19  H   ARG d  13    2287.041 702.963-2374.677  0.00  0.00     0.163 HD
BRANCH  18  20
ATOM     20  CA  ARG d  13    2288.857 703.617-2375.637  0.00  0.00     0.176 C 
BRANCH  20  21
ATOM     21  C   ARG d  13    2289.193 703.245-2377.062  0.00  0.00     0.241 C 
ATOM     22  O   ARG d  13    2289.962 703.916-2377.747  0.00  0.00    -0.271 OA
ATOM     23  N   THR d  14    2288.656 702.190-2377.575  0.00  0.00    -0.344 N 
ATOM     24  H   THR d  14    2288.021 701.622-2377.033  0.00  0.00     0.163 HD
BRANCH  23  25
ATOM     25  CA  THR d  14    2288.981 701.830-2378.952  0.00  0.00     0.205 C 
BRANCH  25  26
ATOM     26  C   THR d  14    2288.651 702.959-2379.899  0.00  0.00     0.243 C 
ATOM     27  O   THR d  14    2289.432 703.332-2380.752  0.00  0.00    -0.271 OA
ATOM     28  N   MET d  15    2287.507 703.546-2379.799  0.00  0.00    -0.346 N 
ATOM     29  H   MET d  15    2286.841 703.254-2379.097  0.00  0.00     0.163 HD
BRANCH  28  30
ATOM     30  CA  MET d  15    2287.188 704.638-2380.714  0.00  0.00     0.177 C 
BRANCH  30  31
ATOM     31  C   MET d  15    2288.218 705.737-2380.627  0.00  0.00     0.241 C 
ATOM     32  O   MET d  15    2288.722 706.246-2381.640  0.00  0.00    -0.271 OA
ATOM     33  N   ARG d  16    2288.586 706.159-2379.465  0.00  0.00    -0.347 N 
ATOM     34  H   ARG d  16    2288.191 705.760-2378.625  0.00  0.00     0.163 HD
BRANCH  33  35
ATOM     35  CA  ARG d  16    2289.583 707.223-2379.382  0.00  0.00     0.162 C 
BRANCH  35  36
ATOM     36  C   ARG d  16    2290.854 706.828-2380.096  0.00  0.00     0.219 C 
ATOM     37  O   ARG d  16    2290.968 705.751-2380.677  0.00  0.00    -0.287 OA
ENDBRANCH  35  36
BRANCH  35  38
ATOM     38  CB  ARG d  16    2289.852 707.542-2377.884  0.00  0.00     0.035 C 
BRANCH  38  39
ATOM     39  CG  ARG d  16    2290.677 708.831-2377.612  0.00  0.00     0.023 C 
BRANCH  39  40
ATOM     40  CD  ARG d  16    2290.926 709.052-2376.110  0.00  0.00     0.138 C 
BRANCH  40  41
ATOM     41  NE  ARG d  16    2291.703 710.310-2375.910  0.00  0.00    -0.227 N 
ATOM     42  CZ  ARG d  16    2292.094 710.794-2374.735  0.00  0.00     0.665 C 
ATOM     43  NH1 ARG d  16    2291.845 710.211-2373.596  0.00  0.00    -0.235 N 
ATOM     44  NH2 ARG d  16    2292.759 711.906-2374.717  0.00  0.00    -0.235 N 
ATOM     45 11HH ARG d  16    2291.319 709.338-2373.680  0.00  0.00     0.174 HD
ATOM     46 12HH ARG d  16    2292.179 710.647-2372.735  0.00  0.00     0.174 HD
ATOM     47 21HH ARG d  16    2292.945 712.348-2375.619  0.00  0.00     0.174 HD
ATOM     48 22HH ARG d  16    2293.048 712.262-2373.805  0.00  0.00     0.174 HD
ATOM     49  HE  ARG d  16    2291.982 710.890-2376.708  0.00  0.00     0.177 HD
ENDBRANCH  40  41
ENDBRANCH  39  40
ENDBRANCH  38  39
ENDBRANCH  35  38
ENDBRANCH  33  35
ENDBRANCH  30  31
BRANCH  30  50
ATOM     50  CB  MET d  15    2285.766 705.184-2380.407  0.00  0.00     0.045 C 
BRANCH  50  51
ATOM     51  CG  MET d  15    2284.604 704.187-2380.598  0.00  0.00     0.076 C 
BRANCH  51  52
ATOM     52  SD  MET d  15    2283.030 705.053-2380.486  0.00  0.00    -0.173 SA
ATOM     53  CE  MET d  15    2281.948 703.624-2380.348  0.00  0.00     0.089 C 
ENDBRANCH  51  52
ENDBRANCH  50  51
ENDBRANCH  30  50
ENDBRANCH  28  30
ENDBRANCH  25  26
BRANCH  25  54
ATOM     54  CB  THR d  14    2288.231 700.521-2379.370  0.00  0.00     0.146 C 
ATOM     55  CG2 THR d  14    2288.472 700.023-2380.812  0.00  0.00     0.042 C 
BRANCH  54  56
ATOM     56  OG1 THR d  14    2288.629 699.432-2378.546  0.00  0.00    -0.393 OA
ATOM     57  1HG THR d  14    2288.083 698.686-2378.807  0.00  0.00     0.210 HD
ENDBRANCH  54  56
ENDBRANCH  25  54
ENDBRANCH  23  25
ENDBRANCH  20  21
BRANCH  20  58
ATOM     58  CB  ARG d  13    2289.570 702.679-2374.623  0.00  0.00     0.036 C 
BRANCH  58  59
ATOM     59  CG  ARG d  13    2291.115 702.831-2374.542  0.00  0.00     0.023 C 
BRANCH  59  60
ATOM     60  CD  ARG d  13    2291.742 701.844-2373.544  0.00  0.00     0.138 C 
BRANCH  60  61
ATOM     61  NE  ARG d  13    2293.219 702.051-2373.494  0.00  0.00    -0.227 N 
ATOM     62  CZ  ARG d  13    2294.068 701.360-2372.739  0.00  0.00     0.665 C 
ATOM     63  NH1 ARG d  13    2293.703 700.396-2371.940  0.00  0.00    -0.235 N 
ATOM     64  NH2 ARG d  13    2295.327 701.658-2372.796  0.00  0.00    -0.235 N 
ATOM     65 11HH ARG d  13    2292.697 700.210-2371.943  0.00  0.00     0.174 HD
ATOM     66 12HH ARG d  13    2294.416 699.913-2371.391  0.00  0.00     0.174 HD
ATOM     67 21HH ARG d  13    2295.595 702.416-2373.428  0.00  0.00     0.174 HD
ATOM     68 22HH ARG d  13    2295.963 701.117-2372.207  0.00  0.00     0.174 HD
ATOM     69  HE  ARG d  13    2293.671 702.773-2374.065  0.00  0.00     0.177 HD
ENDBRANCH  60  61
ENDBRANCH  59  60
ENDBRANCH  58  59
ENDBRANCH  20  58
ENDBRANCH  18  20
ENDBRANCH  15  16
BRANCH  15  70
ATOM     70  CB  GLN d  12    2284.752 704.961-2374.626  0.00  0.00     0.044 C 
BRANCH  70  71
ATOM     71  CG  GLN d  12    2285.114 706.482-2374.596  0.00  0.00     0.105 C 
BRANCH  71  72
ATOM     72  CD  GLN d  12    2284.812 707.297-2373.332  0.00  0.00     0.215 C 
ATOM     73  NE2 GLN d  12    2284.245 706.721-2372.302  0.00  0.00    -0.370 N 
ATOM     74 21HE GLN d  12    2284.138 707.316-2371.479  0.00  0.00     0.159 HD
ATOM     75 22HE GLN d  12    2284.081 705.718-2372.405  0.00  0.00     0.159 HD
ATOM     76  OE1 GLN d  12    2285.115 708.477-2373.255  0.00  0.00    -0.274 OA
ENDBRANCH  71  72
ENDBRANCH  70  71
ENDBRANCH  15  70
ENDBRANCH  13  15
ENDBRANCH  10  11
BRANCH  10  77
ATOM     77  CB  VAL d  11    2282.903 700.447-2376.829  0.00  0.00     0.009 C 
ATOM     78  CG1 VAL d  11    2282.335 701.151-2378.092  0.00  0.00     0.012 C 
ATOM     79  CG2 VAL d  11    2282.378 698.993-2376.901  0.00  0.00     0.012 C 
ENDBRANCH  10  77
ENDBRANCH   8  10
ENDBRANCH   5   6
BRANCH   5  80
ATOM     80  CB  HIS d  10    2286.260 697.915-2373.583  0.00  0.00     0.095 C 
BRANCH  80  81
ATOM     81  CG  HIS d  10    2287.545 697.204-2373.275  0.00  0.00     0.053 A 
ATOM     82  CD2 HIS d  10    2287.927 696.870-2371.982  0.00  0.00     0.116 A 
ATOM     83  NE2 HIS d  10    2289.141 696.237-2372.049  0.00  0.00    -0.359 N 
ATOM     84  CE1 HIS d  10    2289.403 696.240-2373.384  0.00  0.00     0.207 A 
ATOM     85  2HE HIS d  10    2289.708 695.860-2371.276  0.00  0.00     0.166 HD
ATOM     86  ND1 HIS d  10    2288.497 696.798-2374.207  0.00  0.00    -0.247 NA
ENDBRANCH  80  81
ENDBRANCH   5  80
ENDBRANCH   3   5
BRANCH   1  87
ATOM     87  CA  GLU d   9    2284.524 701.760-2371.303  0.00  0.00     0.177 C 
BRANCH  87  88
ATOM     88  N   GLU d   9    2283.220 701.103-2371.358  0.00  0.00    -0.346 N 
ATOM     89  C   ASP d   8    2282.541 701.153-2372.453  0.00  0.00     0.241 C 
ATOM     90  O   ASP d   8    2283.013 701.757-2373.428  0.00  0.00    -0.271 OA
ATOM     91  H   GLU d   9    2282.857 700.617-2370.551  0.00  0.00     0.163 HD
BRANCH  89  92
ATOM     92  CA  ASP d   8    2281.193 700.474-2372.510  0.00  0.00     0.186 C 
BRANCH  92  93
ATOM     93  N   ASP d   8    2281.263 699.124-2371.956  0.00  0.00    -0.346 N 
ATOM     94  C   LEU d   7    2282.100 698.283-2372.462  0.00  0.00     0.241 C 
ATOM     95  O   LEU d   7    2282.821 698.645-2373.404  0.00  0.00    -0.271 OA
ATOM     96  H   ASP d   8    2280.665 698.854-2371.188  0.00  0.00     0.163 HD
BRANCH  94  97
ATOM     97  CA  LEU d   7    2282.172 696.888-2371.889  0.00  0.00     0.177 C 
BRANCH  97  98
ATOM     98  N   LEU d   7    2282.227 696.924-2370.430  0.00  0.00    -0.346 N 
ATOM     99  C   ILE d   6    2283.173 697.587-2369.857  0.00  0.00     0.241 C 
ATOM    100  O   ILE d   6    2284.008 698.174-2370.561  0.00  0.00    -0.271 OA
ATOM    101  H   LEU d   7    2281.535 696.437-2369.879  0.00  0.00     0.163 HD
BRANCH  99 102
ATOM    102  CA  ILE d   6    2283.230 697.625-2368.349  0.00  0.00     0.180 C 
BRANCH 102 103
ATOM    103  N   ILE d   6    2281.917 697.920-2367.783  0.00  0.00    -0.346 N 
ATOM    104  C   SER d   5    2281.313 699.004-2368.137  0.00  0.00     0.243 C 
ATOM    105  O   SER d   5    2281.861 699.757-2368.942  0.00  0.00    -0.271 OA
ATOM    106  H   ILE d   6    2281.488 697.286-2367.124  0.00  0.00     0.163 HD
BRANCH 104 107
ATOM    107  CA  SER d   5    2279.954 699.310-2367.552  0.00  0.00     0.200 C 
BRANCH 107 108
ATOM    108  N   SER d   5    2279.084 698.139-2367.611  0.00  0.00    -0.344 N 
ATOM    109  C   GLU d   4    2278.857 697.586-2368.754  0.00  0.00     0.241 C 
ATOM    110  O   GLU d   4    2279.384 698.065-2369.768  0.00  0.00    -0.271 OA
ATOM    111  H   SER d   5    2278.667 697.767-2366.770  0.00  0.00     0.163 HD
BRANCH 109 112
ATOM    112  CA  GLU d   4    2277.958 696.375-2368.816  0.00  0.00     0.177 C 
BRANCH 112 113
ATOM    113  N   GLU d   4    2278.317 695.404-2367.786  0.00  0.00    -0.346 N 
ATOM    114  C   PRO d   3    2279.522 694.944-2367.753  0.00  0.00     0.241 C 
ATOM    115  O   PRO d   3    2280.345 695.327-2368.584  0.00  0.00    -0.271 OA
ATOM    116  H   GLU d   4    2277.632 695.098-2367.109  0.00  0.00     0.163 HD
BRANCH 114 117
ATOM    117  CA  PRO d   3    2279.919 693.920-2366.676  0.00  0.00     0.179 C 
ATOM    118  N   PRO d   3    2279.467 694.330-2365.355  0.00  0.00    -0.337 N 
ATOM    119  C   ASN d   2    2279.989 695.324-2364.720  0.00  0.00     0.243 C 
ATOM    120  CD  PRO d   3    2278.389 693.537-2364.806  0.00  0.00     0.127 C 
ATOM    121  O   ASN d   2    2280.904 695.955-2365.249  0.00  0.00    -0.271 OA
ATOM    122  CG  PRO d   3    2277.931 692.718-2366.016  0.00  0.00     0.022 C 
ATOM    123  CB  PRO d   3    2279.215 692.566-2366.846  0.00  0.00     0.037 C 
BRANCH 119 124
ATOM    124  CA  ASN d   2    2279.457 695.680-2363.352  0.00  0.00     0.185 C 
BRANCH 124 125
ATOM    125  N   ASN d   2    2277.998 695.719-2363.352  0.00  0.00    -0.346 N 
ATOM    126  C   GLU d   1    2277.394 696.505-2364.177  0.00  0.00     0.242 C 
ATOM    127  O   GLU d   1    2278.069 697.204-2364.946  0.00  0.00    -0.271 OA
ATOM    128  H   ASN d   2    2277.470 695.139-2362.716  0.00  0.00     0.163 HD
BRANCH 126 129
ATOM    129  CA  GLU d   1    2275.885 696.545-2364.177  0.00  0.00     0.191 C 
BRANCH 129 130
ATOM    130  N   GLU d   1    2275.325 695.196-2364.177  0.00  0.00    -0.326 NA
ATOM    131  H   GLU d   1    2275.952 694.317-2364.177  0.00  0.00     0.180 HD
ENDBRANCH 129 130
BRANCH 129 132
ATOM    132  CB  GLU d   1    2275.361 697.330-2362.940  0.00  0.00     0.047 C 
BRANCH 132 133
ATOM    133  CG  GLU d   1    2275.836 698.815-2362.829  0.00  0.00     0.116 C 
BRANCH 133 134
ATOM    134  CD  GLU d   1    2275.412 699.619-2361.614  0.00  0.00     0.172 C 
ATOM    135  OE1 GLU d   1    2274.684 699.117-2360.736  0.00  0.00    -0.648 OA
ATOM    136  OE2 GLU d   1    2275.843 700.789-2361.542  0.00  0.00    -0.648 OA
ENDBRANCH 133 134
ENDBRANCH 132 133
ENDBRANCH 129 132
ENDBRANCH 126 129
ENDBRANCH 124 125
BRANCH 124 137
ATOM    137  CB  ASN d   2    2279.949 694.657-2362.287  0.00  0.00     0.137 C 
BRANCH 137 138
ATOM    138  CG  ASN d   2    2279.486 694.881-2360.844  0.00  0.00     0.217 C 
ATOM    139  ND2 ASN d   2    2280.080 695.796-2360.126  0.00  0.00    -0.370 N 
ATOM    140 21HD ASN d   2    2279.599 695.969-2359.239  0.00  0.00     0.159 HD
ATOM    141 22HD ASN d   2    2280.781 696.367-2360.595  0.00  0.00     0.159 HD
ATOM    142  OD1 ASN d   2    2278.564 694.247-2360.350  0.00  0.00    -0.274 OA
ENDBRANCH 137 138
ENDBRANCH 124 137
ENDBRANCH 119 124
ENDBRANCH 114 117
ENDBRANCH 112 113
BRANCH 112 143
ATOM    143  CB  GLU d   4    2276.469 696.794-2368.646  0.00  0.00     0.045 C 
BRANCH 143 144
ATOM    144  CG  GLU d   4    2275.922 697.798-2369.712  0.00  0.00     0.116 C 
BRANCH 144 145
ATOM    145  CD  GLU d   4    2274.495 698.295-2369.569  0.00  0.00     0.172 C 
ATOM    146  OE1 GLU d   4    2273.769 697.897-2368.638  0.00  0.00    -0.648 OA
ATOM    147  OE2 GLU d   4    2274.106 699.124-2370.417  0.00  0.00    -0.648 OA
ENDBRANCH 144 145
ENDBRANCH 143 144
ENDBRANCH 112 143
ENDBRANCH 109 112
ENDBRANCH 107 108
BRANCH 107 148
ATOM    148  CB  SER d   5    2280.065 699.842-2366.102  0.00  0.00     0.199 C 
BRANCH 148 149
ATOM    149  OG  SER d   5    2280.796 698.962-2365.240  0.00  0.00    -0.398 OA
ATOM    150  HG  SER d   5    2280.307 698.137-2365.190  0.00  0.00     0.209 HD
ENDBRANCH 148 149
ENDBRANCH 107 148
ENDBRANCH 104 107
ENDBRANCH 102 103
BRANCH 102 151
ATOM    151  CB  ILE d   6    2283.829 696.288-2367.749  0.00  0.00     0.013 C 
ATOM    152  CG2 ILE d   6    2285.271 695.986-2368.264  0.00  0.00     0.012 C 
BRANCH 151 153
ATOM    153  CG1 ILE d   6    2283.848 696.226-2366.188  0.00  0.00     0.002 C 
ATOM    154  CD1 ILE d   6    2284.118 694.837-2365.573  0.00  0.00     0.005 C 
ENDBRANCH 151 153
ENDBRANCH 102 151
ENDBRANCH  99 102
ENDBRANCH  97  98
BRANCH  97 155
ATOM    155  CB  LEU d   7    2280.969 696.028-2372.369  0.00  0.00     0.038 C 
BRANCH 155 156
ATOM    156  CG  LEU d   7    2280.896 694.549-2371.903  0.00  0.00    -0.020 C 
ATOM    157  CD1 LEU d   7    2279.706 693.843-2372.568  0.00  0.00     0.009 C 
ATOM    158  CD2 LEU d   7    2282.189 693.769-2372.194  0.00  0.00     0.009 C 
ENDBRANCH 155 156
ENDBRANCH  97 155
ENDBRANCH  94  97
ENDBRANCH  92  93
BRANCH  92 159
ATOM    159  CB  ASP d   8    2280.116 701.314-2371.769  0.00  0.00     0.147 C 
BRANCH 159 160
ATOM    160  CG  ASP d   8    2279.898 702.734-2372.310  0.00  0.00     0.175 C 
ATOM    161  OD1 ASP d   8    2279.962 702.932-2373.541  0.00  0.00    -0.648 OA
ATOM    162  OD2 ASP d   8    2279.706 703.661-2371.495  0.00  0.00    -0.648 OA
ENDBRANCH 159 160
ENDBRANCH  92 159
ENDBRANCH  89  92
ENDBRANCH  87  88
BRANCH  87 163
ATOM    163  CB  GLU d   9    2285.157 701.553-2369.898  0.00  0.00     0.045 C 
BRANCH 163 164
ATOM    164  CG  GLU d   9    2286.540 702.245-2369.669  0.00  0.00     0.116 C 
BRANCH 164 165
ATOM    165  CD  GLU d   9    2287.242 702.031-2368.341  0.00  0.00     0.172 C 
ATOM    166  OE1 GLU d   9    2286.720 701.341-2367.444  0.00  0.00    -0.648 OA
ATOM    167  OE2 GLU d   9    2288.362 702.569-2368.210  0.00  0.00    -0.648 OA
ENDBRANCH 164 165
ENDBRANCH 163 164
ENDBRANCH  87 163
ENDBRANCH   1  87
TORSDOF 69
