@<TRIPOS>MOLECULE
14-2
263 265 16              
SMALL
USER_CHARGES
@<TRIPOS>ATOM
1	   N	2176.303	663.525	-2257.602	N.3	1	GLU1	-0.516	
2	  CA	2176.862	664.874	-2257.602	C.3	1	GLU1	0.040	
3	   C	2178.371	664.834	-2257.602	C.2	1	GLU1	0.537	
4	   O	2179.047	665.533	-2258.370	O.2	1	GLU1	-0.582	
5	  CB	2176.339	665.659	-2256.365	C.3	1	GLU1	0.056	
6	  CG	2176.814	667.144	-2256.254	C.3	1	GLU1	0.014	
7	  CD	2176.390	667.948	-2255.039	C.2	1	GLU1	0.805	
8	 OE1	2175.662	667.446	-2254.161	O.co2	1	GLU1	-0.819	
9	 OE2	2176.820	669.118	-2254.967	O.co2	1	GLU1	-0.819	
10	   H	2176.930	662.646	-2257.602	 H	1	GLU1	0.294	
11	  HA	2176.536	665.392	-2258.522	 H	1	GLU1	0.111	
12	 2HB	2176.628	665.128	-2255.435	 H	1	GLU1	-0.017	
13	 3HB	2175.232	665.649	-2256.352	 H	1	GLU1	-0.017	
14	 2HG	2176.504	667.729	-2257.135	 H	1	GLU1	-0.043	
15	 3HG	2177.914	667.211	-2256.225	 H	1	GLU1	-0.043	
16	   N	2178.975	664.048	-2256.776	N.am	2	ASN2	-0.416	
17	  CA	2180.435	664.010	-2256.776	C.3	2	ASN2	0.014	
18	   C	2180.966	663.654	-2258.145	C.2	2	ASN2	0.597	
19	   O	2181.881	664.284	-2258.673	O.2	2	ASN2	-0.568	
20	  CB	2180.926	662.986	-2255.712	C.3	2	ASN2	-0.204	
21	  CG	2180.463	663.210	-2254.269	C.2	2	ASN2	0.713	
22	 ND2	2181.057	664.125	-2253.550	N.pl3	2	ASN2	-0.919	
23	 OD1	2179.542	662.577	-2253.774	O.2	2	ASN2	-0.593	
24	   H	2178.447	663.469	-2256.140	 H	2	ASN2	0.272	
25	  HA	2180.812	665.019	-2256.531	 H	2	ASN2	0.105	
26	 2HB	2182.031	662.927	-2255.715	 H	2	ASN2	0.080	
27	 3HB	2180.597	661.968	-2255.998	 H	2	ASN2	0.080	
28	1HD2	2180.576	664.298	-2252.664	 H	2	ASN2	0.420	
29	2HD2	2181.759	664.697	-2254.019	 H	2	ASN2	0.420	
30	   N	2180.445	662.659	-2258.779	N.am	3	PRO3	-0.255	
31	  CA	2180.897	662.250	-2260.100	C.3	3	PRO3	-0.027	
32	   C	2180.499	663.273	-2261.177	C.2	3	PRO3	0.590	
33	   O	2181.323	663.656	-2262.009	O.2	3	PRO3	-0.575	
34	  CB	2180.192	660.895	-2260.270	C.3	3	PRO3	-0.007	
35	  CG	2178.909	661.047	-2259.440	C.3	3	PRO3	0.019	
36	  CD	2179.366	661.866	-2258.230	C.3	3	PRO3	0.019	
37	  HA	2181.983	662.130	-2260.114	 H	3	PRO3	0.064	
38	 2HB	2180.815	660.114	-2259.829	 H	3	PRO3	0.025	
39	 3HB	2179.994	660.647	-2261.315	 H	3	PRO3	0.025	
40	 2HG	2178.481	660.086	-2259.149	 H	3	PRO3	0.021	
41	 3HG	2178.172	661.619	-2260.008	 H	3	PRO3	0.021	
42	 2HD	2179.755	661.216	-2257.443	 H	3	PRO3	0.039	
43	 3HD	2178.570	662.502	-2257.838	 H	3	PRO3	0.039	
44	   N	2179.294	663.734	-2261.210	N.am	4	GLU4	-0.516	
45	  CA	2178.935	664.705	-2262.240	C.3	4	GLU4	0.040	
46	   C	2179.834	665.915	-2262.178	C.2	4	GLU4	0.537	
47	   O	2180.361	666.395	-2263.193	O.2	4	GLU4	-0.582	
48	  CB	2177.447	665.124	-2262.070	C.3	4	GLU4	0.056	
49	  CG	2176.899	666.127	-2263.136	C.3	4	GLU4	0.014	
50	  CD	2175.473	666.624	-2262.993	C.2	4	GLU4	0.805	
51	 OE1	2174.746	666.226	-2262.062	O.co2	4	GLU4	-0.819	
52	 OE2	2175.084	667.454	-2263.842	O.co2	4	GLU4	-0.819	
53	   H	2178.610	663.427	-2260.534	 H	4	GLU4	0.294	
54	  HA	2179.067	664.234	-2263.231	 H	4	GLU4	0.111	
55	 2HB	2177.294	665.563	-2261.064	 H	4	GLU4	-0.017	
56	 3HB	2176.799	664.226	-2262.077	 H	4	GLU4	-0.017	
57	 2HG	2176.981	665.713	-2264.154	 H	4	GLU4	-0.043	
58	 3HG	2177.488	667.060	-2263.147	 H	4	GLU4	-0.043	
59	   N	2180.061	666.468	-2261.035	N.am	5	SER5	-0.416	
60	  CA	2180.931	667.639	-2260.976	C.3	5	SER5	-0.025	
61	   C	2182.290	667.333	-2261.562	C.2	5	SER5	0.597	
62	   O	2182.838	668.086	-2262.366	O.2	5	SER5	-0.568	
63	  CB	2181.042	668.171	-2259.526	C.3	5	SER5	0.212	
64	  OG	2181.773	667.292	-2258.665	O.3	5	SER5	-0.655	
65	   H	2179.644	666.096	-2260.194	 H	5	SER5	0.272	
66	  HA	2180.482	668.430	-2261.605	 H	5	SER5	0.084	
67	 2HB	2180.042	668.365	-2259.093	 H	5	SER5	0.035	
68	 3HB	2181.548	669.157	-2259.528	 H	5	SER5	0.035	
69	  HG	2181.284	666.467	-2258.614	 H	5	SER5	0.428	
70	   N	2182.894	666.250	-2261.207	N.am	6	ILE6	-0.416	
71	  CA	2184.208	665.954	-2261.773	C.3	6	ILE6	-0.060	
72	   C	2184.150	665.917	-2263.281	C.2	6	ILE6	0.597	
73	   O	2184.985	666.504	-2263.985	O.2	6	ILE6	-0.568	
74	  CB	2184.807	664.618	-2261.173	C.3	6	ILE6	0.130	
75	 CG1	2184.825	664.555	-2259.612	C.3	6	ILE6	-0.043	
76	 CG2	2186.248	664.315	-2261.688	C.3	6	ILE6	-0.320	
77	 CD1	2185.095	663.166	-2258.997	C.3	6	ILE6	-0.066	
78	   H	2182.465	665.615	-2260.549	 H	6	ILE6	0.272	
79	  HA	2184.882	666.788	-2261.505	 H	6	ILE6	0.087	
80	  HB	2184.148	663.792	-2261.517	 H	6	ILE6	0.019	
81	2HG1	2183.844	664.876	-2259.216	 H	6	ILE6	0.024	
82	3HG1	2185.542	665.297	-2259.207	 H	6	ILE6	0.024	
83	1HG2	2186.307	664.222	-2262.786	 H	6	ILE6	0.088	
84	2HG2	2186.970	665.098	-2261.385	 H	6	ILE6	0.088	
85	3HG2	2186.637	663.353	-2261.309	 H	6	ILE6	0.088	
86	1HD1	2184.366	662.412	-2259.352	 H	6	ILE6	0.019	
87	2HD1	2186.105	662.787	-2259.232	 H	6	ILE6	0.019	
88	3HD1	2185.018	663.196	-2257.894	 H	6	ILE6	0.019	
89	   N	2183.204	665.253	-2263.854	N.am	7	LEU7	-0.416	
90	  CA	2183.149	665.217	-2265.313	C.3	7	LEU7	-0.052	
91	   C	2183.077	666.612	-2265.886	C.2	7	LEU7	0.597	
92	   O	2183.798	666.974	-2266.828	O.2	7	LEU7	-0.568	
93	  CB	2181.946	664.357	-2265.793	C.3	7	LEU7	-0.110	
94	  CG	2181.873	662.878	-2265.327	C.3	7	LEU7	0.353	
95	 CD1	2180.683	662.173	-2265.992	C.3	7	LEU7	-0.412	
96	 CD2	2183.166	662.098	-2265.618	C.3	7	LEU7	-0.412	
97	   H	2182.512	664.767	-2263.303	 H	7	LEU7	0.272	
98	  HA	2184.091	664.777	-2265.688	 H	7	LEU7	0.092	
99	 2HB	2181.923	664.373	-2266.901	 H	7	LEU7	0.046	
100	 3HB	2181.006	664.860	-2265.490	 H	7	LEU7	0.046	
101	  HG	2181.703	662.870	-2264.230	 H	7	LEU7	-0.036	
102	1HD1	2179.726	662.682	-2265.770	 H	7	LEU7	0.100	
103	2HD1	2180.782	662.132	-2267.094	 H	7	LEU7	0.100	
104	3HD1	2180.575	661.131	-2265.636	 H	7	LEU7	0.100	
105	1HD2	2183.441	662.129	-2266.688	 H	7	LEU7	0.100	
106	2HD2	2184.020	662.510	-2265.047	 H	7	LEU7	0.100	
107	3HD2	2183.084	661.036	-2265.322	 H	7	LEU7	0.100	
108	   N	2182.240	667.454	-2265.380	N.am	8	ASP8	-0.516	
109	  CA	2182.171	668.803	-2265.934	C.3	8	ASP8	0.038	
110	   C	2183.518	669.482	-2265.877	C.2	8	ASP8	0.537	
111	   O	2183.991	670.086	-2266.853	O.2	8	ASP8	-0.582	
112	  CB	2181.093	669.643	-2265.193	C.3	8	ASP8	-0.030	
113	  CG	2180.875	671.064	-2265.734	C.2	8	ASP8	0.799	
114	 OD1	2180.939	671.262	-2266.965	O.co2	8	ASP8	-0.801	
115	 OD2	2180.684	671.990	-2264.920	O.co2	8	ASP8	-0.801	
116	   H	2181.643	667.183	-2264.612	 H	8	ASP8	0.294	
117	  HA	2181.888	668.725	-2267.001	 H	8	ASP8	0.088	
118	 2HB	2181.350	669.727	-2264.121	 H	8	ASP8	-0.012	
119	 3HB	2180.114	669.138	-2265.226	 H	8	ASP8	-0.012	
120	   N	2184.198	669.433	-2264.782	N.am	9	GLU9	-0.516	
121	  CA	2185.501	670.090	-2264.728	C.3	9	GLU9	0.040	
122	   C	2186.418	669.561	-2265.803	C.2	9	GLU9	0.537	
123	   O	2187.082	670.315	-2266.530	O.2	9	GLU9	-0.582	
124	  CB	2186.135	669.882	-2263.322	C.3	9	GLU9	0.056	
125	  CG	2187.518	670.574	-2263.094	C.3	9	GLU9	0.014	
126	  CD	2188.219	670.361	-2261.765	C.2	9	GLU9	0.805	
127	 OE1	2187.698	669.671	-2260.868	O.co2	9	GLU9	-0.819	
128	 OE2	2189.339	670.898	-2261.634	O.co2	9	GLU9	-0.819	
129	   H	2183.834	668.947	-2263.975	 H	9	GLU9	0.294	
130	  HA	2185.359	671.171	-2264.903	 H	9	GLU9	0.111	
131	 2HB	2186.247	668.798	-2263.118	 H	9	GLU9	-0.017	
132	 3HB	2185.438	670.236	-2262.538	 H	9	GLU9	-0.017	
133	 2HG	2187.446	671.665	-2263.234	 H	9	GLU9	-0.043	
134	 3HG	2188.264	670.228	-2263.827	 H	9	GLU9	-0.043	
135	   N	2186.514	668.286	-2265.972	N.am	10	HIS10	-0.416	
136	  CA	2187.402	667.773	-2267.013	C.3	10	HIS10	-0.058	
137	   C	2187.035	668.337	-2268.364	C.2	10	HIS10	0.597	
138	   O	2187.887	668.801	-2269.136	O.2	10	HIS10	-0.568	
139	  CB	2187.237	666.244	-2267.007	C.3	10	HIS10	-0.007	
140	  CG	2188.522	665.534	-2266.699	C.2	10	HIS10	0.187	
141	 CD2	2188.904	665.199	-2265.406	C.2	10	HIS10	-0.221	
142	 ND1	2189.474	665.127	-2267.632	N.2	10	HIS10	-0.543	
143	 CE1	2190.380	664.569	-2266.808	C.2	10	HIS10	0.163	
144	 NE2	2190.118	664.567	-2265.473	N.pl3	10	HIS10	-0.280	
145	   H	2185.984	667.651	-2265.393	 H	10	HIS10	0.272	
146	  HA	2188.421	668.130	-2266.788	 H	10	HIS10	0.136	
147	 2HB	2186.871	665.877	-2267.987	 H	10	HIS10	0.037	
148	 3HB	2186.481	665.908	-2266.266	 H	10	HIS10	0.037	
149	 2HD	2188.319	665.415	-2264.517	 H	10	HIS10	0.186	
150	 1HE	2191.271	664.147	-2267.256	 H	10	HIS10	0.144	
151	 2HE	2190.685	664.190	-2264.700	 H	10	HIS10	0.334	
152	   N	2185.797	668.337	-2268.727	N.am	11	VAL11	-0.416	
153	  CA	2185.442	668.882	-2270.034	C.3	11	VAL11	-0.087	
154	   C	2185.907	670.313	-2270.167	C.2	11	VAL11	0.597	
155	   O	2186.508	670.717	-2271.170	O.2	11	VAL11	-0.568	
156	  CB	2183.880	668.776	-2270.253	C.3	11	VAL11	0.299	
157	 CG1	2183.312	669.480	-2271.516	C.3	11	VAL11	-0.319	
158	 CG2	2183.355	667.323	-2270.325	C.3	11	VAL11	-0.319	
159	   H	2185.084	667.965	-2268.116	 H	11	VAL11	0.272	
160	  HA	2185.961	668.299	-2270.816	 H	11	VAL11	0.097	
161	  HB	2183.393	669.258	-2269.378	 H	11	VAL11	-0.030	
162	1HG1	2183.750	669.087	-2272.453	 H	11	VAL11	0.079	
163	2HG1	2182.213	669.373	-2271.598	 H	11	VAL11	0.079	
164	3HG1	2183.491	670.572	-2271.507	 H	11	VAL11	0.079	
165	1HG2	2183.645	666.736	-2269.434	 H	11	VAL11	0.079	
166	2HG2	2182.249	667.286	-2270.368	 H	11	VAL11	0.079	
167	3HG2	2183.737	666.781	-2271.211	 H	11	VAL11	0.079	
168	   N	2185.671	671.139	-2269.205	N.am	12	GLN12	-0.416	
169	  CA	2186.120	672.522	-2269.333	C.3	12	GLN12	-0.003	
170	   C	2187.610	672.588	-2269.571	C.2	12	GLN12	0.597	
171	   O	2188.097	673.296	-2270.450	O.2	12	GLN12	-0.568	
172	  CB	2185.729	673.290	-2268.051	C.3	12	GLN12	-0.004	
173	  CG	2186.091	674.812	-2268.021	C.3	12	GLN12	-0.064	
174	  CD	2185.789	675.626	-2266.756	C.2	12	GLN12	0.695	
175	 NE2	2185.222	675.050	-2265.727	N.pl3	12	GLN12	-0.941	
176	 OE1	2186.092	676.807	-2266.679	O.2	12	GLN12	-0.609	
177	   H	2185.182	670.833	-2268.376	 H	12	GLN12	0.272	
178	  HA	2185.620	672.978	-2270.208	 H	12	GLN12	0.085	
179	 2HB	2186.206	672.790	-2267.181	 H	12	GLN12	0.017	
180	 3HB	2184.639	673.183	-2267.887	 H	12	GLN12	0.017	
181	 2HG	2185.614	675.332	-2268.871	 H	12	GLN12	0.035	
182	 3HG	2187.174	674.953	-2268.187	 H	12	GLN12	0.035	
183	1HE2	2185.116	675.645	-2264.904	 H	12	GLN12	0.425	
184	2HE2	2185.058	674.047	-2265.830	 H	12	GLN12	0.425	
185	   N	2188.394	671.881	-2268.830	N.am	13	ARG13	-0.348	
186	  CA	2189.834	671.946	-2269.061	C.3	13	ARG13	-0.264	
187	   C	2190.170	671.574	-2270.486	C.2	13	ARG13	0.734	
188	   O	2190.939	672.245	-2271.171	O.2	13	ARG13	-0.589	
189	  CB	2190.548	671.008	-2268.047	C.3	13	ARG13	-0.001	
190	  CG	2192.093	671.161	-2267.967	C.3	13	ARG13	0.039	
191	  CD	2192.720	670.174	-2266.968	C.3	13	ARG13	0.049	
192	  NE	2194.197	670.380	-2266.918	N.pl3	13	ARG13	-0.530	
193	  CZ	2195.045	669.689	-2266.163	C.cat	13	ARG13	0.808	
194	 NH1	2194.680	668.726	-2265.365	N.pl3	13	ARG13	-0.863	
195	 NH2	2196.305	669.988	-2266.220	N.pl3	13	ARG13	-0.863	
196	   H	2188.018	671.292	-2268.101	 H	13	ARG13	0.275	
197	  HA	2190.159	672.992	-2268.904	 H	13	ARG13	0.156	
198	 2HB	2190.281	669.958	-2268.285	 H	13	ARG13	0.033	
199	 3HB	2190.123	671.176	-2267.036	 H	13	ARG13	0.033	
200	 2HG	2192.341	672.206	-2267.688	 H	13	ARG13	0.029	
201	 3HG	2192.543	671.004	-2268.968	 H	13	ARG13	0.029	
202	 2HD	2192.475	669.133	-2267.276	 H	13	ARG13	0.069	
203	 3HD	2192.264	670.320	-2265.966	 H	13	ARG13	0.069	
204	  HE	2194.648	671.102	-2267.490	 H	13	ARG13	0.346	
205	1HH1	2193.675	668.540	-2265.367	 H	13	ARG13	0.448	
206	2HH1	2195.393	668.243	-2264.816	 H	13	ARG13	0.448	
207	1HH2	2196.573	670.745	-2266.852	 H	13	ARG13	0.448	
208	2HH2	2196.940	669.447	-2265.632	 H	13	ARG13	0.448	
209	   N	2189.634	670.519	-2271.000	N.am	14	PRO14	-0.255	
210	  CA	2189.903	670.090	-2272.364	C.3	14	PRO14	-0.027	
211	   C	2189.264	671.038	-2273.393	C.2	14	PRO14	0.590	
212	   O	2189.915	671.444	-2274.356	O.2	14	PRO14	-0.575	
213	  CB	2189.287	668.683	-2272.380	C.3	14	PRO14	-0.007	
214	  CG	2188.142	668.777	-2271.361	C.3	14	PRO14	0.019	
215	  CD	2188.719	669.675	-2270.263	C.3	14	PRO14	0.019	
216	  HA	2190.979	670.047	-2272.547	 H	14	PRO14	0.064	
217	 2HB	2190.029	667.966	-2272.021	 H	14	PRO14	0.025	
218	 3HB	2188.947	668.378	-2273.373	 H	14	PRO14	0.025	
219	 2HG	2187.840	667.799	-2270.977	 H	14	PRO14	0.021	
220	 3HG	2187.283	669.270	-2271.820	 H	14	PRO14	0.021	
221	 2HD	2189.275	669.087	-2269.530	 H	14	PRO14	0.039	
222	 3HD	2187.947	670.268	-2269.767	 H	14	PRO14	0.039	
223	   N	2188.037	671.409	-2273.246	N.am	15	MET15	-0.416	
224	  CA	2187.447	672.309	-2274.233	C.3	15	MET15	-0.024	
225	   C	2188.247	673.583	-2274.352	C.2	15	MET15	0.597	
226	   O	2188.568	674.056	-2275.453	O.2	15	MET15	-0.568	
227	  CB	2185.972	672.614	-2273.852	C.3	15	MET15	0.034	
228	  CG	2185.015	671.402	-2273.834	C.3	15	MET15	0.002	
229	  SD	2183.315	671.969	-2273.664	S.3	15	MET15	-0.274	
230	  CE	2182.545	670.390	-2273.284	C.3	15	MET15	-0.054	
231	   H	2187.493	671.082	-2272.461	 H	15	MET15	0.272	
232	  HA	2187.474	671.815	-2275.222	 H	15	MET15	0.088	
233	 2HB	2185.558	673.359	-2274.558	 H	15	MET15	0.024	
234	 3HB	2185.934	673.111	-2272.861	 H	15	MET15	0.024	
235	 2HG	2185.265	670.735	-2272.988	 H	15	MET15	0.044	
236	 3HG	2185.108	670.797	-2274.754	 H	15	MET15	0.044	
237	 1HE	2182.759	669.645	-2274.072	 H	15	MET15	0.068	
238	 2HE	2182.923	669.998	-2272.323	 H	15	MET15	0.068	
239	 3HE	2181.450	670.503	-2273.202	 H	15	MET15	0.068	
240	   N	2188.608	674.198	-2273.277	N.am	16	ARG16	-0.348	
241	  CA	2189.383	675.430	-2273.394	C.3	16	ARG16	-0.264	
242	   C	2190.651	675.198	-2274.180	C.2	16	ARG16	0.734	
243	   O	2190.930	674.101	-2274.657	O.2	16	ARG16	-0.589	
244	  CB	2189.690	675.966	-2271.966	C.3	16	ARG16	-0.001	
245	  CG	2190.267	677.408	-2271.903	C.3	16	ARG16	0.039	
246	  CD	2190.575	677.844	-2270.461	C.3	16	ARG16	0.049	
247	  NE	2191.104	679.240	-2270.461	N.pl3	16	ARG16	-0.530	
248	  CZ	2191.477	679.921	-2269.381	C.cat	16	ARG16	0.808	
249	 NH1	2191.429	679.438	-2268.172	N.pl3	16	ARG16	-0.863	
250	 NH2	2191.912	681.131	-2269.537	N.pl3	16	ARG16	-0.863	
251	   H	2188.359	673.833	-2272.369	 H	16	ARG16	0.275	
252	  HA	2188.773	676.166	-2273.951	 H	16	ARG16	0.156	
253	 2HB	2190.380	675.258	-2271.461	 H	16	ARG16	0.033	
254	 3HB	2188.765	675.928	-2271.357	 H	16	ARG16	0.033	
255	 2HG	2189.548	678.109	-2272.375	 H	16	ARG16	0.029	
256	 3HG	2191.192	677.475	-2272.511	 H	16	ARG16	0.029	
257	 2HD	2191.311	677.141	-2270.013	 H	16	ARG16	0.069	
258	 3HD	2189.653	677.769	-2269.845	 H	16	ARG16	0.069	
259	  HE	2191.207	679.765	-2271.335	 H	16	ARG16	0.346	
260	1HH1	2191.078	678.479	-2268.118	 H	16	ARG16	0.448	
261	2HH1	2191.733	680.026	-2267.394	 H	16	ARG16	0.448	
262	1HH2	2191.943	681.492	-2270.492	 H	16	ARG16	0.448	
263	2HH2	2192.192	681.639	-2268.696	 H	16	ARG16	0.448	
@<TRIPOS>BOND
1 1 2 1
2 1 10 1
3 2 3 1
4 2 5 1
5 2 11 1
6 3 4 2
7 3 16 1
8 5 6 1
9 6 7 1
10 7 8 2
11 7 9 1
12 5 12 1
13 5 13 1
14 6 14 1
15 6 15 1
16 16 17 1
17 16 24 1
18 17 18 1
19 17 20 1
20 17 25 1
21 18 19 2
22 18 30 1
23 20 21 1
24 21 22 1
25 21 23 2
26 20 26 1
27 20 27 1
28 22 28 1
29 22 29 1
30 30 31 1
31 30 36 1
32 31 32 1
33 31 34 1
34 31 37 1
35 32 33 2
36 32 44 1
37 34 35 1
38 35 36 1
39 34 38 1
40 34 39 1
41 35 40 1
42 35 41 1
43 36 42 1
44 36 43 1
45 44 45 1
46 44 53 1
47 45 46 1
48 45 48 1
49 45 54 1
50 46 47 2
51 46 59 1
52 48 49 1
53 49 50 1
54 50 51 2
55 50 52 1
56 48 55 1
57 48 56 1
58 49 57 1
59 49 58 1
60 59 60 1
61 59 65 1
62 60 61 1
63 60 63 1
64 60 66 1
65 61 62 2
66 61 70 1
67 63 64 1
68 63 67 1
69 63 68 1
70 64 69 1
71 70 71 1
72 70 78 1
73 71 72 1
74 71 74 1
75 71 79 1
76 72 73 2
77 72 89 1
78 74 75 1
79 74 76 1
80 75 77 1
81 74 80 1
82 75 81 1
83 75 82 1
84 76 83 1
85 76 84 1
86 76 85 1
87 77 86 1
88 77 87 1
89 77 88 1
90 89 90 1
91 89 97 1
92 90 91 1
93 90 93 1
94 90 98 1
95 91 92 2
96 91 108 1
97 93 94 1
98 94 95 1
99 94 96 1
100 93 99 1
101 93 100 1
102 94 101 1
103 95 102 1
104 95 103 1
105 95 104 1
106 96 105 1
107 96 106 1
108 96 107 1
109 108 109 1
110 108 116 1
111 109 110 1
112 109 112 1
113 109 117 1
114 110 111 2
115 110 120 1
116 112 113 1
117 113 114 2
118 113 115 1
119 112 118 1
120 112 119 1
121 120 121 1
122 120 129 1
123 121 122 1
124 121 124 1
125 121 130 1
126 122 123 2
127 122 135 1
128 124 125 1
129 125 126 1
130 126 127 2
131 126 128 1
132 124 131 1
133 124 132 1
134 125 133 1
135 125 134 1
136 135 136 1
137 135 145 1
138 136 137 1
139 136 139 1
140 136 146 1
141 137 138 2
142 137 152 1
143 139 140 1
144 140 141 2
145 141 144 1
146 140 142 1
147 142 143 2
148 143 144 1
149 139 147 1
150 139 148 1
151 141 149 1
152 143 150 1
153 144 151 1
154 152 153 1
155 152 159 1
156 153 154 1
157 153 156 1
158 153 160 1
159 154 155 2
160 154 168 1
161 156 157 1
162 156 158 1
163 156 161 1
164 157 162 1
165 157 163 1
166 157 164 1
167 158 165 1
168 158 166 1
169 158 167 1
170 168 169 1
171 168 177 1
172 169 170 1
173 169 172 1
174 169 178 1
175 170 171 2
176 170 185 1
177 172 173 1
178 173 174 1
179 174 175 1
180 174 176 2
181 172 179 1
182 172 180 1
183 173 181 1
184 173 182 1
185 175 183 1
186 175 184 1
187 185 186 1
188 185 196 1
189 186 187 1
190 186 189 1
191 186 197 1
192 187 188 2
193 187 209 1
194 189 190 1
195 190 191 1
196 191 192 1
197 192 193 1
198 193 194 2
199 193 195 1
200 189 198 1
201 189 199 1
202 190 200 1
203 190 201 1
204 191 202 1
205 191 203 1
206 192 204 1
207 194 205 1
208 194 206 1
209 195 207 1
210 195 208 1
211 209 210 1
212 209 215 1
213 210 211 1
214 210 213 1
215 210 216 1
216 211 212 2
217 211 223 1
218 213 214 1
219 214 215 1
220 213 217 1
221 213 218 1
222 214 219 1
223 214 220 1
224 215 221 1
225 215 222 1
226 223 224 1
227 223 231 1
228 224 225 1
229 224 227 1
230 224 232 1
231 225 226 2
232 225 240 1
233 227 228 1
234 228 229 1
235 229 230 1
236 227 233 1
237 227 234 1
238 228 235 1
239 228 236 1
240 230 237 1
241 230 238 1
242 230 239 1
243 240 241 1
244 240 251 1
245 241 242 1
246 241 244 1
247 241 252 1
248 242 243 2
249 244 245 1
250 245 246 1
251 246 247 1
252 247 248 1
253 248 249 2
254 248 250 1
255 244 253 1
256 244 254 1
257 245 255 1
258 245 256 1
259 246 257 1
260 246 258 1
261 247 259 1
262 249 260 1
263 249 261 1
264 250 262 1
265 250 263 1
@<TRIPOS>SUBSTRUCTURE
1	GLU1	1	RESIDUE	1 ****	GLU
2	ASN2	16	RESIDUE	1 ****	ASN
3	PRO3	30	RESIDUE	1 ****	PRO
4	GLU4	44	RESIDUE	1 ****	GLU
5	SER5	59	RESIDUE	1 ****	SER
6	ILE6	70	RESIDUE	1 ****	ILE
7	LEU7	89	RESIDUE	1 ****	LEU
8	ASP8	108	RESIDUE	1 ****	ASP
9	GLU9	120	RESIDUE	1 ****	GLU
10	HIS10	135	RESIDUE	1 ****	HIS
11	VAL11	152	RESIDUE	1 ****	VAL
12	GLN12	168	RESIDUE	1 ****	GLN
13	ARG13	185	RESIDUE	1 ****	ARG
14	PRO14	209	RESIDUE	1 ****	PRO
15	MET15	223	RESIDUE	1 ****	MET
16	ARG16	240	RESIDUE	1 ****	ARG
