@<TRIPOS>MOLECULE
1-6
269 270 16              
SMALL
USER_CHARGES
@<TRIPOS>ATOM
1	   N	44.191	6.550	-25.209	N.3	1	ILE1	-0.416	
2	  CA	44.688	7.923	-25.209	C.3	1	ILE1	-0.060	
3	   C	46.197	7.952	-25.209	C.2	1	ILE1	0.597	
4	   O	46.840	8.682	-25.978	O.2	1	ILE1	-0.568	
5	  CB	44.083	8.755	-24.006	C.3	1	ILE1	0.130	
6	 CG1	42.525	8.707	-23.899	C.3	1	ILE1	-0.043	
7	 CG2	44.522	10.252	-24.024	C.3	1	ILE1	-0.320	
8	 CD1	41.925	9.227	-22.576	C.3	1	ILE1	-0.066	
9	   H	44.857	5.700	-25.209	 H	1	ILE1	0.272	
10	  HA	44.365	8.395	-26.155	 H	1	ILE1	0.087	
11	  HB	44.481	8.301	-23.074	 H	1	ILE1	0.019	
12	2HG1	42.179	7.661	-23.997	 H	1	ILE1	0.024	
13	3HG1	42.065	9.232	-24.759	 H	1	ILE1	0.024	
14	1HG2	45.617	10.385	-23.980	 H	1	ILE1	0.088	
15	2HG2	44.163	10.780	-24.928	 H	1	ILE1	0.088	
16	3HG2	44.142	10.813	-23.151	 H	1	ILE1	0.088	
17	1HD1	42.336	8.690	-21.700	 H	1	ILE1	0.019	
18	2HD1	42.111	10.305	-22.421	 H	1	ILE1	0.019	
19	3HD1	40.828	9.090	-22.554	 H	1	ILE1	0.019	
20	   N	46.837	7.195	-24.384	N.am	2	ASN2	-0.416	
21	  CA	48.296	7.223	-24.384	C.3	2	ASN2	0.014	
22	   C	48.843	6.893	-25.753	C.2	2	ASN2	0.597	
23	   O	49.728	7.565	-26.282	O.2	2	ASN2	-0.568	
24	  CB	48.835	6.224	-23.320	C.3	2	ASN2	-0.204	
25	  CG	48.363	6.426	-21.876	C.2	2	ASN2	0.713	
26	 ND2	48.914	7.368	-21.158	N.pl3	2	ASN2	-0.919	
27	 OD1	47.472	5.751	-21.382	O.2	2	ASN2	-0.593	
28	   H	46.336	6.592	-23.747	 H	2	ASN2	0.272	
29	  HA	48.627	8.250	-24.139	 H	2	ASN2	0.105	
30	 2HB	49.941	6.216	-23.324	 H	2	ASN2	0.080	
31	 3HB	48.553	5.192	-23.606	 H	2	ASN2	0.080	
32	1HD2	48.426	7.518	-20.272	 H	2	ASN2	0.420	
33	2HD2	49.589	7.971	-21.628	 H	2	ASN2	0.420	
34	   N	48.368	5.875	-26.387	N.am	3	PRO3	-0.255	
35	  CA	48.838	5.487	-27.708	C.3	3	PRO3	-0.027	
36	   C	48.392	6.491	-28.785	C.2	3	PRO3	0.590	
37	   O	49.197	6.911	-29.617	O.2	3	PRO3	-0.575	
38	  CB	48.196	4.101	-27.878	C.3	3	PRO3	-0.007	
39	  CG	46.908	4.194	-27.047	C.3	3	PRO3	0.019	
40	  CD	47.327	5.033	-25.837	C.3	3	PRO3	0.019	
41	  HA	49.928	5.417	-27.722	 H	3	PRO3	0.064	
42	 2HB	48.855	3.349	-27.437	 H	3	PRO3	0.025	
43	 3HB	48.010	3.844	-28.923	 H	3	PRO3	0.025	
44	 2HG	46.525	3.213	-26.756	 H	3	PRO3	0.021	
45	 3HG	46.144	4.730	-27.614	 H	3	PRO3	0.021	
46	 2HD	47.746	4.402	-25.050	 H	3	PRO3	0.039	
47	 3HD	46.503	5.631	-25.444	 H	3	PRO3	0.039	
48	   N	47.168	6.895	-28.817	N.am	4	GLU4	-0.516	
49	  CA	46.764	7.848	-29.847	C.3	4	GLU4	0.040	
50	   C	47.606	9.099	-29.786	C.2	4	GLU4	0.537	
51	   O	48.109	9.603	-30.800	O.2	4	GLU4	-0.582	
52	  CB	45.257	8.198	-29.676	C.3	4	GLU4	0.056	
53	  CG	44.663	9.175	-30.742	C.3	4	GLU4	0.014	
54	  CD	43.215	9.606	-30.598	C.2	4	GLU4	0.805	
55	 OE1	42.509	9.174	-29.666	O.co2	4	GLU4	-0.819	
56	 OE2	42.788	10.416	-31.446	O.co2	4	GLU4	-0.819	
57	   H	46.499	6.557	-28.140	 H	4	GLU4	0.294	
58	  HA	46.916	7.384	-30.838	 H	4	GLU4	0.111	
59	 2HB	45.085	8.630	-28.669	 H	4	GLU4	-0.017	
60	 3HB	44.652	7.271	-29.682	 H	4	GLU4	-0.017	
61	 2HG	44.764	8.764	-31.759	 H	4	GLU4	-0.043	
62	 3HG	45.208	10.133	-30.753	 H	4	GLU4	-0.043	
63	   N	47.808	9.662	-28.643	N.am	5	SER5	-0.416	
64	  CA	48.622	10.872	-28.584	C.3	5	SER5	-0.025	
65	   C	49.994	10.629	-29.170	C.2	5	SER5	0.597	
66	   O	50.505	11.407	-29.975	O.2	5	SER5	-0.568	
67	  CB	48.710	11.409	-27.134	C.3	5	SER5	0.212	
68	  OG	49.481	10.564	-26.273	O.3	5	SER5	-0.655	
69	   H	47.409	9.271	-27.801	 H	5	SER5	0.272	
70	  HA	48.137	11.641	-29.213	 H	5	SER5	0.084	
71	 2HB	47.702	11.556	-26.700	 H	5	SER5	0.035	
72	 3HB	49.169	12.417	-27.136	 H	5	SER5	0.035	
73	  HG	49.031	9.718	-26.222	 H	5	SER5	0.428	
74	   N	50.648	9.575	-28.816	N.am	6	ILE6	-0.416	
75	  CA	51.973	9.342	-29.383	C.3	6	ILE6	-0.060	
76	   C	51.917	9.301	-30.891	C.2	6	ILE6	0.597	
77	   O	52.724	9.927	-31.595	O.2	6	ILE6	-0.568	
78	  CB	52.634	8.034	-28.783	C.3	6	ILE6	0.130	
79	 CG1	52.657	7.973	-27.222	C.3	6	ILE6	-0.043	
80	 CG2	54.088	7.799	-29.299	C.3	6	ILE6	-0.320	
81	 CD1	52.991	6.598	-26.607	C.3	6	ILE6	-0.066	
82	   H	50.249	8.922	-28.157	 H	6	ILE6	0.272	
83	  HA	52.608	10.206	-29.116	 H	6	ILE6	0.087	
84	  HB	52.015	7.179	-29.127	 H	6	ILE6	0.019	
85	2HG1	51.661	8.247	-26.826	 H	6	ILE6	0.024	
86	3HG1	53.338	8.748	-26.818	 H	6	ILE6	0.024	
87	1HG2	54.150	7.709	-30.397	 H	6	ILE6	0.088	
88	2HG2	54.773	8.614	-28.997	 H	6	ILE6	0.088	
89	3HG2	54.522	6.856	-28.920	 H	6	ILE6	0.088	
90	1HD1	52.298	5.811	-26.962	 H	6	ILE6	0.019	
91	2HD1	54.018	6.266	-26.843	 H	6	ILE6	0.019	
92	3HD1	52.913	6.624	-25.505	 H	6	ILE6	0.019	
93	   N	51.003	8.595	-31.464	N.am	7	LEU7	-0.416	
94	  CA	50.949	8.556	-32.923	C.3	7	LEU7	-0.052	
95	   C	50.812	9.947	-33.495	C.2	7	LEU7	0.597	
96	   O	51.515	10.342	-34.437	O.2	7	LEU7	-0.568	
97	  CB	49.787	7.641	-33.403	C.3	7	LEU7	-0.110	
98	  CG	49.783	6.160	-32.936	C.3	7	LEU7	0.353	
99	 CD1	48.627	5.400	-33.602	C.3	7	LEU7	-0.412	
100	 CD2	51.111	5.442	-33.228	C.3	7	LEU7	-0.412	
101	   H	50.334	8.076	-30.913	 H	7	LEU7	0.272	
102	  HA	51.910	8.160	-33.297	 H	7	LEU7	0.092	
103	 2HB	49.763	7.656	-34.510	 H	7	LEU7	0.046	
104	 3HB	48.825	8.100	-33.098	 H	7	LEU7	0.046	
105	  HG	49.614	6.144	-31.839	 H	7	LEU7	-0.036	
106	1HD1	47.647	5.865	-33.379	 H	7	LEU7	0.100	
107	2HD1	48.727	5.364	-34.703	 H	7	LEU7	0.100	
108	3HD1	48.568	4.355	-33.245	 H	7	LEU7	0.100	
109	1HD2	51.384	5.485	-34.298	 H	7	LEU7	0.100	
110	2HD2	51.944	5.892	-32.657	 H	7	LEU7	0.100	
111	3HD2	51.079	4.377	-32.932	 H	7	LEU7	0.100	
112	   N	49.937	10.748	-32.989	N.am	8	ASP8	-0.516	
113	  CA	49.805	12.093	-33.542	C.3	8	ASP8	0.038	
114	   C	51.118	12.834	-33.485	C.2	8	ASP8	0.537	
115	   O	51.562	13.460	-34.460	O.2	8	ASP8	-0.582	
116	  CB	48.689	12.881	-32.800	C.3	8	ASP8	-0.030	
117	  CG	48.405	14.290	-33.340	C.2	8	ASP8	0.799	
118	 OD1	48.459	14.492	-34.571	O.co2	8	ASP8	-0.801	
119	 OD2	48.170	15.206	-32.524	O.co2	8	ASP8	-0.801	
120	   H	49.353	10.449	-32.221	 H	8	ASP8	0.294	
121	  HA	49.525	12.002	-34.609	 H	8	ASP8	0.088	
122	 2HB	48.943	12.976	-31.728	 H	8	ASP8	-0.012	
123	 3HB	47.734	12.331	-32.832	 H	8	ASP8	-0.012	
124	   N	51.800	12.816	-32.390	N.am	9	GLU9	-0.516	
125	  CA	53.071	13.533	-32.335	C.3	9	GLU9	0.040	
126	   C	54.012	13.048	-33.411	C.2	9	GLU9	0.537	
127	   O	54.640	13.832	-34.136	O.2	9	GLU9	-0.582	
128	  CB	53.714	13.354	-30.929	C.3	9	GLU9	0.056	
129	  CG	55.063	14.110	-30.700	C.3	9	GLU9	0.014	
130	  CD	55.774	13.929	-29.372	C.2	9	GLU9	0.805	
131	 OE1	55.285	13.215	-28.476	O.co2	9	GLU9	-0.819	
132	 OE2	56.867	14.518	-29.241	O.co2	9	GLU9	-0.819	
133	   H	51.460	12.313	-31.583	 H	9	GLU9	0.294	
134	  HA	52.879	14.607	-32.510	 H	9	GLU9	0.111	
135	 2HB	53.877	12.276	-30.726	 H	9	GLU9	-0.017	
136	 3HB	53.001	13.675	-30.145	 H	9	GLU9	-0.017	
137	 2HG	54.941	15.196	-30.840	 H	9	GLU9	-0.043	
138	 3HG	55.825	13.800	-31.435	 H	9	GLU9	-0.043	
139	   N	54.167	11.779	-33.581	N.am	10	HIS10	-0.416	
140	  CA	55.078	11.309	-34.621	C.3	10	HIS10	-0.058	
141	   C	54.685	11.856	-35.972	C.2	10	HIS10	0.597	
142	   O	55.515	12.360	-36.744	O.2	10	HIS10	-0.568	
143	  CB	54.985	9.774	-34.616	C.3	10	HIS10	-0.007	
144	  CG	56.302	9.124	-34.309	C.2	10	HIS10	0.187	
145	 CD2	56.698	8.807	-33.016	C.2	10	HIS10	-0.221	
146	 ND1	57.272	8.763	-35.242	N.2	10	HIS10	-0.543	
147	 CE1	58.203	8.247	-34.419	C.2	10	HIS10	0.163	
148	 NE2	57.941	8.232	-33.083	N.pl3	10	HIS10	-0.280	
149	   H	53.667	11.119	-33.002	 H	10	HIS10	0.272	
150	  HA	56.079	11.713	-34.396	 H	10	HIS10	0.136	
151	 2HB	54.637	9.391	-35.596	 H	10	HIS10	0.037	
152	 3HB	54.246	9.402	-33.876	 H	10	HIS10	0.037	
153	 2HD	56.104	8.994	-32.127	 H	10	HIS10	0.186	
154	 1HE	59.112	7.868	-34.866	 H	10	HIS10	0.144	
155	 2HE	58.525	7.881	-32.310	 H	10	HIS10	0.334	
156	   N	53.448	11.798	-36.335	N.am	11	VAL11	-0.416	
157	  CA	53.068	12.327	-37.642	C.3	11	VAL11	-0.087	
158	   C	53.466	13.778	-37.774	C.2	11	VAL11	0.597	
159	   O	54.047	14.210	-38.777	O.2	11	VAL11	-0.568	
160	  CB	51.513	12.148	-37.861	C.3	11	VAL11	0.299	
161	 CG1	50.912	12.825	-39.123	C.3	11	VAL11	-0.319	
162	 CG2	51.057	10.671	-37.934	C.3	11	VAL11	-0.319	
163	   H	52.754	11.392	-35.724	 H	11	VAL11	0.272	
164	  HA	53.614	11.770	-38.424	 H	11	VAL11	0.097	
165	  HB	51.004	12.605	-36.985	 H	11	VAL11	-0.030	
166	1HG1	51.369	12.454	-40.060	 H	11	VAL11	0.079	
167	2HG1	49.820	12.667	-39.205	 H	11	VAL11	0.079	
168	3HG1	51.040	13.925	-39.114	 H	11	VAL11	0.079	
169	1HG2	51.374	10.098	-37.043	 H	11	VAL11	0.079	
170	2HG2	49.954	10.583	-37.976	 H	11	VAL11	0.079	
171	3HG2	51.463	10.149	-38.821	 H	11	VAL11	0.079	
172	   N	53.191	14.591	-36.811	N.am	12	GLN12	-0.416	
173	  CA	53.575	15.994	-36.938	C.3	12	GLN12	-0.003	
174	   C	55.060	16.130	-37.177	C.2	12	GLN12	0.597	
175	   O	55.513	16.860	-38.055	O.2	12	GLN12	-0.568	
176	  CB	53.149	16.742	-35.655	C.3	12	GLN12	-0.004	
177	  CG	53.438	18.279	-35.624	C.3	12	GLN12	-0.064	
178	  CD	53.099	19.077	-34.359	C.2	12	GLN12	0.695	
179	 NE2	52.559	18.475	-33.330	N.pl3	12	GLN12	-0.941	
180	 OE1	53.346	20.271	-34.282	O.2	12	GLN12	-0.609	
181	   H	52.717	14.263	-35.982	 H	12	GLN12	0.272	
182	  HA	53.054	16.427	-37.813	 H	12	GLN12	0.085	
183	 2HB	53.648	16.264	-34.786	 H	12	GLN12	0.017	
184	 3HB	52.065	16.584	-35.492	 H	12	GLN12	0.017	
185	 2HG	52.937	18.777	-36.475	 H	12	GLN12	0.035	
186	 3HG	54.514	18.471	-35.790	 H	12	GLN12	0.035	
187	1HE2	52.425	19.064	-32.507	 H	12	GLN12	0.425	
188	2HE2	52.442	17.465	-33.434	 H	12	GLN12	0.425	
189	   N	55.877	15.460	-36.436	N.am	13	ARG13	-0.348	
190	  CA	57.312	15.593	-36.667	C.3	13	ARG13	-0.264	
191	   C	57.665	15.238	-38.092	C.2	13	ARG13	0.734	
192	   O	58.401	15.944	-38.776	O.2	13	ARG13	-0.589	
193	  CB	58.068	14.688	-35.653	C.3	13	ARG13	-0.001	
194	  CG	59.605	14.912	-35.573	C.3	13	ARG13	0.039	
195	  CD	60.277	13.955	-34.575	C.3	13	ARG13	0.049	
196	  NE	61.743	14.230	-34.525	N.pl3	13	ARG13	-0.530	
197	  CZ	62.622	13.578	-33.770	C.cat	13	ARG13	0.808	
198	 NH1	62.302	12.598	-32.973	N.pl3	13	ARG13	-0.863	
199	 NH2	63.867	13.935	-33.827	N.pl3	13	ARG13	-0.863	
200	   H	55.528	14.854	-35.708	 H	13	ARG13	0.275	
201	  HA	57.588	16.653	-36.508	 H	13	ARG13	0.156	
202	 2HB	57.851	13.626	-35.893	 H	13	ARG13	0.033	
203	 3HB	57.636	14.834	-34.643	 H	13	ARG13	0.033	
204	 2HG	59.804	15.967	-35.293	 H	13	ARG13	0.029	
205	 3HG	60.062	14.777	-36.574	 H	13	ARG13	0.029	
206	 2HD	60.081	12.904	-34.884	 H	13	ARG13	0.069	
207	 3HD	59.814	14.079	-33.572	 H	13	ARG13	0.069	
208	  HE	62.160	14.972	-35.096	 H	13	ARG13	0.346	
209	1HH1	61.307	12.365	-32.976	 H	13	ARG13	0.448	
210	2HH1	63.037	12.148	-32.424	 H	13	ARG13	0.448	
211	1HH2	64.099	14.705	-34.458	 H	13	ARG13	0.448	
212	2HH2	64.526	13.424	-33.239	 H	13	ARG13	0.448	
213	   N	57.178	14.159	-38.607	N.am	14	VAL14	-0.416	
214	  CA	57.519	13.816	-39.984	C.3	14	VAL14	-0.087	
215	   C	57.137	14.929	-40.930	C.2	14	VAL14	0.597	
216	   O	57.911	15.347	-41.799	O.2	14	VAL14	-0.568	
217	  CB	56.808	12.464	-40.391	C.3	14	VAL14	0.299	
218	 CG1	56.916	12.051	-41.885	C.3	14	VAL14	-0.319	
219	 CG2	57.298	11.233	-39.591	C.3	14	VAL14	-0.319	
220	   H	56.570	13.562	-38.065	 H	14	VAL14	0.272	
221	  HA	58.614	13.690	-40.059	 H	14	VAL14	0.097	
222	  HB	55.725	12.586	-40.175	 H	14	VAL14	-0.030	
223	1HG1	57.965	11.922	-42.214	 H	14	VAL14	0.079	
224	2HG1	56.387	11.102	-42.098	 H	14	VAL14	0.079	
225	3HG1	56.452	12.793	-42.563	 H	14	VAL14	0.079	
226	1HG2	57.204	11.388	-38.501	 H	14	VAL14	0.079	
227	2HG2	56.703	10.329	-39.823	 H	14	VAL14	0.079	
228	3HG2	58.358	10.992	-39.797	 H	14	VAL14	0.079	
229	   N	55.966	15.462	-40.827	N.am	15	MET15	-0.416	
230	  CA	55.595	16.539	-41.741	C.3	15	MET15	-0.024	
231	   C	56.573	17.685	-41.653	C.2	15	MET15	0.597	
232	   O	57.052	18.219	-42.666	O.2	15	MET15	-0.568	
233	  CB	54.150	17.018	-41.432	C.3	15	MET15	0.034	
234	  CG	53.035	15.967	-41.623	C.3	15	MET15	0.002	
235	  SD	51.423	16.759	-41.508	S.3	15	MET15	-0.274	
236	  CE	50.409	15.281	-41.372	C.3	15	MET15	-0.054	
237	   H	55.315	15.138	-40.126	 H	15	MET15	0.272	
238	  HA	55.639	16.153	-42.777	 H	15	MET15	0.088	
239	 2HB	53.907	17.886	-42.073	 H	15	MET15	0.024	
240	 3HB	54.097	17.408	-40.395	 H	15	MET15	0.024	
241	 2HG	53.115	15.184	-40.846	 H	15	MET15	0.044	
242	 3HG	53.122	15.455	-42.600	 H	15	MET15	0.044	
243	 1HE	50.585	14.600	-42.224	 H	15	MET15	0.068	
244	 2HE	50.644	14.738	-40.439	 H	15	MET15	0.068	
245	 3HE	49.338	15.547	-41.355	 H	15	MET15	0.068	
246	   N	56.922	18.122	-40.491	N.am	16	ARG16	-0.348	
247	  CA	57.869	19.231	-40.407	C.3	16	ARG16	-0.264	
248	   C	59.156	18.898	-41.124	C.2	16	ARG16	0.734	
249	   O	59.319	17.828	-41.705	O.2	16	ARG16	-0.589	
250	  CB	58.123	19.561	-38.909	C.3	16	ARG16	-0.001	
251	  CG	58.887	20.887	-38.636	C.3	16	ARG16	0.039	
252	  CD	59.127	21.117	-37.135	C.3	16	ARG16	0.049	
253	  NE	59.844	22.411	-36.934	N.pl3	16	ARG16	-0.530	
254	  CZ	60.213	22.911	-35.758	C.cat	16	ARG16	0.808	
255	 NH1	59.993	22.315	-34.620	N.pl3	16	ARG16	-0.863	
256	 NH2	60.825	24.053	-35.740	N.pl3	16	ARG16	-0.863	
257	   H	56.547	17.704	-39.652	 H	16	ARG16	0.275	
258	  HA	57.418	20.104	-40.917	 H	16	ARG16	0.156	
259	 2HB	58.660	18.709	-38.443	 H	16	ARG16	0.033	
260	 3HB	57.151	19.597	-38.375	 H	16	ARG16	0.033	
261	 2HG	58.317	21.732	-39.073	 H	16	ARG16	0.029	
262	 3HG	59.862	20.879	-39.165	 H	16	ARG16	0.029	
263	 2HD	59.716	20.269	-36.722	 H	16	ARG16	0.069	
264	 3HD	58.153	21.115	-36.599	 H	16	ARG16	0.069	
265	  HE	60.095	23.004	-37.731	 H	16	ARG16	0.346	
266	1HH1	59.508	21.419	-34.704	 H	16	ARG16	0.448	
267	2HH1	60.307	22.766	-33.759	 H	16	ARG16	0.448	
268	1HH2	60.989	24.504	-36.641	 H	16	ARG16	0.448	
269	2HH2	61.098	24.421	-34.827	 H	16	ARG16	0.448	
@<TRIPOS>BOND
1 1 2 1
2 1 9 1
3 2 3 1
4 2 5 1
5 2 10 1
6 3 4 2
7 3 20 1
8 5 6 1
9 5 7 1
10 6 8 1
11 5 11 1
12 6 12 1
13 6 13 1
14 7 14 1
15 7 15 1
16 7 16 1
17 8 17 1
18 8 18 1
19 8 19 1
20 20 21 1
21 20 28 1
22 21 22 1
23 21 24 1
24 21 29 1
25 22 23 2
26 22 34 1
27 24 25 1
28 25 26 1
29 25 27 2
30 24 30 1
31 24 31 1
32 26 32 1
33 26 33 1
34 34 35 1
35 34 40 1
36 35 36 1
37 35 38 1
38 35 41 1
39 36 37 2
40 36 48 1
41 38 39 1
42 39 40 1
43 38 42 1
44 38 43 1
45 39 44 1
46 39 45 1
47 40 46 1
48 40 47 1
49 48 49 1
50 48 57 1
51 49 50 1
52 49 52 1
53 49 58 1
54 50 51 2
55 50 63 1
56 52 53 1
57 53 54 1
58 54 55 2
59 54 56 1
60 52 59 1
61 52 60 1
62 53 61 1
63 53 62 1
64 63 64 1
65 63 69 1
66 64 65 1
67 64 67 1
68 64 70 1
69 65 66 2
70 65 74 1
71 67 68 1
72 67 71 1
73 67 72 1
74 68 73 1
75 74 75 1
76 74 82 1
77 75 76 1
78 75 78 1
79 75 83 1
80 76 77 2
81 76 93 1
82 78 79 1
83 78 80 1
84 79 81 1
85 78 84 1
86 79 85 1
87 79 86 1
88 80 87 1
89 80 88 1
90 80 89 1
91 81 90 1
92 81 91 1
93 81 92 1
94 93 94 1
95 93 101 1
96 94 95 1
97 94 97 1
98 94 102 1
99 95 96 2
100 95 112 1
101 97 98 1
102 98 99 1
103 98 100 1
104 97 103 1
105 97 104 1
106 98 105 1
107 99 106 1
108 99 107 1
109 99 108 1
110 100 109 1
111 100 110 1
112 100 111 1
113 112 113 1
114 112 120 1
115 113 114 1
116 113 116 1
117 113 121 1
118 114 115 2
119 114 124 1
120 116 117 1
121 117 118 2
122 117 119 1
123 116 122 1
124 116 123 1
125 124 125 1
126 124 133 1
127 125 126 1
128 125 128 1
129 125 134 1
130 126 127 2
131 126 139 1
132 128 129 1
133 129 130 1
134 130 131 2
135 130 132 1
136 128 135 1
137 128 136 1
138 129 137 1
139 129 138 1
140 139 140 1
141 139 149 1
142 140 141 1
143 140 143 1
144 140 150 1
145 141 142 2
146 141 156 1
147 143 144 1
148 144 145 2
149 145 148 1
150 144 146 1
151 146 147 2
152 147 148 1
153 143 151 1
154 143 152 1
155 145 153 1
156 147 154 1
157 148 155 1
158 156 157 1
159 156 163 1
160 157 158 1
161 157 160 1
162 157 164 1
163 158 159 2
164 158 172 1
165 160 161 1
166 160 162 1
167 160 165 1
168 161 166 1
169 161 167 1
170 161 168 1
171 162 169 1
172 162 170 1
173 162 171 1
174 172 173 1
175 172 181 1
176 173 174 1
177 173 176 1
178 173 182 1
179 174 175 2
180 174 189 1
181 176 177 1
182 177 178 1
183 178 179 1
184 178 180 2
185 176 183 1
186 176 184 1
187 177 185 1
188 177 186 1
189 179 187 1
190 179 188 1
191 189 190 1
192 189 200 1
193 190 191 1
194 190 193 1
195 190 201 1
196 191 192 2
197 191 213 1
198 193 194 1
199 194 195 1
200 195 196 1
201 196 197 1
202 197 198 2
203 197 199 1
204 193 202 1
205 193 203 1
206 194 204 1
207 194 205 1
208 195 206 1
209 195 207 1
210 196 208 1
211 198 209 1
212 198 210 1
213 199 211 1
214 199 212 1
215 213 214 1
216 213 220 1
217 214 215 1
218 214 217 1
219 214 221 1
220 215 216 2
221 215 229 1
222 217 218 1
223 217 219 1
224 217 222 1
225 218 223 1
226 218 224 1
227 218 225 1
228 219 226 1
229 219 227 1
230 219 228 1
231 229 230 1
232 229 237 1
233 230 231 1
234 230 233 1
235 230 238 1
236 231 232 2
237 231 246 1
238 233 234 1
239 234 235 1
240 235 236 1
241 233 239 1
242 233 240 1
243 234 241 1
244 234 242 1
245 236 243 1
246 236 244 1
247 236 245 1
248 246 247 1
249 246 257 1
250 247 248 1
251 247 250 1
252 247 258 1
253 248 249 2
254 250 251 1
255 251 252 1
256 252 253 1
257 253 254 1
258 254 255 2
259 254 256 1
260 250 259 1
261 250 260 1
262 251 261 1
263 251 262 1
264 252 263 1
265 252 264 1
266 253 265 1
267 255 266 1
268 255 267 1
269 256 268 1
270 256 269 1
@<TRIPOS>SUBSTRUCTURE
1	ILE1	1	RESIDUE	1 ****	ILE
2	ASN2	20	RESIDUE	1 ****	ASN
3	PRO3	34	RESIDUE	1 ****	PRO
4	GLU4	48	RESIDUE	1 ****	GLU
5	SER5	63	RESIDUE	1 ****	SER
6	ILE6	74	RESIDUE	1 ****	ILE
7	LEU7	93	RESIDUE	1 ****	LEU
8	ASP8	112	RESIDUE	1 ****	ASP
9	GLU9	124	RESIDUE	1 ****	GLU
10	HIS10	139	RESIDUE	1 ****	HIS
11	VAL11	156	RESIDUE	1 ****	VAL
12	GLN12	172	RESIDUE	1 ****	GLN
13	ARG13	189	RESIDUE	1 ****	ARG
14	VAL14	213	RESIDUE	1 ****	VAL
15	MET15	229	RESIDUE	1 ****	MET
16	ARG16	246	RESIDUE	1 ****	ARG
