REMARK WARNING: 32 MAX_TORS EXCEEDED!!!
REMARK  65 active torsions:
REMARK  status: ('A' for Active; 'I' for Inactive)
REMARK    1  A    between atoms: N_1  and  CA_2 
REMARK    2  A    between atoms: CA_2  and  C_3 
REMARK    3  A    between atoms: CA_2  and  CB_5 
REMARK       I    between atoms: C_3  and  N_11 
REMARK    4  A    between atoms: CB_5  and  CG_6 
REMARK    5  A    between atoms: CG_6  and  CD_7 
REMARK    6  A    between atoms: N_11  and  CA_12 
REMARK    7  A    between atoms: CA_12  and  C_13 
REMARK    8  A    between atoms: CA_12  and  CB_15 
REMARK       I    between atoms: C_13  and  N_22 
REMARK    9  A    between atoms: CB_15  and  CG_16 
REMARK       I    between atoms: CG_16  and  ND2_17 
REMARK   10  A    between atoms: CA_23  and  C_24 
REMARK       I    between atoms: C_24  and  N_29 
REMARK   11  A    between atoms: N_29  and  CA_30 
REMARK   12  A    between atoms: CA_30  and  C_31 
REMARK   13  A    between atoms: CA_30  and  CB_33 
REMARK       I    between atoms: C_31  and  N_39 
REMARK   14  A    between atoms: CB_33  and  CG_34 
REMARK   15  A    between atoms: CG_34  and  CD_35 
REMARK   16  A    between atoms: N_39  and  CA_40 
REMARK   17  A    between atoms: CA_40  and  C_41 
REMARK   18  A    between atoms: CA_40  and  CB_43 
REMARK       I    between atoms: C_41  and  N_47 
REMARK   19  A    between atoms: CB_43  and  OG_44 
REMARK   20  A    between atoms: N_47  and  CA_48 
REMARK   21  A    between atoms: CA_48  and  C_49 
REMARK   22  A    between atoms: CA_48  and  CB_51 
REMARK       I    between atoms: C_49  and  N_56 
REMARK   23  A    between atoms: CB_51  and  CG1_52 
REMARK   24  A    between atoms: N_56  and  CA_57 
REMARK   25  A    between atoms: CA_57  and  C_58 
REMARK   26  A    between atoms: CA_57  and  CB_60 
REMARK       I    between atoms: C_58  and  N_65 
REMARK   27  A    between atoms: CB_60  and  CG_61 
REMARK   28  A    between atoms: N_65  and  CA_66 
REMARK   29  A    between atoms: CA_66  and  C_67 
REMARK   30  A    between atoms: CA_66  and  CB_69 
REMARK       I    between atoms: C_67  and  N_74 
REMARK   31  A    between atoms: CB_69  and  CG_70 
REMARK   32  A    between atoms: N_74  and  CA_75 
REMARK   33  A    between atoms: CA_75  and  C_76 
REMARK       I    between atoms: C_76  and  N_80 
REMARK   34  A    between atoms: N_80  and  CA_81 
REMARK   35  A    between atoms: CA_81  and  C_82 
REMARK   36  A    between atoms: CA_81  and  CB_84 
REMARK       I    between atoms: C_82  and  N_92 
REMARK   37  A    between atoms: CB_84  and  CG_85 
REMARK   38  A    between atoms: N_92  and  CA_93 
REMARK   39  A    between atoms: CA_93  and  C_94 
REMARK   40  A    between atoms: CA_93  and  CB_96 
REMARK       I    between atoms: C_94  and  N_100 
REMARK   41  A    between atoms: N_100  and  CA_101 
REMARK   42  A    between atoms: CA_101  and  C_102 
REMARK   43  A    between atoms: CA_101  and  CB_104 
REMARK       I    between atoms: C_102  and  N_112 
REMARK   44  A    between atoms: CB_104  and  CG_105 
REMARK   45  A    between atoms: CG_105  and  CD_106 
REMARK       I    between atoms: CD_106  and  NE2_107 
REMARK   46  A    between atoms: N_112  and  CA_113 
REMARK   47  A    between atoms: CA_113  and  C_114 
REMARK   48  A    between atoms: CA_113  and  CB_116 
REMARK       I    between atoms: C_114  and  N_129 
REMARK   49  A    between atoms: CB_116  and  CG_117 
REMARK   50  A    between atoms: CG_117  and  CD_118 
REMARK   51  A    between atoms: CD_118  and  NE_119 
REMARK       I    between atoms: NE_119  and  CZ_120 
REMARK       I    between atoms: CZ_120  and  NH1_121 
REMARK       I    between atoms: CZ_120  and  NH2_122 
REMARK   52  A    between atoms: N_129  and  CA_130 
REMARK   53  A    between atoms: CA_130  and  C_131 
REMARK   54  A    between atoms: CA_130  and  CB_133 
REMARK       I    between atoms: C_131  and  N_137 
REMARK   55  A    between atoms: N_137  and  CA_138 
REMARK   56  A    between atoms: CA_138  and  C_139 
REMARK   57  A    between atoms: CA_138  and  CB_141 
REMARK       I    between atoms: C_139  and  N_146 
REMARK   58  A    between atoms: CB_141  and  CG_142 
REMARK   59  A    between atoms: CG_142  and  SD_143 
REMARK   60  A    between atoms: N_146  and  CA_147 
REMARK   61  A    between atoms: CA_147  and  C_148 
REMARK   62  A    between atoms: CA_147  and  CB_150 
REMARK   63  A    between atoms: CB_150  and  CG_151 
REMARK   64  A    between atoms: CG_151  and  CD_152 
REMARK   65  A    between atoms: CD_152  and  NE_153 
REMARK       I    between atoms: NE_153  and  CZ_154 
REMARK       I    between atoms: CZ_154  and  NH1_155 
ROOT
ATOM      1  C   ALA d   9    1362.974 400.811-1368.465  0.00  0.00     0.240 C 
ATOM      2  O   ALA d   9    1363.636 401.563-1369.190  0.00  0.00    -0.271 OA
ATOM      3  N   HIS d  10    1363.070 399.535-1368.635  0.00  0.00    -0.346 N 
ATOM      4  H   HIS d  10    1362.539 398.900-1368.056  0.00  0.00     0.163 HD
ENDROOT
BRANCH   3   5
ATOM      5  CA  HIS d  10    1363.957 399.024-1369.676  0.00  0.00     0.182 C 
BRANCH   5   6
ATOM      6  C   HIS d  10    1363.590 399.588-1371.027  0.00  0.00     0.241 C 
ATOM      7  O   HIS d  10    1364.442 400.052-1371.799  0.00  0.00    -0.271 OA
ATOM      8  N   VAL d  11    1362.352 399.587-1371.389  0.00  0.00    -0.346 N 
ATOM      9  H   VAL d  11    1361.639 399.215-1370.778  0.00  0.00     0.163 HD
BRANCH   8  10
ATOM     10  CA  VAL d  11    1361.996 400.133-1372.696  0.00  0.00     0.180 C 
BRANCH  10  11
ATOM     11  C   VAL d  11    1362.461 401.564-1372.829  0.00  0.00     0.241 C 
ATOM     12  O   VAL d  11    1363.061 401.968-1373.832  0.00  0.00    -0.271 OA
ATOM     13  N   GLN d  12    1362.224 402.389-1371.866  0.00  0.00    -0.346 N 
ATOM     14  H   GLN d  12    1361.736 402.084-1371.037  0.00  0.00     0.163 HD
BRANCH  13  15
ATOM     15  CA  GLN d  12    1362.673 403.772-1371.994  0.00  0.00     0.177 C 
BRANCH  15  16
ATOM     16  C   GLN d  12    1364.162 403.839-1372.233  0.00  0.00     0.241 C 
ATOM     17  O   GLN d  12    1364.649 404.547-1373.112  0.00  0.00    -0.271 OA
ATOM     18  N   ARG d  13    1364.947 403.133-1371.492  0.00  0.00    -0.346 N 
ATOM     19  H   ARG d  13    1364.571 402.543-1370.763  0.00  0.00     0.163 HD
BRANCH  18  20
ATOM     20  CA  ARG d  13    1366.387 403.198-1371.724  0.00  0.00     0.176 C 
BRANCH  20  21
ATOM     21  C   ARG d  13    1366.723 402.826-1373.149  0.00  0.00     0.241 C 
ATOM     22  O   ARG d  13    1367.491 403.497-1373.833  0.00  0.00    -0.271 OA
ATOM     23  N   VAL d  14    1366.186 401.771-1373.662  0.00  0.00    -0.346 N 
ATOM     24  H   VAL d  14    1365.552 401.203-1373.120  0.00  0.00     0.163 HD
BRANCH  23  25
ATOM     25  CA  VAL d  14    1366.510 401.411-1375.040  0.00  0.00     0.180 C 
BRANCH  25  26
ATOM     26  C   VAL d  14    1366.180 402.541-1375.986  0.00  0.00     0.241 C 
ATOM     27  O   VAL d  14    1366.973 402.922-1376.856  0.00  0.00    -0.271 OA
ATOM     28  N   MET d  15    1365.036 403.127-1375.884  0.00  0.00    -0.346 N 
ATOM     29  H   MET d  15    1364.371 402.835-1375.182  0.00  0.00     0.163 HD
BRANCH  28  30
ATOM     30  CA  MET d  15    1364.715 404.219-1376.798  0.00  0.00     0.177 C 
BRANCH  30  31
ATOM     31  C   MET d  15    1365.746 405.319-1376.711  0.00  0.00     0.241 C 
ATOM     32  O   MET d  15    1366.248 405.829-1377.724  0.00  0.00    -0.271 OA
ATOM     33  N   ARG d  16    1366.115 405.741-1375.549  0.00  0.00    -0.347 N 
ATOM     34  H   ARG d  16    1365.720 405.341-1374.710  0.00  0.00     0.163 HD
BRANCH  33  35
ATOM     35  CA  ARG d  16    1367.112 406.804-1375.467  0.00  0.00     0.162 C 
BRANCH  35  36
ATOM     36  C   ARG d  16    1368.382 406.411-1376.183  0.00  0.00     0.219 C 
ATOM     37  O   ARG d  16    1368.495 405.334-1376.764  0.00  0.00    -0.287 OA
ENDBRANCH  35  36
BRANCH  35  38
ATOM     38  CB  ARG d  16    1367.381 407.123-1373.968  0.00  0.00     0.035 C 
BRANCH  38  39
ATOM     39  CG  ARG d  16    1368.207 408.412-1373.696  0.00  0.00     0.023 C 
BRANCH  39  40
ATOM     40  CD  ARG d  16    1368.457 408.632-1372.195  0.00  0.00     0.138 C 
BRANCH  40  41
ATOM     41  NE  ARG d  16    1369.233 409.891-1371.995  0.00  0.00    -0.227 N 
ATOM     42  CZ  ARG d  16    1369.625 410.373-1370.820  0.00  0.00     0.665 C 
ATOM     43  NH1 ARG d  16    1369.377 409.790-1369.681  0.00  0.00    -0.235 N 
ATOM     44  NH2 ARG d  16    1370.289 411.486-1370.802  0.00  0.00    -0.235 N 
ATOM     45 11HH ARG d  16    1368.851 408.917-1369.765  0.00  0.00     0.174 HD
ATOM     46 12HH ARG d  16    1369.712 410.226-1368.820  0.00  0.00     0.174 HD
ATOM     47 21HH ARG d  16    1370.475 411.928-1371.704  0.00  0.00     0.174 HD
ATOM     48 22HH ARG d  16    1370.580 411.841-1369.890  0.00  0.00     0.174 HD
ATOM     49  HE  ARG d  16    1369.512 410.471-1372.793  0.00  0.00     0.177 HD
ENDBRANCH  40  41
ENDBRANCH  39  40
ENDBRANCH  38  39
ENDBRANCH  35  38
ENDBRANCH  33  35
ENDBRANCH  30  31
BRANCH  30  50
ATOM     50  CB  MET d  15    1363.294 404.766-1376.489  0.00  0.00     0.045 C 
BRANCH  50  51
ATOM     51  CG  MET d  15    1362.131 403.768-1376.680  0.00  0.00     0.076 C 
BRANCH  51  52
ATOM     52  SD  MET d  15    1360.558 404.634-1376.565  0.00  0.00    -0.173 SA
ATOM     53  CE  MET d  15    1359.476 403.205-1376.427  0.00  0.00     0.089 C 
ENDBRANCH  51  52
ENDBRANCH  50  51
ENDBRANCH  30  50
ENDBRANCH  28  30
ENDBRANCH  25  26
BRANCH  25  54
ATOM     54  CB  VAL d  14    1365.737 400.094-1375.446  0.00  0.00     0.009 C 
ATOM     55  CG1 VAL d  14    1365.826 399.675-1376.939  0.00  0.00     0.012 C 
ATOM     56  CG2 VAL d  14    1366.169 398.842-1374.645  0.00  0.00     0.012 C 
ENDBRANCH  25  54
ENDBRANCH  23  25
ENDBRANCH  20  21
BRANCH  20  57
ATOM     57  CB  ARG d  13    1367.101 402.259-1370.710  0.00  0.00     0.036 C 
BRANCH  57  58
ATOM     58  CG  ARG d  13    1368.646 402.412-1370.629  0.00  0.00     0.023 C 
BRANCH  58  59
ATOM     59  CD  ARG d  13    1369.273 401.424-1369.631  0.00  0.00     0.138 C 
BRANCH  59  60
ATOM     60  NE  ARG d  13    1370.750 401.631-1369.582  0.00  0.00    -0.227 N 
ATOM     61  CZ  ARG d  13    1371.599 400.939-1368.827  0.00  0.00     0.665 C 
ATOM     62  NH1 ARG d  13    1371.234 399.975-1368.029  0.00  0.00    -0.235 N 
ATOM     63  NH2 ARG d  13    1372.858 401.238-1368.884  0.00  0.00    -0.235 N 
ATOM     64 11HH ARG d  13    1370.228 399.789-1368.032  0.00  0.00     0.174 HD
ATOM     65 12HH ARG d  13    1371.947 399.492-1367.480  0.00  0.00     0.174 HD
ATOM     66 21HH ARG d  13    1373.126 401.996-1369.516  0.00  0.00     0.174 HD
ATOM     67 22HH ARG d  13    1373.494 400.697-1368.296  0.00  0.00     0.174 HD
ATOM     68  HE  ARG d  13    1371.202 402.353-1370.153  0.00  0.00     0.177 HD
ENDBRANCH  59  60
ENDBRANCH  58  59
ENDBRANCH  57  58
ENDBRANCH  20  57
ENDBRANCH  18  20
ENDBRANCH  15  16
BRANCH  15  69
ATOM     69  CB  GLN d  12    1362.283 404.540-1370.712  0.00  0.00     0.044 C 
BRANCH  69  70
ATOM     70  CG  GLN d  12    1362.643 406.062-1370.681  0.00  0.00     0.105 C 
BRANCH  70  71
ATOM     71  CD  GLN d  12    1362.342 406.876-1369.416  0.00  0.00     0.215 C 
ATOM     72  NE2 GLN d  12    1361.775 406.300-1368.387  0.00  0.00    -0.370 N 
ATOM     73 21HE GLN d  12    1361.668 406.895-1367.564  0.00  0.00     0.159 HD
ATOM     74 22HE GLN d  12    1361.611 405.296-1368.490  0.00  0.00     0.159 HD
ATOM     75  OE1 GLN d  12    1362.644 408.057-1369.339  0.00  0.00    -0.274 OA
ENDBRANCH  70  71
ENDBRANCH  69  70
ENDBRANCH  15  69
ENDBRANCH  13  15
ENDBRANCH  10  11
BRANCH  10  76
ATOM     76  CB  VAL d  11    1360.435 400.027-1372.914  0.00  0.00     0.009 C 
ATOM     77  CG1 VAL d  11    1359.865 400.730-1374.177  0.00  0.00     0.012 C 
ATOM     78  CG2 VAL d  11    1359.910 398.572-1372.987  0.00  0.00     0.012 C 
ENDBRANCH  10  76
ENDBRANCH   8  10
ENDBRANCH   5   6
BRANCH   5  79
ATOM     79  CB  HIS d  10    1363.793 397.495-1369.670  0.00  0.00     0.095 C 
BRANCH  79  80
ATOM     80  CG  HIS d  10    1365.078 396.784-1369.363  0.00  0.00     0.053 A 
ATOM     81  CD2 HIS d  10    1365.460 396.449-1368.070  0.00  0.00     0.116 A 
ATOM     82  NE2 HIS d  10    1366.675 395.817-1368.137  0.00  0.00    -0.359 N 
ATOM     83  CE1 HIS d  10    1366.937 395.820-1369.473  0.00  0.00     0.207 A 
ATOM     84  2HE HIS d  10    1367.242 395.440-1367.364  0.00  0.00     0.166 HD
ATOM     85  ND1 HIS d  10    1366.030 396.378-1370.296  0.00  0.00    -0.247 NA
ENDBRANCH  79  80
ENDBRANCH   5  79
ENDBRANCH   3   5
BRANCH   1  86
ATOM     86  CA  ALA d   9    1362.056 401.339-1367.389  0.00  0.00     0.172 C 
ATOM     87  CB  ALA d   9    1362.621 401.137-1365.972  0.00  0.00     0.042 C 
BRANCH  86  88
ATOM     88  N   ALA d   9    1360.754 400.681-1367.444  0.00  0.00    -0.346 N 
ATOM     89  C   ASP d   8    1360.074 400.731-1368.539  0.00  0.00     0.241 C 
ATOM     90  O   ASP d   8    1360.547 401.337-1369.513  0.00  0.00    -0.271 OA
ATOM     91  H   ALA d   9    1360.391 400.195-1366.637  0.00  0.00     0.163 HD
BRANCH  89  92
ATOM     92  CA  ASP d   8    1358.727 400.051-1368.596  0.00  0.00     0.186 C 
BRANCH  92  93
ATOM     93  N   ASP d   8    1358.798 398.702-1368.043  0.00  0.00    -0.346 N 
ATOM     94  C   LEU d   7    1359.635 397.861-1368.550  0.00  0.00     0.241 C 
ATOM     95  O   LEU d   7    1360.356 398.224-1369.492  0.00  0.00    -0.271 OA
ATOM     96  H   ASP d   8    1358.200 398.430-1367.276  0.00  0.00     0.163 HD
BRANCH  94  97
ATOM     97  CA  LEU d   7    1359.708 396.466-1367.978  0.00  0.00     0.177 C 
BRANCH  97  98
ATOM     98  N   LEU d   7    1359.763 396.502-1366.519  0.00  0.00    -0.346 N 
ATOM     99  C   ILE d   6    1360.709 397.165-1365.946  0.00  0.00     0.241 C 
ATOM    100  O   ILE d   6    1361.543 397.753-1366.650  0.00  0.00    -0.271 OA
ATOM    101  H   LEU d   7    1359.071 396.014-1365.968  0.00  0.00     0.163 HD
BRANCH  99 102
ATOM    102  CA  ILE d   6    1360.766 397.203-1364.438  0.00  0.00     0.180 C 
BRANCH 102 103
ATOM    103  N   ILE d   6    1359.453 397.497-1363.871  0.00  0.00    -0.346 N 
ATOM    104  C   SER d   5    1358.848 398.580-1364.225  0.00  0.00     0.243 C 
ATOM    105  O   SER d   5    1359.395 399.334-1365.030  0.00  0.00    -0.271 OA
ATOM    106  H   ILE d   6    1359.025 396.863-1363.212  0.00  0.00     0.163 HD
BRANCH 104 107
ATOM    107  CA  SER d   5    1357.489 398.886-1363.640  0.00  0.00     0.200 C 
BRANCH 107 108
ATOM    108  N   SER d   5    1356.620 397.714-1363.698  0.00  0.00    -0.344 N 
ATOM    109  C   GLU d   4    1356.392 397.162-1364.841  0.00  0.00     0.241 C 
ATOM    110  O   GLU d   4    1356.918 397.641-1365.856  0.00  0.00    -0.271 OA
ATOM    111  H   SER d   5    1356.203 397.343-1362.856  0.00  0.00     0.163 HD
BRANCH 109 112
ATOM    112  CA  GLU d   4    1355.493 395.950-1364.902  0.00  0.00     0.177 C 
BRANCH 112 113
ATOM    113  N   GLU d   4    1355.853 394.979-1363.873  0.00  0.00    -0.346 N 
ATOM    114  C   PRO d   3    1357.058 394.519-1363.840  0.00  0.00     0.241 C 
ATOM    115  O   PRO d   3    1357.881 394.902-1364.672  0.00  0.00    -0.271 OA
ATOM    116  H   GLU d   4    1355.169 394.673-1363.196  0.00  0.00     0.163 HD
BRANCH 114 117
ATOM    117  CA  PRO d   3    1357.456 393.496-1362.764  0.00  0.00     0.179 C 
ATOM    118  N   PRO d   3    1357.005 393.905-1361.442  0.00  0.00    -0.337 N 
ATOM    119  C   ASN d   2    1357.526 394.900-1360.808  0.00  0.00     0.243 C 
ATOM    120  CD  PRO d   3    1355.927 393.112-1360.893  0.00  0.00     0.127 C 
ATOM    121  O   ASN d   2    1358.441 395.531-1361.337  0.00  0.00    -0.271 OA
ATOM    122  CG  PRO d   3    1355.469 392.293-1362.103  0.00  0.00     0.022 C 
ATOM    123  CB  PRO d   3    1356.752 392.141-1362.933  0.00  0.00     0.037 C 
BRANCH 119 124
ATOM    124  CA  ASN d   2    1356.995 395.256-1359.439  0.00  0.00     0.185 C 
BRANCH 124 125
ATOM    125  N   ASN d   2    1355.536 395.294-1359.439  0.00  0.00    -0.346 N 
ATOM    126  C   GLU d   1    1354.931 396.080-1360.264  0.00  0.00     0.242 C 
ATOM    127  O   GLU d   1    1355.607 396.779-1361.033  0.00  0.00    -0.271 OA
ATOM    128  H   ASN d   2    1355.007 394.715-1358.803  0.00  0.00     0.163 HD
BRANCH 126 129
ATOM    129  CA  GLU d   1    1353.422 396.120-1360.264  0.00  0.00     0.191 C 
BRANCH 129 130
ATOM    130  N   GLU d   1    1352.863 394.771-1360.264  0.00  0.00    -0.326 NA
ATOM    131  H   GLU d   1    1353.490 393.892-1360.264  0.00  0.00     0.180 HD
ENDBRANCH 129 130
BRANCH 129 132
ATOM    132  CB  GLU d   1    1352.899 396.905-1359.027  0.00  0.00     0.047 C 
BRANCH 132 133
ATOM    133  CG  GLU d   1    1353.374 398.390-1358.916  0.00  0.00     0.116 C 
BRANCH 133 134
ATOM    134  CD  GLU d   1    1352.950 399.194-1357.701  0.00  0.00     0.172 C 
ATOM    135  OE1 GLU d   1    1352.222 398.692-1356.823  0.00  0.00    -0.648 OA
ATOM    136  OE2 GLU d   1    1353.380 400.364-1357.629  0.00  0.00    -0.648 OA
ENDBRANCH 133 134
ENDBRANCH 132 133
ENDBRANCH 129 132
ENDBRANCH 126 129
ENDBRANCH 124 125
BRANCH 124 137
ATOM    137  CB  ASN d   2    1357.487 394.233-1358.375  0.00  0.00     0.137 C 
BRANCH 137 138
ATOM    138  CG  ASN d   2    1357.024 394.457-1356.932  0.00  0.00     0.217 C 
ATOM    139  ND2 ASN d   2    1357.618 395.372-1356.213  0.00  0.00    -0.370 N 
ATOM    140 21HD ASN d   2    1357.137 395.545-1355.327  0.00  0.00     0.159 HD
ATOM    141 22HD ASN d   2    1358.320 395.943-1356.683  0.00  0.00     0.159 HD
ATOM    142  OD1 ASN d   2    1356.103 393.823-1356.437  0.00  0.00    -0.274 OA
ENDBRANCH 137 138
ENDBRANCH 124 137
ENDBRANCH 119 124
ENDBRANCH 114 117
ENDBRANCH 112 113
BRANCH 112 143
ATOM    143  CB  GLU d   4    1354.005 396.369-1364.732  0.00  0.00     0.045 C 
BRANCH 143 144
ATOM    144  CG  GLU d   4    1353.457 397.373-1365.797  0.00  0.00     0.116 C 
BRANCH 144 145
ATOM    145  CD  GLU d   4    1352.030 397.869-1365.653  0.00  0.00     0.172 C 
ATOM    146  OE1 GLU d   4    1351.304 397.471-1364.722  0.00  0.00    -0.648 OA
ATOM    147  OE2 GLU d   4    1351.640 398.698-1366.502  0.00  0.00    -0.648 OA
ENDBRANCH 144 145
ENDBRANCH 143 144
ENDBRANCH 112 143
ENDBRANCH 109 112
ENDBRANCH 107 108
BRANCH 107 148
ATOM    148  CB  SER d   5    1357.601 399.418-1362.189  0.00  0.00     0.199 C 
BRANCH 148 149
ATOM    149  OG  SER d   5    1358.333 398.538-1361.328  0.00  0.00    -0.398 OA
ATOM    150  HG  SER d   5    1357.844 397.713-1361.277  0.00  0.00     0.209 HD
ENDBRANCH 148 149
ENDBRANCH 107 148
ENDBRANCH 104 107
ENDBRANCH 102 103
BRANCH 102 151
ATOM    151  CB  ILE d   6    1361.366 395.866-1363.838  0.00  0.00     0.013 C 
ATOM    152  CG2 ILE d   6    1362.807 395.565-1364.353  0.00  0.00     0.012 C 
BRANCH 151 153
ATOM    153  CG1 ILE d   6    1361.385 395.804-1362.277  0.00  0.00     0.002 C 
ATOM    154  CD1 ILE d   6    1361.655 394.415-1361.662  0.00  0.00     0.005 C 
ENDBRANCH 151 153
ENDBRANCH 102 151
ENDBRANCH  99 102
ENDBRANCH  97  98
BRANCH  97 155
ATOM    155  CB  LEU d   7    1358.505 395.606-1368.458  0.00  0.00     0.038 C 
BRANCH 155 156
ATOM    156  CG  LEU d   7    1358.432 394.126-1367.992  0.00  0.00    -0.020 C 
ATOM    157  CD1 LEU d   7    1357.242 393.420-1368.657  0.00  0.00     0.009 C 
ATOM    158  CD2 LEU d   7    1359.725 393.347-1368.284  0.00  0.00     0.009 C 
ENDBRANCH 155 156
ENDBRANCH  97 155
ENDBRANCH  94  97
ENDBRANCH  92  93
BRANCH  92 159
ATOM    159  CB  ASP d   8    1357.649 400.890-1367.854  0.00  0.00     0.147 C 
BRANCH 159 160
ATOM    160  CG  ASP d   8    1357.430 402.311-1368.394  0.00  0.00     0.175 C 
ATOM    161  OD1 ASP d   8    1357.494 402.510-1369.625  0.00  0.00    -0.648 OA
ATOM    162  OD2 ASP d   8    1357.238 403.237-1367.579  0.00  0.00    -0.648 OA
ENDBRANCH 159 160
ENDBRANCH  92 159
ENDBRANCH  89  92
ENDBRANCH  86  88
ENDBRANCH   1  86
TORSDOF 65
