@<TRIPOS>MOLECULE
16-1
251 252 16              
SMALL
USER_CHARGES
@<TRIPOS>ATOM
1	   N	2498.536	767.572	-2604.663	N.3	1	GLU1	-0.516	
2	  CA	2499.095	768.921	-2604.663	C.3	1	GLU1	0.040	
3	   C	2500.604	768.881	-2604.663	C.2	1	GLU1	0.537	
4	   O	2501.280	769.580	-2605.432	O.2	1	GLU1	-0.582	
5	  CB	2498.572	769.706	-2603.427	C.3	1	GLU1	0.056	
6	  CG	2499.047	771.191	-2603.315	C.3	1	GLU1	0.014	
7	  CD	2498.623	771.995	-2602.100	C.2	1	GLU1	0.805	
8	 OE1	2497.895	771.493	-2601.222	O.co2	1	GLU1	-0.819	
9	 OE2	2499.053	773.165	-2602.028	O.co2	1	GLU1	-0.819	
10	   H	2499.163	766.693	-2604.663	 H	1	GLU1	0.294	
11	  HA	2498.769	769.439	-2605.583	 H	1	GLU1	0.111	
12	 2HB	2498.861	769.175	-2602.496	 H	1	GLU1	-0.017	
13	 3HB	2497.465	769.696	-2603.413	 H	1	GLU1	-0.017	
14	 2HG	2498.737	771.776	-2604.196	 H	1	GLU1	-0.043	
15	 3HG	2500.147	771.258	-2603.286	 H	1	GLU1	-0.043	
16	   N	2501.209	768.095	-2603.838	N.am	2	ASN2	-0.416	
17	  CA	2502.668	768.056	-2603.838	C.3	2	ASN2	0.014	
18	   C	2503.200	767.700	-2605.207	C.2	2	ASN2	0.597	
19	   O	2504.115	768.331	-2605.735	O.2	2	ASN2	-0.568	
20	  CB	2503.160	767.033	-2602.773	C.3	2	ASN2	-0.204	
21	  CG	2502.697	767.257	-2601.330	C.2	2	ASN2	0.713	
22	 ND2	2503.291	768.172	-2600.612	N.pl3	2	ASN2	-0.919	
23	 OD1	2501.775	766.623	-2600.836	O.2	2	ASN2	-0.593	
24	   H	2500.681	767.515	-2603.202	 H	2	ASN2	0.272	
25	  HA	2503.046	769.066	-2603.593	 H	2	ASN2	0.105	
26	 2HB	2504.264	766.974	-2602.777	 H	2	ASN2	0.080	
27	 3HB	2502.831	766.015	-2603.059	 H	2	ASN2	0.080	
28	1HD2	2502.810	768.345	-2599.725	 H	2	ASN2	0.420	
29	2HD2	2503.992	768.743	-2601.081	 H	2	ASN2	0.420	
30	   N	2502.678	766.705	-2605.841	N.am	3	PRO3	-0.255	
31	  CA	2503.130	766.296	-2607.162	C.3	3	PRO3	-0.027	
32	   C	2502.733	767.320	-2608.239	C.2	3	PRO3	0.590	
33	   O	2503.556	767.703	-2609.071	O.2	3	PRO3	-0.575	
34	  CB	2502.426	764.942	-2607.332	C.3	3	PRO3	-0.007	
35	  CG	2501.142	765.094	-2606.502	C.3	3	PRO3	0.019	
36	  CD	2501.600	765.913	-2605.292	C.3	3	PRO3	0.019	
37	  HA	2504.216	766.176	-2607.176	 H	3	PRO3	0.064	
38	 2HB	2503.049	764.160	-2606.891	 H	3	PRO3	0.025	
39	 3HB	2502.228	764.693	-2608.377	 H	3	PRO3	0.025	
40	 2HG	2500.715	764.132	-2606.211	 H	3	PRO3	0.021	
41	 3HG	2500.405	765.665	-2607.070	 H	3	PRO3	0.021	
42	 2HD	2501.989	765.263	-2604.505	 H	3	PRO3	0.039	
43	 3HD	2500.803	766.548	-2604.899	 H	3	PRO3	0.039	
44	   N	2501.528	767.780	-2608.272	N.am	4	GLU4	-0.516	
45	  CA	2501.169	768.751	-2609.302	C.3	4	GLU4	0.040	
46	   C	2502.068	769.962	-2609.240	C.2	4	GLU4	0.537	
47	   O	2502.595	770.441	-2610.254	O.2	4	GLU4	-0.582	
48	  CB	2499.680	769.170	-2609.132	C.3	4	GLU4	0.056	
49	  CG	2499.133	770.174	-2610.198	C.3	4	GLU4	0.014	
50	  CD	2497.706	770.671	-2610.055	C.2	4	GLU4	0.805	
51	 OE1	2496.979	770.273	-2609.124	O.co2	4	GLU4	-0.819	
52	 OE2	2497.317	771.500	-2610.903	O.co2	4	GLU4	-0.819	
53	   H	2500.843	767.473	-2607.595	 H	4	GLU4	0.294	
54	  HA	2501.300	768.281	-2610.293	 H	4	GLU4	0.111	
55	 2HB	2499.527	769.610	-2608.125	 H	4	GLU4	-0.017	
56	 3HB	2499.032	768.272	-2609.138	 H	4	GLU4	-0.017	
57	 2HG	2499.215	769.759	-2611.216	 H	4	GLU4	-0.043	
58	 3HG	2499.721	771.106	-2610.209	 H	4	GLU4	-0.043	
59	   N	2502.295	770.514	-2608.097	N.am	5	SER5	-0.416	
60	  CA	2503.165	771.685	-2608.038	C.3	5	SER5	-0.025	
61	   C	2504.524	771.379	-2608.623	C.2	5	SER5	0.597	
62	   O	2505.072	772.133	-2609.428	O.2	5	SER5	-0.568	
63	  CB	2503.276	772.217	-2606.588	C.3	5	SER5	0.212	
64	  OG	2504.007	771.338	-2605.727	O.3	5	SER5	-0.655	
65	   H	2501.877	770.143	-2607.256	 H	5	SER5	0.272	
66	  HA	2502.716	772.476	-2608.667	 H	5	SER5	0.084	
67	 2HB	2502.276	772.412	-2606.155	 H	5	SER5	0.035	
68	 3HB	2503.781	773.203	-2606.590	 H	5	SER5	0.035	
69	  HG	2503.518	770.513	-2605.676	 H	5	SER5	0.428	
70	   N	2505.128	770.296	-2608.269	N.am	6	ILE6	-0.416	
71	  CA	2506.441	770.001	-2608.835	C.3	6	ILE6	-0.060	
72	   C	2506.384	769.963	-2610.343	C.2	6	ILE6	0.597	
73	   O	2507.219	770.550	-2611.047	O.2	6	ILE6	-0.568	
74	  CB	2507.040	768.664	-2608.235	C.3	6	ILE6	0.130	
75	 CG1	2507.059	768.602	-2606.674	C.3	6	ILE6	-0.043	
76	 CG2	2508.481	768.362	-2608.750	C.3	6	ILE6	-0.320	
77	 CD1	2507.329	767.213	-2606.059	C.3	6	ILE6	-0.066	
78	   H	2504.699	769.662	-2607.610	 H	6	ILE6	0.272	
79	  HA	2507.115	770.835	-2608.567	 H	6	ILE6	0.087	
80	  HB	2506.382	767.838	-2608.579	 H	6	ILE6	0.019	
81	2HG1	2506.077	768.922	-2606.278	 H	6	ILE6	0.024	
82	3HG1	2507.775	769.344	-2606.269	 H	6	ILE6	0.024	
83	1HG2	2508.541	768.268	-2609.848	 H	6	ILE6	0.088	
84	2HG2	2509.204	769.144	-2608.447	 H	6	ILE6	0.088	
85	3HG2	2508.871	767.400	-2608.371	 H	6	ILE6	0.088	
86	1HD1	2506.600	766.459	-2606.414	 H	6	ILE6	0.019	
87	2HD1	2508.339	766.834	-2606.294	 H	6	ILE6	0.019	
88	3HD1	2507.252	767.243	-2604.956	 H	6	ILE6	0.019	
89	   N	2505.438	769.300	-2610.916	N.am	7	LEU7	-0.416	
90	  CA	2505.383	769.264	-2612.375	C.3	7	LEU7	-0.052	
91	   C	2505.311	770.659	-2612.948	C.2	7	LEU7	0.597	
92	   O	2506.032	771.021	-2613.890	O.2	7	LEU7	-0.568	
93	  CB	2504.180	768.404	-2612.855	C.3	7	LEU7	-0.110	
94	  CG	2504.106	766.924	-2612.389	C.3	7	LEU7	0.353	
95	 CD1	2502.917	766.219	-2613.054	C.3	7	LEU7	-0.412	
96	 CD2	2505.400	766.145	-2612.680	C.3	7	LEU7	-0.412	
97	   H	2504.746	768.813	-2610.365	 H	7	LEU7	0.272	
98	  HA	2506.325	768.823	-2612.749	 H	7	LEU7	0.092	
99	 2HB	2504.156	768.420	-2613.963	 H	7	LEU7	0.046	
100	 3HB	2503.240	768.906	-2612.551	 H	7	LEU7	0.046	
101	  HG	2503.937	766.916	-2611.292	 H	7	LEU7	-0.036	
102	1HD1	2501.959	766.728	-2612.832	 H	7	LEU7	0.100	
103	2HD1	2503.016	766.178	-2614.156	 H	7	LEU7	0.100	
104	3HD1	2502.809	765.178	-2612.698	 H	7	LEU7	0.100	
105	1HD2	2505.675	766.175	-2613.750	 H	7	LEU7	0.100	
106	2HD2	2506.253	766.556	-2612.109	 H	7	LEU7	0.100	
107	3HD2	2505.318	765.082	-2612.384	 H	7	LEU7	0.100	
108	   N	2504.474	771.500	-2612.442	N.am	8	ASP8	-0.516	
109	  CA	2504.404	772.849	-2612.996	C.3	8	ASP8	0.038	
110	   C	2505.751	773.528	-2612.939	C.2	8	ASP8	0.537	
111	   O	2506.224	774.133	-2613.914	O.2	8	ASP8	-0.582	
112	  CB	2503.327	773.689	-2612.255	C.3	8	ASP8	-0.030	
113	  CG	2503.109	775.110	-2612.796	C.2	8	ASP8	0.799	
114	 OD1	2503.173	775.308	-2614.027	O.co2	8	ASP8	-0.801	
115	 OD2	2502.917	776.036	-2611.981	O.co2	8	ASP8	-0.801	
116	   H	2503.876	771.230	-2611.674	 H	8	ASP8	0.294	
117	  HA	2504.121	772.771	-2614.063	 H	8	ASP8	0.088	
118	 2HB	2503.584	773.773	-2611.183	 H	8	ASP8	-0.012	
119	 3HB	2502.347	773.185	-2612.288	 H	8	ASP8	-0.012	
120	   N	2506.431	773.479	-2611.844	N.am	9	GLU9	-0.516	
121	  CA	2507.735	774.136	-2611.789	C.3	9	GLU9	0.040	
122	   C	2508.652	773.607	-2612.865	C.2	9	GLU9	0.537	
123	   O	2509.316	774.361	-2613.591	O.2	9	GLU9	-0.582	
124	  CB	2508.368	773.928	-2610.384	C.3	9	GLU9	0.056	
125	  CG	2509.751	774.620	-2610.155	C.3	9	GLU9	0.014	
126	  CD	2510.453	774.407	-2608.827	C.2	9	GLU9	0.805	
127	 OE1	2509.931	773.717	-2607.930	O.co2	9	GLU9	-0.819	
128	 OE2	2511.573	774.945	-2608.696	O.co2	9	GLU9	-0.819	
129	   H	2506.068	772.993	-2611.037	 H	9	GLU9	0.294	
130	  HA	2507.593	775.218	-2611.965	 H	9	GLU9	0.111	
131	 2HB	2508.480	772.844	-2610.180	 H	9	GLU9	-0.017	
132	 3HB	2507.671	774.283	-2609.600	 H	9	GLU9	-0.017	
133	 2HG	2509.679	775.711	-2610.295	 H	9	GLU9	-0.043	
134	 3HG	2510.498	774.275	-2610.889	 H	9	GLU9	-0.043	
135	   N	2508.748	772.332	-2613.034	N.am	10	HIS10	-0.416	
136	  CA	2509.635	771.820	-2614.074	C.3	10	HIS10	-0.058	
137	   C	2509.268	772.384	-2615.426	C.2	10	HIS10	0.597	
138	   O	2510.121	772.848	-2616.198	O.2	10	HIS10	-0.568	
139	  CB	2509.471	770.291	-2614.069	C.3	10	HIS10	-0.007	
140	  CG	2510.756	769.580	-2613.761	C.2	10	HIS10	0.187	
141	 CD2	2511.137	769.245	-2612.468	C.2	10	HIS10	-0.221	
142	 ND1	2511.708	769.173	-2614.693	N.2	10	HIS10	-0.543	
143	 CE1	2512.614	768.615	-2613.870	C.2	10	HIS10	0.163	
144	 NE2	2512.352	768.613	-2612.535	N.pl3	10	HIS10	-0.280	
145	   H	2508.217	771.697	-2612.455	 H	10	HIS10	0.272	
146	  HA	2510.655	772.177	-2613.850	 H	10	HIS10	0.136	
147	 2HB	2509.105	769.923	-2615.048	 H	10	HIS10	0.037	
148	 3HB	2508.715	769.955	-2613.328	 H	10	HIS10	0.037	
149	 2HD	2510.552	769.461	-2611.579	 H	10	HIS10	0.186	
150	 1HE	2513.505	768.193	-2614.317	 H	10	HIS10	0.144	
151	 2HE	2512.919	768.236	-2611.762	 H	10	HIS10	0.334	
152	   N	2508.031	772.383	-2615.789	N.am	11	VAL11	-0.416	
153	  CA	2507.675	772.929	-2617.096	C.3	11	VAL11	-0.087	
154	   C	2508.141	774.359	-2617.229	C.2	11	VAL11	0.597	
155	   O	2508.742	774.763	-2618.232	O.2	11	VAL11	-0.568	
156	  CB	2506.114	772.823	-2617.315	C.3	11	VAL11	0.299	
157	 CG1	2505.546	773.526	-2618.578	C.3	11	VAL11	-0.319	
158	 CG2	2505.589	771.369	-2617.387	C.3	11	VAL11	-0.319	
159	   H	2507.317	772.011	-2615.178	 H	11	VAL11	0.272	
160	  HA	2508.195	772.346	-2617.878	 H	11	VAL11	0.097	
161	  HB	2505.627	773.304	-2616.440	 H	11	VAL11	-0.030	
162	1HG1	2505.984	773.134	-2619.515	 H	11	VAL11	0.079	
163	2HG1	2504.447	773.420	-2618.660	 H	11	VAL11	0.079	
164	3HG1	2505.724	774.619	-2618.569	 H	11	VAL11	0.079	
165	1HG2	2505.878	770.782	-2616.496	 H	11	VAL11	0.079	
166	2HG2	2504.483	771.332	-2617.429	 H	11	VAL11	0.079	
167	3HG2	2505.970	770.827	-2618.273	 H	11	VAL11	0.079	
168	   N	2507.904	775.185	-2616.267	N.am	12	GLN12	-0.416	
169	  CA	2508.354	776.568	-2616.395	C.3	12	GLN12	-0.003	
170	   C	2509.843	776.634	-2616.633	C.2	12	GLN12	0.597	
171	   O	2510.331	777.342	-2617.512	O.2	12	GLN12	-0.568	
172	  CB	2507.963	777.336	-2615.113	C.3	12	GLN12	-0.004	
173	  CG	2508.324	778.858	-2615.082	C.3	12	GLN12	-0.064	
174	  CD	2508.023	779.672	-2613.818	C.2	12	GLN12	0.695	
175	 NE2	2507.456	779.097	-2612.789	N.pl3	12	GLN12	-0.941	
176	 OE1	2508.325	780.853	-2613.741	O.2	12	GLN12	-0.609	
177	   H	2507.416	774.880	-2615.438	 H	12	GLN12	0.272	
178	  HA	2507.854	777.024	-2617.270	 H	12	GLN12	0.085	
179	 2HB	2508.439	776.836	-2614.243	 H	12	GLN12	0.017	
180	 3HB	2506.873	777.230	-2614.949	 H	12	GLN12	0.017	
181	 2HG	2507.847	779.379	-2615.933	 H	12	GLN12	0.035	
182	 3HG	2509.408	778.999	-2615.248	 H	12	GLN12	0.035	
183	1HE2	2507.349	779.692	-2611.965	 H	12	GLN12	0.425	
184	2HE2	2507.292	778.093	-2612.891	 H	12	GLN12	0.425	
185	   N	2510.628	775.928	-2615.892	N.am	13	ARG13	-0.348	
186	  CA	2512.068	775.993	-2616.123	C.3	13	ARG13	-0.264	
187	   C	2512.404	775.620	-2617.548	C.2	13	ARG13	0.734	
188	   O	2513.173	776.292	-2618.233	O.2	13	ARG13	-0.589	
189	  CB	2512.781	775.054	-2615.109	C.3	13	ARG13	-0.001	
190	  CG	2514.326	775.207	-2615.028	C.3	13	ARG13	0.039	
191	  CD	2514.953	774.220	-2614.030	C.3	13	ARG13	0.049	
192	  NE	2516.430	774.427	-2613.980	N.pl3	13	ARG13	-0.530	
193	  CZ	2517.279	773.736	-2613.225	C.cat	13	ARG13	0.808	
194	 NH1	2516.914	772.772	-2612.426	N.pl3	13	ARG13	-0.863	
195	 NH2	2518.538	774.034	-2613.282	N.pl3	13	ARG13	-0.863	
196	   H	2510.251	775.339	-2615.163	 H	13	ARG13	0.275	
197	  HA	2512.393	777.039	-2615.966	 H	13	ARG13	0.156	
198	 2HB	2512.515	774.004	-2615.347	 H	13	ARG13	0.033	
199	 3HB	2512.356	775.222	-2614.098	 H	13	ARG13	0.033	
200	 2HG	2514.575	776.252	-2614.750	 H	13	ARG13	0.029	
201	 3HG	2514.777	775.050	-2616.030	 H	13	ARG13	0.029	
202	 2HD	2514.708	773.180	-2614.338	 H	13	ARG13	0.069	
203	 3HD	2514.498	774.367	-2613.027	 H	13	ARG13	0.069	
204	  HE	2516.882	775.149	-2614.552	 H	13	ARG13	0.346	
205	1HH1	2515.908	772.586	-2612.429	 H	13	ARG13	0.448	
206	2HH1	2517.627	772.289	-2611.877	 H	13	ARG13	0.448	
207	1HH2	2518.806	774.792	-2613.914	 H	13	ARG13	0.448	
208	2HH2	2519.174	773.493	-2612.693	 H	13	ARG13	0.448	
209	   N	2511.867	774.566	-2618.062	N.am	14	VAL14	-0.416	
210	  CA	2512.192	774.206	-2619.439	C.3	14	VAL14	-0.087	
211	   C	2511.862	775.335	-2620.385	C.2	14	VAL14	0.597	
212	   O	2512.655	775.716	-2621.255	O.2	14	VAL14	-0.568	
213	  CB	2511.419	772.888	-2619.845	C.3	14	VAL14	0.299	
214	 CG1	2511.507	772.469	-2621.338	C.3	14	VAL14	-0.319	
215	 CG2	2511.850	771.636	-2619.044	C.3	14	VAL14	-0.319	
216	   H	2511.232	773.998	-2617.519	 H	14	VAL14	0.272	
217	  HA	2513.280	774.028	-2619.514	 H	14	VAL14	0.097	
218	  HB	2510.343	773.060	-2619.629	 H	14	VAL14	-0.030	
219	1HG1	2512.549	772.292	-2621.667	 H	14	VAL14	0.079	
220	2HG1	2510.934	771.546	-2621.550	 H	14	VAL14	0.079	
221	3HG1	2511.078	773.231	-2622.017	 H	14	VAL14	0.079	
222	1HG2	2511.763	771.796	-2617.953	 H	14	VAL14	0.079	
223	2HG2	2511.214	770.760	-2619.275	 H	14	VAL14	0.079	
224	3HG2	2512.898	771.346	-2619.250	 H	14	VAL14	0.079	
225	   N	2510.717	775.921	-2620.283	N.am	15	MET15	-0.416	
226	  CA	2510.397	777.014	-2621.197	C.3	15	MET15	-0.024	
227	   C	2511.427	778.114	-2621.110	C.2	15	MET15	0.597	
228	   O	2511.930	778.624	-2622.123	O.2	15	MET15	-0.568	
229	  CB	2508.976	777.560	-2620.888	C.3	15	MET15	0.034	
230	  CG	2507.813	776.562	-2621.079	C.3	15	MET15	0.002	
231	  SD	2506.240	777.428	-2620.965	S.3	15	MET15	-0.274	
232	  CE	2505.158	775.998	-2620.827	C.3	15	MET15	-0.054	
233	   H	2510.052	775.629	-2619.582	 H	15	MET15	0.272	
234	  HA	2510.422	776.626	-2622.233	 H	15	MET15	0.088	
235	 2HB	2508.773	778.438	-2621.531	 H	15	MET15	0.024	
236	 3HB	2508.940	777.953	-2619.852	 H	15	MET15	0.024	
237	 2HG	2507.856	775.776	-2620.301	 H	15	MET15	0.044	
238	 3HG	2507.876	776.046	-2622.055	 H	15	MET15	0.044	
239	 1HE	2505.302	775.310	-2621.680	 H	15	MET15	0.068	
240	 2HE	2505.368	775.446	-2619.895	 H	15	MET15	0.068	
241	 3HE	2504.101	776.314	-2620.811	 H	15	MET15	0.068	
242	   N	2511.796	778.535	-2619.948	N.am	16	ALA16	-0.416	
243	  CA	2512.793	779.599	-2619.865	C.3	16	ALA16	0.034	
244	   C	2514.063	779.206	-2620.581	C.2	16	ALA16	0.597	
245	   O	2514.182	778.117	-2621.156	O.2	16	ALA16	-0.568	
246	  CB	2513.020	779.911	-2618.376	C.3	16	ALA16	-0.183	
247	   H	2511.402	778.135	-2619.108	 H	16	ALA16	0.272	
248	  HA	2512.394	780.497	-2620.373	 H	16	ALA16	0.082	
249	 1HB	2512.086	780.232	-2617.876	 H	16	ALA16	0.060	
250	 2HB	2513.397	779.031	-2617.819	 H	16	ALA16	0.060	
251	 3HB	2513.753	780.725	-2618.233	 H	16	ALA16	0.060	
@<TRIPOS>BOND
1 1 2 1
2 1 10 1
3 2 3 1
4 2 5 1
5 2 11 1
6 3 4 2
7 3 16 1
8 5 6 1
9 6 7 1
10 7 8 2
11 7 9 1
12 5 12 1
13 5 13 1
14 6 14 1
15 6 15 1
16 16 17 1
17 16 24 1
18 17 18 1
19 17 20 1
20 17 25 1
21 18 19 2
22 18 30 1
23 20 21 1
24 21 22 1
25 21 23 2
26 20 26 1
27 20 27 1
28 22 28 1
29 22 29 1
30 30 31 1
31 30 36 1
32 31 32 1
33 31 34 1
34 31 37 1
35 32 33 2
36 32 44 1
37 34 35 1
38 35 36 1
39 34 38 1
40 34 39 1
41 35 40 1
42 35 41 1
43 36 42 1
44 36 43 1
45 44 45 1
46 44 53 1
47 45 46 1
48 45 48 1
49 45 54 1
50 46 47 2
51 46 59 1
52 48 49 1
53 49 50 1
54 50 51 2
55 50 52 1
56 48 55 1
57 48 56 1
58 49 57 1
59 49 58 1
60 59 60 1
61 59 65 1
62 60 61 1
63 60 63 1
64 60 66 1
65 61 62 2
66 61 70 1
67 63 64 1
68 63 67 1
69 63 68 1
70 64 69 1
71 70 71 1
72 70 78 1
73 71 72 1
74 71 74 1
75 71 79 1
76 72 73 2
77 72 89 1
78 74 75 1
79 74 76 1
80 75 77 1
81 74 80 1
82 75 81 1
83 75 82 1
84 76 83 1
85 76 84 1
86 76 85 1
87 77 86 1
88 77 87 1
89 77 88 1
90 89 90 1
91 89 97 1
92 90 91 1
93 90 93 1
94 90 98 1
95 91 92 2
96 91 108 1
97 93 94 1
98 94 95 1
99 94 96 1
100 93 99 1
101 93 100 1
102 94 101 1
103 95 102 1
104 95 103 1
105 95 104 1
106 96 105 1
107 96 106 1
108 96 107 1
109 108 109 1
110 108 116 1
111 109 110 1
112 109 112 1
113 109 117 1
114 110 111 2
115 110 120 1
116 112 113 1
117 113 114 2
118 113 115 1
119 112 118 1
120 112 119 1
121 120 121 1
122 120 129 1
123 121 122 1
124 121 124 1
125 121 130 1
126 122 123 2
127 122 135 1
128 124 125 1
129 125 126 1
130 126 127 2
131 126 128 1
132 124 131 1
133 124 132 1
134 125 133 1
135 125 134 1
136 135 136 1
137 135 145 1
138 136 137 1
139 136 139 1
140 136 146 1
141 137 138 2
142 137 152 1
143 139 140 1
144 140 141 2
145 141 144 1
146 140 142 1
147 142 143 2
148 143 144 1
149 139 147 1
150 139 148 1
151 141 149 1
152 143 150 1
153 144 151 1
154 152 153 1
155 152 159 1
156 153 154 1
157 153 156 1
158 153 160 1
159 154 155 2
160 154 168 1
161 156 157 1
162 156 158 1
163 156 161 1
164 157 162 1
165 157 163 1
166 157 164 1
167 158 165 1
168 158 166 1
169 158 167 1
170 168 169 1
171 168 177 1
172 169 170 1
173 169 172 1
174 169 178 1
175 170 171 2
176 170 185 1
177 172 173 1
178 173 174 1
179 174 175 1
180 174 176 2
181 172 179 1
182 172 180 1
183 173 181 1
184 173 182 1
185 175 183 1
186 175 184 1
187 185 186 1
188 185 196 1
189 186 187 1
190 186 189 1
191 186 197 1
192 187 188 2
193 187 209 1
194 189 190 1
195 190 191 1
196 191 192 1
197 192 193 1
198 193 194 2
199 193 195 1
200 189 198 1
201 189 199 1
202 190 200 1
203 190 201 1
204 191 202 1
205 191 203 1
206 192 204 1
207 194 205 1
208 194 206 1
209 195 207 1
210 195 208 1
211 209 210 1
212 209 216 1
213 210 211 1
214 210 213 1
215 210 217 1
216 211 212 2
217 211 225 1
218 213 214 1
219 213 215 1
220 213 218 1
221 214 219 1
222 214 220 1
223 214 221 1
224 215 222 1
225 215 223 1
226 215 224 1
227 225 226 1
228 225 233 1
229 226 227 1
230 226 229 1
231 226 234 1
232 227 228 2
233 227 242 1
234 229 230 1
235 230 231 1
236 231 232 1
237 229 235 1
238 229 236 1
239 230 237 1
240 230 238 1
241 232 239 1
242 232 240 1
243 232 241 1
244 242 243 1
245 242 247 1
246 243 244 1
247 243 246 1
248 243 248 1
249 244 245 2
250 246 249 1
251 246 250 1
252 246 251 1
@<TRIPOS>SUBSTRUCTURE
1	GLU1	1	RESIDUE	1 ****	GLU
2	ASN2	16	RESIDUE	1 ****	ASN
3	PRO3	30	RESIDUE	1 ****	PRO
4	GLU4	44	RESIDUE	1 ****	GLU
5	SER5	59	RESIDUE	1 ****	SER
6	ILE6	70	RESIDUE	1 ****	ILE
7	LEU7	89	RESIDUE	1 ****	LEU
8	ASP8	108	RESIDUE	1 ****	ASP
9	GLU9	120	RESIDUE	1 ****	GLU
10	HIS10	135	RESIDUE	1 ****	HIS
11	VAL11	152	RESIDUE	1 ****	VAL
12	GLN12	168	RESIDUE	1 ****	GLN
13	ARG13	185	RESIDUE	1 ****	ARG
14	VAL14	209	RESIDUE	1 ****	VAL
15	MET15	225	RESIDUE	1 ****	MET
16	ALA16	242	RESIDUE	1 ****	ALA
