@<TRIPOS>MOLECULE
13-20
265 266 16              
SMALL
USER_CHARGES
@<TRIPOS>ATOM
1	   N	2159.898	658.163	-2239.980	N.3	1	GLU1	-0.516	
2	  CA	2160.457	659.512	-2239.980	C.3	1	GLU1	0.040	
3	   C	2161.966	659.472	-2239.980	C.2	1	GLU1	0.537	
4	   O	2162.642	660.171	-2240.749	O.2	1	GLU1	-0.582	
5	  CB	2159.934	660.297	-2238.744	C.3	1	GLU1	0.056	
6	  CG	2160.409	661.782	-2238.633	C.3	1	GLU1	0.014	
7	  CD	2159.985	662.586	-2237.417	C.2	1	GLU1	0.805	
8	 OE1	2159.257	662.084	-2236.540	O.co2	1	GLU1	-0.819	
9	 OE2	2160.415	663.756	-2237.345	O.co2	1	GLU1	-0.819	
10	   H	2160.525	657.284	-2239.980	 H	1	GLU1	0.294	
11	  HA	2160.131	660.030	-2240.901	 H	1	GLU1	0.111	
12	 2HB	2160.223	659.766	-2237.813	 H	1	GLU1	-0.017	
13	 3HB	2158.827	660.287	-2238.730	 H	1	GLU1	-0.017	
14	 2HG	2160.099	662.367	-2239.513	 H	1	GLU1	-0.043	
15	 3HG	2161.509	661.849	-2238.604	 H	1	GLU1	-0.043	
16	   N	2162.571	658.686	-2239.155	N.am	2	ASN2	-0.416	
17	  CA	2164.030	658.647	-2239.155	C.3	2	ASN2	0.014	
18	   C	2164.562	658.292	-2240.524	C.2	2	ASN2	0.597	
19	   O	2165.477	658.922	-2241.052	O.2	2	ASN2	-0.568	
20	  CB	2164.522	657.624	-2238.091	C.3	2	ASN2	-0.204	
21	  CG	2164.058	657.848	-2236.647	C.2	2	ASN2	0.713	
22	 ND2	2164.652	658.763	-2235.929	N.pl3	2	ASN2	-0.919	
23	 OD1	2163.137	657.215	-2236.153	O.2	2	ASN2	-0.593	
24	   H	2162.042	658.107	-2238.519	 H	2	ASN2	0.272	
25	  HA	2164.408	659.657	-2238.910	 H	2	ASN2	0.105	
26	 2HB	2165.626	657.565	-2238.094	 H	2	ASN2	0.080	
27	 3HB	2164.193	656.606	-2238.376	 H	2	ASN2	0.080	
28	1HD2	2164.171	658.936	-2235.043	 H	2	ASN2	0.420	
29	2HD2	2165.354	659.335	-2236.398	 H	2	ASN2	0.420	
30	   N	2164.040	657.297	-2241.158	N.am	3	PRO3	-0.255	
31	  CA	2164.492	656.888	-2242.479	C.3	3	PRO3	-0.027	
32	   C	2164.094	657.911	-2243.556	C.2	3	PRO3	0.590	
33	   O	2164.918	658.294	-2244.388	O.2	3	PRO3	-0.575	
34	  CB	2163.788	655.533	-2242.649	C.3	3	PRO3	-0.007	
35	  CG	2162.504	655.685	-2241.819	C.3	3	PRO3	0.019	
36	  CD	2162.962	656.504	-2240.609	C.3	3	PRO3	0.019	
37	  HA	2165.578	656.767	-2242.493	 H	3	PRO3	0.064	
38	 2HB	2164.411	654.752	-2242.208	 H	3	PRO3	0.025	
39	 3HB	2163.590	655.285	-2243.694	 H	3	PRO3	0.025	
40	 2HG	2162.076	654.723	-2241.528	 H	3	PRO3	0.021	
41	 3HG	2161.767	656.257	-2242.387	 H	3	PRO3	0.021	
42	 2HD	2163.351	655.854	-2239.822	 H	3	PRO3	0.039	
43	 3HD	2162.165	657.140	-2240.217	 H	3	PRO3	0.039	
44	   N	2162.890	658.371	-2243.589	N.am	4	GLU4	-0.516	
45	  CA	2162.531	659.342	-2244.619	C.3	4	GLU4	0.040	
46	   C	2163.430	660.553	-2244.557	C.2	4	GLU4	0.537	
47	   O	2163.957	661.033	-2245.572	O.2	4	GLU4	-0.582	
48	  CB	2161.042	659.762	-2244.449	C.3	4	GLU4	0.056	
49	  CG	2160.495	660.765	-2245.515	C.3	4	GLU4	0.014	
50	  CD	2159.068	661.262	-2245.372	C.2	4	GLU4	0.805	
51	 OE1	2158.341	660.864	-2244.441	O.co2	4	GLU4	-0.819	
52	 OE2	2158.679	662.092	-2246.220	O.co2	4	GLU4	-0.819	
53	   H	2162.205	658.065	-2242.913	 H	4	GLU4	0.294	
54	  HA	2162.662	658.872	-2245.610	 H	4	GLU4	0.111	
55	 2HB	2160.889	660.201	-2243.443	 H	4	GLU4	-0.017	
56	 3HB	2160.394	658.864	-2244.456	 H	4	GLU4	-0.017	
57	 2HG	2160.576	660.350	-2246.533	 H	4	GLU4	-0.043	
58	 3HG	2161.083	661.697	-2245.526	 H	4	GLU4	-0.043	
59	   N	2163.657	661.106	-2243.414	N.am	5	SER5	-0.416	
60	  CA	2164.527	662.277	-2243.355	C.3	5	SER5	-0.025	
61	   C	2165.885	661.971	-2243.940	C.2	5	SER5	0.597	
62	   O	2166.433	662.724	-2244.745	O.2	5	SER5	-0.568	
63	  CB	2164.638	662.809	-2241.905	C.3	5	SER5	0.212	
64	  OG	2165.369	661.929	-2241.044	O.3	5	SER5	-0.655	
65	   H	2163.239	660.734	-2242.573	 H	5	SER5	0.272	
66	  HA	2164.078	663.067	-2243.984	 H	5	SER5	0.084	
67	 2HB	2163.638	663.003	-2241.472	 H	5	SER5	0.035	
68	 3HB	2165.143	663.795	-2241.907	 H	5	SER5	0.035	
69	  HG	2164.880	661.105	-2240.993	 H	5	SER5	0.428	
70	   N	2166.490	660.887	-2243.586	N.am	6	ILE6	-0.416	
71	  CA	2167.803	660.592	-2244.152	C.3	6	ILE6	-0.060	
72	   C	2167.746	660.554	-2245.660	C.2	6	ILE6	0.597	
73	   O	2168.581	661.142	-2246.364	O.2	6	ILE6	-0.568	
74	  CB	2168.402	659.256	-2243.552	C.3	6	ILE6	0.130	
75	 CG1	2168.421	659.193	-2241.991	C.3	6	ILE6	-0.043	
76	 CG2	2169.843	658.953	-2244.067	C.3	6	ILE6	-0.320	
77	 CD1	2168.690	657.804	-2241.376	C.3	6	ILE6	-0.066	
78	   H	2166.061	660.253	-2242.927	 H	6	ILE6	0.272	
79	  HA	2168.477	661.426	-2243.884	 H	6	ILE6	0.087	
80	  HB	2167.744	658.430	-2243.896	 H	6	ILE6	0.019	
81	2HG1	2167.439	659.513	-2241.595	 H	6	ILE6	0.024	
82	3HG1	2169.137	659.935	-2241.586	 H	6	ILE6	0.024	
83	1HG2	2169.902	658.860	-2245.165	 H	6	ILE6	0.088	
84	2HG2	2170.566	659.735	-2243.764	 H	6	ILE6	0.088	
85	3HG2	2170.233	657.991	-2243.688	 H	6	ILE6	0.088	
86	1HD1	2167.962	657.050	-2241.731	 H	6	ILE6	0.019	
87	2HD1	2169.701	657.425	-2241.611	 H	6	ILE6	0.019	
88	3HD1	2168.614	657.834	-2240.273	 H	6	ILE6	0.019	
89	   N	2166.800	659.891	-2246.233	N.am	7	LEU7	-0.416	
90	  CA	2166.745	659.855	-2247.692	C.3	7	LEU7	-0.052	
91	   C	2166.673	661.250	-2248.265	C.2	7	LEU7	0.597	
92	   O	2167.394	661.612	-2249.207	O.2	7	LEU7	-0.568	
93	  CB	2165.542	658.995	-2248.172	C.3	7	LEU7	-0.110	
94	  CG	2165.468	657.516	-2247.706	C.3	7	LEU7	0.353	
95	 CD1	2164.278	656.810	-2248.371	C.3	7	LEU7	-0.412	
96	 CD2	2166.762	656.736	-2247.997	C.3	7	LEU7	-0.412	
97	   H	2166.108	659.404	-2245.682	 H	7	LEU7	0.272	
98	  HA	2167.687	659.415	-2248.066	 H	7	LEU7	0.092	
99	 2HB	2165.518	659.011	-2249.280	 H	7	LEU7	0.046	
100	 3HB	2164.602	659.498	-2247.868	 H	7	LEU7	0.046	
101	  HG	2165.298	657.508	-2246.609	 H	7	LEU7	-0.036	
102	1HD1	2163.321	657.320	-2248.149	 H	7	LEU7	0.100	
103	2HD1	2164.377	656.770	-2249.473	 H	7	LEU7	0.100	
104	3HD1	2164.171	655.769	-2248.015	 H	7	LEU7	0.100	
105	1HD2	2167.037	656.766	-2249.067	 H	7	LEU7	0.100	
106	2HD2	2167.615	657.147	-2247.426	 H	7	LEU7	0.100	
107	3HD2	2166.680	655.674	-2247.701	 H	7	LEU7	0.100	
108	   N	2165.836	662.092	-2247.759	N.am	8	ASP8	-0.516	
109	  CA	2165.766	663.441	-2248.313	C.3	8	ASP8	0.038	
110	   C	2167.113	664.120	-2248.256	C.2	8	ASP8	0.537	
111	   O	2167.586	664.724	-2249.231	O.2	8	ASP8	-0.582	
112	  CB	2164.688	664.281	-2247.572	C.3	8	ASP8	-0.030	
113	  CG	2164.470	665.701	-2248.113	C.2	8	ASP8	0.799	
114	 OD1	2164.535	665.900	-2249.344	O.co2	8	ASP8	-0.801	
115	 OD2	2164.279	666.628	-2247.299	O.co2	8	ASP8	-0.801	
116	   H	2165.238	661.821	-2246.991	 H	8	ASP8	0.294	
117	  HA	2165.483	663.362	-2249.380	 H	8	ASP8	0.088	
118	 2HB	2164.946	664.365	-2246.500	 H	8	ASP8	-0.012	
119	 3HB	2163.709	663.776	-2247.605	 H	8	ASP8	-0.012	
120	   N	2167.793	664.070	-2247.161	N.am	9	GLU9	-0.516	
121	  CA	2169.096	664.727	-2247.106	C.3	9	GLU9	0.040	
122	   C	2170.014	664.199	-2248.182	C.2	9	GLU9	0.537	
123	   O	2170.678	664.952	-2248.908	O.2	9	GLU9	-0.582	
124	  CB	2169.730	664.520	-2245.701	C.3	9	GLU9	0.056	
125	  CG	2171.113	665.212	-2245.472	C.3	9	GLU9	0.014	
126	  CD	2171.815	664.999	-2244.144	C.2	9	GLU9	0.805	
127	 OE1	2171.293	664.309	-2243.247	O.co2	9	GLU9	-0.819	
128	 OE2	2172.934	665.536	-2244.013	O.co2	9	GLU9	-0.819	
129	   H	2167.430	663.585	-2246.354	 H	9	GLU9	0.294	
130	  HA	2168.955	665.809	-2247.282	 H	9	GLU9	0.111	
131	 2HB	2169.842	663.436	-2245.497	 H	9	GLU9	-0.017	
132	 3HB	2169.033	664.874	-2244.917	 H	9	GLU9	-0.017	
133	 2HG	2171.041	666.302	-2245.613	 H	9	GLU9	-0.043	
134	 3HG	2171.859	664.866	-2246.206	 H	9	GLU9	-0.043	
135	   N	2170.110	662.923	-2248.351	N.am	10	HIS10	-0.416	
136	  CA	2170.997	662.411	-2249.392	C.3	10	HIS10	-0.058	
137	   C	2170.630	662.975	-2250.743	C.2	10	HIS10	0.597	
138	   O	2171.483	663.439	-2251.515	O.2	10	HIS10	-0.568	
139	  CB	2170.833	660.882	-2249.386	C.3	10	HIS10	-0.007	
140	  CG	2172.118	660.171	-2249.078	C.2	10	HIS10	0.187	
141	 CD2	2172.499	659.837	-2247.785	C.2	10	HIS10	-0.221	
142	 ND1	2173.069	659.765	-2250.010	N.2	10	HIS10	-0.543	
143	 CE1	2173.976	659.207	-2249.187	C.2	10	HIS10	0.163	
144	 NE2	2173.714	659.205	-2247.852	N.pl3	10	HIS10	-0.280	
145	   H	2169.579	662.288	-2247.772	 H	10	HIS10	0.272	
146	  HA	2172.017	662.768	-2249.167	 H	10	HIS10	0.136	
147	 2HB	2170.467	660.515	-2250.365	 H	10	HIS10	0.037	
148	 3HB	2170.077	660.546	-2248.645	 H	10	HIS10	0.037	
149	 2HD	2171.914	660.053	-2246.896	 H	10	HIS10	0.186	
150	 1HE	2174.866	658.785	-2249.635	 H	10	HIS10	0.144	
151	 2HE	2174.281	658.828	-2247.079	 H	10	HIS10	0.334	
152	   N	2169.392	662.975	-2251.106	N.am	11	VAL11	-0.416	
153	  CA	2169.037	663.520	-2252.413	C.3	11	VAL11	-0.087	
154	   C	2169.502	664.951	-2252.546	C.2	11	VAL11	0.597	
155	   O	2170.104	665.355	-2253.549	O.2	11	VAL11	-0.568	
156	  CB	2167.476	663.414	-2252.632	C.3	11	VAL11	0.299	
157	 CG1	2166.907	664.118	-2253.895	C.3	11	VAL11	-0.319	
158	 CG2	2166.951	661.960	-2252.704	C.3	11	VAL11	-0.319	
159	   H	2168.679	662.603	-2250.495	 H	11	VAL11	0.272	
160	  HA	2169.556	662.937	-2253.195	 H	11	VAL11	0.097	
161	  HB	2166.989	663.895	-2251.757	 H	11	VAL11	-0.030	
162	1HG1	2167.346	663.725	-2254.832	 H	11	VAL11	0.079	
163	2HG1	2165.808	664.011	-2253.977	 H	11	VAL11	0.079	
164	3HG1	2167.086	665.210	-2253.886	 H	11	VAL11	0.079	
165	1HG2	2167.240	661.374	-2251.813	 H	11	VAL11	0.079	
166	2HG2	2165.845	661.924	-2252.747	 H	11	VAL11	0.079	
167	3HG2	2167.332	661.419	-2253.590	 H	11	VAL11	0.079	
168	   N	2169.266	665.777	-2251.584	N.am	12	GLN12	-0.416	
169	  CA	2169.715	667.159	-2251.712	C.3	12	GLN12	-0.003	
170	   C	2171.205	667.226	-2251.950	C.2	12	GLN12	0.597	
171	   O	2171.692	667.933	-2252.829	O.2	12	GLN12	-0.568	
172	  CB	2169.325	667.928	-2250.430	C.3	12	GLN12	-0.004	
173	  CG	2169.686	669.449	-2250.399	C.3	12	GLN12	-0.064	
174	  CD	2169.385	670.264	-2249.135	C.2	12	GLN12	0.695	
175	 NE2	2168.818	669.688	-2248.106	N.pl3	12	GLN12	-0.941	
176	 OE1	2169.687	671.445	-2249.058	O.2	12	GLN12	-0.609	
177	   H	2168.777	665.471	-2250.755	 H	12	GLN12	0.272	
178	  HA	2169.216	667.616	-2252.587	 H	12	GLN12	0.085	
179	 2HB	2169.801	667.428	-2249.560	 H	12	GLN12	0.017	
180	 3HB	2168.235	667.821	-2250.266	 H	12	GLN12	0.017	
181	 2HG	2169.209	669.970	-2251.250	 H	12	GLN12	0.035	
182	 3HG	2170.770	669.591	-2250.565	 H	12	GLN12	0.035	
183	1HE2	2168.711	670.283	-2247.282	 H	12	GLN12	0.425	
184	2HE2	2168.653	668.685	-2248.208	 H	12	GLN12	0.425	
185	   N	2171.990	666.519	-2251.209	N.am	13	ARG13	-0.348	
186	  CA	2173.430	666.584	-2251.440	C.3	13	ARG13	-0.264	
187	   C	2173.766	666.212	-2252.865	C.2	13	ARG13	0.734	
188	   O	2174.534	666.883	-2253.550	O.2	13	ARG13	-0.589	
189	  CB	2174.143	665.646	-2250.426	C.3	13	ARG13	-0.001	
190	  CG	2175.688	665.799	-2250.345	C.3	13	ARG13	0.039	
191	  CD	2176.315	664.812	-2249.347	C.3	13	ARG13	0.049	
192	  NE	2177.792	665.018	-2249.297	N.pl3	13	ARG13	-0.530	
193	  CZ	2178.641	664.327	-2248.542	C.cat	13	ARG13	0.808	
194	 NH1	2178.276	663.364	-2247.743	N.pl3	13	ARG13	-0.863	
195	 NH2	2179.900	664.626	-2248.599	N.pl3	13	ARG13	-0.863	
196	   H	2171.613	665.930	-2250.480	 H	13	ARG13	0.275	
197	  HA	2173.755	667.630	-2251.283	 H	13	ARG13	0.156	
198	 2HB	2173.877	664.595	-2250.664	 H	13	ARG13	0.033	
199	 3HB	2173.718	665.813	-2249.415	 H	13	ARG13	0.033	
200	 2HG	2175.937	666.844	-2250.067	 H	13	ARG13	0.029	
201	 3HG	2176.139	665.642	-2251.347	 H	13	ARG13	0.029	
202	 2HD	2176.070	663.771	-2249.655	 H	13	ARG13	0.069	
203	 3HD	2175.859	664.958	-2248.344	 H	13	ARG13	0.069	
204	  HE	2178.244	665.740	-2249.869	 H	13	ARG13	0.346	
205	1HH1	2177.270	663.178	-2247.746	 H	13	ARG13	0.448	
206	2HH1	2178.989	662.881	-2247.195	 H	13	ARG13	0.448	
207	1HH2	2180.168	665.383	-2249.231	 H	13	ARG13	0.448	
208	2HH2	2180.536	664.084	-2248.010	 H	13	ARG13	0.448	
209	   N	2173.229	665.157	-2253.379	N.am	14	VAL14	-0.416	
210	  CA	2173.553	664.797	-2254.756	C.3	14	VAL14	-0.087	
211	   C	2173.224	665.927	-2255.702	C.2	14	VAL14	0.597	
212	   O	2174.017	666.308	-2256.572	O.2	14	VAL14	-0.568	
213	  CB	2172.781	663.480	-2255.162	C.3	14	VAL14	0.299	
214	 CG1	2172.869	663.061	-2256.656	C.3	14	VAL14	-0.319	
215	 CG2	2173.212	662.228	-2254.361	C.3	14	VAL14	-0.319	
216	   H	2172.594	664.589	-2252.836	 H	14	VAL14	0.272	
217	  HA	2174.642	664.620	-2254.831	 H	14	VAL14	0.097	
218	  HB	2171.704	663.652	-2254.946	 H	14	VAL14	-0.030	
219	1HG1	2173.910	662.883	-2256.984	 H	14	VAL14	0.079	
220	2HG1	2172.296	662.138	-2256.867	 H	14	VAL14	0.079	
221	3HG1	2172.440	663.823	-2257.334	 H	14	VAL14	0.079	
222	1HG2	2173.125	662.387	-2253.271	 H	14	VAL14	0.079	
223	2HG2	2172.576	661.352	-2254.593	 H	14	VAL14	0.079	
224	3HG2	2174.260	661.937	-2254.567	 H	14	VAL14	0.079	
225	   N	2172.079	666.513	-2255.600	N.am	15	MET15	-0.416	
226	  CA	2171.759	667.605	-2256.514	C.3	15	MET15	-0.024	
227	   C	2172.789	668.705	-2256.427	C.2	15	MET15	0.597	
228	   O	2173.292	669.215	-2257.440	O.2	15	MET15	-0.568	
229	  CB	2170.337	668.151	-2256.205	C.3	15	MET15	0.034	
230	  CG	2169.175	667.153	-2256.396	C.3	15	MET15	0.002	
231	  SD	2167.601	668.019	-2256.282	S.3	15	MET15	-0.274	
232	  CE	2166.520	666.590	-2256.145	C.3	15	MET15	-0.054	
233	   H	2171.414	666.220	-2254.899	 H	15	MET15	0.272	
234	  HA	2171.784	667.218	-2257.550	 H	15	MET15	0.088	
235	 2HB	2170.135	669.030	-2256.848	 H	15	MET15	0.024	
236	 3HB	2170.302	668.544	-2255.169	 H	15	MET15	0.024	
237	 2HG	2169.218	666.367	-2255.618	 H	15	MET15	0.044	
238	 3HG	2169.238	666.638	-2257.372	 H	15	MET15	0.044	
239	 1HE	2166.663	665.901	-2256.997	 H	15	MET15	0.068	
240	 2HE	2166.729	666.038	-2255.212	 H	15	MET15	0.068	
241	 3HE	2165.463	666.905	-2256.128	 H	15	MET15	0.068	
242	   N	2173.158	669.127	-2255.265	N.am	16	ARG16	-0.348	
243	  CA	2174.155	670.190	-2255.182	C.3	16	ARG16	-0.264	
244	   C	2175.425	669.797	-2255.898	C.2	16	ARG16	0.734	
245	   O	2175.539	668.721	-2256.479	O.2	16	ARG16	-0.589	
246	  CB	2174.424	670.509	-2253.684	C.3	16	ARG16	-0.001	
247	  CG	2175.249	671.798	-2253.411	C.3	16	ARG16	0.039	
248	  CD	2175.499	672.018	-2251.910	C.3	16	ARG16	0.049	
249	  NE	2176.275	673.277	-2251.710	N.pl3	16	ARG16	-0.530	
250	  CZ	2176.667	673.759	-2250.534	C.cat	16	ARG16	0.808	
251	 NH1	2176.419	673.176	-2249.396	N.pl3	16	ARG16	-0.863	
252	 NH2	2177.331	674.872	-2250.517	N.pl3	16	ARG16	-0.863	
253	   H	2172.763	668.727	-2254.426	 H	16	ARG16	0.275	
254	  HA	2173.746	671.083	-2255.692	 H	16	ARG16	0.156	
255	 2HB	2174.921	669.633	-2253.217	 H	16	ARG16	0.033	
256	 3HB	2173.455	670.590	-2253.150	 H	16	ARG16	0.033	
257	 2HG	2174.719	672.669	-2253.849	 H	16	ARG16	0.029	
258	 3HG	2176.223	671.745	-2253.940	 H	16	ARG16	0.029	
259	 2HD	2176.048	671.143	-2251.497	 H	16	ARG16	0.069	
260	 3HD	2174.526	672.061	-2251.375	 H	16	ARG16	0.069	
261	  HE	2176.554	673.857	-2252.507	 H	16	ARG16	0.346	
262	1HH1	2175.894	672.302	-2249.480	 H	16	ARG16	0.448	
263	2HH1	2176.754	673.611	-2248.535	 H	16	ARG16	0.448	
264	1HH2	2177.516	675.315	-2251.418	 H	16	ARG16	0.448	
265	2HH2	2177.621	675.228	-2249.604	 H	16	ARG16	0.448	
@<TRIPOS>BOND
1 1 2 1
2 1 10 1
3 2 3 1
4 2 5 1
5 2 11 1
6 3 4 2
7 3 16 1
8 5 6 1
9 6 7 1
10 7 8 2
11 7 9 1
12 5 12 1
13 5 13 1
14 6 14 1
15 6 15 1
16 16 17 1
17 16 24 1
18 17 18 1
19 17 20 1
20 17 25 1
21 18 19 2
22 18 30 1
23 20 21 1
24 21 22 1
25 21 23 2
26 20 26 1
27 20 27 1
28 22 28 1
29 22 29 1
30 30 31 1
31 30 36 1
32 31 32 1
33 31 34 1
34 31 37 1
35 32 33 2
36 32 44 1
37 34 35 1
38 35 36 1
39 34 38 1
40 34 39 1
41 35 40 1
42 35 41 1
43 36 42 1
44 36 43 1
45 44 45 1
46 44 53 1
47 45 46 1
48 45 48 1
49 45 54 1
50 46 47 2
51 46 59 1
52 48 49 1
53 49 50 1
54 50 51 2
55 50 52 1
56 48 55 1
57 48 56 1
58 49 57 1
59 49 58 1
60 59 60 1
61 59 65 1
62 60 61 1
63 60 63 1
64 60 66 1
65 61 62 2
66 61 70 1
67 63 64 1
68 63 67 1
69 63 68 1
70 64 69 1
71 70 71 1
72 70 78 1
73 71 72 1
74 71 74 1
75 71 79 1
76 72 73 2
77 72 89 1
78 74 75 1
79 74 76 1
80 75 77 1
81 74 80 1
82 75 81 1
83 75 82 1
84 76 83 1
85 76 84 1
86 76 85 1
87 77 86 1
88 77 87 1
89 77 88 1
90 89 90 1
91 89 97 1
92 90 91 1
93 90 93 1
94 90 98 1
95 91 92 2
96 91 108 1
97 93 94 1
98 94 95 1
99 94 96 1
100 93 99 1
101 93 100 1
102 94 101 1
103 95 102 1
104 95 103 1
105 95 104 1
106 96 105 1
107 96 106 1
108 96 107 1
109 108 109 1
110 108 116 1
111 109 110 1
112 109 112 1
113 109 117 1
114 110 111 2
115 110 120 1
116 112 113 1
117 113 114 2
118 113 115 1
119 112 118 1
120 112 119 1
121 120 121 1
122 120 129 1
123 121 122 1
124 121 124 1
125 121 130 1
126 122 123 2
127 122 135 1
128 124 125 1
129 125 126 1
130 126 127 2
131 126 128 1
132 124 131 1
133 124 132 1
134 125 133 1
135 125 134 1
136 135 136 1
137 135 145 1
138 136 137 1
139 136 139 1
140 136 146 1
141 137 138 2
142 137 152 1
143 139 140 1
144 140 141 2
145 141 144 1
146 140 142 1
147 142 143 2
148 143 144 1
149 139 147 1
150 139 148 1
151 141 149 1
152 143 150 1
153 144 151 1
154 152 153 1
155 152 159 1
156 153 154 1
157 153 156 1
158 153 160 1
159 154 155 2
160 154 168 1
161 156 157 1
162 156 158 1
163 156 161 1
164 157 162 1
165 157 163 1
166 157 164 1
167 158 165 1
168 158 166 1
169 158 167 1
170 168 169 1
171 168 177 1
172 169 170 1
173 169 172 1
174 169 178 1
175 170 171 2
176 170 185 1
177 172 173 1
178 173 174 1
179 174 175 1
180 174 176 2
181 172 179 1
182 172 180 1
183 173 181 1
184 173 182 1
185 175 183 1
186 175 184 1
187 185 186 1
188 185 196 1
189 186 187 1
190 186 189 1
191 186 197 1
192 187 188 2
193 187 209 1
194 189 190 1
195 190 191 1
196 191 192 1
197 192 193 1
198 193 194 2
199 193 195 1
200 189 198 1
201 189 199 1
202 190 200 1
203 190 201 1
204 191 202 1
205 191 203 1
206 192 204 1
207 194 205 1
208 194 206 1
209 195 207 1
210 195 208 1
211 209 210 1
212 209 216 1
213 210 211 1
214 210 213 1
215 210 217 1
216 211 212 2
217 211 225 1
218 213 214 1
219 213 215 1
220 213 218 1
221 214 219 1
222 214 220 1
223 214 221 1
224 215 222 1
225 215 223 1
226 215 224 1
227 225 226 1
228 225 233 1
229 226 227 1
230 226 229 1
231 226 234 1
232 227 228 2
233 227 242 1
234 229 230 1
235 230 231 1
236 231 232 1
237 229 235 1
238 229 236 1
239 230 237 1
240 230 238 1
241 232 239 1
242 232 240 1
243 232 241 1
244 242 243 1
245 242 253 1
246 243 244 1
247 243 246 1
248 243 254 1
249 244 245 2
250 246 247 1
251 247 248 1
252 248 249 1
253 249 250 1
254 250 251 2
255 250 252 1
256 246 255 1
257 246 256 1
258 247 257 1
259 247 258 1
260 248 259 1
261 248 260 1
262 249 261 1
263 251 262 1
264 251 263 1
265 252 264 1
266 252 265 1
@<TRIPOS>SUBSTRUCTURE
1	GLU1	1	RESIDUE	1 ****	GLU
2	ASN2	16	RESIDUE	1 ****	ASN
3	PRO3	30	RESIDUE	1 ****	PRO
4	GLU4	44	RESIDUE	1 ****	GLU
5	SER5	59	RESIDUE	1 ****	SER
6	ILE6	70	RESIDUE	1 ****	ILE
7	LEU7	89	RESIDUE	1 ****	LEU
8	ASP8	108	RESIDUE	1 ****	ASP
9	GLU9	120	RESIDUE	1 ****	GLU
10	HIS10	135	RESIDUE	1 ****	HIS
11	VAL11	152	RESIDUE	1 ****	VAL
12	GLN12	168	RESIDUE	1 ****	GLN
13	ARG13	185	RESIDUE	1 ****	ARG
14	VAL14	209	RESIDUE	1 ****	VAL
15	MET15	225	RESIDUE	1 ****	MET
16	ARG16	242	RESIDUE	1 ****	ARG
