@<TRIPOS>MOLECULE
14-11
266 268 16              
SMALL
USER_CHARGES
@<TRIPOS>ATOM
1	   N	2250.693	687.181	-2337.742	N.3	1	GLU1	-0.516	
2	  CA	2251.252	688.530	-2337.742	C.3	1	GLU1	0.040	
3	   C	2252.761	688.490	-2337.742	C.2	1	GLU1	0.537	
4	   O	2253.437	689.189	-2338.510	O.2	1	GLU1	-0.582	
5	  CB	2250.729	689.315	-2336.505	C.3	1	GLU1	0.056	
6	  CG	2251.204	690.800	-2336.394	C.3	1	GLU1	0.014	
7	  CD	2250.780	691.604	-2335.179	C.2	1	GLU1	0.805	
8	 OE1	2250.052	691.102	-2334.301	O.co2	1	GLU1	-0.819	
9	 OE2	2251.210	692.774	-2335.107	O.co2	1	GLU1	-0.819	
10	   H	2251.320	686.302	-2337.742	 H	1	GLU1	0.294	
11	  HA	2250.926	689.048	-2338.662	 H	1	GLU1	0.111	
12	 2HB	2251.018	688.784	-2335.575	 H	1	GLU1	-0.017	
13	 3HB	2249.622	689.305	-2336.492	 H	1	GLU1	-0.017	
14	 2HG	2250.894	691.385	-2337.275	 H	1	GLU1	-0.043	
15	 3HG	2252.304	690.867	-2336.365	 H	1	GLU1	-0.043	
16	   N	2253.365	687.704	-2336.917	N.am	2	ASN2	-0.416	
17	  CA	2254.824	687.665	-2336.917	C.3	2	ASN2	0.014	
18	   C	2255.356	687.310	-2338.285	C.2	2	ASN2	0.597	
19	   O	2256.271	687.940	-2338.813	O.2	2	ASN2	-0.568	
20	  CB	2255.316	686.642	-2335.852	C.3	2	ASN2	-0.204	
21	  CG	2254.853	686.866	-2334.409	C.2	2	ASN2	0.713	
22	 ND2	2255.447	687.781	-2333.690	N.pl3	2	ASN2	-0.919	
23	 OD1	2253.932	686.233	-2333.915	O.2	2	ASN2	-0.593	
24	   H	2252.837	687.125	-2336.280	 H	2	ASN2	0.272	
25	  HA	2255.202	688.675	-2336.671	 H	2	ASN2	0.105	
26	 2HB	2256.420	686.583	-2335.855	 H	2	ASN2	0.080	
27	 3HB	2254.987	685.624	-2336.138	 H	2	ASN2	0.080	
28	1HD2	2254.966	687.954	-2332.804	 H	2	ASN2	0.420	
29	2HD2	2256.149	688.353	-2334.159	 H	2	ASN2	0.420	
30	   N	2254.834	686.315	-2338.919	N.am	3	PRO3	-0.255	
31	  CA	2255.287	685.905	-2340.241	C.3	3	PRO3	-0.027	
32	   C	2254.889	686.929	-2341.318	C.2	3	PRO3	0.590	
33	   O	2255.712	687.312	-2342.149	O.2	3	PRO3	-0.575	
34	  CB	2254.582	684.551	-2340.410	C.3	3	PRO3	-0.007	
35	  CG	2253.299	684.703	-2339.581	C.3	3	PRO3	0.019	
36	  CD	2253.756	685.522	-2338.371	C.3	3	PRO3	0.019	
37	  HA	2256.373	685.785	-2340.254	 H	3	PRO3	0.064	
38	 2HB	2255.205	683.770	-2339.969	 H	3	PRO3	0.025	
39	 3HB	2254.384	684.303	-2341.456	 H	3	PRO3	0.025	
40	 2HG	2252.871	683.741	-2339.290	 H	3	PRO3	0.021	
41	 3HG	2252.562	685.274	-2340.148	 H	3	PRO3	0.021	
42	 2HD	2254.145	684.872	-2337.583	 H	3	PRO3	0.039	
43	 3HD	2252.959	686.158	-2337.978	 H	3	PRO3	0.039	
44	   N	2253.684	687.389	-2341.351	N.am	4	GLU4	-0.516	
45	  CA	2253.325	688.360	-2342.380	C.3	4	GLU4	0.040	
46	   C	2254.224	689.571	-2342.319	C.2	4	GLU4	0.537	
47	   O	2254.751	690.051	-2343.333	O.2	4	GLU4	-0.582	
48	  CB	2251.836	688.780	-2342.211	C.3	4	GLU4	0.056	
49	  CG	2251.289	689.783	-2343.276	C.3	4	GLU4	0.014	
50	  CD	2249.863	690.280	-2343.133	C.2	4	GLU4	0.805	
51	 OE1	2249.136	689.882	-2342.203	O.co2	4	GLU4	-0.819	
52	 OE2	2249.474	691.109	-2343.982	O.co2	4	GLU4	-0.819	
53	   H	2253.000	687.083	-2340.674	 H	4	GLU4	0.294	
54	  HA	2253.457	687.890	-2343.372	 H	4	GLU4	0.111	
55	 2HB	2251.684	689.219	-2341.204	 H	4	GLU4	-0.017	
56	 3HB	2251.188	687.882	-2342.217	 H	4	GLU4	-0.017	
57	 2HG	2251.371	689.368	-2344.294	 H	4	GLU4	-0.043	
58	 3HG	2251.877	690.715	-2343.287	 H	4	GLU4	-0.043	
59	   N	2254.451	690.124	-2341.176	N.am	5	SER5	-0.416	
60	  CA	2255.321	691.295	-2341.117	C.3	5	SER5	-0.025	
61	   C	2256.680	690.989	-2341.702	C.2	5	SER5	0.597	
62	   O	2257.228	691.742	-2342.507	O.2	5	SER5	-0.568	
63	  CB	2255.432	691.827	-2339.666	C.3	5	SER5	0.212	
64	  OG	2256.163	690.947	-2338.805	O.3	5	SER5	-0.655	
65	   H	2254.034	689.752	-2340.334	 H	5	SER5	0.272	
66	  HA	2254.872	692.085	-2341.746	 H	5	SER5	0.084	
67	 2HB	2254.432	692.021	-2339.233	 H	5	SER5	0.035	
68	 3HB	2255.938	692.812	-2339.668	 H	5	SER5	0.035	
69	  HG	2255.674	690.123	-2338.754	 H	5	SER5	0.428	
70	   N	2257.284	689.905	-2341.348	N.am	6	ILE6	-0.416	
71	  CA	2258.597	689.610	-2341.914	C.3	6	ILE6	-0.060	
72	   C	2258.540	689.572	-2343.421	C.2	6	ILE6	0.597	
73	   O	2259.375	690.160	-2344.125	O.2	6	ILE6	-0.568	
74	  CB	2259.197	688.274	-2341.313	C.3	6	ILE6	0.130	
75	 CG1	2259.215	688.211	-2339.752	C.3	6	ILE6	-0.043	
76	 CG2	2260.638	687.971	-2341.828	C.3	6	ILE6	-0.320	
77	 CD1	2259.485	686.822	-2339.137	C.3	6	ILE6	-0.066	
78	   H	2256.855	689.271	-2340.689	 H	6	ILE6	0.272	
79	  HA	2259.272	690.444	-2341.646	 H	6	ILE6	0.087	
80	  HB	2258.538	687.448	-2341.658	 H	6	ILE6	0.019	
81	2HG1	2258.233	688.531	-2339.357	 H	6	ILE6	0.024	
82	3HG1	2259.931	688.953	-2339.347	 H	6	ILE6	0.024	
83	1HG2	2260.697	687.878	-2342.927	 H	6	ILE6	0.088	
84	2HG2	2261.360	688.753	-2341.526	 H	6	ILE6	0.088	
85	3HG2	2261.027	687.009	-2341.449	 H	6	ILE6	0.088	
86	1HD1	2258.756	686.068	-2339.492	 H	6	ILE6	0.019	
87	2HD1	2260.495	686.443	-2339.373	 H	6	ILE6	0.019	
88	3HD1	2259.408	686.852	-2338.035	 H	6	ILE6	0.019	
89	   N	2257.594	688.909	-2343.995	N.am	7	LEU7	-0.416	
90	  CA	2257.539	688.873	-2345.453	C.3	7	LEU7	-0.052	
91	   C	2257.467	690.268	-2346.026	C.2	7	LEU7	0.597	
92	   O	2258.188	690.630	-2346.969	O.2	7	LEU7	-0.568	
93	  CB	2256.336	688.013	-2345.934	C.3	7	LEU7	-0.110	
94	  CG	2256.263	686.534	-2345.467	C.3	7	LEU7	0.353	
95	 CD1	2255.073	685.828	-2346.133	C.3	7	LEU7	-0.412	
96	 CD2	2257.556	685.754	-2345.759	C.3	7	LEU7	-0.412	
97	   H	2256.902	688.422	-2343.444	 H	7	LEU7	0.272	
98	  HA	2258.481	688.433	-2345.828	 H	7	LEU7	0.092	
99	 2HB	2256.313	688.029	-2347.042	 H	7	LEU7	0.046	
100	 3HB	2255.396	688.516	-2345.630	 H	7	LEU7	0.046	
101	  HG	2256.093	686.526	-2344.370	 H	7	LEU7	-0.036	
102	1HD1	2254.115	686.338	-2345.910	 H	7	LEU7	0.100	
103	2HD1	2255.172	685.788	-2347.234	 H	7	LEU7	0.100	
104	3HD1	2254.965	684.787	-2345.777	 H	7	LEU7	0.100	
105	1HD2	2257.831	685.784	-2346.829	 H	7	LEU7	0.100	
106	2HD2	2258.409	686.165	-2345.187	 H	7	LEU7	0.100	
107	3HD2	2257.474	684.692	-2345.463	 H	7	LEU7	0.100	
108	   N	2256.630	691.110	-2345.521	N.am	8	ASP8	-0.516	
109	  CA	2256.561	692.459	-2346.074	C.3	8	ASP8	0.038	
110	   C	2257.908	693.138	-2346.018	C.2	8	ASP8	0.537	
111	   O	2258.381	693.742	-2346.993	O.2	8	ASP8	-0.582	
112	  CB	2255.483	693.299	-2345.333	C.3	8	ASP8	-0.030	
113	  CG	2255.265	694.719	-2345.875	C.2	8	ASP8	0.799	
114	 OD1	2255.329	694.918	-2347.106	O.co2	8	ASP8	-0.801	
115	 OD2	2255.073	695.646	-2345.060	O.co2	8	ASP8	-0.801	
116	   H	2256.032	690.839	-2344.753	 H	8	ASP8	0.294	
117	  HA	2256.278	692.380	-2347.142	 H	8	ASP8	0.088	
118	 2HB	2255.740	693.383	-2344.262	 H	8	ASP8	-0.012	
119	 3HB	2254.504	692.794	-2345.366	 H	8	ASP8	-0.012	
120	   N	2258.588	693.088	-2344.923	N.am	9	GLU9	-0.516	
121	  CA	2259.891	693.745	-2344.868	C.3	9	GLU9	0.040	
122	   C	2260.808	693.217	-2345.944	C.2	9	GLU9	0.537	
123	   O	2261.472	693.970	-2346.670	O.2	9	GLU9	-0.582	
124	  CB	2260.524	693.538	-2343.463	C.3	9	GLU9	0.056	
125	  CG	2261.907	694.230	-2343.234	C.3	9	GLU9	0.014	
126	  CD	2262.609	694.017	-2341.906	C.2	9	GLU9	0.805	
127	 OE1	2262.088	693.327	-2341.009	O.co2	9	GLU9	-0.819	
128	 OE2	2263.729	694.554	-2341.774	O.co2	9	GLU9	-0.819	
129	   H	2258.224	692.603	-2344.115	 H	9	GLU9	0.294	
130	  HA	2259.749	694.827	-2345.044	 H	9	GLU9	0.111	
131	 2HB	2260.637	692.453	-2343.259	 H	9	GLU9	-0.017	
132	 3HB	2259.828	693.892	-2342.678	 H	9	GLU9	-0.017	
133	 2HG	2261.836	695.320	-2343.374	 H	9	GLU9	-0.043	
134	 3HG	2262.654	693.884	-2343.968	 H	9	GLU9	-0.043	
135	   N	2260.904	691.941	-2346.113	N.am	10	HIS10	-0.416	
136	  CA	2261.792	691.429	-2347.153	C.3	10	HIS10	-0.058	
137	   C	2261.425	691.993	-2348.504	C.2	10	HIS10	0.597	
138	   O	2262.277	692.457	-2349.277	O.2	10	HIS10	-0.568	
139	  CB	2261.627	689.900	-2347.147	C.3	10	HIS10	-0.007	
140	  CG	2262.912	689.189	-2346.839	C.2	10	HIS10	0.187	
141	 CD2	2263.294	688.855	-2345.547	C.2	10	HIS10	-0.221	
142	 ND1	2263.864	688.783	-2347.772	N.2	10	HIS10	-0.543	
143	 CE1	2264.770	688.225	-2346.949	C.2	10	HIS10	0.163	
144	 NE2	2264.508	688.222	-2345.614	N.pl3	10	HIS10	-0.280	
145	   H	2260.374	691.306	-2345.534	 H	10	HIS10	0.272	
146	  HA	2262.811	691.786	-2346.929	 H	10	HIS10	0.136	
147	 2HB	2261.261	689.533	-2348.127	 H	10	HIS10	0.037	
148	 3HB	2260.871	689.564	-2346.407	 H	10	HIS10	0.037	
149	 2HD	2262.708	689.071	-2344.658	 H	10	HIS10	0.186	
150	 1HE	2265.661	687.803	-2347.396	 H	10	HIS10	0.144	
151	 2HE	2265.075	687.846	-2344.840	 H	10	HIS10	0.334	
152	   N	2260.187	691.993	-2348.867	N.am	11	VAL11	-0.416	
153	  CA	2259.832	692.538	-2350.174	C.3	11	VAL11	-0.087	
154	   C	2260.297	693.968	-2350.308	C.2	11	VAL11	0.597	
155	   O	2260.898	694.373	-2351.311	O.2	11	VAL11	-0.568	
156	  CB	2258.270	692.432	-2350.393	C.3	11	VAL11	0.299	
157	 CG1	2257.702	693.136	-2351.656	C.3	11	VAL11	-0.319	
158	 CG2	2257.745	690.978	-2350.465	C.3	11	VAL11	-0.319	
159	   H	2259.474	691.621	-2348.256	 H	11	VAL11	0.272	
160	  HA	2260.351	691.955	-2350.957	 H	11	VAL11	0.097	
161	  HB	2257.783	692.913	-2349.518	 H	11	VAL11	-0.030	
162	1HG1	2258.140	692.743	-2352.593	 H	11	VAL11	0.079	
163	2HG1	2256.603	693.029	-2351.738	 H	11	VAL11	0.079	
164	3HG1	2257.881	694.228	-2351.648	 H	11	VAL11	0.079	
165	1HG2	2258.035	690.392	-2349.574	 H	11	VAL11	0.079	
166	2HG2	2256.639	690.942	-2350.508	 H	11	VAL11	0.079	
167	3HG2	2258.126	690.437	-2351.352	 H	11	VAL11	0.079	
168	   N	2260.061	694.795	-2349.345	N.am	12	GLN12	-0.416	
169	  CA	2260.510	696.177	-2349.473	C.3	12	GLN12	-0.003	
170	   C	2262.000	696.244	-2349.712	C.2	12	GLN12	0.597	
171	   O	2262.487	696.951	-2350.591	O.2	12	GLN12	-0.568	
172	  CB	2260.119	696.946	-2348.191	C.3	12	GLN12	-0.004	
173	  CG	2260.481	698.467	-2348.161	C.3	12	GLN12	-0.064	
174	  CD	2260.179	699.282	-2346.896	C.2	12	GLN12	0.695	
175	 NE2	2259.612	698.706	-2345.867	N.pl3	12	GLN12	-0.941	
176	 OE1	2260.482	700.463	-2346.820	O.2	12	GLN12	-0.609	
177	   H	2259.572	694.489	-2348.516	 H	12	GLN12	0.272	
178	  HA	2260.010	696.633	-2350.349	 H	12	GLN12	0.085	
179	 2HB	2260.595	696.446	-2347.322	 H	12	GLN12	0.017	
180	 3HB	2259.029	696.839	-2348.028	 H	12	GLN12	0.017	
181	 2HG	2260.003	698.988	-2349.012	 H	12	GLN12	0.035	
182	 3HG	2261.564	698.609	-2348.327	 H	12	GLN12	0.035	
183	1HE2	2259.506	699.301	-2345.044	 H	12	GLN12	0.425	
184	2HE2	2259.448	697.703	-2345.970	 H	12	GLN12	0.425	
185	   N	2262.784	695.537	-2348.970	N.am	13	ARG13	-0.348	
186	  CA	2264.224	695.602	-2349.202	C.3	13	ARG13	-0.264	
187	   C	2264.560	695.230	-2350.626	C.2	13	ARG13	0.734	
188	   O	2265.329	695.901	-2351.311	O.2	13	ARG13	-0.589	
189	  CB	2264.938	694.664	-2348.187	C.3	13	ARG13	-0.001	
190	  CG	2266.483	694.817	-2348.107	C.3	13	ARG13	0.039	
191	  CD	2267.110	693.829	-2347.109	C.3	13	ARG13	0.049	
192	  NE	2268.587	694.036	-2347.059	N.pl3	13	ARG13	-0.530	
193	  CZ	2269.435	693.345	-2346.303	C.cat	13	ARG13	0.808	
194	 NH1	2269.070	692.381	-2345.505	N.pl3	13	ARG13	-0.863	
195	 NH2	2270.695	693.644	-2346.361	N.pl3	13	ARG13	-0.863	
196	   H	2262.408	694.948	-2348.241	 H	13	ARG13	0.275	
197	  HA	2264.549	696.648	-2349.044	 H	13	ARG13	0.156	
198	 2HB	2264.671	693.613	-2348.426	 H	13	ARG13	0.033	
199	 3HB	2264.513	694.831	-2347.177	 H	13	ARG13	0.033	
200	 2HG	2266.731	695.862	-2347.828	 H	13	ARG13	0.029	
201	 3HG	2266.933	694.660	-2349.108	 H	13	ARG13	0.029	
202	 2HD	2266.865	692.789	-2347.417	 H	13	ARG13	0.069	
203	 3HD	2266.654	693.976	-2346.106	 H	13	ARG13	0.069	
204	  HE	2269.038	694.758	-2347.630	 H	13	ARG13	0.346	
205	1HH1	2268.064	692.195	-2345.508	 H	13	ARG13	0.448	
206	2HH1	2269.783	691.898	-2344.956	 H	13	ARG13	0.448	
207	1HH2	2270.962	694.401	-2346.992	 H	13	ARG13	0.448	
208	2HH2	2271.330	693.102	-2345.772	 H	13	ARG13	0.448	
209	   N	2264.023	694.175	-2351.140	N.am	14	HIS14	-0.416	
210	  CA	2264.348	693.815	-2352.518	C.3	14	HIS14	-0.058	
211	   C	2264.018	694.943	-2353.465	C.2	14	HIS14	0.597	
212	   O	2264.814	695.323	-2354.337	O.2	14	HIS14	-0.568	
213	  CB	2263.504	692.572	-2352.849	C.3	14	HIS14	-0.007	
214	  CG	2264.352	691.384	-2353.198	C.2	14	HIS14	0.187	
215	 CD2	2264.787	690.468	-2352.250	C.2	14	HIS14	-0.221	
216	 ND1	2264.802	691.049	-2354.474	N.2	14	HIS14	-0.543	
217	 CE1	2265.495	689.932	-2354.188	C.2	14	HIS14	0.163	
218	 NE2	2265.535	689.516	-2352.893	N.pl3	14	HIS14	-0.280	
219	   H	2263.388	693.607	-2350.598	 H	14	HIS14	0.272	
220	  HA	2265.439	693.663	-2352.575	 H	14	HIS14	0.136	
221	 2HB	2262.823	692.767	-2353.701	 H	14	HIS14	0.037	
222	 3HB	2262.844	692.278	-2352.007	 H	14	HIS14	0.037	
223	 2HD	2264.558	690.525	-2351.190	 H	14	HIS14	0.186	
224	 1HE	2265.983	689.421	-2355.008	 H	14	HIS14	0.144	
225	 2HE	2266.007	688.694	-2352.488	 H	14	HIS14	0.334	
226	   N	2262.874	695.530	-2353.364	N.am	15	MET15	-0.416	
227	  CA	2262.554	696.621	-2354.280	C.3	15	MET15	-0.024	
228	   C	2263.585	697.720	-2354.194	C.2	15	MET15	0.597	
229	   O	2264.089	698.229	-2355.207	O.2	15	MET15	-0.568	
230	  CB	2261.133	697.169	-2353.972	C.3	15	MET15	0.034	
231	  CG	2259.970	696.171	-2354.162	C.3	15	MET15	0.002	
232	  SD	2258.397	697.039	-2354.049	S.3	15	MET15	-0.274	
233	  CE	2257.315	695.610	-2353.910	C.3	15	MET15	-0.054	
234	   H	2262.208	695.238	-2352.662	 H	15	MET15	0.272	
235	  HA	2262.580	696.232	-2355.315	 H	15	MET15	0.088	
236	 2HB	2260.932	698.046	-2354.615	 H	15	MET15	0.024	
237	 3HB	2261.098	697.563	-2352.936	 H	15	MET15	0.024	
238	 2HG	2260.013	695.386	-2353.383	 H	15	MET15	0.044	
239	 3HG	2260.033	695.655	-2355.137	 H	15	MET15	0.044	
240	 1HE	2257.458	694.920	-2354.762	 H	15	MET15	0.068	
241	 2HE	2257.524	695.059	-2352.977	 H	15	MET15	0.068	
242	 3HE	2256.258	695.926	-2353.894	 H	15	MET15	0.068	
243	   N	2263.954	698.143	-2353.032	N.am	16	ARG16	-0.348	
244	  CA	2264.952	699.206	-2352.950	C.3	16	ARG16	-0.264	
245	   C	2266.222	698.811	-2353.665	C.2	16	ARG16	0.734	
246	   O	2266.335	697.733	-2354.245	O.2	16	ARG16	-0.589	
247	  CB	2265.221	699.526	-2351.452	C.3	16	ARG16	-0.001	
248	  CG	2266.047	700.815	-2351.181	C.3	16	ARG16	0.039	
249	  CD	2266.297	701.036	-2349.680	C.3	16	ARG16	0.049	
250	  NE	2267.074	702.295	-2349.481	N.pl3	16	ARG16	-0.530	
251	  CZ	2267.466	702.779	-2348.306	C.cat	16	ARG16	0.808	
252	 NH1	2267.217	702.196	-2347.167	N.pl3	16	ARG16	-0.863	
253	 NH2	2268.130	703.891	-2348.289	N.pl3	16	ARG16	-0.863	
254	   H	2263.559	697.745	-2352.192	 H	16	ARG16	0.275	
255	  HA	2264.544	700.098	-2353.461	 H	16	ARG16	0.156	
256	 2HB	2265.717	698.650	-2350.984	 H	16	ARG16	0.033	
257	 3HB	2264.252	699.609	-2350.918	 H	16	ARG16	0.033	
258	 2HG	2265.518	701.686	-2351.620	 H	16	ARG16	0.029	
259	 3HG	2267.021	700.760	-2351.710	 H	16	ARG16	0.029	
260	 2HD	2266.844	700.162	-2349.265	 H	16	ARG16	0.069	
261	 3HD	2265.324	701.081	-2349.145	 H	16	ARG16	0.069	
262	  HE	2267.353	702.874	-2350.279	 H	16	ARG16	0.346	
263	1HH1	2266.690	701.324	-2347.250	 H	16	ARG16	0.448	
264	2HH1	2267.552	702.633	-2346.306	 H	16	ARG16	0.448	
265	1HH2	2268.317	704.332	-2349.191	 H	16	ARG16	0.448	
266	2HH2	2268.421	704.247	-2347.377	 H	16	ARG16	0.448	
@<TRIPOS>BOND
1 1 2 1
2 1 10 1
3 2 3 1
4 2 5 1
5 2 11 1
6 3 4 2
7 3 16 1
8 5 6 1
9 6 7 1
10 7 8 2
11 7 9 1
12 5 12 1
13 5 13 1
14 6 14 1
15 6 15 1
16 16 17 1
17 16 24 1
18 17 18 1
19 17 20 1
20 17 25 1
21 18 19 2
22 18 30 1
23 20 21 1
24 21 22 1
25 21 23 2
26 20 26 1
27 20 27 1
28 22 28 1
29 22 29 1
30 30 31 1
31 30 36 1
32 31 32 1
33 31 34 1
34 31 37 1
35 32 33 2
36 32 44 1
37 34 35 1
38 35 36 1
39 34 38 1
40 34 39 1
41 35 40 1
42 35 41 1
43 36 42 1
44 36 43 1
45 44 45 1
46 44 53 1
47 45 46 1
48 45 48 1
49 45 54 1
50 46 47 2
51 46 59 1
52 48 49 1
53 49 50 1
54 50 51 2
55 50 52 1
56 48 55 1
57 48 56 1
58 49 57 1
59 49 58 1
60 59 60 1
61 59 65 1
62 60 61 1
63 60 63 1
64 60 66 1
65 61 62 2
66 61 70 1
67 63 64 1
68 63 67 1
69 63 68 1
70 64 69 1
71 70 71 1
72 70 78 1
73 71 72 1
74 71 74 1
75 71 79 1
76 72 73 2
77 72 89 1
78 74 75 1
79 74 76 1
80 75 77 1
81 74 80 1
82 75 81 1
83 75 82 1
84 76 83 1
85 76 84 1
86 76 85 1
87 77 86 1
88 77 87 1
89 77 88 1
90 89 90 1
91 89 97 1
92 90 91 1
93 90 93 1
94 90 98 1
95 91 92 2
96 91 108 1
97 93 94 1
98 94 95 1
99 94 96 1
100 93 99 1
101 93 100 1
102 94 101 1
103 95 102 1
104 95 103 1
105 95 104 1
106 96 105 1
107 96 106 1
108 96 107 1
109 108 109 1
110 108 116 1
111 109 110 1
112 109 112 1
113 109 117 1
114 110 111 2
115 110 120 1
116 112 113 1
117 113 114 2
118 113 115 1
119 112 118 1
120 112 119 1
121 120 121 1
122 120 129 1
123 121 122 1
124 121 124 1
125 121 130 1
126 122 123 2
127 122 135 1
128 124 125 1
129 125 126 1
130 126 127 2
131 126 128 1
132 124 131 1
133 124 132 1
134 125 133 1
135 125 134 1
136 135 136 1
137 135 145 1
138 136 137 1
139 136 139 1
140 136 146 1
141 137 138 2
142 137 152 1
143 139 140 1
144 140 141 2
145 141 144 1
146 140 142 1
147 142 143 2
148 143 144 1
149 139 147 1
150 139 148 1
151 141 149 1
152 143 150 1
153 144 151 1
154 152 153 1
155 152 159 1
156 153 154 1
157 153 156 1
158 153 160 1
159 154 155 2
160 154 168 1
161 156 157 1
162 156 158 1
163 156 161 1
164 157 162 1
165 157 163 1
166 157 164 1
167 158 165 1
168 158 166 1
169 158 167 1
170 168 169 1
171 168 177 1
172 169 170 1
173 169 172 1
174 169 178 1
175 170 171 2
176 170 185 1
177 172 173 1
178 173 174 1
179 174 175 1
180 174 176 2
181 172 179 1
182 172 180 1
183 173 181 1
184 173 182 1
185 175 183 1
186 175 184 1
187 185 186 1
188 185 196 1
189 186 187 1
190 186 189 1
191 186 197 1
192 187 188 2
193 187 209 1
194 189 190 1
195 190 191 1
196 191 192 1
197 192 193 1
198 193 194 2
199 193 195 1
200 189 198 1
201 189 199 1
202 190 200 1
203 190 201 1
204 191 202 1
205 191 203 1
206 192 204 1
207 194 205 1
208 194 206 1
209 195 207 1
210 195 208 1
211 209 210 1
212 209 219 1
213 210 211 1
214 210 213 1
215 210 220 1
216 211 212 2
217 211 226 1
218 213 214 1
219 214 215 2
220 215 218 1
221 214 216 1
222 216 217 2
223 217 218 1
224 213 221 1
225 213 222 1
226 215 223 1
227 217 224 1
228 218 225 1
229 226 227 1
230 226 234 1
231 227 228 1
232 227 230 1
233 227 235 1
234 228 229 2
235 228 243 1
236 230 231 1
237 231 232 1
238 232 233 1
239 230 236 1
240 230 237 1
241 231 238 1
242 231 239 1
243 233 240 1
244 233 241 1
245 233 242 1
246 243 244 1
247 243 254 1
248 244 245 1
249 244 247 1
250 244 255 1
251 245 246 2
252 247 248 1
253 248 249 1
254 249 250 1
255 250 251 1
256 251 252 2
257 251 253 1
258 247 256 1
259 247 257 1
260 248 258 1
261 248 259 1
262 249 260 1
263 249 261 1
264 250 262 1
265 252 263 1
266 252 264 1
267 253 265 1
268 253 266 1
@<TRIPOS>SUBSTRUCTURE
1	GLU1	1	RESIDUE	1 ****	GLU
2	ASN2	16	RESIDUE	1 ****	ASN
3	PRO3	30	RESIDUE	1 ****	PRO
4	GLU4	44	RESIDUE	1 ****	GLU
5	SER5	59	RESIDUE	1 ****	SER
6	ILE6	70	RESIDUE	1 ****	ILE
7	LEU7	89	RESIDUE	1 ****	LEU
8	ASP8	108	RESIDUE	1 ****	ASP
9	GLU9	120	RESIDUE	1 ****	GLU
10	HIS10	135	RESIDUE	1 ****	HIS
11	VAL11	152	RESIDUE	1 ****	VAL
12	GLN12	168	RESIDUE	1 ****	GLN
13	ARG13	185	RESIDUE	1 ****	ARG
14	HIS14	209	RESIDUE	1 ****	HIS
15	MET15	226	RESIDUE	1 ****	MET
16	ARG16	243	RESIDUE	1 ****	ARG
