REMARK WARNING: 32 MAX_TORS EXCEEDED!!!
REMARK  68 active torsions:
REMARK  status: ('A' for Active; 'I' for Inactive)
REMARK    1  A    between atoms: N_1  and  CA_2 
REMARK    2  A    between atoms: CA_2  and  C_3 
REMARK    3  A    between atoms: CA_2  and  CB_5 
REMARK       I    between atoms: C_3  and  N_11 
REMARK    4  A    between atoms: CB_5  and  CG_6 
REMARK    5  A    between atoms: CG_6  and  CD_7 
REMARK    6  A    between atoms: N_11  and  CA_12 
REMARK    7  A    between atoms: CA_12  and  C_13 
REMARK    8  A    between atoms: CA_12  and  CB_15 
REMARK       I    between atoms: C_13  and  N_22 
REMARK    9  A    between atoms: CB_15  and  CG_16 
REMARK       I    between atoms: CG_16  and  ND2_17 
REMARK   10  A    between atoms: CA_23  and  C_24 
REMARK       I    between atoms: C_24  and  N_29 
REMARK   11  A    between atoms: N_29  and  CA_30 
REMARK   12  A    between atoms: CA_30  and  C_31 
REMARK   13  A    between atoms: CA_30  and  CB_33 
REMARK       I    between atoms: C_31  and  N_39 
REMARK   14  A    between atoms: CB_33  and  CG_34 
REMARK   15  A    between atoms: CG_34  and  CD_35 
REMARK   16  A    between atoms: N_39  and  CA_40 
REMARK   17  A    between atoms: CA_40  and  C_41 
REMARK   18  A    between atoms: CA_40  and  CB_43 
REMARK       I    between atoms: C_41  and  N_47 
REMARK   19  A    between atoms: CB_43  and  OG_44 
REMARK   20  A    between atoms: N_47  and  CA_48 
REMARK   21  A    between atoms: CA_48  and  C_49 
REMARK   22  A    between atoms: CA_48  and  CB_51 
REMARK       I    between atoms: C_49  and  N_56 
REMARK   23  A    between atoms: CB_51  and  CG1_52 
REMARK   24  A    between atoms: N_56  and  CA_57 
REMARK   25  A    between atoms: CA_57  and  C_58 
REMARK   26  A    between atoms: CA_57  and  CB_60 
REMARK       I    between atoms: C_58  and  N_65 
REMARK   27  A    between atoms: CB_60  and  CG_61 
REMARK   28  A    between atoms: N_65  and  CA_66 
REMARK   29  A    between atoms: CA_66  and  C_67 
REMARK   30  A    between atoms: CA_66  and  CB_69 
REMARK       I    between atoms: C_67  and  N_74 
REMARK   31  A    between atoms: CB_69  and  CG_70 
REMARK   32  A    between atoms: N_74  and  CA_75 
REMARK   33  A    between atoms: CA_75  and  C_76 
REMARK   34  A    between atoms: CA_75  and  CB_78 
REMARK       I    between atoms: C_76  and  N_83 
REMARK   35  A    between atoms: CB_78  and  CG_79 
REMARK   36  A    between atoms: CG_79  and  SD_80 
REMARK   37  A    between atoms: N_83  and  CA_84 
REMARK   38  A    between atoms: CA_84  and  C_85 
REMARK   39  A    between atoms: CA_84  and  CB_87 
REMARK       I    between atoms: C_85  and  N_95 
REMARK   40  A    between atoms: CB_87  and  CG_88 
REMARK   41  A    between atoms: N_95  and  CA_96 
REMARK   42  A    between atoms: CA_96  and  C_97 
REMARK   43  A    between atoms: CA_96  and  CB_99 
REMARK       I    between atoms: C_97  and  N_103 
REMARK   44  A    between atoms: N_103  and  CA_104 
REMARK   45  A    between atoms: CA_104  and  C_105 
REMARK   46  A    between atoms: CA_104  and  CB_107 
REMARK       I    between atoms: C_105  and  N_115 
REMARK   47  A    between atoms: CB_107  and  CG_108 
REMARK   48  A    between atoms: CG_108  and  CD_109 
REMARK       I    between atoms: CD_109  and  NE2_110 
REMARK   49  A    between atoms: N_115  and  CA_116 
REMARK   50  A    between atoms: CA_116  and  C_117 
REMARK   51  A    between atoms: CA_116  and  CB_119 
REMARK       I    between atoms: C_117  and  N_132 
REMARK   52  A    between atoms: CB_119  and  CG_120 
REMARK   53  A    between atoms: CG_120  and  CD_121 
REMARK   54  A    between atoms: CD_121  and  NE_122 
REMARK       I    between atoms: NE_122  and  CZ_123 
REMARK       I    between atoms: CZ_123  and  NH1_124 
REMARK       I    between atoms: CZ_123  and  NH2_125 
REMARK   55  A    between atoms: N_132  and  CA_133 
REMARK   56  A    between atoms: CA_133  and  C_134 
REMARK   57  A    between atoms: CA_133  and  CB_136 
REMARK       I    between atoms: C_134  and  N_140 
REMARK   58  A    between atoms: N_140  and  CA_141 
REMARK   59  A    between atoms: CA_141  and  C_142 
REMARK   60  A    between atoms: CA_141  and  CB_144 
REMARK       I    between atoms: C_142  and  N_149 
REMARK   61  A    between atoms: CB_144  and  CG_145 
REMARK   62  A    between atoms: CG_145  and  SD_146 
REMARK   63  A    between atoms: N_149  and  CA_150 
REMARK   64  A    between atoms: CA_150  and  C_151 
REMARK   65  A    between atoms: CA_150  and  CB_153 
REMARK   66  A    between atoms: CB_153  and  CG_154 
REMARK   67  A    between atoms: CG_154  and  CD_155 
REMARK   68  A    between atoms: CD_155  and  NE_156 
REMARK       I    between atoms: NE_156  and  CZ_157 
REMARK       I    between atoms: CZ_157  and  NH1_158 
ROOT
ATOM      1  C   MET d   9    1396.135 410.914-1403.974  0.00  0.00     0.241 C 
ATOM      2  O   MET d   9    1396.799 411.671-1404.697  0.00  0.00    -0.271 OA
ATOM      3  N   HIS d  10    1396.233 409.639-1404.145  0.00  0.00    -0.346 N 
ATOM      4  H   HIS d  10    1395.702 409.002-1403.568  0.00  0.00     0.163 HD
ENDROOT
BRANCH   3   5
ATOM      5  CA  HIS d  10    1397.123 409.130-1405.185  0.00  0.00     0.182 C 
BRANCH   5   6
ATOM      6  C   HIS d  10    1396.757 409.697-1406.536  0.00  0.00     0.241 C 
ATOM      7  O   HIS d  10    1397.610 410.164-1407.306  0.00  0.00    -0.271 OA
ATOM      8  N   VAL d  11    1395.520 409.695-1406.901  0.00  0.00    -0.346 N 
ATOM      9  H   VAL d  11    1394.806 409.320-1406.292  0.00  0.00     0.163 HD
BRANCH   8  10
ATOM     10  CA  VAL d  11    1395.166 410.243-1408.207  0.00  0.00     0.180 C 
BRANCH  10  11
ATOM     11  C   VAL d  11    1395.629 411.674-1408.337  0.00  0.00     0.241 C 
ATOM     12  O   VAL d  11    1396.230 412.081-1409.338  0.00  0.00    -0.271 OA
ATOM     13  N   GLN d  12    1395.389 412.498-1407.373  0.00  0.00    -0.346 N 
ATOM     14  H   GLN d  12    1394.900 412.190-1406.545  0.00  0.00     0.163 HD
BRANCH  13  15
ATOM     15  CA  GLN d  12    1395.836 413.882-1407.498  0.00  0.00     0.177 C 
BRANCH  15  16
ATOM     16  C   GLN d  12    1397.326 413.951-1407.734  0.00  0.00     0.241 C 
ATOM     17  O   GLN d  12    1397.814 414.661-1408.611  0.00  0.00    -0.271 OA
ATOM     18  N   ARG d  13    1398.111 413.244-1406.993  0.00  0.00    -0.346 N 
ATOM     19  H   ARG d  13    1397.734 412.653-1406.266  0.00  0.00     0.163 HD
BRANCH  18  20
ATOM     20  CA  ARG d  13    1399.551 413.312-1407.221  0.00  0.00     0.176 C 
BRANCH  20  21
ATOM     21  C   ARG d  13    1399.890 412.943-1408.646  0.00  0.00     0.241 C 
ATOM     22  O   ARG d  13    1400.659 413.616-1409.329  0.00  0.00    -0.271 OA
ATOM     23  N   VAL d  14    1399.355 411.888-1409.163  0.00  0.00    -0.346 N 
ATOM     24  H   VAL d  14    1398.720 411.319-1408.623  0.00  0.00     0.163 HD
BRANCH  23  25
ATOM     25  CA  VAL d  14    1399.682 411.531-1410.541  0.00  0.00     0.180 C 
BRANCH  25  26
ATOM     26  C   VAL d  14    1399.353 412.662-1411.485  0.00  0.00     0.241 C 
ATOM     27  O   VAL d  14    1400.147 413.046-1412.353  0.00  0.00    -0.271 OA
ATOM     28  N   MET d  15    1398.207 413.247-1411.384  0.00  0.00    -0.346 N 
ATOM     29  H   MET d  15    1397.542 412.952-1410.684  0.00  0.00     0.163 HD
BRANCH  28  30
ATOM     30  CA  MET d  15    1397.887 414.340-1412.296  0.00  0.00     0.177 C 
BRANCH  30  31
ATOM     31  C   MET d  15    1398.916 415.441-1412.205  0.00  0.00     0.241 C 
ATOM     32  O   MET d  15    1399.419 415.954-1413.217  0.00  0.00    -0.271 OA
ATOM     33  N   ARG d  16    1399.282 415.861-1411.042  0.00  0.00    -0.347 N 
ATOM     34  H   ARG d  16    1398.887 415.459-1410.204  0.00  0.00     0.163 HD
BRANCH  33  35
ATOM     35  CA  ARG d  16    1400.278 416.926-1410.956  0.00  0.00     0.162 C 
BRANCH  35  36
ATOM     36  C   ARG d  16    1401.550 416.535-1411.671  0.00  0.00     0.219 C 
ATOM     37  O   ARG d  16    1401.666 415.460-1412.254  0.00  0.00    -0.287 OA
ENDBRANCH  35  36
BRANCH  35  38
ATOM     38  CB  ARG d  16    1400.545 417.242-1409.456  0.00  0.00     0.035 C 
BRANCH  38  39
ATOM     39  CG  ARG d  16    1401.368 418.531-1409.180  0.00  0.00     0.023 C 
BRANCH  39  40
ATOM     40  CD  ARG d  16    1401.616 418.748-1407.679  0.00  0.00     0.138 C 
BRANCH  40  41
ATOM     41  NE  ARG d  16    1402.390 420.008-1407.475  0.00  0.00    -0.227 N 
ATOM     42  CZ  ARG d  16    1402.780 420.489-1406.298  0.00  0.00     0.665 C 
ATOM     43  NH1 ARG d  16    1402.531 419.902-1405.161  0.00  0.00    -0.235 N 
ATOM     44  NH2 ARG d  16    1403.442 421.602-1406.277  0.00  0.00    -0.235 N 
ATOM     45 11HH ARG d  16    1402.006 419.029-1405.247  0.00  0.00     0.174 HD
ATOM     46 12HH ARG d  16    1402.864 420.337-1404.298  0.00  0.00     0.174 HD
ATOM     47 21HH ARG d  16    1403.629 422.047-1407.178  0.00  0.00     0.174 HD
ATOM     48 22HH ARG d  16    1403.731 421.956-1405.363  0.00  0.00     0.174 HD
ATOM     49  HE  ARG d  16    1402.669 420.590-1408.271  0.00  0.00     0.177 HD
ENDBRANCH  40  41
ENDBRANCH  39  40
ENDBRANCH  38  39
ENDBRANCH  35  38
ENDBRANCH  33  35
ENDBRANCH  30  31
BRANCH  30  50
ATOM     50  CB  MET d  15    1396.464 414.884-1411.988  0.00  0.00     0.045 C 
BRANCH  50  51
ATOM     51  CG  MET d  15    1395.304 413.885-1412.183  0.00  0.00     0.076 C 
BRANCH  51  52
ATOM     52  SD  MET d  15    1393.729 414.750-1412.070  0.00  0.00    -0.173 SA
ATOM     53  CE  MET d  15    1392.649 413.319-1411.937  0.00  0.00     0.089 C 
ENDBRANCH  51  52
ENDBRANCH  50  51
ENDBRANCH  30  50
ENDBRANCH  28  30
ENDBRANCH  25  26
BRANCH  25  54
ATOM     54  CB  VAL d  14    1398.912 410.214-1410.950  0.00  0.00     0.009 C 
ATOM     55  CG1 VAL d  14    1399.004 409.798-1412.444  0.00  0.00     0.012 C 
ATOM     56  CG2 VAL d  14    1399.344 408.961-1410.151  0.00  0.00     0.012 C 
ENDBRANCH  25  54
ENDBRANCH  23  25
ENDBRANCH  20  21
BRANCH  20  57
ATOM     57  CB  ARG d  13    1400.264 412.373-1406.208  0.00  0.00     0.036 C 
BRANCH  57  58
ATOM     58  CG  ARG d  13    1401.809 412.528-1406.124  0.00  0.00     0.023 C 
BRANCH  58  59
ATOM     59  CD  ARG d  13    1402.436 411.539-1405.127  0.00  0.00     0.138 C 
BRANCH  59  60
ATOM     60  NE  ARG d  13    1403.913 411.748-1405.074  0.00  0.00    -0.227 N 
ATOM     61  CZ  ARG d  13    1404.760 411.057-1404.319  0.00  0.00     0.665 C 
ATOM     62  NH1 ARG d  13    1404.395 410.091-1403.523  0.00  0.00    -0.235 N 
ATOM     63  NH2 ARG d  13    1406.020 411.357-1404.374  0.00  0.00    -0.235 N 
ATOM     64 11HH ARG d  13    1403.390 409.903-1403.528  0.00  0.00     0.174 HD
ATOM     65 12HH ARG d  13    1405.108 409.608-1402.974  0.00  0.00     0.174 HD
ATOM     66 21HH ARG d  13    1406.287 412.116-1405.003  0.00  0.00     0.174 HD
ATOM     67 22HH ARG d  13    1406.655 410.816-1403.785  0.00  0.00     0.174 HD
ATOM     68  HE  ARG d  13    1404.364 412.472-1405.643  0.00  0.00     0.177 HD
ENDBRANCH  59  60
ENDBRANCH  58  59
ENDBRANCH  57  58
ENDBRANCH  20  57
ENDBRANCH  18  20
ENDBRANCH  15  16
BRANCH  15  69
ATOM     69  CB  GLN d  12    1395.443 414.647-1406.214  0.00  0.00     0.044 C 
BRANCH  69  70
ATOM     70  CG  GLN d  12    1395.801 416.169-1406.180  0.00  0.00     0.105 C 
BRANCH  70  71
ATOM     71  CD  GLN d  12    1395.496 416.980-1404.915  0.00  0.00     0.215 C 
ATOM     72  NE2 GLN d  12    1394.929 416.401-1403.887  0.00  0.00    -0.370 N 
ATOM     73 21HE GLN d  12    1394.820 416.995-1403.063  0.00  0.00     0.159 HD
ATOM     74 22HE GLN d  12    1394.766 415.398-1403.993  0.00  0.00     0.159 HD
ATOM     75  OE1 GLN d  12    1395.797 418.161-1404.835  0.00  0.00    -0.274 OA
ENDBRANCH  70  71
ENDBRANCH  69  70
ENDBRANCH  15  69
ENDBRANCH  13  15
ENDBRANCH  10  11
BRANCH  10  76
ATOM     76  CB  VAL d  11    1393.605 410.135-1408.428  0.00  0.00     0.009 C 
ATOM     77  CG1 VAL d  11    1393.037 410.840-1409.691  0.00  0.00     0.012 C 
ATOM     78  CG2 VAL d  11    1393.082 408.680-1408.505  0.00  0.00     0.012 C 
ENDBRANCH  10  76
ENDBRANCH   8  10
ENDBRANCH   5   6
BRANCH   5  79
ATOM     79  CB  HIS d  10    1396.960 407.601-1405.183  0.00  0.00     0.095 C 
BRANCH  79  80
ATOM     80  CG  HIS d  10    1398.246 406.892-1404.874  0.00  0.00     0.053 A 
ATOM     81  CD2 HIS d  10    1398.625 406.555-1403.582  0.00  0.00     0.116 A 
ATOM     82  NE2 HIS d  10    1399.841 405.924-1403.648  0.00  0.00    -0.359 N 
ATOM     83  CE1 HIS d  10    1400.106 405.929-1404.983  0.00  0.00     0.207 A 
ATOM     84  2HE HIS d  10    1400.407 405.546-1402.874  0.00  0.00     0.166 HD
ATOM     85  ND1 HIS d  10    1399.200 406.488-1405.806  0.00  0.00    -0.247 NA
ENDBRANCH  79  80
ENDBRANCH   5  79
ENDBRANCH   3   5
BRANCH   1  86
ATOM     86  CA  MET d   9    1395.215 411.440-1402.899  0.00  0.00     0.177 C 
BRANCH  86  87
ATOM     87  N   MET d   9    1393.913 410.782-1402.955  0.00  0.00    -0.346 N 
ATOM     88  C   ASP d   8    1393.233 410.833-1404.050  0.00  0.00     0.241 C 
ATOM     89  O   ASP d   8    1393.705 411.438-1405.025  0.00  0.00    -0.271 OA
ATOM     90  H   MET d   9    1393.549 410.296-1402.148  0.00  0.00     0.163 HD
BRANCH  88  91
ATOM     91  CA  ASP d   8    1391.886 410.153-1404.108  0.00  0.00     0.186 C 
BRANCH  91  92
ATOM     92  N   ASP d   8    1391.957 408.803-1403.555  0.00  0.00    -0.346 N 
ATOM     93  C   LEU d   7    1392.794 407.962-1404.061  0.00  0.00     0.241 C 
ATOM     94  O   LEU d   7    1393.514 408.326-1405.003  0.00  0.00    -0.271 OA
ATOM     95  H   ASP d   8    1391.359 408.532-1402.787  0.00  0.00     0.163 HD
BRANCH  93  96
ATOM     96  CA  LEU d   7    1392.866 406.567-1403.489  0.00  0.00     0.177 C 
BRANCH  96  97
ATOM     97  N   LEU d   7    1392.922 406.603-1402.030  0.00  0.00    -0.346 N 
ATOM     98  C   ILE d   6    1393.867 407.266-1401.457  0.00  0.00     0.241 C 
ATOM     99  O   ILE d   6    1394.702 407.854-1402.161  0.00  0.00    -0.271 OA
ATOM    100  H   LEU d   7    1392.230 406.116-1401.479  0.00  0.00     0.163 HD
BRANCH  98 101
ATOM    101  CA  ILE d   6    1393.925 407.304-1399.949  0.00  0.00     0.180 C 
BRANCH 101 102
ATOM    102  N   ILE d   6    1392.612 407.598-1399.383  0.00  0.00    -0.346 N 
ATOM    103  C   SER d   5    1392.007 408.681-1399.737  0.00  0.00     0.243 C 
ATOM    104  O   SER d   5    1392.554 409.435-1400.541  0.00  0.00    -0.271 OA
ATOM    105  H   ILE d   6    1392.183 406.964-1398.724  0.00  0.00     0.163 HD
BRANCH 103 106
ATOM    106  CA  SER d   5    1390.648 408.987-1399.151  0.00  0.00     0.200 C 
BRANCH 106 107
ATOM    107  N   SER d   5    1389.779 407.816-1399.209  0.00  0.00    -0.344 N 
ATOM    108  C   GLU d   4    1389.551 407.263-1400.352  0.00  0.00     0.241 C 
ATOM    109  O   GLU d   4    1390.077 407.742-1401.367  0.00  0.00    -0.271 OA
ATOM    110  H   SER d   5    1389.362 407.444-1398.368  0.00  0.00     0.163 HD
BRANCH 108 111
ATOM    111  CA  GLU d   4    1388.652 406.052-1400.413  0.00  0.00     0.177 C 
BRANCH 111 112
ATOM    112  N   GLU d   4    1389.012 405.081-1399.384  0.00  0.00    -0.346 N 
ATOM    113  C   PRO d   3    1390.217 404.621-1399.352  0.00  0.00     0.241 C 
ATOM    114  O   PRO d   3    1391.040 405.004-1400.183  0.00  0.00    -0.271 OA
ATOM    115  H   GLU d   4    1388.328 404.774-1398.707  0.00  0.00     0.163 HD
BRANCH 113 116
ATOM    116  CA  PRO d   3    1390.615 403.597-1398.275  0.00  0.00     0.179 C 
ATOM    117  N   PRO d   3    1390.163 404.006-1396.953  0.00  0.00    -0.337 N 
ATOM    118  C   ASN d   2    1390.685 405.001-1396.319  0.00  0.00     0.243 C 
ATOM    119  CD  PRO d   3    1389.085 403.213-1396.404  0.00  0.00     0.127 C 
ATOM    120  O   ASN d   2    1391.599 405.632-1396.848  0.00  0.00    -0.271 OA
ATOM    121  CG  PRO d   3    1388.628 402.395-1397.614  0.00  0.00     0.022 C 
ATOM    122  CB  PRO d   3    1389.911 402.242-1398.444  0.00  0.00     0.037 C 
BRANCH 118 123
ATOM    123  CA  ASN d   2    1390.154 405.357-1394.950  0.00  0.00     0.185 C 
BRANCH 123 124
ATOM    124  N   ASN d   2    1388.694 405.396-1394.950  0.00  0.00    -0.346 N 
ATOM    125  C   GLU d   1    1388.090 406.181-1395.776  0.00  0.00     0.242 C 
ATOM    126  O   GLU d   1    1388.766 406.881-1396.544  0.00  0.00    -0.271 OA
ATOM    127  H   ASN d   2    1388.166 404.816-1394.314  0.00  0.00     0.163 HD
BRANCH 125 128
ATOM    128  CA  GLU d   1    1386.581 406.221-1395.776  0.00  0.00     0.191 C 
BRANCH 128 129
ATOM    129  N   GLU d   1    1386.022 404.872-1395.776  0.00  0.00    -0.326 NA
ATOM    130  H   GLU d   1    1386.649 403.993-1395.776  0.00  0.00     0.180 HD
ENDBRANCH 128 129
BRANCH 128 131
ATOM    131  CB  GLU d   1    1386.058 407.006-1394.539  0.00  0.00     0.047 C 
BRANCH 131 132
ATOM    132  CG  GLU d   1    1386.533 408.491-1394.428  0.00  0.00     0.116 C 
BRANCH 132 133
ATOM    133  CD  GLU d   1    1386.109 409.295-1393.213  0.00  0.00     0.172 C 
ATOM    134  OE1 GLU d   1    1385.381 408.793-1392.335  0.00  0.00    -0.648 OA
ATOM    135  OE2 GLU d   1    1386.539 410.465-1393.141  0.00  0.00    -0.648 OA
ENDBRANCH 132 133
ENDBRANCH 131 132
ENDBRANCH 128 131
ENDBRANCH 125 128
ENDBRANCH 123 124
BRANCH 123 136
ATOM    136  CB  ASN d   2    1390.646 404.334-1393.886  0.00  0.00     0.137 C 
BRANCH 136 137
ATOM    137  CG  ASN d   2    1390.183 404.558-1392.443  0.00  0.00     0.217 C 
ATOM    138  ND2 ASN d   2    1390.777 405.473-1391.725  0.00  0.00    -0.370 N 
ATOM    139 21HD ASN d   2    1390.296 405.646-1390.838  0.00  0.00     0.159 HD
ATOM    140 22HD ASN d   2    1391.479 406.044-1392.194  0.00  0.00     0.159 HD
ATOM    141  OD1 ASN d   2    1389.262 403.924-1391.949  0.00  0.00    -0.274 OA
ENDBRANCH 136 137
ENDBRANCH 123 136
ENDBRANCH 118 123
ENDBRANCH 113 116
ENDBRANCH 111 112
BRANCH 111 142
ATOM    142  CB  GLU d   4    1387.164 406.470-1400.243  0.00  0.00     0.045 C 
BRANCH 142 143
ATOM    143  CG  GLU d   4    1386.615 407.474-1401.308  0.00  0.00     0.116 C 
BRANCH 143 144
ATOM    144  CD  GLU d   4    1385.189 407.971-1401.165  0.00  0.00     0.172 C 
ATOM    145  OE1 GLU d   4    1384.463 407.572-1400.234  0.00  0.00    -0.648 OA
ATOM    146  OE2 GLU d   4    1384.799 408.800-1402.013  0.00  0.00    -0.648 OA
ENDBRANCH 143 144
ENDBRANCH 142 143
ENDBRANCH 111 142
ENDBRANCH 108 111
ENDBRANCH 106 107
BRANCH 106 147
ATOM    147  CB  SER d   5    1390.760 409.519-1397.700  0.00  0.00     0.199 C 
BRANCH 147 148
ATOM    148  OG  SER d   5    1391.492 408.640-1396.839  0.00  0.00    -0.398 OA
ATOM    149  HG  SER d   5    1391.003 407.815-1396.789  0.00  0.00     0.209 HD
ENDBRANCH 147 148
ENDBRANCH 106 147
ENDBRANCH 103 106
ENDBRANCH 101 102
BRANCH 101 150
ATOM    150  CB  ILE d   6    1394.525 405.968-1399.349  0.00  0.00     0.013 C 
ATOM    151  CG2 ILE d   6    1395.966 405.666-1399.865  0.00  0.00     0.012 C 
BRANCH 150 152
ATOM    152  CG1 ILE d   6    1394.544 405.905-1397.788  0.00  0.00     0.002 C 
ATOM    153  CD1 ILE d   6    1394.814 404.516-1397.173  0.00  0.00     0.005 C 
ENDBRANCH 150 152
ENDBRANCH 101 150
ENDBRANCH  98 101
ENDBRANCH  96  97
BRANCH  96 154
ATOM    154  CB  LEU d   7    1391.663 405.707-1403.969  0.00  0.00     0.038 C 
BRANCH 154 155
ATOM    155  CG  LEU d   7    1391.591 404.227-1403.503  0.00  0.00    -0.020 C 
ATOM    156  CD1 LEU d   7    1390.401 403.522-1404.169  0.00  0.00     0.009 C 
ATOM    157  CD2 LEU d   7    1392.884 403.448-1403.795  0.00  0.00     0.009 C 
ENDBRANCH 154 155
ENDBRANCH  96 154
ENDBRANCH  93  96
ENDBRANCH  91  92
BRANCH  91 158
ATOM    158  CB  ASP d   8    1390.808 410.991-1403.365  0.00  0.00     0.147 C 
BRANCH 158 159
ATOM    159  CG  ASP d   8    1390.589 412.412-1403.906  0.00  0.00     0.175 C 
ATOM    160  OD1 ASP d   8    1390.653 412.612-1405.136  0.00  0.00    -0.648 OA
ATOM    161  OD2 ASP d   8    1390.397 413.338-1403.090  0.00  0.00    -0.648 OA
ENDBRANCH 158 159
ENDBRANCH  91 158
ENDBRANCH  88  91
ENDBRANCH  86  87
BRANCH  86 162
ATOM    162  CB  MET d   9    1395.841 411.248-1401.490  0.00  0.00     0.045 C 
BRANCH 162 163
ATOM    163  CG  MET d   9    1395.059 411.870-1400.313  0.00  0.00     0.076 C 
BRANCH 163 164
ATOM    164  SD  MET d   9    1396.058 411.810-1398.817  0.00  0.00    -0.173 SA
ATOM    165  CE  MET d   9    1394.774 412.212-1397.624  0.00  0.00     0.089 C 
ENDBRANCH 163 164
ENDBRANCH 162 163
ENDBRANCH  86 162
ENDBRANCH   1  86
TORSDOF 68
