REMARK WARNING: 32 MAX_TORS EXCEEDED!!!
REMARK  68 active torsions:
REMARK  status: ('A' for Active; 'I' for Inactive)
REMARK    1  A    between atoms: N_1  and  CA_2 
REMARK    2  A    between atoms: CA_2  and  C_3 
REMARK    3  A    between atoms: CA_2  and  CB_5 
REMARK       I    between atoms: C_3  and  N_11 
REMARK    4  A    between atoms: CB_5  and  CG_6 
REMARK    5  A    between atoms: CG_6  and  CD_7 
REMARK    6  A    between atoms: N_11  and  CA_12 
REMARK    7  A    between atoms: CA_12  and  C_13 
REMARK    8  A    between atoms: CA_12  and  CB_15 
REMARK       I    between atoms: C_13  and  N_22 
REMARK    9  A    between atoms: CB_15  and  CG_16 
REMARK       I    between atoms: CG_16  and  ND2_17 
REMARK   10  A    between atoms: CA_23  and  C_24 
REMARK       I    between atoms: C_24  and  N_29 
REMARK   11  A    between atoms: N_29  and  CA_30 
REMARK   12  A    between atoms: CA_30  and  C_31 
REMARK   13  A    between atoms: CA_30  and  CB_33 
REMARK       I    between atoms: C_31  and  N_39 
REMARK   14  A    between atoms: CB_33  and  CG_34 
REMARK   15  A    between atoms: CG_34  and  CD_35 
REMARK   16  A    between atoms: N_39  and  CA_40 
REMARK   17  A    between atoms: CA_40  and  C_41 
REMARK   18  A    between atoms: CA_40  and  CB_43 
REMARK       I    between atoms: C_41  and  N_47 
REMARK   19  A    between atoms: CB_43  and  OG_44 
REMARK   20  A    between atoms: N_47  and  CA_48 
REMARK   21  A    between atoms: CA_48  and  C_49 
REMARK   22  A    between atoms: CA_48  and  CB_51 
REMARK       I    between atoms: C_49  and  N_56 
REMARK   23  A    between atoms: CB_51  and  CG1_52 
REMARK   24  A    between atoms: N_56  and  CA_57 
REMARK   25  A    between atoms: CA_57  and  C_58 
REMARK   26  A    between atoms: CA_57  and  CB_60 
REMARK       I    between atoms: C_58  and  N_65 
REMARK   27  A    between atoms: CB_60  and  CG_61 
REMARK   28  A    between atoms: N_65  and  CA_66 
REMARK   29  A    between atoms: CA_66  and  C_67 
REMARK   30  A    between atoms: CA_66  and  CB_69 
REMARK       I    between atoms: C_67  and  N_74 
REMARK   31  A    between atoms: CB_69  and  OG1_71 
REMARK   32  A    between atoms: N_74  and  CA_75 
REMARK   33  A    between atoms: CA_75  and  C_76 
REMARK   34  A    between atoms: CA_75  and  CB_78 
REMARK       I    between atoms: C_76  and  N_84 
REMARK   35  A    between atoms: CB_78  and  CG_79 
REMARK   36  A    between atoms: CG_79  and  CD_80 
REMARK   37  A    between atoms: N_84  and  CA_85 
REMARK   38  A    between atoms: CA_85  and  C_86 
REMARK   39  A    between atoms: CA_85  and  CB_88 
REMARK       I    between atoms: C_86  and  N_96 
REMARK   40  A    between atoms: CB_88  and  CG_89 
REMARK   41  A    between atoms: N_96  and  CA_97 
REMARK   42  A    between atoms: CA_97  and  C_98 
REMARK   43  A    between atoms: CA_97  and  CB_100 
REMARK       I    between atoms: C_98  and  N_104 
REMARK   44  A    between atoms: N_104  and  CA_105 
REMARK   45  A    between atoms: CA_105  and  C_106 
REMARK   46  A    between atoms: CA_105  and  CB_108 
REMARK       I    between atoms: C_106  and  N_116 
REMARK   47  A    between atoms: CB_108  and  CG_109 
REMARK   48  A    between atoms: CG_109  and  CD_110 
REMARK       I    between atoms: CD_110  and  NE2_111 
REMARK   49  A    between atoms: N_116  and  CA_117 
REMARK   50  A    between atoms: CA_117  and  C_118 
REMARK   51  A    between atoms: CA_117  and  CB_120 
REMARK       I    between atoms: C_118  and  N_133 
REMARK   52  A    between atoms: CB_120  and  CG_121 
REMARK   53  A    between atoms: CG_121  and  CD_122 
REMARK   54  A    between atoms: CD_122  and  NE_123 
REMARK       I    between atoms: NE_123  and  CZ_124 
REMARK       I    between atoms: CZ_124  and  NH1_125 
REMARK       I    between atoms: CZ_124  and  NH2_126 
REMARK   55  A    between atoms: N_133  and  CA_134 
REMARK   56  A    between atoms: CA_134  and  C_135 
REMARK   57  A    between atoms: CA_134  and  CB_137 
REMARK       I    between atoms: C_135  and  N_141 
REMARK   58  A    between atoms: N_141  and  CA_142 
REMARK   59  A    between atoms: CA_142  and  C_143 
REMARK   60  A    between atoms: CA_142  and  CB_145 
REMARK       I    between atoms: C_143  and  N_150 
REMARK   61  A    between atoms: CB_145  and  CG_146 
REMARK   62  A    between atoms: CG_146  and  SD_147 
REMARK   63  A    between atoms: N_150  and  CA_151 
REMARK   64  A    between atoms: CA_151  and  C_152 
REMARK   65  A    between atoms: CA_151  and  CB_154 
REMARK   66  A    between atoms: CB_154  and  CG_155 
REMARK   67  A    between atoms: CG_155  and  CD_156 
REMARK   68  A    between atoms: CD_156  and  NE_157 
REMARK       I    between atoms: NE_157  and  CZ_158 
REMARK       I    between atoms: CZ_158  and  NH1_159 
ROOT
ATOM      1  C   GLU d   9    1305.960 381.614-1306.234  0.00  0.00     0.241 C 
ATOM      2  O   GLU d   9    1306.623 382.368-1306.960  0.00  0.00    -0.271 OA
ATOM      3  N   HIS d  10    1306.056 380.339-1306.403  0.00  0.00    -0.346 N 
ATOM      4  H   HIS d  10    1305.526 379.704-1305.824  0.00  0.00     0.163 HD
ENDROOT
BRANCH   1   5
ATOM      5  CA  GLU d   9    1305.042 382.142-1305.158  0.00  0.00     0.177 C 
BRANCH   5   6
ATOM      6  N   GLU d   9    1303.739 381.484-1305.213  0.00  0.00    -0.346 N 
ATOM      7  C   THR d   8    1303.059 381.534-1306.308  0.00  0.00     0.243 C 
ATOM      8  O   THR d   8    1303.521 382.126-1307.263  0.00  0.00    -0.271 OA
ATOM      9  H   GLU d   9    1303.376 380.998-1304.406  0.00  0.00     0.163 HD
BRANCH   7  10
ATOM     10  CA  THR d   8    1301.712 380.854-1306.365  0.00  0.00     0.205 C 
BRANCH  10  11
ATOM     11  N   THR d   8    1301.782 379.505-1305.812  0.00  0.00    -0.344 N 
ATOM     12  C   LEU d   7    1302.620 378.665-1306.319  0.00  0.00     0.241 C 
ATOM     13  O   LEU d   7    1303.340 379.028-1307.261  0.00  0.00    -0.271 OA
ATOM     14  H   THR d   8    1301.185 379.234-1305.045  0.00  0.00     0.163 HD
BRANCH  12  15
ATOM     15  CA  LEU d   7    1302.692 377.269-1305.747  0.00  0.00     0.177 C 
BRANCH  15  16
ATOM     16  N   LEU d   7    1302.747 377.305-1304.288  0.00  0.00    -0.346 N 
ATOM     17  C   ILE d   6    1303.693 377.969-1303.715  0.00  0.00     0.241 C 
ATOM     18  O   ILE d   6    1304.528 378.557-1304.419  0.00  0.00    -0.271 OA
ATOM     19  H   LEU d   7    1302.055 376.818-1303.737  0.00  0.00     0.163 HD
BRANCH  17  20
ATOM     20  CA  ILE d   6    1303.750 378.006-1302.207  0.00  0.00     0.180 C 
BRANCH  20  21
ATOM     21  N   ILE d   6    1302.437 378.301-1301.640  0.00  0.00    -0.346 N 
ATOM     22  C   SER d   5    1301.833 379.384-1301.994  0.00  0.00     0.243 C 
ATOM     23  O   SER d   5    1302.380 380.137-1302.799  0.00  0.00    -0.271 OA
ATOM     24  H   ILE d   6    1302.009 377.666-1300.981  0.00  0.00     0.163 HD
BRANCH  22  25
ATOM     25  CA  SER d   5    1300.474 379.689-1301.409  0.00  0.00     0.200 C 
BRANCH  25  26
ATOM     26  N   SER d   5    1299.604 378.518-1301.467  0.00  0.00    -0.344 N 
ATOM     27  C   GLU d   4    1299.377 377.965-1302.610  0.00  0.00     0.241 C 
ATOM     28  O   GLU d   4    1299.903 378.445-1303.625  0.00  0.00    -0.271 OA
ATOM     29  H   SER d   5    1299.188 378.146-1300.625  0.00  0.00     0.163 HD
BRANCH  27  30
ATOM     30  CA  GLU d   4    1298.478 376.754-1302.671  0.00  0.00     0.177 C 
BRANCH  30  31
ATOM     31  N   GLU d   4    1298.838 375.783-1301.642  0.00  0.00    -0.346 N 
ATOM     32  C   PRO d   3    1300.042 375.323-1301.609  0.00  0.00     0.241 C 
ATOM     33  O   PRO d   3    1300.866 375.706-1302.441  0.00  0.00    -0.271 OA
ATOM     34  H   GLU d   4    1298.154 375.476-1300.965  0.00  0.00     0.163 HD
BRANCH  32  35
ATOM     35  CA  PRO d   3    1300.441 374.299-1300.533  0.00  0.00     0.179 C 
ATOM     36  N   PRO d   3    1299.989 374.709-1299.211  0.00  0.00    -0.337 N 
ATOM     37  C   ASN d   2    1300.510 375.704-1298.577  0.00  0.00     0.243 C 
ATOM     38  CD  PRO d   3    1298.911 373.916-1298.662  0.00  0.00     0.127 C 
ATOM     39  O   ASN d   2    1301.425 376.334-1299.106  0.00  0.00    -0.271 OA
ATOM     40  CG  PRO d   3    1298.453 373.097-1299.872  0.00  0.00     0.022 C 
ATOM     41  CB  PRO d   3    1299.737 372.945-1300.702  0.00  0.00     0.037 C 
BRANCH  37  42
ATOM     42  CA  ASN d   2    1299.979 376.059-1297.208  0.00  0.00     0.185 C 
BRANCH  42  43
ATOM     43  N   ASN d   2    1298.520 376.098-1297.208  0.00  0.00    -0.346 N 
ATOM     44  C   GLU d   1    1297.915 376.884-1298.033  0.00  0.00     0.242 C 
ATOM     45  O   GLU d   1    1298.591 377.583-1298.802  0.00  0.00    -0.271 OA
ATOM     46  H   ASN d   2    1297.992 375.518-1296.572  0.00  0.00     0.163 HD
BRANCH  44  47
ATOM     47  CA  GLU d   1    1296.406 376.924-1298.033  0.00  0.00     0.191 C 
BRANCH  47  48
ATOM     48  N   GLU d   1    1295.847 375.575-1298.033  0.00  0.00    -0.326 NA
ATOM     49  H   GLU d   1    1296.474 374.696-1298.033  0.00  0.00     0.180 HD
ENDBRANCH  47  48
BRANCH  47  50
ATOM     50  CB  GLU d   1    1295.883 377.709-1296.796  0.00  0.00     0.047 C 
BRANCH  50  51
ATOM     51  CG  GLU d   1    1296.358 379.194-1296.685  0.00  0.00     0.116 C 
BRANCH  51  52
ATOM     52  CD  GLU d   1    1295.934 379.998-1295.470  0.00  0.00     0.172 C 
ATOM     53  OE1 GLU d   1    1295.206 379.496-1294.592  0.00  0.00    -0.648 OA
ATOM     54  OE2 GLU d   1    1296.364 381.168-1295.398  0.00  0.00    -0.648 OA
ENDBRANCH  51  52
ENDBRANCH  50  51
ENDBRANCH  47  50
ENDBRANCH  44  47
ENDBRANCH  42  43
BRANCH  42  55
ATOM     55  CB  ASN d   2    1300.471 375.036-1296.144  0.00  0.00     0.137 C 
BRANCH  55  56
ATOM     56  CG  ASN d   2    1300.008 375.260-1294.701  0.00  0.00     0.217 C 
ATOM     57  ND2 ASN d   2    1300.603 376.175-1293.982  0.00  0.00    -0.370 N 
ATOM     58 21HD ASN d   2    1300.122 376.348-1293.096  0.00  0.00     0.159 HD
ATOM     59 22HD ASN d   2    1301.304 376.747-1294.452  0.00  0.00     0.159 HD
ATOM     60  OD1 ASN d   2    1299.088 374.626-1294.206  0.00  0.00    -0.274 OA
ENDBRANCH  55  56
ENDBRANCH  42  55
ENDBRANCH  37  42
ENDBRANCH  32  35
ENDBRANCH  30  31
BRANCH  30  61
ATOM     61  CB  GLU d   4    1296.989 377.173-1302.501  0.00  0.00     0.045 C 
BRANCH  61  62
ATOM     62  CG  GLU d   4    1296.441 378.176-1303.566  0.00  0.00     0.116 C 
BRANCH  62  63
ATOM     63  CD  GLU d   4    1295.015 378.673-1303.422  0.00  0.00     0.172 C 
ATOM     64  OE1 GLU d   4    1294.288 378.274-1302.491  0.00  0.00    -0.648 OA
ATOM     65  OE2 GLU d   4    1294.625 379.502-1304.271  0.00  0.00    -0.648 OA
ENDBRANCH  62  63
ENDBRANCH  61  62
ENDBRANCH  30  61
ENDBRANCH  27  30
ENDBRANCH  25  26
BRANCH  25  66
ATOM     66  CB  SER d   5    1300.585 380.221-1299.958  0.00  0.00     0.199 C 
BRANCH  66  67
ATOM     67  OG  SER d   5    1301.317 379.342-1299.097  0.00  0.00    -0.398 OA
ATOM     68  HG  SER d   5    1300.829 378.517-1299.047  0.00  0.00     0.209 HD
ENDBRANCH  66  67
ENDBRANCH  25  66
ENDBRANCH  22  25
ENDBRANCH  20  21
BRANCH  20  69
ATOM     69  CB  ILE d   6    1304.350 376.670-1301.607  0.00  0.00     0.013 C 
ATOM     70  CG2 ILE d   6    1305.792 376.368-1302.122  0.00  0.00     0.012 C 
BRANCH  69  71
ATOM     71  CG1 ILE d   6    1304.370 376.608-1300.046  0.00  0.00     0.002 C 
ATOM     72  CD1 ILE d   6    1304.640 375.218-1299.431  0.00  0.00     0.005 C 
ENDBRANCH  69  71
ENDBRANCH  20  69
ENDBRANCH  17  20
ENDBRANCH  15  16
BRANCH  15  73
ATOM     73  CB  LEU d   7    1301.489 376.409-1306.227  0.00  0.00     0.038 C 
BRANCH  73  74
ATOM     74  CG  LEU d   7    1301.416 374.930-1305.761  0.00  0.00    -0.020 C 
ATOM     75  CD1 LEU d   7    1300.227 374.224-1306.427  0.00  0.00     0.009 C 
ATOM     76  CD2 LEU d   7    1302.710 374.151-1306.053  0.00  0.00     0.009 C 
ENDBRANCH  73  74
ENDBRANCH  15  73
ENDBRANCH  12  15
ENDBRANCH  10  11
BRANCH  10  77
ATOM     77  CB  THR d   8    1300.632 381.702-1305.613  0.00  0.00     0.146 C 
ATOM     78  CG2 THR d   8    1300.454 383.160-1306.086  0.00  0.00     0.042 C 
BRANCH  77  79
ATOM     79  OG1 THR d   8    1299.344 381.118-1305.764  0.00  0.00    -0.393 OA
ATOM     80  1HG THR d   8    1298.748 381.643-1305.223  0.00  0.00     0.210 HD
ENDBRANCH  77  79
ENDBRANCH  10  77
ENDBRANCH   7  10
ENDBRANCH   5   6
BRANCH   5  81
ATOM     81  CB  GLU d   9    1305.676 381.935-1303.753  0.00  0.00     0.045 C 
BRANCH  81  82
ATOM     82  CG  GLU d   9    1307.059 382.627-1303.524  0.00  0.00     0.116 C 
BRANCH  82  83
ATOM     83  CD  GLU d   9    1307.761 382.415-1302.196  0.00  0.00     0.172 C 
ATOM     84  OE1 GLU d   9    1307.240 381.724-1301.299  0.00  0.00    -0.648 OA
ATOM     85  OE2 GLU d   9    1308.880 382.953-1302.065  0.00  0.00    -0.648 OA
ENDBRANCH  82  83
ENDBRANCH  81  82
ENDBRANCH   5  81
ENDBRANCH   1   5
BRANCH   3  86
ATOM     86  CA  HIS d  10    1306.944 379.827-1307.444  0.00  0.00     0.182 C 
BRANCH  86  87
ATOM     87  C   HIS d  10    1306.576 380.391-1308.795  0.00  0.00     0.241 C 
ATOM     88  O   HIS d  10    1307.429 380.856-1309.567  0.00  0.00    -0.271 OA
ATOM     89  N   VAL d  11    1305.339 380.390-1309.158  0.00  0.00    -0.346 N 
ATOM     90  H   VAL d  11    1304.626 380.017-1308.547  0.00  0.00     0.163 HD
BRANCH  89  91
ATOM     91  CA  VAL d  11    1304.983 380.936-1310.464  0.00  0.00     0.180 C 
BRANCH  91  92
ATOM     92  C   VAL d  11    1305.447 382.367-1310.597  0.00  0.00     0.241 C 
ATOM     93  O   VAL d  11    1306.047 382.772-1311.601  0.00  0.00    -0.271 OA
ATOM     94  N   GLN d  12    1305.210 383.193-1309.635  0.00  0.00    -0.346 N 
ATOM     95  H   GLN d  12    1304.722 382.886-1308.806  0.00  0.00     0.163 HD
BRANCH  94  96
ATOM     96  CA  GLN d  12    1305.658 384.576-1309.763  0.00  0.00     0.177 C 
BRANCH  96  97
ATOM     97  C   GLN d  12    1307.148 384.643-1310.001  0.00  0.00     0.241 C 
ATOM     98  O   GLN d  12    1307.635 385.351-1310.880  0.00  0.00    -0.271 OA
ATOM     99  N   ARG d  13    1307.933 383.936-1309.260  0.00  0.00    -0.346 N 
ATOM    100  H   ARG d  13    1307.557 383.346-1308.532  0.00  0.00     0.163 HD
BRANCH  99 101
ATOM    101  CA  ARG d  13    1309.373 384.002-1309.491  0.00  0.00     0.176 C 
BRANCH 101 102
ATOM    102  C   ARG d  13    1309.709 383.631-1310.917  0.00  0.00     0.241 C 
ATOM    103  O   ARG d  13    1310.478 384.303-1311.600  0.00  0.00    -0.271 OA
ATOM    104  N   VAL d  14    1309.173 382.576-1311.431  0.00  0.00    -0.346 N 
ATOM    105  H   VAL d  14    1308.538 382.008-1310.889  0.00  0.00     0.163 HD
BRANCH 104 106
ATOM    106  CA  VAL d  14    1309.498 382.217-1312.809  0.00  0.00     0.180 C 
BRANCH 106 107
ATOM    107  C   VAL d  14    1309.168 383.347-1313.754  0.00  0.00     0.241 C 
ATOM    108  O   VAL d  14    1309.962 383.729-1314.624  0.00  0.00    -0.271 OA
ATOM    109  N   MET d  15    1308.023 383.933-1313.653  0.00  0.00    -0.346 N 
ATOM    110  H   MET d  15    1307.358 383.640-1312.951  0.00  0.00     0.163 HD
BRANCH 109 111
ATOM    111  CA  MET d  15    1307.703 385.026-1314.567  0.00  0.00     0.177 C 
BRANCH 111 112
ATOM    112  C   MET d  15    1308.733 386.126-1314.479  0.00  0.00     0.241 C 
ATOM    113  O   MET d  15    1309.236 386.637-1315.491  0.00  0.00    -0.271 OA
ATOM    114  N   ARG d  16    1309.102 386.547-1313.316  0.00  0.00    -0.347 N 
ATOM    115  H   ARG d  16    1308.707 386.147-1312.477  0.00  0.00     0.163 HD
BRANCH 114 116
ATOM    116  CA  ARG d  16    1310.098 387.611-1313.233  0.00  0.00     0.162 C 
BRANCH 116 117
ATOM    117  C   ARG d  16    1311.369 387.219-1313.949  0.00  0.00     0.219 C 
ATOM    118  O   ARG d  16    1311.483 386.142-1314.530  0.00  0.00    -0.287 OA
ENDBRANCH 116 117
BRANCH 116 119
ATOM    119  CB  ARG d  16    1310.367 387.929-1311.734  0.00  0.00     0.035 C 
BRANCH 119 120
ATOM    120  CG  ARG d  16    1311.192 389.218-1311.461  0.00  0.00     0.023 C 
BRANCH 120 121
ATOM    121  CD  ARG d  16    1311.441 389.438-1309.960  0.00  0.00     0.138 C 
BRANCH 121 122
ATOM    122  NE  ARG d  16    1312.217 390.697-1309.759  0.00  0.00    -0.227 N 
ATOM    123  CZ  ARG d  16    1312.608 391.179-1308.583  0.00  0.00     0.665 C 
ATOM    124  NH1 ARG d  16    1312.360 390.595-1307.445  0.00  0.00    -0.235 N 
ATOM    125  NH2 ARG d  16    1313.272 392.292-1308.565  0.00  0.00    -0.235 N 
ATOM    126 11HH ARG d  16    1311.835 389.722-1307.529  0.00  0.00     0.174 HD
ATOM    127 12HH ARG d  16    1312.695 391.030-1306.584  0.00  0.00     0.174 HD
ATOM    128 21HH ARG d  16    1313.458 392.735-1309.467  0.00  0.00     0.174 HD
ATOM    129 22HH ARG d  16    1313.562 392.647-1307.652  0.00  0.00     0.174 HD
ATOM    130  HE  ARG d  16    1312.496 391.278-1310.556  0.00  0.00     0.177 HD
ENDBRANCH 121 122
ENDBRANCH 120 121
ENDBRANCH 119 120
ENDBRANCH 116 119
ENDBRANCH 114 116
ENDBRANCH 111 112
BRANCH 111 131
ATOM    131  CB  MET d  15    1306.281 385.572-1314.258  0.00  0.00     0.045 C 
BRANCH 131 132
ATOM    132  CG  MET d  15    1305.119 384.573-1314.450  0.00  0.00     0.076 C 
BRANCH 132 133
ATOM    133  SD  MET d  15    1303.546 385.439-1314.336  0.00  0.00    -0.173 SA
ATOM    134  CE  MET d  15    1302.464 384.010-1314.199  0.00  0.00     0.089 C 
ENDBRANCH 132 133
ENDBRANCH 131 132
ENDBRANCH 111 131
ENDBRANCH 109 111
ENDBRANCH 106 107
BRANCH 106 135
ATOM    135  CB  VAL d  14    1308.726 380.900-1313.216  0.00  0.00     0.009 C 
ATOM    136  CG1 VAL d  14    1308.815 380.482-1314.709  0.00  0.00     0.012 C 
ATOM    137  CG2 VAL d  14    1309.158 379.648-1312.415  0.00  0.00     0.012 C 
ENDBRANCH 106 135
ENDBRANCH 104 106
ENDBRANCH 101 102
BRANCH 101 138
ATOM    138  CB  ARG d  13    1310.087 383.063-1308.478  0.00  0.00     0.036 C 
BRANCH 138 139
ATOM    139  CG  ARG d  13    1311.632 383.216-1308.397  0.00  0.00     0.023 C 
BRANCH 139 140
ATOM    140  CD  ARG d  13    1312.259 382.229-1307.399  0.00  0.00     0.138 C 
BRANCH 140 141
ATOM    141  NE  ARG d  13    1313.736 382.436-1307.349  0.00  0.00    -0.227 N 
ATOM    142  CZ  ARG d  13    1314.584 381.744-1306.594  0.00  0.00     0.665 C 
ATOM    143  NH1 ARG d  13    1314.219 380.780-1305.797  0.00  0.00    -0.235 N 
ATOM    144  NH2 ARG d  13    1315.844 382.043-1306.651  0.00  0.00    -0.235 N 
ATOM    145 11HH ARG d  13    1313.214 380.594-1305.800  0.00  0.00     0.174 HD
ATOM    146 12HH ARG d  13    1314.933 380.297-1305.248  0.00  0.00     0.174 HD
ATOM    147 21HH ARG d  13    1316.111 382.801-1307.282  0.00  0.00     0.174 HD
ATOM    148 22HH ARG d  13    1316.479 381.502-1306.063  0.00  0.00     0.174 HD
ATOM    149  HE  ARG d  13    1314.187 383.158-1307.920  0.00  0.00     0.177 HD
ENDBRANCH 140 141
ENDBRANCH 139 140
ENDBRANCH 138 139
ENDBRANCH 101 138
ENDBRANCH  99 101
ENDBRANCH  96  97
BRANCH  96 150
ATOM    150  CB  GLN d  12    1305.268 385.343-1308.480  0.00  0.00     0.044 C 
BRANCH 150 151
ATOM    151  CG  GLN d  12    1305.628 386.865-1308.449  0.00  0.00     0.105 C 
BRANCH 151 152
ATOM    152  CD  GLN d  12    1305.326 387.678-1307.184  0.00  0.00     0.215 C 
ATOM    153  NE2 GLN d  12    1304.759 387.102-1306.155  0.00  0.00    -0.370 N 
ATOM    154 21HE GLN d  12    1304.652 387.697-1305.332  0.00  0.00     0.159 HD
ATOM    155 22HE GLN d  12    1304.596 386.098-1306.258  0.00  0.00     0.159 HD
ATOM    156  OE1 GLN d  12    1305.627 388.860-1307.107  0.00  0.00    -0.274 OA
ENDBRANCH 151 152
ENDBRANCH 150 151
ENDBRANCH  96 150
ENDBRANCH  94  96
ENDBRANCH  91  92
BRANCH  91 157
ATOM    157  CB  VAL d  11    1303.422 380.829-1310.683  0.00  0.00     0.009 C 
ATOM    158  CG1 VAL d  11    1302.852 381.533-1311.946  0.00  0.00     0.012 C 
ATOM    159  CG2 VAL d  11    1302.897 379.375-1310.756  0.00  0.00     0.012 C 
ENDBRANCH  91 157
ENDBRANCH  89  91
ENDBRANCH  86  87
BRANCH  86 160
ATOM    160  CB  HIS d  10    1306.780 378.298-1307.438  0.00  0.00     0.095 C 
BRANCH 160 161
ATOM    161  CG  HIS d  10    1308.066 377.589-1307.131  0.00  0.00     0.053 A 
ATOM    162  CD2 HIS d  10    1308.447 377.254-1305.838  0.00  0.00     0.116 A 
ATOM    163  NE2 HIS d  10    1309.662 376.622-1305.905  0.00  0.00    -0.359 N 
ATOM    164  CE1 HIS d  10    1309.924 376.625-1307.240  0.00  0.00     0.207 A 
ATOM    165  2HE HIS d  10    1310.229 376.245-1305.132  0.00  0.00     0.166 HD
ATOM    166  ND1 HIS d  10    1309.018 377.182-1308.063  0.00  0.00    -0.247 NA
ENDBRANCH 160 161
ENDBRANCH  86 160
ENDBRANCH   3  86
TORSDOF 68
