@<TRIPOS>MOLECULE
1-8
270 272 16              
SMALL
USER_CHARGES
@<TRIPOS>ATOM
1	   N	63.190	12.892	-42.610	N.3	1	PHE1	-0.416	
2	  CA	63.705	14.258	-42.610	C.3	1	PHE1	-0.002	
3	   C	65.215	14.268	-42.610	C.2	1	PHE1	0.597	
4	   O	65.878	15.003	-43.394	O.2	1	PHE1	-0.568	
5	  CB	63.197	15.021	-41.349	C.3	1	PHE1	-0.034	
6	  CG	61.673	15.116	-41.174	C.2	1	PHE1	0.012	
7	 CD1	60.991	14.101	-40.493	C.2	1	PHE1	-0.126	
8	 CD2	60.952	16.170	-41.740	C.2	1	PHE1	-0.126	
9	 CE1	59.604	14.131	-40.396	C.2	1	PHE1	-0.170	
10	 CE2	59.564	16.205	-41.633	C.2	1	PHE1	-0.170	
11	  CZ	58.891	15.184	-40.964	C.2	1	PHE1	-0.107	
12	   H	63.845	12.034	-42.610	 H	1	PHE1	0.272	
13	  HA	63.359	14.772	-43.527	 H	1	PHE1	0.098	
14	 2HB	63.613	16.048	-41.348	 H	1	PHE1	0.030	
15	 3HB	63.634	14.565	-40.437	 H	1	PHE1	0.030	
16	 1HD	61.536	13.264	-40.077	 H	1	PHE1	0.133	
17	 2HD	61.466	16.954	-42.279	 H	1	PHE1	0.133	
18	 1HE	59.085	13.327	-39.895	 H	1	PHE1	0.143	
19	 2HE	59.010	17.018	-42.079	 H	1	PHE1	0.143	
20	  HZ	57.814	15.202	-40.892	 H	1	PHE1	0.130	
21	   N	65.846	13.503	-41.785	N.am	2	ASN2	-0.416	
22	  CA	67.306	13.513	-41.786	C.3	2	ASN2	0.014	
23	   C	67.848	13.176	-43.155	C.2	2	ASN2	0.597	
24	   O	68.741	13.836	-43.684	O.2	2	ASN2	-0.568	
25	  CB	67.833	12.507	-40.722	C.3	2	ASN2	-0.204	
26	  CG	67.363	12.715	-39.278	C.2	2	ASN2	0.713	
27	 ND2	67.927	13.650	-38.561	N.pl3	2	ASN2	-0.919	
28	 OD1	66.464	12.051	-38.784	O.2	2	ASN2	-0.593	
29	   H	65.338	12.905	-41.149	 H	2	ASN2	0.272	
30	  HA	67.649	14.535	-41.541	 H	2	ASN2	0.105	
31	 2HB	68.938	12.485	-40.726	 H	2	ASN2	0.080	
32	 3HB	67.538	11.478	-41.008	 H	2	ASN2	0.080	
33	1HD2	67.441	13.806	-37.674	 H	2	ASN2	0.420	
34	2HD2	68.608	14.245	-39.030	 H	2	ASN2	0.420	
35	   N	67.360	12.163	-43.789	N.am	3	PRO3	-0.255	
36	  CA	67.825	11.770	-45.111	C.3	3	PRO3	-0.027	
37	   C	67.392	12.779	-46.187	C.2	3	PRO3	0.590	
38	   O	68.201	13.190	-47.019	O.2	3	PRO3	-0.575	
39	  CB	67.166	10.392	-45.280	C.3	3	PRO3	-0.007	
40	  CG	65.879	10.501	-44.449	C.3	3	PRO3	0.019	
41	  CD	66.310	11.334	-43.239	C.3	3	PRO3	0.019	
42	  HA	68.914	11.686	-45.125	 H	3	PRO3	0.064	
43	 2HB	67.815	9.632	-44.839	 H	3	PRO3	0.025	
44	 3HB	66.976	10.137	-46.325	 H	3	PRO3	0.025	
45	 2HG	65.484	9.525	-44.157	 H	3	PRO3	0.021	
46	 3HG	65.122	11.047	-45.016	 H	3	PRO3	0.021	
47	 2HD	66.721	10.698	-42.452	 H	3	PRO3	0.039	
48	 3HD	65.492	11.943	-42.846	 H	3	PRO3	0.039	
49	   N	66.172	13.198	-46.219	N.am	4	GLU4	-0.516	
50	  CA	65.779	14.157	-47.248	C.3	4	GLU4	0.040	
51	   C	66.637	15.397	-47.188	C.2	4	GLU4	0.537	
52	   O	67.146	15.894	-48.202	O.2	4	GLU4	-0.582	
53	  CB	64.277	14.525	-47.077	C.3	4	GLU4	0.056	
54	  CG	63.695	15.509	-48.142	C.3	4	GLU4	0.014	
55	  CD	62.253	15.957	-47.998	C.2	4	GLU4	0.805	
56	 OE1	61.541	15.535	-47.067	O.co2	4	GLU4	-0.819	
57	 OE2	61.835	16.773	-48.846	O.co2	4	GLU4	-0.819	
58	   H	65.499	12.869	-45.542	 H	4	GLU4	0.294	
59	  HA	65.925	13.691	-48.240	 H	4	GLU4	0.111	
60	 2HB	64.111	14.959	-46.070	 H	4	GLU4	-0.017	
61	 3HB	63.660	13.606	-47.083	 H	4	GLU4	-0.017	
62	 2HG	63.790	15.097	-49.160	 H	4	GLU4	-0.043	
63	 3HG	64.251	16.461	-48.154	 H	4	GLU4	-0.043	
64	   N	66.846	15.957	-46.045	N.am	5	SER5	-0.416	
65	  CA	67.675	17.157	-45.986	C.3	5	SER5	-0.025	
66	   C	69.043	16.898	-46.573	C.2	5	SER5	0.597	
67	   O	69.564	17.669	-47.378	O.2	5	SER5	-0.568	
68	  CB	67.770	17.693	-44.536	C.3	5	SER5	0.212	
69	  OG	68.531	16.839	-43.675	O.3	5	SER5	-0.655	
70	   H	66.442	15.572	-45.203	 H	5	SER5	0.272	
71	  HA	67.199	17.932	-46.615	 H	5	SER5	0.084	
72	 2HB	66.764	17.853	-44.102	 H	5	SER5	0.035	
73	 3HB	68.241	18.695	-44.539	 H	5	SER5	0.035	
74	  HG	68.071	15.998	-43.625	 H	5	SER5	0.428	
75	   N	69.685	15.836	-46.219	N.am	6	ILE6	-0.416	
76	  CA	71.007	15.586	-46.786	C.3	6	ILE6	-0.060	
77	   C	70.950	15.546	-48.294	C.2	6	ILE6	0.597	
78	   O	71.764	16.162	-48.998	O.2	6	ILE6	-0.568	
79	  CB	71.652	14.270	-46.187	C.3	6	ILE6	0.130	
80	 CG1	71.674	14.209	-44.626	C.3	6	ILE6	-0.043	
81	 CG2	73.102	14.018	-46.703	C.3	6	ILE6	-0.320	
82	 CD1	71.991	12.830	-44.011	C.3	6	ILE6	-0.066	
83	   H	69.278	15.187	-45.560	 H	6	ILE6	0.272	
84	  HA	71.652	16.442	-46.519	 H	6	ILE6	0.087	
85	  HB	71.022	13.423	-46.530	 H	6	ILE6	0.019	
86	2HG1	70.682	14.495	-44.229	 H	6	ILE6	0.024	
87	3HG1	72.365	14.975	-44.221	 H	6	ILE6	0.024	
88	1HG2	73.163	13.926	-47.801	 H	6	ILE6	0.088	
89	2HG2	73.798	14.824	-46.401	 H	6	ILE6	0.088	
90	3HG2	73.525	13.069	-46.324	 H	6	ILE6	0.088	
91	1HD1	71.289	12.052	-44.365	 H	6	ILE6	0.019	
92	2HD1	73.014	12.486	-44.247	 H	6	ILE6	0.019	
93	3HD1	71.915	12.857	-42.908	 H	6	ILE6	0.019	
94	   N	70.027	14.851	-48.867	N.am	7	LEU7	-0.416	
95	  CA	69.972	14.813	-50.326	C.3	7	LEU7	-0.052	
96	   C	69.852	16.205	-50.898	C.2	7	LEU7	0.597	
97	   O	70.560	16.592	-51.840	O.2	7	LEU7	-0.568	
98	  CB	68.799	13.913	-50.805	C.3	7	LEU7	-0.110	
99	  CG	68.776	12.432	-50.339	C.3	7	LEU7	0.353	
100	 CD1	67.611	11.686	-51.004	C.3	7	LEU7	-0.412	
101	 CD2	70.095	11.697	-50.631	C.3	7	LEU7	-0.412	
102	   H	69.352	14.341	-48.315	 H	7	LEU7	0.272	
103	  HA	70.928	14.405	-50.701	 H	7	LEU7	0.092	
104	 2HB	68.774	13.928	-51.913	 H	7	LEU7	0.046	
105	 3HB	67.843	14.383	-50.501	 H	7	LEU7	0.046	
106	  HG	68.608	12.418	-49.242	 H	7	LEU7	-0.036	
107	1HD1	66.637	12.162	-50.781	 H	7	LEU7	0.100	
108	2HD1	67.711	11.649	-52.105	 H	7	LEU7	0.100	
109	3HD1	67.539	10.642	-50.648	 H	7	LEU7	0.100	
110	1HD2	70.369	11.736	-51.701	 H	7	LEU7	0.100	
111	2HD2	70.935	12.137	-50.060	 H	7	LEU7	0.100	
112	3HD2	70.050	10.632	-50.335	 H	7	LEU7	0.100	
113	   N	68.987	17.017	-50.391	N.am	8	ASP8	-0.516	
114	  CA	68.871	18.363	-50.944	C.3	8	ASP8	0.038	
115	   C	70.194	19.088	-50.888	C.2	8	ASP8	0.537	
116	   O	70.645	19.709	-51.862	O.2	8	ASP8	-0.582	
117	  CB	67.766	19.165	-50.202	C.3	8	ASP8	-0.030	
118	  CG	67.498	20.578	-50.742	C.2	8	ASP8	0.799	
119	 OD1	67.555	20.779	-51.973	O.co2	8	ASP8	-0.801	
120	 OD2	67.275	21.497	-49.926	O.co2	8	ASP8	-0.801	
121	   H	68.400	16.726	-49.623	 H	8	ASP8	0.294	
122	  HA	68.590	18.276	-52.011	 H	8	ASP8	0.088	
123	 2HB	68.020	19.257	-49.130	 H	8	ASP8	-0.012	
124	 3HB	66.804	18.627	-50.234	 H	8	ASP8	-0.012	
125	   N	70.875	19.062	-49.793	N.am	9	GLU9	-0.516	
126	  CA	72.155	19.763	-49.738	C.3	9	GLU9	0.040	
127	   C	73.090	19.267	-50.814	C.2	9	GLU9	0.537	
128	   O	73.728	20.044	-51.540	O.2	9	GLU9	-0.582	
129	  CB	72.796	19.577	-48.333	C.3	9	GLU9	0.056	
130	  CG	74.155	20.315	-48.104	C.3	9	GLU9	0.014	
131	  CD	74.864	20.126	-46.777	C.2	9	GLU9	0.805	
132	 OE1	74.367	19.418	-45.880	O.co2	9	GLU9	-0.819	
133	 OE2	75.964	20.701	-46.645	O.co2	9	GLU9	-0.819	
134	   H	70.529	18.563	-48.986	 H	9	GLU9	0.294	
135	  HA	71.976	20.839	-49.913	 H	9	GLU9	0.111	
136	 2HB	72.946	18.497	-48.130	 H	9	GLU9	-0.017	
137	 3HB	72.088	19.906	-47.548	 H	9	GLU9	-0.017	
138	 2HG	74.046	21.403	-48.244	 H	9	GLU9	-0.043	
139	 3HG	74.912	19.996	-48.839	 H	9	GLU9	-0.043	
140	   N	73.230	17.996	-50.984	N.am	10	HIS10	-0.416	
141	  CA	74.134	17.515	-52.025	C.3	10	HIS10	-0.058	
142	   C	73.747	18.067	-53.376	C.2	10	HIS10	0.597	
143	   O	74.583	18.561	-54.148	O.2	10	HIS10	-0.568	
144	  CB	74.022	15.981	-52.020	C.3	10	HIS10	-0.007	
145	  CG	75.331	15.315	-51.713	C.2	10	HIS10	0.187	
146	 CD2	75.724	14.993	-50.421	C.2	10	HIS10	-0.221	
147	 ND1	76.296	14.942	-52.646	N.2	10	HIS10	-0.543	
148	 CE1	77.221	14.415	-51.824	C.2	10	HIS10	0.163	
149	 NE2	76.960	14.403	-50.488	N.pl3	10	HIS10	-0.280	
150	   H	72.721	17.343	-50.406	 H	10	HIS10	0.272	
151	  HA	75.140	17.907	-51.801	 H	10	HIS10	0.136	
152	 2HB	73.669	15.602	-53.000	 H	10	HIS10	0.037	
153	 3HB	73.279	15.619	-51.280	 H	10	HIS10	0.037	
154	 2HD	75.132	15.188	-49.531	 H	10	HIS10	0.186	
155	 1HE	78.126	14.025	-52.271	 H	10	HIS10	0.144	
156	 2HE	77.539	14.045	-49.715	 H	10	HIS10	0.334	
157	   N	72.510	18.024	-53.738	N.am	11	VAL11	-0.416	
158	  CA	72.136	18.558	-55.045	C.3	11	VAL11	-0.087	
159	   C	72.551	20.003	-55.177	C.2	11	VAL11	0.597	
160	   O	73.138	20.429	-56.181	O.2	11	VAL11	-0.568	
161	  CB	70.579	18.398	-55.264	C.3	11	VAL11	0.299	
162	 CG1	69.986	19.082	-56.526	C.3	11	VAL11	-0.319	
163	 CG2	70.104	16.927	-55.337	C.3	11	VAL11	-0.319	
164	   H	71.811	17.627	-53.127	 H	11	VAL11	0.272	
165	  HA	72.675	17.994	-55.828	 H	11	VAL11	0.097	
166	  HB	70.076	18.861	-54.388	 H	11	VAL11	-0.030	
167	1HG1	70.437	18.706	-57.463	 H	11	VAL11	0.079	
168	2HG1	68.892	18.938	-56.607	 H	11	VAL11	0.079	
169	3HG1	70.127	20.180	-56.516	 H	11	VAL11	0.079	
170	1HG2	70.414	16.350	-54.446	 H	11	VAL11	0.079	
171	2HG2	69.000	16.852	-55.379	 H	11	VAL11	0.079	
172	3HG2	70.504	16.400	-56.224	 H	11	VAL11	0.079	
173	   N	72.287	20.820	-54.215	N.am	12	GLN12	-0.416	
174	  CA	72.688	22.218	-54.342	C.3	12	GLN12	-0.003	
175	   C	74.174	22.336	-54.580	C.2	12	GLN12	0.597	
176	   O	74.637	23.061	-55.459	O.2	12	GLN12	-0.568	
177	  CB	72.272	22.971	-53.059	C.3	12	GLN12	-0.004	
178	  CG	72.580	24.505	-53.028	C.3	12	GLN12	-0.064	
179	  CD	72.250	25.307	-51.763	C.2	12	GLN12	0.695	
180	 NE2	71.704	24.711	-50.733	N.pl3	12	GLN12	-0.941	
181	 OE1	72.512	26.498	-51.685	O.2	12	GLN12	-0.609	
182	   H	71.809	20.498	-53.385	 H	12	GLN12	0.272	
183	  HA	72.173	22.657	-55.217	 H	12	GLN12	0.085	
184	 2HB	72.765	22.488	-52.190	 H	12	GLN12	0.017	
185	 3HB	71.186	22.827	-52.895	 H	12	GLN12	0.017	
186	 2HG	72.084	25.009	-53.878	 H	12	GLN12	0.035	
187	 3HG	73.658	24.683	-53.194	 H	12	GLN12	0.035	
188	1HE2	71.577	25.302	-49.910	 H	12	GLN12	0.425	
189	2HE2	71.575	23.703	-50.837	 H	12	GLN12	0.425	
190	   N	74.983	21.656	-53.840	N.am	13	ARG13	-0.348	
191	  CA	76.420	21.771	-54.072	C.3	13	ARG13	-0.264	
192	   C	76.768	21.412	-55.497	C.2	13	ARG13	0.734	
193	   O	77.513	22.109	-56.181	O.2	13	ARG13	-0.589	
194	  CB	77.166	20.857	-53.058	C.3	13	ARG13	-0.001	
195	  CG	78.704	21.062	-52.978	C.3	13	ARG13	0.039	
196	  CD	79.365	20.097	-51.981	C.3	13	ARG13	0.049	
197	  NE	80.835	20.354	-51.931	N.pl3	13	ARG13	-0.530	
198	  CZ	81.706	19.691	-51.176	C.cat	13	ARG13	0.808	
199	 NH1	81.374	18.715	-50.379	N.pl3	13	ARG13	-0.863	
200	 NH2	82.954	20.033	-51.234	N.pl3	13	ARG13	-0.863	
201	   H	74.628	21.054	-53.112	 H	13	ARG13	0.275	
202	  HA	76.709	22.827	-53.913	 H	13	ARG13	0.156	
203	 2HB	76.935	19.798	-53.297	 H	13	ARG13	0.033	
204	 3HB	76.735	21.009	-52.047	 H	13	ARG13	0.033	
205	 2HG	78.917	22.115	-52.698	 H	13	ARG13	0.029	
206	 3HG	79.160	20.922	-53.980	 H	13	ARG13	0.029	
207	 2HD	79.156	19.049	-52.290	 H	13	ARG13	0.069	
208	 3HD	78.904	20.226	-50.978	 H	13	ARG13	0.069	
209	  HE	81.260	21.091	-52.502	 H	13	ARG13	0.346	
210	1HH1	80.376	18.495	-50.382	 H	13	ARG13	0.448	
211	2HH1	82.104	18.256	-49.831	 H	13	ARG13	0.448	
212	1HH2	83.196	20.800	-51.865	 H	13	ARG13	0.448	
213	2HH2	83.608	19.514	-50.645	 H	13	ARG13	0.448	
214	   N	76.268	20.339	-56.011	N.am	14	VAL14	-0.416	
215	  CA	76.604	19.992	-57.389	C.3	14	VAL14	-0.087	
216	   C	76.235	21.110	-58.334	C.2	14	VAL14	0.597	
217	   O	77.015	21.518	-59.204	O.2	14	VAL14	-0.568	
218	  CB	75.877	18.649	-57.796	C.3	14	VAL14	0.299	
219	 CG1	75.979	18.234	-59.289	C.3	14	VAL14	-0.319	
220	 CG2	76.352	17.412	-56.996	C.3	14	VAL14	-0.319	
221	   H	75.653	19.749	-55.469	 H	14	VAL14	0.272	
222	  HA	77.698	19.852	-57.464	 H	14	VAL14	0.097	
223	  HB	74.795	18.784	-57.579	 H	14	VAL14	-0.030	
224	1HG1	77.026	18.093	-59.619	 H	14	VAL14	0.079	
225	2HG1	75.438	17.292	-59.502	 H	14	VAL14	0.079	
226	3HG1	75.524	18.982	-59.967	 H	14	VAL14	0.079	
227	1HG2	76.260	17.567	-55.905	 H	14	VAL14	0.079	
228	2HG2	75.746	16.515	-57.228	 H	14	VAL14	0.079	
229	3HG2	77.408	17.158	-57.202	 H	14	VAL14	0.079	
230	   N	75.071	21.657	-58.232	N.am	15	MET15	-0.416	
231	  CA	74.713	22.738	-59.145	C.3	15	MET15	-0.024	
232	   C	75.706	23.872	-59.057	C.2	15	MET15	0.597	
233	   O	76.190	24.400	-60.070	O.2	15	MET15	-0.568	
234	  CB	73.274	23.235	-58.835	C.3	15	MET15	0.034	
235	  CG	72.147	22.198	-59.026	C.3	15	MET15	0.002	
236	  SD	70.544	23.010	-58.911	S.3	15	MET15	-0.274	
237	  CE	69.513	21.544	-58.774	C.3	15	MET15	-0.054	
238	   H	74.417	21.341	-57.530	 H	15	MET15	0.272	
239	  HA	74.752	22.352	-60.181	 H	15	MET15	0.088	
240	 2HB	73.042	24.106	-59.477	 H	15	MET15	0.024	
241	 3HB	73.226	23.626	-57.799	 H	15	MET15	0.024	
242	 2HG	72.217	21.414	-58.249	 H	15	MET15	0.044	
243	 3HG	72.227	21.685	-60.003	 H	15	MET15	0.044	
244	 1HE	69.679	20.861	-59.627	 H	15	MET15	0.068	
245	 2HE	69.741	20.998	-57.842	 H	15	MET15	0.068	
246	 3HE	68.445	21.823	-58.757	 H	15	MET15	0.068	
247	   N	76.060	24.305	-57.895	N.am	16	ARG16	-0.348	
248	  CA	77.020	25.402	-57.812	C.3	16	ARG16	-0.264	
249	   C	78.303	25.053	-58.529	C.2	16	ARG16	0.734	
250	   O	78.453	23.981	-59.111	O.2	16	ARG16	-0.589	
251	  CB	77.279	25.729	-56.314	C.3	16	ARG16	-0.001	
252	  CG	78.060	27.045	-56.041	C.3	16	ARG16	0.039	
253	  CD	78.303	27.273	-54.540	C.3	16	ARG16	0.049	
254	  NE	79.036	28.557	-54.339	N.pl3	16	ARG16	-0.530	
255	  CZ	79.411	29.053	-53.163	C.cat	16	ARG16	0.808	
256	 NH1	79.184	28.460	-52.025	N.pl3	16	ARG16	-0.863	
257	 NH2	80.036	30.187	-53.145	N.pl3	16	ARG16	-0.863	
258	   H	75.680	23.892	-57.056	 H	16	ARG16	0.275	
259	  HA	76.581	26.281	-58.321	 H	16	ARG16	0.156	
260	 2HB	77.806	24.870	-55.848	 H	16	ARG16	0.033	
261	 3HB	76.308	25.777	-55.779	 H	16	ARG16	0.033	
262	 2HG	77.500	27.898	-56.478	 H	16	ARG16	0.029	
263	 3HG	79.034	27.026	-56.570	 H	16	ARG16	0.029	
264	 2HD	78.881	26.417	-54.127	 H	16	ARG16	0.069	
265	 3HD	77.329	27.282	-54.004	 H	16	ARG16	0.069	
266	  HE	79.294	29.148	-55.136	 H	16	ARG16	0.346	
267	1HH1	78.688	27.570	-52.109	 H	16	ARG16	0.448	
268	2HH1	79.504	28.906	-51.164	 H	16	ARG16	0.448	
269	1HH2	80.206	30.636	-54.047	 H	16	ARG16	0.448	
270	2HH2	80.315	30.552	-52.233	 H	16	ARG16	0.448	
@<TRIPOS>BOND
1 1 2 1
2 1 12 1
3 2 3 1
4 2 5 1
5 2 13 1
6 3 4 2
7 3 21 1
8 5 6 1
9 6 7 2
10 6 8 1
11 8 10 2
12 7 9 1
13 10 11 1
14 9 11 2
15 5 14 1
16 5 15 1
17 7 16 1
18 8 17 1
19 9 18 1
20 10 19 1
21 11 20 1
22 21 22 1
23 21 29 1
24 22 23 1
25 22 25 1
26 22 30 1
27 23 24 2
28 23 35 1
29 25 26 1
30 26 27 1
31 26 28 2
32 25 31 1
33 25 32 1
34 27 33 1
35 27 34 1
36 35 36 1
37 35 41 1
38 36 37 1
39 36 39 1
40 36 42 1
41 37 38 2
42 37 49 1
43 39 40 1
44 40 41 1
45 39 43 1
46 39 44 1
47 40 45 1
48 40 46 1
49 41 47 1
50 41 48 1
51 49 50 1
52 49 58 1
53 50 51 1
54 50 53 1
55 50 59 1
56 51 52 2
57 51 64 1
58 53 54 1
59 54 55 1
60 55 56 2
61 55 57 1
62 53 60 1
63 53 61 1
64 54 62 1
65 54 63 1
66 64 65 1
67 64 70 1
68 65 66 1
69 65 68 1
70 65 71 1
71 66 67 2
72 66 75 1
73 68 69 1
74 68 72 1
75 68 73 1
76 69 74 1
77 75 76 1
78 75 83 1
79 76 77 1
80 76 79 1
81 76 84 1
82 77 78 2
83 77 94 1
84 79 80 1
85 79 81 1
86 80 82 1
87 79 85 1
88 80 86 1
89 80 87 1
90 81 88 1
91 81 89 1
92 81 90 1
93 82 91 1
94 82 92 1
95 82 93 1
96 94 95 1
97 94 102 1
98 95 96 1
99 95 98 1
100 95 103 1
101 96 97 2
102 96 113 1
103 98 99 1
104 99 100 1
105 99 101 1
106 98 104 1
107 98 105 1
108 99 106 1
109 100 107 1
110 100 108 1
111 100 109 1
112 101 110 1
113 101 111 1
114 101 112 1
115 113 114 1
116 113 121 1
117 114 115 1
118 114 117 1
119 114 122 1
120 115 116 2
121 115 125 1
122 117 118 1
123 118 119 2
124 118 120 1
125 117 123 1
126 117 124 1
127 125 126 1
128 125 134 1
129 126 127 1
130 126 129 1
131 126 135 1
132 127 128 2
133 127 140 1
134 129 130 1
135 130 131 1
136 131 132 2
137 131 133 1
138 129 136 1
139 129 137 1
140 130 138 1
141 130 139 1
142 140 141 1
143 140 150 1
144 141 142 1
145 141 144 1
146 141 151 1
147 142 143 2
148 142 157 1
149 144 145 1
150 145 146 2
151 146 149 1
152 145 147 1
153 147 148 2
154 148 149 1
155 144 152 1
156 144 153 1
157 146 154 1
158 148 155 1
159 149 156 1
160 157 158 1
161 157 164 1
162 158 159 1
163 158 161 1
164 158 165 1
165 159 160 2
166 159 173 1
167 161 162 1
168 161 163 1
169 161 166 1
170 162 167 1
171 162 168 1
172 162 169 1
173 163 170 1
174 163 171 1
175 163 172 1
176 173 174 1
177 173 182 1
178 174 175 1
179 174 177 1
180 174 183 1
181 175 176 2
182 175 190 1
183 177 178 1
184 178 179 1
185 179 180 1
186 179 181 2
187 177 184 1
188 177 185 1
189 178 186 1
190 178 187 1
191 180 188 1
192 180 189 1
193 190 191 1
194 190 201 1
195 191 192 1
196 191 194 1
197 191 202 1
198 192 193 2
199 192 214 1
200 194 195 1
201 195 196 1
202 196 197 1
203 197 198 1
204 198 199 2
205 198 200 1
206 194 203 1
207 194 204 1
208 195 205 1
209 195 206 1
210 196 207 1
211 196 208 1
212 197 209 1
213 199 210 1
214 199 211 1
215 200 212 1
216 200 213 1
217 214 215 1
218 214 221 1
219 215 216 1
220 215 218 1
221 215 222 1
222 216 217 2
223 216 230 1
224 218 219 1
225 218 220 1
226 218 223 1
227 219 224 1
228 219 225 1
229 219 226 1
230 220 227 1
231 220 228 1
232 220 229 1
233 230 231 1
234 230 238 1
235 231 232 1
236 231 234 1
237 231 239 1
238 232 233 2
239 232 247 1
240 234 235 1
241 235 236 1
242 236 237 1
243 234 240 1
244 234 241 1
245 235 242 1
246 235 243 1
247 237 244 1
248 237 245 1
249 237 246 1
250 247 248 1
251 247 258 1
252 248 249 1
253 248 251 1
254 248 259 1
255 249 250 2
256 251 252 1
257 252 253 1
258 253 254 1
259 254 255 1
260 255 256 2
261 255 257 1
262 251 260 1
263 251 261 1
264 252 262 1
265 252 263 1
266 253 264 1
267 253 265 1
268 254 266 1
269 256 267 1
270 256 268 1
271 257 269 1
272 257 270 1
@<TRIPOS>SUBSTRUCTURE
1	PHE1	1	RESIDUE	1 ****	PHE
2	ASN2	21	RESIDUE	1 ****	ASN
3	PRO3	35	RESIDUE	1 ****	PRO
4	GLU4	49	RESIDUE	1 ****	GLU
5	SER5	64	RESIDUE	1 ****	SER
6	ILE6	75	RESIDUE	1 ****	ILE
7	LEU7	94	RESIDUE	1 ****	LEU
8	ASP8	113	RESIDUE	1 ****	ASP
9	GLU9	125	RESIDUE	1 ****	GLU
10	HIS10	140	RESIDUE	1 ****	HIS
11	VAL11	157	RESIDUE	1 ****	VAL
12	GLN12	173	RESIDUE	1 ****	GLN
13	ARG13	190	RESIDUE	1 ****	ARG
14	VAL14	214	RESIDUE	1 ****	VAL
15	MET15	230	RESIDUE	1 ****	MET
16	ARG16	247	RESIDUE	1 ****	ARG
