@<TRIPOS>MOLECULE
2-18
266 267 16              
SMALL
USER_CHARGES
@<TRIPOS>ATOM
1	   N	314.081	68.551	-293.370	N.3	1	GLU1	-0.516	
2	  CA	314.640	69.900	-293.370	C.3	1	GLU1	0.040	
3	   C	316.149	69.860	-293.370	C.2	1	GLU1	0.537	
4	   O	316.825	70.559	-294.138	O.2	1	GLU1	-0.582	
5	  CB	314.117	70.685	-292.133	C.3	1	GLU1	0.056	
6	  CG	314.592	72.170	-292.022	C.3	1	GLU1	0.014	
7	  CD	314.168	72.974	-290.807	C.2	1	GLU1	0.805	
8	 OE1	313.440	72.472	-289.929	O.co2	1	GLU1	-0.819	
9	 OE2	314.598	74.144	-290.735	O.co2	1	GLU1	-0.819	
10	   H	314.708	67.672	-293.370	 H	1	GLU1	0.294	
11	  HA	314.314	70.418	-294.290	 H	1	GLU1	0.111	
12	 2HB	314.406	70.154	-291.203	 H	1	GLU1	-0.017	
13	 3HB	313.010	70.675	-292.120	 H	1	GLU1	-0.017	
14	 2HG	314.282	72.755	-292.903	 H	1	GLU1	-0.043	
15	 3HG	315.692	72.237	-291.993	 H	1	GLU1	-0.043	
16	   N	316.754	69.074	-292.545	N.am	2	GLU2	-0.516	
17	  CA	318.214	69.035	-292.544	C.3	2	GLU2	0.040	
18	   C	318.745	68.680	-293.912	C.2	2	GLU2	0.537	
19	   O	319.667	69.315	-294.444	O.2	2	GLU2	-0.582	
20	  CB	318.711	68.011	-291.485	C.3	2	GLU2	0.056	
21	  CG	320.263	67.893	-291.332	C.3	2	GLU2	0.014	
22	  CD	320.816	66.868	-290.359	C.2	2	GLU2	0.805	
23	 OE1	320.054	66.153	-289.681	O.co2	2	GLU2	-0.819	
24	 OE2	322.059	66.777	-290.292	O.co2	2	GLU2	-0.819	
25	   H	316.226	68.494	-291.908	 H	2	GLU2	0.294	
26	  HA	318.594	70.039	-292.282	 H	2	GLU2	0.111	
27	 2HB	318.305	67.005	-291.716	 H	2	GLU2	-0.017	
28	 3HB	318.285	68.256	-290.493	 H	2	GLU2	-0.017	
29	 2HG	320.710	68.860	-291.050	 H	2	GLU2	-0.043	
30	 3HG	320.738	67.612	-292.286	 H	2	GLU2	-0.043	
31	   N	318.224	67.685	-294.546	N.am	3	PRO3	-0.255	
32	  CA	318.677	67.275	-295.867	C.3	3	PRO3	-0.027	
33	   C	318.279	68.299	-296.945	C.2	3	PRO3	0.590	
34	   O	319.103	68.682	-297.775	O.2	3	PRO3	-0.575	
35	  CB	317.973	65.921	-296.037	C.3	3	PRO3	-0.007	
36	  CG	316.689	66.073	-295.208	C.3	3	PRO3	0.019	
37	  CD	317.146	66.891	-293.998	C.3	3	PRO3	0.019	
38	  HA	319.763	67.156	-295.880	 H	3	PRO3	0.064	
39	 2HB	318.596	65.139	-295.596	 H	3	PRO3	0.025	
40	 3HB	317.776	65.672	-297.083	 H	3	PRO3	0.025	
41	 2HG	316.261	65.110	-294.917	 H	3	PRO3	0.021	
42	 3HG	315.952	66.644	-295.776	 H	3	PRO3	0.021	
43	 2HD	317.535	66.242	-293.210	 H	3	PRO3	0.039	
44	 3HD	316.349	67.527	-293.605	 H	3	PRO3	0.039	
45	   N	317.075	68.759	-296.978	N.am	4	GLU4	-0.516	
46	  CA	316.715	69.730	-298.007	C.3	4	GLU4	0.040	
47	   C	317.614	70.941	-297.946	C.2	4	GLU4	0.537	
48	   O	318.141	71.421	-298.960	O.2	4	GLU4	-0.582	
49	  CB	315.227	70.148	-297.838	C.3	4	GLU4	0.056	
50	  CG	314.679	71.152	-298.904	C.3	4	GLU4	0.014	
51	  CD	313.253	71.648	-298.761	C.2	4	GLU4	0.805	
52	 OE1	312.526	71.250	-297.831	O.co2	4	GLU4	-0.819	
53	 OE2	312.863	72.478	-299.610	O.co2	4	GLU4	-0.819	
54	   H	316.390	68.452	-296.301	 H	4	GLU4	0.294	
55	  HA	316.847	69.259	-298.998	 H	4	GLU4	0.111	
56	 2HB	315.074	70.588	-296.831	 H	4	GLU4	-0.017	
57	 3HB	314.579	69.250	-297.845	 H	4	GLU4	-0.017	
58	 2HG	314.761	70.737	-299.922	 H	4	GLU4	-0.043	
59	 3HG	315.267	72.084	-298.915	 H	4	GLU4	-0.043	
60	   N	317.841	71.494	-296.802	N.am	5	SER5	-0.416	
61	  CA	318.710	72.665	-296.743	C.3	5	SER5	-0.025	
62	   C	320.069	72.360	-297.328	C.2	5	SER5	0.597	
63	   O	320.617	73.113	-298.133	O.2	5	SER5	-0.568	
64	  CB	318.821	73.197	-295.293	C.3	5	SER5	0.212	
65	  OG	319.552	72.318	-294.431	O.3	5	SER5	-0.655	
66	   H	317.423	71.122	-295.961	 H	5	SER5	0.272	
67	  HA	318.261	73.455	-297.373	 H	5	SER5	0.084	
68	 2HB	317.821	73.391	-294.860	 H	5	SER5	0.035	
69	 3HB	319.326	74.183	-295.295	 H	5	SER5	0.035	
70	  HG	319.064	71.493	-294.381	 H	5	SER5	0.428	
71	   N	320.674	71.277	-296.974	N.am	6	ILE6	-0.416	
72	  CA	321.988	70.982	-297.539	C.3	6	ILE6	-0.060	
73	   C	321.931	70.945	-299.047	C.2	6	ILE6	0.597	
74	   O	322.766	71.532	-299.750	O.2	6	ILE6	-0.568	
75	  CB	322.587	69.646	-296.939	C.3	6	ILE6	0.130	
76	 CG1	322.606	69.584	-295.378	C.3	6	ILE6	-0.043	
77	 CG2	324.029	69.344	-297.453	C.3	6	ILE6	-0.320	
78	 CD1	322.876	68.195	-294.763	C.3	6	ILE6	-0.066	
79	   H	320.246	70.642	-296.315	 H	6	ILE6	0.272	
80	  HA	322.662	71.816	-297.271	 H	6	ILE6	0.087	
81	  HB	321.930	68.820	-297.283	 H	6	ILE6	0.019	
82	2HG1	321.623	69.903	-294.983	 H	6	ILE6	0.024	
83	3HG1	323.321	70.326	-294.973	 H	6	ILE6	0.024	
84	1HG2	324.088	69.251	-298.552	 H	6	ILE6	0.088	
85	2HG2	324.751	70.127	-297.151	 H	6	ILE6	0.088	
86	3HG2	324.419	68.382	-297.074	 H	6	ILE6	0.088	
87	1HD1	322.148	67.440	-295.118	 H	6	ILE6	0.019	
88	2HD1	323.887	67.816	-294.998	 H	6	ILE6	0.019	
89	3HD1	322.799	68.224	-293.660	 H	6	ILE6	0.019	
90	   N	320.986	70.281	-299.621	N.am	7	LEU7	-0.416	
91	  CA	320.932	70.245	-301.080	C.3	7	LEU7	-0.052	
92	   C	320.860	71.640	-301.652	C.2	7	LEU7	0.597	
93	   O	321.581	72.003	-302.594	O.2	7	LEU7	-0.568	
94	  CB	319.729	69.384	-301.561	C.3	7	LEU7	-0.110	
95	  CG	319.656	67.905	-301.095	C.3	7	LEU7	0.353	
96	 CD1	318.467	67.199	-301.761	C.3	7	LEU7	-0.412	
97	 CD2	320.950	67.126	-301.386	C.3	7	LEU7	-0.412	
98	   H	320.294	69.794	-299.070	 H	7	LEU7	0.272	
99	  HA	321.874	69.805	-301.454	 H	7	LEU7	0.092	
100	 2HB	319.707	69.401	-302.668	 H	7	LEU7	0.046	
101	 3HB	318.789	69.887	-301.257	 H	7	LEU7	0.046	
102	  HG	319.486	67.897	-299.998	 H	7	LEU7	-0.036	
103	1HD1	317.510	67.708	-301.539	 H	7	LEU7	0.100	
104	2HD1	318.567	67.159	-302.862	 H	7	LEU7	0.100	
105	3HD1	318.360	66.158	-301.405	 H	7	LEU7	0.100	
106	1HD2	321.226	67.157	-302.455	 H	7	LEU7	0.100	
107	2HD2	321.803	67.538	-300.814	 H	7	LEU7	0.100	
108	3HD2	320.869	66.064	-301.090	 H	7	LEU7	0.100	
109	   N	320.022	72.481	-301.146	N.am	8	ASP8	-0.516	
110	  CA	319.952	73.830	-301.699	C.3	8	ASP8	0.038	
111	   C	321.298	74.510	-301.641	C.2	8	ASP8	0.537	
112	   O	321.771	75.116	-302.615	O.2	8	ASP8	-0.582	
113	  CB	318.873	74.669	-300.958	C.3	8	ASP8	-0.030	
114	  CG	318.654	76.090	-301.498	C.2	8	ASP8	0.799	
115	 OD1	318.719	76.289	-302.729	O.co2	8	ASP8	-0.801	
116	 OD2	318.461	77.015	-300.683	O.co2	8	ASP8	-0.801	
117	   H	319.424	72.209	-300.379	 H	8	ASP8	0.294	
118	  HA	319.669	73.752	-302.766	 H	8	ASP8	0.088	
119	 2HB	319.129	74.752	-299.886	 H	8	ASP8	-0.012	
120	 3HB	317.894	74.164	-300.992	 H	8	ASP8	-0.012	
121	   N	321.977	74.460	-300.546	N.am	9	GLU9	-0.516	
122	  CA	323.280	75.118	-300.489	C.3	9	GLU9	0.040	
123	   C	324.198	74.591	-301.565	C.2	9	GLU9	0.537	
124	   O	324.863	75.346	-302.290	O.2	9	GLU9	-0.582	
125	  CB	323.912	74.911	-299.084	C.3	9	GLU9	0.056	
126	  CG	325.295	75.603	-298.853	C.3	9	GLU9	0.014	
127	  CD	325.996	75.390	-297.525	C.2	9	GLU9	0.805	
128	 OE1	325.474	74.699	-296.629	O.co2	9	GLU9	-0.819	
129	 OE2	327.115	75.928	-297.392	O.co2	9	GLU9	-0.819	
130	   H	321.613	73.974	-299.739	 H	9	GLU9	0.294	
131	  HA	323.137	76.200	-300.665	 H	9	GLU9	0.111	
132	 2HB	324.026	73.826	-298.881	 H	9	GLU9	-0.017	
133	 3HB	323.215	75.264	-298.300	 H	9	GLU9	-0.017	
134	 2HG	325.223	76.694	-298.993	 H	9	GLU9	-0.043	
135	 3HG	326.042	75.259	-299.587	 H	9	GLU9	-0.043	
136	   N	324.295	73.316	-301.734	N.am	10	HIS10	-0.416	
137	  CA	325.184	72.805	-302.774	C.3	10	HIS10	-0.058	
138	   C	324.818	73.370	-304.126	C.2	10	HIS10	0.597	
139	   O	325.671	73.835	-304.897	O.2	10	HIS10	-0.568	
140	  CB	325.021	71.276	-302.770	C.3	10	HIS10	-0.007	
141	  CG	326.306	70.566	-302.461	C.2	10	HIS10	0.187	
142	 CD2	326.687	70.231	-301.168	C.2	10	HIS10	-0.221	
143	 ND1	327.259	70.161	-303.393	N.2	10	HIS10	-0.543	
144	 CE1	328.165	69.603	-302.569	C.2	10	HIS10	0.163	
145	 NE2	327.902	69.600	-301.234	N.pl3	10	HIS10	-0.280	
146	   H	323.764	72.680	-301.156	 H	10	HIS10	0.272	
147	  HA	326.203	73.163	-302.549	 H	10	HIS10	0.136	
148	 2HB	324.656	70.909	-303.750	 H	10	HIS10	0.037	
149	 3HB	324.265	70.939	-302.030	 H	10	HIS10	0.037	
150	 2HD	326.100	70.446	-300.280	 H	10	HIS10	0.186	
151	 1HE	329.057	69.182	-303.016	 H	10	HIS10	0.144	
152	 2HE	328.468	69.223	-300.461	 H	10	HIS10	0.334	
153	   N	323.580	73.368	-304.489	N.am	11	VAL11	-0.416	
154	  CA	323.226	73.915	-305.796	C.3	11	VAL11	-0.087	
155	   C	323.690	75.345	-305.928	C.2	11	VAL11	0.597	
156	   O	324.291	75.751	-306.931	O.2	11	VAL11	-0.568	
157	  CB	321.665	73.807	-306.017	C.3	11	VAL11	0.299	
158	 CG1	321.097	74.511	-307.279	C.3	11	VAL11	-0.319	
159	 CG2	321.141	72.353	-306.090	C.3	11	VAL11	-0.319	
160	   H	322.867	72.995	-303.879	 H	11	VAL11	0.272	
161	  HA	323.746	73.333	-306.578	 H	11	VAL11	0.097	
162	  HB	321.176	74.287	-305.141	 H	11	VAL11	-0.030	
163	1HG1	321.536	74.120	-308.216	 H	11	VAL11	0.079	
164	2HG1	319.998	74.404	-307.362	 H	11	VAL11	0.079	
165	3HG1	321.274	75.604	-307.270	 H	11	VAL11	0.079	
166	1HG2	321.430	71.766	-305.200	 H	11	VAL11	0.079	
167	2HG2	320.035	72.316	-306.134	 H	11	VAL11	0.079	
168	3HG2	321.523	71.813	-306.977	 H	11	VAL11	0.079	
169	   N	323.452	76.171	-304.966	N.am	12	GLN12	-0.416	
170	  CA	323.900	77.554	-305.092	C.3	12	GLN12	-0.003	
171	   C	325.390	77.622	-305.329	C.2	12	GLN12	0.597	
172	   O	325.877	78.331	-306.207	O.2	12	GLN12	-0.568	
173	  CB	323.508	78.321	-303.810	C.3	12	GLN12	-0.004	
174	  CG	323.867	79.843	-303.778	C.3	12	GLN12	-0.064	
175	  CD	323.564	80.656	-302.513	C.2	12	GLN12	0.695	
176	 NE2	322.996	80.079	-301.485	N.pl3	12	GLN12	-0.941	
177	 OE1	323.865	81.837	-302.435	O.2	12	GLN12	-0.609	
178	   H	322.962	75.864	-304.137	 H	12	GLN12	0.272	
179	  HA	323.401	78.010	-305.967	 H	12	GLN12	0.085	
180	 2HB	323.983	77.821	-302.940	 H	12	GLN12	0.017	
181	 3HB	322.417	78.213	-303.647	 H	12	GLN12	0.017	
182	 2HG	323.390	80.364	-304.629	 H	12	GLN12	0.035	
183	 3HG	324.951	79.985	-303.943	 H	12	GLN12	0.035	
184	1HE2	322.889	80.673	-300.661	 H	12	GLN12	0.425	
185	2HE2	322.833	79.076	-301.589	 H	12	GLN12	0.425	
186	   N	326.174	76.915	-304.588	N.am	13	ARG13	-0.348	
187	  CA	327.615	76.982	-304.818	C.3	13	ARG13	-0.264	
188	   C	327.952	76.611	-306.243	C.2	13	ARG13	0.734	
189	   O	328.720	77.283	-306.926	O.2	13	ARG13	-0.589	
190	  CB	328.328	76.043	-303.804	C.3	13	ARG13	-0.001	
191	  CG	329.872	76.196	-303.722	C.3	13	ARG13	0.039	
192	  CD	330.499	75.209	-302.724	C.3	13	ARG13	0.049	
193	  NE	331.976	75.417	-302.672	N.pl3	13	ARG13	-0.530	
194	  CZ	332.824	74.725	-301.917	C.cat	13	ARG13	0.808	
195	 NH1	332.459	73.760	-301.120	N.pl3	13	ARG13	-0.863	
196	 NH2	334.084	75.025	-301.973	N.pl3	13	ARG13	-0.863	
197	   H	325.798	76.325	-303.860	 H	13	ARG13	0.275	
198	  HA	327.938	78.028	-304.659	 H	13	ARG13	0.156	
199	 2HB	328.062	74.992	-304.043	 H	13	ARG13	0.033	
200	 3HB	327.902	76.209	-302.793	 H	13	ARG13	0.033	
201	 2HG	330.120	77.241	-303.442	 H	13	ARG13	0.029	
202	 3HG	330.324	76.041	-304.723	 H	13	ARG13	0.029	
203	 2HD	330.255	74.169	-303.033	 H	13	ARG13	0.069	
204	 3HD	330.042	75.354	-301.722	 H	13	ARG13	0.069	
205	  HE	332.428	76.139	-303.243	 H	13	ARG13	0.346	
206	1HH1	331.453	73.574	-301.124	 H	13	ARG13	0.448	
207	2HH1	333.172	73.277	-300.571	 H	13	ARG13	0.448	
208	1HH2	334.351	75.783	-302.604	 H	13	ARG13	0.448	
209	2HH2	334.719	74.483	-301.384	 H	13	ARG13	0.448	
210	   N	327.416	75.556	-306.758	N.am	14	VAL14	-0.416	
211	  CA	327.742	75.197	-308.135	C.3	14	VAL14	-0.087	
212	   C	327.412	76.327	-309.081	C.2	14	VAL14	0.597	
213	   O	328.206	76.709	-309.950	O.2	14	VAL14	-0.568	
214	  CB	326.971	73.880	-308.543	C.3	14	VAL14	0.299	
215	 CG1	327.061	73.462	-310.036	C.3	14	VAL14	-0.319	
216	 CG2	327.402	72.628	-307.743	C.3	14	VAL14	-0.319	
217	   H	326.781	74.987	-306.216	 H	14	VAL14	0.272	
218	  HA	328.831	75.021	-308.209	 H	14	VAL14	0.097	
219	  HB	325.894	74.051	-308.328	 H	14	VAL14	-0.030	
220	1HG1	328.102	73.286	-310.365	 H	14	VAL14	0.079	
221	2HG1	326.488	72.539	-310.250	 H	14	VAL14	0.079	
222	3HG1	326.632	74.224	-310.715	 H	14	VAL14	0.079	
223	1HG2	327.315	72.786	-306.652	 H	14	VAL14	0.079	
224	2HG2	326.767	71.751	-307.975	 H	14	VAL14	0.079	
225	3HG2	328.450	72.338	-307.948	 H	14	VAL14	0.079	
226	   N	326.267	76.913	-308.979	N.am	15	MET15	-0.416	
227	  CA	325.947	78.006	-309.893	C.3	15	MET15	-0.024	
228	   C	326.977	79.106	-309.804	C.2	15	MET15	0.597	
229	   O	327.480	79.617	-310.817	O.2	15	MET15	-0.568	
230	  CB	324.525	78.551	-309.585	C.3	15	MET15	0.034	
231	  CG	323.364	77.552	-309.777	C.3	15	MET15	0.002	
232	  SD	321.789	78.418	-309.664	S.3	15	MET15	-0.274	
233	  CE	320.708	76.988	-309.528	C.3	15	MET15	-0.054	
234	   H	325.602	76.620	-308.278	 H	15	MET15	0.272	
235	  HA	325.973	77.619	-310.929	 H	15	MET15	0.088	
236	 2HB	324.323	79.430	-310.227	 H	15	MET15	0.024	
237	 3HB	324.489	78.943	-308.548	 H	15	MET15	0.024	
238	 2HG	323.406	76.766	-309.000	 H	15	MET15	0.044	
239	 3HG	323.427	77.037	-310.754	 H	15	MET15	0.044	
240	 1HE	320.853	76.300	-310.381	 H	15	MET15	0.068	
241	 2HE	320.917	76.435	-308.595	 H	15	MET15	0.068	
242	 3HE	319.651	77.302	-309.512	 H	15	MET15	0.068	
243	   N	327.344	79.527	-308.642	N.am	16	ARG16	-0.348	
244	  CA	328.341	80.591	-308.557	C.3	16	ARG16	-0.264	
245	   C	329.612	80.199	-309.273	C.2	16	ARG16	0.734	
246	   O	329.726	79.123	-309.855	O.2	16	ARG16	-0.589	
247	  CB	328.609	80.909	-307.059	C.3	16	ARG16	-0.001	
248	  CG	329.433	82.198	-306.785	C.3	16	ARG16	0.039	
249	  CD	329.682	82.417	-305.284	C.3	16	ARG16	0.049	
250	  NE	330.458	83.676	-305.082	N.pl3	16	ARG16	-0.530	
251	  CZ	330.848	84.158	-303.906	C.cat	16	ARG16	0.808	
252	 NH1	330.600	83.574	-302.768	N.pl3	16	ARG16	-0.863	
253	 NH2	331.512	85.271	-303.887	N.pl3	16	ARG16	-0.863	
254	   H	326.950	79.126	-307.803	 H	16	ARG16	0.275	
255	  HA	327.931	81.484	-309.067	 H	16	ARG16	0.156	
256	 2HB	329.106	80.033	-306.592	 H	16	ARG16	0.033	
257	 3HB	327.640	80.989	-306.526	 H	16	ARG16	0.033	
258	 2HG	328.903	83.069	-307.223	 H	16	ARG16	0.029	
259	 3HG	330.407	82.146	-307.314	 H	16	ARG16	0.029	
260	 2HD	330.231	81.542	-304.870	 H	16	ARG16	0.069	
261	 3HD	328.709	82.459	-304.749	 H	16	ARG16	0.069	
262	  HE	330.736	84.257	-305.879	 H	16	ARG16	0.346	
263	1HH1	330.075	82.701	-302.853	 H	16	ARG16	0.448	
264	2HH1	330.934	84.009	-301.907	 H	16	ARG16	0.448	
265	1HH2	331.697	85.715	-304.789	 H	16	ARG16	0.448	
266	2HH2	331.801	85.626	-302.974	 H	16	ARG16	0.448	
@<TRIPOS>BOND
1 1 2 1
2 1 10 1
3 2 3 1
4 2 5 1
5 2 11 1
6 3 4 2
7 3 16 1
8 5 6 1
9 6 7 1
10 7 8 2
11 7 9 1
12 5 12 1
13 5 13 1
14 6 14 1
15 6 15 1
16 16 17 1
17 16 25 1
18 17 18 1
19 17 20 1
20 17 26 1
21 18 19 2
22 18 31 1
23 20 21 1
24 21 22 1
25 22 23 2
26 22 24 1
27 20 27 1
28 20 28 1
29 21 29 1
30 21 30 1
31 31 32 1
32 31 37 1
33 32 33 1
34 32 35 1
35 32 38 1
36 33 34 2
37 33 45 1
38 35 36 1
39 36 37 1
40 35 39 1
41 35 40 1
42 36 41 1
43 36 42 1
44 37 43 1
45 37 44 1
46 45 46 1
47 45 54 1
48 46 47 1
49 46 49 1
50 46 55 1
51 47 48 2
52 47 60 1
53 49 50 1
54 50 51 1
55 51 52 2
56 51 53 1
57 49 56 1
58 49 57 1
59 50 58 1
60 50 59 1
61 60 61 1
62 60 66 1
63 61 62 1
64 61 64 1
65 61 67 1
66 62 63 2
67 62 71 1
68 64 65 1
69 64 68 1
70 64 69 1
71 65 70 1
72 71 72 1
73 71 79 1
74 72 73 1
75 72 75 1
76 72 80 1
77 73 74 2
78 73 90 1
79 75 76 1
80 75 77 1
81 76 78 1
82 75 81 1
83 76 82 1
84 76 83 1
85 77 84 1
86 77 85 1
87 77 86 1
88 78 87 1
89 78 88 1
90 78 89 1
91 90 91 1
92 90 98 1
93 91 92 1
94 91 94 1
95 91 99 1
96 92 93 2
97 92 109 1
98 94 95 1
99 95 96 1
100 95 97 1
101 94 100 1
102 94 101 1
103 95 102 1
104 96 103 1
105 96 104 1
106 96 105 1
107 97 106 1
108 97 107 1
109 97 108 1
110 109 110 1
111 109 117 1
112 110 111 1
113 110 113 1
114 110 118 1
115 111 112 2
116 111 121 1
117 113 114 1
118 114 115 2
119 114 116 1
120 113 119 1
121 113 120 1
122 121 122 1
123 121 130 1
124 122 123 1
125 122 125 1
126 122 131 1
127 123 124 2
128 123 136 1
129 125 126 1
130 126 127 1
131 127 128 2
132 127 129 1
133 125 132 1
134 125 133 1
135 126 134 1
136 126 135 1
137 136 137 1
138 136 146 1
139 137 138 1
140 137 140 1
141 137 147 1
142 138 139 2
143 138 153 1
144 140 141 1
145 141 142 2
146 142 145 1
147 141 143 1
148 143 144 2
149 144 145 1
150 140 148 1
151 140 149 1
152 142 150 1
153 144 151 1
154 145 152 1
155 153 154 1
156 153 160 1
157 154 155 1
158 154 157 1
159 154 161 1
160 155 156 2
161 155 169 1
162 157 158 1
163 157 159 1
164 157 162 1
165 158 163 1
166 158 164 1
167 158 165 1
168 159 166 1
169 159 167 1
170 159 168 1
171 169 170 1
172 169 178 1
173 170 171 1
174 170 173 1
175 170 179 1
176 171 172 2
177 171 186 1
178 173 174 1
179 174 175 1
180 175 176 1
181 175 177 2
182 173 180 1
183 173 181 1
184 174 182 1
185 174 183 1
186 176 184 1
187 176 185 1
188 186 187 1
189 186 197 1
190 187 188 1
191 187 190 1
192 187 198 1
193 188 189 2
194 188 210 1
195 190 191 1
196 191 192 1
197 192 193 1
198 193 194 1
199 194 195 2
200 194 196 1
201 190 199 1
202 190 200 1
203 191 201 1
204 191 202 1
205 192 203 1
206 192 204 1
207 193 205 1
208 195 206 1
209 195 207 1
210 196 208 1
211 196 209 1
212 210 211 1
213 210 217 1
214 211 212 1
215 211 214 1
216 211 218 1
217 212 213 2
218 212 226 1
219 214 215 1
220 214 216 1
221 214 219 1
222 215 220 1
223 215 221 1
224 215 222 1
225 216 223 1
226 216 224 1
227 216 225 1
228 226 227 1
229 226 234 1
230 227 228 1
231 227 230 1
232 227 235 1
233 228 229 2
234 228 243 1
235 230 231 1
236 231 232 1
237 232 233 1
238 230 236 1
239 230 237 1
240 231 238 1
241 231 239 1
242 233 240 1
243 233 241 1
244 233 242 1
245 243 244 1
246 243 254 1
247 244 245 1
248 244 247 1
249 244 255 1
250 245 246 2
251 247 248 1
252 248 249 1
253 249 250 1
254 250 251 1
255 251 252 2
256 251 253 1
257 247 256 1
258 247 257 1
259 248 258 1
260 248 259 1
261 249 260 1
262 249 261 1
263 250 262 1
264 252 263 1
265 252 264 1
266 253 265 1
267 253 266 1
@<TRIPOS>SUBSTRUCTURE
1	GLU1	1	RESIDUE	1 ****	GLU
2	GLU2	16	RESIDUE	1 ****	GLU
3	PRO3	31	RESIDUE	1 ****	PRO
4	GLU4	45	RESIDUE	1 ****	GLU
5	SER5	60	RESIDUE	1 ****	SER
6	ILE6	71	RESIDUE	1 ****	ILE
7	LEU7	90	RESIDUE	1 ****	LEU
8	ASP8	109	RESIDUE	1 ****	ASP
9	GLU9	121	RESIDUE	1 ****	GLU
10	HIS10	136	RESIDUE	1 ****	HIS
11	VAL11	153	RESIDUE	1 ****	VAL
12	GLN12	169	RESIDUE	1 ****	GLN
13	ARG13	186	RESIDUE	1 ****	ARG
14	VAL14	210	RESIDUE	1 ****	VAL
15	MET15	226	RESIDUE	1 ****	MET
16	ARG16	243	RESIDUE	1 ****	ARG
