@<TRIPOS>MOLECULE
7-9
267 269 16              
SMALL
USER_CHARGES
@<TRIPOS>ATOM
1	   N	1090.840	307.538	-1075.915	N.3	1	GLU1	-0.516	
2	  CA	1091.399	308.887	-1075.915	C.3	1	GLU1	0.040	
3	   C	1092.908	308.847	-1075.915	C.2	1	GLU1	0.537	
4	   O	1093.584	309.546	-1076.684	O.2	1	GLU1	-0.582	
5	  CB	1090.876	309.672	-1074.678	C.3	1	GLU1	0.056	
6	  CG	1091.351	311.157	-1074.567	C.3	1	GLU1	0.014	
7	  CD	1090.927	311.961	-1073.352	C.2	1	GLU1	0.805	
8	 OE1	1090.199	311.459	-1072.474	O.co2	1	GLU1	-0.819	
9	 OE2	1091.357	313.131	-1073.280	O.co2	1	GLU1	-0.819	
10	   H	1091.467	306.659	-1075.915	 H	1	GLU1	0.294	
11	  HA	1091.073	309.405	-1076.835	 H	1	GLU1	0.111	
12	 2HB	1091.165	309.141	-1073.748	 H	1	GLU1	-0.017	
13	 3HB	1089.769	309.662	-1074.665	 H	1	GLU1	-0.017	
14	 2HG	1091.041	311.742	-1075.448	 H	1	GLU1	-0.043	
15	 3HG	1092.451	311.224	-1074.538	 H	1	GLU1	-0.043	
16	   N	1093.513	308.061	-1075.090	N.am	2	ASN2	-0.416	
17	  CA	1094.972	308.023	-1075.090	C.3	2	ASN2	0.014	
18	   C	1095.503	307.667	-1076.459	C.2	2	ASN2	0.597	
19	   O	1096.418	308.298	-1076.988	O.2	2	ASN2	-0.568	
20	  CB	1095.464	307.000	-1074.026	C.3	2	ASN2	-0.204	
21	  CG	1095.001	307.224	-1072.583	C.2	2	ASN2	0.713	
22	 ND2	1095.595	308.139	-1071.864	N.pl3	2	ASN2	-0.919	
23	 OD1	1094.080	306.590	-1072.088	O.2	2	ASN2	-0.593	
24	   H	1092.985	307.482	-1074.454	 H	2	ASN2	0.272	
25	  HA	1095.349	309.033	-1074.845	 H	2	ASN2	0.105	
26	 2HB	1096.569	306.941	-1074.030	 H	2	ASN2	0.080	
27	 3HB	1095.135	305.982	-1074.312	 H	2	ASN2	0.080	
28	1HD2	1095.115	308.312	-1070.978	 H	2	ASN2	0.420	
29	2HD2	1096.297	308.710	-1072.334	 H	2	ASN2	0.420	
30	   N	1094.982	306.672	-1077.093	N.am	3	PRO3	-0.255	
31	  CA	1095.433	306.263	-1078.415	C.3	3	PRO3	-0.027	
32	   C	1095.035	307.286	-1079.491	C.2	3	PRO3	0.590	
33	   O	1095.859	307.669	-1080.323	O.2	3	PRO3	-0.575	
34	  CB	1094.729	304.908	-1078.584	C.3	3	PRO3	-0.007	
35	  CG	1093.446	305.060	-1077.754	C.3	3	PRO3	0.019	
36	  CD	1093.904	305.879	-1076.544	C.3	3	PRO3	0.019	
37	  HA	1096.519	306.143	-1078.428	 H	3	PRO3	0.064	
38	 2HB	1095.352	304.127	-1078.143	 H	3	PRO3	0.025	
39	 3HB	1094.531	304.660	-1079.629	 H	3	PRO3	0.025	
40	 2HG	1093.019	304.098	-1077.463	 H	3	PRO3	0.021	
41	 3HG	1092.708	305.631	-1078.321	 H	3	PRO3	0.021	
42	 2HD	1094.293	305.230	-1075.756	 H	3	PRO3	0.039	
43	 3HD	1093.107	306.515	-1076.151	 H	3	PRO3	0.039	
44	   N	1093.831	307.746	-1079.524	N.am	4	GLU4	-0.516	
45	  CA	1093.471	308.717	-1080.553	C.3	4	GLU4	0.040	
46	   C	1094.370	309.929	-1080.492	C.2	4	GLU4	0.537	
47	   O	1094.896	310.408	-1081.507	O.2	4	GLU4	-0.582	
48	  CB	1091.982	309.136	-1080.383	C.3	4	GLU4	0.056	
49	  CG	1091.434	310.140	-1081.448	C.3	4	GLU4	0.014	
50	  CD	1090.007	310.636	-1081.304	C.2	4	GLU4	0.805	
51	 OE1	1089.281	310.238	-1080.373	O.co2	4	GLU4	-0.819	
52	 OE2	1089.618	311.465	-1082.153	O.co2	4	GLU4	-0.819	
53	   H	1093.146	307.440	-1078.847	 H	4	GLU4	0.294	
54	  HA	1093.602	308.247	-1081.544	 H	4	GLU4	0.111	
55	 2HB	1091.830	309.576	-1079.376	 H	4	GLU4	-0.017	
56	 3HB	1091.334	308.238	-1080.389	 H	4	GLU4	-0.017	
57	 2HG	1091.515	309.725	-1082.466	 H	4	GLU4	-0.043	
58	 3HG	1092.022	311.072	-1081.459	 H	4	GLU4	-0.043	
59	   N	1094.597	310.481	-1079.349	N.am	5	SER5	-0.416	
60	  CA	1095.467	311.653	-1079.291	C.3	5	SER5	-0.025	
61	   C	1096.825	311.347	-1079.876	C.2	5	SER5	0.597	
62	   O	1097.372	312.101	-1080.681	O.2	5	SER5	-0.568	
63	  CB	1095.578	312.185	-1077.840	C.3	5	SER5	0.212	
64	  OG	1096.310	311.305	-1076.979	O.3	5	SER5	-0.655	
65	   H	1094.180	310.110	-1078.507	 H	5	SER5	0.272	
66	  HA	1095.017	312.443	-1079.920	 H	5	SER5	0.084	
67	 2HB	1094.578	312.378	-1077.406	 H	5	SER5	0.035	
68	 3HB	1096.083	313.170	-1077.842	 H	5	SER5	0.035	
69	  HG	1095.821	310.480	-1076.928	 H	5	SER5	0.428	
70	   N	1097.430	310.264	-1079.522	N.am	6	ILE6	-0.416	
71	  CA	1098.743	309.970	-1080.089	C.3	6	ILE6	-0.060	
72	   C	1098.686	309.932	-1081.597	C.2	6	ILE6	0.597	
73	   O	1099.521	310.520	-1082.301	O.2	6	ILE6	-0.568	
74	  CB	1099.343	308.633	-1079.489	C.3	6	ILE6	0.130	
75	 CG1	1099.363	308.571	-1077.928	C.3	6	ILE6	-0.043	
76	 CG2	1100.784	308.332	-1080.004	C.3	6	ILE6	-0.320	
77	 CD1	1099.633	307.182	-1077.313	C.3	6	ILE6	-0.066	
78	   H	1097.002	309.630	-1078.863	 H	6	ILE6	0.272	
79	  HA	1099.417	310.804	-1079.821	 H	6	ILE6	0.087	
80	  HB	1098.685	307.807	-1079.833	 H	6	ILE6	0.019	
81	2HG1	1098.380	308.891	-1077.532	 H	6	ILE6	0.024	
82	3HG1	1100.078	309.313	-1077.523	 H	6	ILE6	0.024	
83	1HG2	1100.843	308.238	-1081.103	 H	6	ILE6	0.088	
84	2HG2	1101.506	309.114	-1079.702	 H	6	ILE6	0.088	
85	3HG2	1101.175	307.370	-1079.626	 H	6	ILE6	0.088	
86	1HD1	1098.905	306.428	-1077.668	 H	6	ILE6	0.019	
87	2HD1	1100.643	306.803	-1077.549	 H	6	ILE6	0.019	
88	3HD1	1099.557	307.212	-1076.211	 H	6	ILE6	0.019	
89	   N	1097.740	309.269	-1082.170	N.am	7	TYR7	-0.416	
90	  CA	1097.685	309.233	-1083.629	C.3	7	TYR7	-0.001	
91	   C	1097.612	310.628	-1084.202	C.2	7	TYR7	0.597	
92	   O	1098.329	310.988	-1085.139	O.2	7	TYR7	-0.568	
93	  CB	1096.433	308.447	-1084.118	C.3	7	TYR7	-0.015	
94	  CG	1096.348	306.969	-1083.719	C.2	7	TYR7	-0.001	
95	 CD1	1097.098	306.003	-1084.397	C.2	7	TYR7	-0.191	
96	 CD2	1095.522	306.583	-1082.659	C.2	7	TYR7	-0.191	
97	 CE1	1097.023	304.667	-1084.015	C.2	7	TYR7	-0.234	
98	 CE2	1095.449	305.246	-1082.279	C.2	7	TYR7	-0.234	
99	  CZ	1096.200	304.289	-1082.958	C.2	7	TYR7	0.323	
100	  OH	1096.133	302.976	-1082.584	O.3	7	TYR7	-0.558	
101	   H	1097.048	308.781	-1081.619	 H	7	TYR7	0.272	
102	  HA	1098.607	308.756	-1084.011	 H	7	TYR7	0.088	
103	 2HB	1096.371	308.497	-1085.224	 H	7	TYR7	0.030	
104	 3HB	1095.515	308.974	-1083.785	 H	7	TYR7	0.030	
105	 1HD	1097.744	306.288	-1085.216	 H	7	TYR7	0.170	
106	 2HD	1094.945	307.322	-1082.121	 H	7	TYR7	0.170	
107	 1HE	1097.606	303.920	-1084.534	 H	7	TYR7	0.166	
108	 2HE	1094.812	304.961	-1081.455	 H	7	TYR7	0.166	
109	  HH	1095.525	302.902	-1081.845	 H	7	TYR7	0.399	
110	   N	1096.775	311.469	-1083.696	N.am	8	ASP8	-0.516	
111	  CA	1096.705	312.818	-1084.250	C.3	8	ASP8	0.038	
112	   C	1098.052	313.498	-1084.193	C.2	8	ASP8	0.537	
113	   O	1098.524	314.102	-1085.168	O.2	8	ASP8	-0.582	
114	  CB	1095.627	313.657	-1083.508	C.3	8	ASP8	-0.030	
115	  CG	1095.408	315.078	-1084.049	C.2	8	ASP8	0.799	
116	 OD1	1095.472	315.276	-1085.280	O.co2	8	ASP8	-0.801	
117	 OD2	1095.216	316.004	-1083.234	O.co2	8	ASP8	-0.801	
118	   H	1096.177	311.198	-1082.928	 H	8	ASP8	0.294	
119	  HA	1096.422	312.740	-1085.317	 H	8	ASP8	0.088	
120	 2HB	1095.885	313.741	-1082.436	 H	8	ASP8	-0.012	
121	 3HB	1094.648	313.152	-1083.541	 H	8	ASP8	-0.012	
122	   N	1098.732	313.448	-1083.098	N.am	9	GLU9	-0.516	
123	  CA	1100.034	314.105	-1083.043	C.3	9	GLU9	0.040	
124	   C	1100.952	313.577	-1084.119	C.2	9	GLU9	0.537	
125	   O	1101.616	314.331	-1084.845	O.2	9	GLU9	-0.582	
126	  CB	1100.668	313.898	-1081.637	C.3	9	GLU9	0.056	
127	  CG	1102.051	314.590	-1081.409	C.3	9	GLU9	0.014	
128	  CD	1102.753	314.378	-1080.080	C.2	9	GLU9	0.805	
129	 OE1	1102.231	313.687	-1079.184	O.co2	9	GLU9	-0.819	
130	 OE2	1103.872	314.915	-1079.949	O.co2	9	GLU9	-0.819	
131	   H	1098.368	312.962	-1082.290	 H	9	GLU9	0.294	
132	  HA	1099.892	315.187	-1083.219	 H	9	GLU9	0.111	
133	 2HB	1100.781	312.814	-1081.434	 H	9	GLU9	-0.017	
134	 3HB	1099.971	314.252	-1080.853	 H	9	GLU9	-0.017	
135	 2HG	1101.979	315.681	-1081.549	 H	9	GLU9	-0.043	
136	 3HG	1102.797	314.245	-1082.143	 H	9	GLU9	-0.043	
137	   N	1101.049	312.302	-1084.288	N.am	10	HIS10	-0.416	
138	  CA	1101.936	311.790	-1085.328	C.3	10	HIS10	-0.058	
139	   C	1101.569	312.354	-1086.679	C.2	10	HIS10	0.597	
140	   O	1102.422	312.819	-1087.452	O.2	10	HIS10	-0.568	
141	  CB	1101.772	310.262	-1085.323	C.3	10	HIS10	-0.007	
142	  CG	1103.058	309.551	-1085.014	C.2	10	HIS10	0.187	
143	 CD2	1103.439	309.217	-1083.722	C.2	10	HIS10	-0.221	
144	 ND1	1104.010	309.145	-1085.947	N.2	10	HIS10	-0.543	
145	 CE1	1104.917	308.587	-1085.124	C.2	10	HIS10	0.163	
146	 NE2	1104.654	308.585	-1083.788	N.pl3	10	HIS10	-0.280	
147	   H	1100.518	311.667	-1083.709	 H	10	HIS10	0.272	
148	  HA	1102.955	312.148	-1085.103	 H	10	HIS10	0.136	
149	 2HB	1101.407	309.894	-1086.302	 H	10	HIS10	0.037	
150	 3HB	1101.017	309.925	-1084.582	 H	10	HIS10	0.037	
151	 2HD	1102.854	309.432	-1082.833	 H	10	HIS10	0.186	
152	 1HE	1105.807	308.166	-1085.571	 H	10	HIS10	0.144	
153	 2HE	1105.221	308.208	-1083.015	 H	10	HIS10	0.334	
154	   N	1100.331	312.353	-1087.042	N.am	11	VAL11	-0.416	
155	  CA	1099.976	312.899	-1088.349	C.3	11	VAL11	-0.087	
156	   C	1100.440	314.329	-1088.482	C.2	11	VAL11	0.597	
157	   O	1101.041	314.734	-1089.486	O.2	11	VAL11	-0.568	
158	  CB	1098.414	312.792	-1088.568	C.3	11	VAL11	0.299	
159	 CG1	1097.845	313.495	-1089.831	C.3	11	VAL11	-0.319	
160	 CG2	1097.890	311.338	-1088.640	C.3	11	VAL11	-0.319	
161	   H	1099.618	311.981	-1086.431	 H	11	VAL11	0.272	
162	  HA	1100.495	312.316	-1089.131	 H	11	VAL11	0.097	
163	  HB	1097.927	313.272	-1087.693	 H	11	VAL11	-0.030	
164	1HG1	1098.284	313.103	-1090.768	 H	11	VAL11	0.079	
165	2HG1	1096.747	313.388	-1089.912	 H	11	VAL11	0.079	
166	3HG1	1098.023	314.588	-1089.822	 H	11	VAL11	0.079	
167	1HG2	1098.180	310.751	-1087.750	 H	11	VAL11	0.079	
168	2HG2	1096.784	311.301	-1088.683	 H	11	VAL11	0.079	
169	3HG2	1098.271	310.797	-1089.527	 H	11	VAL11	0.079	
170	   N	1100.203	315.156	-1087.520	N.am	12	GLN12	-0.416	
171	  CA	1100.651	316.539	-1087.648	C.3	12	GLN12	-0.003	
172	   C	1102.141	316.606	-1087.887	C.2	12	GLN12	0.597	
173	   O	1102.628	317.313	-1088.766	O.2	12	GLN12	-0.568	
174	  CB	1100.261	317.307	-1086.366	C.3	12	GLN12	-0.004	
175	  CG	1100.622	318.829	-1086.336	C.3	12	GLN12	-0.064	
176	  CD	1100.320	319.643	-1085.071	C.2	12	GLN12	0.695	
177	 NE2	1099.753	319.067	-1084.042	N.pl3	12	GLN12	-0.941	
178	 OE1	1100.622	320.824	-1084.995	O.2	12	GLN12	-0.609	
179	   H	1099.714	314.850	-1086.691	 H	12	GLN12	0.272	
180	  HA	1100.152	316.994	-1088.523	 H	12	GLN12	0.085	
181	 2HB	1100.738	316.807	-1085.496	 H	12	GLN12	0.017	
182	 3HB	1099.171	317.200	-1086.202	 H	12	GLN12	0.017	
183	 2HG	1100.144	319.349	-1087.186	 H	12	GLN12	0.035	
184	 3HG	1101.705	318.970	-1086.502	 H	12	GLN12	0.035	
185	1HE2	1099.646	319.662	-1083.219	 H	12	GLN12	0.425	
186	2HE2	1099.589	318.063	-1084.145	 H	12	GLN12	0.425	
187	   N	1102.926	315.899	-1087.146	N.am	13	ARG13	-0.348	
188	  CA	1104.366	315.965	-1087.377	C.3	13	ARG13	-0.264	
189	   C	1104.702	315.593	-1088.802	C.2	13	ARG13	0.734	
190	   O	1105.471	316.264	-1089.486	O.2	13	ARG13	-0.589	
191	  CB	1105.080	315.027	-1086.362	C.3	13	ARG13	-0.001	
192	  CG	1106.625	315.180	-1086.282	C.3	13	ARG13	0.039	
193	  CD	1107.252	314.193	-1085.283	C.3	13	ARG13	0.049	
194	  NE	1108.729	314.400	-1085.234	N.pl3	13	ARG13	-0.530	
195	  CZ	1109.578	313.709	-1084.478	C.cat	13	ARG13	0.808	
196	 NH1	1109.213	312.745	-1083.680	N.pl3	13	ARG13	-0.863	
197	 NH2	1110.837	314.008	-1084.536	N.pl3	13	ARG13	-0.863	
198	   H	1102.550	315.310	-1086.417	 H	13	ARG13	0.275	
199	  HA	1104.691	317.011	-1087.219	 H	13	ARG13	0.156	
200	 2HB	1104.813	313.976	-1086.601	 H	13	ARG13	0.033	
201	 3HB	1104.655	315.194	-1085.352	 H	13	ARG13	0.033	
202	 2HG	1106.873	316.225	-1086.003	 H	13	ARG13	0.029	
203	 3HG	1107.075	315.023	-1087.283	 H	13	ARG13	0.029	
204	 2HD	1107.008	313.153	-1085.592	 H	13	ARG13	0.069	
205	 3HD	1106.796	314.339	-1084.281	 H	13	ARG13	0.069	
206	  HE	1109.180	315.122	-1085.805	 H	13	ARG13	0.346	
207	1HH1	1108.207	312.559	-1083.683	 H	13	ARG13	0.448	
208	2HH1	1109.926	312.263	-1083.131	 H	13	ARG13	0.448	
209	1HH2	1111.104	314.766	-1085.167	 H	13	ARG13	0.448	
210	2HH2	1111.472	313.467	-1083.947	 H	13	ARG13	0.448	
211	   N	1104.166	314.538	-1089.315	N.am	14	VAL14	-0.416	
212	  CA	1104.490	314.178	-1090.692	C.3	14	VAL14	-0.087	
213	   C	1104.160	315.307	-1091.639	C.2	14	VAL14	0.597	
214	   O	1104.953	315.688	-1092.509	O.2	14	VAL14	-0.568	
215	  CB	1103.717	312.860	-1091.098	C.3	14	VAL14	0.299	
216	 CG1	1103.806	312.441	-1092.591	C.3	14	VAL14	-0.319	
217	 CG2	1104.150	311.609	-1090.297	C.3	14	VAL14	-0.319	
218	   H	1103.531	313.970	-1088.773	 H	14	VAL14	0.272	
219	  HA	1105.578	314.001	-1090.767	 H	14	VAL14	0.097	
220	  HB	1102.641	313.032	-1090.882	 H	14	VAL14	-0.030	
221	1HG1	1104.847	312.264	-1092.921	 H	14	VAL14	0.079	
222	2HG1	1103.233	311.518	-1092.803	 H	14	VAL14	0.079	
223	3HG1	1103.377	313.203	-1093.270	 H	14	VAL14	0.079	
224	1HG2	1104.063	311.768	-1089.207	 H	14	VAL14	0.079	
225	2HG2	1103.514	310.732	-1090.529	 H	14	VAL14	0.079	
226	3HG2	1105.197	311.318	-1090.503	 H	14	VAL14	0.079	
227	   N	1103.015	315.893	-1091.537	N.am	15	MET15	-0.416	
228	  CA	1102.695	316.985	-1092.452	C.3	15	MET15	-0.024	
229	   C	1103.725	318.085	-1092.365	C.2	15	MET15	0.597	
230	   O	1104.228	318.595	-1093.378	O.2	15	MET15	-0.568	
231	  CB	1101.274	317.531	-1092.143	C.3	15	MET15	0.034	
232	  CG	1100.111	316.533	-1092.333	C.3	15	MET15	0.002	
233	  SD	1098.537	317.400	-1092.219	S.3	15	MET15	-0.274	
234	  CE	1097.456	315.971	-1092.082	C.3	15	MET15	-0.054	
235	   H	1102.350	315.601	-1090.835	 H	15	MET15	0.272	
236	  HA	1102.720	316.597	-1093.487	 H	15	MET15	0.088	
237	 2HB	1101.071	318.410	-1092.786	 H	15	MET15	0.024	
238	 3HB	1101.238	317.925	-1091.107	 H	15	MET15	0.024	
239	 2HG	1100.154	315.748	-1091.555	 H	15	MET15	0.044	
240	 3HG	1100.174	316.017	-1093.309	 H	15	MET15	0.044	
241	 1HE	1097.599	315.281	-1092.933	 H	15	MET15	0.068	
242	 2HE	1097.666	315.419	-1091.148	 H	15	MET15	0.068	
243	 3HE	1096.399	316.286	-1092.065	 H	15	MET15	0.068	
244	   N	1104.094	318.507	-1091.203	N.am	16	ARG16	-0.348	
245	  CA	1105.091	319.570	-1091.120	C.3	16	ARG16	-0.264	
246	   C	1106.361	319.177	-1091.836	C.2	16	ARG16	0.734	
247	   O	1106.475	318.100	-1092.417	O.2	16	ARG16	-0.589	
248	  CB	1105.360	319.889	-1089.622	C.3	16	ARG16	-0.001	
249	  CG	1106.185	321.179	-1089.350	C.3	16	ARG16	0.039	
250	  CD	1106.435	321.399	-1087.849	C.3	16	ARG16	0.049	
251	  NE	1107.211	322.658	-1087.649	N.pl3	16	ARG16	-0.530	
252	  CZ	1107.603	323.141	-1086.474	C.cat	16	ARG16	0.808	
253	 NH1	1107.355	322.558	-1085.335	N.pl3	16	ARG16	-0.863	
254	 NH2	1108.267	324.254	-1086.456	N.pl3	16	ARG16	-0.863	
255	   H	1103.699	318.107	-1090.363	 H	16	ARG16	0.275	
256	  HA	1104.682	320.463	-1091.631	 H	16	ARG16	0.156	
257	 2HB	1105.857	319.014	-1089.155	 H	16	ARG16	0.033	
258	 3HB	1104.391	319.971	-1089.088	 H	16	ARG16	0.033	
259	 2HG	1105.655	322.049	-1089.788	 H	16	ARG16	0.029	
260	 3HG	1107.159	321.125	-1089.879	 H	16	ARG16	0.029	
261	 2HD	1106.984	320.525	-1087.435	 H	16	ARG16	0.069	
262	 3HD	1105.462	321.442	-1087.314	 H	16	ARG16	0.069	
263	  HE	1107.490	323.238	-1088.447	 H	16	ARG16	0.346	
264	1HH1	1106.829	321.685	-1085.419	 H	16	ARG16	0.448	
265	2HH1	1107.689	322.994	-1084.474	 H	16	ARG16	0.448	
266	1HH2	1108.452	324.696	-1087.358	 H	16	ARG16	0.448	
267	2HH2	1108.557	324.609	-1085.544	 H	16	ARG16	0.448	
@<TRIPOS>BOND
1 1 2 1
2 1 10 1
3 2 3 1
4 2 5 1
5 2 11 1
6 3 4 2
7 3 16 1
8 5 6 1
9 6 7 1
10 7 8 2
11 7 9 1
12 5 12 1
13 5 13 1
14 6 14 1
15 6 15 1
16 16 17 1
17 16 24 1
18 17 18 1
19 17 20 1
20 17 25 1
21 18 19 2
22 18 30 1
23 20 21 1
24 21 22 1
25 21 23 2
26 20 26 1
27 20 27 1
28 22 28 1
29 22 29 1
30 30 31 1
31 30 36 1
32 31 32 1
33 31 34 1
34 31 37 1
35 32 33 2
36 32 44 1
37 34 35 1
38 35 36 1
39 34 38 1
40 34 39 1
41 35 40 1
42 35 41 1
43 36 42 1
44 36 43 1
45 44 45 1
46 44 53 1
47 45 46 1
48 45 48 1
49 45 54 1
50 46 47 2
51 46 59 1
52 48 49 1
53 49 50 1
54 50 51 2
55 50 52 1
56 48 55 1
57 48 56 1
58 49 57 1
59 49 58 1
60 59 60 1
61 59 65 1
62 60 61 1
63 60 63 1
64 60 66 1
65 61 62 2
66 61 70 1
67 63 64 1
68 63 67 1
69 63 68 1
70 64 69 1
71 70 71 1
72 70 78 1
73 71 72 1
74 71 74 1
75 71 79 1
76 72 73 2
77 72 89 1
78 74 75 1
79 74 76 1
80 75 77 1
81 74 80 1
82 75 81 1
83 75 82 1
84 76 83 1
85 76 84 1
86 76 85 1
87 77 86 1
88 77 87 1
89 77 88 1
90 89 90 1
91 89 101 1
92 90 91 1
93 90 93 1
94 90 102 1
95 91 92 2
96 91 110 1
97 93 94 1
98 94 95 2
99 94 96 1
100 96 98 2
101 95 97 1
102 98 99 1
103 97 99 2
104 99 100 1
105 93 103 1
106 93 104 1
107 95 105 1
108 96 106 1
109 97 107 1
110 98 108 1
111 100 109 1
112 110 111 1
113 110 118 1
114 111 112 1
115 111 114 1
116 111 119 1
117 112 113 2
118 112 122 1
119 114 115 1
120 115 116 2
121 115 117 1
122 114 120 1
123 114 121 1
124 122 123 1
125 122 131 1
126 123 124 1
127 123 126 1
128 123 132 1
129 124 125 2
130 124 137 1
131 126 127 1
132 127 128 1
133 128 129 2
134 128 130 1
135 126 133 1
136 126 134 1
137 127 135 1
138 127 136 1
139 137 138 1
140 137 147 1
141 138 139 1
142 138 141 1
143 138 148 1
144 139 140 2
145 139 154 1
146 141 142 1
147 142 143 2
148 143 146 1
149 142 144 1
150 144 145 2
151 145 146 1
152 141 149 1
153 141 150 1
154 143 151 1
155 145 152 1
156 146 153 1
157 154 155 1
158 154 161 1
159 155 156 1
160 155 158 1
161 155 162 1
162 156 157 2
163 156 170 1
164 158 159 1
165 158 160 1
166 158 163 1
167 159 164 1
168 159 165 1
169 159 166 1
170 160 167 1
171 160 168 1
172 160 169 1
173 170 171 1
174 170 179 1
175 171 172 1
176 171 174 1
177 171 180 1
178 172 173 2
179 172 187 1
180 174 175 1
181 175 176 1
182 176 177 1
183 176 178 2
184 174 181 1
185 174 182 1
186 175 183 1
187 175 184 1
188 177 185 1
189 177 186 1
190 187 188 1
191 187 198 1
192 188 189 1
193 188 191 1
194 188 199 1
195 189 190 2
196 189 211 1
197 191 192 1
198 192 193 1
199 193 194 1
200 194 195 1
201 195 196 2
202 195 197 1
203 191 200 1
204 191 201 1
205 192 202 1
206 192 203 1
207 193 204 1
208 193 205 1
209 194 206 1
210 196 207 1
211 196 208 1
212 197 209 1
213 197 210 1
214 211 212 1
215 211 218 1
216 212 213 1
217 212 215 1
218 212 219 1
219 213 214 2
220 213 227 1
221 215 216 1
222 215 217 1
223 215 220 1
224 216 221 1
225 216 222 1
226 216 223 1
227 217 224 1
228 217 225 1
229 217 226 1
230 227 228 1
231 227 235 1
232 228 229 1
233 228 231 1
234 228 236 1
235 229 230 2
236 229 244 1
237 231 232 1
238 232 233 1
239 233 234 1
240 231 237 1
241 231 238 1
242 232 239 1
243 232 240 1
244 234 241 1
245 234 242 1
246 234 243 1
247 244 245 1
248 244 255 1
249 245 246 1
250 245 248 1
251 245 256 1
252 246 247 2
253 248 249 1
254 249 250 1
255 250 251 1
256 251 252 1
257 252 253 2
258 252 254 1
259 248 257 1
260 248 258 1
261 249 259 1
262 249 260 1
263 250 261 1
264 250 262 1
265 251 263 1
266 253 264 1
267 253 265 1
268 254 266 1
269 254 267 1
@<TRIPOS>SUBSTRUCTURE
1	GLU1	1	RESIDUE	1 ****	GLU
2	ASN2	16	RESIDUE	1 ****	ASN
3	PRO3	30	RESIDUE	1 ****	PRO
4	GLU4	44	RESIDUE	1 ****	GLU
5	SER5	59	RESIDUE	1 ****	SER
6	ILE6	70	RESIDUE	1 ****	ILE
7	TYR7	89	RESIDUE	1 ****	TYR
8	ASP8	110	RESIDUE	1 ****	ASP
9	GLU9	122	RESIDUE	1 ****	GLU
10	HIS10	137	RESIDUE	1 ****	HIS
11	VAL11	154	RESIDUE	1 ****	VAL
12	GLN12	170	RESIDUE	1 ****	GLN
13	ARG13	187	RESIDUE	1 ****	ARG
14	VAL14	211	RESIDUE	1 ****	VAL
15	MET15	227	RESIDUE	1 ****	MET
16	ARG16	244	RESIDUE	1 ****	ARG
