REMARK WARNING: 32 MAX_TORS EXCEEDED!!!
REMARK  67 active torsions:
REMARK  status: ('A' for Active; 'I' for Inactive)
REMARK    1  A    between atoms: N_1  and  CA_2 
REMARK    2  A    between atoms: CA_2  and  C_3 
REMARK    3  A    between atoms: CA_2  and  CB_5 
REMARK       I    between atoms: C_3  and  N_9 
REMARK    4  A    between atoms: CB_5  and  SG_6 
REMARK    5  A    between atoms: N_9  and  CA_10 
REMARK    6  A    between atoms: CA_10  and  C_11 
REMARK    7  A    between atoms: CA_10  and  CB_13 
REMARK       I    between atoms: C_11  and  N_20 
REMARK    8  A    between atoms: CB_13  and  CG_14 
REMARK       I    between atoms: CG_14  and  ND2_15 
REMARK    9  A    between atoms: CA_21  and  C_22 
REMARK       I    between atoms: C_22  and  N_27 
REMARK   10  A    between atoms: N_27  and  CA_28 
REMARK   11  A    between atoms: CA_28  and  C_29 
REMARK   12  A    between atoms: CA_28  and  CB_31 
REMARK       I    between atoms: C_29  and  N_37 
REMARK   13  A    between atoms: CB_31  and  CG_32 
REMARK   14  A    between atoms: CG_32  and  CD_33 
REMARK   15  A    between atoms: N_37  and  CA_38 
REMARK   16  A    between atoms: CA_38  and  C_39 
REMARK   17  A    between atoms: CA_38  and  CB_41 
REMARK       I    between atoms: C_39  and  N_45 
REMARK   18  A    between atoms: CB_41  and  OG_42 
REMARK   19  A    between atoms: N_45  and  CA_46 
REMARK   20  A    between atoms: CA_46  and  C_47 
REMARK   21  A    between atoms: CA_46  and  CB_49 
REMARK       I    between atoms: C_47  and  N_54 
REMARK   22  A    between atoms: CB_49  and  CG1_50 
REMARK   23  A    between atoms: N_54  and  CA_55 
REMARK   24  A    between atoms: CA_55  and  C_56 
REMARK   25  A    between atoms: CA_55  and  CB_58 
REMARK       I    between atoms: C_56  and  N_63 
REMARK   26  A    between atoms: CB_58  and  CG_59 
REMARK   27  A    between atoms: N_63  and  CA_64 
REMARK   28  A    between atoms: CA_64  and  C_65 
REMARK   29  A    between atoms: CA_64  and  CB_67 
REMARK       I    between atoms: C_65  and  N_72 
REMARK   30  A    between atoms: CB_67  and  CG_68 
REMARK   31  A    between atoms: N_72  and  CA_73 
REMARK   32  A    between atoms: CA_73  and  C_74 
REMARK   33  A    between atoms: CA_73  and  CB_76 
REMARK       I    between atoms: C_74  and  N_82 
REMARK   34  A    between atoms: CB_76  and  CG_77 
REMARK   35  A    between atoms: CG_77  and  CD_78 
REMARK   36  A    between atoms: N_82  and  CA_83 
REMARK   37  A    between atoms: CA_83  and  C_84 
REMARK   38  A    between atoms: CA_83  and  CB_86 
REMARK       I    between atoms: C_84  and  N_94 
REMARK   39  A    between atoms: CB_86  and  CG_87 
REMARK   40  A    between atoms: N_94  and  CA_95 
REMARK   41  A    between atoms: CA_95  and  C_96 
REMARK   42  A    between atoms: CA_95  and  CB_98 
REMARK       I    between atoms: C_96  and  N_102 
REMARK   43  A    between atoms: N_102  and  CA_103 
REMARK   44  A    between atoms: CA_103  and  C_104 
REMARK   45  A    between atoms: CA_103  and  CB_106 
REMARK       I    between atoms: C_104  and  N_114 
REMARK   46  A    between atoms: CB_106  and  CG_107 
REMARK   47  A    between atoms: CG_107  and  CD_108 
REMARK       I    between atoms: CD_108  and  NE2_109 
REMARK   48  A    between atoms: N_114  and  CA_115 
REMARK   49  A    between atoms: CA_115  and  C_116 
REMARK   50  A    between atoms: CA_115  and  CB_118 
REMARK       I    between atoms: C_116  and  N_131 
REMARK   51  A    between atoms: CB_118  and  CG_119 
REMARK   52  A    between atoms: CG_119  and  CD_120 
REMARK   53  A    between atoms: CD_120  and  NE_121 
REMARK       I    between atoms: NE_121  and  CZ_122 
REMARK       I    between atoms: CZ_122  and  NH1_123 
REMARK       I    between atoms: CZ_122  and  NH2_124 
REMARK   54  A    between atoms: N_131  and  CA_132 
REMARK   55  A    between atoms: CA_132  and  C_133 
REMARK   56  A    between atoms: CA_132  and  CB_135 
REMARK       I    between atoms: C_133  and  N_139 
REMARK   57  A    between atoms: N_139  and  CA_140 
REMARK   58  A    between atoms: CA_140  and  C_141 
REMARK   59  A    between atoms: CA_140  and  CB_143 
REMARK       I    between atoms: C_141  and  N_148 
REMARK   60  A    between atoms: CB_143  and  CG_144 
REMARK   61  A    between atoms: CG_144  and  SD_145 
REMARK   62  A    between atoms: N_148  and  CA_149 
REMARK   63  A    between atoms: CA_149  and  C_150 
REMARK   64  A    between atoms: CA_149  and  CB_152 
REMARK   65  A    between atoms: CB_152  and  CG_153 
REMARK   66  A    between atoms: CG_153  and  CD_154 
REMARK   67  A    between atoms: CD_154  and  NE_155 
REMARK       I    between atoms: NE_155  and  CZ_156 
REMARK       I    between atoms: CZ_156  and  NH1_157 
ROOT
ATOM      1  C   GLU d   9     107.599  17.815 -74.481  0.00  0.00     0.241 C 
ATOM      2  O   GLU d   9     108.262  18.570 -75.206  0.00  0.00    -0.271 OA
ATOM      3  N   HIS d  10     107.696  16.540 -74.651  0.00  0.00    -0.346 N 
ATOM      4  H   HIS d  10     107.165  15.904 -74.072  0.00  0.00     0.163 HD
ENDROOT
BRANCH   3   5
ATOM      5  CA  HIS d  10     108.584  16.029 -75.691  0.00  0.00     0.182 C 
BRANCH   5   6
ATOM      6  C   HIS d  10     108.217  16.594 -77.042  0.00  0.00     0.241 C 
ATOM      7  O   HIS d  10     109.069  17.059 -77.814  0.00  0.00    -0.271 OA
ATOM      8  N   VAL d  11     106.979  16.592 -77.405  0.00  0.00    -0.346 N 
ATOM      9  H   VAL d  11     106.266  16.219 -76.794  0.00  0.00     0.163 HD
BRANCH   8  10
ATOM     10  CA  VAL d  11     106.623  17.138 -78.712  0.00  0.00     0.180 C 
BRANCH  10  11
ATOM     11  C   VAL d  11     107.087  18.569 -78.844  0.00  0.00     0.241 C 
ATOM     12  O   VAL d  11     107.688  18.975 -79.847  0.00  0.00    -0.271 OA
ATOM     13  N   GLN d  12     106.850  19.395 -77.882  0.00  0.00    -0.346 N 
ATOM     14  H   GLN d  12     106.361  19.088 -77.053  0.00  0.00     0.163 HD
BRANCH  13  15
ATOM     15  CA  GLN d  12     107.298  20.778 -78.009  0.00  0.00     0.177 C 
BRANCH  15  16
ATOM     16  C   GLN d  12     108.787  20.846 -78.247  0.00  0.00     0.241 C 
ATOM     17  O   GLN d  12     109.274  21.554 -79.125  0.00  0.00    -0.271 OA
ATOM     18  N   ARG d  13     109.572  20.139 -77.506  0.00  0.00    -0.346 N 
ATOM     19  H   ARG d  13     109.197  19.549 -76.778  0.00  0.00     0.163 HD
BRANCH  18  20
ATOM     20  CA  ARG d  13     111.013  20.206 -77.737  0.00  0.00     0.176 C 
BRANCH  20  21
ATOM     21  C   ARG d  13     111.349  19.835 -79.162  0.00  0.00     0.241 C 
ATOM     22  O   ARG d  13     112.117  20.507 -79.846  0.00  0.00    -0.271 OA
ATOM     23  N   VAL d  14     110.813  18.780 -79.676  0.00  0.00    -0.346 N 
ATOM     24  H   VAL d  14     110.179  18.211 -79.135  0.00  0.00     0.163 HD
BRANCH  23  25
ATOM     25  CA  VAL d  14     111.138  18.421 -81.054  0.00  0.00     0.180 C 
BRANCH  25  26
ATOM     26  C   VAL d  14     110.807  19.551 -81.999  0.00  0.00     0.241 C 
ATOM     27  O   VAL d  14     111.601  19.933 -82.869  0.00  0.00    -0.271 OA
ATOM     28  N   MET d  15     109.662  20.136 -81.897  0.00  0.00    -0.346 N 
ATOM     29  H   MET d  15     108.998  19.843 -81.196  0.00  0.00     0.163 HD
BRANCH  28  30
ATOM     30  CA  MET d  15     109.341  21.229 -82.811  0.00  0.00     0.177 C 
BRANCH  30  31
ATOM     31  C   MET d  15     110.371  22.329 -82.723  0.00  0.00     0.241 C 
ATOM     32  O   MET d  15     110.873  22.840 -83.736  0.00  0.00    -0.271 OA
ATOM     33  N   ARG d  16     110.740  22.750 -81.561  0.00  0.00    -0.347 N 
ATOM     34  H   ARG d  16     110.345  22.350 -80.722  0.00  0.00     0.163 HD
BRANCH  33  35
ATOM     35  CA  ARG d  16     111.736  23.815 -81.477  0.00  0.00     0.162 C 
BRANCH  35  36
ATOM     36  C   ARG d  16     113.007  23.423 -82.194  0.00  0.00     0.219 C 
ATOM     37  O   ARG d  16     113.121  22.346 -82.775  0.00  0.00    -0.287 OA
ENDBRANCH  35  36
BRANCH  35  38
ATOM     38  CB  ARG d  16     112.005  24.133 -79.979  0.00  0.00     0.035 C 
BRANCH  38  39
ATOM     39  CG  ARG d  16     112.830  25.422 -79.706  0.00  0.00     0.023 C 
BRANCH  39  40
ATOM     40  CD  ARG d  16     113.079  25.641 -78.205  0.00  0.00     0.138 C 
BRANCH  40  41
ATOM     41  NE  ARG d  16     113.855  26.900 -78.004  0.00  0.00    -0.227 N 
ATOM     42  CZ  ARG d  16     114.246  27.383 -76.828  0.00  0.00     0.665 C 
ATOM     43  NH1 ARG d  16     113.999  26.798 -75.690  0.00  0.00    -0.235 N 
ATOM     44  NH2 ARG d  16     114.910  28.496 -76.809  0.00  0.00    -0.235 N 
ATOM     45 11HH ARG d  16     113.474  25.925 -75.774  0.00  0.00     0.174 HD
ATOM     46 12HH ARG d  16     114.333  27.234 -74.828  0.00  0.00     0.174 HD
ATOM     47 21HH ARG d  16     115.095  28.939 -77.711  0.00  0.00     0.174 HD
ATOM     48 22HH ARG d  16     115.200  28.851 -75.897  0.00  0.00     0.174 HD
ATOM     49  HE  ARG d  16     114.133  27.482 -78.801  0.00  0.00     0.177 HD
ENDBRANCH  40  41
ENDBRANCH  39  40
ENDBRANCH  38  39
ENDBRANCH  35  38
ENDBRANCH  33  35
ENDBRANCH  30  31
BRANCH  30  50
ATOM     50  CB  MET d  15     107.920  21.774 -82.502  0.00  0.00     0.045 C 
BRANCH  50  51
ATOM     51  CG  MET d  15     106.758  20.775 -82.694  0.00  0.00     0.076 C 
BRANCH  51  52
ATOM     52  SD  MET d  15     105.184  21.641 -82.579  0.00  0.00    -0.173 SA
ATOM     53  CE  MET d  15     104.103  20.211 -82.443  0.00  0.00     0.089 C 
ENDBRANCH  51  52
ENDBRANCH  50  51
ENDBRANCH  30  50
ENDBRANCH  28  30
ENDBRANCH  25  26
BRANCH  25  54
ATOM     54  CB  VAL d  14     110.366  17.104 -81.461  0.00  0.00     0.009 C 
ATOM     55  CG1 VAL d  14     110.455  16.686 -82.955  0.00  0.00     0.012 C 
ATOM     56  CG2 VAL d  14     110.799  15.851 -80.661  0.00  0.00     0.012 C 
ENDBRANCH  25  54
ENDBRANCH  23  25
ENDBRANCH  20  21
BRANCH  20  57
ATOM     57  CB  ARG d  13     111.726  19.267 -76.723  0.00  0.00     0.036 C 
BRANCH  57  58
ATOM     58  CG  ARG d  13     113.271  19.421 -76.642  0.00  0.00     0.023 C 
BRANCH  58  59
ATOM     59  CD  ARG d  13     113.899  18.433 -75.645  0.00  0.00     0.138 C 
BRANCH  59  60
ATOM     60  NE  ARG d  13     115.376  18.641 -75.594  0.00  0.00    -0.227 N 
ATOM     61  CZ  ARG d  13     116.224  17.950 -74.839  0.00  0.00     0.665 C 
ATOM     62  NH1 ARG d  13     115.860  16.985 -74.042  0.00  0.00    -0.235 N 
ATOM     63  NH2 ARG d  13     117.484  18.249 -74.896  0.00  0.00    -0.235 N 
ATOM     64 11HH ARG d  13     114.854  16.798 -74.045  0.00  0.00     0.174 HD
ATOM     65 12HH ARG d  13     116.573  16.502 -73.493  0.00  0.00     0.174 HD
ATOM     66 21HH ARG d  13     117.751  19.007 -75.527  0.00  0.00     0.174 HD
ATOM     67 22HH ARG d  13     118.119  17.708 -74.308  0.00  0.00     0.174 HD
ATOM     68  HE  ARG d  13     115.827  19.363 -76.165  0.00  0.00     0.177 HD
ENDBRANCH  59  60
ENDBRANCH  58  59
ENDBRANCH  57  58
ENDBRANCH  20  57
ENDBRANCH  18  20
ENDBRANCH  15  16
BRANCH  15  69
ATOM     69  CB  GLN d  12     106.906  21.545 -76.726  0.00  0.00     0.044 C 
BRANCH  69  70
ATOM     70  CG  GLN d  12     107.266  23.067 -76.695  0.00  0.00     0.105 C 
BRANCH  70  71
ATOM     71  CD  GLN d  12     106.963  23.880 -75.430  0.00  0.00     0.215 C 
ATOM     72  NE2 GLN d  12     106.397  23.303 -74.401  0.00  0.00    -0.370 N 
ATOM     73 21HE GLN d  12     106.289  23.897 -73.577  0.00  0.00     0.159 HD
ATOM     74 22HE GLN d  12     106.233  22.300 -74.504  0.00  0.00     0.159 HD
ATOM     75  OE1 GLN d  12     107.265  25.061 -75.352  0.00  0.00    -0.274 OA
ENDBRANCH  70  71
ENDBRANCH  69  70
ENDBRANCH  15  69
ENDBRANCH  13  15
ENDBRANCH  10  11
BRANCH  10  76
ATOM     76  CB  VAL d  11     105.062  17.031 -78.931  0.00  0.00     0.009 C 
ATOM     77  CG1 VAL d  11     104.493  17.735 -80.194  0.00  0.00     0.012 C 
ATOM     78  CG2 VAL d  11     104.538  15.577 -79.004  0.00  0.00     0.012 C 
ENDBRANCH  10  76
ENDBRANCH   8  10
ENDBRANCH   5   6
BRANCH   5  79
ATOM     79  CB  HIS d  10     108.421  14.500 -75.686  0.00  0.00     0.095 C 
BRANCH  79  80
ATOM     80  CG  HIS d  10     109.707  13.790 -75.378  0.00  0.00     0.053 A 
ATOM     81  CD2 HIS d  10     110.088  13.455 -74.086  0.00  0.00     0.116 A 
ATOM     82  NE2 HIS d  10     111.303  12.824 -74.153  0.00  0.00    -0.359 N 
ATOM     83  CE1 HIS d  10     111.565  12.827 -75.488  0.00  0.00     0.207 A 
ATOM     84  2HE HIS d  10     111.870  12.447 -73.380  0.00  0.00     0.166 HD
ATOM     85  ND1 HIS d  10     110.659  13.385 -76.311  0.00  0.00    -0.247 NA
ENDBRANCH  79  80
ENDBRANCH   5  79
ENDBRANCH   3   5
BRANCH   1  86
ATOM     86  CA  GLU d   9     106.681  18.342 -73.405  0.00  0.00     0.177 C 
BRANCH  86  87
ATOM     87  N   GLU d   9     105.378  17.684 -73.460  0.00  0.00    -0.346 N 
ATOM     88  C   ASP d   8     104.698  17.734 -74.555  0.00  0.00     0.241 C 
ATOM     89  O   ASP d   8     105.171  18.339 -75.530  0.00  0.00    -0.271 OA
ATOM     90  H   GLU d   9     105.015  17.198 -72.653  0.00  0.00     0.163 HD
BRANCH  88  91
ATOM     91  CA  ASP d   8     103.352  17.054 -74.613  0.00  0.00     0.186 C 
BRANCH  91  92
ATOM     92  N   ASP d   8     103.423  15.704 -74.059  0.00  0.00    -0.346 N 
ATOM     93  C   LEU d   7     104.260  14.864 -74.566  0.00  0.00     0.241 C 
ATOM     94  O   LEU d   7     104.981  15.227 -75.508  0.00  0.00    -0.271 OA
ATOM     95  H   ASP d   8     102.825  15.433 -73.292  0.00  0.00     0.163 HD
BRANCH  93  96
ATOM     96  CA  LEU d   7     104.333  13.469 -73.993  0.00  0.00     0.177 C 
BRANCH  96  97
ATOM     97  N   LEU d   7     104.388  13.505 -72.535  0.00  0.00    -0.346 N 
ATOM     98  C   ILE d   6     105.334  14.168 -71.961  0.00  0.00     0.241 C 
ATOM     99  O   ILE d   6     106.169  14.756 -72.665  0.00  0.00    -0.271 OA
ATOM    100  H   LEU d   7     103.697  13.017 -71.983  0.00  0.00     0.163 HD
BRANCH  98 101
ATOM    101  CA  ILE d   6     105.391  14.206 -70.454  0.00  0.00     0.180 C 
BRANCH 101 102
ATOM    102  N   ILE d   6     104.078  14.500 -69.887  0.00  0.00    -0.346 N 
ATOM    103  C   SER d   5     103.473  15.583 -70.241  0.00  0.00     0.243 C 
ATOM    104  O   SER d   5     104.020  16.337 -71.046  0.00  0.00    -0.271 OA
ATOM    105  H   ILE d   6     103.650  13.866 -69.228  0.00  0.00     0.163 HD
BRANCH 103 106
ATOM    106  CA  SER d   5     102.114  15.889 -69.655  0.00  0.00     0.200 C 
BRANCH 106 107
ATOM    107  N   SER d   5     101.245  14.717 -69.714  0.00  0.00    -0.344 N 
ATOM    108  C   GLU d   4     101.018  14.164 -70.857  0.00  0.00     0.241 C 
ATOM    109  O   GLU d   4     101.544  14.644 -71.871  0.00  0.00    -0.271 OA
ATOM    110  H   SER d   5     100.828  14.345 -68.872  0.00  0.00     0.163 HD
BRANCH 108 111
ATOM    111  CA  GLU d   4     100.119  12.953 -70.918  0.00  0.00     0.177 C 
BRANCH 111 112
ATOM    112  N   GLU d   4     100.479  11.982 -69.888  0.00  0.00    -0.346 N 
ATOM    113  C   PRO d   3     101.684  11.522 -69.856  0.00  0.00     0.241 C 
ATOM    114  O   PRO d   3     102.507  11.906 -70.688  0.00  0.00    -0.271 OA
ATOM    115  H   GLU d   4      99.795  11.675 -69.212  0.00  0.00     0.163 HD
BRANCH 113 116
ATOM    116  CA  PRO d   3     102.082  10.499 -68.779  0.00  0.00     0.179 C 
ATOM    117  N   PRO d   3     101.630  10.908 -67.458  0.00  0.00    -0.337 N 
ATOM    118  C   ASN d   2     102.152  11.903 -66.824  0.00  0.00     0.243 C 
ATOM    119  CD  PRO d   3     100.553  10.115 -66.909  0.00  0.00     0.127 C 
ATOM    120  O   ASN d   2     103.067  12.534 -67.352  0.00  0.00    -0.271 OA
ATOM    121  CG  PRO d   3     100.095   9.296 -68.118  0.00  0.00     0.022 C 
ATOM    122  CB  PRO d   3     101.378   9.144 -68.949  0.00  0.00     0.037 C 
BRANCH 118 123
ATOM    123  CA  ASN d   2     101.621  12.259 -65.455  0.00  0.00     0.185 C 
BRANCH 123 124
ATOM    124  N   ASN d   2     100.161  12.297 -65.455  0.00  0.00    -0.345 N 
ATOM    125  C   CYS d   1      99.557  13.083 -66.280  0.00  0.00     0.243 C 
ATOM    126  O   CYS d   1     100.233  13.782 -67.049  0.00  0.00    -0.271 OA
ATOM    127  H   ASN d   2      99.633  11.717 -64.818  0.00  0.00     0.163 HD
BRANCH 125 128
ATOM    128  CA  CYS d   1      98.047  13.123 -66.280  0.00  0.00     0.200 C 
BRANCH 128 129
ATOM    129  N   CYS d   1      97.488  11.774 -66.280  0.00  0.00    -0.325 NA
ATOM    130  H   CYS d   1      98.116  10.895 -66.280  0.00  0.00     0.180 HD
ENDBRANCH 128 129
BRANCH 128 131
ATOM    131  CB  CYS d   1      97.478  13.889 -65.070  0.00  0.00     0.107 C 
BRANCH 131 132
ATOM    132  SG  CYS d   1      97.989  15.622 -65.112  0.00  0.00    -0.180 SA
ATOM    133  HG  CYS d   1      98.901  15.543 -64.146  0.00  0.00     0.101 HD
ENDBRANCH 131 132
ENDBRANCH 128 131
ENDBRANCH 125 128
ENDBRANCH 123 124
BRANCH 123 134
ATOM    134  CB  ASN d   2     102.113  11.236 -64.391  0.00  0.00     0.137 C 
BRANCH 134 135
ATOM    135  CG  ASN d   2     101.650  11.460 -62.947  0.00  0.00     0.217 C 
ATOM    136  ND2 ASN d   2     102.244  12.375 -62.229  0.00  0.00    -0.370 N 
ATOM    137 21HD ASN d   2     101.764  12.548 -61.343  0.00  0.00     0.159 HD
ATOM    138 22HD ASN d   2     102.946  12.946 -62.698  0.00  0.00     0.159 HD
ATOM    139  OD1 ASN d   2     100.729  10.826 -62.453  0.00  0.00    -0.274 OA
ENDBRANCH 134 135
ENDBRANCH 123 134
ENDBRANCH 118 123
ENDBRANCH 113 116
ENDBRANCH 111 112
BRANCH 111 140
ATOM    140  CB  GLU d   4      98.630  13.371 -70.747  0.00  0.00     0.045 C 
BRANCH 140 141
ATOM    141  CG  GLU d   4      98.082  14.375 -71.813  0.00  0.00     0.116 C 
BRANCH 141 142
ATOM    142  CD  GLU d   4      96.655  14.871 -71.669  0.00  0.00     0.172 C 
ATOM    143  OE1 GLU d   4      95.929  14.473 -70.738  0.00  0.00    -0.648 OA
ATOM    144  OE2 GLU d   4      96.265  15.700 -72.518  0.00  0.00    -0.648 OA
ENDBRANCH 141 142
ENDBRANCH 140 141
ENDBRANCH 111 140
ENDBRANCH 108 111
ENDBRANCH 106 107
BRANCH 106 145
ATOM    145  CB  SER d   5     102.226  16.421 -68.205  0.00  0.00     0.199 C 
BRANCH 145 146
ATOM    146  OG  SER d   5     102.958  15.542 -67.344  0.00  0.00    -0.398 OA
ATOM    147  HG  SER d   5     102.469  14.717 -67.293  0.00  0.00     0.209 HD
ENDBRANCH 145 146
ENDBRANCH 106 145
ENDBRANCH 103 106
ENDBRANCH 101 102
BRANCH 101 148
ATOM    148  CB  ILE d   6     105.992  12.870 -69.854  0.00  0.00     0.013 C 
ATOM    149  CG2 ILE d   6     107.433  12.569 -70.369  0.00  0.00     0.012 C 
BRANCH 148 150
ATOM    150  CG1 ILE d   6     106.011  12.808 -68.292  0.00  0.00     0.002 C 
ATOM    151  CD1 ILE d   6     106.282  11.419 -67.678  0.00  0.00     0.005 C 
ENDBRANCH 148 150
ENDBRANCH 101 148
ENDBRANCH  98 101
ENDBRANCH  96  97
BRANCH  96 152
ATOM    152  CB  LEU d   7     103.130  12.608 -74.474  0.00  0.00     0.038 C 
BRANCH 152 153
ATOM    153  CG  LEU d   7     103.058  11.128 -74.007  0.00  0.00    -0.020 C 
ATOM    154  CD1 LEU d   7     101.868  10.422 -74.673  0.00  0.00     0.009 C 
ATOM    155  CD2 LEU d   7     104.352  10.350 -74.299  0.00  0.00     0.009 C 
ENDBRANCH 152 153
ENDBRANCH  96 152
ENDBRANCH  93  96
ENDBRANCH  91  92
BRANCH  91 156
ATOM    156  CB  ASP d   8     102.274  17.892 -73.871  0.00  0.00     0.147 C 
BRANCH 156 157
ATOM    157  CG  ASP d   8     102.054  19.313 -74.411  0.00  0.00     0.175 C 
ATOM    158  OD1 ASP d   8     102.118  19.512 -75.642  0.00  0.00    -0.648 OA
ATOM    159  OD2 ASP d   8     101.862  20.239 -73.595  0.00  0.00    -0.648 OA
ENDBRANCH 156 157
ENDBRANCH  91 156
ENDBRANCH  88  91
ENDBRANCH  86  87
BRANCH  86 160
ATOM    160  CB  GLU d   9     107.314  18.135 -72.000  0.00  0.00     0.045 C 
BRANCH 160 161
ATOM    161  CG  GLU d   9     108.697  18.828 -71.771  0.00  0.00     0.116 C 
BRANCH 161 162
ATOM    162  CD  GLU d   9     109.399  18.614 -70.442  0.00  0.00     0.172 C 
ATOM    163  OE1 GLU d   9     108.878  17.923 -69.546  0.00  0.00    -0.648 OA
ATOM    164  OE2 GLU d   9     110.518  19.153 -70.311  0.00  0.00    -0.648 OA
ENDBRANCH 161 162
ENDBRANCH 160 161
ENDBRANCH  86 160
ENDBRANCH   1  86
TORSDOF 67
