REMARK WARNING: 32 MAX_TORS EXCEEDED!!!
REMARK  68 active torsions:
REMARK  status: ('A' for Active; 'I' for Inactive)
REMARK    1  A    between atoms: N_1  and  CA_2 
REMARK    2  A    between atoms: CA_2  and  C_3 
REMARK    3  A    between atoms: CA_2  and  CB_5 
REMARK       I    between atoms: C_3  and  N_11 
REMARK    4  A    between atoms: CB_5  and  CG_6 
REMARK    5  A    between atoms: CG_6  and  CD_7 
REMARK    6  A    between atoms: N_11  and  CA_12 
REMARK    7  A    between atoms: CA_12  and  C_13 
REMARK    8  A    between atoms: CA_12  and  CB_15 
REMARK       I    between atoms: C_13  and  N_22 
REMARK    9  A    between atoms: CB_15  and  CG_16 
REMARK       I    between atoms: CG_16  and  ND2_17 
REMARK   10  A    between atoms: CA_23  and  C_24 
REMARK       I    between atoms: C_24  and  N_29 
REMARK   11  A    between atoms: N_29  and  CA_30 
REMARK   12  A    between atoms: CA_30  and  C_31 
REMARK   13  A    between atoms: CA_30  and  CB_33 
REMARK       I    between atoms: C_31  and  N_39 
REMARK   14  A    between atoms: CB_33  and  CG_34 
REMARK   15  A    between atoms: CG_34  and  CD_35 
REMARK   16  A    between atoms: N_39  and  CA_40 
REMARK   17  A    between atoms: CA_40  and  C_41 
REMARK   18  A    between atoms: CA_40  and  CB_43 
REMARK       I    between atoms: C_41  and  N_47 
REMARK   19  A    between atoms: CB_43  and  OG_44 
REMARK   20  A    between atoms: N_47  and  CA_48 
REMARK   21  A    between atoms: CA_48  and  C_49 
REMARK   22  A    between atoms: CA_48  and  CB_51 
REMARK       I    between atoms: C_49  and  N_56 
REMARK   23  A    between atoms: CB_51  and  CG_52 
REMARK   24  A    between atoms: N_56  and  CA_57 
REMARK   25  A    between atoms: CA_57  and  C_58 
REMARK   26  A    between atoms: CA_57  and  CB_60 
REMARK       I    between atoms: C_58  and  N_65 
REMARK   27  A    between atoms: CB_60  and  CG_61 
REMARK   28  A    between atoms: N_65  and  CA_66 
REMARK   29  A    between atoms: CA_66  and  C_67 
REMARK   30  A    between atoms: CA_66  and  CB_69 
REMARK       I    between atoms: C_67  and  N_74 
REMARK   31  A    between atoms: CB_69  and  CG_70 
REMARK   32  A    between atoms: N_74  and  CA_75 
REMARK   33  A    between atoms: CA_75  and  C_76 
REMARK   34  A    between atoms: CA_75  and  CB_78 
REMARK       I    between atoms: C_76  and  N_84 
REMARK   35  A    between atoms: CB_78  and  CG_79 
REMARK   36  A    between atoms: CG_79  and  CD_80 
REMARK   37  A    between atoms: N_84  and  CA_85 
REMARK   38  A    between atoms: CA_85  and  C_86 
REMARK   39  A    between atoms: CA_85  and  CB_88 
REMARK       I    between atoms: C_86  and  N_96 
REMARK   40  A    between atoms: CB_88  and  CG_89 
REMARK   41  A    between atoms: N_96  and  CA_97 
REMARK   42  A    between atoms: CA_97  and  C_98 
REMARK   43  A    between atoms: CA_97  and  CB_100 
REMARK       I    between atoms: C_98  and  N_104 
REMARK   44  A    between atoms: N_104  and  CA_105 
REMARK   45  A    between atoms: CA_105  and  C_106 
REMARK   46  A    between atoms: CA_105  and  CB_108 
REMARK       I    between atoms: C_106  and  N_116 
REMARK   47  A    between atoms: CB_108  and  CG_109 
REMARK   48  A    between atoms: CG_109  and  CD_110 
REMARK       I    between atoms: CD_110  and  NE2_111 
REMARK   49  A    between atoms: N_116  and  CA_117 
REMARK   50  A    between atoms: CA_117  and  C_118 
REMARK   51  A    between atoms: CA_117  and  CB_120 
REMARK       I    between atoms: C_118  and  N_133 
REMARK   52  A    between atoms: CB_120  and  CG_121 
REMARK   53  A    between atoms: CG_121  and  CD_122 
REMARK   54  A    between atoms: CD_122  and  NE_123 
REMARK       I    between atoms: NE_123  and  CZ_124 
REMARK       I    between atoms: CZ_124  and  NH1_125 
REMARK       I    between atoms: CZ_124  and  NH2_126 
REMARK   55  A    between atoms: N_133  and  CA_134 
REMARK   56  A    between atoms: CA_134  and  C_135 
REMARK   57  A    between atoms: CA_134  and  CB_137 
REMARK       I    between atoms: C_135  and  N_141 
REMARK   58  A    between atoms: N_141  and  CA_142 
REMARK   59  A    between atoms: CA_142  and  C_143 
REMARK   60  A    between atoms: CA_142  and  CB_145 
REMARK       I    between atoms: C_143  and  N_150 
REMARK   61  A    between atoms: CB_145  and  CG_146 
REMARK   62  A    between atoms: CG_146  and  SD_147 
REMARK   63  A    between atoms: N_150  and  CA_151 
REMARK   64  A    between atoms: CA_151  and  C_152 
REMARK   65  A    between atoms: CA_151  and  CB_154 
REMARK   66  A    between atoms: CB_154  and  CG_155 
REMARK   67  A    between atoms: CG_155  and  CD_156 
REMARK   68  A    between atoms: CD_156  and  NE_157 
REMARK       I    between atoms: NE_157  and  CZ_158 
REMARK       I    between atoms: CZ_158  and  NH1_159 
ROOT
ATOM      1  C   GLU d   9    1002.460 280.365-976.861  0.00  0.00     0.241 C 
ATOM      2  O   GLU d   9    1003.125 281.119-977.586  0.00  0.00    -0.271 OA
ATOM      3  N   HIS d  10    1002.557 279.090-977.030  0.00  0.00    -0.346 N 
ATOM      4  H   HIS d  10    1002.025 278.455-976.452  0.00  0.00     0.163 HD
ENDROOT
BRANCH   1   5
ATOM      5  CA  GLU d   9    1001.541 280.893-975.786  0.00  0.00     0.177 C 
BRANCH   5   6
ATOM      6  N   GLU d   9    1000.238 280.236-975.842  0.00  0.00    -0.346 N 
ATOM      7  C   ASP d   8     999.559 280.285-976.938  0.00  0.00     0.241 C 
ATOM      8  O   ASP d   8    1000.033 280.890-977.912  0.00  0.00    -0.271 OA
ATOM      9  H   GLU d   9     999.875 279.750-975.035  0.00  0.00     0.163 HD
BRANCH   7  10
ATOM     10  CA  ASP d   8     998.213 279.606-976.996  0.00  0.00     0.186 C 
BRANCH  10  11
ATOM     11  N   ASP d   8     998.283 278.256-976.442  0.00  0.00    -0.346 N 
ATOM     12  C   LEU d   7     999.120 277.415-976.947  0.00  0.00     0.241 C 
ATOM     13  O   LEU d   7     999.842 277.778-977.889  0.00  0.00    -0.271 OA
ATOM     14  H   ASP d   8     997.684 277.985-975.675  0.00  0.00     0.163 HD
BRANCH  12  15
ATOM     15  CA  LEU d   7     999.192 276.020-976.375  0.00  0.00     0.177 C 
BRANCH  15  16
ATOM     16  N   LEU d   7     999.246 276.057-974.916  0.00  0.00    -0.346 N 
ATOM     17  C   ASP d   6    1000.191 276.720-974.342  0.00  0.00     0.241 C 
ATOM     18  O   ASP d   6    1001.027 277.308-975.046  0.00  0.00    -0.271 OA
ATOM     19  H   LEU d   7     998.553 275.570-974.365  0.00  0.00     0.163 HD
BRANCH  17  20
ATOM     20  CA  ASP d   6    1000.248 276.759-972.834  0.00  0.00     0.186 C 
BRANCH  20  21
ATOM     21  N   ASP d   6     998.934 277.053-972.268  0.00  0.00    -0.345 N 
ATOM     22  C   SER d   5     998.329 278.136-972.622  0.00  0.00     0.243 C 
ATOM     23  O   SER d   5     998.876 278.890-973.427  0.00  0.00    -0.271 OA
ATOM     24  H   ASP d   6     998.506 276.419-971.609  0.00  0.00     0.163 HD
BRANCH  22  25
ATOM     25  CA  SER d   5     996.970 278.442-972.037  0.00  0.00     0.200 C 
BRANCH  25  26
ATOM     26  N   SER d   5     996.101 277.270-972.095  0.00  0.00    -0.344 N 
ATOM     27  C   GLU d   4     995.874 276.718-973.238  0.00  0.00     0.241 C 
ATOM     28  O   GLU d   4     996.400 277.197-974.253  0.00  0.00    -0.271 OA
ATOM     29  H   SER d   5     995.684 276.899-971.254  0.00  0.00     0.163 HD
BRANCH  27  30
ATOM     30  CA  GLU d   4     994.975 275.506-973.300  0.00  0.00     0.177 C 
BRANCH  30  31
ATOM     31  N   GLU d   4     995.335 274.535-972.270  0.00  0.00    -0.346 N 
ATOM     32  C   PRO d   3     996.539 274.076-972.238  0.00  0.00     0.241 C 
ATOM     33  O   PRO d   3     997.363 274.459-973.069  0.00  0.00    -0.271 OA
ATOM     34  H   GLU d   4     994.651 274.229-971.593  0.00  0.00     0.163 HD
BRANCH  32  35
ATOM     35  CA  PRO d   3     996.938 273.052-971.161  0.00  0.00     0.179 C 
ATOM     36  N   PRO d   3     996.486 273.461-969.839  0.00  0.00    -0.337 N 
ATOM     37  C   ASN d   2     997.007 274.457-969.205  0.00  0.00     0.243 C 
ATOM     38  CD  PRO d   3     995.408 272.668-969.290  0.00  0.00     0.127 C 
ATOM     39  O   ASN d   2     997.922 275.087-969.734  0.00  0.00    -0.271 OA
ATOM     40  CG  PRO d   3     994.950 271.850-970.500  0.00  0.00     0.022 C 
ATOM     41  CB  PRO d   3     996.233 271.697-971.330  0.00  0.00     0.037 C 
BRANCH  37  42
ATOM     42  CA  ASN d   2     996.476 274.812-967.836  0.00  0.00     0.185 C 
BRANCH  42  43
ATOM     43  N   ASN d   2     995.017 274.851-967.836  0.00  0.00    -0.346 N 
ATOM     44  C   GLU d   1     994.412 275.637-968.662  0.00  0.00     0.242 C 
ATOM     45  O   GLU d   1     995.088 276.336-969.430  0.00  0.00    -0.271 OA
ATOM     46  H   ASN d   2     994.488 274.271-967.200  0.00  0.00     0.163 HD
BRANCH  44  47
ATOM     47  CA  GLU d   1     992.903 275.677-968.662  0.00  0.00     0.191 C 
BRANCH  47  48
ATOM     48  N   GLU d   1     992.344 274.328-968.662  0.00  0.00    -0.326 NA
ATOM     49  H   GLU d   1     992.971 273.448-968.662  0.00  0.00     0.180 HD
ENDBRANCH  47  48
BRANCH  47  50
ATOM     50  CB  GLU d   1     992.380 276.461-967.425  0.00  0.00     0.047 C 
BRANCH  50  51
ATOM     51  CG  GLU d   1     992.855 277.947-967.314  0.00  0.00     0.116 C 
BRANCH  51  52
ATOM     52  CD  GLU d   1     992.431 278.750-966.099  0.00  0.00     0.172 C 
ATOM     53  OE1 GLU d   1     991.703 278.249-965.221  0.00  0.00    -0.648 OA
ATOM     54  OE2 GLU d   1     992.861 279.921-966.027  0.00  0.00    -0.648 OA
ENDBRANCH  51  52
ENDBRANCH  50  51
ENDBRANCH  47  50
ENDBRANCH  44  47
ENDBRANCH  42  43
BRANCH  42  55
ATOM     55  CB  ASN d   2     996.968 273.789-966.772  0.00  0.00     0.137 C 
BRANCH  55  56
ATOM     56  CG  ASN d   2     996.505 274.013-965.329  0.00  0.00     0.217 C 
ATOM     57  ND2 ASN d   2     997.099 274.928-964.611  0.00  0.00    -0.370 N 
ATOM     58 21HD ASN d   2     996.618 275.101-963.724  0.00  0.00     0.159 HD
ATOM     59 22HD ASN d   2     997.801 275.499-965.080  0.00  0.00     0.159 HD
ATOM     60  OD1 ASN d   2     995.584 273.379-964.835  0.00  0.00    -0.274 OA
ENDBRANCH  55  56
ENDBRANCH  42  55
ENDBRANCH  37  42
ENDBRANCH  32  35
ENDBRANCH  30  31
BRANCH  30  61
ATOM     61  CB  GLU d   4     993.486 275.925-973.129  0.00  0.00     0.045 C 
BRANCH  61  62
ATOM     62  CG  GLU d   4     992.938 276.928-974.195  0.00  0.00     0.116 C 
BRANCH  62  63
ATOM     63  CD  GLU d   4     991.511 277.425-974.051  0.00  0.00     0.172 C 
ATOM     64  OE1 GLU d   4     990.785 277.027-973.120  0.00  0.00    -0.648 OA
ATOM     65  OE2 GLU d   4     991.122 278.254-974.900  0.00  0.00    -0.648 OA
ENDBRANCH  62  63
ENDBRANCH  61  62
ENDBRANCH  30  61
ENDBRANCH  27  30
ENDBRANCH  25  26
BRANCH  25  66
ATOM     66  CB  SER d   5     997.082 278.974-970.586  0.00  0.00     0.199 C 
BRANCH  66  67
ATOM     67  OG  SER d   5     997.813 278.095-969.725  0.00  0.00    -0.398 OA
ATOM     68  HG  SER d   5     997.325 277.270-969.674  0.00  0.00     0.209 HD
ENDBRANCH  66  67
ENDBRANCH  25  66
ENDBRANCH  22  25
ENDBRANCH  20  21
BRANCH  20  69
ATOM     69  CB  ASP d   6    1000.800 275.422-972.264  0.00  0.00     0.147 C 
BRANCH  69  70
ATOM     70  CG  ASP d   6    1002.212 275.038-972.732  0.00  0.00     0.175 C 
ATOM     71  OD1 ASP d   6    1003.066 275.935-972.886  0.00  0.00    -0.648 OA
ATOM     72  OD2 ASP d   6    1002.451 273.839-972.987  0.00  0.00    -0.648 OA
ENDBRANCH  69  70
ENDBRANCH  20  69
ENDBRANCH  17  20
ENDBRANCH  15  16
BRANCH  15  73
ATOM     73  CB  LEU d   7     997.989 275.160-976.856  0.00  0.00     0.038 C 
BRANCH  73  74
ATOM     74  CG  LEU d   7     997.916 273.681-976.389  0.00  0.00    -0.020 C 
ATOM     75  CD1 LEU d   7     996.726 272.975-977.055  0.00  0.00     0.009 C 
ATOM     76  CD2 LEU d   7     999.210 272.902-976.679  0.00  0.00     0.009 C 
ENDBRANCH  73  74
ENDBRANCH  15  73
ENDBRANCH  12  15
ENDBRANCH  10  11
BRANCH  10  77
ATOM     77  CB  ASP d   8     997.134 280.445-976.255  0.00  0.00     0.147 C 
BRANCH  77  78
ATOM     78  CG  ASP d   8     996.916 281.866-976.796  0.00  0.00     0.175 C 
ATOM     79  OD1 ASP d   8     996.981 282.064-978.026  0.00  0.00    -0.648 OA
ATOM     80  OD2 ASP d   8     996.723 282.792-975.981  0.00  0.00    -0.648 OA
ENDBRANCH  77  78
ENDBRANCH  10  77
ENDBRANCH   7  10
ENDBRANCH   5   6
BRANCH   5  81
ATOM     81  CB  GLU d   9    1002.174 280.686-974.380  0.00  0.00     0.045 C 
BRANCH  81  82
ATOM     82  CG  GLU d   9    1003.556 281.378-974.150  0.00  0.00     0.116 C 
BRANCH  82  83
ATOM     83  CD  GLU d   9    1004.257 281.165-972.821  0.00  0.00     0.172 C 
ATOM     84  OE1 GLU d   9    1003.735 280.474-971.925  0.00  0.00    -0.648 OA
ATOM     85  OE2 GLU d   9    1005.376 281.703-972.689  0.00  0.00    -0.648 OA
ENDBRANCH  82  83
ENDBRANCH  81  82
ENDBRANCH   5  81
ENDBRANCH   1   5
BRANCH   3  86
ATOM     86  CA  HIS d  10    1003.445 278.578-978.070  0.00  0.00     0.182 C 
BRANCH  86  87
ATOM     87  C   HIS d  10    1003.079 279.143-979.421  0.00  0.00     0.241 C 
ATOM     88  O   HIS d  10    1003.932 279.607-980.192  0.00  0.00    -0.271 OA
ATOM     89  N   VAL d  11    1001.842 279.142-979.785  0.00  0.00    -0.346 N 
ATOM     90  H   VAL d  11    1001.128 278.769-979.175  0.00  0.00     0.163 HD
BRANCH  89  91
ATOM     91  CA  VAL d  11    1001.488 279.688-981.092  0.00  0.00     0.180 C 
BRANCH  91  92
ATOM     92  C   VAL d  11    1001.952 281.118-981.224  0.00  0.00     0.241 C 
ATOM     93  O   VAL d  11    1002.554 281.523-982.227  0.00  0.00    -0.271 OA
ATOM     94  N   GLN d  12    1001.715 281.944-980.262  0.00  0.00    -0.346 N 
ATOM     95  H   GLN d  12    1001.225 281.638-979.433  0.00  0.00     0.163 HD
BRANCH  94  96
ATOM     96  CA  GLN d  12    1002.163 283.327-980.389  0.00  0.00     0.177 C 
BRANCH  96  97
ATOM     97  C   GLN d  12    1003.654 283.394-980.626  0.00  0.00     0.241 C 
ATOM     98  O   GLN d  12    1004.142 284.102-981.504  0.00  0.00    -0.271 OA
ATOM     99  N   ARG d  13    1004.437 282.687-979.885  0.00  0.00    -0.346 N 
ATOM    100  H   ARG d  13    1004.060 282.098-979.156  0.00  0.00     0.163 HD
BRANCH  99 101
ATOM    101  CA  ARG d  13    1005.878 282.753-980.114  0.00  0.00     0.176 C 
BRANCH 101 102
ATOM    102  C   ARG d  13    1006.215 282.381-981.539  0.00  0.00     0.241 C 
ATOM    103  O   ARG d  13    1006.985 283.053-982.222  0.00  0.00    -0.271 OA
ATOM    104  N   VAL d  14    1005.679 281.327-982.054  0.00  0.00    -0.346 N 
ATOM    105  H   VAL d  14    1005.044 280.758-981.512  0.00  0.00     0.163 HD
BRANCH 104 106
ATOM    106  CA  VAL d  14    1006.005 280.968-983.431  0.00  0.00     0.180 C 
BRANCH 106 107
ATOM    107  C   VAL d  14    1005.676 282.098-984.377  0.00  0.00     0.241 C 
ATOM    108  O   VAL d  14    1006.471 282.479-985.245  0.00  0.00    -0.271 OA
ATOM    109  N   MET d  15    1004.532 282.684-984.276  0.00  0.00    -0.346 N 
ATOM    110  H   MET d  15    1003.866 282.391-983.575  0.00  0.00     0.163 HD
BRANCH 109 111
ATOM    111  CA  MET d  15    1004.212 283.777-985.190  0.00  0.00     0.177 C 
BRANCH 111 112
ATOM    112  C   MET d  15    1005.243 284.876-985.101  0.00  0.00     0.241 C 
ATOM    113  O   MET d  15    1005.746 285.387-986.113  0.00  0.00    -0.271 OA
ATOM    114  N   ARG d  16    1005.610 285.297-983.938  0.00  0.00    -0.347 N 
ATOM    115  H   ARG d  16    1005.215 284.897-983.099  0.00  0.00     0.163 HD
BRANCH 114 116
ATOM    116  CA  ARG d  16    1006.607 286.361-983.854  0.00  0.00     0.162 C 
BRANCH 116 117
ATOM    117  C   ARG d  16    1007.878 285.968-984.569  0.00  0.00     0.219 C 
ATOM    118  O   ARG d  16    1007.992 284.892-985.150  0.00  0.00    -0.287 OA
ENDBRANCH 116 117
BRANCH 116 119
ATOM    119  CB  ARG d  16    1006.875 286.679-982.355  0.00  0.00     0.035 C 
BRANCH 119 120
ATOM    120  CG  ARG d  16    1007.700 287.968-982.082  0.00  0.00     0.023 C 
BRANCH 120 121
ATOM    121  CD  ARG d  16    1007.948 288.187-980.580  0.00  0.00     0.138 C 
BRANCH 121 122
ATOM    122  NE  ARG d  16    1008.724 289.446-980.378  0.00  0.00    -0.227 N 
ATOM    123  CZ  ARG d  16    1009.115 289.928-979.203  0.00  0.00     0.665 C 
ATOM    124  NH1 ARG d  16    1008.866 289.344-978.064  0.00  0.00    -0.235 N 
ATOM    125  NH2 ARG d  16    1009.779 291.041-979.183  0.00  0.00    -0.235 N 
ATOM    126 11HH ARG d  16    1008.340 288.471-978.149  0.00  0.00     0.174 HD
ATOM    127 12HH ARG d  16    1009.200 289.779-977.203  0.00  0.00     0.174 HD
ATOM    128 21HH ARG d  16    1009.965 291.484-980.085  0.00  0.00     0.174 HD
ATOM    129 22HH ARG d  16    1010.069 291.396-978.271  0.00  0.00     0.174 HD
ATOM    130  HE  ARG d  16    1009.004 290.027-981.175  0.00  0.00     0.177 HD
ENDBRANCH 121 122
ENDBRANCH 120 121
ENDBRANCH 119 120
ENDBRANCH 116 119
ENDBRANCH 114 116
ENDBRANCH 111 112
BRANCH 111 131
ATOM    131  CB  MET d  15    1002.791 284.322-984.882  0.00  0.00     0.045 C 
BRANCH 131 132
ATOM    132  CG  MET d  15    1001.629 283.324-985.075  0.00  0.00     0.076 C 
BRANCH 132 133
ATOM    133  SD  MET d  15    1000.055 284.191-984.962  0.00  0.00    -0.173 SA
ATOM    134  CE  MET d  15     998.973 282.761-984.826  0.00  0.00     0.089 C 
ENDBRANCH 132 133
ENDBRANCH 131 132
ENDBRANCH 111 131
ENDBRANCH 109 111
ENDBRANCH 106 107
BRANCH 106 135
ATOM    135  CB  VAL d  14    1005.233 279.651-983.838  0.00  0.00     0.009 C 
ATOM    136  CG1 VAL d  14    1005.324 279.232-985.332  0.00  0.00     0.012 C 
ATOM    137  CG2 VAL d  14    1005.664 278.398-983.038  0.00  0.00     0.012 C 
ENDBRANCH 106 135
ENDBRANCH 104 106
ENDBRANCH 101 102
BRANCH 101 138
ATOM    138  CB  ARG d  13    1006.590 281.814-979.099  0.00  0.00     0.036 C 
BRANCH 138 139
ATOM    139  CG  ARG d  13    1008.135 281.967-979.017  0.00  0.00     0.023 C 
BRANCH 139 140
ATOM    140  CD  ARG d  13    1008.761 280.979-978.019  0.00  0.00     0.138 C 
BRANCH 140 141
ATOM    141  NE  ARG d  13    1010.238 281.186-977.967  0.00  0.00    -0.227 N 
ATOM    142  CZ  ARG d  13    1011.085 280.494-977.211  0.00  0.00     0.665 C 
ATOM    143  NH1 ARG d  13    1010.720 279.530-976.414  0.00  0.00    -0.235 N 
ATOM    144  NH2 ARG d  13    1012.345 280.793-977.267  0.00  0.00    -0.235 N 
ATOM    145 11HH ARG d  13    1009.714 279.344-976.418  0.00  0.00     0.174 HD
ATOM    146 12HH ARG d  13    1011.432 279.047-975.865  0.00  0.00     0.174 HD
ATOM    147 21HH ARG d  13    1012.613 281.551-977.898  0.00  0.00     0.174 HD
ATOM    148 22HH ARG d  13    1012.980 280.252-976.677  0.00  0.00     0.174 HD
ATOM    149  HE  ARG d  13    1010.690 281.908-978.537  0.00  0.00     0.177 HD
ENDBRANCH 140 141
ENDBRANCH 139 140
ENDBRANCH 138 139
ENDBRANCH 101 138
ENDBRANCH  99 101
ENDBRANCH  96  97
BRANCH  96 150
ATOM    150  CB  GLN d  12    1001.772 284.095-979.107  0.00  0.00     0.044 C 
BRANCH 150 151
ATOM    151  CG  GLN d  12    1002.132 285.617-979.076  0.00  0.00     0.105 C 
BRANCH 151 152
ATOM    152  CD  GLN d  12    1001.829 286.430-977.812  0.00  0.00     0.215 C 
ATOM    153  NE2 GLN d  12    1001.261 285.854-976.783  0.00  0.00    -0.370 N 
ATOM    154 21HE GLN d  12    1001.153 286.449-975.960  0.00  0.00     0.159 HD
ATOM    155 22HE GLN d  12    1001.097 284.851-976.886  0.00  0.00     0.159 HD
ATOM    156  OE1 GLN d  12    1002.131 287.611-977.734  0.00  0.00    -0.274 OA
ENDBRANCH 151 152
ENDBRANCH 150 151
ENDBRANCH  96 150
ENDBRANCH  94  96
ENDBRANCH  91  92
BRANCH  91 157
ATOM    157  CB  VAL d  11     999.927 279.581-981.313  0.00  0.00     0.009 C 
ATOM    158  CG1 VAL d  11     999.359 280.285-982.576  0.00  0.00     0.012 C 
ATOM    159  CG2 VAL d  11     999.402 278.127-981.386  0.00  0.00     0.012 C 
ENDBRANCH  91 157
ENDBRANCH  89  91
ENDBRANCH  86  87
BRANCH  86 160
ATOM    160  CB  HIS d  10    1003.281 277.049-978.065  0.00  0.00     0.095 C 
BRANCH 160 161
ATOM    161  CG  HIS d  10    1004.566 276.339-977.755  0.00  0.00     0.053 A 
ATOM    162  CD2 HIS d  10    1004.946 276.004-976.462  0.00  0.00     0.116 A 
ATOM    163  NE2 HIS d  10    1006.161 275.372-976.528  0.00  0.00    -0.359 N 
ATOM    164  CE1 HIS d  10    1006.425 275.375-977.863  0.00  0.00     0.207 A 
ATOM    165  2HE HIS d  10    1006.727 274.995-975.754  0.00  0.00     0.166 HD
ATOM    166  ND1 HIS d  10    1005.519 275.933-978.687  0.00  0.00    -0.247 NA
ENDBRANCH 160 161
ENDBRANCH  86 160
ENDBRANCH   3  86
TORSDOF 68
