REMARK WARNING: 32 MAX_TORS EXCEEDED!!!
REMARK  67 active torsions:
REMARK  status: ('A' for Active; 'I' for Inactive)
REMARK    1  A    between atoms: N_1  and  CA_2 
REMARK    2  A    between atoms: CA_2  and  C_3 
REMARK    3  A    between atoms: CA_2  and  CB_5 
REMARK       I    between atoms: C_3  and  N_11 
REMARK    4  A    between atoms: CB_5  and  CG_6 
REMARK    5  A    between atoms: CG_6  and  CD_7 
REMARK    6  A    between atoms: N_11  and  CA_12 
REMARK    7  A    between atoms: CA_12  and  C_13 
REMARK    8  A    between atoms: CA_12  and  CB_15 
REMARK       I    between atoms: C_13  and  N_22 
REMARK    9  A    between atoms: CB_15  and  CG_16 
REMARK       I    between atoms: CG_16  and  ND2_17 
REMARK   10  A    between atoms: CA_23  and  C_24 
REMARK       I    between atoms: C_24  and  N_29 
REMARK   11  A    between atoms: N_29  and  CA_30 
REMARK   12  A    between atoms: CA_30  and  C_31 
REMARK   13  A    between atoms: CA_30  and  CB_33 
REMARK       I    between atoms: C_31  and  N_39 
REMARK   14  A    between atoms: CB_33  and  CG_34 
REMARK   15  A    between atoms: CG_34  and  CD_35 
REMARK   16  A    between atoms: N_39  and  CA_40 
REMARK   17  A    between atoms: CA_40  and  C_41 
REMARK   18  A    between atoms: CA_40  and  CB_43 
REMARK       I    between atoms: C_41  and  N_47 
REMARK   19  A    between atoms: CB_43  and  OG_44 
REMARK   20  A    between atoms: N_47  and  CA_48 
REMARK   21  A    between atoms: CA_48  and  C_49 
REMARK   22  A    between atoms: CA_48  and  CB_51 
REMARK       I    between atoms: C_49  and  N_56 
REMARK   23  A    between atoms: CB_51  and  CG1_52 
REMARK   24  A    between atoms: N_56  and  CA_57 
REMARK   25  A    between atoms: CA_57  and  C_58 
REMARK   26  A    between atoms: CA_57  and  CB_60 
REMARK       I    between atoms: C_58  and  N_65 
REMARK   27  A    between atoms: CB_60  and  CG_61 
REMARK   28  A    between atoms: N_65  and  CA_66 
REMARK   29  A    between atoms: CA_66  and  C_67 
REMARK   30  A    between atoms: CA_66  and  CB_69 
REMARK       I    between atoms: C_67  and  N_74 
REMARK   31  A    between atoms: CB_69  and  CG_70 
REMARK   32  A    between atoms: N_74  and  CA_75 
REMARK   33  A    between atoms: CA_75  and  C_76 
REMARK   34  A    between atoms: CA_75  and  CB_78 
REMARK       I    between atoms: C_76  and  N_86 
REMARK   35  A    between atoms: CB_78  and  CG_79 
REMARK   36  A    between atoms: N_86  and  CA_87 
REMARK   37  A    between atoms: CA_87  and  C_88 
REMARK   38  A    between atoms: CA_87  and  CB_90 
REMARK       I    between atoms: C_88  and  N_98 
REMARK   39  A    between atoms: CB_90  and  CG_91 
REMARK   40  A    between atoms: N_98  and  CA_99 
REMARK   41  A    between atoms: CA_99  and  C_100 
REMARK   42  A    between atoms: CA_99  and  CB_102 
REMARK       I    between atoms: C_100  and  N_106 
REMARK   43  A    between atoms: N_106  and  CA_107 
REMARK   44  A    between atoms: CA_107  and  C_108 
REMARK   45  A    between atoms: CA_107  and  CB_110 
REMARK       I    between atoms: C_108  and  N_118 
REMARK   46  A    between atoms: CB_110  and  CG_111 
REMARK   47  A    between atoms: CG_111  and  CD_112 
REMARK       I    between atoms: CD_112  and  NE2_113 
REMARK   48  A    between atoms: N_118  and  CA_119 
REMARK   49  A    between atoms: CA_119  and  C_120 
REMARK   50  A    between atoms: CA_119  and  CB_122 
REMARK       I    between atoms: C_120  and  N_135 
REMARK   51  A    between atoms: CB_122  and  CG_123 
REMARK   52  A    between atoms: CG_123  and  CD_124 
REMARK   53  A    between atoms: CD_124  and  NE_125 
REMARK       I    between atoms: NE_125  and  CZ_126 
REMARK       I    between atoms: CZ_126  and  NH1_127 
REMARK       I    between atoms: CZ_126  and  NH2_128 
REMARK   54  A    between atoms: N_135  and  CA_136 
REMARK   55  A    between atoms: CA_136  and  C_137 
REMARK   56  A    between atoms: CA_136  and  CB_139 
REMARK       I    between atoms: C_137  and  N_143 
REMARK   57  A    between atoms: N_143  and  CA_144 
REMARK   58  A    between atoms: CA_144  and  C_145 
REMARK   59  A    between atoms: CA_144  and  CB_147 
REMARK       I    between atoms: C_145  and  N_152 
REMARK   60  A    between atoms: CB_147  and  CG_148 
REMARK   61  A    between atoms: CG_148  and  SD_149 
REMARK   62  A    between atoms: N_152  and  CA_153 
REMARK   63  A    between atoms: CA_153  and  C_154 
REMARK   64  A    between atoms: CA_153  and  CB_156 
REMARK   65  A    between atoms: CB_156  and  CG_157 
REMARK   66  A    between atoms: CG_157  and  CD_158 
REMARK   67  A    between atoms: CD_158  and  NE_159 
REMARK       I    between atoms: NE_159  and  CZ_160 
REMARK       I    between atoms: CZ_160  and  NH1_161 
ROOT
ATOM      1  C   PHE d   9    1420.757 419.043-1430.456  0.00  0.00     0.241 C 
ATOM      2  O   PHE d   9    1421.433 419.814-1431.193  0.00  0.00    -0.271 OA
ATOM      3  N   HIS d  10    1420.855 417.768-1430.626  0.00  0.00    -0.346 N 
ATOM      4  H   HIS d  10    1420.324 417.131-1430.049  0.00  0.00     0.163 HD
ENDROOT
BRANCH   1   5
ATOM      5  CA  PHE d   9    1419.837 419.570-1429.380  0.00  0.00     0.180 C 
BRANCH   5   6
ATOM      6  N   PHE d   9    1418.535 418.912-1429.436  0.00  0.00    -0.346 N 
ATOM      7  C   ASP d   8    1417.855 418.962-1430.531  0.00  0.00     0.241 C 
ATOM      8  O   ASP d   8    1418.328 419.568-1431.505  0.00  0.00    -0.271 OA
ATOM      9  H   PHE d   9    1418.172 418.426-1428.629  0.00  0.00     0.163 HD
BRANCH   7  10
ATOM     10  CA  ASP d   8    1416.509 418.283-1430.588  0.00  0.00     0.186 C 
BRANCH  10  11
ATOM     11  N   ASP d   8    1416.579 416.933-1430.035  0.00  0.00    -0.346 N 
ATOM     12  C   LEU d   7    1417.417 416.092-1430.542  0.00  0.00     0.241 C 
ATOM     13  O   LEU d   7    1418.137 416.455-1431.484  0.00  0.00    -0.271 OA
ATOM     14  H   ASP d   8    1415.981 416.661-1429.268  0.00  0.00     0.163 HD
BRANCH  12  15
ATOM     15  CA  LEU d   7    1417.489 414.697-1429.970  0.00  0.00     0.177 C 
BRANCH  15  16
ATOM     16  N   LEU d   7    1417.544 414.733-1428.511  0.00  0.00    -0.346 N 
ATOM     17  C   ILE d   6    1418.490 415.396-1427.937  0.00  0.00     0.241 C 
ATOM     18  O   ILE d   6    1419.325 415.984-1428.641  0.00  0.00    -0.271 OA
ATOM     19  H   LEU d   7    1416.852 414.245-1427.960  0.00  0.00     0.163 HD
BRANCH  17  20
ATOM     20  CA  ILE d   6    1418.547 415.434-1426.430  0.00  0.00     0.180 C 
BRANCH  20  21
ATOM     21  N   ILE d   6    1417.234 415.728-1425.863  0.00  0.00    -0.346 N 
ATOM     22  C   SER d   5    1416.629 416.811-1426.217  0.00  0.00     0.243 C 
ATOM     23  O   SER d   5    1417.176 417.565-1427.022  0.00  0.00    -0.271 OA
ATOM     24  H   ILE d   6    1416.806 415.094-1425.204  0.00  0.00     0.163 HD
BRANCH  22  25
ATOM     25  CA  SER d   5    1415.271 417.117-1425.631  0.00  0.00     0.200 C 
BRANCH  25  26
ATOM     26  N   SER d   5    1414.401 415.945-1425.690  0.00  0.00    -0.344 N 
ATOM     27  C   GLU d   4    1414.174 415.393-1426.833  0.00  0.00     0.241 C 
ATOM     28  O   GLU d   4    1414.700 415.872-1427.847  0.00  0.00    -0.271 OA
ATOM     29  H   SER d   5    1413.984 415.574-1424.848  0.00  0.00     0.163 HD
BRANCH  27  30
ATOM     30  CA  GLU d   4    1413.275 414.181-1426.894  0.00  0.00     0.177 C 
BRANCH  30  31
ATOM     31  N   GLU d   4    1413.635 413.210-1425.865  0.00  0.00    -0.346 N 
ATOM     32  C   PRO d   3    1414.839 412.750-1425.832  0.00  0.00     0.241 C 
ATOM     33  O   PRO d   3    1415.663 413.133-1426.664  0.00  0.00    -0.271 OA
ATOM     34  H   GLU d   4    1412.951 412.904-1425.188  0.00  0.00     0.163 HD
BRANCH  32  35
ATOM     35  CA  PRO d   3    1415.238 411.727-1424.755  0.00  0.00     0.179 C 
ATOM     36  N   PRO d   3    1414.786 412.136-1423.434  0.00  0.00    -0.337 N 
ATOM     37  C   ASN d   2    1415.307 413.131-1422.800  0.00  0.00     0.243 C 
ATOM     38  CD  PRO d   3    1413.708 411.343-1422.885  0.00  0.00     0.127 C 
ATOM     39  O   ASN d   2    1416.222 413.762-1423.328  0.00  0.00    -0.271 OA
ATOM     40  CG  PRO d   3    1413.250 410.524-1424.094  0.00  0.00     0.022 C 
ATOM     41  CB  PRO d   3    1414.533 410.372-1424.925  0.00  0.00     0.037 C 
BRANCH  37  42
ATOM     42  CA  ASN d   2    1414.776 413.487-1421.431  0.00  0.00     0.185 C 
BRANCH  42  43
ATOM     43  N   ASN d   2    1413.317 413.525-1421.431  0.00  0.00    -0.346 N 
ATOM     44  C   GLU d   1    1412.712 414.311-1422.256  0.00  0.00     0.242 C 
ATOM     45  O   GLU d   1    1413.388 415.010-1423.025  0.00  0.00    -0.271 OA
ATOM     46  H   ASN d   2    1412.789 412.946-1420.795  0.00  0.00     0.163 HD
BRANCH  44  47
ATOM     47  CA  GLU d   1    1411.203 414.351-1422.256  0.00  0.00     0.191 C 
BRANCH  47  48
ATOM     48  N   GLU d   1    1410.644 413.002-1422.256  0.00  0.00    -0.326 NA
ATOM     49  H   GLU d   1    1411.271 412.123-1422.256  0.00  0.00     0.180 HD
ENDBRANCH  47  48
BRANCH  47  50
ATOM     50  CB  GLU d   1    1410.680 415.136-1421.019  0.00  0.00     0.047 C 
BRANCH  50  51
ATOM     51  CG  GLU d   1    1411.155 416.621-1420.908  0.00  0.00     0.116 C 
BRANCH  51  52
ATOM     52  CD  GLU d   1    1410.731 417.425-1419.693  0.00  0.00     0.172 C 
ATOM     53  OE1 GLU d   1    1410.003 416.923-1418.815  0.00  0.00    -0.648 OA
ATOM     54  OE2 GLU d   1    1411.161 418.595-1419.621  0.00  0.00    -0.648 OA
ENDBRANCH  51  52
ENDBRANCH  50  51
ENDBRANCH  47  50
ENDBRANCH  44  47
ENDBRANCH  42  43
BRANCH  42  55
ATOM     55  CB  ASN d   2    1415.268 412.464-1420.367  0.00  0.00     0.137 C 
BRANCH  55  56
ATOM     56  CG  ASN d   2    1414.805 412.688-1418.923  0.00  0.00     0.217 C 
ATOM     57  ND2 ASN d   2    1415.399 413.603-1418.205  0.00  0.00    -0.370 N 
ATOM     58 21HD ASN d   2    1414.919 413.776-1417.319  0.00  0.00     0.159 HD
ATOM     59 22HD ASN d   2    1416.101 414.174-1418.675  0.00  0.00     0.159 HD
ATOM     60  OD1 ASN d   2    1413.885 412.054-1418.429  0.00  0.00    -0.274 OA
ENDBRANCH  55  56
ENDBRANCH  42  55
ENDBRANCH  37  42
ENDBRANCH  32  35
ENDBRANCH  30  31
BRANCH  30  61
ATOM     61  CB  GLU d   4    1411.786 414.600-1426.724  0.00  0.00     0.045 C 
BRANCH  61  62
ATOM     62  CG  GLU d   4    1411.238 415.604-1427.789  0.00  0.00     0.116 C 
BRANCH  62  63
ATOM     63  CD  GLU d   4    1409.811 416.100-1427.645  0.00  0.00     0.172 C 
ATOM     64  OE1 GLU d   4    1409.085 415.702-1426.714  0.00  0.00    -0.648 OA
ATOM     65  OE2 GLU d   4    1409.422 416.930-1428.493  0.00  0.00    -0.648 OA
ENDBRANCH  62  63
ENDBRANCH  61  62
ENDBRANCH  30  61
ENDBRANCH  27  30
ENDBRANCH  25  26
BRANCH  25  66
ATOM     66  CB  SER d   5    1415.382 417.649-1424.181  0.00  0.00     0.199 C 
BRANCH  66  67
ATOM     67  OG  SER d   5    1416.114 416.769-1423.320  0.00  0.00    -0.398 OA
ATOM     68  HG  SER d   5    1415.625 415.944-1423.269  0.00  0.00     0.209 HD
ENDBRANCH  66  67
ENDBRANCH  25  66
ENDBRANCH  22  25
ENDBRANCH  20  21
BRANCH  20  69
ATOM     69  CB  ILE d   6    1419.147 414.097-1425.830  0.00  0.00     0.013 C 
ATOM     70  CG2 ILE d   6    1420.589 413.796-1426.345  0.00  0.00     0.012 C 
BRANCH  69  71
ATOM     71  CG1 ILE d   6    1419.167 414.035-1424.269  0.00  0.00     0.002 C 
ATOM     72  CD1 ILE d   6    1419.437 412.646-1423.654  0.00  0.00     0.005 C 
ENDBRANCH  69  71
ENDBRANCH  20  69
ENDBRANCH  17  20
ENDBRANCH  15  16
BRANCH  15  73
ATOM     73  CB  LEU d   7    1416.286 413.837-1430.450  0.00  0.00     0.038 C 
BRANCH  73  74
ATOM     74  CG  LEU d   7    1416.213 412.357-1429.984  0.00  0.00    -0.020 C 
ATOM     75  CD1 LEU d   7    1415.023 411.651-1430.649  0.00  0.00     0.009 C 
ATOM     76  CD2 LEU d   7    1417.507 411.578-1430.276  0.00  0.00     0.009 C 
ENDBRANCH  73  74
ENDBRANCH  15  73
ENDBRANCH  12  15
ENDBRANCH  10  11
BRANCH  10  77
ATOM     77  CB  ASP d   8    1415.431 419.121-1429.846  0.00  0.00     0.147 C 
BRANCH  77  78
ATOM     78  CG  ASP d   8    1415.212 420.542-1430.386  0.00  0.00     0.175 C 
ATOM     79  OD1 ASP d   8    1415.276 420.741-1431.617  0.00  0.00    -0.648 OA
ATOM     80  OD2 ASP d   8    1415.019 421.468-1429.571  0.00  0.00    -0.648 OA
ENDBRANCH  77  78
ENDBRANCH  10  77
ENDBRANCH   7  10
ENDBRANCH   5   6
BRANCH   5  81
ATOM     81  CB  PHE d   9    1420.500 419.328-1427.990  0.00  0.00     0.073 C 
BRANCH  81  82
ATOM     82  CG  PHE d   9    1419.706 419.801-1426.761  0.00  0.00    -0.056 A 
ATOM     83  CD1 PHE d   9    1418.782 418.937-1426.162  0.00  0.00     0.007 A 
ATOM     84  CE1 PHE d   9    1417.998 419.377-1425.100  0.00  0.00     0.001 A 
ATOM     85  CZ  PHE d   9    1418.144 420.676-1424.621  0.00  0.00     0.000 A 
ATOM     86  CE2 PHE d   9    1419.071 421.538-1425.205  0.00  0.00     0.001 A 
ATOM     87  CD2 PHE d   9    1419.849 421.102-1426.275  0.00  0.00     0.007 A 
ENDBRANCH  81  82
ENDBRANCH   5  81
ENDBRANCH   1   5
BRANCH   3  88
ATOM     88  CA  HIS d  10    1421.744 417.258-1431.667  0.00  0.00     0.182 C 
BRANCH  88  89
ATOM     89  C   HIS d  10    1421.378 417.824-1433.018  0.00  0.00     0.241 C 
ATOM     90  O   HIS d  10    1422.230 418.290-1433.788  0.00  0.00    -0.271 OA
ATOM     91  N   VAL d  11    1420.140 417.822-1433.381  0.00  0.00    -0.346 N 
ATOM     92  H   VAL d  11    1419.427 417.448-1432.772  0.00  0.00     0.163 HD
BRANCH  91  93
ATOM     93  CA  VAL d  11    1419.786 418.369-1434.688  0.00  0.00     0.180 C 
BRANCH  93  94
ATOM     94  C   VAL d  11    1420.248 419.800-1434.819  0.00  0.00     0.241 C 
ATOM     95  O   VAL d  11    1420.850 420.206-1435.821  0.00  0.00    -0.271 OA
ATOM     96  N   GLN d  12    1420.009 420.624-1433.856  0.00  0.00    -0.346 N 
ATOM     97  H   GLN d  12    1419.520 420.317-1433.028  0.00  0.00     0.163 HD
BRANCH  96  98
ATOM     98  CA  GLN d  12    1420.456 422.008-1433.982  0.00  0.00     0.177 C 
BRANCH  98  99
ATOM     99  C   GLN d  12    1421.946 422.078-1434.218  0.00  0.00     0.241 C 
ATOM    100  O   GLN d  12    1422.433 422.787-1435.096  0.00  0.00    -0.271 OA
ATOM    101  N   ARG d  13    1422.731 421.371-1433.478  0.00  0.00    -0.346 N 
ATOM    102  H   ARG d  13    1422.355 420.780-1432.750  0.00  0.00     0.163 HD
BRANCH 101 103
ATOM    103  CA  ARG d  13    1424.171 421.439-1433.707  0.00  0.00     0.176 C 
BRANCH 103 104
ATOM    104  C   ARG d  13    1424.509 421.069-1435.132  0.00  0.00     0.241 C 
ATOM    105  O   ARG d  13    1425.277 421.742-1435.815  0.00  0.00    -0.271 OA
ATOM    106  N   VAL d  14    1423.975 420.015-1435.648  0.00  0.00    -0.346 N 
ATOM    107  H   VAL d  14    1423.340 419.445-1435.107  0.00  0.00     0.163 HD
BRANCH 106 108
ATOM    108  CA  VAL d  14    1424.301 419.657-1437.025  0.00  0.00     0.180 C 
BRANCH 108 109
ATOM    109  C   VAL d  14    1423.970 420.787-1437.970  0.00  0.00     0.241 C 
ATOM    110  O   VAL d  14    1424.764 421.170-1438.839  0.00  0.00    -0.271 OA
ATOM    111  N   MET d  15    1422.825 421.371-1437.869  0.00  0.00    -0.346 N 
ATOM    112  H   MET d  15    1422.160 421.077-1437.168  0.00  0.00     0.163 HD
BRANCH 111 113
ATOM    113  CA  MET d  15    1422.504 422.464-1438.782  0.00  0.00     0.177 C 
BRANCH 113 114
ATOM    114  C   MET d  15    1423.532 423.565-1438.693  0.00  0.00     0.241 C 
ATOM    115  O   MET d  15    1424.035 424.078-1439.705  0.00  0.00    -0.271 OA
ATOM    116  N   ARG d  16    1423.900 423.986-1437.530  0.00  0.00    -0.347 N 
ATOM    117  H   ARG d  16    1423.505 423.585-1436.691  0.00  0.00     0.163 HD
BRANCH 116 118
ATOM    118  CA  ARG d  16    1424.895 425.051-1437.445  0.00  0.00     0.162 C 
BRANCH 118 119
ATOM    119  C   ARG d  16    1426.166 424.661-1438.161  0.00  0.00     0.219 C 
ATOM    120  O   ARG d  16    1426.282 423.585-1438.743  0.00  0.00    -0.287 OA
ENDBRANCH 118 119
BRANCH 118 121
ATOM    121  CB  ARG d  16    1425.162 425.368-1435.946  0.00  0.00     0.035 C 
BRANCH 121 122
ATOM    122  CG  ARG d  16    1425.985 426.658-1435.672  0.00  0.00     0.023 C 
BRANCH 122 123
ATOM    123  CD  ARG d  16    1426.234 426.876-1434.170  0.00  0.00     0.138 C 
BRANCH 123 124
ATOM    124  NE  ARG d  16    1427.008 428.136-1433.967  0.00  0.00    -0.227 N 
ATOM    125  CZ  ARG d  16    1427.398 428.618-1432.791  0.00  0.00     0.665 C 
ATOM    126  NH1 ARG d  16    1427.150 428.033-1431.653  0.00  0.00    -0.235 N 
ATOM    127  NH2 ARG d  16    1428.060 429.732-1432.771  0.00  0.00    -0.235 N 
ATOM    128 11HH ARG d  16    1426.626 427.159-1431.739  0.00  0.00     0.174 HD
ATOM    129 12HH ARG d  16    1427.484 428.468-1430.792  0.00  0.00     0.174 HD
ATOM    130 21HH ARG d  16    1428.246 430.176-1433.673  0.00  0.00     0.174 HD
ATOM    131 22HH ARG d  16    1428.349 430.087-1431.858  0.00  0.00     0.174 HD
ATOM    132  HE  ARG d  16    1427.286 428.719-1434.764  0.00  0.00     0.177 HD
ENDBRANCH 123 124
ENDBRANCH 122 123
ENDBRANCH 121 122
ENDBRANCH 118 121
ENDBRANCH 116 118
ENDBRANCH 113 114
BRANCH 113 133
ATOM    133  CB  MET d  15    1421.081 423.008-1438.474  0.00  0.00     0.045 C 
BRANCH 133 134
ATOM    134  CG  MET d  15    1419.921 422.008-1438.667  0.00  0.00     0.076 C 
BRANCH 134 135
ATOM    135  SD  MET d  15    1418.345 422.872-1438.553  0.00  0.00    -0.173 SA
ATOM    136  CE  MET d  15    1417.266 421.441-1438.419  0.00  0.00     0.089 C 
ENDBRANCH 134 135
ENDBRANCH 133 134
ENDBRANCH 113 133
ENDBRANCH 111 113
ENDBRANCH 108 109
BRANCH 108 137
ATOM    137  CB  VAL d  14    1423.531 418.339-1437.434  0.00  0.00     0.009 C 
ATOM    138  CG1 VAL d  14    1423.622 417.922-1438.928  0.00  0.00     0.012 C 
ATOM    139  CG2 VAL d  14    1423.964 417.087-1436.634  0.00  0.00     0.012 C 
ENDBRANCH 108 137
ENDBRANCH 106 108
ENDBRANCH 103 104
BRANCH 103 140
ATOM    140  CB  ARG d  13    1424.885 420.500-1432.693  0.00  0.00     0.036 C 
BRANCH 140 141
ATOM    141  CG  ARG d  13    1426.430 420.655-1432.611  0.00  0.00     0.023 C 
BRANCH 141 142
ATOM    142  CD  ARG d  13    1427.057 419.667-1431.614  0.00  0.00     0.138 C 
BRANCH 142 143
ATOM    143  NE  ARG d  13    1428.534 419.876-1431.562  0.00  0.00    -0.227 N 
ATOM    144  CZ  ARG d  13    1429.382 419.185-1430.807  0.00  0.00     0.665 C 
ATOM    145  NH1 ARG d  13    1429.018 418.219-1430.011  0.00  0.00    -0.235 N 
ATOM    146  NH2 ARG d  13    1430.642 419.486-1430.862  0.00  0.00    -0.235 N 
ATOM    147 11HH ARG d  13    1428.013 418.032-1430.015  0.00  0.00     0.174 HD
ATOM    148 12HH ARG d  13    1429.731 417.737-1429.462  0.00  0.00     0.174 HD
ATOM    149 21HH ARG d  13    1430.909 420.245-1431.492  0.00  0.00     0.174 HD
ATOM    150 22HH ARG d  13    1431.277 418.945-1430.274  0.00  0.00     0.174 HD
ATOM    151  HE  ARG d  13    1428.985 420.600-1432.132  0.00  0.00     0.177 HD
ENDBRANCH 142 143
ENDBRANCH 141 142
ENDBRANCH 140 141
ENDBRANCH 103 140
ENDBRANCH 101 103
ENDBRANCH  98  99
BRANCH  98 152
ATOM    152  CB  GLN d  12    1420.063 422.774-1432.699  0.00  0.00     0.044 C 
BRANCH 152 153
ATOM    153  CG  GLN d  12    1420.421 424.296-1432.666  0.00  0.00     0.105 C 
BRANCH 153 154
ATOM    154  CD  GLN d  12    1420.117 425.108-1431.401  0.00  0.00     0.215 C 
ATOM    155  NE2 GLN d  12    1419.549 424.530-1430.373  0.00  0.00    -0.370 N 
ATOM    156 21HE GLN d  12    1419.441 425.124-1429.549  0.00  0.00     0.159 HD
ATOM    157 22HE GLN d  12    1419.387 423.526-1430.477  0.00  0.00     0.159 HD
ATOM    158  OE1 GLN d  12    1420.417 426.289-1431.322  0.00  0.00    -0.274 OA
ENDBRANCH 153 154
ENDBRANCH 152 153
ENDBRANCH  98 152
ENDBRANCH  96  98
ENDBRANCH  93  94
BRANCH  93 159
ATOM    159  CB  VAL d  11    1418.224 418.260-1434.909  0.00  0.00     0.009 C 
ATOM    160  CG1 VAL d  11    1417.656 418.964-1436.171  0.00  0.00     0.012 C 
ATOM    161  CG2 VAL d  11    1417.702 416.805-1434.983  0.00  0.00     0.012 C 
ENDBRANCH  93 159
ENDBRANCH  91  93
ENDBRANCH  88  89
BRANCH  88 162
ATOM    162  CB  HIS d  10    1421.582 415.729-1431.663  0.00  0.00     0.095 C 
BRANCH 162 163
ATOM    163  CG  HIS d  10    1422.868 415.020-1431.354  0.00  0.00     0.053 A 
ATOM    164  CD2 HIS d  10    1423.248 414.684-1430.062  0.00  0.00     0.116 A 
ATOM    165  NE2 HIS d  10    1424.464 414.054-1430.128  0.00  0.00    -0.359 N 
ATOM    166  CE1 HIS d  10    1424.727 414.058-1431.463  0.00  0.00     0.207 A 
ATOM    167  2HE HIS d  10    1425.030 413.676-1429.355  0.00  0.00     0.166 HD
ATOM    168  ND1 HIS d  10    1423.821 414.616-1432.287  0.00  0.00    -0.247 NA
ENDBRANCH 162 163
ENDBRANCH  88 162
ENDBRANCH   3  88
TORSDOF 67
