REMARK WARNING: 32 MAX_TORS EXCEEDED!!!
REMARK  72 active torsions:
REMARK  status: ('A' for Active; 'I' for Inactive)
REMARK    1  A    between atoms: N_1  and  CA_2 
REMARK    2  A    between atoms: CA_2  and  C_3 
REMARK    3  A    between atoms: CA_2  and  CB_5 
REMARK       I    between atoms: C_3  and  N_11 
REMARK    4  A    between atoms: CB_5  and  CG_6 
REMARK    5  A    between atoms: CG_6  and  CD_7 
REMARK    6  A    between atoms: N_11  and  CA_12 
REMARK    7  A    between atoms: CA_12  and  C_13 
REMARK    8  A    between atoms: CA_12  and  CB_15 
REMARK       I    between atoms: C_13  and  N_22 
REMARK    9  A    between atoms: CB_15  and  CG_16 
REMARK       I    between atoms: CG_16  and  ND2_17 
REMARK   10  A    between atoms: N_22  and  CA_23 
REMARK   11  A    between atoms: CA_23  and  C_24 
REMARK   12  A    between atoms: CA_23  and  CB_26 
REMARK       I    between atoms: C_24  and  N_31 
REMARK   13  A    between atoms: CB_26  and  CG_27 
REMARK   14  A    between atoms: CG_27  and  SD_28 
REMARK   15  A    between atoms: N_31  and  CA_32 
REMARK   16  A    between atoms: CA_32  and  C_33 
REMARK   17  A    between atoms: CA_32  and  CB_35 
REMARK       I    between atoms: C_33  and  N_41 
REMARK   18  A    between atoms: CB_35  and  CG_36 
REMARK   19  A    between atoms: CG_36  and  CD_37 
REMARK   20  A    between atoms: N_41  and  CA_42 
REMARK   21  A    between atoms: CA_42  and  C_43 
REMARK   22  A    between atoms: CA_42  and  CB_45 
REMARK       I    between atoms: C_43  and  N_49 
REMARK   23  A    between atoms: CB_45  and  OG_46 
REMARK   24  A    between atoms: N_49  and  CA_50 
REMARK   25  A    between atoms: CA_50  and  C_51 
REMARK   26  A    between atoms: CA_50  and  CB_53 
REMARK       I    between atoms: C_51  and  N_58 
REMARK   27  A    between atoms: CB_53  and  CG1_54 
REMARK   28  A    between atoms: N_58  and  CA_59 
REMARK   29  A    between atoms: CA_59  and  C_60 
REMARK   30  A    between atoms: CA_59  and  CB_62 
REMARK       I    between atoms: C_60  and  N_67 
REMARK   31  A    between atoms: CB_62  and  CG_63 
REMARK   32  A    between atoms: N_67  and  CA_68 
REMARK   33  A    between atoms: CA_68  and  C_69 
REMARK   34  A    between atoms: CA_68  and  CB_71 
REMARK       I    between atoms: C_69  and  N_76 
REMARK   35  A    between atoms: CB_71  and  CG_72 
REMARK   36  A    between atoms: N_76  and  CA_77 
REMARK   37  A    between atoms: CA_77  and  C_78 
REMARK   38  A    between atoms: CA_77  and  CB_80 
REMARK       I    between atoms: C_78  and  N_86 
REMARK   39  A    between atoms: CB_80  and  CG_81 
REMARK   40  A    between atoms: CG_81  and  CD_82 
REMARK   41  A    between atoms: N_86  and  CA_87 
REMARK   42  A    between atoms: CA_87  and  C_88 
REMARK   43  A    between atoms: CA_87  and  CB_90 
REMARK       I    between atoms: C_88  and  N_98 
REMARK   44  A    between atoms: CB_90  and  CG_91 
REMARK   45  A    between atoms: N_98  and  CA_99 
REMARK   46  A    between atoms: CA_99  and  C_100 
REMARK   47  A    between atoms: CA_99  and  CB_102 
REMARK       I    between atoms: C_100  and  N_106 
REMARK   48  A    between atoms: N_106  and  CA_107 
REMARK   49  A    between atoms: CA_107  and  C_108 
REMARK   50  A    between atoms: CA_107  and  CB_110 
REMARK       I    between atoms: C_108  and  N_118 
REMARK   51  A    between atoms: CB_110  and  CG_111 
REMARK   52  A    between atoms: CG_111  and  CD_112 
REMARK       I    between atoms: CD_112  and  NE2_113 
REMARK   53  A    between atoms: N_118  and  CA_119 
REMARK   54  A    between atoms: CA_119  and  C_120 
REMARK   55  A    between atoms: CA_119  and  CB_122 
REMARK       I    between atoms: C_120  and  N_135 
REMARK   56  A    between atoms: CB_122  and  CG_123 
REMARK   57  A    between atoms: CG_123  and  CD_124 
REMARK   58  A    between atoms: CD_124  and  NE_125 
REMARK       I    between atoms: NE_125  and  CZ_126 
REMARK       I    between atoms: CZ_126  and  NH1_127 
REMARK       I    between atoms: CZ_126  and  NH2_128 
REMARK   59  A    between atoms: N_135  and  CA_136 
REMARK   60  A    between atoms: CA_136  and  C_137 
REMARK   61  A    between atoms: CA_136  and  CB_139 
REMARK       I    between atoms: C_137  and  N_143 
REMARK   62  A    between atoms: N_143  and  CA_144 
REMARK   63  A    between atoms: CA_144  and  C_145 
REMARK   64  A    between atoms: CA_144  and  CB_147 
REMARK       I    between atoms: C_145  and  N_152 
REMARK   65  A    between atoms: CB_147  and  CG_148 
REMARK   66  A    between atoms: CG_148  and  SD_149 
REMARK   67  A    between atoms: N_152  and  CA_153 
REMARK   68  A    between atoms: CA_153  and  C_154 
REMARK   69  A    between atoms: CA_153  and  CB_156 
REMARK   70  A    between atoms: CB_156  and  CG_157 
REMARK   71  A    between atoms: CG_157  and  CD_158 
REMARK   72  A    between atoms: CD_158  and  NE_159 
REMARK       I    between atoms: NE_159  and  CZ_160 
REMARK       I    between atoms: CZ_160  and  NH1_161 
ROOT
ATOM      1  C   GLU d   9     388.774  91.991-358.146  0.00  0.00     0.241 C 
ATOM      2  O   GLU d   9     389.622  92.697-358.711  0.00  0.00    -0.271 OA
ATOM      3  N   HIS d  10     388.669  90.750-358.482  0.00  0.00    -0.346 N 
ATOM      4  H   HIS d  10     387.986  90.155-358.037  0.00  0.00     0.163 HD
ENDROOT
BRANCH   1   5
ATOM      5  CA  GLU d   9     387.859  92.540-357.078  0.00  0.00     0.177 C 
BRANCH   5   6
ATOM      6  N   GLU d   9     386.476  92.140-357.318  0.00  0.00    -0.346 N 
ATOM      7  C   ASP d   8     385.922  92.445-358.443  0.00  0.00     0.241 C 
ATOM      8  O   ASP d   8     386.582  93.070-359.288  0.00  0.00    -0.271 OA
ATOM      9  H   GLU d   9     385.959  91.632-356.614  0.00  0.00     0.163 HD
BRANCH   7  10
ATOM     10  CA  ASP d   8     384.492  92.031-358.691  0.00  0.00     0.186 C 
BRANCH  10  11
ATOM     11  N   ASP d   8     384.280  90.633-358.325  0.00  0.00    -0.346 N 
ATOM     12  C   LEU d   7     385.008  89.724-358.879  0.00  0.00     0.241 C 
ATOM     13  O   LEU d   7     385.866  90.064-359.707  0.00  0.00    -0.271 OA
ATOM     14  H   ASP d   8     383.574  90.382-357.647  0.00  0.00     0.163 HD
BRANCH  12  15
ATOM     15  CA  LEU d   7     384.788  88.279-358.500  0.00  0.00     0.177 C 
BRANCH  15  16
ATOM     16  N   LEU d   7     384.708  88.126-357.050  0.00  0.00    -0.346 N 
ATOM     17  C   ILE d   6     385.693  88.533-356.323  0.00  0.00     0.241 C 
ATOM     18  O   ILE d   6     386.679  89.042-356.877  0.00  0.00    -0.271 OA
ATOM     19  H   LEU d   7     383.894  87.708-356.623  0.00  0.00     0.163 HD
BRANCH  17  20
ATOM     20  CA  ILE d   6     385.611  88.375-354.825  0.00  0.00     0.180 C 
BRANCH  20  21
ATOM     21  N   ILE d   6     384.318  88.830-354.321  0.00  0.00    -0.346 N 
ATOM     22  C   SER d   5     383.942  90.040-354.566  0.00  0.00     0.243 C 
ATOM     23  O   SER d   5     384.684  90.775-355.218  0.00  0.00    -0.271 OA
ATOM     24  H   ILE d   6     383.727  88.208-353.788  0.00  0.00     0.163 HD
BRANCH  22  25
ATOM     25  CA  SER d   5     382.605  90.511-354.044  0.00  0.00     0.200 C 
BRANCH  25  26
ATOM     26  N   SER d   5     381.559  89.532-354.326  0.00  0.00    -0.344 N 
ATOM     27  C   GLU d   4     381.352  89.173-355.548  0.00  0.00     0.241 C 
ATOM     28  O   GLU d   4     382.047  89.671-356.446  0.00  0.00    -0.271 OA
ATOM     29  H   SER d   5     381.007  89.142-353.577  0.00  0.00     0.163 HD
BRANCH  27  30
ATOM     30  CA  GLU d   4     380.271  88.161-355.840  0.00  0.00     0.177 C 
BRANCH  30  31
ATOM     31  N   GLU d   4     380.361  87.023-354.930  0.00  0.00    -0.346 N 
ATOM     32  C   MET d   3     381.462  86.352-354.874  0.00  0.00     0.241 C 
ATOM     33  O   MET d   3     382.413  86.694-355.594  0.00  0.00    -0.271 OA
ATOM     34  H   GLU d   4     379.573  86.764-354.354  0.00  0.00     0.163 HD
BRANCH  32  35
ATOM     35  CA  MET d   3     381.555  85.175-353.933  0.00  0.00     0.177 C 
BRANCH  35  36
ATOM     36  N   MET d   3     381.043  85.520-352.610  0.00  0.00    -0.346 N 
ATOM     37  C   ASN d   2     381.564  86.515-351.976  0.00  0.00     0.241 C 
ATOM     38  O   ASN d   2     382.479  87.145-352.505  0.00  0.00    -0.271 OA
ATOM     39  H   MET d   3     380.291  84.987-352.197  0.00  0.00     0.163 HD
BRANCH  37  40
ATOM     40  CA  ASN d   2     381.033  86.870-350.607  0.00  0.00     0.185 C 
BRANCH  40  41
ATOM     41  N   ASN d   2     379.574  86.909-350.607  0.00  0.00    -0.346 N 
ATOM     42  C   GLU d   1     378.969  87.695-351.432  0.00  0.00     0.242 C 
ATOM     43  O   GLU d   1     379.645  88.394-352.201  0.00  0.00    -0.271 OA
ATOM     44  H   ASN d   2     379.046  86.329-349.971  0.00  0.00     0.163 HD
BRANCH  42  45
ATOM     45  CA  GLU d   1     377.460  87.735-351.432  0.00  0.00     0.191 C 
BRANCH  45  46
ATOM     46  N   GLU d   1     376.901  86.386-351.432  0.00  0.00    -0.326 NA
ATOM     47  H   GLU d   1     377.528  85.507-351.432  0.00  0.00     0.180 HD
ENDBRANCH  45  46
BRANCH  45  48
ATOM     48  CB  GLU d   1     376.937  88.520-350.195  0.00  0.00     0.047 C 
BRANCH  48  49
ATOM     49  CG  GLU d   1     377.412  90.005-350.084  0.00  0.00     0.116 C 
BRANCH  49  50
ATOM     50  CD  GLU d   1     376.988  90.809-348.869  0.00  0.00     0.172 C 
ATOM     51  OE1 GLU d   1     376.260  90.307-347.991  0.00  0.00    -0.648 OA
ATOM     52  OE2 GLU d   1     377.418  91.979-348.797  0.00  0.00    -0.648 OA
ENDBRANCH  49  50
ENDBRANCH  48  49
ENDBRANCH  45  48
ENDBRANCH  42  45
ENDBRANCH  40  41
BRANCH  40  53
ATOM     53  CB  ASN d   2     381.525  85.847-349.543  0.00  0.00     0.137 C 
BRANCH  53  54
ATOM     54  CG  ASN d   2     381.062  86.071-348.100  0.00  0.00     0.217 C 
ATOM     55  ND2 ASN d   2     381.657  86.986-347.381  0.00  0.00    -0.370 N 
ATOM     56 21HD ASN d   2     381.176  87.159-346.495  0.00  0.00     0.159 HD
ATOM     57 22HD ASN d   2     382.358  87.558-347.851  0.00  0.00     0.159 HD
ATOM     58  OD1 ASN d   2     380.142  85.437-347.605  0.00  0.00    -0.274 OA
ENDBRANCH  53  54
ENDBRANCH  40  53
ENDBRANCH  37  40
ENDBRANCH  35  36
BRANCH  35  59
ATOM     59  CB  MET d   3     380.781  83.952-354.496  0.00  0.00     0.045 C 
BRANCH  59  60
ATOM     60  CG  MET d   3     380.914  82.641-353.693  0.00  0.00     0.076 C 
BRANCH  60  61
ATOM     61  SD  MET d   3     380.207  81.276-354.629  0.00  0.00    -0.173 SA
ATOM     62  CE  MET d   3     380.157  80.050-353.316  0.00  0.00     0.089 C 
ENDBRANCH  60  61
ENDBRANCH  59  60
ENDBRANCH  35  59
ENDBRANCH  32  35
ENDBRANCH  30  31
BRANCH  30  63
ATOM     63  CB  GLU d   4     378.866  88.817-355.723  0.00  0.00     0.045 C 
BRANCH  63  64
ATOM     64  CG  GLU d   4     378.600  90.026-356.678  0.00  0.00     0.116 C 
BRANCH  64  65
ATOM     65  CD  GLU d   4     377.271  90.750-356.573  0.00  0.00     0.172 C 
ATOM     66  OE1 GLU d   4     376.402  90.379-355.761  0.00  0.00    -0.648 OA
ATOM     67  OE2 GLU d   4     377.111  91.733-357.325  0.00  0.00    -0.648 OA
ENDBRANCH  64  65
ENDBRANCH  63  64
ENDBRANCH  30  63
ENDBRANCH  27  30
ENDBRANCH  25  26
BRANCH  25  68
ATOM     68  CB  SER d   5     382.665  90.833-352.530  0.00  0.00     0.199 C 
BRANCH  68  69
ATOM     69  OG  SER d   5     383.151  89.738-351.747  0.00  0.00    -0.398 OA
ATOM     70  HG  SER d   5     382.528  89.015-351.846  0.00  0.00     0.209 HD
ENDBRANCH  68  69
ENDBRANCH  25  68
ENDBRANCH  22  25
ENDBRANCH  20  21
BRANCH  20  71
ATOM     71  CB  ILE d   6     385.915  86.889-354.372  0.00  0.00     0.013 C 
ATOM     72  CG2 ILE d   6     387.328  86.398-354.817  0.00  0.00     0.012 C 
BRANCH  71  73
ATOM     73  CG1 ILE d   6     385.774  86.635-352.837  0.00  0.00     0.002 C 
ATOM     74  CD1 ILE d   6     385.745  85.155-352.400  0.00  0.00     0.005 C 
ENDBRANCH  71  73
ENDBRANCH  20  71
ENDBRANCH  17  20
ENDBRANCH  15  16
BRANCH  15  75
ATOM     75  CB  LEU d   7     383.508  87.715-359.180  0.00  0.00     0.038 C 
BRANCH  75  76
ATOM     76  CG  LEU d   7     383.142  86.227-358.928  0.00  0.00    -0.020 C 
ATOM     77  CD1 LEU d   7     381.919  85.834-359.769  0.00  0.00     0.009 C 
ATOM     78  CD2 LEU d   7     384.307  85.269-359.228  0.00  0.00     0.009 C 
ENDBRANCH  75  76
ENDBRANCH  15  75
ENDBRANCH  12  15
ENDBRANCH  10  11
BRANCH  10  79
ATOM     79  CB  ASP d   8     383.505  92.953-357.922  0.00  0.00     0.147 C 
BRANCH  79  80
ATOM     80  CG  ASP d   8     383.582  94.445-358.277  0.00  0.00     0.175 C 
ATOM     81  OD1 ASP d   8     383.797  94.779-359.460  0.00  0.00    -0.648 OA
ATOM     82  OD2 ASP d   8     383.472  95.284-357.358  0.00  0.00    -0.648 OA
ENDBRANCH  79  80
ENDBRANCH  10  79
ENDBRANCH   7  10
ENDBRANCH   5   6
BRANCH   5  83
ATOM     83  CB  GLU d   9     388.311  92.051-355.672  0.00  0.00     0.045 C 
BRANCH  83  84
ATOM     84  CG  GLU d   9     389.762  92.450-355.249  0.00  0.00     0.116 C 
BRANCH  84  85
ATOM     85  CD  GLU d   9     390.287  91.953-353.915  0.00  0.00     0.172 C 
ATOM     86  OE1 GLU d   9     389.572  91.262-353.163  0.00  0.00    -0.648 OA
ATOM     87  OE2 GLU d   9     391.463  92.260-353.630  0.00  0.00    -0.648 OA
ENDBRANCH  84  85
ENDBRANCH  83  84
ENDBRANCH   5  83
ENDBRANCH   1   5
BRANCH   3  88
ATOM     88  CA  HIS d  10     389.554  90.219-359.515  0.00  0.00     0.182 C 
BRANCH  88  89
ATOM     89  C   HIS d  10     389.419  91.001-360.799  0.00  0.00     0.241 C 
ATOM     90  O   HIS d  10     390.408  91.396-361.435  0.00  0.00    -0.271 OA
ATOM     91  N   VAL d  11     388.240  91.268-361.248  0.00  0.00    -0.346 N 
ATOM     92  H   VAL d  11     387.419  90.957-360.748  0.00  0.00     0.163 HD
BRANCH  91  93
ATOM     93  CA  VAL d  11     388.109  92.024-362.490  0.00  0.00     0.180 C 
BRANCH  93  94
ATOM     94  C   VAL d  11     388.819  93.353-362.390  0.00  0.00     0.241 C 
ATOM     95  O   VAL d  11     389.573  93.763-363.281  0.00  0.00    -0.271 OA
ATOM     96  N   GLN d  12     388.633  94.084-361.343  0.00  0.00    -0.346 N 
ATOM     97  H   GLN d  12     388.023  93.772-360.602  0.00  0.00     0.163 HD
BRANCH  96  98
ATOM     98  CA  GLN d  12     389.319  95.369-361.246  0.00  0.00     0.177 C 
BRANCH  98  99
ATOM     99  C   GLN d  12     390.815  95.195-361.363  0.00  0.00     0.241 C 
ATOM    100  O   GLN d  12     391.497  95.907-362.098  0.00  0.00    -0.271 OA
ATOM    101  N   ARG d  13     391.394  94.274-360.671  0.00  0.00    -0.346 N 
ATOM    102  H   ARG d  13     390.856  93.676-360.060  0.00  0.00     0.163 HD
BRANCH 101 103
ATOM    103  CA  ARG d  13     392.840  94.107-360.785  0.00  0.00     0.176 C 
BRANCH 103 104
ATOM    104  C   ARG d  13     393.244  93.858-362.219  0.00  0.00     0.241 C 
ATOM    105  O   ARG d  13     394.177  94.459-362.746  0.00  0.00    -0.271 OA
ATOM    106  N   VAL d  14     392.589  92.989-362.911  0.00  0.00    -0.346 N 
ATOM    107  H   VAL d  14     391.819  92.482-362.500  0.00  0.00     0.163 HD
BRANCH 106 108
ATOM    108  CA  VAL d  14     392.980  92.748-364.297  0.00  0.00     0.180 C 
BRANCH 108 109
ATOM    109  C   VAL d  14     392.938  94.026-365.100  0.00  0.00     0.241 C 
ATOM    110  O   VAL d  14     393.864  94.362-365.849  0.00  0.00    -0.271 OA
ATOM    111  N   MET d  15     391.904  94.792-365.003  0.00  0.00    -0.346 N 
ATOM    112  H   MET d  15     391.135  94.540-364.399  0.00  0.00     0.163 HD
BRANCH 111 113
ATOM    113  CA  MET d  15     391.862  96.028-365.779  0.00  0.00     0.177 C 
BRANCH 113 114
ATOM    114  C   MET d  15     393.050  96.905-365.466  0.00  0.00     0.241 C 
ATOM    115  O   MET d  15     393.726  97.437-366.359  0.00  0.00    -0.271 OA
ATOM    116  N   ARG d  16     393.371  97.107-364.233  0.00  0.00    -0.347 N 
ATOM    117  H   ARG d  16     392.836  96.685-363.488  0.00  0.00     0.163 HD
BRANCH 116 118
ATOM    118  CA  ARG d  16     394.520  97.956-363.931  0.00  0.00     0.162 C 
BRANCH 118 119
ATOM    119  C   ARG d  16     395.769  97.431-364.600  0.00  0.00     0.219 C 
ATOM    120  O   ARG d  16     395.755  96.431-365.314  0.00  0.00    -0.287 OA
ENDBRANCH 118 119
BRANCH 118 121
ATOM    121  CB  ARG d  16     394.694  98.034-362.388  0.00  0.00     0.035 C 
BRANCH 121 122
ATOM    122  CG  ARG d  16     395.695  99.110-361.881  0.00  0.00     0.023 C 
BRANCH 122 123
ATOM    123  CD  ARG d  16     395.833  99.096-360.350  0.00  0.00     0.138 C 
BRANCH 123 124
ATOM    124  NE  ARG d  16     396.788 100.160-359.922  0.00  0.00    -0.227 N 
ATOM    125  CZ  ARG d  16     397.140 100.416-358.665  0.00  0.00     0.665 C 
ATOM    126  NH1 ARG d  16     396.689  99.751-357.639  0.00  0.00    -0.235 N 
ATOM    127  NH2 ARG d  16     397.978 101.381-358.446  0.00  0.00    -0.235 N 
ATOM    128 11HH ARG d  16     396.034  99.004-357.881  0.00  0.00     0.174 HD
ATOM    129 12HH ARG d  16     397.008 100.011-356.704  0.00  0.00     0.174 HD
ATOM    130 21HH ARG d  16     398.321 101.890-359.262  0.00  0.00     0.174 HD
ATOM    131 22HH ARG d  16     398.235 101.563-357.474  0.00  0.00     0.174 HD
ATOM    132  HE  ARG d  16     397.235 100.775-360.609  0.00  0.00     0.177 HD
ENDBRANCH 123 124
ENDBRANCH 122 123
ENDBRANCH 121 122
ENDBRANCH 118 121
ENDBRANCH 116 118
ENDBRANCH 113 114
BRANCH 113 133
ATOM    133  CB  MET d  15     390.530  96.778-365.502  0.00  0.00     0.045 C 
BRANCH 133 134
ATOM    134  CG  MET d  15     389.240  96.037-365.914  0.00  0.00     0.076 C 
BRANCH 134 135
ATOM    135  SD  MET d  15     387.831  97.152-365.797  0.00  0.00    -0.173 SA
ATOM    136  CE  MET d  15     386.516  95.934-365.937  0.00  0.00     0.089 C 
ENDBRANCH 134 135
ENDBRANCH 133 134
ENDBRANCH 113 133
ENDBRANCH 111 113
ENDBRANCH 108 109
BRANCH 108 137
ATOM    137  CB  VAL d  14     392.039  91.651-364.937  0.00  0.00     0.009 C 
ATOM    138  CG1 VAL d  14     392.199  91.410-366.463  0.00  0.00     0.012 C 
ATOM    139  CG2 VAL d  14     392.174  90.254-364.287  0.00  0.00     0.012 C 
ENDBRANCH 108 137
ENDBRANCH 106 108
ENDBRANCH 103 104
BRANCH 103 140
ATOM    140  CB  ARG d  13     393.284  92.938-359.860  0.00  0.00     0.036 C 
BRANCH 140 141
ATOM    141  CG  ARG d  13     394.818  92.799-359.646  0.00  0.00     0.023 C 
BRANCH 141 142
ATOM    142  CD  ARG d  13     395.170  91.600-358.750  0.00  0.00     0.138 C 
BRANCH 142 143
ATOM    143  NE  ARG d  13     396.649  91.530-358.564  0.00  0.00    -0.227 N 
ATOM    144  CZ  ARG d  13     397.292  90.610-357.851  0.00  0.00     0.665 C 
ATOM    145  NH1 ARG d  13     396.694  89.637-357.223  0.00  0.00    -0.235 N 
ATOM    146  NH2 ARG d  13     398.583  90.682-357.774  0.00  0.00    -0.235 N 
ATOM    147 11HH ARG d  13     395.677  89.637-357.325  0.00  0.00     0.174 HD
ATOM    148 12HH ARG d  13     397.259  88.970-356.695  0.00  0.00     0.174 HD
ATOM    149 21HH ARG d  13     399.034  91.451-358.274  0.00  0.00     0.174 HD
ATOM    150 22HH ARG d  13     399.058  89.967-357.221  0.00  0.00     0.174 HD
ATOM    151  HE  ARG d  13     397.269  92.224-358.996  0.00  0.00     0.177 HD
ENDBRANCH 142 143
ENDBRANCH 141 142
ENDBRANCH 140 141
ENDBRANCH 103 140
ENDBRANCH 101 103
ENDBRANCH  98  99
BRANCH  98 152
ATOM    152  CB  GLN d  12     388.942  96.031-359.902  0.00  0.00     0.044 C 
BRANCH 152 153
ATOM    153  CG  GLN d  12     389.549  97.448-359.636  0.00  0.00     0.105 C 
BRANCH 153 154
ATOM    154  CD  GLN d  12     389.269  98.141-358.297  0.00  0.00     0.215 C 
ATOM    155  NE2 GLN d  12     388.516  97.555-357.401  0.00  0.00    -0.370 N 
ATOM    156 21HE GLN d  12     388.433  98.053-356.514  0.00  0.00     0.159 HD
ATOM    157 22HE GLN d  12     388.196  96.617-357.653  0.00  0.00     0.159 HD
ATOM    158  OE1 GLN d  12     389.757  99.230-358.036  0.00  0.00    -0.274 OA
ENDBRANCH 153 154
ENDBRANCH 152 153
ENDBRANCH  98 152
ENDBRANCH  96  98
ENDBRANCH  93  94
BRANCH  93 159
ATOM    159  CB  VAL d  11     386.581  92.228-362.835  0.00  0.00     0.009 C 
ATOM    160  CG1 VAL d  11     386.263  93.172-364.027  0.00  0.00     0.012 C 
ATOM    161  CG2 VAL d  11     385.828  90.912-363.146  0.00  0.00     0.012 C 
ENDBRANCH  93 159
ENDBRANCH  91  93
ENDBRANCH  88  89
BRANCH  88 162
ATOM    162  CB  HIS d  10     389.134  88.755-359.732  0.00  0.00     0.095 C 
BRANCH 162 163
ATOM    163  CG  HIS d  10     390.246  87.793-359.432  0.00  0.00     0.053 A 
ATOM    164  CD2 HIS d  10     390.439  87.239-358.173  0.00  0.00     0.116 A 
ATOM    165  NE2 HIS d  10     391.530  86.412-358.237  0.00  0.00    -0.359 N 
ATOM    166  CE1 HIS d  10     391.917  86.531-359.536  0.00  0.00     0.207 A 
ATOM    167  2HE HIS d  10     391.948  85.847-357.483  0.00  0.00     0.166 HD
ATOM    168  ND1 HIS d  10     391.201  87.340-360.339  0.00  0.00    -0.247 NA
ENDBRANCH 162 163
ENDBRANCH  88 162
ENDBRANCH   3  88
TORSDOF 72
