@<TRIPOS>MOLECULE
14-16
266 267 16              
SMALL
USER_CHARGES
@<TRIPOS>ATOM
1	   N	2291.774	700.541	-2381.852	N.3	1	GLU1	-0.516	
2	  CA	2292.333	701.890	-2381.852	C.3	1	GLU1	0.040	
3	   C	2293.842	701.849	-2381.852	C.2	1	GLU1	0.537	
4	   O	2294.518	702.549	-2382.621	O.2	1	GLU1	-0.582	
5	  CB	2291.810	702.674	-2380.615	C.3	1	GLU1	0.056	
6	  CG	2292.285	704.159	-2380.504	C.3	1	GLU1	0.014	
7	  CD	2291.861	704.964	-2379.289	C.2	1	GLU1	0.805	
8	 OE1	2291.133	704.461	-2378.411	O.co2	1	GLU1	-0.819	
9	 OE2	2292.291	706.133	-2379.217	O.co2	1	GLU1	-0.819	
10	   H	2292.401	699.661	-2381.852	 H	1	GLU1	0.294	
11	  HA	2292.007	702.408	-2382.772	 H	1	GLU1	0.111	
12	 2HB	2292.099	702.143	-2379.685	 H	1	GLU1	-0.017	
13	 3HB	2290.703	702.664	-2380.602	 H	1	GLU1	-0.017	
14	 2HG	2291.975	704.745	-2381.385	 H	1	GLU1	-0.043	
15	 3HG	2293.385	704.227	-2380.475	 H	1	GLU1	-0.043	
16	   N	2294.446	701.064	-2381.027	N.am	2	ASN2	-0.416	
17	  CA	2295.906	701.025	-2381.027	C.3	2	ASN2	0.014	
18	   C	2296.437	700.669	-2382.395	C.2	2	ASN2	0.597	
19	   O	2297.352	701.299	-2382.923	O.2	2	ASN2	-0.568	
20	  CB	2296.397	700.002	-2379.962	C.3	2	ASN2	-0.204	
21	  CG	2295.934	700.226	-2378.519	C.2	2	ASN2	0.713	
22	 ND2	2296.528	701.140	-2377.801	N.pl3	2	ASN2	-0.919	
23	 OD1	2295.013	699.592	-2378.025	O.2	2	ASN2	-0.593	
24	   H	2293.918	700.484	-2380.390	 H	2	ASN2	0.272	
25	  HA	2296.283	702.034	-2380.781	 H	2	ASN2	0.105	
26	 2HB	2297.501	699.943	-2379.965	 H	2	ASN2	0.080	
27	 3HB	2296.068	698.983	-2380.248	 H	2	ASN2	0.080	
28	1HD2	2296.047	701.314	-2376.914	 H	2	ASN2	0.420	
29	2HD2	2297.230	701.712	-2378.270	 H	2	ASN2	0.420	
30	   N	2295.916	699.674	-2383.030	N.am	3	PRO3	-0.255	
31	  CA	2296.368	699.265	-2384.351	C.3	3	PRO3	-0.027	
32	   C	2295.970	700.289	-2385.428	C.2	3	PRO3	0.590	
33	   O	2296.793	700.672	-2386.259	O.2	3	PRO3	-0.575	
34	  CB	2295.663	697.910	-2384.521	C.3	3	PRO3	-0.007	
35	  CG	2294.380	698.063	-2383.691	C.3	3	PRO3	0.019	
36	  CD	2294.837	698.881	-2382.481	C.3	3	PRO3	0.019	
37	  HA	2297.454	699.145	-2384.364	 H	3	PRO3	0.064	
38	 2HB	2296.286	697.129	-2384.080	 H	3	PRO3	0.025	
39	 3HB	2295.465	697.662	-2385.566	 H	3	PRO3	0.025	
40	 2HG	2293.952	697.101	-2383.400	 H	3	PRO3	0.021	
41	 3HG	2293.643	698.634	-2384.258	 H	3	PRO3	0.021	
42	 2HD	2295.226	698.232	-2381.693	 H	3	PRO3	0.039	
43	 3HD	2294.041	699.517	-2382.088	 H	3	PRO3	0.039	
44	   N	2294.765	700.749	-2385.461	N.am	4	GLU4	-0.516	
45	  CA	2294.406	701.720	-2386.490	C.3	4	GLU4	0.040	
46	   C	2295.305	702.930	-2386.429	C.2	4	GLU4	0.537	
47	   O	2295.832	703.410	-2387.443	O.2	4	GLU4	-0.582	
48	  CB	2292.917	702.139	-2386.321	C.3	4	GLU4	0.056	
49	  CG	2292.370	703.143	-2387.386	C.3	4	GLU4	0.014	
50	  CD	2290.944	703.640	-2387.243	C.2	4	GLU4	0.805	
51	 OE1	2290.217	703.241	-2386.313	O.co2	4	GLU4	-0.819	
52	 OE2	2290.555	704.469	-2388.092	O.co2	4	GLU4	-0.819	
53	   H	2294.081	700.442	-2384.784	 H	4	GLU4	0.294	
54	  HA	2294.538	701.249	-2387.482	 H	4	GLU4	0.111	
55	 2HB	2292.765	702.578	-2385.314	 H	4	GLU4	-0.017	
56	 3HB	2292.270	701.241	-2386.327	 H	4	GLU4	-0.017	
57	 2HG	2292.452	702.728	-2388.405	 H	4	GLU4	-0.043	
58	 3HG	2292.958	704.075	-2387.397	 H	4	GLU4	-0.043	
59	   N	2295.532	703.483	-2385.286	N.am	5	SER5	-0.416	
60	  CA	2296.402	704.654	-2385.227	C.3	5	SER5	-0.025	
61	   C	2297.761	704.348	-2385.812	C.2	5	SER5	0.597	
62	   O	2298.309	705.102	-2386.617	O.2	5	SER5	-0.568	
63	  CB	2296.513	705.186	-2383.776	C.3	5	SER5	0.212	
64	  OG	2297.244	704.307	-2382.915	O.3	5	SER5	-0.655	
65	   H	2295.115	703.112	-2384.444	 H	5	SER5	0.272	
66	  HA	2295.953	705.445	-2385.856	 H	5	SER5	0.084	
67	 2HB	2295.513	705.380	-2383.343	 H	5	SER5	0.035	
68	 3HB	2297.019	706.172	-2383.778	 H	5	SER5	0.035	
69	  HG	2296.755	703.482	-2382.865	 H	5	SER5	0.428	
70	   N	2298.365	703.265	-2385.458	N.am	6	ILE6	-0.416	
71	  CA	2299.678	702.969	-2386.024	C.3	6	ILE6	-0.060	
72	   C	2299.621	702.932	-2387.531	C.2	6	ILE6	0.597	
73	   O	2300.456	703.519	-2388.235	O.2	6	ILE6	-0.568	
74	  CB	2300.278	701.633	-2385.423	C.3	6	ILE6	0.130	
75	 CG1	2300.296	701.571	-2383.863	C.3	6	ILE6	-0.043	
76	 CG2	2301.719	701.331	-2385.938	C.3	6	ILE6	-0.320	
77	 CD1	2300.566	700.181	-2383.247	C.3	6	ILE6	-0.066	
78	   H	2297.936	702.631	-2384.799	 H	6	ILE6	0.272	
79	  HA	2300.353	703.803	-2385.756	 H	6	ILE6	0.087	
80	  HB	2299.619	700.807	-2385.768	 H	6	ILE6	0.019	
81	2HG1	2299.314	701.891	-2383.467	 H	6	ILE6	0.024	
82	3HG1	2301.012	702.313	-2383.458	 H	6	ILE6	0.024	
83	1HG2	2301.778	701.237	-2387.037	 H	6	ILE6	0.088	
84	2HG2	2302.441	702.113	-2385.636	 H	6	ILE6	0.088	
85	3HG2	2302.108	700.369	-2385.560	 H	6	ILE6	0.088	
86	1HD1	2299.837	699.428	-2383.602	 H	6	ILE6	0.019	
87	2HD1	2301.576	699.802	-2383.483	 H	6	ILE6	0.019	
88	3HD1	2300.489	700.212	-2382.145	 H	6	ILE6	0.019	
89	   N	2298.675	702.269	-2388.105	N.am	7	LEU7	-0.416	
90	  CA	2298.620	702.232	-2389.563	C.3	7	LEU7	-0.052	
91	   C	2298.548	703.628	-2390.136	C.2	7	LEU7	0.597	
92	   O	2299.269	703.989	-2391.079	O.2	7	LEU7	-0.568	
93	  CB	2297.417	701.373	-2390.044	C.3	7	LEU7	-0.110	
94	  CG	2297.344	699.893	-2389.577	C.3	7	LEU7	0.353	
95	 CD1	2296.154	699.188	-2390.243	C.3	7	LEU7	-0.412	
96	 CD2	2298.637	699.114	-2389.869	C.3	7	LEU7	-0.412	
97	   H	2297.983	701.782	-2387.554	 H	7	LEU7	0.272	
98	  HA	2299.562	701.792	-2389.938	 H	7	LEU7	0.092	
99	 2HB	2297.394	701.388	-2391.152	 H	7	LEU7	0.046	
100	 3HB	2296.477	701.875	-2389.740	 H	7	LEU7	0.046	
101	  HG	2297.174	699.885	-2388.480	 H	7	LEU7	-0.036	
102	1HD1	2295.197	699.697	-2390.020	 H	7	LEU7	0.100	
103	2HD1	2296.253	699.147	-2391.344	 H	7	LEU7	0.100	
104	3HD1	2296.046	698.147	-2389.887	 H	7	LEU7	0.100	
105	1HD2	2298.912	699.144	-2390.939	 H	7	LEU7	0.100	
106	2HD2	2299.490	699.525	-2389.297	 H	7	LEU7	0.100	
107	3HD2	2298.555	698.051	-2389.573	 H	7	LEU7	0.100	
108	   N	2297.711	704.469	-2389.631	N.am	8	ASP8	-0.516	
109	  CA	2297.642	705.818	-2390.185	C.3	8	ASP8	0.038	
110	   C	2298.989	706.497	-2390.128	C.2	8	ASP8	0.537	
111	   O	2299.462	707.101	-2391.103	O.2	8	ASP8	-0.582	
112	  CB	2296.564	706.658	-2389.444	C.3	8	ASP8	-0.030	
113	  CG	2296.346	708.079	-2389.985	C.2	8	ASP8	0.799	
114	 OD1	2296.410	708.277	-2391.216	O.co2	8	ASP8	-0.801	
115	 OD2	2296.155	709.005	-2389.170	O.co2	8	ASP8	-0.801	
116	   H	2297.114	704.199	-2388.863	 H	8	ASP8	0.294	
117	  HA	2297.359	705.740	-2391.252	 H	8	ASP8	0.088	
118	 2HB	2296.821	706.742	-2388.372	 H	8	ASP8	-0.012	
119	 3HB	2295.585	706.153	-2389.476	 H	8	ASP8	-0.012	
120	   N	2299.669	706.448	-2389.033	N.am	9	GLU9	-0.516	
121	  CA	2300.972	707.105	-2388.978	C.3	9	GLU9	0.040	
122	   C	2301.889	706.576	-2390.054	C.2	9	GLU9	0.537	
123	   O	2302.553	707.330	-2390.780	O.2	9	GLU9	-0.582	
124	  CB	2301.605	706.897	-2387.573	C.3	9	GLU9	0.056	
125	  CG	2302.989	707.589	-2387.344	C.3	9	GLU9	0.014	
126	  CD	2303.690	707.376	-2386.016	C.2	9	GLU9	0.805	
127	 OE1	2303.169	706.686	-2385.119	O.co2	9	GLU9	-0.819	
128	 OE2	2304.810	707.914	-2385.885	O.co2	9	GLU9	-0.819	
129	   H	2299.305	705.962	-2388.225	 H	9	GLU9	0.294	
130	  HA	2300.830	708.187	-2389.154	 H	9	GLU9	0.111	
131	 2HB	2301.718	705.813	-2387.369	 H	9	GLU9	-0.017	
132	 3HB	2300.909	707.251	-2386.788	 H	9	GLU9	-0.017	
133	 2HG	2302.917	708.680	-2387.484	 H	9	GLU9	-0.043	
134	 3HG	2303.735	707.243	-2388.078	 H	9	GLU9	-0.043	
135	   N	2301.985	705.301	-2390.223	N.am	10	HIS10	-0.416	
136	  CA	2302.873	704.788	-2391.263	C.3	10	HIS10	-0.058	
137	   C	2302.506	705.353	-2392.615	C.2	10	HIS10	0.597	
138	   O	2303.358	705.817	-2393.387	O.2	10	HIS10	-0.568	
139	  CB	2302.708	703.260	-2391.258	C.3	10	HIS10	-0.007	
140	  CG	2303.993	702.549	-2390.949	C.2	10	HIS10	0.187	
141	 CD2	2304.375	702.214	-2389.657	C.2	10	HIS10	-0.221	
142	 ND1	2304.945	702.142	-2391.882	N.2	10	HIS10	-0.543	
143	 CE1	2305.851	701.584	-2391.059	C.2	10	HIS10	0.163	
144	 NE2	2305.589	701.582	-2389.724	N.pl3	10	HIS10	-0.280	
145	   H	2301.455	704.666	-2389.644	 H	10	HIS10	0.272	
146	  HA	2303.892	705.146	-2391.039	 H	10	HIS10	0.136	
147	 2HB	2302.342	702.892	-2392.237	 H	10	HIS10	0.037	
148	 3HB	2301.952	702.923	-2390.517	 H	10	HIS10	0.037	
149	 2HD	2303.790	702.430	-2388.768	 H	10	HIS10	0.186	
150	 1HE	2306.742	701.162	-2391.506	 H	10	HIS10	0.144	
151	 2HE	2306.156	701.205	-2388.950	 H	10	HIS10	0.334	
152	   N	2301.268	705.352	-2392.977	N.am	11	VAL11	-0.416	
153	  CA	2300.913	705.898	-2394.284	C.3	11	VAL11	-0.087	
154	   C	2301.378	707.328	-2394.418	C.2	11	VAL11	0.597	
155	   O	2301.979	707.732	-2395.421	O.2	11	VAL11	-0.568	
156	  CB	2299.351	705.792	-2394.503	C.3	11	VAL11	0.299	
157	 CG1	2298.783	706.495	-2395.766	C.3	11	VAL11	-0.319	
158	 CG2	2298.826	704.338	-2394.575	C.3	11	VAL11	-0.319	
159	   H	2300.555	704.980	-2392.366	 H	11	VAL11	0.272	
160	  HA	2301.432	705.314	-2395.067	 H	11	VAL11	0.097	
161	  HB	2298.864	706.273	-2393.628	 H	11	VAL11	-0.030	
162	1HG1	2299.221	706.103	-2396.703	 H	11	VAL11	0.079	
163	2HG1	2297.684	706.388	-2395.848	 H	11	VAL11	0.079	
164	3HG1	2298.962	707.587	-2395.758	 H	11	VAL11	0.079	
165	1HG2	2299.116	703.751	-2393.685	 H	11	VAL11	0.079	
166	2HG2	2297.720	704.301	-2394.618	 H	11	VAL11	0.079	
167	3HG2	2299.208	703.796	-2395.462	 H	11	VAL11	0.079	
168	   N	2301.142	708.154	-2393.456	N.am	12	GLN12	-0.416	
169	  CA	2301.591	709.537	-2393.583	C.3	12	GLN12	-0.003	
170	   C	2303.081	709.603	-2393.822	C.2	12	GLN12	0.597	
171	   O	2303.568	710.311	-2394.701	O.2	12	GLN12	-0.568	
172	  CB	2301.200	710.305	-2392.301	C.3	12	GLN12	-0.004	
173	  CG	2301.562	711.827	-2392.271	C.3	12	GLN12	-0.064	
174	  CD	2301.260	712.641	-2391.007	C.2	12	GLN12	0.695	
175	 NE2	2300.693	712.066	-2389.977	N.pl3	12	GLN12	-0.941	
176	 OE1	2301.563	713.822	-2390.930	O.2	12	GLN12	-0.609	
177	   H	2300.653	707.849	-2392.626	 H	12	GLN12	0.272	
178	  HA	2301.091	709.993	-2394.459	 H	12	GLN12	0.085	
179	 2HB	2301.677	709.805	-2391.432	 H	12	GLN12	0.017	
180	 3HB	2300.110	710.199	-2392.138	 H	12	GLN12	0.017	
181	 2HG	2301.084	712.348	-2393.122	 H	12	GLN12	0.035	
182	 3HG	2302.645	711.968	-2392.437	 H	12	GLN12	0.035	
183	1HE2	2300.587	712.660	-2389.154	 H	12	GLN12	0.425	
184	2HE2	2300.529	711.062	-2390.080	 H	12	GLN12	0.425	
185	   N	2303.865	708.897	-2393.081	N.am	13	ARG13	-0.348	
186	  CA	2305.305	708.962	-2393.312	C.3	13	ARG13	-0.264	
187	   C	2305.641	708.589	-2394.737	C.2	13	ARG13	0.734	
188	   O	2306.410	709.260	-2395.421	O.2	13	ARG13	-0.589	
189	  CB	2306.019	708.023	-2392.297	C.3	13	ARG13	-0.001	
190	  CG	2307.564	708.176	-2392.217	C.3	13	ARG13	0.039	
191	  CD	2308.191	707.189	-2391.219	C.3	13	ARG13	0.049	
192	  NE	2309.668	707.396	-2391.169	N.pl3	13	ARG13	-0.530	
193	  CZ	2310.516	706.704	-2390.413	C.cat	13	ARG13	0.808	
194	 NH1	2310.151	705.741	-2389.615	N.pl3	13	ARG13	-0.863	
195	 NH2	2311.776	707.003	-2390.471	N.pl3	13	ARG13	-0.863	
196	   H	2303.489	708.307	-2392.352	 H	13	ARG13	0.275	
197	  HA	2305.630	710.008	-2393.154	 H	13	ARG13	0.156	
198	 2HB	2305.752	706.973	-2392.536	 H	13	ARG13	0.033	
199	 3HB	2305.594	708.191	-2391.287	 H	13	ARG13	0.033	
200	 2HG	2307.812	709.221	-2391.938	 H	13	ARG13	0.029	
201	 3HG	2308.014	708.019	-2393.219	 H	13	ARG13	0.029	
202	 2HD	2307.946	706.149	-2391.527	 H	13	ARG13	0.069	
203	 3HD	2307.735	707.336	-2390.216	 H	13	ARG13	0.069	
204	  HE	2310.119	708.117	-2391.740	 H	13	ARG13	0.346	
205	1HH1	2309.146	705.555	-2389.618	 H	13	ARG13	0.448	
206	2HH1	2310.864	705.258	-2389.066	 H	13	ARG13	0.448	
207	1HH2	2312.043	707.760	-2391.103	 H	13	ARG13	0.448	
208	2HH2	2312.411	706.462	-2389.882	 H	13	ARG13	0.448	
209	   N	2305.104	707.535	-2395.250	N.am	14	GLN14	-0.416	
210	  CA	2305.429	707.174	-2396.627	C.3	14	GLN14	-0.003	
211	   C	2305.099	708.303	-2397.575	C.2	14	GLN14	0.597	
212	   O	2305.889	708.679	-2398.438	O.2	14	GLN14	-0.568	
213	  CB	2304.650	705.893	-2397.000	C.3	14	GLN14	-0.004	
214	  CG	2304.906	705.323	-2398.434	C.3	14	GLN14	-0.064	
215	  CD	2304.122	704.089	-2398.898	C.2	14	GLN14	0.695	
216	 NE2	2303.265	703.516	-2398.091	N.pl3	14	GLN14	-0.941	
217	 OE1	2304.265	703.637	-2400.023	O.2	14	GLN14	-0.609	
218	   H	2304.469	706.966	-2394.708	 H	14	GLN14	0.272	
219	  HA	2306.516	706.984	-2396.698	 H	14	GLN14	0.085	
220	 2HB	2303.564	706.093	-2396.880	 H	14	GLN14	0.017	
221	 3HB	2304.885	705.103	-2396.260	 H	14	GLN14	0.017	
222	 2HG	2305.980	705.103	-2398.570	 H	14	GLN14	0.035	
223	 3HG	2304.685	706.091	-2399.198	 H	14	GLN14	0.035	
224	1HE2	2302.739	702.741	-2398.498	 H	14	GLN14	0.425	
225	2HE2	2303.143	703.983	-2397.190	 H	14	GLN14	0.425	
226	   N	2303.955	708.891	-2397.475	N.am	15	MET15	-0.416	
227	  CA	2303.637	709.982	-2398.392	C.3	15	MET15	-0.024	
228	   C	2304.668	711.080	-2398.305	C.2	15	MET15	0.597	
229	   O	2305.173	711.589	-2399.318	O.2	15	MET15	-0.568	
230	  CB	2302.216	710.530	-2398.085	C.3	15	MET15	0.034	
231	  CG	2301.052	709.533	-2398.276	C.3	15	MET15	0.002	
232	  SD	2299.480	710.401	-2398.165	S.3	15	MET15	-0.274	
233	  CE	2298.397	708.973	-2398.027	C.3	15	MET15	-0.054	
234	   H	2303.289	708.600	-2396.774	 H	15	MET15	0.272	
235	  HA	2303.663	709.592	-2399.426	 H	15	MET15	0.088	
236	 2HB	2302.015	711.407	-2398.729	 H	15	MET15	0.024	
237	 3HB	2302.180	710.924	-2397.050	 H	15	MET15	0.024	
238	 2HG	2301.094	708.748	-2397.496	 H	15	MET15	0.044	
239	 3HG	2301.116	709.016	-2399.251	 H	15	MET15	0.044	
240	 1HE	2298.540	708.283	-2398.877	 H	15	MET15	0.068	
241	 2HE	2298.604	708.422	-2397.092	 H	15	MET15	0.068	
242	 3HE	2297.339	709.290	-2398.011	 H	15	MET15	0.068	
243	   N	2305.036	711.503	-2397.143	N.am	16	ARG16	-0.348	
244	  CA	2306.034	712.566	-2397.060	C.3	16	ARG16	-0.264	
245	   C	2307.305	712.171	-2397.774	C.2	16	ARG16	0.734	
246	   O	2307.418	711.093	-2398.354	O.2	16	ARG16	-0.589	
247	  CB	2306.302	712.887	-2395.562	C.3	16	ARG16	-0.001	
248	  CG	2307.128	714.175	-2395.291	C.3	16	ARG16	0.039	
249	  CD	2307.376	714.397	-2393.790	C.3	16	ARG16	0.049	
250	  NE	2308.154	715.655	-2393.591	N.pl3	16	ARG16	-0.530	
251	  CZ	2308.544	716.140	-2392.416	C.cat	16	ARG16	0.808	
252	 NH1	2308.295	715.557	-2391.276	N.pl3	16	ARG16	-0.863	
253	 NH2	2309.209	717.251	-2392.398	N.pl3	16	ARG16	-0.863	
254	   H	2304.640	711.105	-2396.303	 H	16	ARG16	0.275	
255	  HA	2305.626	713.458	-2397.572	 H	16	ARG16	0.156	
256	 2HB	2306.797	712.011	-2395.094	 H	16	ARG16	0.033	
257	 3HB	2305.333	712.969	-2395.030	 H	16	ARG16	0.033	
258	 2HG	2306.599	715.046	-2395.730	 H	16	ARG16	0.029	
259	 3HG	2308.102	714.120	-2395.819	 H	16	ARG16	0.029	
260	 2HD	2307.924	713.522	-2393.375	 H	16	ARG16	0.069	
261	 3HD	2306.403	714.442	-2393.256	 H	16	ARG16	0.069	
262	  HE	2308.434	716.235	-2394.388	 H	16	ARG16	0.346	
263	1HH1	2307.768	714.685	-2391.359	 H	16	ARG16	0.448	
264	2HH1	2308.629	715.994	-2390.416	 H	16	ARG16	0.448	
265	1HH2	2309.396	717.693	-2393.301	 H	16	ARG16	0.448	
266	2HH2	2309.499	717.608	-2391.486	 H	16	ARG16	0.448	
@<TRIPOS>BOND
1 1 2 1
2 1 10 1
3 2 3 1
4 2 5 1
5 2 11 1
6 3 4 2
7 3 16 1
8 5 6 1
9 6 7 1
10 7 8 2
11 7 9 1
12 5 12 1
13 5 13 1
14 6 14 1
15 6 15 1
16 16 17 1
17 16 24 1
18 17 18 1
19 17 20 1
20 17 25 1
21 18 19 2
22 18 30 1
23 20 21 1
24 21 22 1
25 21 23 2
26 20 26 1
27 20 27 1
28 22 28 1
29 22 29 1
30 30 31 1
31 30 36 1
32 31 32 1
33 31 34 1
34 31 37 1
35 32 33 2
36 32 44 1
37 34 35 1
38 35 36 1
39 34 38 1
40 34 39 1
41 35 40 1
42 35 41 1
43 36 42 1
44 36 43 1
45 44 45 1
46 44 53 1
47 45 46 1
48 45 48 1
49 45 54 1
50 46 47 2
51 46 59 1
52 48 49 1
53 49 50 1
54 50 51 2
55 50 52 1
56 48 55 1
57 48 56 1
58 49 57 1
59 49 58 1
60 59 60 1
61 59 65 1
62 60 61 1
63 60 63 1
64 60 66 1
65 61 62 2
66 61 70 1
67 63 64 1
68 63 67 1
69 63 68 1
70 64 69 1
71 70 71 1
72 70 78 1
73 71 72 1
74 71 74 1
75 71 79 1
76 72 73 2
77 72 89 1
78 74 75 1
79 74 76 1
80 75 77 1
81 74 80 1
82 75 81 1
83 75 82 1
84 76 83 1
85 76 84 1
86 76 85 1
87 77 86 1
88 77 87 1
89 77 88 1
90 89 90 1
91 89 97 1
92 90 91 1
93 90 93 1
94 90 98 1
95 91 92 2
96 91 108 1
97 93 94 1
98 94 95 1
99 94 96 1
100 93 99 1
101 93 100 1
102 94 101 1
103 95 102 1
104 95 103 1
105 95 104 1
106 96 105 1
107 96 106 1
108 96 107 1
109 108 109 1
110 108 116 1
111 109 110 1
112 109 112 1
113 109 117 1
114 110 111 2
115 110 120 1
116 112 113 1
117 113 114 2
118 113 115 1
119 112 118 1
120 112 119 1
121 120 121 1
122 120 129 1
123 121 122 1
124 121 124 1
125 121 130 1
126 122 123 2
127 122 135 1
128 124 125 1
129 125 126 1
130 126 127 2
131 126 128 1
132 124 131 1
133 124 132 1
134 125 133 1
135 125 134 1
136 135 136 1
137 135 145 1
138 136 137 1
139 136 139 1
140 136 146 1
141 137 138 2
142 137 152 1
143 139 140 1
144 140 141 2
145 141 144 1
146 140 142 1
147 142 143 2
148 143 144 1
149 139 147 1
150 139 148 1
151 141 149 1
152 143 150 1
153 144 151 1
154 152 153 1
155 152 159 1
156 153 154 1
157 153 156 1
158 153 160 1
159 154 155 2
160 154 168 1
161 156 157 1
162 156 158 1
163 156 161 1
164 157 162 1
165 157 163 1
166 157 164 1
167 158 165 1
168 158 166 1
169 158 167 1
170 168 169 1
171 168 177 1
172 169 170 1
173 169 172 1
174 169 178 1
175 170 171 2
176 170 185 1
177 172 173 1
178 173 174 1
179 174 175 1
180 174 176 2
181 172 179 1
182 172 180 1
183 173 181 1
184 173 182 1
185 175 183 1
186 175 184 1
187 185 186 1
188 185 196 1
189 186 187 1
190 186 189 1
191 186 197 1
192 187 188 2
193 187 209 1
194 189 190 1
195 190 191 1
196 191 192 1
197 192 193 1
198 193 194 2
199 193 195 1
200 189 198 1
201 189 199 1
202 190 200 1
203 190 201 1
204 191 202 1
205 191 203 1
206 192 204 1
207 194 205 1
208 194 206 1
209 195 207 1
210 195 208 1
211 209 210 1
212 209 218 1
213 210 211 1
214 210 213 1
215 210 219 1
216 211 212 2
217 211 226 1
218 213 214 1
219 214 215 1
220 215 216 1
221 215 217 2
222 213 220 1
223 213 221 1
224 214 222 1
225 214 223 1
226 216 224 1
227 216 225 1
228 226 227 1
229 226 234 1
230 227 228 1
231 227 230 1
232 227 235 1
233 228 229 2
234 228 243 1
235 230 231 1
236 231 232 1
237 232 233 1
238 230 236 1
239 230 237 1
240 231 238 1
241 231 239 1
242 233 240 1
243 233 241 1
244 233 242 1
245 243 244 1
246 243 254 1
247 244 245 1
248 244 247 1
249 244 255 1
250 245 246 2
251 247 248 1
252 248 249 1
253 249 250 1
254 250 251 1
255 251 252 2
256 251 253 1
257 247 256 1
258 247 257 1
259 248 258 1
260 248 259 1
261 249 260 1
262 249 261 1
263 250 262 1
264 252 263 1
265 252 264 1
266 253 265 1
267 253 266 1
@<TRIPOS>SUBSTRUCTURE
1	GLU1	1	RESIDUE	1 ****	GLU
2	ASN2	16	RESIDUE	1 ****	ASN
3	PRO3	30	RESIDUE	1 ****	PRO
4	GLU4	44	RESIDUE	1 ****	GLU
5	SER5	59	RESIDUE	1 ****	SER
6	ILE6	70	RESIDUE	1 ****	ILE
7	LEU7	89	RESIDUE	1 ****	LEU
8	ASP8	108	RESIDUE	1 ****	ASP
9	GLU9	120	RESIDUE	1 ****	GLU
10	HIS10	135	RESIDUE	1 ****	HIS
11	VAL11	152	RESIDUE	1 ****	VAL
12	GLN12	168	RESIDUE	1 ****	GLN
13	ARG13	185	RESIDUE	1 ****	ARG
14	GLN14	209	RESIDUE	1 ****	GLN
15	MET15	226	RESIDUE	1 ****	MET
16	ARG16	243	RESIDUE	1 ****	ARG
