REMARK WARNING: 32 MAX_TORS EXCEEDED!!!
REMARK  68 active torsions:
REMARK  status: ('A' for Active; 'I' for Inactive)
REMARK    1  A    between atoms: N_1  and  CA_2 
REMARK    2  A    between atoms: CA_2  and  C_3 
REMARK    3  A    between atoms: CA_2  and  CB_5 
REMARK       I    between atoms: C_3  and  N_11 
REMARK    4  A    between atoms: CB_5  and  CG_6 
REMARK    5  A    between atoms: CG_6  and  CD_7 
REMARK    6  A    between atoms: N_11  and  CA_12 
REMARK    7  A    between atoms: CA_12  and  C_13 
REMARK    8  A    between atoms: CA_12  and  CB_15 
REMARK       I    between atoms: C_13  and  N_22 
REMARK    9  A    between atoms: CB_15  and  CG_16 
REMARK       I    between atoms: CG_16  and  ND2_17 
REMARK   10  A    between atoms: CA_23  and  C_24 
REMARK       I    between atoms: C_24  and  N_29 
REMARK   11  A    between atoms: N_29  and  CA_30 
REMARK   12  A    between atoms: CA_30  and  C_31 
REMARK   13  A    between atoms: CA_30  and  CB_33 
REMARK       I    between atoms: C_31  and  N_39 
REMARK   14  A    between atoms: CB_33  and  CG_34 
REMARK   15  A    between atoms: CG_34  and  CD_35 
REMARK   16  A    between atoms: N_39  and  CA_40 
REMARK   17  A    between atoms: CA_40  and  C_41 
REMARK   18  A    between atoms: CA_40  and  CB_43 
REMARK       I    between atoms: C_41  and  N_47 
REMARK   19  A    between atoms: CB_43  and  OG_44 
REMARK   20  A    between atoms: N_47  and  CA_48 
REMARK   21  A    between atoms: CA_48  and  C_49 
REMARK   22  A    between atoms: CA_48  and  CB_51 
REMARK       I    between atoms: C_49  and  N_56 
REMARK   23  A    between atoms: CB_51  and  CG1_52 
REMARK   24  A    between atoms: N_56  and  CA_57 
REMARK   25  A    between atoms: CA_57  and  C_58 
REMARK   26  A    between atoms: CA_57  and  CB_60 
REMARK       I    between atoms: C_58  and  N_65 
REMARK   27  A    between atoms: CB_60  and  CG_61 
REMARK   28  A    between atoms: N_65  and  CA_66 
REMARK   29  A    between atoms: CA_66  and  C_67 
REMARK   30  A    between atoms: CA_66  and  CB_69 
REMARK       I    between atoms: C_67  and  N_74 
REMARK   31  A    between atoms: CB_69  and  CG_70 
REMARK   32  A    between atoms: N_74  and  CA_75 
REMARK   33  A    between atoms: CA_75  and  C_76 
REMARK   34  A    between atoms: CA_75  and  CB_78 
REMARK       I    between atoms: C_76  and  N_84 
REMARK   35  A    between atoms: CB_78  and  CG_79 
REMARK   36  A    between atoms: CG_79  and  CD_80 
REMARK   37  A    between atoms: N_84  and  CA_85 
REMARK   38  A    between atoms: CA_85  and  C_86 
REMARK   39  A    between atoms: CA_85  and  CB_88 
REMARK       I    between atoms: C_86  and  N_96 
REMARK   40  A    between atoms: CB_88  and  CG_89 
REMARK   41  A    between atoms: N_96  and  CA_97 
REMARK   42  A    between atoms: CA_97  and  C_98 
REMARK   43  A    between atoms: CA_97  and  CB_100 
REMARK       I    between atoms: C_98  and  N_104 
REMARK   44  A    between atoms: N_104  and  CA_105 
REMARK   45  A    between atoms: CA_105  and  C_106 
REMARK   46  A    between atoms: CA_105  and  CB_108 
REMARK       I    between atoms: C_106  and  N_116 
REMARK   47  A    between atoms: CB_108  and  CG_109 
REMARK   48  A    between atoms: CG_109  and  CD_110 
REMARK       I    between atoms: CD_110  and  NE2_111 
REMARK   49  A    between atoms: N_116  and  CA_117 
REMARK   50  A    between atoms: CA_117  and  C_118 
REMARK   51  A    between atoms: CA_117  and  CB_120 
REMARK       I    between atoms: C_118  and  N_133 
REMARK   52  A    between atoms: CB_120  and  CG_121 
REMARK   53  A    between atoms: CG_121  and  CD_122 
REMARK   54  A    between atoms: CD_122  and  NE_123 
REMARK       I    between atoms: NE_123  and  CZ_124 
REMARK       I    between atoms: CZ_124  and  NH1_125 
REMARK       I    between atoms: CZ_124  and  NH2_126 
REMARK   55  A    between atoms: N_133  and  CA_134 
REMARK   56  A    between atoms: CA_134  and  C_135 
REMARK   57  A    between atoms: CA_134  and  CB_137 
REMARK       I    between atoms: C_135  and  N_141 
REMARK   58  A    between atoms: N_141  and  CA_142 
REMARK   59  A    between atoms: CA_142  and  C_143 
REMARK   60  A    between atoms: CA_142  and  CB_145 
REMARK       I    between atoms: C_143  and  N_150 
REMARK   61  A    between atoms: CB_145  and  CG_146 
REMARK   62  A    between atoms: CG_146  and  SD_147 
REMARK   63  A    between atoms: N_150  and  CA_151 
REMARK   64  A    between atoms: CA_151  and  C_152 
REMARK   65  A    between atoms: CA_151  and  CB_154 
REMARK   66  A    between atoms: CB_154  and  CG_155 
REMARK   67  A    between atoms: CG_155  and  CD_156 
REMARK   68  A    between atoms: CD_156  and  NE_157 
REMARK       I    between atoms: NE_157  and  CZ_158 
REMARK       I    between atoms: CZ_158  and  NH1_159 
ROOT
ATOM      1  C   GLU d   9     158.648  35.300-127.255  0.00  0.00     0.241 C 
ATOM      2  O   GLU d   9     159.312  36.055-127.981  0.00  0.00    -0.271 OA
ATOM      3  N   HIS d  10     158.745  34.025-127.425  0.00  0.00    -0.346 N 
ATOM      4  H   HIS d  10     158.214  33.389-126.846  0.00  0.00     0.163 HD
ENDROOT
BRANCH   1   5
ATOM      5  CA  GLU d   9     157.730  35.827-126.179  0.00  0.00     0.177 C 
BRANCH   5   6
ATOM      6  N   GLU d   9     156.427  35.169-126.235  0.00  0.00    -0.346 N 
ATOM      7  C   ASP d   8     155.747  35.219-127.330  0.00  0.00     0.241 C 
ATOM      8  O   ASP d   8     156.220  35.824-128.304  0.00  0.00    -0.271 OA
ATOM      9  H   GLU d   9     156.064  34.683-125.428  0.00  0.00     0.163 HD
BRANCH   7  10
ATOM     10  CA  ASP d   8     154.401  34.539-127.387  0.00  0.00     0.186 C 
BRANCH  10  11
ATOM     11  N   ASP d   8     154.472  33.189-126.834  0.00  0.00    -0.346 N 
ATOM     12  C   LEU d   7     155.309  32.349-127.340  0.00  0.00     0.241 C 
ATOM     13  O   LEU d   7     156.030  32.712-128.282  0.00  0.00    -0.271 OA
ATOM     14  H   ASP d   8     153.874  32.918-126.066  0.00  0.00     0.163 HD
BRANCH  12  15
ATOM     15  CA  LEU d   7     155.382  30.954-126.768  0.00  0.00     0.177 C 
BRANCH  15  16
ATOM     16  N   LEU d   7     155.437  30.990-125.309  0.00  0.00    -0.346 N 
ATOM     17  C   ILE d   6     156.383  31.653-124.736  0.00  0.00     0.241 C 
ATOM     18  O   ILE d   6     157.217  32.241-125.440  0.00  0.00    -0.271 OA
ATOM     19  H   LEU d   7     154.745  30.502-124.758  0.00  0.00     0.163 HD
BRANCH  17  20
ATOM     20  CA  ILE d   6     156.440  31.691-123.228  0.00  0.00     0.180 C 
BRANCH  20  21
ATOM     21  N   ILE d   6     155.127  31.985-122.661  0.00  0.00    -0.346 N 
ATOM     22  C   SER d   5     154.522  33.068-123.016  0.00  0.00     0.243 C 
ATOM     23  O   SER d   5     155.069  33.822-123.820  0.00  0.00    -0.271 OA
ATOM     24  H   ILE d   6     154.699  31.351-122.003  0.00  0.00     0.163 HD
BRANCH  22  25
ATOM     25  CA  SER d   5     153.163  33.374-122.430  0.00  0.00     0.200 C 
BRANCH  25  26
ATOM     26  N   SER d   5     152.294  32.202-122.488  0.00  0.00    -0.344 N 
ATOM     27  C   GLU d   4     152.066  31.649-123.631  0.00  0.00     0.241 C 
ATOM     28  O   GLU d   4     152.593  32.129-124.646  0.00  0.00    -0.271 OA
ATOM     29  H   SER d   5     151.877  31.830-121.647  0.00  0.00     0.163 HD
BRANCH  27  30
ATOM     30  CA  GLU d   4     151.168  30.438-123.692  0.00  0.00     0.177 C 
BRANCH  30  31
ATOM     31  N   GLU d   4     151.528  29.467-122.663  0.00  0.00    -0.346 N 
ATOM     32  C   PRO d   3     152.732  29.007-122.631  0.00  0.00     0.241 C 
ATOM     33  O   PRO d   3     153.556  29.391-123.462  0.00  0.00    -0.271 OA
ATOM     34  H   GLU d   4     150.844  29.160-121.986  0.00  0.00     0.163 HD
BRANCH  32  35
ATOM     35  CA  PRO d   3     153.131  27.984-121.554  0.00  0.00     0.179 C 
ATOM     36  N   PRO d   3     152.679  28.393-120.232  0.00  0.00    -0.337 N 
ATOM     37  C   ASN d   2     153.200  29.388-119.598  0.00  0.00     0.243 C 
ATOM     38  CD  PRO d   3     151.601  27.600-119.683  0.00  0.00     0.127 C 
ATOM     39  O   ASN d   2     154.115  30.019-120.127  0.00  0.00    -0.271 OA
ATOM     40  CG  PRO d   3     151.143  26.781-120.893  0.00  0.00     0.022 C 
ATOM     41  CB  PRO d   3     152.427  26.629-121.723  0.00  0.00     0.037 C 
BRANCH  37  42
ATOM     42  CA  ASN d   2     152.669  29.744-118.229  0.00  0.00     0.185 C 
BRANCH  42  43
ATOM     43  N   ASN d   2     151.210  29.782-118.229  0.00  0.00    -0.346 N 
ATOM     44  C   GLU d   1     150.605  30.568-119.055  0.00  0.00     0.242 C 
ATOM     45  O   GLU d   1     151.281  31.267-119.823  0.00  0.00    -0.271 OA
ATOM     46  H   ASN d   2     150.682  29.203-117.593  0.00  0.00     0.163 HD
BRANCH  44  47
ATOM     47  CA  GLU d   1     149.096  30.608-119.055  0.00  0.00     0.191 C 
BRANCH  47  48
ATOM     48  N   GLU d   1     148.537  29.259-119.055  0.00  0.00    -0.326 NA
ATOM     49  H   GLU d   1     149.164  28.380-119.055  0.00  0.00     0.180 HD
ENDBRANCH  47  48
BRANCH  47  50
ATOM     50  CB  GLU d   1     148.573  31.393-117.818  0.00  0.00     0.047 C 
BRANCH  50  51
ATOM     51  CG  GLU d   1     149.048  32.878-117.707  0.00  0.00     0.116 C 
BRANCH  51  52
ATOM     52  CD  GLU d   1     148.624  33.682-116.492  0.00  0.00     0.172 C 
ATOM     53  OE1 GLU d   1     147.896  33.180-115.614  0.00  0.00    -0.648 OA
ATOM     54  OE2 GLU d   1     149.054  34.852-116.420  0.00  0.00    -0.648 OA
ENDBRANCH  51  52
ENDBRANCH  50  51
ENDBRANCH  47  50
ENDBRANCH  44  47
ENDBRANCH  42  43
BRANCH  42  55
ATOM     55  CB  ASN d   2     153.161  28.721-117.165  0.00  0.00     0.137 C 
BRANCH  55  56
ATOM     56  CG  ASN d   2     152.698  28.945-115.722  0.00  0.00     0.217 C 
ATOM     57  ND2 ASN d   2     153.293  29.860-115.004  0.00  0.00    -0.370 N 
ATOM     58 21HD ASN d   2     152.812  30.033-114.117  0.00  0.00     0.159 HD
ATOM     59 22HD ASN d   2     153.994  30.431-115.473  0.00  0.00     0.159 HD
ATOM     60  OD1 ASN d   2     151.778  28.311-115.228  0.00  0.00    -0.274 OA
ENDBRANCH  55  56
ENDBRANCH  42  55
ENDBRANCH  37  42
ENDBRANCH  32  35
ENDBRANCH  30  31
BRANCH  30  61
ATOM     61  CB  GLU d   4     149.679  30.857-123.522  0.00  0.00     0.045 C 
BRANCH  61  62
ATOM     62  CG  GLU d   4     149.131  31.860-124.588  0.00  0.00     0.116 C 
BRANCH  62  63
ATOM     63  CD  GLU d   4     147.704  32.357-124.444  0.00  0.00     0.172 C 
ATOM     64  OE1 GLU d   4     146.978  31.958-123.513  0.00  0.00    -0.648 OA
ATOM     65  OE2 GLU d   4     147.314  33.186-125.292  0.00  0.00    -0.648 OA
ENDBRANCH  62  63
ENDBRANCH  61  62
ENDBRANCH  30  61
ENDBRANCH  27  30
ENDBRANCH  25  26
BRANCH  25  66
ATOM     66  CB  SER d   5     153.275  33.906-120.979  0.00  0.00     0.199 C 
BRANCH  66  67
ATOM     67  OG  SER d   5     154.007  33.027-120.118  0.00  0.00    -0.398 OA
ATOM     68  HG  SER d   5     153.518  32.202-120.068  0.00  0.00     0.209 HD
ENDBRANCH  66  67
ENDBRANCH  25  66
ENDBRANCH  22  25
ENDBRANCH  20  21
BRANCH  20  69
ATOM     69  CB  ILE d   6     157.040  30.355-122.628  0.00  0.00     0.013 C 
ATOM     70  CG2 ILE d   6     158.482  30.054-123.143  0.00  0.00     0.012 C 
BRANCH  69  71
ATOM     71  CG1 ILE d   6     157.060  30.293-121.067  0.00  0.00     0.002 C 
ATOM     72  CD1 ILE d   6     157.330  28.904-120.452  0.00  0.00     0.005 C 
ENDBRANCH  69  71
ENDBRANCH  20  69
ENDBRANCH  17  20
ENDBRANCH  15  16
BRANCH  15  73
ATOM     73  CB  LEU d   7     154.179  30.093-127.248  0.00  0.00     0.038 C 
BRANCH  73  74
ATOM     74  CG  LEU d   7     154.107  28.614-126.782  0.00  0.00    -0.020 C 
ATOM     75  CD1 LEU d   7     152.917  27.907-127.447  0.00  0.00     0.009 C 
ATOM     76  CD2 LEU d   7     155.401  27.835-127.073  0.00  0.00     0.009 C 
ENDBRANCH  73  74
ENDBRANCH  15  73
ENDBRANCH  12  15
ENDBRANCH  10  11
BRANCH  10  77
ATOM     77  CB  ASP d   8     153.323  35.377-126.645  0.00  0.00     0.147 C 
BRANCH  77  78
ATOM     78  CG  ASP d   8     153.103  36.798-127.186  0.00  0.00     0.175 C 
ATOM     79  OD1 ASP d   8     153.167  36.997-128.416  0.00  0.00    -0.648 OA
ATOM     80  OD2 ASP d   8     152.911  37.724-126.370  0.00  0.00    -0.648 OA
ENDBRANCH  77  78
ENDBRANCH  10  77
ENDBRANCH   7  10
ENDBRANCH   5   6
BRANCH   5  81
ATOM     81  CB  GLU d   9     158.363  35.620-124.774  0.00  0.00     0.045 C 
BRANCH  81  82
ATOM     82  CG  GLU d   9     159.746  36.312-124.545  0.00  0.00     0.116 C 
BRANCH  82  83
ATOM     83  CD  GLU d   9     160.448  36.099-123.216  0.00  0.00     0.172 C 
ATOM     84  OE1 GLU d   9     159.926  35.408-122.320  0.00  0.00    -0.648 OA
ATOM     85  OE2 GLU d   9     161.567  36.637-123.085  0.00  0.00    -0.648 OA
ENDBRANCH  82  83
ENDBRANCH  81  82
ENDBRANCH   5  81
ENDBRANCH   1   5
BRANCH   3  86
ATOM     86  CA  HIS d  10     159.633  33.514-128.465  0.00  0.00     0.182 C 
BRANCH  86  87
ATOM     87  C   HIS d  10     159.266  34.079-129.816  0.00  0.00     0.241 C 
ATOM     88  O   HIS d  10     160.118  34.544-130.588  0.00  0.00    -0.271 OA
ATOM     89  N   VAL d  11     158.028  34.077-130.179  0.00  0.00    -0.346 N 
ATOM     90  H   VAL d  11     157.315  33.704-129.569  0.00  0.00     0.163 HD
BRANCH  89  91
ATOM     91  CA  VAL d  11     157.673  34.623-131.486  0.00  0.00     0.180 C 
BRANCH  91  92
ATOM     92  C   VAL d  11     158.136  36.054-131.618  0.00  0.00     0.241 C 
ATOM     93  O   VAL d  11     158.737  36.460-132.621  0.00  0.00    -0.271 OA
ATOM     94  N   GLN d  12     157.899  36.880-130.656  0.00  0.00    -0.346 N 
ATOM     95  H   GLN d  12     157.410  36.573-129.827  0.00  0.00     0.163 HD
BRANCH  94  96
ATOM     96  CA  GLN d  12     158.347  38.263-130.783  0.00  0.00     0.177 C 
BRANCH  96  97
ATOM     97  C   GLN d  12     159.837  38.331-131.021  0.00  0.00     0.241 C 
ATOM     98  O   GLN d  12     160.324  39.040-131.899  0.00  0.00    -0.271 OA
ATOM     99  N   ARG d  13     160.622  37.624-130.280  0.00  0.00    -0.346 N 
ATOM    100  H   ARG d  13     160.246  37.034-129.551  0.00  0.00     0.163 HD
BRANCH  99 101
ATOM    101  CA  ARG d  13     162.062  37.691-130.511  0.00  0.00     0.176 C 
BRANCH 101 102
ATOM    102  C   ARG d  13     162.398  37.320-131.936  0.00  0.00     0.241 C 
ATOM    103  O   ARG d  13     163.167  37.992-132.620  0.00  0.00    -0.271 OA
ATOM    104  N   VAL d  14     161.863  36.265-132.450  0.00  0.00    -0.346 N 
ATOM    105  H   VAL d  14     161.228  35.696-131.908  0.00  0.00     0.163 HD
BRANCH 104 106
ATOM    106  CA  VAL d  14     162.188  35.906-133.828  0.00  0.00     0.180 C 
BRANCH 106 107
ATOM    107  C   VAL d  14     161.857  37.036-134.773  0.00  0.00     0.241 C 
ATOM    108  O   VAL d  14     162.650  37.418-135.643  0.00  0.00    -0.271 OA
ATOM    109  N   MET d  15     160.712  37.622-134.671  0.00  0.00    -0.346 N 
ATOM    110  H   MET d  15     160.047  37.328-133.970  0.00  0.00     0.163 HD
BRANCH 109 111
ATOM    111  CA  MET d  15     160.391  38.714-135.585  0.00  0.00     0.177 C 
BRANCH 111 112
ATOM    112  C   MET d  15     161.421  39.815-135.497  0.00  0.00     0.241 C 
ATOM    113  O   MET d  15     161.923  40.326-136.509  0.00  0.00    -0.271 OA
ATOM    114  N   ARG d  16     161.789  40.236-134.334  0.00  0.00    -0.347 N 
ATOM    115  H   ARG d  16     161.395  39.835-133.495  0.00  0.00     0.163 HD
BRANCH 114 116
ATOM    116  CA  ARG d  16     162.786  41.300-134.251  0.00  0.00     0.162 C 
BRANCH 116 117
ATOM    117  C   ARG d  16     164.056  40.908-134.967  0.00  0.00     0.219 C 
ATOM    118  O   ARG d  16     164.171  39.831-135.548  0.00  0.00    -0.287 OA
ENDBRANCH 116 117
BRANCH 116 119
ATOM    119  CB  ARG d  16     163.054  41.618-132.752  0.00  0.00     0.035 C 
BRANCH 119 120
ATOM    120  CG  ARG d  16     163.879  42.907-132.479  0.00  0.00     0.023 C 
BRANCH 120 121
ATOM    121  CD  ARG d  16     164.129  43.126-130.978  0.00  0.00     0.138 C 
BRANCH 121 122
ATOM    122  NE  ARG d  16     164.904  44.385-130.777  0.00  0.00    -0.227 N 
ATOM    123  CZ  ARG d  16     165.295  44.868-129.601  0.00  0.00     0.665 C 
ATOM    124  NH1 ARG d  16     165.048  44.283-128.462  0.00  0.00    -0.235 N 
ATOM    125  NH2 ARG d  16     165.959  45.980-129.582  0.00  0.00    -0.235 N 
ATOM    126 11HH ARG d  16     164.523  43.410-128.547  0.00  0.00     0.174 HD
ATOM    127 12HH ARG d  16     165.382  44.718-127.601  0.00  0.00     0.174 HD
ATOM    128 21HH ARG d  16     166.144  46.424-130.484  0.00  0.00     0.174 HD
ATOM    129 22HH ARG d  16     166.249  46.335-128.669  0.00  0.00     0.174 HD
ATOM    130  HE  ARG d  16     165.183  44.967-131.574  0.00  0.00     0.177 HD
ENDBRANCH 121 122
ENDBRANCH 120 121
ENDBRANCH 119 120
ENDBRANCH 116 119
ENDBRANCH 114 116
ENDBRANCH 111 112
BRANCH 111 131
ATOM    131  CB  MET d  15     158.970  39.259-135.276  0.00  0.00     0.045 C 
BRANCH 131 132
ATOM    132  CG  MET d  15     157.808  38.261-135.468  0.00  0.00     0.076 C 
BRANCH 132 133
ATOM    133  SD  MET d  15     156.234  39.126-135.353  0.00  0.00    -0.173 SA
ATOM    134  CE  MET d  15     155.153  37.696-135.217  0.00  0.00     0.089 C 
ENDBRANCH 132 133
ENDBRANCH 131 132
ENDBRANCH 111 131
ENDBRANCH 109 111
ENDBRANCH 106 107
BRANCH 106 135
ATOM    135  CB  VAL d  14     161.416  34.589-134.235  0.00  0.00     0.009 C 
ATOM    136  CG1 VAL d  14     161.505  34.171-135.728  0.00  0.00     0.012 C 
ATOM    137  CG2 VAL d  14     161.848  33.337-133.435  0.00  0.00     0.012 C 
ENDBRANCH 106 135
ENDBRANCH 104 106
ENDBRANCH 101 102
BRANCH 101 138
ATOM    138  CB  ARG d  13     162.776  36.752-129.497  0.00  0.00     0.036 C 
BRANCH 138 139
ATOM    139  CG  ARG d  13     164.321  36.906-129.416  0.00  0.00     0.023 C 
BRANCH 139 140
ATOM    140  CD  ARG d  13     164.948  35.918-128.418  0.00  0.00     0.138 C 
BRANCH 140 141
ATOM    141  NE  ARG d  13     166.425  36.126-128.368  0.00  0.00    -0.227 N 
ATOM    142  CZ  ARG d  13     167.273  35.435-127.612  0.00  0.00     0.665 C 
ATOM    143  NH1 ARG d  13     166.909  34.470-126.815  0.00  0.00    -0.235 N 
ATOM    144  NH2 ARG d  13     168.533  35.734-127.669  0.00  0.00    -0.235 N 
ATOM    145 11HH ARG d  13     165.903  34.283-126.818  0.00  0.00     0.174 HD
ATOM    146 12HH ARG d  13     167.622  33.987-126.267  0.00  0.00     0.174 HD
ATOM    147 21HH ARG d  13     168.800  36.492-128.300  0.00  0.00     0.174 HD
ATOM    148 22HH ARG d  13     169.168  35.193-127.081  0.00  0.00     0.174 HD
ATOM    149  HE  ARG d  13     166.876  36.848-128.938  0.00  0.00     0.177 HD
ENDBRANCH 140 141
ENDBRANCH 139 140
ENDBRANCH 138 139
ENDBRANCH 101 138
ENDBRANCH  99 101
ENDBRANCH  96  97
BRANCH  96 150
ATOM    150  CB  GLN d  12     157.956  39.030-129.500  0.00  0.00     0.044 C 
BRANCH 150 151
ATOM    151  CG  GLN d  12     158.315  40.552-129.469  0.00  0.00     0.105 C 
BRANCH 151 152
ATOM    152  CD  GLN d  12     158.012  41.365-128.204  0.00  0.00     0.215 C 
ATOM    153  NE2 GLN d  12     157.446  40.788-127.175  0.00  0.00    -0.370 N 
ATOM    154 21HE GLN d  12     157.338  41.382-126.351  0.00  0.00     0.159 HD
ATOM    155 22HE GLN d  12     157.283  39.784-127.278  0.00  0.00     0.159 HD
ATOM    156  OE1 GLN d  12     158.314  42.546-128.126  0.00  0.00    -0.274 OA
ENDBRANCH 151 152
ENDBRANCH 150 151
ENDBRANCH  96 150
ENDBRANCH  94  96
ENDBRANCH  91  92
BRANCH  91 157
ATOM    157  CB  VAL d  11     156.111  34.516-131.705  0.00  0.00     0.009 C 
ATOM    158  CG1 VAL d  11     155.542  35.220-132.968  0.00  0.00     0.012 C 
ATOM    159  CG2 VAL d  11     155.587  33.062-131.779  0.00  0.00     0.012 C 
ENDBRANCH  91 157
ENDBRANCH  89  91
ENDBRANCH  86  87
BRANCH  86 160
ATOM    160  CB  HIS d  10     159.470  31.985-128.461  0.00  0.00     0.095 C 
BRANCH 160 161
ATOM    161  CG  HIS d  10     160.756  31.275-128.153  0.00  0.00     0.053 A 
ATOM    162  CD2 HIS d  10     161.137  30.940-126.860  0.00  0.00     0.116 A 
ATOM    163  NE2 HIS d  10     162.352  30.309-126.927  0.00  0.00    -0.359 N 
ATOM    164  CE1 HIS d  10     162.614  30.312-128.262  0.00  0.00     0.207 A 
ATOM    165  2HE HIS d  10     162.919  29.932-126.154  0.00  0.00     0.166 HD
ATOM    166  ND1 HIS d  10     161.708  30.870-129.085  0.00  0.00    -0.247 NA
ENDBRANCH 160 161
ENDBRANCH  86 160
ENDBRANCH   3  86
TORSDOF 68
