REMARK WARNING: 32 MAX_TORS EXCEEDED!!!
REMARK  65 active torsions:
REMARK  status: ('A' for Active; 'I' for Inactive)
REMARK    1  A    between atoms: N_1  and  CA_2 
REMARK    2  A    between atoms: CA_2  and  C_3 
REMARK       I    between atoms: C_3  and  N_7 
REMARK    3  A    between atoms: N_7  and  CA_8 
REMARK    4  A    between atoms: CA_8  and  C_9 
REMARK    5  A    between atoms: CA_8  and  CB_11 
REMARK       I    between atoms: C_9  and  N_18 
REMARK    6  A    between atoms: CB_11  and  CG_12 
REMARK       I    between atoms: CG_12  and  ND2_13 
REMARK    7  A    between atoms: CA_19  and  C_20 
REMARK       I    between atoms: C_20  and  N_25 
REMARK    8  A    between atoms: N_25  and  CA_26 
REMARK    9  A    between atoms: CA_26  and  C_27 
REMARK   10  A    between atoms: CA_26  and  CB_29 
REMARK       I    between atoms: C_27  and  N_35 
REMARK   11  A    between atoms: CB_29  and  CG_30 
REMARK   12  A    between atoms: CG_30  and  CD_31 
REMARK   13  A    between atoms: N_35  and  CA_36 
REMARK   14  A    between atoms: CA_36  and  C_37 
REMARK   15  A    between atoms: CA_36  and  CB_39 
REMARK       I    between atoms: C_37  and  N_43 
REMARK   16  A    between atoms: CB_39  and  OG_40 
REMARK   17  A    between atoms: N_43  and  CA_44 
REMARK   18  A    between atoms: CA_44  and  C_45 
REMARK   19  A    between atoms: CA_44  and  CB_47 
REMARK       I    between atoms: C_45  and  N_52 
REMARK   20  A    between atoms: CB_47  and  CG1_48 
REMARK   21  A    between atoms: N_52  and  CA_53 
REMARK   22  A    between atoms: CA_53  and  C_54 
REMARK   23  A    between atoms: CA_53  and  CB_56 
REMARK       I    between atoms: C_54  and  N_61 
REMARK   24  A    between atoms: CB_56  and  CG_57 
REMARK   25  A    between atoms: N_61  and  CA_62 
REMARK   26  A    between atoms: CA_62  and  C_63 
REMARK   27  A    between atoms: CA_62  and  CB_65 
REMARK       I    between atoms: C_63  and  N_70 
REMARK   28  A    between atoms: CB_65  and  CG_66 
REMARK   29  A    between atoms: N_70  and  CA_71 
REMARK   30  A    between atoms: CA_71  and  C_72 
REMARK   31  A    between atoms: CA_71  and  CB_74 
REMARK       I    between atoms: C_72  and  N_80 
REMARK   32  A    between atoms: CB_74  and  CG_75 
REMARK   33  A    between atoms: CG_75  and  CD_76 
REMARK   34  A    between atoms: N_80  and  CA_81 
REMARK   35  A    between atoms: CA_81  and  C_82 
REMARK   36  A    between atoms: CA_81  and  CB_84 
REMARK       I    between atoms: C_82  and  N_92 
REMARK   37  A    between atoms: CB_84  and  CG_85 
REMARK   38  A    between atoms: N_92  and  CA_93 
REMARK   39  A    between atoms: CA_93  and  C_94 
REMARK   40  A    between atoms: CA_93  and  CB_96 
REMARK       I    between atoms: C_94  and  N_100 
REMARK   41  A    between atoms: N_100  and  CA_101 
REMARK   42  A    between atoms: CA_101  and  C_102 
REMARK   43  A    between atoms: CA_101  and  CB_104 
REMARK       I    between atoms: C_102  and  N_112 
REMARK   44  A    between atoms: CB_104  and  CG_105 
REMARK   45  A    between atoms: CG_105  and  CD_106 
REMARK       I    between atoms: CD_106  and  NE2_107 
REMARK   46  A    between atoms: N_112  and  CA_113 
REMARK   47  A    between atoms: CA_113  and  C_114 
REMARK   48  A    between atoms: CA_113  and  CB_116 
REMARK       I    between atoms: C_114  and  N_129 
REMARK   49  A    between atoms: CB_116  and  CG_117 
REMARK   50  A    between atoms: CG_117  and  CD_118 
REMARK   51  A    between atoms: CD_118  and  NE_119 
REMARK       I    between atoms: NE_119  and  CZ_120 
REMARK       I    between atoms: CZ_120  and  NH1_121 
REMARK       I    between atoms: CZ_120  and  NH2_122 
REMARK   52  A    between atoms: N_129  and  CA_130 
REMARK   53  A    between atoms: CA_130  and  C_131 
REMARK   54  A    between atoms: CA_130  and  CB_133 
REMARK       I    between atoms: C_131  and  N_137 
REMARK   55  A    between atoms: N_137  and  CA_138 
REMARK   56  A    between atoms: CA_138  and  C_139 
REMARK   57  A    between atoms: CA_138  and  CB_141 
REMARK       I    between atoms: C_139  and  N_146 
REMARK   58  A    between atoms: CB_141  and  CG_142 
REMARK   59  A    between atoms: CG_142  and  SD_143 
REMARK   60  A    between atoms: N_146  and  CA_147 
REMARK   61  A    between atoms: CA_147  and  C_148 
REMARK   62  A    between atoms: CA_147  and  CB_150 
REMARK   63  A    between atoms: CB_150  and  CG_151 
REMARK   64  A    between atoms: CG_151  and  CD_152 
REMARK   65  A    between atoms: CD_152  and  NE_153 
REMARK       I    between atoms: NE_153  and  CZ_154 
REMARK       I    between atoms: CZ_154  and  NH1_155 
ROOT
ATOM      1  C   GLU d   9       9.932   3.887  -8.690  0.00  0.00     0.241 C 
ATOM      2  O   GLU d   9      10.661   4.580  -9.415  0.00  0.00    -0.271 OA
ATOM      3  N   HIS d  10       9.915   2.608  -8.859  0.00  0.00    -0.346 N 
ATOM      4  H   HIS d  10       9.330   2.022  -8.281  0.00  0.00     0.163 HD
ENDROOT
BRANCH   3   5
ATOM      5  CA  HIS d  10      10.755   2.020  -9.900  0.00  0.00     0.182 C 
BRANCH   5   6
ATOM      6  C   HIS d  10      10.439   2.615 -11.251  0.00  0.00     0.241 C 
ATOM      7  O   HIS d  10      11.330   3.003 -12.022  0.00  0.00    -0.271 OA
ATOM      8  N   VAL d  11       9.206   2.724 -11.614  0.00  0.00    -0.346 N 
ATOM      9  H   VAL d  11       8.463   2.416 -11.004  0.00  0.00     0.163 HD
BRANCH   8  10
ATOM     10  CA  VAL d  11       8.901   3.299 -12.921  0.00  0.00     0.180 C 
BRANCH  10  11
ATOM     11  C   VAL d  11       9.491   4.683 -13.053  0.00  0.00     0.241 C 
ATOM     12  O   VAL d  11      10.125   5.034 -14.056  0.00  0.00    -0.271 OA
ATOM     13  N   GLN d  12       9.327   5.527 -12.090  0.00  0.00    -0.346 N 
ATOM     14  H   GLN d  12       8.813   5.265 -11.261  0.00  0.00     0.163 HD
BRANCH  13  15
ATOM     15  CA  GLN d  12       9.897   6.865 -12.217  0.00  0.00     0.177 C 
BRANCH  15  16
ATOM     16  C   GLN d  12      11.387   6.800 -12.455  0.00  0.00     0.241 C 
ATOM     17  O   GLN d  12      11.935   7.462 -13.333  0.00  0.00    -0.271 OA
ATOM     18  N   ARG d  13      12.105   6.026 -11.714  0.00  0.00    -0.346 N 
ATOM     19  H   ARG d  13      11.678   5.472 -10.986  0.00  0.00     0.163 HD
BRANCH  18  20
ATOM     20  CA  ARG d  13      13.546   5.964 -11.945  0.00  0.00     0.176 C 
BRANCH  20  21
ATOM     21  C   ARG d  13      13.848   5.565 -13.370  0.00  0.00     0.241 C 
ATOM     22  O   ARG d  13      14.673   6.166 -14.053  0.00  0.00    -0.271 OA
ATOM     23  N   VAL d  14      13.221   4.562 -13.884  0.00  0.00    -0.346 N 
ATOM     24  H   VAL d  14      12.538   4.052 -13.343  0.00  0.00     0.163 HD
BRANCH  23  25
ATOM     25  CA  VAL d  14      13.513   4.176 -15.262  0.00  0.00     0.180 C 
BRANCH  25  26
ATOM     26  C   VAL d  14      13.284   5.331 -16.207  0.00  0.00     0.241 C 
ATOM     27  O   VAL d  14      14.109   5.640 -17.077  0.00  0.00    -0.271 OA
ATOM     28  N   MET d  15      12.196   6.015 -16.105  0.00  0.00    -0.346 N 
ATOM     29  H   MET d  15      11.508   5.782 -15.404  0.00  0.00     0.163 HD
BRANCH  28  30
ATOM     30  CA  MET d  15      11.974   7.132 -17.019  0.00  0.00     0.177 C 
BRANCH  30  31
ATOM     31  C   MET d  15      13.097   8.137 -16.931  0.00  0.00     0.241 C 
ATOM     32  O   MET d  15      13.643   8.601 -17.943  0.00  0.00    -0.271 OA
ATOM     33  N   ARG d  16      13.501   8.523 -15.769  0.00  0.00    -0.347 N 
ATOM     34  H   ARG d  16      13.073   8.160 -14.929  0.00  0.00     0.163 HD
BRANCH  33  35
ATOM     35  CA  ARG d  16      14.588   9.495 -15.685  0.00  0.00     0.162 C 
BRANCH  35  36
ATOM     36  C   ARG d  16      15.819   8.991 -16.401  0.00  0.00     0.219 C 
ATOM     37  O   ARG d  16      15.837   7.909 -16.982  0.00  0.00    -0.287 OA
ENDBRANCH  35  36
BRANCH  35  38
ATOM     38  CB  ARG d  16      14.884   9.787 -14.186  0.00  0.00     0.035 C 
BRANCH  38  39
ATOM     39  CG  ARG d  16      15.820  10.998 -13.913  0.00  0.00     0.023 C 
BRANCH  39  40
ATOM     40  CD  ARG d  16      16.088  11.194 -12.412  0.00  0.00     0.138 C 
BRANCH  40  41
ATOM     41  NE  ARG d  16      16.973  12.379 -12.210  0.00  0.00    -0.227 N 
ATOM     42  CZ  ARG d  16      17.405  12.825 -11.034  0.00  0.00     0.665 C 
ATOM     43  NH1 ARG d  16      17.106  12.265  -9.896  0.00  0.00    -0.235 N 
ATOM     44  NH2 ARG d  16      18.165  13.874 -11.016  0.00  0.00    -0.235 N 
ATOM     45 11HH ARG d  16      16.505  11.442  -9.981  0.00  0.00     0.174 HD
ATOM     46 12HH ARG d  16      17.478  12.669  -9.035  0.00  0.00     0.174 HD
ATOM     47 21HH ARG d  16      18.389  14.300 -11.917  0.00  0.00     0.174 HD
ATOM     48 22HH ARG d  16      18.485  14.202 -10.103  0.00  0.00     0.174 HD
ATOM     49  HE  ARG d  16      17.302  12.934 -13.007  0.00  0.00     0.177 HD
ENDBRANCH  40  41
ENDBRANCH  39  40
ENDBRANCH  38  39
ENDBRANCH  35  38
ENDBRANCH  33  35
ENDBRANCH  30  31
BRANCH  30  50
ATOM     50  CB  MET d  15      10.606   7.802 -16.710  0.00  0.00     0.045 C 
BRANCH  50  51
ATOM     51  CG  MET d  15       9.360   6.910 -16.902  0.00  0.00     0.076 C 
BRANCH  51  52
ATOM     52  SD  MET d  15       7.869   7.912 -16.788  0.00  0.00    -0.173 SA
ATOM     53  CE  MET d  15       6.666   6.584 -16.652  0.00  0.00     0.089 C 
ENDBRANCH  51  52
ENDBRANCH  50  51
ENDBRANCH  30  50
ENDBRANCH  28  30
ENDBRANCH  25  26
BRANCH  25  54
ATOM     54  CB  VAL d  14      12.627   2.932 -15.669  0.00  0.00     0.009 C 
ATOM     55  CG1 VAL d  14      12.679   2.508 -17.163  0.00  0.00     0.012 C 
ATOM     56  CG2 VAL d  14      12.946   1.646 -14.869  0.00  0.00     0.012 C 
ENDBRANCH  25  54
ENDBRANCH  23  25
ENDBRANCH  20  21
BRANCH  20  57
ATOM     57  CB  ARG d  13      14.173   4.966 -10.931  0.00  0.00     0.036 C 
BRANCH  57  58
ATOM     58  CG  ARG d  13      15.726   4.981 -10.849  0.00  0.00     0.023 C 
BRANCH  58  59
ATOM     59  CD  ARG d  13      16.263   3.942  -9.852  0.00  0.00     0.138 C 
BRANCH  59  60
ATOM     60  NE  ARG d  13      17.752   4.018  -9.801  0.00  0.00    -0.227 N 
ATOM     61  CZ  ARG d  13      18.536   3.253  -9.046  0.00  0.00     0.665 C 
ATOM     62  NH1 ARG d  13      18.086   2.325  -8.249  0.00  0.00    -0.235 N 
ATOM     63  NH2 ARG d  13      19.817   3.440  -9.102  0.00  0.00    -0.235 N 
ATOM     64 11HH ARG d  13      17.068   2.229  -8.252  0.00  0.00     0.174 HD
ATOM     65 12HH ARG d  13      18.754   1.781  -7.700  0.00  0.00     0.174 HD
ATOM     66 21HH ARG d  13      20.150   4.171  -9.733  0.00  0.00     0.174 HD
ATOM     67 22HH ARG d  13      20.401   2.844  -8.514  0.00  0.00     0.174 HD
ATOM     68  HE  ARG d  13      18.266   4.697 -10.371  0.00  0.00     0.177 HD
ENDBRANCH  59  60
ENDBRANCH  58  59
ENDBRANCH  57  58
ENDBRANCH  20  57
ENDBRANCH  18  20
ENDBRANCH  15  16
BRANCH  15  69
ATOM     69  CB  GLN d  12       9.575   7.663 -10.935  0.00  0.00     0.044 C 
BRANCH  69  70
ATOM     70  CG  GLN d  12      10.068   9.147 -10.903  0.00  0.00     0.105 C 
BRANCH  70  71
ATOM     71  CD  GLN d  12       9.839   9.984  -9.638  0.00  0.00     0.215 C 
ATOM     72  NE2 GLN d  12       9.223   9.460  -8.609  0.00  0.00    -0.370 N 
ATOM     73 21HE GLN d  12       9.169  10.062  -7.786  0.00  0.00     0.159 HD
ATOM     74 22HE GLN d  12       8.971   8.475  -8.713  0.00  0.00     0.159 HD
ATOM     75  OE1 GLN d  12      10.244  11.134  -9.560  0.00  0.00    -0.274 OA
ENDBRANCH  70  71
ENDBRANCH  69  70
ENDBRANCH  15  69
ENDBRANCH  13  15
ENDBRANCH  10  11
BRANCH  10  76
ATOM     76  CB  VAL d  11       7.337   3.332 -13.140  0.00  0.00     0.009 C 
ATOM     77  CG1 VAL d  11       6.833   4.083 -14.403  0.00  0.00     0.012 C 
ATOM     78  CG2 VAL d  11       6.686   1.930 -13.214  0.00  0.00     0.012 C 
ENDBRANCH  10  76
ENDBRANCH   8  10
ENDBRANCH   5   6
BRANCH   5  79
ATOM     79  CB  HIS d  10      10.456   0.512  -9.895  0.00  0.00     0.095 C 
BRANCH  79  80
ATOM     80  CG  HIS d  10      11.674  -0.309  -9.587  0.00  0.00     0.053 A 
ATOM     81  CD2 HIS d  10      12.023  -0.677  -8.294  0.00  0.00     0.116 A 
ATOM     82  NE2 HIS d  10      13.177  -1.414  -8.361  0.00  0.00    -0.359 N 
ATOM     83  CE1 HIS d  10      13.439  -1.434  -9.696  0.00  0.00     0.207 A 
ATOM     84  2HE HIS d  10      13.708  -1.840  -7.588  0.00  0.00     0.166 HD
ATOM     85  ND1 HIS d  10      12.586  -0.798 -10.519  0.00  0.00    -0.247 NA
ENDBRANCH  79  80
ENDBRANCH   5  79
ENDBRANCH   3   5
BRANCH   1  86
ATOM     86  CA  GLU d   9       9.064   4.494  -7.614  0.00  0.00     0.177 C 
BRANCH  86  87
ATOM     87  N   GLU d   9       7.709   3.954  -7.669  0.00  0.00    -0.346 N 
ATOM     88  C   ASP d   8       7.036   4.064  -8.765  0.00  0.00     0.241 C 
ATOM     89  O   ASP d   8       7.561   4.625  -9.739  0.00  0.00    -0.271 OA
ATOM     90  H   GLU d   9       7.304   3.502  -6.862  0.00  0.00     0.163 HD
BRANCH  88  91
ATOM     91  CA  ASP d   8       5.635   3.507  -8.822  0.00  0.00     0.186 C 
BRANCH  91  92
ATOM     92  N   ASP d   8       5.585   2.156  -8.269  0.00  0.00    -0.346 N 
ATOM     93  C   LEU d   7       6.344   1.244  -8.775  0.00  0.00     0.241 C 
ATOM     94  O   LEU d   7       7.094   1.542  -9.717  0.00  0.00    -0.271 OA
ATOM     95  H   ASP d   8       4.965   1.939  -7.501  0.00  0.00     0.163 HD
BRANCH  93  96
ATOM     96  CA  LEU d   7       6.293  -0.152  -8.203  0.00  0.00     0.177 C 
BRANCH  96  97
ATOM     97  N   LEU d   7       6.350  -0.121  -6.744  0.00  0.00    -0.346 N 
ATOM     98  C   ILE d   6       7.351   0.456  -6.171  0.00  0.00     0.241 C 
ATOM     99  O   ILE d   6       8.235   0.968  -6.874  0.00  0.00    -0.271 OA
ATOM    100  H   LEU d   7       5.618  -0.545  -6.193  0.00  0.00     0.163 HD
BRANCH  98 101
ATOM    101  CA  ILE d   6       7.411   0.489  -4.663  0.00  0.00     0.180 C 
BRANCH 101 102
ATOM    102  N   ILE d   6       6.130   0.899  -4.097  0.00  0.00    -0.346 N 
ATOM    103  C   SER d   5       5.623   2.031  -4.451  0.00  0.00     0.243 C 
ATOM    104  O   SER d   5       6.235   2.733  -5.256  0.00  0.00    -0.271 OA
ATOM    105  H   ILE d   6       5.647   0.305  -3.438  0.00  0.00     0.163 HD
BRANCH 103 106
ATOM    106  CA  SER d   5       4.297   2.456  -3.865  0.00  0.00     0.200 C 
BRANCH 106 107
ATOM    107  N   SER d   5       3.327   1.367  -3.924  0.00  0.00    -0.344 N 
ATOM    108  C   GLU d   4       3.051   0.837  -5.067  0.00  0.00     0.241 C 
ATOM    109  O   GLU d   4       3.618   1.267  -6.081  0.00  0.00    -0.271 OA
ATOM    110  H   SER d   5       2.878   1.034  -3.082  0.00  0.00     0.163 HD
BRANCH 108 111
ATOM    111  CA  GLU d   4       2.048  -0.290  -5.128  0.00  0.00     0.177 C 
BRANCH 111 112
ATOM    112  N   GLU d   4       2.320  -1.289  -4.099  0.00  0.00    -0.346 N 
ATOM    113  C   PRO d   3       3.479  -1.854  -4.066  0.00  0.00     0.241 C 
ATOM    114  O   PRO d   3       4.334  -1.546  -4.898  0.00  0.00    -0.271 OA
ATOM    115  H   GLU d   4       1.612  -1.534  -3.422  0.00  0.00     0.163 HD
BRANCH 113 116
ATOM    116  CA  PRO d   3       3.785  -2.909  -2.989  0.00  0.00     0.179 C 
ATOM    117  N   PRO d   3       3.371  -2.461  -1.668  0.00  0.00    -0.337 N 
ATOM    118  C   ASN d   2       3.979  -1.516  -1.034  0.00  0.00     0.243 C 
ATOM    119  CD  PRO d   3       2.227  -3.155  -1.119  0.00  0.00     0.127 C 
ATOM    120  O   ASN d   2       4.946  -0.970  -1.562  0.00  0.00    -0.271 OA
ATOM    121  CG  PRO d   3       1.698  -3.930  -2.329  0.00  0.00     0.022 C 
ATOM    122  CB  PRO d   3       2.963  -4.196  -3.159  0.00  0.00     0.037 C 
BRANCH 118 123
ATOM    123  CA  ASN d   2       3.481  -1.115   0.335  0.00  0.00     0.185 C 
BRANCH 123 124
ATOM    124  N   ASN d   2       2.031  -0.947   0.335  0.00  0.00    -0.346 N 
ATOM    125  C   ALA d   1       1.499  -0.110  -0.491  0.00  0.00     0.242 C 
ATOM    126  O   ALA d   1       2.233   0.524  -1.257  0.00  0.00    -0.271 OA
ATOM    127  H   ASN d   2       1.453  -1.477   0.971  0.00  0.00     0.163 HD
BRANCH 125 128
ATOM    128  CA  ALA d   1      -0.001   0.064  -0.491  0.00  0.00     0.186 C 
ATOM    129  CB  ALA d   1      -0.509   0.856   0.727  0.00  0.00     0.044 C 
BRANCH 128 130
ATOM    130  N   ALA d   1      -0.677  -1.230  -0.491  0.00  0.00    -0.327 NA
ATOM    131  H   ALA d   1      -0.131  -2.162  -0.491  0.00  0.00     0.180 HD
ENDBRANCH 128 130
ENDBRANCH 125 128
ENDBRANCH 123 124
BRANCH 123 132
ATOM    132  CB  ASN d   2       3.880  -2.178   1.399  0.00  0.00     0.137 C 
BRANCH 132 133
ATOM    133  CG  ASN d   2       3.439  -1.914   2.843  0.00  0.00     0.217 C 
ATOM    134  ND2 ASN d   2       4.112  -1.055   3.561  0.00  0.00    -0.370 N 
ATOM    135 21HD ASN d   2       3.648  -0.840   4.447  0.00  0.00     0.159 HD
ATOM    136 22HD ASN d   2       4.862  -0.548   3.092  0.00  0.00     0.159 HD
ATOM    137  OD1 ASN d   2       2.465  -2.463   3.337  0.00  0.00    -0.274 OA
ENDBRANCH 132 133
ENDBRANCH 123 132
ENDBRANCH 118 123
ENDBRANCH 113 116
ENDBRANCH 111 112
BRANCH 111 138
ATOM    138  CB  GLU d   4       0.603   0.259  -4.958  0.00  0.00     0.045 C 
BRANCH 138 139
ATOM    139  CG  GLU d   4       0.146   1.308  -6.024  0.00  0.00     0.116 C 
BRANCH 139 140
ATOM    140  CD  GLU d   4      -1.231   1.929  -5.880  0.00  0.00     0.172 C 
ATOM    141  OE1 GLU d   4      -1.989   1.597  -4.949  0.00  0.00    -0.648 OA
ATOM    142  OE2 GLU d   4      -1.545   2.790  -6.729  0.00  0.00    -0.648 OA
ENDBRANCH 139 140
ENDBRANCH 138 139
ENDBRANCH 111 138
ENDBRANCH 108 111
ENDBRANCH 106 107
BRANCH 106 143
ATOM    143  CB  SER d   5       4.455   2.977  -2.415  0.00  0.00     0.199 C 
BRANCH 143 144
ATOM    144  OG  SER d   5       5.106   2.036  -1.554  0.00  0.00    -0.398 OA
ATOM    145  HG  SER d   5       4.546   1.258  -1.503  0.00  0.00     0.209 HD
ENDBRANCH 143 144
ENDBRANCH 106 143
ENDBRANCH 103 106
ENDBRANCH 101 102
BRANCH 101 146
ATOM    146  CB  ILE d   6       7.890  -0.896  -4.063  0.00  0.00     0.013 C 
ATOM    147  CG2 ILE d   6       9.299  -1.324  -4.578  0.00  0.00     0.012 C 
BRANCH 146 148
ATOM    148  CG1 ILE d   6       7.904  -0.959  -2.502  0.00  0.00     0.002 C 
ATOM    149  CD1 ILE d   6       8.049  -2.367  -1.887  0.00  0.00     0.005 C 
ENDBRANCH 146 148
ENDBRANCH 101 146
ENDBRANCH  98 101
ENDBRANCH  96  97
BRANCH  96 150
ATOM    150  CB  LEU d   7       5.018  -0.902  -8.683  0.00  0.00     0.038 C 
BRANCH 150 151
ATOM    151  CG  LEU d   7       4.814  -2.369  -8.217  0.00  0.00    -0.020 C 
ATOM    152  CD1 LEU d   7       3.566  -2.966  -8.883  0.00  0.00     0.009 C 
ATOM    153  CD2 LEU d   7       6.033  -3.260  -8.508  0.00  0.00     0.009 C 
ENDBRANCH 150 151
ENDBRANCH  96 150
ENDBRANCH  93  96
ENDBRANCH  91  92
BRANCH  91 154
ATOM    154  CB  ASP d   8       4.635   4.438  -8.081  0.00  0.00     0.147 C 
BRANCH 154 155
ATOM    155  CG  ASP d   8       4.543   5.872  -8.621  0.00  0.00     0.175 C 
ATOM    156  OD1 ASP d   8       4.625   6.065  -9.852  0.00  0.00    -0.648 OA
ATOM    157  OD2 ASP d   8       4.434   6.812  -7.805  0.00  0.00    -0.648 OA
ENDBRANCH 154 155
ENDBRANCH  91 154
ENDBRANCH  88  91
ENDBRANCH  86  87
BRANCH  86 158
ATOM    158  CB  GLU d   9       9.677   4.231  -6.208  0.00  0.00     0.045 C 
BRANCH 158 159
ATOM    159  CG  GLU d   9      11.115   4.797  -5.979  0.00  0.00     0.116 C 
BRANCH 159 160
ATOM    160  CD  GLU d   9      11.795   4.523  -4.651  0.00  0.00     0.172 C 
ATOM    161  OE1 GLU d   9      11.215   3.881  -3.754  0.00  0.00    -0.648 OA
ATOM    162  OE2 GLU d   9      12.958   4.959  -4.519  0.00  0.00    -0.648 OA
ENDBRANCH 159 160
ENDBRANCH 158 159
ENDBRANCH  86 158
ENDBRANCH   1  86
TORSDOF 65
