REMARK WARNING: 32 MAX_TORS EXCEEDED!!!
REMARK  68 active torsions:
REMARK  status: ('A' for Active; 'I' for Inactive)
REMARK    1  A    between atoms: N_1  and  CA_2 
REMARK    2  A    between atoms: CA_2  and  C_3 
REMARK    3  A    between atoms: CA_2  and  CB_5 
REMARK       I    between atoms: C_3  and  N_11 
REMARK    4  A    between atoms: CB_5  and  CG_6 
REMARK    5  A    between atoms: CG_6  and  CD_7 
REMARK    6  A    between atoms: N_11  and  CA_12 
REMARK    7  A    between atoms: CA_12  and  C_13 
REMARK    8  A    between atoms: CA_12  and  CB_15 
REMARK       I    between atoms: C_13  and  N_22 
REMARK    9  A    between atoms: CB_15  and  CG_16 
REMARK       I    between atoms: CG_16  and  ND2_17 
REMARK   10  A    between atoms: CA_23  and  C_24 
REMARK       I    between atoms: C_24  and  N_29 
REMARK   11  A    between atoms: N_29  and  CA_30 
REMARK   12  A    between atoms: CA_30  and  C_31 
REMARK   13  A    between atoms: CA_30  and  CB_33 
REMARK       I    between atoms: C_31  and  N_39 
REMARK   14  A    between atoms: CB_33  and  CG_34 
REMARK   15  A    between atoms: CG_34  and  CD_35 
REMARK   16  A    between atoms: N_39  and  CA_40 
REMARK   17  A    between atoms: CA_40  and  C_41 
REMARK   18  A    between atoms: CA_40  and  CB_43 
REMARK       I    between atoms: C_41  and  N_47 
REMARK   19  A    between atoms: CB_43  and  OG_44 
REMARK   20  A    between atoms: N_47  and  CA_48 
REMARK   21  A    between atoms: CA_48  and  C_49 
REMARK   22  A    between atoms: CA_48  and  CB_51 
REMARK       I    between atoms: C_49  and  N_56 
REMARK   23  A    between atoms: CB_51  and  CG1_52 
REMARK   24  A    between atoms: N_56  and  CA_57 
REMARK   25  A    between atoms: CA_57  and  C_58 
REMARK   26  A    between atoms: CA_57  and  CB_60 
REMARK       I    between atoms: C_58  and  N_65 
REMARK   27  A    between atoms: CB_60  and  CG_61 
REMARK   28  A    between atoms: N_65  and  CA_66 
REMARK   29  A    between atoms: CA_66  and  C_67 
REMARK   30  A    between atoms: CA_66  and  CB_69 
REMARK       I    between atoms: C_67  and  N_74 
REMARK   31  A    between atoms: CB_69  and  CG_70 
REMARK   32  A    between atoms: N_74  and  CA_75 
REMARK   33  A    between atoms: CA_75  and  C_76 
REMARK   34  A    between atoms: CA_75  and  CB_78 
REMARK       I    between atoms: C_76  and  N_84 
REMARK   35  A    between atoms: CB_78  and  CG_79 
REMARK   36  A    between atoms: CG_79  and  CD_80 
REMARK   37  A    between atoms: N_84  and  CA_85 
REMARK   38  A    between atoms: CA_85  and  C_86 
REMARK   39  A    between atoms: CA_85  and  CB_88 
REMARK       I    between atoms: C_86  and  N_96 
REMARK   40  A    between atoms: CB_88  and  CG_89 
REMARK   41  A    between atoms: N_96  and  CA_97 
REMARK   42  A    between atoms: CA_97  and  C_98 
REMARK   43  A    between atoms: CA_97  and  CB_100 
REMARK       I    between atoms: C_98  and  N_104 
REMARK   44  A    between atoms: N_104  and  CA_105 
REMARK   45  A    between atoms: CA_105  and  C_106 
REMARK   46  A    between atoms: CA_105  and  CB_108 
REMARK       I    between atoms: C_106  and  N_116 
REMARK   47  A    between atoms: CB_108  and  CG_109 
REMARK   48  A    between atoms: CG_109  and  CD_110 
REMARK       I    between atoms: CD_110  and  NE2_111 
REMARK   49  A    between atoms: N_116  and  CA_117 
REMARK   50  A    between atoms: CA_117  and  C_118 
REMARK   51  A    between atoms: CA_117  and  CB_120 
REMARK       I    between atoms: C_118  and  N_133 
REMARK   52  A    between atoms: CB_120  and  CG_121 
REMARK   53  A    between atoms: CG_121  and  CD_122 
REMARK   54  A    between atoms: CD_122  and  NE_123 
REMARK       I    between atoms: NE_123  and  CZ_124 
REMARK       I    between atoms: CZ_124  and  NH1_125 
REMARK       I    between atoms: CZ_124  and  NH2_126 
REMARK   55  A    between atoms: N_133  and  CA_134 
REMARK   56  A    between atoms: CA_134  and  C_135 
REMARK   57  A    between atoms: CA_134  and  CB_137 
REMARK       I    between atoms: C_135  and  N_141 
REMARK   58  A    between atoms: N_141  and  CA_142 
REMARK   59  A    between atoms: CA_142  and  C_143 
REMARK   60  A    between atoms: CA_142  and  CB_145 
REMARK       I    between atoms: C_143  and  N_150 
REMARK   61  A    between atoms: CB_145  and  CG_146 
REMARK   62  A    between atoms: CG_146  and  SD_147 
REMARK   63  A    between atoms: N_150  and  CA_151 
REMARK   64  A    between atoms: CA_151  and  C_152 
REMARK   65  A    between atoms: CA_151  and  CB_154 
REMARK   66  A    between atoms: CB_154  and  CG_155 
REMARK   67  A    between atoms: CG_155  and  CD_156 
REMARK   68  A    between atoms: CD_156  and  NE_157 
REMARK       I    between atoms: NE_157  and  CZ_158 
REMARK       I    between atoms: CZ_158  and  NH1_159 
ROOT
ATOM      1  C   GLU d   9    1330.510 389.693-1332.909  0.00  0.00     0.241 C 
ATOM      2  O   GLU d   9    1331.173 390.448-1333.634  0.00  0.00    -0.271 OA
ATOM      3  N   HIS d  10    1330.606 388.418-1333.079  0.00  0.00    -0.346 N 
ATOM      4  H   HIS d  10    1330.075 387.782-1332.501  0.00  0.00     0.163 HD
ENDROOT
BRANCH   1   5
ATOM      5  CA  GLU d   9    1329.591 390.220-1331.833  0.00  0.00     0.177 C 
BRANCH   5   6
ATOM      6  N   GLU d   9    1328.289 389.563-1331.888  0.00  0.00    -0.346 N 
ATOM      7  C   ASP d   8    1327.609 389.613-1332.984  0.00  0.00     0.241 C 
ATOM      8  O   ASP d   8    1328.082 390.218-1333.958  0.00  0.00    -0.271 OA
ATOM      9  H   GLU d   9    1327.926 389.076-1331.081  0.00  0.00     0.163 HD
BRANCH   7  10
ATOM     10  CA  ASP d   8    1326.262 388.933-1333.041  0.00  0.00     0.186 C 
BRANCH  10  11
ATOM     11  N   ASP d   8    1326.333 387.583-1332.488  0.00  0.00    -0.346 N 
ATOM     12  C   LEU d   7    1327.170 386.743-1332.995  0.00  0.00     0.241 C 
ATOM     13  O   LEU d   7    1327.891 387.106-1333.936  0.00  0.00    -0.271 OA
ATOM     14  H   ASP d   8    1325.735 387.312-1331.720  0.00  0.00     0.163 HD
BRANCH  12  15
ATOM     15  CA  LEU d   7    1327.243 385.347-1332.422  0.00  0.00     0.177 C 
BRANCH  15  16
ATOM     16  N   LEU d   7    1327.298 385.383-1330.964  0.00  0.00    -0.346 N 
ATOM     17  C   ILE d   6    1328.244 386.047-1330.390  0.00  0.00     0.241 C 
ATOM     18  O   ILE d   6    1329.078 386.635-1331.094  0.00  0.00    -0.271 OA
ATOM     19  H   LEU d   7    1326.606 384.896-1330.412  0.00  0.00     0.163 HD
BRANCH  17  20
ATOM     20  CA  ILE d   6    1328.301 386.084-1328.882  0.00  0.00     0.180 C 
BRANCH  20  21
ATOM     21  N   ILE d   6    1326.988 386.379-1328.316  0.00  0.00    -0.346 N 
ATOM     22  C   SER d   5    1326.383 387.462-1328.670  0.00  0.00     0.243 C 
ATOM     23  O   SER d   5    1326.930 388.215-1329.475  0.00  0.00    -0.271 OA
ATOM     24  H   ILE d   6    1326.560 385.744-1327.657  0.00  0.00     0.163 HD
BRANCH  22  25
ATOM     25  CA  SER d   5    1325.024 387.767-1328.084  0.00  0.00     0.200 C 
BRANCH  25  26
ATOM     26  N   SER d   5    1324.155 386.596-1328.143  0.00  0.00    -0.344 N 
ATOM     27  C   GLU d   4    1323.927 386.043-1329.286  0.00  0.00     0.241 C 
ATOM     28  O   GLU d   4    1324.453 386.523-1330.300  0.00  0.00    -0.271 OA
ATOM     29  H   SER d   5    1323.738 386.224-1327.301  0.00  0.00     0.163 HD
BRANCH  27  30
ATOM     30  CA  GLU d   4    1323.028 384.832-1329.347  0.00  0.00     0.177 C 
BRANCH  30  31
ATOM     31  N   GLU d   4    1323.388 383.861-1328.317  0.00  0.00    -0.346 N 
ATOM     32  C   PRO d   3    1324.593 383.401-1328.285  0.00  0.00     0.241 C 
ATOM     33  O   PRO d   3    1325.416 383.784-1329.117  0.00  0.00    -0.271 OA
ATOM     34  H   GLU d   4    1322.704 383.554-1327.641  0.00  0.00     0.163 HD
BRANCH  32  35
ATOM     35  CA  PRO d   3    1324.991 382.377-1327.208  0.00  0.00     0.179 C 
ATOM     36  N   PRO d   3    1324.540 382.787-1325.887  0.00  0.00    -0.337 N 
ATOM     37  C   ASN d   2    1325.061 383.782-1325.253  0.00  0.00     0.243 C 
ATOM     38  CD  PRO d   3    1323.462 381.993-1325.338  0.00  0.00     0.127 C 
ATOM     39  O   ASN d   2    1325.976 384.412-1325.781  0.00  0.00    -0.271 OA
ATOM     40  CG  PRO d   3    1323.004 381.175-1326.547  0.00  0.00     0.022 C 
ATOM     41  CB  PRO d   3    1324.287 381.023-1327.377  0.00  0.00     0.037 C 
BRANCH  37  42
ATOM     42  CA  ASN d   2    1324.530 384.137-1323.884  0.00  0.00     0.185 C 
BRANCH  42  43
ATOM     43  N   ASN d   2    1323.071 384.176-1323.884  0.00  0.00    -0.346 N 
ATOM     44  C   GLU d   1    1322.466 384.962-1324.709  0.00  0.00     0.242 C 
ATOM     45  O   GLU d   1    1323.142 385.661-1325.478  0.00  0.00    -0.271 OA
ATOM     46  H   ASN d   2    1322.542 383.596-1323.247  0.00  0.00     0.163 HD
BRANCH  44  47
ATOM     47  CA  GLU d   1    1320.957 385.002-1324.709  0.00  0.00     0.191 C 
BRANCH  47  48
ATOM     48  N   GLU d   1    1320.398 383.653-1324.709  0.00  0.00    -0.326 NA
ATOM     49  H   GLU d   1    1321.025 382.774-1324.709  0.00  0.00     0.180 HD
ENDBRANCH  47  48
BRANCH  47  50
ATOM     50  CB  GLU d   1    1320.434 385.787-1323.472  0.00  0.00     0.047 C 
BRANCH  50  51
ATOM     51  CG  GLU d   1    1320.909 387.272-1323.361  0.00  0.00     0.116 C 
BRANCH  51  52
ATOM     52  CD  GLU d   1    1320.485 388.076-1322.146  0.00  0.00     0.172 C 
ATOM     53  OE1 GLU d   1    1319.757 387.574-1321.268  0.00  0.00    -0.648 OA
ATOM     54  OE2 GLU d   1    1320.915 389.246-1322.074  0.00  0.00    -0.648 OA
ENDBRANCH  51  52
ENDBRANCH  50  51
ENDBRANCH  47  50
ENDBRANCH  44  47
ENDBRANCH  42  43
BRANCH  42  55
ATOM     55  CB  ASN d   2    1325.022 383.114-1322.819  0.00  0.00     0.137 C 
BRANCH  55  56
ATOM     56  CG  ASN d   2    1324.559 383.338-1321.376  0.00  0.00     0.217 C 
ATOM     57  ND2 ASN d   2    1325.153 384.253-1320.658  0.00  0.00    -0.370 N 
ATOM     58 21HD ASN d   2    1324.672 384.426-1319.771  0.00  0.00     0.159 HD
ATOM     59 22HD ASN d   2    1325.855 384.825-1321.127  0.00  0.00     0.159 HD
ATOM     60  OD1 ASN d   2    1323.638 382.704-1320.882  0.00  0.00    -0.274 OA
ENDBRANCH  55  56
ENDBRANCH  42  55
ENDBRANCH  37  42
ENDBRANCH  32  35
ENDBRANCH  30  31
BRANCH  30  61
ATOM     61  CB  GLU d   4    1321.540 385.250-1329.176  0.00  0.00     0.045 C 
BRANCH  61  62
ATOM     62  CG  GLU d   4    1320.992 386.254-1330.242  0.00  0.00     0.116 C 
BRANCH  62  63
ATOM     63  CD  GLU d   4    1319.565 386.751-1330.098  0.00  0.00     0.172 C 
ATOM     64  OE1 GLU d   4    1318.839 386.352-1329.167  0.00  0.00    -0.648 OA
ATOM     65  OE2 GLU d   4    1319.175 387.580-1330.946  0.00  0.00    -0.648 OA
ENDBRANCH  62  63
ENDBRANCH  61  62
ENDBRANCH  30  61
ENDBRANCH  27  30
ENDBRANCH  25  26
BRANCH  25  66
ATOM     66  CB  SER d   5    1325.136 388.299-1326.633  0.00  0.00     0.199 C 
BRANCH  66  67
ATOM     67  OG  SER d   5    1325.868 387.420-1325.773  0.00  0.00    -0.398 OA
ATOM     68  HG  SER d   5    1325.379 386.595-1325.722  0.00  0.00     0.209 HD
ENDBRANCH  66  67
ENDBRANCH  25  66
ENDBRANCH  22  25
ENDBRANCH  20  21
BRANCH  20  69
ATOM     69  CB  ILE d   6    1328.901 384.748-1328.283  0.00  0.00     0.013 C 
ATOM     70  CG2 ILE d   6    1330.342 384.446-1328.798  0.00  0.00     0.012 C 
BRANCH  69  71
ATOM     71  CG1 ILE d   6    1328.920 384.685-1326.722  0.00  0.00     0.002 C 
ATOM     72  CD1 ILE d   6    1329.190 383.296-1326.107  0.00  0.00     0.005 C 
ENDBRANCH  69  71
ENDBRANCH  20  69
ENDBRANCH  17  20
ENDBRANCH  15  16
BRANCH  15  73
ATOM     73  CB  LEU d   7    1326.040 384.487-1332.903  0.00  0.00     0.038 C 
BRANCH  73  74
ATOM     74  CG  LEU d   7    1325.967 383.008-1332.436  0.00  0.00    -0.020 C 
ATOM     75  CD1 LEU d   7    1324.777 382.302-1333.102  0.00  0.00     0.009 C 
ATOM     76  CD2 LEU d   7    1327.260 382.229-1332.728  0.00  0.00     0.009 C 
ENDBRANCH  73  74
ENDBRANCH  15  73
ENDBRANCH  12  15
ENDBRANCH  10  11
BRANCH  10  77
ATOM     77  CB  ASP d   8    1325.184 389.772-1332.299  0.00  0.00     0.147 C 
BRANCH  77  78
ATOM     78  CG  ASP d   8    1324.965 391.193-1332.839  0.00  0.00     0.175 C 
ATOM     79  OD1 ASP d   8    1325.029 391.392-1334.070  0.00  0.00    -0.648 OA
ATOM     80  OD2 ASP d   8    1324.773 392.118-1332.023  0.00  0.00    -0.648 OA
ENDBRANCH  77  78
ENDBRANCH  10  77
ENDBRANCH   7  10
ENDBRANCH   5   6
BRANCH   5  81
ATOM     81  CB  GLU d   9    1330.225 390.012-1330.428  0.00  0.00     0.045 C 
BRANCH  81  82
ATOM     82  CG  GLU d   9    1331.608 390.705-1330.198  0.00  0.00     0.116 C 
BRANCH  82  83
ATOM     83  CD  GLU d   9    1332.310 390.491-1328.870  0.00  0.00     0.172 C 
ATOM     84  OE1 GLU d   9    1331.788 389.799-1327.974  0.00  0.00    -0.648 OA
ATOM     85  OE2 GLU d   9    1333.429 391.029-1328.738  0.00  0.00    -0.648 OA
ENDBRANCH  82  83
ENDBRANCH  81  82
ENDBRANCH   5  81
ENDBRANCH   1   5
BRANCH   3  86
ATOM     86  CA  HIS d  10    1331.494 387.907-1334.120  0.00  0.00     0.182 C 
BRANCH  86  87
ATOM     87  C   HIS d  10    1331.127 388.473-1335.471  0.00  0.00     0.241 C 
ATOM     88  O   HIS d  10    1331.979 388.938-1336.243  0.00  0.00    -0.271 OA
ATOM     89  N   VAL d  11    1329.889 388.472-1335.834  0.00  0.00    -0.346 N 
ATOM     90  H   VAL d  11    1329.176 388.099-1335.223  0.00  0.00     0.163 HD
BRANCH  89  91
ATOM     91  CA  VAL d  11    1329.534 389.019-1337.140  0.00  0.00     0.180 C 
BRANCH  91  92
ATOM     92  C   VAL d  11    1329.998 390.450-1337.272  0.00  0.00     0.241 C 
ATOM     93  O   VAL d  11    1330.599 390.855-1338.275  0.00  0.00    -0.271 OA
ATOM     94  N   GLN d  12    1329.761 391.275-1336.309  0.00  0.00    -0.346 N 
ATOM     95  H   GLN d  12    1329.272 390.968-1335.480  0.00  0.00     0.163 HD
BRANCH  94  96
ATOM     96  CA  GLN d  12    1330.209 392.658-1336.435  0.00  0.00     0.177 C 
BRANCH  96  97
ATOM     97  C   GLN d  12    1331.699 392.725-1336.673  0.00  0.00     0.241 C 
ATOM     98  O   GLN d  12    1332.186 393.434-1337.551  0.00  0.00    -0.271 OA
ATOM     99  N   ARG d  13    1332.484 392.018-1335.933  0.00  0.00    -0.346 N 
ATOM    100  H   ARG d  13    1332.108 391.428-1335.205  0.00  0.00     0.163 HD
BRANCH  99 101
ATOM    101  CA  ARG d  13    1333.924 392.084-1336.164  0.00  0.00     0.176 C 
BRANCH 101 102
ATOM    102  C   ARG d  13    1334.260 391.714-1337.589  0.00  0.00     0.241 C 
ATOM    103  O   ARG d  13    1335.029 392.386-1338.273  0.00  0.00    -0.271 OA
ATOM    104  N   VAL d  14    1333.724 390.659-1338.104  0.00  0.00    -0.346 N 
ATOM    105  H   VAL d  14    1333.089 390.090-1337.563  0.00  0.00     0.163 HD
BRANCH 104 106
ATOM    106  CA  VAL d  14    1334.049 390.301-1339.482  0.00  0.00     0.180 C 
BRANCH 106 107
ATOM    107  C   VAL d  14    1333.719 391.432-1340.427  0.00  0.00     0.241 C 
ATOM    108  O   VAL d  14    1334.513 391.814-1341.296  0.00  0.00    -0.271 OA
ATOM    109  N   MET d  15    1332.574 392.017-1340.325  0.00  0.00    -0.346 N 
ATOM    110  H   MET d  15    1331.909 391.724-1339.624  0.00  0.00     0.163 HD
BRANCH 109 111
ATOM    111  CA  MET d  15    1332.254 393.111-1341.238  0.00  0.00     0.177 C 
BRANCH 111 112
ATOM    112  C   MET d  15    1333.284 394.211-1341.149  0.00  0.00     0.241 C 
ATOM    113  O   MET d  15    1333.787 394.722-1342.161  0.00  0.00    -0.271 OA
ATOM    114  N   ARG d  16    1333.653 394.631-1339.986  0.00  0.00    -0.347 N 
ATOM    115  H   ARG d  16    1333.258 394.230-1339.147  0.00  0.00     0.163 HD
BRANCH 114 116
ATOM    116  CA  ARG d  16    1334.649 395.695-1339.902  0.00  0.00     0.162 C 
BRANCH 116 117
ATOM    117  C   ARG d  16    1335.920 395.303-1340.618  0.00  0.00     0.219 C 
ATOM    118  O   ARG d  16    1336.034 394.227-1341.201  0.00  0.00    -0.287 OA
ENDBRANCH 116 117
BRANCH 116 119
ATOM    119  CB  ARG d  16    1334.918 396.012-1338.403  0.00  0.00     0.035 C 
BRANCH 119 120
ATOM    120  CG  ARG d  16    1335.743 397.301-1338.130  0.00  0.00     0.023 C 
BRANCH 120 121
ATOM    121  CD  ARG d  16    1335.993 397.519-1336.629  0.00  0.00     0.138 C 
BRANCH 121 122
ATOM    122  NE  ARG d  16    1336.769 398.778-1336.427  0.00  0.00    -0.227 N 
ATOM    123  CZ  ARG d  16    1337.160 399.260-1335.251  0.00  0.00     0.665 C 
ATOM    124  NH1 ARG d  16    1336.913 398.674-1334.112  0.00  0.00    -0.235 N 
ATOM    125  NH2 ARG d  16    1337.824 400.372-1335.232  0.00  0.00    -0.235 N 
ATOM    126 11HH ARG d  16    1336.387 397.802-1334.198  0.00  0.00     0.174 HD
ATOM    127 12HH ARG d  16    1337.247 399.109-1333.251  0.00  0.00     0.174 HD
ATOM    128 21HH ARG d  16    1338.010 400.816-1336.133  0.00  0.00     0.174 HD
ATOM    129 22HH ARG d  16    1338.114 400.727-1334.319  0.00  0.00     0.174 HD
ATOM    130  HE  ARG d  16    1337.048 399.359-1337.223  0.00  0.00     0.177 HD
ENDBRANCH 121 122
ENDBRANCH 120 121
ENDBRANCH 119 120
ENDBRANCH 116 119
ENDBRANCH 114 116
ENDBRANCH 111 112
BRANCH 111 131
ATOM    131  CB  MET d  15    1330.832 393.656-1340.928  0.00  0.00     0.045 C 
BRANCH 131 132
ATOM    132  CG  MET d  15    1329.671 392.658-1341.121  0.00  0.00     0.076 C 
BRANCH 132 133
ATOM    133  SD  MET d  15    1328.097 393.524-1341.006  0.00  0.00    -0.173 SA
ATOM    134  CE  MET d  15    1327.015 392.094-1340.871  0.00  0.00     0.089 C 
ENDBRANCH 132 133
ENDBRANCH 131 132
ENDBRANCH 111 131
ENDBRANCH 109 111
ENDBRANCH 106 107
BRANCH 106 135
ATOM    135  CB  VAL d  14    1333.277 388.984-1339.890  0.00  0.00     0.009 C 
ATOM    136  CG1 VAL d  14    1333.365 388.567-1341.384  0.00  0.00     0.012 C 
ATOM    137  CG2 VAL d  14    1333.708 387.731-1339.090  0.00  0.00     0.012 C 
ENDBRANCH 106 135
ENDBRANCH 104 106
ENDBRANCH 101 102
BRANCH 101 138
ATOM    138  CB  ARG d  13    1334.638 391.144-1335.151  0.00  0.00     0.036 C 
BRANCH 138 139
ATOM    139  CG  ARG d  13    1336.183 391.297-1335.069  0.00  0.00     0.023 C 
BRANCH 139 140
ATOM    140  CD  ARG d  13    1336.810 390.309-1334.073  0.00  0.00     0.138 C 
BRANCH 140 141
ATOM    141  NE  ARG d  13    1338.287 390.516-1334.022  0.00  0.00    -0.227 N 
ATOM    142  CZ  ARG d  13    1339.135 389.824-1333.267  0.00  0.00     0.665 C 
ATOM    143  NH1 ARG d  13    1338.770 388.859-1332.471  0.00  0.00    -0.235 N 
ATOM    144  NH2 ARG d  13    1340.394 390.123-1333.324  0.00  0.00    -0.235 N 
ATOM    145 11HH ARG d  13    1337.764 388.673-1332.474  0.00  0.00     0.174 HD
ATOM    146 12HH ARG d  13    1339.483 388.376-1331.922  0.00  0.00     0.174 HD
ATOM    147 21HH ARG d  13    1340.662 390.882-1333.955  0.00  0.00     0.174 HD
ATOM    148 22HH ARG d  13    1341.030 389.582-1332.736  0.00  0.00     0.174 HD
ATOM    149  HE  ARG d  13    1338.738 391.239-1334.592  0.00  0.00     0.177 HD
ENDBRANCH 140 141
ENDBRANCH 139 140
ENDBRANCH 138 139
ENDBRANCH 101 138
ENDBRANCH  99 101
ENDBRANCH  96  97
BRANCH  96 150
ATOM    150  CB  GLN d  12    1329.819 393.424-1335.152  0.00  0.00     0.044 C 
BRANCH 150 151
ATOM    151  CG  GLN d  12    1330.179 394.946-1335.120  0.00  0.00     0.105 C 
BRANCH 151 152
ATOM    152  CD  GLN d  12    1329.876 395.758-1333.854  0.00  0.00     0.215 C 
ATOM    153  NE2 GLN d  12    1329.309 395.181-1332.826  0.00  0.00    -0.370 N 
ATOM    154 21HE GLN d  12    1329.203 395.775-1332.002  0.00  0.00     0.159 HD
ATOM    155 22HE GLN d  12    1329.146 394.178-1332.930  0.00  0.00     0.159 HD
ATOM    156  OE1 GLN d  12    1330.178 396.939-1333.776  0.00  0.00    -0.274 OA
ENDBRANCH 151 152
ENDBRANCH 150 151
ENDBRANCH  96 150
ENDBRANCH  94  96
ENDBRANCH  91  92
BRANCH  91 157
ATOM    157  CB  VAL d  11    1327.972 388.912-1337.360  0.00  0.00     0.009 C 
ATOM    158  CG1 VAL d  11    1327.404 389.617-1338.622  0.00  0.00     0.012 C 
ATOM    159  CG2 VAL d  11    1327.448 387.458-1337.434  0.00  0.00     0.012 C 
ENDBRANCH  91 157
ENDBRANCH  89  91
ENDBRANCH  86  87
BRANCH  86 160
ATOM    160  CB  HIS d  10    1331.330 386.379-1334.116  0.00  0.00     0.095 C 
BRANCH 160 161
ATOM    161  CG  HIS d  10    1332.615 385.668-1333.809  0.00  0.00     0.053 A 
ATOM    162  CD2 HIS d  10    1332.996 385.332-1332.516  0.00  0.00     0.116 A 
ATOM    163  NE2 HIS d  10    1334.211 384.700-1332.584  0.00  0.00    -0.359 N 
ATOM    164  CE1 HIS d  10    1334.474 384.704-1333.919  0.00  0.00     0.207 A 
ATOM    165  2HE HIS d  10    1334.778 384.322-1331.811  0.00  0.00     0.166 HD
ATOM    166  ND1 HIS d  10    1333.567 385.263-1334.742  0.00  0.00    -0.247 NA
ENDBRANCH 160 161
ENDBRANCH  86 160
ENDBRANCH   3  86
TORSDOF 68
