REMARK WARNING: 32 MAX_TORS EXCEEDED!!!
REMARK  67 active torsions:
REMARK  status: ('A' for Active; 'I' for Inactive)
REMARK    1  A    between atoms: N_1  and  CA_2 
REMARK    2  A    between atoms: CA_2  and  C_3 
REMARK    3  A    between atoms: CA_2  and  CB_5 
REMARK       I    between atoms: C_3  and  N_11 
REMARK    4  A    between atoms: CB_5  and  CG_6 
REMARK    5  A    between atoms: CG_6  and  CD_7 
REMARK    6  A    between atoms: N_11  and  CA_12 
REMARK    7  A    between atoms: CA_12  and  C_13 
REMARK    8  A    between atoms: CA_12  and  CB_15 
REMARK       I    between atoms: C_13  and  N_22 
REMARK    9  A    between atoms: CB_15  and  CG_16 
REMARK       I    between atoms: CG_16  and  ND2_17 
REMARK   10  A    between atoms: CA_23  and  C_24 
REMARK       I    between atoms: C_24  and  N_29 
REMARK   11  A    between atoms: N_29  and  CA_30 
REMARK   12  A    between atoms: CA_30  and  C_31 
REMARK   13  A    between atoms: CA_30  and  CB_33 
REMARK       I    between atoms: C_31  and  N_39 
REMARK   14  A    between atoms: CB_33  and  CG_34 
REMARK   15  A    between atoms: CG_34  and  CD_35 
REMARK   16  A    between atoms: N_39  and  CA_40 
REMARK   17  A    between atoms: CA_40  and  C_41 
REMARK   18  A    between atoms: CA_40  and  CB_43 
REMARK       I    between atoms: C_41  and  N_47 
REMARK   19  A    between atoms: CB_43  and  OG_44 
REMARK   20  A    between atoms: N_47  and  CA_48 
REMARK   21  A    between atoms: CA_48  and  C_49 
REMARK   22  A    between atoms: CA_48  and  CB_51 
REMARK       I    between atoms: C_49  and  N_56 
REMARK   23  A    between atoms: CB_51  and  CG1_52 
REMARK   24  A    between atoms: N_56  and  CA_57 
REMARK   25  A    between atoms: CA_57  and  C_58 
REMARK   26  A    between atoms: CA_57  and  CB_60 
REMARK       I    between atoms: C_58  and  N_64 
REMARK   27  A    between atoms: N_64  and  CA_65 
REMARK   28  A    between atoms: CA_65  and  C_66 
REMARK   29  A    between atoms: CA_65  and  CB_68 
REMARK       I    between atoms: C_66  and  N_73 
REMARK   30  A    between atoms: CB_68  and  CG_69 
REMARK   31  A    between atoms: N_73  and  CA_74 
REMARK   32  A    between atoms: CA_74  and  C_75 
REMARK   33  A    between atoms: CA_74  and  CB_77 
REMARK       I    between atoms: C_75  and  N_83 
REMARK   34  A    between atoms: CB_77  and  CG_78 
REMARK   35  A    between atoms: CG_78  and  CD_79 
REMARK   36  A    between atoms: N_83  and  CA_84 
REMARK   37  A    between atoms: CA_84  and  C_85 
REMARK   38  A    between atoms: CA_84  and  CB_87 
REMARK       I    between atoms: C_85  and  N_95 
REMARK   39  A    between atoms: CB_87  and  CG_88 
REMARK   40  A    between atoms: N_95  and  CA_96 
REMARK   41  A    between atoms: CA_96  and  C_97 
REMARK   42  A    between atoms: CA_96  and  CB_99 
REMARK       I    between atoms: C_97  and  N_103 
REMARK   43  A    between atoms: N_103  and  CA_104 
REMARK   44  A    between atoms: CA_104  and  C_105 
REMARK   45  A    between atoms: CA_104  and  CB_107 
REMARK       I    between atoms: C_105  and  N_115 
REMARK   46  A    between atoms: CB_107  and  CG_108 
REMARK   47  A    between atoms: CG_108  and  CD_109 
REMARK       I    between atoms: CD_109  and  NE2_110 
REMARK   48  A    between atoms: N_115  and  CA_116 
REMARK   49  A    between atoms: CA_116  and  C_117 
REMARK   50  A    between atoms: CA_116  and  CB_119 
REMARK       I    between atoms: C_117  and  N_132 
REMARK   51  A    between atoms: CB_119  and  CG_120 
REMARK   52  A    between atoms: CG_120  and  CD_121 
REMARK   53  A    between atoms: CD_121  and  NE_122 
REMARK       I    between atoms: NE_122  and  CZ_123 
REMARK       I    between atoms: CZ_123  and  NH1_124 
REMARK       I    between atoms: CZ_123  and  NH2_125 
REMARK   54  A    between atoms: N_132  and  CA_133 
REMARK   55  A    between atoms: CA_133  and  C_134 
REMARK   56  A    between atoms: CA_133  and  CB_136 
REMARK       I    between atoms: C_134  and  N_140 
REMARK   57  A    between atoms: N_140  and  CA_141 
REMARK   58  A    between atoms: CA_141  and  C_142 
REMARK   59  A    between atoms: CA_141  and  CB_144 
REMARK       I    between atoms: C_142  and  N_149 
REMARK   60  A    between atoms: CB_144  and  CG_145 
REMARK   61  A    between atoms: CG_145  and  SD_146 
REMARK   62  A    between atoms: N_149  and  CA_150 
REMARK   63  A    between atoms: CA_150  and  C_151 
REMARK   64  A    between atoms: CA_150  and  CB_153 
REMARK   65  A    between atoms: CB_153  and  CG_154 
REMARK   66  A    between atoms: CG_154  and  CD_155 
REMARK   67  A    between atoms: CD_155  and  NE_156 
REMARK       I    between atoms: NE_156  and  CZ_157 
REMARK       I    between atoms: CZ_157  and  NH1_158 
ROOT
ATOM      1  C   GLU d   9    1059.703 300.115-1039.619  0.00  0.00     0.241 C 
ATOM      2  O   GLU d   9    1060.367 300.870-1040.345  0.00  0.00    -0.271 OA
ATOM      3  N   HIS d  10    1059.800 298.840-1039.788  0.00  0.00    -0.346 N 
ATOM      4  H   HIS d  10    1059.270 298.205-1039.209  0.00  0.00     0.163 HD
ENDROOT
BRANCH   3   5
ATOM      5  CA  HIS d  10    1060.688 298.329-1040.829  0.00  0.00     0.182 C 
BRANCH   5   6
ATOM      6  C   HIS d  10    1060.320 298.893-1042.180  0.00  0.00     0.241 C 
ATOM      7  O   HIS d  10    1061.172 299.358-1042.952  0.00  0.00    -0.271 OA
ATOM      8  N   VAL d  11    1059.082 298.891-1042.542  0.00  0.00    -0.346 N 
ATOM      9  H   VAL d  11    1058.370 298.518-1041.931  0.00  0.00     0.163 HD
BRANCH   8  10
ATOM     10  CA  VAL d  11    1058.726 299.437-1043.849  0.00  0.00     0.180 C 
BRANCH  10  11
ATOM     11  C   VAL d  11    1059.190 300.868-1043.982  0.00  0.00     0.241 C 
ATOM     12  O   VAL d  11    1059.790 301.273-1044.986  0.00  0.00    -0.271 OA
ATOM     13  N   GLN d  12    1058.953 301.693-1043.020  0.00  0.00    -0.346 N 
ATOM     14  H   GLN d  12    1058.465 301.387-1042.191  0.00  0.00     0.163 HD
BRANCH  13  15
ATOM     15  CA  GLN d  12    1059.400 303.077-1043.148  0.00  0.00     0.177 C 
BRANCH  15  16
ATOM     16  C   GLN d  12    1060.890 303.145-1043.386  0.00  0.00     0.241 C 
ATOM     17  O   GLN d  12    1061.377 303.853-1044.265  0.00  0.00    -0.271 OA
ATOM     18  N   ARG d  13    1061.676 302.439-1042.646  0.00  0.00    -0.346 N 
ATOM     19  H   ARG d  13    1061.300 301.849-1041.917  0.00  0.00     0.163 HD
BRANCH  18  20
ATOM     20  CA  ARG d  13    1063.116 302.505-1042.877  0.00  0.00     0.176 C 
BRANCH  20  21
ATOM     21  C   ARG d  13    1063.452 302.134-1044.302  0.00  0.00     0.241 C 
ATOM     22  O   ARG d  13    1064.219 302.806-1044.986  0.00  0.00    -0.271 OA
ATOM     23  N   VAL d  14    1062.916 301.079-1044.816  0.00  0.00    -0.346 N 
ATOM     24  H   VAL d  14    1062.282 300.510-1044.273  0.00  0.00     0.163 HD
BRANCH  23  25
ATOM     25  CA  VAL d  14    1063.241 300.719-1046.193  0.00  0.00     0.180 C 
BRANCH  25  26
ATOM     26  C   VAL d  14    1062.910 301.849-1047.139  0.00  0.00     0.241 C 
ATOM     27  O   VAL d  14    1063.703 302.230-1048.009  0.00  0.00    -0.271 OA
ATOM     28  N   MET d  15    1061.765 302.434-1047.037  0.00  0.00    -0.346 N 
ATOM     29  H   MET d  15    1061.100 302.141-1046.336  0.00  0.00     0.163 HD
BRANCH  28  30
ATOM     30  CA  MET d  15    1061.443 303.526-1047.952  0.00  0.00     0.177 C 
BRANCH  30  31
ATOM     31  C   MET d  15    1062.473 304.626-1047.865  0.00  0.00     0.241 C 
ATOM     32  O   MET d  15    1062.975 305.137-1048.878  0.00  0.00    -0.271 OA
ATOM     33  N   ARG d  16    1062.842 305.048-1046.703  0.00  0.00    -0.347 N 
ATOM     34  H   ARG d  16    1062.448 304.649-1045.863  0.00  0.00     0.163 HD
BRANCH  33  35
ATOM     35  CA  ARG d  16    1063.838 306.113-1046.620  0.00  0.00     0.162 C 
BRANCH  35  36
ATOM     36  C   ARG d  16    1065.109 305.720-1047.337  0.00  0.00     0.219 C 
ATOM     37  O   ARG d  16    1065.223 304.644-1047.917  0.00  0.00    -0.287 OA
ENDBRANCH  35  36
BRANCH  35  38
ATOM     38  CB  ARG d  16    1064.107 306.432-1045.122  0.00  0.00     0.035 C 
BRANCH  38  39
ATOM     39  CG  ARG d  16    1064.932 307.721-1044.850  0.00  0.00     0.023 C 
BRANCH  39  40
ATOM     40  CD  ARG d  16    1065.182 307.942-1043.349  0.00  0.00     0.138 C 
BRANCH  40  41
ATOM     41  NE  ARG d  16    1065.957 309.201-1043.149  0.00  0.00    -0.227 N 
ATOM     42  CZ  ARG d  16    1066.349 309.685-1041.974  0.00  0.00     0.665 C 
ATOM     43  NH1 ARG d  16    1066.102 309.101-1040.835  0.00  0.00    -0.235 N 
ATOM     44  NH2 ARG d  16    1067.012 310.798-1041.957  0.00  0.00    -0.235 N 
ATOM     45 11HH ARG d  16    1065.576 308.228-1040.919  0.00  0.00     0.174 HD
ATOM     46 12HH ARG d  16    1066.436 309.537-1039.974  0.00  0.00     0.174 HD
ATOM     47 21HH ARG d  16    1067.197 311.240-1042.859  0.00  0.00     0.174 HD
ATOM     48 22HH ARG d  16    1067.302 311.154-1041.044  0.00  0.00     0.174 HD
ATOM     49  HE  ARG d  16    1066.235 309.782-1043.947  0.00  0.00     0.177 HD
ENDBRANCH  40  41
ENDBRANCH  39  40
ENDBRANCH  38  39
ENDBRANCH  35  38
ENDBRANCH  33  35
ENDBRANCH  30  31
BRANCH  30  50
ATOM     50  CB  MET d  15    1060.022 304.071-1047.643  0.00  0.00     0.045 C 
BRANCH  50  51
ATOM     51  CG  MET d  15    1058.860 303.072-1047.834  0.00  0.00     0.076 C 
BRANCH  51  52
ATOM     52  SD  MET d  15    1057.286 303.938-1047.719  0.00  0.00    -0.173 SA
ATOM     53  CE  MET d  15    1056.205 302.507-1047.582  0.00  0.00     0.089 C 
ENDBRANCH  51  52
ENDBRANCH  50  51
ENDBRANCH  30  50
ENDBRANCH  28  30
ENDBRANCH  25  26
BRANCH  25  54
ATOM     54  CB  VAL d  14    1062.469 299.401-1046.599  0.00  0.00     0.009 C 
ATOM     55  CG1 VAL d  14    1062.558 298.983-1048.093  0.00  0.00     0.012 C 
ATOM     56  CG2 VAL d  14    1062.902 298.150-1045.799  0.00  0.00     0.012 C 
ENDBRANCH  25  54
ENDBRANCH  23  25
ENDBRANCH  20  21
BRANCH  20  57
ATOM     57  CB  ARG d  13    1063.830 301.567-1041.863  0.00  0.00     0.036 C 
BRANCH  57  58
ATOM     58  CG  ARG d  13    1065.375 301.722-1041.782  0.00  0.00     0.023 C 
BRANCH  58  59
ATOM     59  CD  ARG d  13    1066.003 300.735-1040.784  0.00  0.00     0.138 C 
BRANCH  59  60
ATOM     60  NE  ARG d  13    1067.480 300.943-1040.735  0.00  0.00    -0.227 N 
ATOM     61  CZ  ARG d  13    1068.329 300.252-1039.979  0.00  0.00     0.665 C 
ATOM     62  NH1 ARG d  13    1067.965 299.288-1039.182  0.00  0.00    -0.235 N 
ATOM     63  NH2 ARG d  13    1069.588 300.552-1040.037  0.00  0.00    -0.235 N 
ATOM     64 11HH ARG d  13    1066.959 299.101-1039.184  0.00  0.00     0.174 HD
ATOM     65 12HH ARG d  13    1068.678 298.806-1038.633  0.00  0.00     0.174 HD
ATOM     66 21HH ARG d  13    1069.855 301.310-1040.668  0.00  0.00     0.174 HD
ATOM     67 22HH ARG d  13    1070.224 300.011-1039.448  0.00  0.00     0.174 HD
ATOM     68  HE  ARG d  13    1067.931 301.665-1041.306  0.00  0.00     0.177 HD
ENDBRANCH  59  60
ENDBRANCH  58  59
ENDBRANCH  57  58
ENDBRANCH  20  57
ENDBRANCH  18  20
ENDBRANCH  15  16
BRANCH  15  69
ATOM     69  CB  GLN d  12    1059.010 303.844-1041.865  0.00  0.00     0.044 C 
BRANCH  69  70
ATOM     70  CG  GLN d  12    1059.369 305.366-1041.834  0.00  0.00     0.105 C 
BRANCH  70  71
ATOM     71  CD  GLN d  12    1059.067 306.180-1040.570  0.00  0.00     0.215 C 
ATOM     72  NE2 GLN d  12    1058.500 305.603-1039.540  0.00  0.00    -0.370 N 
ATOM     73 21HE GLN d  12    1058.393 306.198-1038.717  0.00  0.00     0.159 HD
ATOM     74 22HE GLN d  12    1058.338 304.600-1039.644  0.00  0.00     0.159 HD
ATOM     75  OE1 GLN d  12    1059.368 307.361-1040.493  0.00  0.00    -0.274 OA
ENDBRANCH  70  71
ENDBRANCH  69  70
ENDBRANCH  15  69
ENDBRANCH  13  15
ENDBRANCH  10  11
BRANCH  10  76
ATOM     76  CB  VAL d  11    1057.165 299.329-1044.068  0.00  0.00     0.009 C 
ATOM     77  CG1 VAL d  11    1056.596 300.032-1045.331  0.00  0.00     0.012 C 
ATOM     78  CG2 VAL d  11    1056.641 297.875-1044.140  0.00  0.00     0.012 C 
ENDBRANCH  10  76
ENDBRANCH   8  10
ENDBRANCH   5   6
BRANCH   5  79
ATOM     79  CB  HIS d  10    1060.525 296.800-1040.823  0.00  0.00     0.095 C 
BRANCH  79  80
ATOM     80  CG  HIS d  10    1061.811 296.090-1040.515  0.00  0.00     0.053 A 
ATOM     81  CD2 HIS d  10    1062.192 295.756-1039.223  0.00  0.00     0.116 A 
ATOM     82  NE2 HIS d  10    1063.407 295.125-1039.290  0.00  0.00    -0.359 N 
ATOM     83  CE1 HIS d  10    1063.670 295.127-1040.625  0.00  0.00     0.207 A 
ATOM     84  2HE HIS d  10    1063.975 294.748-1038.517  0.00  0.00     0.166 HD
ATOM     85  ND1 HIS d  10    1062.762 295.685-1041.448  0.00  0.00    -0.247 NA
ENDBRANCH  79  80
ENDBRANCH   5  79
ENDBRANCH   3   5
BRANCH   1  86
ATOM     86  CA  GLU d   9    1058.785 300.643-1038.543  0.00  0.00     0.177 C 
BRANCH  86  87
ATOM     87  N   GLU d   9    1057.483 299.985-1038.598  0.00  0.00    -0.346 N 
ATOM     88  C   ASP d   8    1056.802 300.034-1039.693  0.00  0.00     0.241 C 
ATOM     89  O   ASP d   8    1057.275 300.639-1040.668  0.00  0.00    -0.271 OA
ATOM     90  H   GLU d   9    1057.120 299.499-1037.790  0.00  0.00     0.163 HD
BRANCH  88  91
ATOM     91  CA  ASP d   8    1055.456 299.354-1039.749  0.00  0.00     0.186 C 
BRANCH  91  92
ATOM     92  N   ASP d   8    1055.527 298.005-1039.195  0.00  0.00    -0.345 N 
ATOM     93  C   VAL d   7    1056.364 297.164-1039.701  0.00  0.00     0.241 C 
ATOM     94  O   VAL d   7    1057.082 297.526-1040.642  0.00  0.00    -0.271 OA
ATOM     95  H   ASP d   8    1054.929 297.734-1038.427  0.00  0.00     0.163 HD
BRANCH  93  96
ATOM     96  CA  VAL d   7    1056.437 295.769-1039.128  0.00  0.00     0.180 C 
BRANCH  96  97
ATOM     97  N   VAL d   7    1056.492 295.805-1037.670  0.00  0.00    -0.346 N 
ATOM     98  C   ILE d   6    1057.438 296.469-1037.096  0.00  0.00     0.241 C 
ATOM     99  O   ILE d   6    1058.273 297.057-1037.800  0.00  0.00    -0.271 OA
ATOM    100  H   VAL d   7    1055.801 295.318-1037.118  0.00  0.00     0.163 HD
BRANCH  98 101
ATOM    101  CA  ILE d   6    1057.496 296.506-1035.588  0.00  0.00     0.180 C 
BRANCH 101 102
ATOM    102  N   ILE d   6    1056.182 296.801-1035.022  0.00  0.00    -0.346 N 
ATOM    103  C   SER d   5    1055.578 297.884-1035.376  0.00  0.00     0.243 C 
ATOM    104  O   SER d   5    1056.125 298.637-1036.181  0.00  0.00    -0.271 OA
ATOM    105  H   ILE d   6    1055.754 296.166-1034.363  0.00  0.00     0.163 HD
BRANCH 103 106
ATOM    106  CA  SER d   5    1054.219 298.189-1034.790  0.00  0.00     0.200 C 
BRANCH 106 107
ATOM    107  N   SER d   5    1053.349 297.018-1034.849  0.00  0.00    -0.344 N 
ATOM    108  C   GLU d   4    1053.122 296.465-1035.992  0.00  0.00     0.241 C 
ATOM    109  O   GLU d   4    1053.648 296.945-1037.006  0.00  0.00    -0.271 OA
ATOM    110  H   SER d   5    1052.933 296.646-1034.007  0.00  0.00     0.163 HD
BRANCH 108 111
ATOM    111  CA  GLU d   4    1052.223 295.254-1036.053  0.00  0.00     0.177 C 
BRANCH 111 112
ATOM    112  N   GLU d   4    1052.583 294.283-1035.023  0.00  0.00    -0.346 N 
ATOM    113  C   PRO d   3    1053.788 293.823-1034.991  0.00  0.00     0.241 C 
ATOM    114  O   PRO d   3    1054.611 294.206-1035.823  0.00  0.00    -0.271 OA
ATOM    115  H   GLU d   4    1051.899 293.976-1034.346  0.00  0.00     0.163 HD
BRANCH 113 116
ATOM    116  CA  PRO d   3    1054.186 292.799-1033.914  0.00  0.00     0.179 C 
ATOM    117  N   PRO d   3    1053.734 293.209-1032.593  0.00  0.00    -0.337 N 
ATOM    118  C   ASN d   2    1054.256 294.204-1031.958  0.00  0.00     0.243 C 
ATOM    119  CD  PRO d   3    1052.656 292.415-1032.043  0.00  0.00     0.127 C 
ATOM    120  O   ASN d   2    1055.170 294.834-1032.487  0.00  0.00    -0.271 OA
ATOM    121  CG  PRO d   3    1052.198 291.597-1033.253  0.00  0.00     0.022 C 
ATOM    122  CB  PRO d   3    1053.482 291.445-1034.083  0.00  0.00     0.037 C 
BRANCH 118 123
ATOM    123  CA  ASN d   2    1053.724 294.559-1030.590  0.00  0.00     0.185 C 
BRANCH 123 124
ATOM    124  N   ASN d   2    1052.265 294.598-1030.590  0.00  0.00    -0.346 N 
ATOM    125  C   GLU d   1    1051.661 295.384-1031.415  0.00  0.00     0.242 C 
ATOM    126  O   GLU d   1    1052.336 296.083-1032.183  0.00  0.00    -0.271 OA
ATOM    127  H   ASN d   2    1051.737 294.018-1029.953  0.00  0.00     0.163 HD
BRANCH 125 128
ATOM    128  CA  GLU d   1    1050.151 295.424-1031.415  0.00  0.00     0.191 C 
BRANCH 128 129
ATOM    129  N   GLU d   1    1049.593 294.075-1031.415  0.00  0.00    -0.326 NA
ATOM    130  H   GLU d   1    1050.219 293.196-1031.415  0.00  0.00     0.180 HD
ENDBRANCH 128 129
BRANCH 128 131
ATOM    131  CB  GLU d   1    1049.629 296.209-1030.178  0.00  0.00     0.047 C 
BRANCH 131 132
ATOM    132  CG  GLU d   1    1050.104 297.694-1030.067  0.00  0.00     0.116 C 
BRANCH 132 133
ATOM    133  CD  GLU d   1    1049.680 298.498-1028.852  0.00  0.00     0.172 C 
ATOM    134  OE1 GLU d   1    1048.952 297.996-1027.974  0.00  0.00    -0.648 OA
ATOM    135  OE2 GLU d   1    1050.109 299.668-1028.780  0.00  0.00    -0.648 OA
ENDBRANCH 132 133
ENDBRANCH 131 132
ENDBRANCH 128 131
ENDBRANCH 125 128
ENDBRANCH 123 124
BRANCH 123 136
ATOM    136  CB  ASN d   2    1054.216 293.536-1029.525  0.00  0.00     0.137 C 
BRANCH 136 137
ATOM    137  CG  ASN d   2    1053.754 293.760-1028.082  0.00  0.00     0.217 C 
ATOM    138  ND2 ASN d   2    1054.348 294.675-1027.364  0.00  0.00    -0.370 N 
ATOM    139 21HD ASN d   2    1053.867 294.848-1026.477  0.00  0.00     0.159 HD
ATOM    140 22HD ASN d   2    1055.049 295.247-1027.833  0.00  0.00     0.159 HD
ATOM    141  OD1 ASN d   2    1052.833 293.126-1027.588  0.00  0.00    -0.274 OA
ENDBRANCH 136 137
ENDBRANCH 123 136
ENDBRANCH 118 123
ENDBRANCH 113 116
ENDBRANCH 111 112
BRANCH 111 142
ATOM    142  CB  GLU d   4    1050.734 295.673-1035.882  0.00  0.00     0.045 C 
BRANCH 142 143
ATOM    143  CG  GLU d   4    1050.186 296.676-1036.948  0.00  0.00     0.116 C 
BRANCH 143 144
ATOM    144  CD  GLU d   4    1048.760 297.173-1036.804  0.00  0.00     0.172 C 
ATOM    145  OE1 GLU d   4    1048.034 296.774-1035.873  0.00  0.00    -0.648 OA
ATOM    146  OE2 GLU d   4    1048.370 298.002-1037.652  0.00  0.00    -0.648 OA
ENDBRANCH 143 144
ENDBRANCH 142 143
ENDBRANCH 111 142
ENDBRANCH 108 111
ENDBRANCH 106 107
BRANCH 106 147
ATOM    147  CB  SER d   5    1054.331 298.721-1033.339  0.00  0.00     0.199 C 
BRANCH 147 148
ATOM    148  OG  SER d   5    1055.062 297.842-1032.479  0.00  0.00    -0.398 OA
ATOM    149  HG  SER d   5    1054.574 297.017-1032.428  0.00  0.00     0.209 HD
ENDBRANCH 147 148
ENDBRANCH 106 147
ENDBRANCH 103 106
ENDBRANCH 101 102
BRANCH 101 150
ATOM    150  CB  ILE d   6    1058.095 295.170-1034.989  0.00  0.00     0.013 C 
ATOM    151  CG2 ILE d   6    1059.537 294.868-1035.504  0.00  0.00     0.012 C 
BRANCH 150 152
ATOM    152  CG1 ILE d   6    1058.115 295.108-1033.427  0.00  0.00     0.002 C 
ATOM    153  CD1 ILE d   6    1058.385 293.718-1032.813  0.00  0.00     0.005 C 
ENDBRANCH 150 152
ENDBRANCH 101 150
ENDBRANCH  98 101
ENDBRANCH  96  97
BRANCH  96 154
ATOM    154  CB  VAL d   7    1055.200 294.904-1039.597  0.00  0.00     0.009 C 
ATOM    155  CG1 VAL d   7    1054.887 294.915-1041.118  0.00  0.00     0.012 C 
ATOM    156  CG2 VAL d   7    1055.300 293.408-1039.212  0.00  0.00     0.012 C 
ENDBRANCH  96 154
ENDBRANCH  93  96
ENDBRANCH  91  92
BRANCH  91 157
ATOM    157  CB  ASP d   8    1054.378 300.193-1039.007  0.00  0.00     0.147 C 
BRANCH 157 158
ATOM    158  CG  ASP d   8    1054.159 301.614-1039.548  0.00  0.00     0.175 C 
ATOM    159  OD1 ASP d   8    1054.222 301.812-1040.779  0.00  0.00    -0.648 OA
ATOM    160  OD2 ASP d   8    1053.967 302.540-1038.733  0.00  0.00    -0.648 OA
ENDBRANCH 157 158
ENDBRANCH  91 157
ENDBRANCH  88  91
ENDBRANCH  86  87
BRANCH  86 161
ATOM    161  CB  GLU d   9    1059.420 300.436-1037.138  0.00  0.00     0.045 C 
BRANCH 161 162
ATOM    162  CG  GLU d   9    1060.802 301.129-1036.910  0.00  0.00     0.116 C 
BRANCH 162 163
ATOM    163  CD  GLU d   9    1061.505 300.917-1035.581  0.00  0.00     0.172 C 
ATOM    164  OE1 GLU d   9    1060.984 300.226-1034.685  0.00  0.00    -0.648 OA
ATOM    165  OE2 GLU d   9    1062.624 301.455-1035.450  0.00  0.00    -0.648 OA
ENDBRANCH 162 163
ENDBRANCH 161 162
ENDBRANCH  86 161
ENDBRANCH   1  86
TORSDOF 67
