@<TRIPOS>MOLECULE
3-20
275 275 16              
SMALL
USER_CHARGES
@<TRIPOS>ATOM
1	   N	523.555	121.567	-466.347	N.3	1	GLU1	-0.516	
2	  CA	524.114	122.916	-466.347	C.3	1	GLU1	0.040	
3	   C	525.623	122.876	-466.347	C.2	1	GLU1	0.537	
4	   O	526.299	123.575	-467.115	O.2	1	GLU1	-0.582	
5	  CB	523.591	123.701	-465.110	C.3	1	GLU1	0.056	
6	  CG	524.066	125.186	-464.999	C.3	1	GLU1	0.014	
7	  CD	523.642	125.990	-463.784	C.2	1	GLU1	0.805	
8	 OE1	522.914	125.488	-462.906	O.co2	1	GLU1	-0.819	
9	 OE2	524.072	127.160	-463.712	O.co2	1	GLU1	-0.819	
10	   H	524.182	120.688	-466.347	 H	1	GLU1	0.294	
11	  HA	523.788	123.434	-467.267	 H	1	GLU1	0.111	
12	 2HB	523.880	123.170	-464.180	 H	1	GLU1	-0.017	
13	 3HB	522.484	123.691	-465.097	 H	1	GLU1	-0.017	
14	 2HG	523.756	125.771	-465.880	 H	1	GLU1	-0.043	
15	 3HG	525.166	125.253	-464.970	 H	1	GLU1	-0.043	
16	   N	526.228	122.090	-465.522	N.am	2	ASN2	-0.416	
17	  CA	527.687	122.052	-465.522	C.3	2	ASN2	0.014	
18	   C	528.218	121.696	-466.890	C.2	2	ASN2	0.597	
19	   O	529.133	122.327	-467.419	O.2	2	ASN2	-0.568	
20	  CB	528.179	121.029	-464.457	C.3	2	ASN2	-0.204	
21	  CG	527.716	121.252	-463.014	C.2	2	ASN2	0.713	
22	 ND2	528.310	122.167	-462.296	N.pl3	2	ASN2	-0.919	
23	 OD1	526.795	120.619	-462.520	O.2	2	ASN2	-0.593	
24	   H	525.699	121.510	-464.885	 H	2	ASN2	0.272	
25	  HA	528.064	123.061	-465.276	 H	2	ASN2	0.105	
26	 2HB	529.283	120.970	-464.461	 H	2	ASN2	0.080	
27	 3HB	527.850	120.010	-464.743	 H	2	ASN2	0.080	
28	1HD2	527.830	122.340	-461.409	 H	2	ASN2	0.420	
29	2HD2	529.012	122.739	-462.765	 H	2	ASN2	0.420	
30	   N	527.697	120.701	-467.524	N.am	3	ARG3	-0.348	
31	  CA	528.210	120.358	-468.847	C.3	3	ARG3	-0.264	
32	   C	528.116	121.537	-469.786	C.2	3	ARG3	0.734	
33	   O	529.056	121.879	-470.499	O.2	3	ARG3	-0.589	
34	  CB	527.417	119.135	-469.391	C.3	3	ARG3	-0.001	
35	  CG	528.010	118.465	-470.662	C.3	3	ARG3	0.039	
36	  CD	527.146	117.291	-471.152	C.3	3	ARG3	0.049	
37	  NE	527.774	116.676	-472.359	N.pl3	3	ARG3	-0.530	
38	  CZ	527.284	115.643	-473.038	C.cat	3	ARG3	0.808	
39	 NH1	526.172	115.037	-472.728	N.pl3	3	ARG3	-0.863	
40	 NH2	527.946	115.212	-474.065	N.pl3	3	ARG3	-0.863	
41	   H	526.945	120.168	-467.112	 H	3	ARG3	0.275	
42	  HA	529.281	120.099	-468.742	 H	3	ARG3	0.156	
43	 2HB	526.368	119.446	-469.578	 H	3	ARG3	0.033	
44	 3HB	527.337	118.370	-468.593	 H	3	ARG3	0.033	
45	 2HG	529.043	118.124	-470.446	 H	3	ARG3	0.029	
46	 3HG	528.106	119.213	-471.476	 H	3	ARG3	0.029	
47	 2HD	526.122	117.658	-471.381	 H	3	ARG3	0.069	
48	 3HD	527.038	116.544	-470.336	 H	3	ARG3	0.069	
49	  HE	528.656	117.036	-472.736	 H	3	ARG3	0.346	
50	1HH1	525.699	115.427	-471.909	 H	3	ARG3	0.448	
51	2HH1	525.863	114.250	-473.300	 H	3	ARG3	0.448	
52	1HH2	528.814	115.699	-474.293	 H	3	ARG3	0.448	
53	2HH2	527.554	114.417	-474.572	 H	3	ARG3	0.448	
54	   N	527.014	122.206	-469.841	N.am	4	GLU4	-0.516	
55	  CA	526.923	123.346	-470.748	C.3	4	GLU4	0.040	
56	   C	528.003	124.360	-470.454	C.2	4	GLU4	0.537	
57	   O	528.696	124.860	-471.351	O.2	4	GLU4	-0.582	
58	  CB	525.517	124.001	-470.629	C.3	4	GLU4	0.056	
59	  CG	525.249	125.211	-471.582	C.3	4	GLU4	0.014	
60	  CD	523.919	125.934	-471.474	C.2	4	GLU4	0.805	
61	 OE1	523.051	125.559	-470.662	O.co2	4	GLU4	-0.819	
62	 OE2	523.757	126.918	-472.224	O.co2	4	GLU4	-0.819	
63	   H	526.227	121.945	-469.265	 H	4	GLU4	0.294	
64	  HA	527.067	122.987	-471.783	 H	4	GLU4	0.111	
65	 2HB	525.345	124.332	-469.585	 H	4	GLU4	-0.017	
66	 3HB	524.731	123.241	-470.808	 H	4	GLU4	-0.017	
67	 2HG	525.357	124.919	-472.639	 H	4	GLU4	-0.043	
68	 3HG	525.984	126.017	-471.420	 H	4	GLU4	-0.043	
69	   N	528.209	124.716	-469.232	N.am	5	SER5	-0.416	
70	  CA	529.254	125.696	-468.948	C.3	5	SER5	-0.025	
71	   C	530.591	125.227	-469.471	C.2	5	SER5	0.597	
72	   O	531.332	125.965	-470.121	O.2	5	SER5	-0.568	
73	  CB	529.314	126.014	-467.433	C.3	5	SER5	0.212	
74	  OG	529.802	124.918	-466.652	O.3	5	SER5	-0.655	
75	   H	527.657	124.323	-468.483	 H	5	SER5	0.272	
76	  HA	529.006	126.626	-469.491	 H	5	SER5	0.084	
77	 2HB	528.324	126.328	-467.050	 H	5	SER5	0.035	
78	 3HB	529.976	126.886	-467.261	 H	5	SER5	0.035	
79	  HG	529.179	124.194	-466.753	 H	5	SER5	0.428	
80	   N	530.969	124.017	-469.228	N.am	6	ILE6	-0.416	
81	  CA	532.262	123.565	-469.734	C.3	6	ILE6	-0.060	
82	   C	532.344	123.727	-471.232	C.2	6	ILE6	0.597	
83	   O	533.329	124.238	-471.785	O.2	6	ILE6	-0.568	
84	  CB	532.569	122.079	-469.284	C.3	6	ILE6	0.130	
85	 CG1	532.428	121.820	-467.749	C.3	6	ILE6	-0.043	
86	 CG2	533.982	121.590	-469.731	C.3	6	ILE6	-0.320	
87	 CD1	532.401	120.339	-467.316	C.3	6	ILE6	-0.066	
88	   H	530.379	123.393	-468.697	 H	6	ILE6	0.272	
89	  HA	533.038	124.225	-469.304	 H	6	ILE6	0.087	
90	  HB	531.818	121.433	-469.786	 H	6	ILE6	0.019	
91	2HG1	531.481	122.259	-467.385	 H	6	ILE6	0.024	
92	3HG1	533.217	122.365	-467.195	 H	6	ILE6	0.024	
93	1HG2	534.128	121.625	-470.824	 H	6	ILE6	0.088	
94	2HG2	534.793	122.187	-469.271	 H	6	ILE6	0.088	
95	3HG2	534.166	120.534	-469.463	 H	6	ILE6	0.088	
96	1HD1	531.594	119.778	-467.824	 H	6	ILE6	0.019	
97	2HD1	533.352	119.818	-467.529	 H	6	ILE6	0.019	
98	3HD1	532.226	120.245	-466.229	 H	6	ILE6	0.019	
99	   N	531.359	123.320	-471.960	N.am	7	LEU7	-0.416	
100	  CA	531.438	123.476	-473.409	C.3	7	LEU7	-0.052	
101	   C	531.656	124.922	-473.785	C.2	7	LEU7	0.597	
102	   O	532.514	125.265	-474.613	O.2	7	LEU7	-0.568	
103	  CB	530.159	122.912	-474.090	C.3	7	LEU7	-0.110	
104	  CG	529.795	121.423	-473.841	C.3	7	LEU7	0.353	
105	 CD1	528.572	121.031	-474.683	C.3	7	LEU7	-0.412	
106	 CD2	530.961	120.468	-474.144	C.3	7	LEU7	-0.412	
107	   H	530.546	122.900	-471.533	 H	7	LEU7	0.272	
108	  HA	532.324	122.925	-473.772	 H	7	LEU7	0.092	
109	 2HB	530.245	123.070	-475.183	 H	7	LEU7	0.046	
110	 3HB	529.293	123.533	-473.788	 H	7	LEU7	0.046	
111	  HG	529.522	121.309	-472.771	 H	7	LEU7	-0.036	
112	1HD1	527.698	121.671	-474.461	 H	7	LEU7	0.100	
113	2HD1	528.768	121.111	-475.768	 H	7	LEU7	0.100	
114	3HD1	528.259	119.990	-474.484	 H	7	LEU7	0.100	
115	1HD2	531.338	120.581	-475.177	 H	7	LEU7	0.100	
116	2HD2	531.813	120.645	-473.461	 H	7	LEU7	0.100	
117	3HD2	530.674	119.409	-474.006	 H	7	LEU7	0.100	
118	   N	530.928	125.830	-473.228	N.am	8	ASP8	-0.516	
119	  CA	531.138	127.228	-473.592	C.3	8	ASP8	0.038	
120	   C	532.568	127.643	-473.343	C.2	8	ASP8	0.537	
121	   O	533.227	128.271	-474.187	O.2	8	ASP8	-0.582	
122	  CB	530.150	128.148	-472.820	C.3	8	ASP8	-0.030	
123	  CG	530.226	129.641	-473.172	C.2	8	ASP8	0.799	
124	 OD1	530.440	129.977	-474.355	O.co2	8	ASP8	-0.801	
125	 OD2	530.115	130.477	-472.251	O.co2	8	ASP8	-0.801	
126	   H	530.222	125.576	-472.551	 H	8	ASP8	0.294	
127	  HA	530.949	127.336	-474.677	 H	8	ASP8	0.088	
128	 2HB	530.314	128.049	-471.731	 H	8	ASP8	-0.012	
129	 3HB	529.108	127.834	-472.994	 H	8	ASP8	-0.012	
130	   N	533.122	127.336	-472.219	N.am	9	GLU9	-0.516	
131	  CA	534.505	127.738	-471.979	C.3	9	GLU9	0.040	
132	   C	535.420	127.193	-473.048	C.2	9	GLU9	0.537	
133	   O	536.268	127.900	-473.612	O.2	9	GLU9	-0.582	
134	  CB	534.958	127.247	-470.574	C.3	9	GLU9	0.056	
135	  CG	536.409	127.646	-470.151	C.3	9	GLU9	0.014	
136	  CD	536.935	127.147	-468.818	C.2	9	GLU9	0.805	
137	 OE1	536.221	126.454	-468.067	O.co2	9	GLU9	-0.819	
138	 OE2	538.110	127.455	-468.532	O.co2	9	GLU9	-0.819	
139	   H	532.607	126.826	-471.516	 H	9	GLU9	0.294	
140	  HA	534.564	128.841	-472.012	 H	9	GLU9	0.111	
141	 2HB	534.867	126.143	-470.516	 H	9	GLU9	-0.017	
142	 3HB	534.258	127.619	-469.801	 H	9	GLU9	-0.017	
143	 2HG	536.535	128.741	-470.142	 H	9	GLU9	-0.043	
144	 3HG	537.154	127.267	-470.870	 H	9	GLU9	-0.043	
145	   N	535.317	125.952	-473.387	N.am	10	HIS10	-0.416	
146	  CA	536.202	125.424	-474.421	C.3	10	HIS10	-0.058	
147	   C	536.066	126.209	-475.703	C.2	10	HIS10	0.597	
148	   O	537.054	126.606	-476.339	O.2	10	HIS10	-0.568	
149	  CB	535.784	123.960	-474.641	C.3	10	HIS10	-0.007	
150	  CG	536.897	122.999	-474.343	C.2	10	HIS10	0.187	
151	 CD2	537.091	122.442	-473.085	C.2	10	HIS10	-0.221	
152	 ND1	537.852	122.548	-475.251	N.2	10	HIS10	-0.543	
153	 CE1	538.569	121.739	-474.451	C.2	10	HIS10	0.163	
154	 NE2	538.183	121.617	-473.151	N.pl3	10	HIS10	-0.280	
155	   H	534.634	125.355	-472.942	 H	10	HIS10	0.272	
156	  HA	537.240	125.562	-474.075	 H	10	HIS10	0.136	
157	 2HB	535.457	123.790	-475.686	 H	10	HIS10	0.037	
158	 3HB	534.915	123.674	-474.012	 H	10	HIS10	0.037	
159	 2HD	536.467	122.646	-472.220	 H	10	HIS10	0.186	
160	 1HE	539.415	121.224	-474.886	 H	10	HIS10	0.144	
161	 2HE	538.602	121.051	-472.399	 H	10	HIS10	0.334	
162	   N	534.885	126.475	-476.152	N.am	11	VAL11	-0.416	
163	  CA	534.754	127.234	-477.392	C.3	11	VAL11	-0.087	
164	   C	535.462	128.563	-477.290	C.2	11	VAL11	0.597	
165	   O	536.216	128.976	-478.180	O.2	11	VAL11	-0.568	
166	  CB	533.225	127.437	-477.736	C.3	11	VAL11	0.299	
167	 CG1	532.906	128.383	-478.926	C.3	11	VAL11	-0.319	
168	 CG2	532.473	126.120	-478.049	C.3	11	VAL11	-0.319	
169	   H	534.065	126.162	-475.652	 H	11	VAL11	0.272	
170	  HA	535.240	126.670	-478.208	 H	11	VAL11	0.097	
171	  HB	532.743	127.883	-476.840	 H	11	VAL11	-0.030	
172	1HG1	533.360	128.038	-479.875	 H	11	VAL11	0.079	
173	2HG1	531.817	128.485	-479.102	 H	11	VAL11	0.079	
174	3HG1	533.263	129.416	-478.752	 H	11	VAL11	0.079	
175	1HG2	532.574	125.385	-477.230	 H	11	VAL11	0.079	
176	2HG2	531.386	126.288	-478.176	 H	11	VAL11	0.079	
177	3HG2	532.841	125.635	-478.972	 H	11	VAL11	0.079	
178	   N	535.276	129.292	-476.242	N.am	12	GLN12	-0.416	
179	  CA	535.960	130.577	-476.142	C.3	12	GLN12	-0.003	
180	   C	537.456	130.406	-476.260	C.2	12	GLN12	0.597	
181	   O	538.137	131.119	-476.994	O.2	12	GLN12	-0.568	
182	  CB	535.583	131.236	-474.797	C.3	12	GLN12	-0.004	
183	  CG	536.189	132.653	-474.528	C.3	12	GLN12	-0.064	
184	  CD	535.908	133.344	-473.187	C.2	12	GLN12	0.695	
185	 NE2	535.157	132.755	-472.292	N.pl3	12	GLN12	-0.941	
186	 OE1	536.395	134.433	-472.924	O.2	12	GLN12	-0.609	
187	   H	534.666	128.977	-475.501	 H	12	GLN12	0.272	
188	  HA	535.631	131.221	-476.979	 H	12	GLN12	0.085	
189	 2HB	535.883	130.555	-473.973	 H	12	GLN12	0.017	
190	 3HB	534.480	131.306	-474.729	 H	12	GLN12	0.017	
191	 2HG	535.889	133.353	-475.330	 H	12	GLN12	0.035	
192	 3HG	537.292	132.618	-474.593	 H	12	GLN12	0.035	
193	1HE2	535.073	133.251	-471.404	 H	12	GLN12	0.425	
194	2HE2	534.838	131.817	-472.546	 H	12	GLN12	0.425	
195	   N	538.037	129.483	-475.570	N.am	13	ARG13	-0.348	
196	  CA	539.483	129.318	-475.684	C.3	13	ARG13	-0.264	
197	   C	539.887	129.073	-477.119	C.2	13	ARG13	0.734	
198	   O	540.819	129.676	-477.646	O.2	13	ARG13	-0.589	
199	  CB	539.929	128.148	-474.762	C.3	13	ARG13	-0.001	
200	  CG	541.462	128.011	-474.549	C.3	13	ARG13	0.039	
201	  CD	541.817	126.810	-473.656	C.3	13	ARG13	0.049	
202	  NE	543.296	126.742	-473.471	N.pl3	13	ARG13	-0.530	
203	  CZ	543.940	125.821	-472.760	C.cat	13	ARG13	0.808	
204	 NH1	543.344	124.846	-472.133	N.pl3	13	ARG13	-0.863	
205	 NH2	545.231	125.894	-472.683	N.pl3	13	ARG13	-0.863	
206	   H	537.499	128.884	-474.960	 H	13	ARG13	0.275	
207	  HA	539.962	130.261	-475.359	 H	13	ARG13	0.156	
208	 2HB	539.514	127.200	-475.164	 H	13	ARG13	0.033	
209	 3HB	539.443	128.261	-473.772	 H	13	ARG13	0.033	
210	 2HG	541.854	128.951	-474.110	 H	13	ARG13	0.029	
211	 3HG	541.974	127.902	-475.527	 H	13	ARG13	0.029	
212	 2HD	541.432	125.877	-474.124	 H	13	ARG13	0.069	
213	 3HD	541.297	126.909	-472.679	 H	13	ARG13	0.069	
214	  HE	543.914	127.437	-473.901	 H	13	ARG13	0.346	
215	1HH1	542.326	124.845	-472.235	 H	13	ARG13	0.448	
216	2HH1	543.910	124.178	-471.607	 H	13	ARG13	0.448	
217	1HH2	545.681	126.665	-473.182	 H	13	ARG13	0.448	
218	2HH2	545.708	125.179	-472.131	 H	13	ARG13	0.448	
219	   N	539.233	128.204	-477.813	N.am	14	VAL14	-0.416	
220	  CA	539.623	127.966	-479.200	C.3	14	VAL14	-0.087	
221	   C	539.579	129.246	-480.000	C.2	14	VAL14	0.597	
222	   O	540.504	129.585	-480.749	O.2	14	VAL14	-0.568	
223	  CB	538.683	126.870	-479.841	C.3	14	VAL14	0.299	
224	 CG1	538.843	126.632	-481.368	C.3	14	VAL14	-0.319	
225	 CG2	538.820	125.471	-479.194	C.3	14	VAL14	-0.319	
226	   H	538.463	127.695	-477.403	 H	14	VAL14	0.272	
227	  HA	540.668	127.608	-479.220	 H	14	VAL14	0.097	
228	  HB	537.635	127.203	-479.682	 H	14	VAL14	-0.030	
229	1HG1	539.866	126.314	-481.642	 H	14	VAL14	0.079	
230	2HG1	538.146	125.860	-481.748	 H	14	VAL14	0.079	
231	3HG1	538.614	127.537	-481.962	 H	14	VAL14	0.079	
232	1HG2	538.657	125.505	-478.101	 H	14	VAL14	0.079	
233	2HG2	538.071	124.758	-479.591	 H	14	VAL14	0.079	
234	3HG2	539.819	125.026	-479.361	 H	14	VAL14	0.079	
235	   N	538.544	130.010	-479.901	N.am	15	MET15	-0.416	
236	  CA	538.500	131.248	-480.674	C.3	15	MET15	-0.024	
237	   C	539.687	132.126	-480.360	C.2	15	MET15	0.597	
238	   O	540.363	132.660	-481.252	O.2	15	MET15	-0.568	
239	  CB	537.168	131.996	-480.396	C.3	15	MET15	0.034	
240	  CG	535.878	131.254	-480.808	C.3	15	MET15	0.002	
241	  SD	534.468	132.366	-480.688	S.3	15	MET15	-0.274	
242	  CE	533.155	131.148	-480.830	C.3	15	MET15	-0.054	
243	   H	537.776	129.756	-479.297	 H	15	MET15	0.272	
244	  HA	538.559	130.994	-481.749	 H	15	MET15	0.088	
245	 2HB	537.178	132.970	-480.922	 H	15	MET15	0.024	
246	 3HB	537.100	132.256	-479.320	 H	15	MET15	0.024	
247	 2HG	535.714	130.382	-480.146	 H	15	MET15	0.044	
248	 3HG	535.947	130.861	-481.839	 H	15	MET15	0.044	
249	 1HE	533.262	130.556	-481.758	 H	15	MET15	0.068	
250	 2HE	533.178	130.455	-479.971	 H	15	MET15	0.068	
251	 3HE	532.168	131.642	-480.846	 H	15	MET15	0.068	
252	   N	540.009	132.326	-479.127	N.am	16	ARG16	-0.348	
253	  CA	541.157	133.175	-478.824	C.3	16	ARG16	-0.264	
254	   C	542.406	132.654	-479.494	C.2	16	ARG16	0.734	
255	   O	542.393	131.655	-480.210	O.2	16	ARG16	-0.589	
256	  CB	541.331	133.251	-477.280	C.3	16	ARG16	-0.001	
257	  CG	542.331	134.327	-476.772	C.3	16	ARG16	0.039	
258	  CD	542.470	134.310	-475.240	C.3	16	ARG16	0.049	
259	  NE	543.423	135.374	-474.810	N.pl3	16	ARG16	-0.530	
260	  CZ	543.776	135.628	-473.554	C.cat	16	ARG16	0.808	
261	 NH1	543.326	134.961	-472.529	N.pl3	16	ARG16	-0.863	
262	 NH2	544.612	136.593	-473.333	N.pl3	16	ARG16	-0.863	
263	   H	539.474	131.902	-478.382	 H	16	ARG16	0.275	
264	  HA	540.954	134.183	-479.232	 H	16	ARG16	0.156	
265	 2HB	541.628	132.249	-476.906	 H	16	ARG16	0.033	
266	 3HB	540.344	133.437	-476.812	 H	16	ARG16	0.033	
267	 2HG	541.999	135.326	-477.120	 H	16	ARG16	0.029	
268	 3HG	543.328	134.167	-477.231	 H	16	ARG16	0.029	
269	 2HD	542.822	133.306	-474.914	 H	16	ARG16	0.069	
270	 3HD	541.471	134.459	-474.776	 H	16	ARG16	0.069	
271	  HE	543.870	135.991	-475.497	 H	16	ARG16	0.346	
272	1HH1	542.672	134.213	-472.772	 H	16	ARG16	0.448	
273	2HH1	543.645	135.219	-471.594	 H	16	ARG16	0.448	
274	1HH2	544.955	137.105	-474.148	 H	16	ARG16	0.448	
275	2HH2	544.870	136.774	-472.361	 H	16	ARG16	0.448	
@<TRIPOS>BOND
1 1 2 1
2 1 10 1
3 2 3 1
4 2 5 1
5 2 11 1
6 3 4 2
7 3 16 1
8 5 6 1
9 6 7 1
10 7 8 2
11 7 9 1
12 5 12 1
13 5 13 1
14 6 14 1
15 6 15 1
16 16 17 1
17 16 24 1
18 17 18 1
19 17 20 1
20 17 25 1
21 18 19 2
22 18 30 1
23 20 21 1
24 21 22 1
25 21 23 2
26 20 26 1
27 20 27 1
28 22 28 1
29 22 29 1
30 30 31 1
31 30 41 1
32 31 32 1
33 31 34 1
34 31 42 1
35 32 33 2
36 32 54 1
37 34 35 1
38 35 36 1
39 36 37 1
40 37 38 1
41 38 39 2
42 38 40 1
43 34 43 1
44 34 44 1
45 35 45 1
46 35 46 1
47 36 47 1
48 36 48 1
49 37 49 1
50 39 50 1
51 39 51 1
52 40 52 1
53 40 53 1
54 54 55 1
55 54 63 1
56 55 56 1
57 55 58 1
58 55 64 1
59 56 57 2
60 56 69 1
61 58 59 1
62 59 60 1
63 60 61 2
64 60 62 1
65 58 65 1
66 58 66 1
67 59 67 1
68 59 68 1
69 69 70 1
70 69 75 1
71 70 71 1
72 70 73 1
73 70 76 1
74 71 72 2
75 71 80 1
76 73 74 1
77 73 77 1
78 73 78 1
79 74 79 1
80 80 81 1
81 80 88 1
82 81 82 1
83 81 84 1
84 81 89 1
85 82 83 2
86 82 99 1
87 84 85 1
88 84 86 1
89 85 87 1
90 84 90 1
91 85 91 1
92 85 92 1
93 86 93 1
94 86 94 1
95 86 95 1
96 87 96 1
97 87 97 1
98 87 98 1
99 99 100 1
100 99 107 1
101 100 101 1
102 100 103 1
103 100 108 1
104 101 102 2
105 101 118 1
106 103 104 1
107 104 105 1
108 104 106 1
109 103 109 1
110 103 110 1
111 104 111 1
112 105 112 1
113 105 113 1
114 105 114 1
115 106 115 1
116 106 116 1
117 106 117 1
118 118 119 1
119 118 126 1
120 119 120 1
121 119 122 1
122 119 127 1
123 120 121 2
124 120 130 1
125 122 123 1
126 123 124 2
127 123 125 1
128 122 128 1
129 122 129 1
130 130 131 1
131 130 139 1
132 131 132 1
133 131 134 1
134 131 140 1
135 132 133 2
136 132 145 1
137 134 135 1
138 135 136 1
139 136 137 2
140 136 138 1
141 134 141 1
142 134 142 1
143 135 143 1
144 135 144 1
145 145 146 1
146 145 155 1
147 146 147 1
148 146 149 1
149 146 156 1
150 147 148 2
151 147 162 1
152 149 150 1
153 150 151 2
154 151 154 1
155 150 152 1
156 152 153 2
157 153 154 1
158 149 157 1
159 149 158 1
160 151 159 1
161 153 160 1
162 154 161 1
163 162 163 1
164 162 169 1
165 163 164 1
166 163 166 1
167 163 170 1
168 164 165 2
169 164 178 1
170 166 167 1
171 166 168 1
172 166 171 1
173 167 172 1
174 167 173 1
175 167 174 1
176 168 175 1
177 168 176 1
178 168 177 1
179 178 179 1
180 178 187 1
181 179 180 1
182 179 182 1
183 179 188 1
184 180 181 2
185 180 195 1
186 182 183 1
187 183 184 1
188 184 185 1
189 184 186 2
190 182 189 1
191 182 190 1
192 183 191 1
193 183 192 1
194 185 193 1
195 185 194 1
196 195 196 1
197 195 206 1
198 196 197 1
199 196 199 1
200 196 207 1
201 197 198 2
202 197 219 1
203 199 200 1
204 200 201 1
205 201 202 1
206 202 203 1
207 203 204 2
208 203 205 1
209 199 208 1
210 199 209 1
211 200 210 1
212 200 211 1
213 201 212 1
214 201 213 1
215 202 214 1
216 204 215 1
217 204 216 1
218 205 217 1
219 205 218 1
220 219 220 1
221 219 226 1
222 220 221 1
223 220 223 1
224 220 227 1
225 221 222 2
226 221 235 1
227 223 224 1
228 223 225 1
229 223 228 1
230 224 229 1
231 224 230 1
232 224 231 1
233 225 232 1
234 225 233 1
235 225 234 1
236 235 236 1
237 235 243 1
238 236 237 1
239 236 239 1
240 236 244 1
241 237 238 2
242 237 252 1
243 239 240 1
244 240 241 1
245 241 242 1
246 239 245 1
247 239 246 1
248 240 247 1
249 240 248 1
250 242 249 1
251 242 250 1
252 242 251 1
253 252 253 1
254 252 263 1
255 253 254 1
256 253 256 1
257 253 264 1
258 254 255 2
259 256 257 1
260 257 258 1
261 258 259 1
262 259 260 1
263 260 261 2
264 260 262 1
265 256 265 1
266 256 266 1
267 257 267 1
268 257 268 1
269 258 269 1
270 258 270 1
271 259 271 1
272 261 272 1
273 261 273 1
274 262 274 1
275 262 275 1
@<TRIPOS>SUBSTRUCTURE
1	GLU1	1	RESIDUE	1 ****	GLU
2	ASN2	16	RESIDUE	1 ****	ASN
3	ARG3	30	RESIDUE	1 ****	ARG
4	GLU4	54	RESIDUE	1 ****	GLU
5	SER5	69	RESIDUE	1 ****	SER
6	ILE6	80	RESIDUE	1 ****	ILE
7	LEU7	99	RESIDUE	1 ****	LEU
8	ASP8	118	RESIDUE	1 ****	ASP
9	GLU9	130	RESIDUE	1 ****	GLU
10	HIS10	145	RESIDUE	1 ****	HIS
11	VAL11	162	RESIDUE	1 ****	VAL
12	GLN12	178	RESIDUE	1 ****	GLN
13	ARG13	195	RESIDUE	1 ****	ARG
14	VAL14	219	RESIDUE	1 ****	VAL
15	MET15	235	RESIDUE	1 ****	MET
16	ARG16	252	RESIDUE	1 ****	ARG
