@<TRIPOS>MOLECULE
9-8
270 272 16              
SMALL
USER_CHARGES
@<TRIPOS>ATOM
1	   N	1410.644	413.002	-1422.256	N.3	1	GLU1	-0.516	
2	  CA	1411.203	414.351	-1422.256	C.3	1	GLU1	0.040	
3	   C	1412.712	414.311	-1422.256	C.2	1	GLU1	0.537	
4	   O	1413.388	415.010	-1423.025	O.2	1	GLU1	-0.582	
5	  CB	1410.680	415.136	-1421.019	C.3	1	GLU1	0.056	
6	  CG	1411.155	416.621	-1420.908	C.3	1	GLU1	0.014	
7	  CD	1410.731	417.425	-1419.693	C.2	1	GLU1	0.805	
8	 OE1	1410.003	416.923	-1418.815	O.co2	1	GLU1	-0.819	
9	 OE2	1411.161	418.595	-1419.621	O.co2	1	GLU1	-0.819	
10	   H	1411.271	412.123	-1422.256	 H	1	GLU1	0.294	
11	  HA	1410.877	414.869	-1423.176	 H	1	GLU1	0.111	
12	 2HB	1410.969	414.605	-1420.089	 H	1	GLU1	-0.017	
13	 3HB	1409.573	415.126	-1421.006	 H	1	GLU1	-0.017	
14	 2HG	1410.845	417.206	-1421.789	 H	1	GLU1	-0.043	
15	 3HG	1412.255	416.688	-1420.879	 H	1	GLU1	-0.043	
16	   N	1413.317	413.525	-1421.431	N.am	2	ASN2	-0.416	
17	  CA	1414.776	413.487	-1421.431	C.3	2	ASN2	0.014	
18	   C	1415.307	413.131	-1422.800	C.2	2	ASN2	0.597	
19	   O	1416.222	413.762	-1423.328	O.2	2	ASN2	-0.568	
20	  CB	1415.268	412.464	-1420.367	C.3	2	ASN2	-0.204	
21	  CG	1414.805	412.688	-1418.923	C.2	2	ASN2	0.713	
22	 ND2	1415.399	413.603	-1418.205	N.pl3	2	ASN2	-0.919	
23	 OD1	1413.885	412.054	-1418.429	O.2	2	ASN2	-0.593	
24	   H	1412.789	412.946	-1420.795	 H	2	ASN2	0.272	
25	  HA	1415.153	414.497	-1421.186	 H	2	ASN2	0.105	
26	 2HB	1416.373	412.405	-1420.370	 H	2	ASN2	0.080	
27	 3HB	1414.939	411.446	-1420.652	 H	2	ASN2	0.080	
28	1HD2	1414.919	413.776	-1417.319	 H	2	ASN2	0.420	
29	2HD2	1416.101	414.174	-1418.675	 H	2	ASN2	0.420	
30	   N	1414.786	412.136	-1423.434	N.am	3	PRO3	-0.255	
31	  CA	1415.238	411.727	-1424.755	C.3	3	PRO3	-0.027	
32	   C	1414.839	412.750	-1425.832	C.2	3	PRO3	0.590	
33	   O	1415.663	413.133	-1426.664	O.2	3	PRO3	-0.575	
34	  CB	1414.533	410.372	-1424.925	C.3	3	PRO3	-0.007	
35	  CG	1413.250	410.524	-1424.094	C.3	3	PRO3	0.019	
36	  CD	1413.708	411.343	-1422.885	C.3	3	PRO3	0.019	
37	  HA	1416.323	411.607	-1424.769	 H	3	PRO3	0.064	
38	 2HB	1415.156	409.591	-1424.484	 H	3	PRO3	0.025	
39	 3HB	1414.335	410.124	-1425.970	 H	3	PRO3	0.025	
40	 2HG	1412.823	409.562	-1423.803	 H	3	PRO3	0.021	
41	 3HG	1412.513	411.095	-1424.662	 H	3	PRO3	0.021	
42	 2HD	1414.097	410.694	-1422.097	 H	3	PRO3	0.039	
43	 3HD	1412.911	411.979	-1422.492	 H	3	PRO3	0.039	
44	   N	1413.635	413.210	-1425.865	N.am	4	GLU4	-0.516	
45	  CA	1413.275	414.181	-1426.894	C.3	4	GLU4	0.040	
46	   C	1414.174	415.393	-1426.833	C.2	4	GLU4	0.537	
47	   O	1414.700	415.872	-1427.847	O.2	4	GLU4	-0.582	
48	  CB	1411.786	414.600	-1426.724	C.3	4	GLU4	0.056	
49	  CG	1411.238	415.604	-1427.789	C.3	4	GLU4	0.014	
50	  CD	1409.811	416.100	-1427.645	C.2	4	GLU4	0.805	
51	 OE1	1409.085	415.702	-1426.714	O.co2	4	GLU4	-0.819	
52	 OE2	1409.422	416.930	-1428.493	O.co2	4	GLU4	-0.819	
53	   H	1412.951	412.904	-1425.188	 H	4	GLU4	0.294	
54	  HA	1413.406	413.711	-1427.885	 H	4	GLU4	0.111	
55	 2HB	1411.634	415.040	-1425.717	 H	4	GLU4	-0.017	
56	 3HB	1411.139	413.702	-1426.730	 H	4	GLU4	-0.017	
57	 2HG	1411.319	415.189	-1428.807	 H	4	GLU4	-0.043	
58	 3HG	1411.826	416.536	-1427.800	 H	4	GLU4	-0.043	
59	   N	1414.401	415.945	-1425.690	N.am	5	SER5	-0.416	
60	  CA	1415.271	417.117	-1425.631	C.3	5	SER5	-0.025	
61	   C	1416.629	416.811	-1426.217	C.2	5	SER5	0.597	
62	   O	1417.176	417.565	-1427.022	O.2	5	SER5	-0.568	
63	  CB	1415.382	417.649	-1424.181	C.3	5	SER5	0.212	
64	  OG	1416.114	416.769	-1423.320	O.3	5	SER5	-0.655	
65	   H	1413.984	415.574	-1424.848	 H	5	SER5	0.272	
66	  HA	1414.821	417.907	-1426.260	 H	5	SER5	0.084	
67	 2HB	1414.383	417.842	-1423.747	 H	5	SER5	0.035	
68	 3HB	1415.888	418.634	-1424.183	 H	5	SER5	0.035	
69	  HG	1415.625	415.944	-1423.269	 H	5	SER5	0.428	
70	   N	1417.234	415.728	-1425.863	N.am	6	ILE6	-0.416	
71	  CA	1418.547	415.434	-1426.430	C.3	6	ILE6	-0.060	
72	   C	1418.490	415.396	-1427.937	C.2	6	ILE6	0.597	
73	   O	1419.325	415.984	-1428.641	O.2	6	ILE6	-0.568	
74	  CB	1419.147	414.097	-1425.830	C.3	6	ILE6	0.130	
75	 CG1	1419.167	414.035	-1424.269	C.3	6	ILE6	-0.043	
76	 CG2	1420.589	413.796	-1426.345	C.3	6	ILE6	-0.320	
77	 CD1	1419.437	412.646	-1423.654	C.3	6	ILE6	-0.066	
78	   H	1416.806	415.094	-1425.204	 H	6	ILE6	0.272	
79	  HA	1419.221	416.268	-1426.162	 H	6	ILE6	0.087	
80	  HB	1418.489	413.271	-1426.174	 H	6	ILE6	0.019	
81	2HG1	1418.185	414.355	-1423.873	 H	6	ILE6	0.024	
82	3HG1	1419.883	414.777	-1423.864	 H	6	ILE6	0.024	
83	1HG2	1420.647	413.702	-1427.444	 H	6	ILE6	0.088	
84	2HG2	1421.311	414.578	-1426.043	 H	6	ILE6	0.088	
85	3HG2	1420.979	412.834	-1425.967	 H	6	ILE6	0.088	
86	1HD1	1418.709	411.892	-1424.009	 H	6	ILE6	0.019	
87	2HD1	1420.448	412.267	-1423.890	 H	6	ILE6	0.019	
88	3HD1	1419.361	412.676	-1422.551	 H	6	ILE6	0.019	
89	   N	1417.544	414.733	-1428.511	N.am	7	LEU7	-0.416	
90	  CA	1417.489	414.697	-1429.970	C.3	7	LEU7	-0.052	
91	   C	1417.417	416.092	-1430.542	C.2	7	LEU7	0.597	
92	   O	1418.137	416.455	-1431.484	O.2	7	LEU7	-0.568	
93	  CB	1416.286	413.837	-1430.450	C.3	7	LEU7	-0.110	
94	  CG	1416.213	412.357	-1429.984	C.3	7	LEU7	0.353	
95	 CD1	1415.023	411.651	-1430.649	C.3	7	LEU7	-0.412	
96	 CD2	1417.507	411.578	-1430.276	C.3	7	LEU7	-0.412	
97	   H	1416.852	414.245	-1427.960	 H	7	LEU7	0.272	
98	  HA	1418.431	414.257	-1430.344	 H	7	LEU7	0.092	
99	 2HB	1416.263	413.853	-1431.557	 H	7	LEU7	0.046	
100	 3HB	1415.346	414.339	-1430.146	 H	7	LEU7	0.046	
101	  HG	1416.044	412.349	-1428.887	 H	7	LEU7	-0.036	
102	1HD1	1414.066	412.160	-1430.427	 H	7	LEU7	0.100	
103	2HD1	1415.123	411.611	-1431.750	 H	7	LEU7	0.100	
104	3HD1	1414.917	410.610	-1430.293	 H	7	LEU7	0.100	
105	1HD2	1417.782	411.609	-1431.345	 H	7	LEU7	0.100	
106	2HD2	1418.360	411.990	-1429.704	 H	7	LEU7	0.100	
107	3HD2	1417.426	410.516	-1429.980	 H	7	LEU7	0.100	
108	   N	1416.579	416.933	-1430.035	N.am	8	ASP8	-0.516	
109	  CA	1416.509	418.283	-1430.588	C.3	8	ASP8	0.038	
110	   C	1417.855	418.962	-1430.531	C.2	8	ASP8	0.537	
111	   O	1418.328	419.568	-1431.505	O.2	8	ASP8	-0.582	
112	  CB	1415.431	419.121	-1429.846	C.3	8	ASP8	-0.030	
113	  CG	1415.212	420.542	-1430.386	C.2	8	ASP8	0.799	
114	 OD1	1415.276	420.741	-1431.617	O.co2	8	ASP8	-0.801	
115	 OD2	1415.019	421.468	-1429.571	O.co2	8	ASP8	-0.801	
116	   H	1415.981	416.661	-1429.268	 H	8	ASP8	0.294	
117	  HA	1416.226	418.205	-1431.655	 H	8	ASP8	0.088	
118	 2HB	1415.688	419.204	-1428.774	 H	8	ASP8	-0.012	
119	 3HB	1414.452	418.616	-1429.879	 H	8	ASP8	-0.012	
120	   N	1418.535	418.912	-1429.436	N.am	9	PHE9	-0.416	
121	  CA	1419.837	419.570	-1429.380	C.3	9	PHE9	-0.002	
122	   C	1420.757	419.043	-1430.456	C.2	9	PHE9	0.597	
123	   O	1421.433	419.814	-1431.193	O.2	9	PHE9	-0.568	
124	  CB	1420.500	419.328	-1427.990	C.3	9	PHE9	-0.034	
125	  CG	1419.706	419.801	-1426.761	C.2	9	PHE9	0.012	
126	 CD1	1418.782	418.937	-1426.162	C.2	9	PHE9	-0.126	
127	 CD2	1419.849	421.102	-1426.275	C.2	9	PHE9	-0.126	
128	 CE1	1417.998	419.377	-1425.100	C.2	9	PHE9	-0.170	
129	 CE2	1419.071	421.538	-1425.205	C.2	9	PHE9	-0.170	
130	  CZ	1418.144	420.676	-1424.621	C.2	9	PHE9	-0.107	
131	   H	1418.172	418.426	-1428.629	 H	9	PHE9	0.272	
132	  HA	1419.699	420.655	-1429.549	 H	9	PHE9	0.098	
133	 2HB	1421.497	419.811	-1427.968	 H	9	PHE9	0.030	
134	 3HB	1420.733	418.250	-1427.871	 H	9	PHE9	0.030	
135	 1HD	1418.641	417.937	-1426.550	 H	9	PHE9	0.133	
136	 2HD	1420.550	421.783	-1426.737	 H	9	PHE9	0.133	
137	 1HE	1417.266	418.712	-1424.665	 H	9	PHE9	0.143	
138	 2HE	1419.179	422.548	-1424.837	 H	9	PHE9	0.143	
139	  HZ	1417.530	421.016	-1423.801	 H	9	PHE9	0.130	
140	   N	1420.855	417.768	-1430.626	N.am	10	HIS10	-0.416	
141	  CA	1421.744	417.258	-1431.667	C.3	10	HIS10	-0.058	
142	   C	1421.378	417.824	-1433.018	C.2	10	HIS10	0.597	
143	   O	1422.230	418.290	-1433.788	O.2	10	HIS10	-0.568	
144	  CB	1421.582	415.729	-1431.663	C.3	10	HIS10	-0.007	
145	  CG	1422.868	415.020	-1431.354	C.2	10	HIS10	0.187	
146	 CD2	1423.248	414.684	-1430.062	C.2	10	HIS10	-0.221	
147	 ND1	1423.821	414.616	-1432.287	N.2	10	HIS10	-0.543	
148	 CE1	1424.727	414.058	-1431.463	C.2	10	HIS10	0.163	
149	 NE2	1424.464	414.054	-1430.128	N.pl3	10	HIS10	-0.280	
150	   H	1420.324	417.131	-1430.049	 H	10	HIS10	0.272	
151	  HA	1422.763	417.616	-1431.440	 H	10	HIS10	0.136	
152	 2HB	1421.218	415.363	-1432.644	 H	10	HIS10	0.037	
153	 3HB	1420.826	415.391	-1430.924	 H	10	HIS10	0.037	
154	 2HD	1422.661	414.898	-1429.173	 H	10	HIS10	0.186	
155	 1HE	1425.619	413.638	-1431.910	 H	10	HIS10	0.144	
156	 2HE	1425.030	413.676	-1429.355	 H	10	HIS10	0.334	
157	   N	1420.140	417.822	-1433.381	N.am	11	VAL11	-0.416	
158	  CA	1419.786	418.369	-1434.688	C.3	11	VAL11	-0.087	
159	   C	1420.248	419.800	-1434.819	C.2	11	VAL11	0.597	
160	   O	1420.850	420.206	-1435.821	O.2	11	VAL11	-0.568	
161	  CB	1418.224	418.260	-1434.909	C.3	11	VAL11	0.299	
162	 CG1	1417.656	418.964	-1436.171	C.3	11	VAL11	-0.319	
163	 CG2	1417.702	416.805	-1434.983	C.3	11	VAL11	-0.319	
164	   H	1419.427	417.448	-1432.772	 H	11	VAL11	0.272	
165	  HA	1420.306	417.787	-1435.470	 H	11	VAL11	0.097	
166	  HB	1417.736	418.739	-1434.033	 H	11	VAL11	-0.030	
167	1HG1	1418.096	418.574	-1437.108	 H	11	VAL11	0.079	
168	2HG1	1416.557	418.856	-1436.254	 H	11	VAL11	0.079	
169	3HG1	1417.833	420.057	-1436.161	 H	11	VAL11	0.079	
170	1HG2	1417.992	416.218	-1434.093	 H	11	VAL11	0.079	
171	2HG2	1416.596	416.767	-1435.027	 H	11	VAL11	0.079	
172	3HG2	1418.085	416.266	-1435.870	 H	11	VAL11	0.079	
173	   N	1420.009	420.624	-1433.856	N.am	12	GLN12	-0.416	
174	  CA	1420.456	422.008	-1433.982	C.3	12	GLN12	-0.003	
175	   C	1421.946	422.078	-1434.218	C.2	12	GLN12	0.597	
176	   O	1422.433	422.787	-1435.096	O.2	12	GLN12	-0.568	
177	  CB	1420.063	422.774	-1432.699	C.3	12	GLN12	-0.004	
178	  CG	1420.421	424.296	-1432.666	C.3	12	GLN12	-0.064	
179	  CD	1420.117	425.108	-1431.401	C.2	12	GLN12	0.695	
180	 NE2	1419.549	424.530	-1430.373	N.pl3	12	GLN12	-0.941	
181	 OE1	1420.417	426.289	-1431.322	O.2	12	GLN12	-0.609	
182	   H	1419.520	420.317	-1433.028	 H	12	GLN12	0.272	
183	  HA	1419.957	422.464	-1434.857	 H	12	GLN12	0.085	
184	 2HB	1420.539	422.274	-1431.829	 H	12	GLN12	0.017	
185	 3HB	1418.973	422.665	-1432.536	 H	12	GLN12	0.017	
186	 2HG	1419.944	424.817	-1433.517	 H	12	GLN12	0.035	
187	 3HG	1421.505	424.440	-1432.831	 H	12	GLN12	0.035	
188	1HE2	1419.441	425.124	-1429.549	 H	12	GLN12	0.425	
189	2HE2	1419.387	423.526	-1430.477	 H	12	GLN12	0.425	
190	   N	1422.731	421.371	-1433.478	N.am	13	ARG13	-0.348	
191	  CA	1424.171	421.439	-1433.707	C.3	13	ARG13	-0.264	
192	   C	1424.509	421.069	-1435.132	C.2	13	ARG13	0.734	
193	   O	1425.277	421.742	-1435.815	O.2	13	ARG13	-0.589	
194	  CB	1424.885	420.500	-1432.693	C.3	13	ARG13	-0.001	
195	  CG	1426.430	420.655	-1432.611	C.3	13	ARG13	0.039	
196	  CD	1427.057	419.667	-1431.614	C.3	13	ARG13	0.049	
197	  NE	1428.534	419.876	-1431.562	N.pl3	13	ARG13	-0.530	
198	  CZ	1429.382	419.185	-1430.807	C.cat	13	ARG13	0.808	
199	 NH1	1429.018	418.219	-1430.011	N.pl3	13	ARG13	-0.863	
200	 NH2	1430.642	419.486	-1430.862	N.pl3	13	ARG13	-0.863	
201	   H	1422.355	420.780	-1432.750	 H	13	ARG13	0.275	
202	  HA	1424.494	422.485	-1433.547	 H	13	ARG13	0.156	
203	 2HB	1424.620	419.450	-1432.934	 H	13	ARG13	0.033	
204	 3HB	1424.459	420.665	-1431.683	 H	13	ARG13	0.033	
205	 2HG	1426.676	421.700	-1432.331	 H	13	ARG13	0.029	
206	 3HG	1426.881	420.501	-1433.612	 H	13	ARG13	0.029	
207	 2HD	1426.814	418.627	-1431.924	 H	13	ARG13	0.069	
208	 3HD	1426.600	419.811	-1430.611	 H	13	ARG13	0.069	
209	  HE	1428.985	420.600	-1432.132	 H	13	ARG13	0.346	
210	1HH1	1428.013	418.032	-1430.015	 H	13	ARG13	0.448	
211	2HH1	1429.731	417.737	-1429.462	 H	13	ARG13	0.448	
212	1HH2	1430.909	420.245	-1431.492	 H	13	ARG13	0.448	
213	2HH2	1431.277	418.945	-1430.274	 H	13	ARG13	0.448	
214	   N	1423.975	420.015	-1435.648	N.am	14	VAL14	-0.416	
215	  CA	1424.301	419.657	-1437.025	C.3	14	VAL14	-0.087	
216	   C	1423.970	420.787	-1437.970	C.2	14	VAL14	0.597	
217	   O	1424.764	421.170	-1438.839	O.2	14	VAL14	-0.568	
218	  CB	1423.531	418.339	-1437.434	C.3	14	VAL14	0.299	
219	 CG1	1423.622	417.922	-1438.928	C.3	14	VAL14	-0.319	
220	 CG2	1423.964	417.087	-1436.634	C.3	14	VAL14	-0.319	
221	   H	1423.340	419.445	-1435.107	 H	14	VAL14	0.272	
222	  HA	1425.390	419.482	-1437.099	 H	14	VAL14	0.097	
223	  HB	1422.454	418.509	-1437.219	 H	14	VAL14	-0.030	
224	1HG1	1424.663	417.747	-1439.256	 H	14	VAL14	0.079	
225	2HG1	1423.050	416.998	-1439.141	 H	14	VAL14	0.079	
226	3HG1	1423.192	418.684	-1439.606	 H	14	VAL14	0.079	
227	1HG2	1423.876	417.244	-1435.544	 H	14	VAL14	0.079	
228	2HG2	1423.329	416.210	-1436.868	 H	14	VAL14	0.079	
229	3HG2	1425.012	416.798	-1436.839	 H	14	VAL14	0.079	
230	   N	1422.825	421.371	-1437.869	N.am	15	MET15	-0.416	
231	  CA	1422.504	422.464	-1438.782	C.3	15	MET15	-0.024	
232	   C	1423.532	423.565	-1438.693	C.2	15	MET15	0.597	
233	   O	1424.035	424.078	-1439.705	O.2	15	MET15	-0.568	
234	  CB	1421.081	423.008	-1438.474	C.3	15	MET15	0.034	
235	  CG	1419.921	422.008	-1438.667	C.3	15	MET15	0.002	
236	  SD	1418.345	422.872	-1438.553	S.3	15	MET15	-0.274	
237	  CE	1417.266	421.441	-1438.419	C.3	15	MET15	-0.054	
238	   H	1422.160	421.077	-1437.168	 H	15	MET15	0.272	
239	  HA	1422.531	422.078	-1439.818	 H	15	MET15	0.088	
240	 2HB	1420.878	423.887	-1439.115	 H	15	MET15	0.024	
241	 3HB	1421.044	423.400	-1437.437	 H	15	MET15	0.024	
242	 2HG	1419.964	421.222	-1437.890	 H	15	MET15	0.044	
243	 3HG	1419.985	421.494	-1439.644	 H	15	MET15	0.044	
244	 1HE	1417.411	420.754	-1439.271	 H	15	MET15	0.068	
245	 2HE	1417.475	420.888	-1437.486	 H	15	MET15	0.068	
246	 3HE	1416.208	421.755	-1438.402	 H	15	MET15	0.068	
247	   N	1423.900	423.986	-1437.530	N.am	16	ARG16	-0.348	
248	  CA	1424.895	425.051	-1437.445	C.3	16	ARG16	-0.264	
249	   C	1426.166	424.661	-1438.161	C.2	16	ARG16	0.734	
250	   O	1426.282	423.585	-1438.743	O.2	16	ARG16	-0.589	
251	  CB	1425.162	425.368	-1435.946	C.3	16	ARG16	-0.001	
252	  CG	1425.985	426.658	-1435.672	C.3	16	ARG16	0.039	
253	  CD	1426.234	426.876	-1434.170	C.3	16	ARG16	0.049	
254	  NE	1427.008	428.136	-1433.967	N.pl3	16	ARG16	-0.530	
255	  CZ	1427.398	428.618	-1432.791	C.cat	16	ARG16	0.808	
256	 NH1	1427.150	428.033	-1431.653	N.pl3	16	ARG16	-0.863	
257	 NH2	1428.060	429.732	-1432.771	N.pl3	16	ARG16	-0.863	
258	   H	1423.505	423.585	-1436.691	 H	16	ARG16	0.275	
259	  HA	1424.485	425.944	-1437.954	 H	16	ARG16	0.156	
260	 2HB	1425.660	424.493	-1435.480	 H	16	ARG16	0.033	
261	 3HB	1424.193	425.448	-1435.413	 H	16	ARG16	0.033	
262	 2HG	1425.454	427.529	-1436.108	 H	16	ARG16	0.029	
263	 3HG	1426.959	426.607	-1436.200	 H	16	ARG16	0.029	
264	 2HD	1426.784	426.002	-1433.757	 H	16	ARG16	0.069	
265	 3HD	1425.261	426.917	-1433.635	 H	16	ARG16	0.069	
266	  HE	1427.286	428.719	-1434.764	 H	16	ARG16	0.346	
267	1HH1	1426.626	427.159	-1431.739	 H	16	ARG16	0.448	
268	2HH1	1427.484	428.468	-1430.792	 H	16	ARG16	0.448	
269	1HH2	1428.246	430.176	-1433.673	 H	16	ARG16	0.448	
270	2HH2	1428.349	430.087	-1431.858	 H	16	ARG16	0.448	
@<TRIPOS>BOND
1 1 2 1
2 1 10 1
3 2 3 1
4 2 5 1
5 2 11 1
6 3 4 2
7 3 16 1
8 5 6 1
9 6 7 1
10 7 8 2
11 7 9 1
12 5 12 1
13 5 13 1
14 6 14 1
15 6 15 1
16 16 17 1
17 16 24 1
18 17 18 1
19 17 20 1
20 17 25 1
21 18 19 2
22 18 30 1
23 20 21 1
24 21 22 1
25 21 23 2
26 20 26 1
27 20 27 1
28 22 28 1
29 22 29 1
30 30 31 1
31 30 36 1
32 31 32 1
33 31 34 1
34 31 37 1
35 32 33 2
36 32 44 1
37 34 35 1
38 35 36 1
39 34 38 1
40 34 39 1
41 35 40 1
42 35 41 1
43 36 42 1
44 36 43 1
45 44 45 1
46 44 53 1
47 45 46 1
48 45 48 1
49 45 54 1
50 46 47 2
51 46 59 1
52 48 49 1
53 49 50 1
54 50 51 2
55 50 52 1
56 48 55 1
57 48 56 1
58 49 57 1
59 49 58 1
60 59 60 1
61 59 65 1
62 60 61 1
63 60 63 1
64 60 66 1
65 61 62 2
66 61 70 1
67 63 64 1
68 63 67 1
69 63 68 1
70 64 69 1
71 70 71 1
72 70 78 1
73 71 72 1
74 71 74 1
75 71 79 1
76 72 73 2
77 72 89 1
78 74 75 1
79 74 76 1
80 75 77 1
81 74 80 1
82 75 81 1
83 75 82 1
84 76 83 1
85 76 84 1
86 76 85 1
87 77 86 1
88 77 87 1
89 77 88 1
90 89 90 1
91 89 97 1
92 90 91 1
93 90 93 1
94 90 98 1
95 91 92 2
96 91 108 1
97 93 94 1
98 94 95 1
99 94 96 1
100 93 99 1
101 93 100 1
102 94 101 1
103 95 102 1
104 95 103 1
105 95 104 1
106 96 105 1
107 96 106 1
108 96 107 1
109 108 109 1
110 108 116 1
111 109 110 1
112 109 112 1
113 109 117 1
114 110 111 2
115 110 120 1
116 112 113 1
117 113 114 2
118 113 115 1
119 112 118 1
120 112 119 1
121 120 121 1
122 120 131 1
123 121 122 1
124 121 124 1
125 121 132 1
126 122 123 2
127 122 140 1
128 124 125 1
129 125 126 2
130 125 127 1
131 127 129 2
132 126 128 1
133 129 130 1
134 128 130 2
135 124 133 1
136 124 134 1
137 126 135 1
138 127 136 1
139 128 137 1
140 129 138 1
141 130 139 1
142 140 141 1
143 140 150 1
144 141 142 1
145 141 144 1
146 141 151 1
147 142 143 2
148 142 157 1
149 144 145 1
150 145 146 2
151 146 149 1
152 145 147 1
153 147 148 2
154 148 149 1
155 144 152 1
156 144 153 1
157 146 154 1
158 148 155 1
159 149 156 1
160 157 158 1
161 157 164 1
162 158 159 1
163 158 161 1
164 158 165 1
165 159 160 2
166 159 173 1
167 161 162 1
168 161 163 1
169 161 166 1
170 162 167 1
171 162 168 1
172 162 169 1
173 163 170 1
174 163 171 1
175 163 172 1
176 173 174 1
177 173 182 1
178 174 175 1
179 174 177 1
180 174 183 1
181 175 176 2
182 175 190 1
183 177 178 1
184 178 179 1
185 179 180 1
186 179 181 2
187 177 184 1
188 177 185 1
189 178 186 1
190 178 187 1
191 180 188 1
192 180 189 1
193 190 191 1
194 190 201 1
195 191 192 1
196 191 194 1
197 191 202 1
198 192 193 2
199 192 214 1
200 194 195 1
201 195 196 1
202 196 197 1
203 197 198 1
204 198 199 2
205 198 200 1
206 194 203 1
207 194 204 1
208 195 205 1
209 195 206 1
210 196 207 1
211 196 208 1
212 197 209 1
213 199 210 1
214 199 211 1
215 200 212 1
216 200 213 1
217 214 215 1
218 214 221 1
219 215 216 1
220 215 218 1
221 215 222 1
222 216 217 2
223 216 230 1
224 218 219 1
225 218 220 1
226 218 223 1
227 219 224 1
228 219 225 1
229 219 226 1
230 220 227 1
231 220 228 1
232 220 229 1
233 230 231 1
234 230 238 1
235 231 232 1
236 231 234 1
237 231 239 1
238 232 233 2
239 232 247 1
240 234 235 1
241 235 236 1
242 236 237 1
243 234 240 1
244 234 241 1
245 235 242 1
246 235 243 1
247 237 244 1
248 237 245 1
249 237 246 1
250 247 248 1
251 247 258 1
252 248 249 1
253 248 251 1
254 248 259 1
255 249 250 2
256 251 252 1
257 252 253 1
258 253 254 1
259 254 255 1
260 255 256 2
261 255 257 1
262 251 260 1
263 251 261 1
264 252 262 1
265 252 263 1
266 253 264 1
267 253 265 1
268 254 266 1
269 256 267 1
270 256 268 1
271 257 269 1
272 257 270 1
@<TRIPOS>SUBSTRUCTURE
1	GLU1	1	RESIDUE	1 ****	GLU
2	ASN2	16	RESIDUE	1 ****	ASN
3	PRO3	30	RESIDUE	1 ****	PRO
4	GLU4	44	RESIDUE	1 ****	GLU
5	SER5	59	RESIDUE	1 ****	SER
6	ILE6	70	RESIDUE	1 ****	ILE
7	LEU7	89	RESIDUE	1 ****	LEU
8	ASP8	108	RESIDUE	1 ****	ASP
9	PHE9	120	RESIDUE	1 ****	PHE
10	HIS10	140	RESIDUE	1 ****	HIS
11	VAL11	157	RESIDUE	1 ****	VAL
12	GLN12	173	RESIDUE	1 ****	GLN
13	ARG13	190	RESIDUE	1 ****	ARG
14	VAL14	214	RESIDUE	1 ****	VAL
15	MET15	230	RESIDUE	1 ****	MET
16	ARG16	247	RESIDUE	1 ****	ARG
