@<TRIPOS>MOLECULE
3-13
262 262 16              
SMALL
USER_CHARGES
@<TRIPOS>ATOM
1	   N	454.856	104.590	-412.316	N.3	1	GLU1	-0.516	
2	  CA	455.415	105.939	-412.316	C.3	1	GLU1	0.040	
3	   C	456.924	105.899	-412.316	C.2	1	GLU1	0.537	
4	   O	457.599	106.598	-413.085	O.2	1	GLU1	-0.582	
5	  CB	454.892	106.724	-411.079	C.3	1	GLU1	0.056	
6	  CG	455.367	108.209	-410.968	C.3	1	GLU1	0.014	
7	  CD	454.943	109.013	-409.753	C.2	1	GLU1	0.805	
8	 OE1	454.215	108.511	-408.875	O.co2	1	GLU1	-0.819	
9	 OE2	455.373	110.183	-409.681	O.co2	1	GLU1	-0.819	
10	   H	455.483	103.711	-412.316	 H	1	GLU1	0.294	
11	  HA	455.089	106.457	-413.236	 H	1	GLU1	0.111	
12	 2HB	455.181	106.193	-410.149	 H	1	GLU1	-0.017	
13	 3HB	453.785	106.714	-411.066	 H	1	GLU1	-0.017	
14	 2HG	455.057	108.794	-411.849	 H	1	GLU1	-0.043	
15	 3HG	456.467	108.276	-410.939	 H	1	GLU1	-0.043	
16	   N	457.528	105.113	-411.491	N.am	2	ASN2	-0.416	
17	  CA	458.988	105.074	-411.491	C.3	2	ASN2	0.014	
18	   C	459.519	104.719	-412.860	C.2	2	ASN2	0.597	
19	   O	460.433	105.349	-413.389	O.2	2	ASN2	-0.568	
20	  CB	459.480	104.051	-410.427	C.3	2	ASN2	-0.204	
21	  CG	459.017	104.275	-408.984	C.2	2	ASN2	0.713	
22	 ND2	459.611	105.190	-408.266	N.pl3	2	ASN2	-0.919	
23	 OD1	458.096	103.641	-408.489	O.2	2	ASN2	-0.593	
24	   H	457.000	104.533	-410.855	 H	2	ASN2	0.272	
25	  HA	459.365	106.084	-411.246	 H	2	ASN2	0.105	
26	 2HB	460.584	103.992	-410.431	 H	2	ASN2	0.080	
27	 3HB	459.151	103.033	-410.713	 H	2	ASN2	0.080	
28	1HD2	459.130	105.363	-407.379	 H	2	ASN2	0.420	
29	2HD2	460.313	105.762	-408.735	 H	2	ASN2	0.420	
30	   N	458.997	103.724	-413.494	N.am	3	SER3	-0.416	
31	  CA	459.511	103.381	-414.817	C.3	3	SER3	-0.025	
32	   C	459.417	104.561	-415.756	C.2	3	SER3	0.597	
33	   O	460.359	104.902	-416.470	O.2	3	SER3	-0.568	
34	  CB	458.781	102.139	-415.387	C.3	3	SER3	0.212	
35	  OG	457.415	102.403	-415.726	O.3	3	SER3	-0.655	
36	   H	458.245	103.190	-413.082	 H	3	SER3	0.272	
37	  HA	460.585	103.139	-414.714	 H	3	SER3	0.084	
38	 2HB	458.828	101.288	-414.681	 H	3	SER3	0.035	
39	 3HB	459.304	101.784	-416.297	 H	3	SER3	0.035	
40	  HG	456.958	102.638	-414.915	 H	3	SER3	0.428	
41	   N	458.315	105.230	-415.812	N.am	4	GLU4	-0.516	
42	  CA	458.225	106.370	-416.719	C.3	4	GLU4	0.040	
43	   C	459.304	107.383	-416.425	C.2	4	GLU4	0.537	
44	   O	459.999	107.883	-417.322	O.2	4	GLU4	-0.582	
45	  CB	456.818	107.024	-416.601	C.3	4	GLU4	0.056	
46	  CG	456.551	108.235	-417.554	C.3	4	GLU4	0.014	
47	  CD	455.222	108.957	-417.446	C.2	4	GLU4	0.805	
48	 OE1	454.353	108.583	-416.635	O.co2	4	GLU4	-0.819	
49	 OE2	455.060	109.942	-418.197	O.co2	4	GLU4	-0.819	
50	   H	457.528	104.969	-415.236	 H	4	GLU4	0.294	
51	  HA	458.369	106.010	-417.754	 H	4	GLU4	0.111	
52	 2HB	456.646	107.356	-415.557	 H	4	GLU4	-0.017	
53	 3HB	456.032	106.265	-416.779	 H	4	GLU4	-0.017	
54	 2HG	456.659	107.942	-418.611	 H	4	GLU4	-0.043	
55	 3HG	457.286	109.040	-417.392	 H	4	GLU4	-0.043	
56	   N	459.511	107.739	-415.202	N.am	5	SER5	-0.416	
57	  CA	460.555	108.719	-414.918	C.3	5	SER5	-0.025	
58	   C	461.893	108.250	-415.440	C.2	5	SER5	0.597	
59	   O	462.634	108.987	-416.090	O.2	5	SER5	-0.568	
60	  CB	460.615	109.038	-413.403	C.3	5	SER5	0.212	
61	  OG	461.102	107.942	-412.622	O.3	5	SER5	-0.655	
62	   H	458.958	107.347	-414.453	 H	5	SER5	0.272	
63	  HA	460.307	109.649	-415.462	 H	5	SER5	0.084	
64	 2HB	459.625	109.352	-413.021	 H	5	SER5	0.035	
65	 3HB	461.276	109.910	-413.232	 H	5	SER5	0.035	
66	  HG	460.479	107.218	-412.723	 H	5	SER5	0.428	
67	   N	462.270	107.041	-415.197	N.am	6	ILE6	-0.416	
68	  CA	463.563	106.588	-415.702	C.3	6	ILE6	-0.060	
69	   C	463.646	106.749	-417.201	C.2	6	ILE6	0.597	
70	   O	464.631	107.261	-417.753	O.2	6	ILE6	-0.568	
71	  CB	463.870	105.102	-415.252	C.3	6	ILE6	0.130	
72	 CG1	463.729	104.843	-413.718	C.3	6	ILE6	-0.043	
73	 CG2	465.283	104.613	-415.698	C.3	6	ILE6	-0.320	
74	 CD1	463.701	103.363	-413.284	C.3	6	ILE6	-0.066	
75	   H	461.680	106.416	-414.666	 H	6	ILE6	0.272	
76	  HA	464.339	107.248	-415.273	 H	6	ILE6	0.087	
77	  HB	463.119	104.456	-415.755	 H	6	ILE6	0.019	
78	2HG1	462.781	105.282	-413.354	 H	6	ILE6	0.024	
79	3HG1	464.517	105.389	-413.163	 H	6	ILE6	0.024	
80	1HG2	465.430	104.648	-416.792	 H	6	ILE6	0.088	
81	2HG2	466.094	105.209	-415.238	 H	6	ILE6	0.088	
82	3HG2	465.467	103.557	-415.430	 H	6	ILE6	0.088	
83	1HD1	462.894	102.801	-413.792	 H	6	ILE6	0.019	
84	2HD1	464.652	102.841	-413.496	 H	6	ILE6	0.019	
85	3HD1	463.526	103.268	-412.197	 H	6	ILE6	0.019	
86	   N	462.661	106.342	-417.929	N.am	7	LEU7	-0.416	
87	  CA	462.741	106.499	-419.378	C.3	7	LEU7	-0.052	
88	   C	462.959	107.945	-419.754	C.2	7	LEU7	0.597	
89	   O	463.818	108.287	-420.581	O.2	7	LEU7	-0.568	
90	  CB	461.462	105.934	-420.060	C.3	7	LEU7	-0.110	
91	  CG	461.098	104.446	-419.810	C.3	7	LEU7	0.353	
92	 CD1	459.876	104.053	-420.652	C.3	7	LEU7	-0.412	
93	 CD2	462.264	103.490	-420.113	C.3	7	LEU7	-0.412	
94	   H	461.848	105.922	-417.502	 H	7	LEU7	0.272	
95	  HA	463.627	105.947	-419.740	 H	7	LEU7	0.092	
96	 2HB	461.548	106.092	-421.153	 H	7	LEU7	0.046	
97	 3HB	460.596	106.556	-419.758	 H	7	LEU7	0.046	
98	  HG	460.825	104.332	-418.740	 H	7	LEU7	-0.036	
99	1HD1	459.001	104.694	-420.431	 H	7	LEU7	0.100	
100	2HD1	460.072	104.133	-421.738	 H	7	LEU7	0.100	
101	3HD1	459.562	103.012	-420.454	 H	7	LEU7	0.100	
102	1HD2	462.642	103.603	-421.145	 H	7	LEU7	0.100	
103	2HD2	463.116	103.667	-419.429	 H	7	LEU7	0.100	
104	3HD2	461.977	102.431	-419.974	 H	7	LEU7	0.100	
105	   N	462.230	108.852	-419.198	N.am	8	ASP8	-0.516	
106	  CA	462.441	110.250	-419.561	C.3	8	ASP8	0.038	
107	   C	463.871	110.665	-419.312	C.2	8	ASP8	0.537	
108	   O	464.530	111.293	-420.156	O.2	8	ASP8	-0.582	
109	  CB	461.453	111.170	-418.790	C.3	8	ASP8	-0.030	
110	  CG	461.529	112.663	-419.142	C.2	8	ASP8	0.799	
111	 OD1	461.743	112.999	-420.325	O.co2	8	ASP8	-0.801	
112	 OD2	461.417	113.499	-418.222	O.co2	8	ASP8	-0.801	
113	   H	461.525	108.599	-418.521	 H	8	ASP8	0.294	
114	  HA	462.253	110.358	-420.647	 H	8	ASP8	0.088	
115	 2HB	461.617	111.072	-417.701	 H	8	ASP8	-0.012	
116	 3HB	460.411	110.857	-418.964	 H	8	ASP8	-0.012	
117	   N	464.424	110.359	-418.188	N.am	9	GLU9	-0.516	
118	  CA	465.807	110.760	-417.947	C.3	9	GLU9	0.040	
119	   C	466.723	110.215	-419.016	C.2	9	GLU9	0.537	
120	   O	467.571	110.922	-419.579	O.2	9	GLU9	-0.582	
121	  CB	466.259	110.269	-416.542	C.3	9	GLU9	0.056	
122	  CG	467.710	110.668	-416.118	C.3	9	GLU9	0.014	
123	  CD	468.236	110.169	-414.785	C.2	9	GLU9	0.805	
124	 OE1	467.522	109.476	-414.034	O.co2	9	GLU9	-0.819	
125	 OE2	469.411	110.477	-414.499	O.co2	9	GLU9	-0.819	
126	   H	463.909	109.848	-417.485	 H	9	GLU9	0.294	
127	  HA	465.867	111.863	-417.980	 H	9	GLU9	0.111	
128	 2HB	466.169	109.165	-416.484	 H	9	GLU9	-0.017	
129	 3HB	465.560	110.641	-415.769	 H	9	GLU9	-0.017	
130	 2HG	467.836	111.763	-416.110	 H	9	GLU9	-0.043	
131	 3HG	468.455	110.289	-416.837	 H	9	GLU9	-0.043	
132	   N	466.620	108.974	-419.354	N.am	10	HIS10	-0.416	
133	  CA	467.505	108.445	-420.389	C.3	10	HIS10	-0.058	
134	   C	467.369	109.230	-421.671	C.2	10	HIS10	0.597	
135	   O	468.358	109.627	-422.306	O.2	10	HIS10	-0.568	
136	  CB	467.087	106.982	-420.609	C.3	10	HIS10	-0.007	
137	  CG	468.200	106.020	-420.310	C.2	10	HIS10	0.187	
138	 CD2	468.393	105.464	-419.052	C.2	10	HIS10	-0.221	
139	 ND1	469.155	105.570	-421.218	N.2	10	HIS10	-0.543	
140	 CE1	469.872	104.760	-420.417	C.2	10	HIS10	0.163	
141	 NE2	469.485	104.638	-419.118	N.pl3	10	HIS10	-0.280	
142	   H	465.937	108.377	-418.910	 H	10	HIS10	0.272	
143	  HA	468.543	108.584	-420.042	 H	10	HIS10	0.136	
144	 2HB	466.761	106.811	-421.654	 H	10	HIS10	0.037	
145	 3HB	466.218	106.696	-419.980	 H	10	HIS10	0.037	
146	 2HD	467.769	105.668	-418.187	 H	10	HIS10	0.186	
147	 1HE	470.718	104.245	-420.852	 H	10	HIS10	0.144	
148	 2HE	469.904	104.072	-418.366	 H	10	HIS10	0.334	
149	   N	466.190	109.496	-422.119	N.am	11	VAL11	-0.416	
150	  CA	466.058	110.256	-423.360	C.3	11	VAL11	-0.087	
151	   C	466.767	111.585	-423.257	C.2	11	VAL11	0.597	
152	   O	467.521	111.998	-424.148	O.2	11	VAL11	-0.568	
153	  CB	464.530	110.459	-423.705	C.3	11	VAL11	0.299	
154	 CG1	464.211	111.405	-424.895	C.3	11	VAL11	-0.319	
155	 CG2	463.778	109.143	-424.018	C.3	11	VAL11	-0.319	
156	   H	465.369	109.184	-421.620	 H	11	VAL11	0.272	
157	  HA	466.545	109.692	-424.176	 H	11	VAL11	0.097	
158	  HB	464.048	110.906	-422.809	 H	11	VAL11	-0.030	
159	1HG1	464.666	111.061	-425.843	 H	11	VAL11	0.079	
160	2HG1	463.123	111.507	-425.071	 H	11	VAL11	0.079	
161	3HG1	464.568	112.438	-424.721	 H	11	VAL11	0.079	
162	1HG2	463.878	108.407	-423.199	 H	11	VAL11	0.079	
163	2HG2	462.691	109.310	-424.146	 H	11	VAL11	0.079	
164	3HG2	464.147	108.657	-424.941	 H	11	VAL11	0.079	
165	   N	466.580	112.314	-422.209	N.am	12	GLN12	-0.416	
166	  CA	467.265	113.599	-422.109	C.3	12	GLN12	-0.003	
167	   C	468.761	113.427	-422.226	C.2	12	GLN12	0.597	
168	   O	469.442	114.141	-422.960	O.2	12	GLN12	-0.568	
169	  CB	466.887	114.258	-420.764	C.3	12	GLN12	-0.004	
170	  CG	467.493	115.675	-420.495	C.3	12	GLN12	-0.064	
171	  CD	467.211	116.365	-419.154	C.2	12	GLN12	0.695	
172	 NE2	466.459	115.776	-418.260	N.pl3	12	GLN12	-0.941	
173	 OE1	467.698	117.454	-418.891	O.2	12	GLN12	-0.609	
174	   H	465.970	111.999	-421.468	 H	12	GLN12	0.272	
175	  HA	466.935	114.243	-422.946	 H	12	GLN12	0.085	
176	 2HB	467.187	113.576	-419.941	 H	12	GLN12	0.017	
177	 3HB	465.784	114.328	-420.697	 H	12	GLN12	0.017	
178	 2HG	467.194	116.374	-421.297	 H	12	GLN12	0.035	
179	 3HG	468.596	115.640	-420.560	 H	12	GLN12	0.035	
180	1HE2	466.375	116.273	-417.372	 H	12	GLN12	0.425	
181	2HE2	466.141	114.839	-418.514	 H	12	GLN12	0.425	
182	   N	469.341	112.505	-421.536	N.am	13	ARG13	-0.348	
183	  CA	470.787	112.339	-421.650	C.3	13	ARG13	-0.264	
184	   C	471.191	112.094	-423.085	C.2	13	ARG13	0.734	
185	   O	472.124	112.697	-423.611	O.2	13	ARG13	-0.589	
186	  CB	471.232	111.169	-420.728	C.3	13	ARG13	-0.001	
187	  CG	472.766	111.031	-420.514	C.3	13	ARG13	0.039	
188	  CD	473.119	109.831	-419.621	C.3	13	ARG13	0.049	
189	  NE	474.598	109.762	-419.434	N.pl3	13	ARG13	-0.530	
190	  CZ	475.242	108.841	-418.723	C.cat	13	ARG13	0.808	
191	 NH1	474.645	107.866	-418.097	N.pl3	13	ARG13	-0.863	
192	 NH2	476.533	108.914	-418.646	N.pl3	13	ARG13	-0.863	
193	   H	468.803	111.906	-420.926	 H	13	ARG13	0.275	
194	  HA	471.266	113.282	-421.324	 H	13	ARG13	0.156	
195	 2HB	470.817	110.221	-421.130	 H	13	ARG13	0.033	
196	 3HB	470.746	111.282	-419.737	 H	13	ARG13	0.033	
197	 2HG	473.157	111.972	-420.074	 H	13	ARG13	0.029	
198	 3HG	473.278	110.923	-421.492	 H	13	ARG13	0.029	
199	 2HD	472.734	108.898	-420.089	 H	13	ARG13	0.069	
200	 3HD	472.599	109.930	-418.643	 H	13	ARG13	0.069	
201	  HE	475.217	110.457	-419.864	 H	13	ARG13	0.346	
202	1HH1	473.628	107.865	-418.199	 H	13	ARG13	0.448	
203	2HH1	475.211	107.199	-417.570	 H	13	ARG13	0.448	
204	1HH2	476.983	109.685	-419.144	 H	13	ARG13	0.448	
205	2HH2	477.009	108.199	-418.094	 H	13	ARG13	0.448	
206	   N	470.538	111.225	-423.779	N.am	14	VAL14	-0.416	
207	  CA	470.928	110.988	-425.165	C.3	14	VAL14	-0.087	
208	   C	470.885	112.268	-425.966	C.2	14	VAL14	0.597	
209	   O	471.811	112.606	-426.714	O.2	14	VAL14	-0.568	
210	  CB	469.988	109.892	-425.807	C.3	14	VAL14	0.299	
211	 CG1	470.149	109.654	-427.334	C.3	14	VAL14	-0.319	
212	 CG2	470.125	108.493	-425.160	C.3	14	VAL14	-0.319	
213	   H	469.767	110.717	-423.369	 H	14	VAL14	0.272	
214	  HA	471.973	110.630	-425.185	 H	14	VAL14	0.097	
215	  HB	468.940	110.225	-425.648	 H	14	VAL14	-0.030	
216	1HG1	471.172	109.335	-427.608	 H	14	VAL14	0.079	
217	2HG1	469.452	108.882	-427.714	 H	14	VAL14	0.079	
218	3HG1	469.921	110.559	-427.928	 H	14	VAL14	0.079	
219	1HG2	469.961	108.527	-424.067	 H	14	VAL14	0.079	
220	2HG2	469.376	107.780	-425.558	 H	14	VAL14	0.079	
221	3HG2	471.124	108.048	-425.327	 H	14	VAL14	0.079	
222	   N	469.850	113.032	-425.867	N.am	15	MET15	-0.416	
223	  CA	469.807	114.270	-426.640	C.3	15	MET15	-0.024	
224	   C	470.994	115.147	-426.325	C.2	15	MET15	0.597	
225	   O	471.670	115.682	-427.218	O.2	15	MET15	-0.568	
226	  CB	468.475	115.018	-426.362	C.3	15	MET15	0.034	
227	  CG	467.185	114.276	-426.776	C.3	15	MET15	0.002	
228	  SD	465.776	115.389	-426.656	S.3	15	MET15	-0.274	
229	  CE	464.462	114.171	-426.800	C.3	15	MET15	-0.054	
230	   H	469.081	112.778	-425.263	 H	15	MET15	0.272	
231	  HA	469.867	114.016	-427.715	 H	15	MET15	0.088	
232	 2HB	468.485	115.992	-426.889	 H	15	MET15	0.024	
233	 3HB	468.406	115.279	-425.287	 H	15	MET15	0.024	
234	 2HG	467.021	113.405	-426.114	 H	15	MET15	0.044	
235	 3HG	467.254	113.884	-427.807	 H	15	MET15	0.044	
236	 1HE	464.569	113.580	-427.727	 H	15	MET15	0.068	
237	 2HE	464.485	113.478	-425.940	 H	15	MET15	0.068	
238	 3HE	463.475	114.666	-426.816	 H	15	MET15	0.068	
239	   N	471.315	115.347	-425.092	N.am	16	ARG16	-0.348	
240	  CA	472.464	116.197	-424.789	C.3	16	ARG16	-0.264	
241	   C	473.713	115.675	-425.458	C.2	16	ARG16	0.734	
242	   O	473.700	114.676	-426.174	O.2	16	ARG16	-0.589	
243	  CB	472.637	116.272	-423.245	C.3	16	ARG16	-0.001	
244	  CG	473.637	117.348	-422.736	C.3	16	ARG16	0.039	
245	  CD	473.775	117.331	-421.205	C.3	16	ARG16	0.049	
246	  NE	474.728	118.395	-420.774	N.pl3	16	ARG16	-0.530	
247	  CZ	475.081	118.649	-419.518	C.cat	16	ARG16	0.808	
248	 NH1	474.630	117.982	-418.493	N.pl3	16	ARG16	-0.863	
249	 NH2	475.917	119.614	-419.296	N.pl3	16	ARG16	-0.863	
250	   H	470.780	114.923	-424.348	 H	16	ARG16	0.275	
251	  HA	472.261	117.205	-425.197	 H	16	ARG16	0.156	
252	 2HB	472.933	115.270	-422.870	 H	16	ARG16	0.033	
253	 3HB	471.649	116.458	-422.777	 H	16	ARG16	0.033	
254	 2HG	473.305	118.348	-423.085	 H	16	ARG16	0.029	
255	 3HG	474.634	117.188	-423.195	 H	16	ARG16	0.029	
256	 2HD	474.127	116.327	-420.878	 H	16	ARG16	0.069	
257	 3HD	472.776	117.480	-420.741	 H	16	ARG16	0.069	
258	  HE	475.176	119.011	-421.460	 H	16	ARG16	0.346	
259	1HH1	473.976	117.235	-418.736	 H	16	ARG16	0.448	
260	2HH1	474.949	118.240	-417.557	 H	16	ARG16	0.448	
261	1HH2	476.260	120.125	-420.111	 H	16	ARG16	0.448	
262	2HH2	476.174	119.795	-418.324	 H	16	ARG16	0.448	
@<TRIPOS>BOND
1 1 2 1
2 1 10 1
3 2 3 1
4 2 5 1
5 2 11 1
6 3 4 2
7 3 16 1
8 5 6 1
9 6 7 1
10 7 8 2
11 7 9 1
12 5 12 1
13 5 13 1
14 6 14 1
15 6 15 1
16 16 17 1
17 16 24 1
18 17 18 1
19 17 20 1
20 17 25 1
21 18 19 2
22 18 30 1
23 20 21 1
24 21 22 1
25 21 23 2
26 20 26 1
27 20 27 1
28 22 28 1
29 22 29 1
30 30 31 1
31 30 36 1
32 31 32 1
33 31 34 1
34 31 37 1
35 32 33 2
36 32 41 1
37 34 35 1
38 34 38 1
39 34 39 1
40 35 40 1
41 41 42 1
42 41 50 1
43 42 43 1
44 42 45 1
45 42 51 1
46 43 44 2
47 43 56 1
48 45 46 1
49 46 47 1
50 47 48 2
51 47 49 1
52 45 52 1
53 45 53 1
54 46 54 1
55 46 55 1
56 56 57 1
57 56 62 1
58 57 58 1
59 57 60 1
60 57 63 1
61 58 59 2
62 58 67 1
63 60 61 1
64 60 64 1
65 60 65 1
66 61 66 1
67 67 68 1
68 67 75 1
69 68 69 1
70 68 71 1
71 68 76 1
72 69 70 2
73 69 86 1
74 71 72 1
75 71 73 1
76 72 74 1
77 71 77 1
78 72 78 1
79 72 79 1
80 73 80 1
81 73 81 1
82 73 82 1
83 74 83 1
84 74 84 1
85 74 85 1
86 86 87 1
87 86 94 1
88 87 88 1
89 87 90 1
90 87 95 1
91 88 89 2
92 88 105 1
93 90 91 1
94 91 92 1
95 91 93 1
96 90 96 1
97 90 97 1
98 91 98 1
99 92 99 1
100 92 100 1
101 92 101 1
102 93 102 1
103 93 103 1
104 93 104 1
105 105 106 1
106 105 113 1
107 106 107 1
108 106 109 1
109 106 114 1
110 107 108 2
111 107 117 1
112 109 110 1
113 110 111 2
114 110 112 1
115 109 115 1
116 109 116 1
117 117 118 1
118 117 126 1
119 118 119 1
120 118 121 1
121 118 127 1
122 119 120 2
123 119 132 1
124 121 122 1
125 122 123 1
126 123 124 2
127 123 125 1
128 121 128 1
129 121 129 1
130 122 130 1
131 122 131 1
132 132 133 1
133 132 142 1
134 133 134 1
135 133 136 1
136 133 143 1
137 134 135 2
138 134 149 1
139 136 137 1
140 137 138 2
141 138 141 1
142 137 139 1
143 139 140 2
144 140 141 1
145 136 144 1
146 136 145 1
147 138 146 1
148 140 147 1
149 141 148 1
150 149 150 1
151 149 156 1
152 150 151 1
153 150 153 1
154 150 157 1
155 151 152 2
156 151 165 1
157 153 154 1
158 153 155 1
159 153 158 1
160 154 159 1
161 154 160 1
162 154 161 1
163 155 162 1
164 155 163 1
165 155 164 1
166 165 166 1
167 165 174 1
168 166 167 1
169 166 169 1
170 166 175 1
171 167 168 2
172 167 182 1
173 169 170 1
174 170 171 1
175 171 172 1
176 171 173 2
177 169 176 1
178 169 177 1
179 170 178 1
180 170 179 1
181 172 180 1
182 172 181 1
183 182 183 1
184 182 193 1
185 183 184 1
186 183 186 1
187 183 194 1
188 184 185 2
189 184 206 1
190 186 187 1
191 187 188 1
192 188 189 1
193 189 190 1
194 190 191 2
195 190 192 1
196 186 195 1
197 186 196 1
198 187 197 1
199 187 198 1
200 188 199 1
201 188 200 1
202 189 201 1
203 191 202 1
204 191 203 1
205 192 204 1
206 192 205 1
207 206 207 1
208 206 213 1
209 207 208 1
210 207 210 1
211 207 214 1
212 208 209 2
213 208 222 1
214 210 211 1
215 210 212 1
216 210 215 1
217 211 216 1
218 211 217 1
219 211 218 1
220 212 219 1
221 212 220 1
222 212 221 1
223 222 223 1
224 222 230 1
225 223 224 1
226 223 226 1
227 223 231 1
228 224 225 2
229 224 239 1
230 226 227 1
231 227 228 1
232 228 229 1
233 226 232 1
234 226 233 1
235 227 234 1
236 227 235 1
237 229 236 1
238 229 237 1
239 229 238 1
240 239 240 1
241 239 250 1
242 240 241 1
243 240 243 1
244 240 251 1
245 241 242 2
246 243 244 1
247 244 245 1
248 245 246 1
249 246 247 1
250 247 248 2
251 247 249 1
252 243 252 1
253 243 253 1
254 244 254 1
255 244 255 1
256 245 256 1
257 245 257 1
258 246 258 1
259 248 259 1
260 248 260 1
261 249 261 1
262 249 262 1
@<TRIPOS>SUBSTRUCTURE
1	GLU1	1	RESIDUE	1 ****	GLU
2	ASN2	16	RESIDUE	1 ****	ASN
3	SER3	30	RESIDUE	1 ****	SER
4	GLU4	41	RESIDUE	1 ****	GLU
5	SER5	56	RESIDUE	1 ****	SER
6	ILE6	67	RESIDUE	1 ****	ILE
7	LEU7	86	RESIDUE	1 ****	LEU
8	ASP8	105	RESIDUE	1 ****	ASP
9	GLU9	117	RESIDUE	1 ****	GLU
10	HIS10	132	RESIDUE	1 ****	HIS
11	VAL11	149	RESIDUE	1 ****	VAL
12	GLN12	165	RESIDUE	1 ****	GLN
13	ARG13	182	RESIDUE	1 ****	ARG
14	VAL14	206	RESIDUE	1 ****	VAL
15	MET15	222	RESIDUE	1 ****	MET
16	ARG16	239	RESIDUE	1 ****	ARG
