@<TRIPOS>MOLECULE
3-10
275 277 16              
SMALL
USER_CHARGES
@<TRIPOS>ATOM
1	   N	425.461	97.649	-389.389	N.3	1	GLU1	-0.516	
2	  CA	426.020	98.998	-389.389	C.3	1	GLU1	0.040	
3	   C	427.529	98.958	-389.389	C.2	1	GLU1	0.537	
4	   O	428.205	99.658	-390.158	O.2	1	GLU1	-0.582	
5	  CB	425.497	99.783	-388.152	C.3	1	GLU1	0.056	
6	  CG	425.972	101.268	-388.041	C.3	1	GLU1	0.014	
7	  CD	425.548	102.072	-386.826	C.2	1	GLU1	0.805	
8	 OE1	424.820	101.570	-385.948	O.co2	1	GLU1	-0.819	
9	 OE2	425.978	103.242	-386.754	O.co2	1	GLU1	-0.819	
10	   H	426.088	96.770	-389.389	 H	1	GLU1	0.294	
11	  HA	425.694	99.516	-390.309	 H	1	GLU1	0.111	
12	 2HB	425.786	99.252	-387.222	 H	1	GLU1	-0.017	
13	 3HB	424.390	99.773	-388.139	 H	1	GLU1	-0.017	
14	 2HG	425.662	101.853	-388.922	 H	1	GLU1	-0.043	
15	 3HG	427.072	101.335	-388.012	 H	1	GLU1	-0.043	
16	   N	428.134	98.173	-388.564	N.am	2	ASN2	-0.416	
17	  CA	429.593	98.134	-388.564	C.3	2	ASN2	0.014	
18	   C	430.125	97.779	-389.933	C.2	2	ASN2	0.597	
19	   O	431.039	98.409	-390.462	O.2	2	ASN2	-0.568	
20	  CB	430.086	97.111	-387.500	C.3	2	ASN2	-0.204	
21	  CG	429.623	97.335	-386.057	C.2	2	ASN2	0.713	
22	 ND2	430.217	98.250	-385.338	N.pl3	2	ASN2	-0.919	
23	 OD1	428.702	96.701	-385.562	O.2	2	ASN2	-0.593	
24	   H	427.606	97.593	-387.928	 H	2	ASN2	0.272	
25	  HA	429.971	99.144	-388.319	 H	2	ASN2	0.105	
26	 2HB	431.190	97.052	-387.504	 H	2	ASN2	0.080	
27	 3HB	429.757	96.093	-387.786	 H	2	ASN2	0.080	
28	1HD2	429.736	98.423	-384.452	 H	2	ASN2	0.420	
29	2HD2	430.919	98.822	-385.808	 H	2	ASN2	0.420	
30	   N	429.603	96.783	-390.567	N.am	3	TRP3	-0.416	
31	  CA	430.116	96.440	-391.890	C.3	3	TRP3	-0.027	
32	   C	430.022	97.618	-392.830	C.2	3	TRP3	0.597	
33	   O	430.964	97.958	-393.544	O.2	3	TRP3	-0.568	
34	  CB	429.297	95.247	-392.458	C.3	3	TRP3	-0.005	
35	  CG	429.467	93.931	-391.694	C.2	3	TRP3	-0.141	
36	 CD1	428.600	93.442	-390.695	C.2	3	TRP3	-0.164	
37	 CD2	430.514	93.034	-391.758	C.2	3	TRP3	0.124	
38	 CE2	430.270	92.013	-390.806	C.2	3	TRP3	0.138	
39	 CE3	431.692	93.018	-392.548	C.2	3	TRP3	-0.239	
40	 NE1	429.081	92.245	-390.131	N.pl3	3	TRP3	-0.342	
41	 CZ2	431.198	90.962	-390.645	C.2	3	TRP3	-0.260	
42	 CZ3	432.590	91.965	-392.376	C.2	3	TRP3	-0.197	
43	 CH2	432.347	90.950	-391.440	C.2	3	TRP3	-0.113	
44	   H	428.851	96.250	-390.154	 H	3	TRP3	0.272	
45	  HA	431.185	96.165	-391.804	 H	3	TRP3	0.112	
46	 2HB	429.577	95.059	-393.512	 H	3	TRP3	0.034	
47	 3HB	428.222	95.510	-392.503	 H	3	TRP3	0.034	
48	 1HD	427.703	93.954	-390.373	 H	3	TRP3	0.206	
49	 1HE	428.676	91.696	-389.364	 H	3	TRP3	0.341	
50	 3HE	431.891	93.800	-393.267	 H	3	TRP3	0.170	
51	 2HZ	431.018	90.182	-389.920	 H	3	TRP3	0.157	
52	 3HZ	433.489	91.933	-392.975	 H	3	TRP3	0.145	
53	 2HH	433.059	90.145	-391.332	 H	3	TRP3	0.142	
54	   N	428.921	98.288	-392.886	N.am	4	GLU4	-0.516	
55	  CA	428.831	99.427	-393.795	C.3	4	GLU4	0.040	
56	   C	429.911	100.440	-393.502	C.2	4	GLU4	0.537	
57	   O	430.606	100.938	-394.400	O.2	4	GLU4	-0.582	
58	  CB	427.425	100.082	-393.678	C.3	4	GLU4	0.056	
59	  CG	427.159	101.291	-394.632	C.3	4	GLU4	0.014	
60	  CD	425.829	102.015	-394.525	C.2	4	GLU4	0.805	
61	 OE1	424.960	101.642	-393.713	O.co2	4	GLU4	-0.819	
62	 OE2	425.668	102.999	-395.277	O.co2	4	GLU4	-0.819	
63	   H	428.133	98.028	-392.310	 H	4	GLU4	0.294	
64	  HA	428.975	99.066	-394.830	 H	4	GLU4	0.111	
65	 2HB	427.253	100.415	-392.634	 H	4	GLU4	-0.017	
66	 3HB	426.639	99.323	-393.855	 H	4	GLU4	-0.017	
67	 2HG	427.266	100.997	-395.688	 H	4	GLU4	-0.043	
68	 3HG	427.894	102.097	-394.471	 H	4	GLU4	-0.043	
69	   N	430.118	100.797	-392.280	N.am	5	SER5	-0.416	
70	  CA	431.163	101.777	-391.998	C.3	5	SER5	-0.025	
71	   C	432.500	101.306	-392.519	C.2	5	SER5	0.597	
72	   O	433.241	102.042	-393.171	O.2	5	SER5	-0.568	
73	  CB	431.223	102.098	-390.483	C.3	5	SER5	0.212	
74	  OG	431.710	101.002	-389.701	O.3	5	SER5	-0.655	
75	   H	429.565	100.406	-391.531	 H	5	SER5	0.272	
76	  HA	430.916	102.706	-392.543	 H	5	SER5	0.084	
77	 2HB	430.233	102.413	-390.101	 H	5	SER5	0.035	
78	 3HB	431.885	102.969	-390.313	 H	5	SER5	0.035	
79	  HG	431.086	100.278	-389.800	 H	5	SER5	0.428	
80	   N	432.877	100.097	-392.275	N.am	6	ILE6	-0.416	
81	  CA	434.170	99.643	-392.780	C.3	6	ILE6	-0.060	
82	   C	434.252	99.802	-394.278	C.2	6	ILE6	0.597	
83	   O	435.237	100.312	-394.832	O.2	6	ILE6	-0.568	
84	  CB	434.475	98.157	-392.328	C.3	6	ILE6	0.130	
85	 CG1	434.334	97.901	-390.793	C.3	6	ILE6	-0.043	
86	 CG2	435.888	97.667	-392.773	C.3	6	ILE6	-0.320	
87	 CD1	434.306	96.421	-390.358	C.3	6	ILE6	-0.066	
88	   H	432.287	99.474	-391.743	 H	6	ILE6	0.272	
89	  HA	434.946	100.303	-392.351	 H	6	ILE6	0.087	
90	  HB	433.724	97.512	-392.829	 H	6	ILE6	0.019	
91	2HG1	433.387	98.341	-390.429	 H	6	ILE6	0.024	
92	3HG1	435.123	98.446	-390.239	 H	6	ILE6	0.024	
93	1HG2	436.035	97.700	-393.867	 H	6	ILE6	0.088	
94	2HG2	436.699	98.263	-392.314	 H	6	ILE6	0.088	
95	3HG2	436.072	96.611	-392.504	 H	6	ILE6	0.088	
96	1HD1	433.498	95.859	-390.865	 H	6	ILE6	0.019	
97	2HD1	435.256	95.898	-390.569	 H	6	ILE6	0.019	
98	3HD1	434.130	96.328	-389.270	 H	6	ILE6	0.019	
99	   N	433.267	99.395	-395.005	N.am	7	LEU7	-0.416	
100	  CA	433.347	99.550	-396.455	C.3	7	LEU7	-0.052	
101	   C	433.566	100.995	-396.833	C.2	7	LEU7	0.597	
102	   O	434.425	101.335	-397.661	O.2	7	LEU7	-0.568	
103	  CB	432.068	98.985	-397.136	C.3	7	LEU7	-0.110	
104	  CG	431.702	97.497	-396.885	C.3	7	LEU7	0.353	
105	 CD1	430.480	97.104	-397.726	C.3	7	LEU7	-0.412	
106	 CD2	432.868	96.540	-397.186	C.3	7	LEU7	-0.412	
107	   H	432.453	98.976	-394.578	 H	7	LEU7	0.272	
108	  HA	434.233	98.997	-396.817	 H	7	LEU7	0.092	
109	 2HB	432.154	99.142	-398.229	 H	7	LEU7	0.046	
110	 3HB	431.202	99.608	-396.834	 H	7	LEU7	0.046	
111	  HG	431.429	97.385	-395.814	 H	7	LEU7	-0.036	
112	1HD1	429.605	97.746	-397.506	 H	7	LEU7	0.100	
113	2HD1	430.676	97.182	-398.812	 H	7	LEU7	0.100	
114	3HD1	430.165	96.063	-397.526	 H	7	LEU7	0.100	
115	1HD2	433.246	96.652	-398.219	 H	7	LEU7	0.100	
116	2HD2	433.720	96.718	-396.503	 H	7	LEU7	0.100	
117	3HD2	432.581	95.481	-397.046	 H	7	LEU7	0.100	
118	   N	432.838	101.903	-396.278	N.am	8	ASP8	-0.516	
119	  CA	433.049	103.301	-396.643	C.3	8	ASP8	0.038	
120	   C	434.480	103.716	-396.394	C.2	8	ASP8	0.537	
121	   O	435.139	104.341	-397.239	O.2	8	ASP8	-0.582	
122	  CB	432.062	104.222	-395.873	C.3	8	ASP8	-0.030	
123	  CG	432.139	105.715	-396.227	C.2	8	ASP8	0.799	
124	 OD1	432.353	106.049	-397.410	O.co2	8	ASP8	-0.801	
125	 OD2	432.028	106.553	-395.307	O.co2	8	ASP8	-0.801	
126	   H	432.132	101.652	-395.601	 H	8	ASP8	0.294	
127	  HA	432.861	103.408	-397.728	 H	8	ASP8	0.088	
128	 2HB	432.226	104.125	-394.784	 H	8	ASP8	-0.012	
129	 3HB	431.020	103.910	-396.047	 H	8	ASP8	-0.012	
130	   N	435.033	103.410	-395.270	N.am	9	GLU9	-0.516	
131	  CA	436.416	103.811	-395.030	C.3	9	GLU9	0.040	
132	   C	437.331	103.263	-396.098	C.2	9	GLU9	0.537	
133	   O	438.180	103.970	-396.662	O.2	9	GLU9	-0.582	
134	  CB	436.868	103.321	-393.624	C.3	9	GLU9	0.056	
135	  CG	438.319	103.720	-393.201	C.3	9	GLU9	0.014	
136	  CD	438.844	103.222	-391.867	C.2	9	GLU9	0.805	
137	 OE1	438.130	102.530	-391.115	O.co2	9	GLU9	-0.819	
138	 OE2	440.020	103.529	-391.581	O.co2	9	GLU9	-0.819	
139	   H	434.517	102.901	-394.567	 H	9	GLU9	0.294	
140	  HA	436.476	104.913	-395.064	 H	9	GLU9	0.111	
141	 2HB	436.777	102.217	-393.565	 H	9	GLU9	-0.017	
142	 3HB	436.169	103.694	-392.851	 H	9	GLU9	-0.017	
143	 2HG	438.446	104.814	-393.193	 H	9	GLU9	-0.043	
144	 3HG	439.064	103.339	-393.919	 H	9	GLU9	-0.043	
145	   N	437.228	102.022	-396.435	N.am	10	HIS10	-0.416	
146	  CA	438.112	101.492	-397.468	C.3	10	HIS10	-0.058	
147	   C	437.977	102.276	-398.752	C.2	10	HIS10	0.597	
148	   O	438.966	102.671	-399.387	O.2	10	HIS10	-0.568	
149	  CB	437.693	100.029	-397.687	C.3	10	HIS10	-0.007	
150	  CG	438.806	99.067	-397.387	C.2	10	HIS10	0.187	
151	 CD2	438.999	98.511	-396.129	C.2	10	HIS10	-0.221	
152	 ND1	439.761	98.615	-398.295	N.2	10	HIS10	-0.543	
153	 CE1	440.477	97.805	-397.493	C.2	10	HIS10	0.163	
154	 NE2	440.090	97.685	-396.194	N.pl3	10	HIS10	-0.280	
155	   H	436.544	101.426	-395.990	 H	10	HIS10	0.272	
156	  HA	439.151	101.630	-397.122	 H	10	HIS10	0.136	
157	 2HB	437.368	99.857	-398.732	 H	10	HIS10	0.037	
158	 3HB	436.824	99.744	-397.058	 H	10	HIS10	0.037	
159	 2HD	438.375	98.717	-395.264	 H	10	HIS10	0.186	
160	 1HE	441.323	97.290	-397.927	 H	10	HIS10	0.144	
161	 2HE	440.509	97.119	-395.441	 H	10	HIS10	0.334	
162	   N	436.798	102.542	-399.200	N.am	11	VAL11	-0.416	
163	  CA	436.667	103.300	-400.442	C.3	11	VAL11	-0.087	
164	   C	437.376	104.629	-400.341	C.2	11	VAL11	0.597	
165	   O	438.131	105.040	-401.231	O.2	11	VAL11	-0.568	
166	  CB	435.138	103.504	-400.787	C.3	11	VAL11	0.299	
167	 CG1	434.820	104.449	-401.978	C.3	11	VAL11	-0.319	
168	 CG2	434.386	102.188	-401.099	C.3	11	VAL11	-0.319	
169	   H	435.977	102.231	-398.701	 H	11	VAL11	0.272	
170	  HA	437.154	102.735	-401.257	 H	11	VAL11	0.097	
171	  HB	434.657	103.952	-399.892	 H	11	VAL11	-0.030	
172	1HG1	435.275	104.103	-402.926	 H	11	VAL11	0.079	
173	2HG1	433.732	104.551	-402.154	 H	11	VAL11	0.079	
174	3HG1	435.178	105.481	-401.805	 H	11	VAL11	0.079	
175	1HG2	434.486	101.453	-400.279	 H	11	VAL11	0.079	
176	2HG2	433.299	102.356	-401.227	 H	11	VAL11	0.079	
177	3HG2	434.754	101.701	-402.021	 H	11	VAL11	0.079	
178	   N	437.190	105.359	-399.293	N.am	12	GLN12	-0.416	
179	  CA	437.876	106.644	-399.195	C.3	12	GLN12	-0.003	
180	   C	439.371	106.471	-399.312	C.2	12	GLN12	0.597	
181	   O	440.053	107.183	-400.046	O.2	12	GLN12	-0.568	
182	  CB	437.498	107.305	-397.850	C.3	12	GLN12	-0.004	
183	  CG	438.105	108.721	-397.583	C.3	12	GLN12	-0.064	
184	  CD	437.824	109.413	-396.243	C.2	12	GLN12	0.695	
185	 NE2	437.071	108.826	-395.348	N.pl3	12	GLN12	-0.941	
186	 OE1	438.311	110.502	-395.981	O.2	12	GLN12	-0.609	
187	   H	436.580	105.046	-398.552	 H	12	GLN12	0.272	
188	  HA	437.547	107.287	-400.032	 H	12	GLN12	0.085	
189	 2HB	437.797	106.624	-397.026	 H	12	GLN12	0.017	
190	 3HB	436.395	107.375	-397.783	 H	12	GLN12	0.017	
191	 2HG	437.806	109.420	-398.386	 H	12	GLN12	0.035	
192	 3HG	439.208	108.686	-397.647	 H	12	GLN12	0.035	
193	1HE2	436.987	109.324	-394.460	 H	12	GLN12	0.425	
194	2HE2	436.752	107.888	-395.601	 H	12	GLN12	0.425	
195	   N	439.951	105.549	-398.620	N.am	13	ARG13	-0.348	
196	  CA	441.397	105.383	-398.734	C.3	13	ARG13	-0.264	
197	   C	441.801	105.136	-400.168	C.2	13	ARG13	0.734	
198	   O	442.734	105.737	-400.695	O.2	13	ARG13	-0.589	
199	  CB	441.841	104.213	-397.810	C.3	13	ARG13	-0.001	
200	  CG	443.375	104.075	-397.596	C.3	13	ARG13	0.039	
201	  CD	443.728	102.875	-396.702	C.3	13	ARG13	0.049	
202	  NE	445.207	102.806	-396.515	N.pl3	13	ARG13	-0.530	
203	  CZ	445.850	101.885	-395.803	C.cat	13	ARG13	0.808	
204	 NH1	445.253	100.911	-395.176	N.pl3	13	ARG13	-0.863	
205	 NH2	447.141	101.958	-395.726	N.pl3	13	ARG13	-0.863	
206	   H	439.412	104.951	-398.010	 H	13	ARG13	0.275	
207	  HA	441.876	106.326	-398.409	 H	13	ARG13	0.156	
208	 2HB	441.426	103.265	-398.211	 H	13	ARG13	0.033	
209	 3HB	441.355	104.327	-396.820	 H	13	ARG13	0.033	
210	 2HG	443.767	105.016	-397.158	 H	13	ARG13	0.029	
211	 3HG	443.887	103.965	-398.574	 H	13	ARG13	0.029	
212	 2HD	443.343	101.942	-397.169	 H	13	ARG13	0.069	
213	 3HD	443.208	102.976	-395.725	 H	13	ARG13	0.069	
214	  HE	445.826	103.500	-396.946	 H	13	ARG13	0.346	
215	1HH1	444.235	100.911	-395.278	 H	13	ARG13	0.448	
216	2HH1	445.818	100.244	-394.648	 H	13	ARG13	0.448	
217	1HH2	447.592	102.727	-396.225	 H	13	ARG13	0.448	
218	2HH2	447.617	101.243	-395.173	 H	13	ARG13	0.448	
219	   N	441.147	104.266	-400.861	N.am	14	VAL14	-0.416	
220	  CA	441.538	104.027	-402.248	C.3	14	VAL14	-0.087	
221	   C	441.495	105.306	-403.050	C.2	14	VAL14	0.597	
222	   O	442.421	105.643	-403.798	O.2	14	VAL14	-0.568	
223	  CB	440.597	102.931	-402.888	C.3	14	VAL14	0.299	
224	 CG1	440.758	102.691	-404.415	C.3	14	VAL14	-0.319	
225	 CG2	440.733	101.532	-402.239	C.3	14	VAL14	-0.319	
226	   H	440.376	103.759	-400.451	 H	14	VAL14	0.272	
227	  HA	442.583	103.668	-402.267	 H	14	VAL14	0.097	
228	  HB	439.549	103.265	-402.730	 H	14	VAL14	-0.030	
229	1HG1	441.781	102.372	-404.688	 H	14	VAL14	0.079	
230	2HG1	440.061	101.919	-404.794	 H	14	VAL14	0.079	
231	3HG1	440.530	103.595	-405.010	 H	14	VAL14	0.079	
232	1HG2	440.569	101.568	-401.147	 H	14	VAL14	0.079	
233	2HG2	439.984	100.820	-402.636	 H	14	VAL14	0.079	
234	3HG2	441.732	101.087	-402.406	 H	14	VAL14	0.079	
235	   N	440.461	106.071	-402.952	N.am	15	MET15	-0.416	
236	  CA	440.418	107.308	-403.726	C.3	15	MET15	-0.024	
237	   C	441.606	108.185	-403.412	C.2	15	MET15	0.597	
238	   O	442.283	108.718	-404.305	O.2	15	MET15	-0.568	
239	  CB	439.086	108.057	-403.450	C.3	15	MET15	0.034	
240	  CG	437.797	107.316	-403.862	C.3	15	MET15	0.002	
241	  SD	436.388	108.430	-403.744	S.3	15	MET15	-0.274	
242	  CE	435.073	107.212	-403.886	C.3	15	MET15	-0.054	
243	   H	439.692	105.818	-402.348	 H	15	MET15	0.272	
244	  HA	440.478	107.053	-404.801	 H	15	MET15	0.088	
245	 2HB	439.098	109.031	-403.977	 H	15	MET15	0.024	
246	 3HB	439.018	108.319	-402.374	 H	15	MET15	0.024	
247	 2HG	437.632	106.445	-403.199	 H	15	MET15	0.044	
248	 3HG	437.865	106.922	-404.893	 H	15	MET15	0.044	
249	 1HE	435.180	106.619	-404.812	 H	15	MET15	0.068	
250	 2HE	435.095	106.520	-403.026	 H	15	MET15	0.068	
251	 3HE	434.087	107.707	-403.903	 H	15	MET15	0.068	
252	   N	441.927	108.386	-402.179	N.am	16	ARG16	-0.348	
253	  CA	443.076	109.235	-401.877	C.3	16	ARG16	-0.264	
254	   C	444.325	108.712	-402.546	C.2	16	ARG16	0.734	
255	   O	444.311	107.713	-403.261	O.2	16	ARG16	-0.589	
256	  CB	443.249	109.312	-400.333	C.3	16	ARG16	-0.001	
257	  CG	444.250	110.389	-399.825	C.3	16	ARG16	0.039	
258	  CD	444.387	110.373	-398.294	C.3	16	ARG16	0.049	
259	  NE	445.341	111.437	-397.865	N.pl3	16	ARG16	-0.530	
260	  CZ	445.694	111.692	-396.608	C.cat	16	ARG16	0.808	
261	 NH1	445.243	111.026	-395.583	N.pl3	16	ARG16	-0.863	
262	 NH2	446.531	112.657	-396.388	N.pl3	16	ARG16	-0.863	
263	   H	441.392	107.963	-401.435	 H	16	ARG16	0.275	
264	  HA	442.874	110.243	-402.287	 H	16	ARG16	0.156	
265	 2HB	443.544	108.311	-399.958	 H	16	ARG16	0.033	
266	 3HB	442.261	109.500	-399.866	 H	16	ARG16	0.033	
267	 2HG	443.918	111.388	-400.176	 H	16	ARG16	0.029	
268	 3HG	445.247	110.227	-400.284	 H	16	ARG16	0.029	
269	 2HD	444.738	109.369	-397.967	 H	16	ARG16	0.069	
270	 3HD	443.389	110.523	-397.830	 H	16	ARG16	0.069	
271	  HE	445.789	112.052	-398.551	 H	16	ARG16	0.346	
272	1HH1	444.588	110.279	-395.825	 H	16	ARG16	0.448	
273	2HH1	445.561	111.285	-394.648	 H	16	ARG16	0.448	
274	1HH2	446.874	113.167	-397.204	 H	16	ARG16	0.448	
275	2HH2	446.787	112.839	-395.416	 H	16	ARG16	0.448	
@<TRIPOS>BOND
1 1 2 1
2 1 10 1
3 2 3 1
4 2 5 1
5 2 11 1
6 3 4 2
7 3 16 1
8 5 6 1
9 6 7 1
10 7 8 2
11 7 9 1
12 5 12 1
13 5 13 1
14 6 14 1
15 6 15 1
16 16 17 1
17 16 24 1
18 17 18 1
19 17 20 1
20 17 25 1
21 18 19 2
22 18 30 1
23 20 21 1
24 21 22 1
25 21 23 2
26 20 26 1
27 20 27 1
28 22 28 1
29 22 29 1
30 30 31 1
31 30 44 1
32 31 32 1
33 31 34 1
34 31 45 1
35 32 33 2
36 32 54 1
37 34 35 1
38 35 37 1
39 35 36 2
40 37 39 1
41 37 38 2
42 38 40 1
43 39 42 2
44 36 40 1
45 38 41 1
46 42 43 1
47 41 43 2
48 34 46 1
49 34 47 1
50 36 48 1
51 40 49 1
52 39 50 1
53 41 51 1
54 42 52 1
55 43 53 1
56 54 55 1
57 54 63 1
58 55 56 1
59 55 58 1
60 55 64 1
61 56 57 2
62 56 69 1
63 58 59 1
64 59 60 1
65 60 61 2
66 60 62 1
67 58 65 1
68 58 66 1
69 59 67 1
70 59 68 1
71 69 70 1
72 69 75 1
73 70 71 1
74 70 73 1
75 70 76 1
76 71 72 2
77 71 80 1
78 73 74 1
79 73 77 1
80 73 78 1
81 74 79 1
82 80 81 1
83 80 88 1
84 81 82 1
85 81 84 1
86 81 89 1
87 82 83 2
88 82 99 1
89 84 85 1
90 84 86 1
91 85 87 1
92 84 90 1
93 85 91 1
94 85 92 1
95 86 93 1
96 86 94 1
97 86 95 1
98 87 96 1
99 87 97 1
100 87 98 1
101 99 100 1
102 99 107 1
103 100 101 1
104 100 103 1
105 100 108 1
106 101 102 2
107 101 118 1
108 103 104 1
109 104 105 1
110 104 106 1
111 103 109 1
112 103 110 1
113 104 111 1
114 105 112 1
115 105 113 1
116 105 114 1
117 106 115 1
118 106 116 1
119 106 117 1
120 118 119 1
121 118 126 1
122 119 120 1
123 119 122 1
124 119 127 1
125 120 121 2
126 120 130 1
127 122 123 1
128 123 124 2
129 123 125 1
130 122 128 1
131 122 129 1
132 130 131 1
133 130 139 1
134 131 132 1
135 131 134 1
136 131 140 1
137 132 133 2
138 132 145 1
139 134 135 1
140 135 136 1
141 136 137 2
142 136 138 1
143 134 141 1
144 134 142 1
145 135 143 1
146 135 144 1
147 145 146 1
148 145 155 1
149 146 147 1
150 146 149 1
151 146 156 1
152 147 148 2
153 147 162 1
154 149 150 1
155 150 151 2
156 151 154 1
157 150 152 1
158 152 153 2
159 153 154 1
160 149 157 1
161 149 158 1
162 151 159 1
163 153 160 1
164 154 161 1
165 162 163 1
166 162 169 1
167 163 164 1
168 163 166 1
169 163 170 1
170 164 165 2
171 164 178 1
172 166 167 1
173 166 168 1
174 166 171 1
175 167 172 1
176 167 173 1
177 167 174 1
178 168 175 1
179 168 176 1
180 168 177 1
181 178 179 1
182 178 187 1
183 179 180 1
184 179 182 1
185 179 188 1
186 180 181 2
187 180 195 1
188 182 183 1
189 183 184 1
190 184 185 1
191 184 186 2
192 182 189 1
193 182 190 1
194 183 191 1
195 183 192 1
196 185 193 1
197 185 194 1
198 195 196 1
199 195 206 1
200 196 197 1
201 196 199 1
202 196 207 1
203 197 198 2
204 197 219 1
205 199 200 1
206 200 201 1
207 201 202 1
208 202 203 1
209 203 204 2
210 203 205 1
211 199 208 1
212 199 209 1
213 200 210 1
214 200 211 1
215 201 212 1
216 201 213 1
217 202 214 1
218 204 215 1
219 204 216 1
220 205 217 1
221 205 218 1
222 219 220 1
223 219 226 1
224 220 221 1
225 220 223 1
226 220 227 1
227 221 222 2
228 221 235 1
229 223 224 1
230 223 225 1
231 223 228 1
232 224 229 1
233 224 230 1
234 224 231 1
235 225 232 1
236 225 233 1
237 225 234 1
238 235 236 1
239 235 243 1
240 236 237 1
241 236 239 1
242 236 244 1
243 237 238 2
244 237 252 1
245 239 240 1
246 240 241 1
247 241 242 1
248 239 245 1
249 239 246 1
250 240 247 1
251 240 248 1
252 242 249 1
253 242 250 1
254 242 251 1
255 252 253 1
256 252 263 1
257 253 254 1
258 253 256 1
259 253 264 1
260 254 255 2
261 256 257 1
262 257 258 1
263 258 259 1
264 259 260 1
265 260 261 2
266 260 262 1
267 256 265 1
268 256 266 1
269 257 267 1
270 257 268 1
271 258 269 1
272 258 270 1
273 259 271 1
274 261 272 1
275 261 273 1
276 262 274 1
277 262 275 1
@<TRIPOS>SUBSTRUCTURE
1	GLU1	1	RESIDUE	1 ****	GLU
2	ASN2	16	RESIDUE	1 ****	ASN
3	TRP3	30	RESIDUE	1 ****	TRP
4	GLU4	54	RESIDUE	1 ****	GLU
5	SER5	69	RESIDUE	1 ****	SER
6	ILE6	80	RESIDUE	1 ****	ILE
7	LEU7	99	RESIDUE	1 ****	LEU
8	ASP8	118	RESIDUE	1 ****	ASP
9	GLU9	130	RESIDUE	1 ****	GLU
10	HIS10	145	RESIDUE	1 ****	HIS
11	VAL11	162	RESIDUE	1 ****	VAL
12	GLN12	178	RESIDUE	1 ****	GLN
13	ARG13	195	RESIDUE	1 ****	ARG
14	VAL14	219	RESIDUE	1 ****	VAL
15	MET15	235	RESIDUE	1 ****	MET
16	ARG16	252	RESIDUE	1 ****	ARG
