REMARK WARNING: 32 MAX_TORS EXCEEDED!!!
REMARK  69 active torsions:
REMARK  status: ('A' for Active; 'I' for Inactive)
REMARK    1  A    between atoms: N_1  and  CA_2 
REMARK    2  A    between atoms: CA_2  and  C_3 
REMARK    3  A    between atoms: CA_2  and  CB_5 
REMARK       I    between atoms: C_3  and  N_11 
REMARK    4  A    between atoms: CB_5  and  CG_6 
REMARK    5  A    between atoms: CG_6  and  CD_7 
REMARK    6  A    between atoms: N_11  and  CA_12 
REMARK    7  A    between atoms: CA_12  and  C_13 
REMARK    8  A    between atoms: CA_12  and  CB_15 
REMARK       I    between atoms: C_13  and  N_22 
REMARK    9  A    between atoms: CB_15  and  CG_16 
REMARK       I    between atoms: CG_16  and  ND2_17 
REMARK   10  A    between atoms: CA_23  and  C_24 
REMARK       I    between atoms: C_24  and  N_29 
REMARK   11  A    between atoms: N_29  and  CA_30 
REMARK   12  A    between atoms: CA_30  and  C_31 
REMARK   13  A    between atoms: CA_30  and  CB_33 
REMARK       I    between atoms: C_31  and  N_39 
REMARK   14  A    between atoms: CB_33  and  CG_34 
REMARK   15  A    between atoms: CG_34  and  CD_35 
REMARK   16  A    between atoms: N_39  and  CA_40 
REMARK   17  A    between atoms: CA_40  and  C_41 
REMARK   18  A    between atoms: CA_40  and  CB_43 
REMARK       I    between atoms: C_41  and  N_47 
REMARK   19  A    between atoms: CB_43  and  OG_44 
REMARK   20  A    between atoms: N_47  and  CA_48 
REMARK   21  A    between atoms: CA_48  and  C_49 
REMARK   22  A    between atoms: CA_48  and  CB_51 
REMARK       I    between atoms: C_49  and  N_56 
REMARK   23  A    between atoms: CB_51  and  CG1_52 
REMARK   24  A    between atoms: N_56  and  CA_57 
REMARK   25  A    between atoms: CA_57  and  C_58 
REMARK   26  A    between atoms: CA_57  and  CB_60 
REMARK       I    between atoms: C_58  and  N_65 
REMARK   27  A    between atoms: CB_60  and  CG_61 
REMARK   28  A    between atoms: N_65  and  CA_66 
REMARK   29  A    between atoms: CA_66  and  C_67 
REMARK   30  A    between atoms: CA_66  and  CB_69 
REMARK       I    between atoms: C_67  and  N_74 
REMARK   31  A    between atoms: CB_69  and  CG_70 
REMARK   32  A    between atoms: N_74  and  CA_75 
REMARK   33  A    between atoms: CA_75  and  C_76 
REMARK   34  A    between atoms: CA_75  and  CB_78 
REMARK       I    between atoms: C_76  and  N_84 
REMARK   35  A    between atoms: CB_78  and  CG_79 
REMARK   36  A    between atoms: CG_79  and  CD_80 
REMARK   37  A    between atoms: N_84  and  CA_85 
REMARK   38  A    between atoms: CA_85  and  C_86 
REMARK   39  A    between atoms: CA_85  and  CB_88 
REMARK       I    between atoms: C_86  and  N_96 
REMARK   40  A    between atoms: CB_88  and  CG_89 
REMARK   41  A    between atoms: N_96  and  CA_97 
REMARK   42  A    between atoms: CA_97  and  C_98 
REMARK   43  A    between atoms: CA_97  and  CB_100 
REMARK       I    between atoms: C_98  and  N_104 
REMARK   44  A    between atoms: N_104  and  CA_105 
REMARK   45  A    between atoms: CA_105  and  C_106 
REMARK   46  A    between atoms: CA_105  and  CB_108 
REMARK       I    between atoms: C_106  and  N_116 
REMARK   47  A    between atoms: CB_108  and  CG_109 
REMARK   48  A    between atoms: CG_109  and  CD_110 
REMARK       I    between atoms: CD_110  and  NE2_111 
REMARK   49  A    between atoms: N_116  and  CA_117 
REMARK   50  A    between atoms: CA_117  and  C_118 
REMARK   51  A    between atoms: CA_117  and  CB_120 
REMARK       I    between atoms: C_118  and  N_133 
REMARK   52  A    between atoms: CB_120  and  CG_121 
REMARK   53  A    between atoms: CG_121  and  CD_122 
REMARK   54  A    between atoms: CD_122  and  NE_123 
REMARK       I    between atoms: NE_123  and  CZ_124 
REMARK       I    between atoms: CZ_124  and  NH1_125 
REMARK       I    between atoms: CZ_124  and  NH2_126 
REMARK   55  A    between atoms: N_133  and  CA_134 
REMARK   56  A    between atoms: CA_134  and  C_135 
REMARK   57  A    between atoms: CA_134  and  CB_137 
REMARK       I    between atoms: C_135  and  N_141 
REMARK   58  A    between atoms: CB_137  and  OG_138 
REMARK   59  A    between atoms: N_141  and  CA_142 
REMARK   60  A    between atoms: CA_142  and  C_143 
REMARK   61  A    between atoms: CA_142  and  CB_145 
REMARK       I    between atoms: C_143  and  N_150 
REMARK   62  A    between atoms: CB_145  and  CG_146 
REMARK   63  A    between atoms: CG_146  and  SD_147 
REMARK   64  A    between atoms: N_150  and  CA_151 
REMARK   65  A    between atoms: CA_151  and  C_152 
REMARK   66  A    between atoms: CA_151  and  CB_154 
REMARK   67  A    between atoms: CB_154  and  CG_155 
REMARK   68  A    between atoms: CG_155  and  CD_156 
REMARK   69  A    between atoms: CD_156  and  NE_157 
REMARK       I    between atoms: NE_157  and  CZ_158 
REMARK       I    between atoms: CZ_158  and  NH1_159 
ROOT
ATOM      1  C   GLU d   9    2277.280 698.538-2363.631  0.00  0.00     0.241 C 
ATOM      2  O   GLU d   9    2277.944 699.291-2364.357  0.00  0.00    -0.271 OA
ATOM      3  N   HIS d  10    2277.376 697.262-2363.800  0.00  0.00    -0.346 N 
ATOM      4  H   HIS d  10    2276.845 696.628-2363.221  0.00  0.00     0.163 HD
ENDROOT
BRANCH   1   5
ATOM      5  CA  GLU d   9    2276.363 699.066-2362.555  0.00  0.00     0.177 C 
BRANCH   5   6
ATOM      6  N   GLU d   9    2275.060 698.409-2362.610  0.00  0.00    -0.346 N 
ATOM      7  C   ASP d   8    2274.380 698.459-2363.705  0.00  0.00     0.241 C 
ATOM      8  O   ASP d   8    2274.853 699.063-2364.680  0.00  0.00    -0.271 OA
ATOM      9  H   GLU d   9    2274.696 697.924-2361.802  0.00  0.00     0.163 HD
BRANCH   7  10
ATOM     10  CA  ASP d   8    2273.032 697.780-2363.761  0.00  0.00     0.186 C 
BRANCH  10  11
ATOM     11  N   ASP d   8    2273.102 696.431-2363.208  0.00  0.00    -0.346 N 
ATOM     12  C   LEU d   7    2273.939 695.589-2363.713  0.00  0.00     0.241 C 
ATOM     13  O   LEU d   7    2274.660 695.951-2364.656  0.00  0.00    -0.271 OA
ATOM     14  H   ASP d   8    2272.504 696.160-2362.440  0.00  0.00     0.163 HD
BRANCH  12  15
ATOM     15  CA  LEU d   7    2274.011 694.194-2363.140  0.00  0.00     0.177 C 
BRANCH  15  16
ATOM     16  N   LEU d   7    2274.066 694.230-2361.682  0.00  0.00    -0.346 N 
ATOM     17  C   ILE d   6    2275.012 694.893-2361.108  0.00  0.00     0.241 C 
ATOM     18  O   ILE d   6    2275.847 695.481-2361.812  0.00  0.00    -0.271 OA
ATOM     19  H   LEU d   7    2273.374 693.743-2361.131  0.00  0.00     0.163 HD
BRANCH  17  20
ATOM     20  CA  ILE d   6    2275.069 694.931-2359.601  0.00  0.00     0.180 C 
BRANCH  20  21
ATOM     21  N   ILE d   6    2273.756 695.227-2359.035  0.00  0.00    -0.346 N 
ATOM     22  C   SER d   5    2273.152 696.310-2359.389  0.00  0.00     0.243 C 
ATOM     23  O   SER d   5    2273.700 697.063-2360.194  0.00  0.00    -0.271 OA
ATOM     24  H   ILE d   6    2273.327 694.592-2358.376  0.00  0.00     0.163 HD
BRANCH  22  25
ATOM     25  CA  SER d   5    2271.793 696.616-2358.804  0.00  0.00     0.200 C 
BRANCH  25  26
ATOM     26  N   SER d   5    2270.923 695.445-2358.863  0.00  0.00    -0.344 N 
ATOM     27  C   GLU d   4    2270.696 694.892-2360.006  0.00  0.00     0.241 C 
ATOM     28  O   GLU d   4    2271.223 695.372-2361.020  0.00  0.00    -0.271 OA
ATOM     29  H   SER d   5    2270.506 695.073-2358.021  0.00  0.00     0.163 HD
BRANCH  27  30
ATOM     30  CA  GLU d   4    2269.797 693.681-2360.067  0.00  0.00     0.177 C 
BRANCH  30  31
ATOM     31  N   GLU d   4    2270.156 692.710-2359.038  0.00  0.00    -0.346 N 
ATOM     32  C   PRO d   3    2271.361 692.250-2359.005  0.00  0.00     0.241 C 
ATOM     33  O   PRO d   3    2272.184 692.633-2359.836  0.00  0.00    -0.271 OA
ATOM     34  H   GLU d   4    2269.471 692.404-2358.361  0.00  0.00     0.163 HD
BRANCH  32  35
ATOM     35  CA  PRO d   3    2271.759 691.227-2357.928  0.00  0.00     0.179 C 
ATOM     36  N   PRO d   3    2271.306 691.636-2356.606  0.00  0.00    -0.337 N 
ATOM     37  C   ASN d   2    2271.828 692.631-2355.972  0.00  0.00     0.243 C 
ATOM     38  CD  PRO d   3    2270.228 690.843-2356.058  0.00  0.00     0.127 C 
ATOM     39  O   ASN d   2    2272.743 693.261-2356.500  0.00  0.00    -0.271 OA
ATOM     40  CG  PRO d   3    2269.771 690.024-2357.268  0.00  0.00     0.022 C 
ATOM     41  CB  PRO d   3    2271.054 689.872-2358.097  0.00  0.00     0.037 C 
BRANCH  37  42
ATOM     42  CA  ASN d   2    2271.296 692.986-2354.604  0.00  0.00     0.185 C 
BRANCH  42  43
ATOM     43  N   ASN d   2    2269.837 693.025-2354.604  0.00  0.00    -0.346 N 
ATOM     44  C   GLU d   1    2269.233 693.811-2355.429  0.00  0.00     0.242 C 
ATOM     45  O   GLU d   1    2269.908 694.510-2356.198  0.00  0.00    -0.271 OA
ATOM     46  H   ASN d   2    2269.309 692.446-2353.967  0.00  0.00     0.163 HD
BRANCH  44  47
ATOM     47  CA  GLU d   1    2267.724 693.851-2355.429  0.00  0.00     0.191 C 
BRANCH  47  48
ATOM     48  N   GLU d   1    2267.165 692.502-2355.429  0.00  0.00    -0.326 NA
ATOM     49  H   GLU d   1    2267.792 691.623-2355.429  0.00  0.00     0.180 HD
ENDBRANCH  47  48
BRANCH  47  50
ATOM     50  CB  GLU d   1    2267.200 694.636-2354.192  0.00  0.00     0.047 C 
BRANCH  50  51
ATOM     51  CG  GLU d   1    2267.676 696.121-2354.081  0.00  0.00     0.116 C 
BRANCH  51  52
ATOM     52  CD  GLU d   1    2267.251 696.925-2352.866  0.00  0.00     0.172 C 
ATOM     53  OE1 GLU d   1    2266.523 696.423-2351.988  0.00  0.00    -0.648 OA
ATOM     54  OE2 GLU d   1    2267.682 698.095-2352.794  0.00  0.00    -0.648 OA
ENDBRANCH  51  52
ENDBRANCH  50  51
ENDBRANCH  47  50
ENDBRANCH  44  47
ENDBRANCH  42  43
BRANCH  42  55
ATOM     55  CB  ASN d   2    2271.788 691.963-2353.539  0.00  0.00     0.137 C 
BRANCH  55  56
ATOM     56  CG  ASN d   2    2271.325 692.187-2352.096  0.00  0.00     0.217 C 
ATOM     57  ND2 ASN d   2    2271.919 693.102-2351.377  0.00  0.00    -0.370 N 
ATOM     58 21HD ASN d   2    2271.438 693.275-2350.491  0.00  0.00     0.159 HD
ATOM     59 22HD ASN d   2    2272.621 693.674-2351.846  0.00  0.00     0.159 HD
ATOM     60  OD1 ASN d   2    2270.404 691.554-2351.602  0.00  0.00    -0.274 OA
ENDBRANCH  55  56
ENDBRANCH  42  55
ENDBRANCH  37  42
ENDBRANCH  32  35
ENDBRANCH  30  31
BRANCH  30  61
ATOM     61  CB  GLU d   4    2268.308 694.101-2359.898  0.00  0.00     0.045 C 
BRANCH  61  62
ATOM     62  CG  GLU d   4    2267.761 695.104-2360.963  0.00  0.00     0.116 C 
BRANCH  62  63
ATOM     63  CD  GLU d   4    2266.334 695.601-2360.820  0.00  0.00     0.172 C 
ATOM     64  OE1 GLU d   4    2265.608 695.203-2359.890  0.00  0.00    -0.648 OA
ATOM     65  OE2 GLU d   4    2265.946 696.431-2361.669  0.00  0.00    -0.648 OA
ENDBRANCH  62  63
ENDBRANCH  61  62
ENDBRANCH  30  61
ENDBRANCH  27  30
ENDBRANCH  25  26
BRANCH  25  66
ATOM     66  CB  SER d   5    2271.904 697.148-2357.353  0.00  0.00     0.199 C 
BRANCH  66  67
ATOM     67  OG  SER d   5    2272.635 696.268-2356.492  0.00  0.00    -0.398 OA
ATOM     68  HG  SER d   5    2272.146 695.444-2356.441  0.00  0.00     0.209 HD
ENDBRANCH  66  67
ENDBRANCH  25  66
ENDBRANCH  22  25
ENDBRANCH  20  21
BRANCH  20  69
ATOM     69  CB  ILE d   6    2275.668 693.595-2359.000  0.00  0.00     0.013 C 
ATOM     70  CG2 ILE d   6    2277.110 693.292-2359.515  0.00  0.00     0.012 C 
BRANCH  69  71
ATOM     71  CG1 ILE d   6    2275.687 693.532-2357.439  0.00  0.00     0.002 C 
ATOM     72  CD1 ILE d   6    2275.957 692.143-2356.824  0.00  0.00     0.005 C 
ENDBRANCH  69  71
ENDBRANCH  20  69
ENDBRANCH  17  20
ENDBRANCH  15  16
BRANCH  15  73
ATOM     73  CB  LEU d   7    2272.808 693.334-2363.621  0.00  0.00     0.038 C 
BRANCH  73  74
ATOM     74  CG  LEU d   7    2272.735 691.855-2363.154  0.00  0.00    -0.020 C 
ATOM     75  CD1 LEU d   7    2271.545 691.149-2363.820  0.00  0.00     0.009 C 
ATOM     76  CD2 LEU d   7    2274.028 691.075-2363.446  0.00  0.00     0.009 C 
ENDBRANCH  73  74
ENDBRANCH  15  73
ENDBRANCH  12  15
ENDBRANCH  10  11
BRANCH  10  77
ATOM     77  CB  ASP d   8    2271.955 698.620-2363.021  0.00  0.00     0.147 C 
BRANCH  77  78
ATOM     78  CG  ASP d   8    2271.737 700.040-2363.562  0.00  0.00     0.175 C 
ATOM     79  OD1 ASP d   8    2271.801 700.239-2364.793  0.00  0.00    -0.648 OA
ATOM     80  OD2 ASP d   8    2271.545 700.967-2362.747  0.00  0.00    -0.648 OA
ENDBRANCH  77  78
ENDBRANCH  10  77
ENDBRANCH   7  10
ENDBRANCH   5   6
BRANCH   5  81
ATOM     81  CB  GLU d   9    2276.996 698.859-2361.150  0.00  0.00     0.045 C 
BRANCH  81  82
ATOM     82  CG  GLU d   9    2278.379 699.551-2360.921  0.00  0.00     0.116 C 
BRANCH  82  83
ATOM     83  CD  GLU d   9    2279.081 699.338-2359.593  0.00  0.00     0.172 C 
ATOM     84  OE1 GLU d   9    2278.560 698.648-2358.696  0.00  0.00    -0.648 OA
ATOM     85  OE2 GLU d   9    2280.201 699.875-2359.461  0.00  0.00    -0.648 OA
ENDBRANCH  82  83
ENDBRANCH  81  82
ENDBRANCH   5  81
ENDBRANCH   1   5
BRANCH   3  86
ATOM     86  CA  HIS d  10    2278.263 696.750-2364.840  0.00  0.00     0.182 C 
BRANCH  86  87
ATOM     87  C   HIS d  10    2277.896 697.314-2366.191  0.00  0.00     0.241 C 
ATOM     88  O   HIS d  10    2278.749 697.778-2366.964  0.00  0.00    -0.271 OA
ATOM     89  N   VAL d  11    2276.659 697.314-2366.554  0.00  0.00    -0.346 N 
ATOM     90  H   VAL d  11    2275.946 696.942-2365.943  0.00  0.00     0.163 HD
BRANCH  89  91
ATOM     91  CA  VAL d  11    2276.303 697.859-2367.861  0.00  0.00     0.180 C 
BRANCH  91  92
ATOM     92  C   VAL d  11    2276.769 699.290-2367.995  0.00  0.00     0.241 C 
ATOM     93  O   VAL d  11    2277.370 699.694-2368.998  0.00  0.00    -0.271 OA
ATOM     94  N   GLN d  12    2276.532 700.116-2367.032  0.00  0.00    -0.346 N 
ATOM     95  H   GLN d  12    2276.044 699.810-2366.203  0.00  0.00     0.163 HD
BRANCH  94  96
ATOM     96  CA  GLN d  12    2276.982 701.499-2367.160  0.00  0.00     0.177 C 
BRANCH  96  97
ATOM     97  C   GLN d  12    2278.471 701.565-2367.399  0.00  0.00     0.241 C 
ATOM     98  O   GLN d  12    2278.959 702.273-2368.278  0.00  0.00    -0.271 OA
ATOM     99  N   ARG d  13    2279.256 700.858-2366.657  0.00  0.00    -0.346 N 
ATOM    100  H   ARG d  13    2278.880 700.269-2365.928  0.00  0.00     0.163 HD
BRANCH  99 101
ATOM    101  CA  ARG d  13    2280.696 700.923-2366.889  0.00  0.00     0.176 C 
BRANCH 101 102
ATOM    102  C   ARG d  13    2281.032 700.551-2368.313  0.00  0.00     0.241 C 
ATOM    103  O   ARG d  13    2281.801 701.222-2368.998  0.00  0.00    -0.271 OA
ATOM    104  N   SER d  14    2280.495 699.496-2368.827  0.00  0.00    -0.344 N 
ATOM    105  H   SER d  14    2279.860 698.928-2368.285  0.00  0.00     0.163 HD
BRANCH 104 106
ATOM    106  CA  SER d  14    2280.820 699.137-2370.205  0.00  0.00     0.200 C 
BRANCH 106 107
ATOM    107  C   SER d  14    2280.490 700.268-2371.151  0.00  0.00     0.243 C 
ATOM    108  O   SER d  14    2281.280 700.646-2372.015  0.00  0.00    -0.271 OA
ATOM    109  N   MET d  15    2279.346 700.854-2371.050  0.00  0.00    -0.346 N 
ATOM    110  H   MET d  15    2278.680 700.562-2370.348  0.00  0.00     0.163 HD
BRANCH 109 111
ATOM    111  CA  MET d  15    2279.026 701.947-2371.963  0.00  0.00     0.177 C 
BRANCH 111 112
ATOM    112  C   MET d  15    2280.057 703.046-2371.875  0.00  0.00     0.241 C 
ATOM    113  O   MET d  15    2280.560 703.557-2372.887  0.00  0.00    -0.271 OA
ATOM    114  N   ARG d  16    2280.425 703.467-2370.713  0.00  0.00    -0.347 N 
ATOM    115  H   ARG d  16    2280.030 703.067-2369.874  0.00  0.00     0.163 HD
BRANCH 114 116
ATOM    116  CA  ARG d  16    2281.422 704.530-2370.628  0.00  0.00     0.162 C 
BRANCH 116 117
ATOM    117  C   ARG d  16    2282.693 704.137-2371.344  0.00  0.00     0.219 C 
ATOM    118  O   ARG d  16    2282.807 703.060-2371.925  0.00  0.00    -0.287 OA
ENDBRANCH 116 117
BRANCH 116 119
ATOM    119  CB  ARG d  16    2281.690 704.848-2369.130  0.00  0.00     0.035 C 
BRANCH 119 120
ATOM    120  CG  ARG d  16    2282.516 706.137-2368.857  0.00  0.00     0.023 C 
BRANCH 120 121
ATOM    121  CD  ARG d  16    2282.765 706.356-2367.355  0.00  0.00     0.138 C 
BRANCH 121 122
ATOM    122  NE  ARG d  16    2283.542 707.615-2367.154  0.00  0.00    -0.227 N 
ATOM    123  CZ  ARG d  16    2283.933 708.097-2365.978  0.00  0.00     0.665 C 
ATOM    124  NH1 ARG d  16    2283.684 707.513-2364.840  0.00  0.00    -0.235 N 
ATOM    125  NH2 ARG d  16    2284.597 709.209-2365.959  0.00  0.00    -0.235 N 
ATOM    126 11HH ARG d  16    2283.158 706.640-2364.925  0.00  0.00     0.174 HD
ATOM    127 12HH ARG d  16    2284.018 707.948-2363.979  0.00  0.00     0.174 HD
ATOM    128 21HH ARG d  16    2284.783 709.652-2366.861  0.00  0.00     0.174 HD
ATOM    129 22HH ARG d  16    2284.887 709.564-2365.047  0.00  0.00     0.174 HD
ATOM    130  HE  ARG d  16    2283.821 708.196-2367.951  0.00  0.00     0.177 HD
ENDBRANCH 121 122
ENDBRANCH 120 121
ENDBRANCH 119 120
ENDBRANCH 116 119
ENDBRANCH 114 116
ENDBRANCH 111 112
BRANCH 111 131
ATOM    131  CB  MET d  15    2277.605 702.493-2371.655  0.00  0.00     0.045 C 
BRANCH 131 132
ATOM    132  CG  MET d  15    2276.443 701.495-2371.847  0.00  0.00     0.076 C 
BRANCH 132 133
ATOM    133  SD  MET d  15    2274.869 702.362-2371.733  0.00  0.00    -0.173 SA
ATOM    134  CE  MET d  15    2273.787 700.933-2371.596  0.00  0.00     0.089 C 
ENDBRANCH 132 133
ENDBRANCH 131 132
ENDBRANCH 111 131
ENDBRANCH 109 111
ENDBRANCH 106 107
BRANCH 106 135
ATOM    135  CB  SER d  14    2280.107 697.824-2370.615  0.00  0.00     0.199 C 
BRANCH 135 136
ATOM    136  OG  SER d  14    2278.689 697.977-2370.740  0.00  0.00    -0.398 OA
ATOM    137  HG  SER d  14    2278.348 698.211-2369.874  0.00  0.00     0.209 HD
ENDBRANCH 135 136
ENDBRANCH 106 135
ENDBRANCH 104 106
ENDBRANCH 101 102
BRANCH 101 138
ATOM    138  CB  ARG d  13    2281.409 699.985-2365.874  0.00  0.00     0.036 C 
BRANCH 138 139
ATOM    139  CG  ARG d  13    2282.955 700.138-2365.794  0.00  0.00     0.023 C 
BRANCH 139 140
ATOM    140  CD  ARG d  13    2283.582 699.151-2364.796  0.00  0.00     0.138 C 
BRANCH 140 141
ATOM    141  NE  ARG d  13    2285.059 699.357-2364.746  0.00  0.00    -0.227 N 
ATOM    142  CZ  ARG d  13    2285.907 698.666-2363.990  0.00  0.00     0.665 C 
ATOM    143  NH1 ARG d  13    2285.542 697.703-2363.192  0.00  0.00    -0.235 N 
ATOM    144  NH2 ARG d  13    2287.167 698.965-2364.048  0.00  0.00    -0.235 N 
ATOM    145 11HH ARG d  13    2284.536 697.517-2363.195  0.00  0.00     0.174 HD
ATOM    146 12HH ARG d  13    2286.255 697.220-2362.643  0.00  0.00     0.174 HD
ATOM    147 21HH ARG d  13    2287.434 699.722-2364.679  0.00  0.00     0.174 HD
ATOM    148 22HH ARG d  13    2287.802 698.424-2363.459  0.00  0.00     0.174 HD
ATOM    149  HE  ARG d  13    2285.510 700.079-2365.317  0.00  0.00     0.177 HD
ENDBRANCH 140 141
ENDBRANCH 139 140
ENDBRANCH 138 139
ENDBRANCH 101 138
ENDBRANCH  99 101
ENDBRANCH  96  97
BRANCH  96 150
ATOM    150  CB  GLN d  12    2276.591 702.267-2365.878  0.00  0.00     0.044 C 
BRANCH 150 151
ATOM    151  CG  GLN d  12    2276.953 703.788-2365.848  0.00  0.00     0.105 C 
BRANCH 151 152
ATOM    152  CD  GLN d  12    2276.651 704.603-2364.583  0.00  0.00     0.215 C 
ATOM    153  NE2 GLN d  12    2276.084 704.027-2363.554  0.00  0.00    -0.370 N 
ATOM    154 21HE GLN d  12    2275.978 704.622-2362.731  0.00  0.00     0.159 HD
ATOM    155 22HE GLN d  12    2275.920 703.024-2363.657  0.00  0.00     0.159 HD
ATOM    156  OE1 GLN d  12    2276.954 705.784-2364.507  0.00  0.00    -0.274 OA
ENDBRANCH 151 152
ENDBRANCH 150 151
ENDBRANCH  96 150
ENDBRANCH  94  96
ENDBRANCH  91  92
BRANCH  91 157
ATOM    157  CB  VAL d  11    2274.742 697.753-2368.080  0.00  0.00     0.009 C 
ATOM    158  CG1 VAL d  11    2274.174 698.457-2369.343  0.00  0.00     0.012 C 
ATOM    159  CG2 VAL d  11    2274.217 696.299-2368.152  0.00  0.00     0.012 C 
ENDBRANCH  91 157
ENDBRANCH  89  91
ENDBRANCH  86  87
BRANCH  86 160
ATOM    160  CB  HIS d  10    2278.099 695.221-2364.834  0.00  0.00     0.095 C 
BRANCH 160 161
ATOM    161  CG  HIS d  10    2279.384 694.510-2364.526  0.00  0.00     0.053 A 
ATOM    162  CD2 HIS d  10    2279.766 694.176-2363.234  0.00  0.00     0.116 A 
ATOM    163  NE2 HIS d  10    2280.980 693.544-2363.301  0.00  0.00    -0.359 N 
ATOM    164  CE1 HIS d  10    2281.242 693.546-2364.636  0.00  0.00     0.207 A 
ATOM    165  2HE HIS d  10    2281.547 693.167-2362.527  0.00  0.00     0.166 HD
ATOM    166  ND1 HIS d  10    2280.336 694.104-2365.459  0.00  0.00    -0.247 NA
ENDBRANCH 160 161
ENDBRANCH  86 160
ENDBRANCH   3  86
TORSDOF 69
