@<TRIPOS>MOLECULE
15-14
262 263 16              
SMALL
USER_CHARGES
@<TRIPOS>ATOM
1	   N	2440.590	748.299	-2542.222	N.3	1	GLU1	-0.516	
2	  CA	2441.149	749.648	-2542.222	C.3	1	GLU1	0.040	
3	   C	2442.658	749.608	-2542.222	C.2	1	GLU1	0.537	
4	   O	2443.334	750.307	-2542.990	O.2	1	GLU1	-0.582	
5	  CB	2440.626	750.433	-2540.985	C.3	1	GLU1	0.056	
6	  CG	2441.101	751.918	-2540.874	C.3	1	GLU1	0.014	
7	  CD	2440.677	752.722	-2539.659	C.2	1	GLU1	0.805	
8	 OE1	2439.949	752.220	-2538.781	O.co2	1	GLU1	-0.819	
9	 OE2	2441.107	753.892	-2539.587	O.co2	1	GLU1	-0.819	
10	   H	2441.217	747.420	-2542.222	 H	1	GLU1	0.294	
11	  HA	2440.823	750.166	-2543.142	 H	1	GLU1	0.111	
12	 2HB	2440.915	749.902	-2540.055	 H	1	GLU1	-0.017	
13	 3HB	2439.519	750.423	-2540.972	 H	1	GLU1	-0.017	
14	 2HG	2440.791	752.503	-2541.755	 H	1	GLU1	-0.043	
15	 3HG	2442.201	751.985	-2540.845	 H	1	GLU1	-0.043	
16	   N	2443.263	748.822	-2541.397	N.am	2	ASN2	-0.416	
17	  CA	2444.722	748.784	-2541.396	C.3	2	ASN2	0.014	
18	   C	2445.253	748.428	-2542.765	C.2	2	ASN2	0.597	
19	   O	2446.168	749.058	-2543.293	O.2	2	ASN2	-0.568	
20	  CB	2445.214	747.760	-2540.332	C.3	2	ASN2	-0.204	
21	  CG	2444.750	747.984	-2538.889	C.2	2	ASN2	0.713	
22	 ND2	2445.344	748.899	-2538.170	N.pl3	2	ASN2	-0.919	
23	 OD1	2443.829	747.351	-2538.395	O.2	2	ASN2	-0.593	
24	   H	2442.734	748.243	-2540.760	 H	2	ASN2	0.272	
25	  HA	2445.100	749.793	-2541.151	 H	2	ASN2	0.105	
26	 2HB	2446.318	747.701	-2540.335	 H	2	ASN2	0.080	
27	 3HB	2444.885	746.742	-2540.618	 H	2	ASN2	0.080	
28	1HD2	2444.863	749.073	-2537.284	 H	2	ASN2	0.420	
29	2HD2	2446.046	749.471	-2538.639	 H	2	ASN2	0.420	
30	   N	2444.732	747.433	-2543.399	N.am	3	PRO3	-0.255	
31	  CA	2445.184	747.024	-2544.721	C.3	3	PRO3	-0.027	
32	   C	2444.786	748.047	-2545.798	C.2	3	PRO3	0.590	
33	   O	2445.610	748.430	-2546.629	O.2	3	PRO3	-0.575	
34	  CB	2444.480	745.669	-2544.890	C.3	3	PRO3	-0.007	
35	  CG	2443.196	745.821	-2544.061	C.3	3	PRO3	0.019	
36	  CD	2443.654	746.640	-2542.851	C.3	3	PRO3	0.019	
37	  HA	2446.270	746.904	-2544.734	 H	3	PRO3	0.064	
38	 2HB	2445.103	744.888	-2544.449	 H	3	PRO3	0.025	
39	 3HB	2444.282	745.421	-2545.936	 H	3	PRO3	0.025	
40	 2HG	2442.768	744.859	-2543.770	 H	3	PRO3	0.021	
41	 3HG	2442.459	746.393	-2544.628	 H	3	PRO3	0.021	
42	 2HD	2444.042	745.990	-2542.063	 H	3	PRO3	0.039	
43	 3HD	2442.857	747.276	-2542.458	 H	3	PRO3	0.039	
44	   N	2443.582	748.508	-2545.831	N.am	4	GLU4	-0.516	
45	  CA	2443.222	749.479	-2546.860	C.3	4	GLU4	0.040	
46	   C	2444.122	750.689	-2546.799	C.2	4	GLU4	0.537	
47	   O	2444.648	751.169	-2547.813	O.2	4	GLU4	-0.582	
48	  CB	2441.734	749.898	-2546.691	C.3	4	GLU4	0.056	
49	  CG	2441.187	750.901	-2547.756	C.3	4	GLU4	0.014	
50	  CD	2439.760	751.398	-2547.613	C.2	4	GLU4	0.805	
51	 OE1	2439.033	751.000	-2546.683	O.co2	4	GLU4	-0.819	
52	 OE2	2439.371	752.228	-2548.462	O.co2	4	GLU4	-0.819	
53	   H	2442.897	748.201	-2545.154	 H	4	GLU4	0.294	
54	  HA	2443.354	749.008	-2547.852	 H	4	GLU4	0.111	
55	 2HB	2441.581	750.337	-2545.684	 H	4	GLU4	-0.017	
56	 3HB	2441.086	749.000	-2546.697	 H	4	GLU4	-0.017	
57	 2HG	2441.268	750.487	-2548.774	 H	4	GLU4	-0.043	
58	 3HG	2441.775	751.834	-2547.767	 H	4	GLU4	-0.043	
59	   N	2444.349	751.242	-2545.656	N.am	5	SER5	-0.416	
60	  CA	2445.219	752.413	-2545.597	C.3	5	SER5	-0.025	
61	   C	2446.577	752.107	-2546.182	C.2	5	SER5	0.597	
62	   O	2447.125	752.860	-2546.987	O.2	5	SER5	-0.568	
63	  CB	2445.330	752.945	-2544.146	C.3	5	SER5	0.212	
64	  OG	2446.061	752.065	-2543.285	O.3	5	SER5	-0.655	
65	   H	2443.931	750.870	-2544.814	 H	5	SER5	0.272	
66	  HA	2444.770	753.204	-2546.226	 H	5	SER5	0.084	
67	 2HB	2444.330	753.139	-2543.713	 H	5	SER5	0.035	
68	 3HB	2445.835	753.931	-2544.148	 H	5	SER5	0.035	
69	  HG	2445.572	751.241	-2543.234	 H	5	SER5	0.428	
70	   N	2447.182	751.024	-2545.828	N.am	6	ILE6	-0.416	
71	  CA	2448.495	750.728	-2546.394	C.3	6	ILE6	-0.060	
72	   C	2448.438	750.691	-2547.901	C.2	6	ILE6	0.597	
73	   O	2449.272	751.278	-2548.605	O.2	6	ILE6	-0.568	
74	  CB	2449.094	749.392	-2545.793	C.3	6	ILE6	0.130	
75	 CG1	2449.113	749.329	-2544.232	C.3	6	ILE6	-0.043	
76	 CG2	2450.535	749.089	-2546.308	C.3	6	ILE6	-0.320	
77	 CD1	2449.382	747.940	-2543.617	C.3	6	ILE6	-0.066	
78	   H	2446.753	750.389	-2545.169	 H	6	ILE6	0.272	
79	  HA	2449.169	751.562	-2546.126	 H	6	ILE6	0.087	
80	  HB	2448.436	748.566	-2546.138	 H	6	ILE6	0.019	
81	2HG1	2448.131	749.650	-2543.837	 H	6	ILE6	0.024	
82	3HG1	2449.829	750.071	-2543.827	 H	6	ILE6	0.024	
83	1HG2	2450.594	748.996	-2547.406	 H	6	ILE6	0.088	
84	2HG2	2451.258	749.872	-2546.006	 H	6	ILE6	0.088	
85	3HG2	2450.925	748.127	-2545.929	 H	6	ILE6	0.088	
86	1HD1	2448.654	747.186	-2543.972	 H	6	ILE6	0.019	
87	2HD1	2450.393	747.561	-2543.853	 H	6	ILE6	0.019	
88	3HD1	2449.306	747.970	-2542.515	 H	6	ILE6	0.019	
89	   N	2447.492	750.027	-2548.475	N.am	7	LEU7	-0.416	
90	  CA	2447.437	749.991	-2549.933	C.3	7	LEU7	-0.052	
91	   C	2447.365	751.386	-2550.506	C.2	7	LEU7	0.597	
92	   O	2448.086	751.748	-2551.449	O.2	7	LEU7	-0.568	
93	  CB	2446.233	749.131	-2550.414	C.3	7	LEU7	-0.110	
94	  CG	2446.160	747.652	-2549.947	C.3	7	LEU7	0.353	
95	 CD1	2444.970	746.947	-2550.613	C.3	7	LEU7	-0.412	
96	 CD2	2447.454	746.872	-2550.239	C.3	7	LEU7	-0.412	
97	   H	2446.800	749.541	-2547.924	 H	7	LEU7	0.272	
98	  HA	2448.378	749.551	-2550.308	 H	7	LEU7	0.092	
99	 2HB	2446.210	749.147	-2551.521	 H	7	LEU7	0.046	
100	 3HB	2445.294	749.634	-2550.110	 H	7	LEU7	0.046	
101	  HG	2445.990	747.644	-2548.850	 H	7	LEU7	-0.036	
102	1HD1	2444.013	747.456	-2550.390	 H	7	LEU7	0.100	
103	2HD1	2445.069	746.906	-2551.714	 H	7	LEU7	0.100	
104	3HD1	2444.863	745.905	-2550.257	 H	7	LEU7	0.100	
105	1HD2	2447.729	746.903	-2551.309	 H	7	LEU7	0.100	
106	2HD2	2448.307	747.284	-2549.667	 H	7	LEU7	0.100	
107	3HD2	2447.372	745.810	-2549.943	 H	7	LEU7	0.100	
108	   N	2446.528	752.228	-2550.000	N.am	8	ASP8	-0.516	
109	  CA	2446.458	753.577	-2550.554	C.3	8	ASP8	0.038	
110	   C	2447.805	754.256	-2550.498	C.2	8	ASP8	0.537	
111	   O	2448.278	754.860	-2551.473	O.2	8	ASP8	-0.582	
112	  CB	2445.380	754.417	-2549.813	C.3	8	ASP8	-0.030	
113	  CG	2445.162	755.838	-2550.355	C.2	8	ASP8	0.799	
114	 OD1	2445.227	756.036	-2551.586	O.co2	8	ASP8	-0.801	
115	 OD2	2444.971	756.764	-2549.540	O.co2	8	ASP8	-0.801	
116	   H	2445.930	751.957	-2549.233	 H	8	ASP8	0.294	
117	  HA	2446.175	753.499	-2551.622	 H	8	ASP8	0.088	
118	 2HB	2445.638	754.501	-2548.742	 H	8	ASP8	-0.012	
119	 3HB	2444.401	753.912	-2549.846	 H	8	ASP8	-0.012	
120	   N	2448.485	754.207	-2549.403	N.am	9	GLU9	-0.516	
121	  CA	2449.788	754.864	-2549.348	C.3	9	GLU9	0.040	
122	   C	2450.706	754.335	-2550.424	C.2	9	GLU9	0.537	
123	   O	2451.370	755.089	-2551.150	O.2	9	GLU9	-0.582	
124	  CB	2450.422	754.656	-2547.943	C.3	9	GLU9	0.056	
125	  CG	2451.805	755.348	-2547.714	C.3	9	GLU9	0.014	
126	  CD	2452.507	755.135	-2546.385	C.2	9	GLU9	0.805	
127	 OE1	2451.985	754.445	-2545.489	O.co2	9	GLU9	-0.819	
128	 OE2	2453.626	755.672	-2546.254	O.co2	9	GLU9	-0.819	
129	   H	2448.122	753.721	-2548.595	 H	9	GLU9	0.294	
130	  HA	2449.646	755.945	-2549.524	 H	9	GLU9	0.111	
131	 2HB	2450.534	753.572	-2547.739	 H	9	GLU9	-0.017	
132	 3HB	2449.725	755.010	-2547.158	 H	9	GLU9	-0.017	
133	 2HG	2451.733	756.439	-2547.854	 H	9	GLU9	-0.043	
134	 3HG	2452.551	755.002	-2548.448	 H	9	GLU9	-0.043	
135	   N	2450.802	753.060	-2550.593	N.am	10	HIS10	-0.416	
136	  CA	2451.689	752.547	-2551.633	C.3	10	HIS10	-0.058	
137	   C	2451.322	753.111	-2552.984	C.2	10	HIS10	0.597	
138	   O	2452.175	753.575	-2553.757	O.2	10	HIS10	-0.568	
139	  CB	2451.524	751.018	-2551.627	C.3	10	HIS10	-0.007	
140	  CG	2452.810	750.307	-2551.319	C.2	10	HIS10	0.187	
141	 CD2	2453.191	749.973	-2550.027	C.2	10	HIS10	-0.221	
142	 ND1	2453.761	749.901	-2552.252	N.2	10	HIS10	-0.543	
143	 CE1	2454.668	749.343	-2551.429	C.2	10	HIS10	0.163	
144	 NE2	2454.406	749.341	-2550.094	N.pl3	10	HIS10	-0.280	
145	   H	2450.271	752.425	-2550.014	 H	10	HIS10	0.272	
146	  HA	2452.708	752.904	-2551.409	 H	10	HIS10	0.136	
147	 2HB	2451.158	750.651	-2552.607	 H	10	HIS10	0.037	
148	 3HB	2450.769	750.682	-2550.887	 H	10	HIS10	0.037	
149	 2HD	2452.606	750.189	-2549.138	 H	10	HIS10	0.186	
150	 1HE	2455.558	748.921	-2551.876	 H	10	HIS10	0.144	
151	 2HE	2454.972	748.964	-2549.320	 H	10	HIS10	0.334	
152	   N	2450.084	753.111	-2553.347	N.am	11	VAL11	-0.416	
153	  CA	2449.729	753.656	-2554.654	C.3	11	VAL11	-0.087	
154	   C	2450.194	755.087	-2554.788	C.2	11	VAL11	0.597	
155	   O	2450.795	755.491	-2555.791	O.2	11	VAL11	-0.568	
156	  CB	2448.168	753.550	-2554.873	C.3	11	VAL11	0.299	
157	 CG1	2447.599	754.254	-2556.136	C.3	11	VAL11	-0.319	
158	 CG2	2447.643	752.097	-2554.945	C.3	11	VAL11	-0.319	
159	   H	2449.371	752.739	-2552.736	 H	11	VAL11	0.272	
160	  HA	2450.248	753.073	-2555.437	 H	11	VAL11	0.097	
161	  HB	2447.681	754.031	-2553.998	 H	11	VAL11	-0.030	
162	1HG1	2448.038	753.861	-2557.073	 H	11	VAL11	0.079	
163	2HG1	2446.500	754.147	-2556.218	 H	11	VAL11	0.079	
164	3HG1	2447.778	755.346	-2556.128	 H	11	VAL11	0.079	
165	1HG2	2447.932	751.510	-2554.054	 H	11	VAL11	0.079	
166	2HG2	2446.537	752.060	-2554.988	 H	11	VAL11	0.079	
167	3HG2	2448.024	751.555	-2555.832	 H	11	VAL11	0.079	
168	   N	2449.958	755.913	-2553.825	N.am	12	GLN12	-0.416	
169	  CA	2450.407	757.296	-2553.953	C.3	12	GLN12	-0.003	
170	   C	2451.897	757.362	-2554.192	C.2	12	GLN12	0.597	
171	   O	2452.384	758.070	-2555.071	O.2	12	GLN12	-0.568	
172	  CB	2450.017	758.064	-2552.671	C.3	12	GLN12	-0.004	
173	  CG	2450.378	759.586	-2552.641	C.3	12	GLN12	-0.064	
174	  CD	2450.077	760.400	-2551.376	C.2	12	GLN12	0.695	
175	 NE2	2449.510	759.824	-2550.347	N.pl3	12	GLN12	-0.941	
176	 OE1	2450.379	761.581	-2551.300	O.2	12	GLN12	-0.609	
177	   H	2449.469	755.607	-2552.996	 H	12	GLN12	0.272	
178	  HA	2449.908	757.752	-2554.829	 H	12	GLN12	0.085	
179	 2HB	2450.493	757.564	-2551.802	 H	12	GLN12	0.017	
180	 3HB	2448.927	757.957	-2552.508	 H	12	GLN12	0.017	
181	 2HG	2449.901	760.106	-2553.492	 H	12	GLN12	0.035	
182	 3HG	2451.462	759.727	-2552.807	 H	12	GLN12	0.035	
183	1HE2	2449.403	760.419	-2549.524	 H	12	GLN12	0.425	
184	2HE2	2449.345	758.821	-2550.450	 H	12	GLN12	0.425	
185	   N	2452.682	756.655	-2553.450	N.am	13	ARG13	-0.348	
186	  CA	2454.122	756.720	-2553.682	C.3	13	ARG13	-0.264	
187	   C	2454.458	756.348	-2555.106	C.2	13	ARG13	0.734	
188	   O	2455.226	757.019	-2555.791	O.2	13	ARG13	-0.589	
189	  CB	2454.835	755.782	-2552.667	C.3	13	ARG13	-0.001	
190	  CG	2456.380	755.935	-2552.587	C.3	13	ARG13	0.039	
191	  CD	2457.007	754.948	-2551.589	C.3	13	ARG13	0.049	
192	  NE	2458.484	755.154	-2551.539	N.pl3	13	ARG13	-0.530	
193	  CZ	2459.333	754.463	-2550.783	C.cat	13	ARG13	0.808	
194	 NH1	2458.968	753.500	-2549.985	N.pl3	13	ARG13	-0.863	
195	 NH2	2460.592	754.762	-2550.841	N.pl3	13	ARG13	-0.863	
196	   H	2452.305	756.066	-2552.721	 H	13	ARG13	0.275	
197	  HA	2454.447	757.766	-2553.524	 H	13	ARG13	0.156	
198	 2HB	2454.569	754.732	-2552.906	 H	13	ARG13	0.033	
199	 3HB	2454.410	755.950	-2551.657	 H	13	ARG13	0.033	
200	 2HG	2456.629	756.980	-2552.308	 H	13	ARG13	0.029	
201	 3HG	2456.831	755.778	-2553.588	 H	13	ARG13	0.029	
202	 2HD	2456.762	753.907	-2551.897	 H	13	ARG13	0.069	
203	 3HD	2456.551	755.094	-2550.586	 H	13	ARG13	0.069	
204	  HE	2458.936	755.876	-2552.110	 H	13	ARG13	0.346	
205	1HH1	2457.962	753.314	-2549.988	 H	13	ARG13	0.448	
206	2HH1	2459.681	753.017	-2549.436	 H	13	ARG13	0.448	
207	1HH2	2460.860	755.519	-2551.472	 H	13	ARG13	0.448	
208	2HH2	2461.228	754.221	-2550.252	 H	13	ARG13	0.448	
209	   N	2453.921	755.293	-2555.620	N.am	14	VAL14	-0.416	
210	  CA	2454.245	754.933	-2556.998	C.3	14	VAL14	-0.087	
211	   C	2453.916	756.063	-2557.944	C.2	14	VAL14	0.597	
212	   O	2454.708	756.444	-2558.813	O.2	14	VAL14	-0.568	
213	  CB	2453.472	753.616	-2557.404	C.3	14	VAL14	0.299	
214	 CG1	2453.561	753.197	-2558.897	C.3	14	VAL14	-0.319	
215	 CG2	2453.904	752.364	-2556.603	C.3	14	VAL14	-0.319	
216	   H	2453.286	754.725	-2555.078	 H	14	VAL14	0.272	
217	  HA	2455.333	754.756	-2557.073	 H	14	VAL14	0.097	
218	  HB	2452.396	753.788	-2557.187	 H	14	VAL14	-0.030	
219	1HG1	2454.602	753.019	-2559.226	 H	14	VAL14	0.079	
220	2HG1	2452.988	752.274	-2559.109	 H	14	VAL14	0.079	
221	3HG1	2453.132	753.959	-2559.575	 H	14	VAL14	0.079	
222	1HG2	2453.817	752.523	-2555.512	 H	14	VAL14	0.079	
223	2HG2	2453.268	751.488	-2556.834	 H	14	VAL14	0.079	
224	3HG2	2454.952	752.074	-2556.808	 H	14	VAL14	0.079	
225	   N	2452.771	756.649	-2557.842	N.am	15	THR15	-0.416	
226	  CA	2452.452	757.741	-2558.756	C.3	15	THR15	-0.039	
227	   C	2453.483	758.840	-2558.668	C.2	15	THR15	0.597	
228	   O	2453.977	759.340	-2559.659	O.2	15	THR15	-0.568	
229	  CB	2451.019	758.302	-2558.464	C.3	15	THR15	0.365	
230	 CG2	2450.548	759.473	-2559.353	C.3	15	THR15	-0.244	
231	 OG1	2450.038	757.291	-2558.658	O.3	15	THR15	-0.676	
232	   H	2452.106	756.357	-2557.140	 H	15	THR15	0.272	
233	  HA	2452.475	757.348	-2559.789	 H	15	THR15	0.101	
234	  HB	2450.983	758.631	-2557.403	 H	15	THR15	0.004	
235	 1HG	2449.199	757.679	-2558.395	 H	15	THR15	0.410	
236	1HG2	2449.521	759.799	-2559.103	 H	15	THR15	0.064	
237	2HG2	2451.183	760.372	-2559.240	 H	15	THR15	0.064	
238	3HG2	2450.555	759.203	-2560.425	 H	15	THR15	0.064	
239	   N	2453.851	759.261	-2557.506	N.am	16	ARG16	-0.348	
240	  CA	2454.849	760.324	-2557.422	C.3	16	ARG16	-0.264	
241	   C	2456.120	759.930	-2558.137	C.2	16	ARG16	0.734	
242	   O	2456.233	758.853	-2558.718	O.2	16	ARG16	-0.589	
243	  CB	2455.117	760.642	-2555.923	C.3	16	ARG16	-0.001	
244	  CG	2455.944	761.930	-2555.650	C.3	16	ARG16	0.039	
245	  CD	2456.193	762.149	-2554.148	C.3	16	ARG16	0.049	
246	  NE	2456.970	763.407	-2553.947	N.pl3	16	ARG16	-0.530	
247	  CZ	2457.361	763.889	-2552.771	C.cat	16	ARG16	0.808	
248	 NH1	2457.112	763.305	-2551.633	N.pl3	16	ARG16	-0.863	
249	 NH2	2458.026	765.001	-2552.752	N.pl3	16	ARG16	-0.863	
250	   H	2453.456	758.862	-2556.667	 H	16	ARG16	0.275	
251	  HA	2454.441	761.217	-2557.932	 H	16	ARG16	0.156	
252	 2HB	2455.613	759.765	-2555.456	 H	16	ARG16	0.033	
253	 3HB	2454.148	760.724	-2555.390	 H	16	ARG16	0.033	
254	 2HG	2455.415	762.801	-2556.088	 H	16	ARG16	0.029	
255	 3HG	2456.918	761.876	-2556.178	 H	16	ARG16	0.029	
256	 2HD	2456.740	761.274	-2553.735	 H	16	ARG16	0.069	
257	 3HD	2455.219	762.193	-2553.614	 H	16	ARG16	0.069	
258	  HE	2457.249	763.988	-2554.744	 H	16	ARG16	0.346	
259	1HH1	2456.585	762.433	-2551.718	 H	16	ARG16	0.448	
260	2HH1	2457.446	763.741	-2550.772	 H	16	ARG16	0.448	
261	1HH2	2458.213	765.444	-2553.654	 H	16	ARG16	0.448	
262	2HH2	2458.316	765.356	-2551.840	 H	16	ARG16	0.448	
@<TRIPOS>BOND
1 1 2 1
2 1 10 1
3 2 3 1
4 2 5 1
5 2 11 1
6 3 4 2
7 3 16 1
8 5 6 1
9 6 7 1
10 7 8 2
11 7 9 1
12 5 12 1
13 5 13 1
14 6 14 1
15 6 15 1
16 16 17 1
17 16 24 1
18 17 18 1
19 17 20 1
20 17 25 1
21 18 19 2
22 18 30 1
23 20 21 1
24 21 22 1
25 21 23 2
26 20 26 1
27 20 27 1
28 22 28 1
29 22 29 1
30 30 31 1
31 30 36 1
32 31 32 1
33 31 34 1
34 31 37 1
35 32 33 2
36 32 44 1
37 34 35 1
38 35 36 1
39 34 38 1
40 34 39 1
41 35 40 1
42 35 41 1
43 36 42 1
44 36 43 1
45 44 45 1
46 44 53 1
47 45 46 1
48 45 48 1
49 45 54 1
50 46 47 2
51 46 59 1
52 48 49 1
53 49 50 1
54 50 51 2
55 50 52 1
56 48 55 1
57 48 56 1
58 49 57 1
59 49 58 1
60 59 60 1
61 59 65 1
62 60 61 1
63 60 63 1
64 60 66 1
65 61 62 2
66 61 70 1
67 63 64 1
68 63 67 1
69 63 68 1
70 64 69 1
71 70 71 1
72 70 78 1
73 71 72 1
74 71 74 1
75 71 79 1
76 72 73 2
77 72 89 1
78 74 75 1
79 74 76 1
80 75 77 1
81 74 80 1
82 75 81 1
83 75 82 1
84 76 83 1
85 76 84 1
86 76 85 1
87 77 86 1
88 77 87 1
89 77 88 1
90 89 90 1
91 89 97 1
92 90 91 1
93 90 93 1
94 90 98 1
95 91 92 2
96 91 108 1
97 93 94 1
98 94 95 1
99 94 96 1
100 93 99 1
101 93 100 1
102 94 101 1
103 95 102 1
104 95 103 1
105 95 104 1
106 96 105 1
107 96 106 1
108 96 107 1
109 108 109 1
110 108 116 1
111 109 110 1
112 109 112 1
113 109 117 1
114 110 111 2
115 110 120 1
116 112 113 1
117 113 114 2
118 113 115 1
119 112 118 1
120 112 119 1
121 120 121 1
122 120 129 1
123 121 122 1
124 121 124 1
125 121 130 1
126 122 123 2
127 122 135 1
128 124 125 1
129 125 126 1
130 126 127 2
131 126 128 1
132 124 131 1
133 124 132 1
134 125 133 1
135 125 134 1
136 135 136 1
137 135 145 1
138 136 137 1
139 136 139 1
140 136 146 1
141 137 138 2
142 137 152 1
143 139 140 1
144 140 141 2
145 141 144 1
146 140 142 1
147 142 143 2
148 143 144 1
149 139 147 1
150 139 148 1
151 141 149 1
152 143 150 1
153 144 151 1
154 152 153 1
155 152 159 1
156 153 154 1
157 153 156 1
158 153 160 1
159 154 155 2
160 154 168 1
161 156 157 1
162 156 158 1
163 156 161 1
164 157 162 1
165 157 163 1
166 157 164 1
167 158 165 1
168 158 166 1
169 158 167 1
170 168 169 1
171 168 177 1
172 169 170 1
173 169 172 1
174 169 178 1
175 170 171 2
176 170 185 1
177 172 173 1
178 173 174 1
179 174 175 1
180 174 176 2
181 172 179 1
182 172 180 1
183 173 181 1
184 173 182 1
185 175 183 1
186 175 184 1
187 185 186 1
188 185 196 1
189 186 187 1
190 186 189 1
191 186 197 1
192 187 188 2
193 187 209 1
194 189 190 1
195 190 191 1
196 191 192 1
197 192 193 1
198 193 194 2
199 193 195 1
200 189 198 1
201 189 199 1
202 190 200 1
203 190 201 1
204 191 202 1
205 191 203 1
206 192 204 1
207 194 205 1
208 194 206 1
209 195 207 1
210 195 208 1
211 209 210 1
212 209 216 1
213 210 211 1
214 210 213 1
215 210 217 1
216 211 212 2
217 211 225 1
218 213 214 1
219 213 215 1
220 213 218 1
221 214 219 1
222 214 220 1
223 214 221 1
224 215 222 1
225 215 223 1
226 215 224 1
227 225 226 1
228 225 232 1
229 226 227 1
230 226 229 1
231 226 233 1
232 227 228 2
233 227 239 1
234 229 230 1
235 229 231 1
236 229 234 1
237 231 235 1
238 230 236 1
239 230 237 1
240 230 238 1
241 239 240 1
242 239 250 1
243 240 241 1
244 240 243 1
245 240 251 1
246 241 242 2
247 243 244 1
248 244 245 1
249 245 246 1
250 246 247 1
251 247 248 2
252 247 249 1
253 243 252 1
254 243 253 1
255 244 254 1
256 244 255 1
257 245 256 1
258 245 257 1
259 246 258 1
260 248 259 1
261 248 260 1
262 249 261 1
263 249 262 1
@<TRIPOS>SUBSTRUCTURE
1	GLU1	1	RESIDUE	1 ****	GLU
2	ASN2	16	RESIDUE	1 ****	ASN
3	PRO3	30	RESIDUE	1 ****	PRO
4	GLU4	44	RESIDUE	1 ****	GLU
5	SER5	59	RESIDUE	1 ****	SER
6	ILE6	70	RESIDUE	1 ****	ILE
7	LEU7	89	RESIDUE	1 ****	LEU
8	ASP8	108	RESIDUE	1 ****	ASP
9	GLU9	120	RESIDUE	1 ****	GLU
10	HIS10	135	RESIDUE	1 ****	HIS
11	VAL11	152	RESIDUE	1 ****	VAL
12	GLN12	168	RESIDUE	1 ****	GLN
13	ARG13	185	RESIDUE	1 ****	ARG
14	VAL14	209	RESIDUE	1 ****	VAL
15	THR15	225	RESIDUE	1 ****	THR
16	ARG16	239	RESIDUE	1 ****	ARG
