@<TRIPOS>MOLECULE
5-20
278 279 16              
SMALL
USER_CHARGES
@<TRIPOS>ATOM
1	   N	852.434	228.695	-816.338	N.3	1	GLU1	-0.516	
2	  CA	852.993	230.044	-816.338	C.3	1	GLU1	0.040	
3	   C	854.502	230.004	-816.338	C.2	1	GLU1	0.537	
4	   O	855.178	230.703	-817.106	O.2	1	GLU1	-0.582	
5	  CB	852.470	230.829	-815.101	C.3	1	GLU1	0.056	
6	  CG	852.945	232.314	-814.990	C.3	1	GLU1	0.014	
7	  CD	852.521	233.118	-813.775	C.2	1	GLU1	0.805	
8	 OE1	851.793	232.616	-812.897	O.co2	1	GLU1	-0.819	
9	 OE2	852.951	234.288	-813.703	O.co2	1	GLU1	-0.819	
10	   H	853.061	227.816	-816.338	 H	1	GLU1	0.294	
11	  HA	852.667	230.562	-817.258	 H	1	GLU1	0.111	
12	 2HB	852.759	230.298	-814.171	 H	1	GLU1	-0.017	
13	 3HB	851.363	230.819	-815.088	 H	1	GLU1	-0.017	
14	 2HG	852.635	232.899	-815.871	 H	1	GLU1	-0.043	
15	 3HG	854.045	232.381	-814.961	 H	1	GLU1	-0.043	
16	   N	855.107	229.218	-815.513	N.am	2	ASN2	-0.416	
17	  CA	856.566	229.180	-815.513	C.3	2	ASN2	0.014	
18	   C	857.097	228.824	-816.881	C.2	2	ASN2	0.597	
19	   O	858.012	229.455	-817.410	O.2	2	ASN2	-0.568	
20	  CB	857.058	228.157	-814.448	C.3	2	ASN2	-0.204	
21	  CG	856.595	228.381	-813.005	C.2	2	ASN2	0.713	
22	 ND2	857.189	229.296	-812.287	N.pl3	2	ASN2	-0.919	
23	 OD1	855.675	227.747	-812.511	O.2	2	ASN2	-0.593	
24	   H	854.579	228.639	-814.876	 H	2	ASN2	0.272	
25	  HA	856.943	230.190	-815.267	 H	2	ASN2	0.105	
26	 2HB	858.163	228.098	-814.452	 H	2	ASN2	0.080	
27	 3HB	856.729	227.139	-814.734	 H	2	ASN2	0.080	
28	1HD2	856.709	229.469	-811.400	 H	2	ASN2	0.420	
29	2HD2	857.891	229.867	-812.756	 H	2	ASN2	0.420	
30	   N	856.576	227.829	-817.515	N.am	3	PRO3	-0.255	
31	  CA	857.028	227.420	-818.837	C.3	3	PRO3	-0.027	
32	   C	856.630	228.443	-819.914	C.2	3	PRO3	0.590	
33	   O	857.453	228.827	-820.745	O.2	3	PRO3	-0.575	
34	  CB	856.324	226.065	-819.006	C.3	3	PRO3	-0.007	
35	  CG	855.041	226.217	-818.176	C.3	3	PRO3	0.019	
36	  CD	855.498	227.036	-816.966	C.3	3	PRO3	0.019	
37	  HA	858.114	227.300	-818.851	 H	3	PRO3	0.064	
38	 2HB	856.947	225.284	-818.566	 H	3	PRO3	0.025	
39	 3HB	856.126	225.817	-820.052	 H	3	PRO3	0.025	
40	 2HG	854.613	225.255	-817.885	 H	3	PRO3	0.021	
41	 3HG	854.303	226.788	-818.744	 H	3	PRO3	0.021	
42	 2HD	855.887	226.386	-816.179	 H	3	PRO3	0.039	
43	 3HD	854.701	227.672	-816.573	 H	3	PRO3	0.039	
44	   N	855.425	228.903	-819.946	N.am	4	GLU4	-0.516	
45	  CA	855.065	229.874	-820.976	C.3	4	GLU4	0.040	
46	   C	855.964	231.085	-820.915	C.2	4	GLU4	0.537	
47	   O	856.490	231.565	-821.929	O.2	4	GLU4	-0.582	
48	  CB	853.577	230.293	-820.806	C.3	4	GLU4	0.056	
49	  CG	853.028	231.296	-821.871	C.3	4	GLU4	0.014	
50	  CD	851.602	231.793	-821.728	C.2	4	GLU4	0.805	
51	 OE1	850.875	231.394	-820.797	O.co2	4	GLU4	-0.819	
52	 OE2	851.212	232.622	-822.576	O.co2	4	GLU4	-0.819	
53	   H	854.741	228.596	-819.270	 H	4	GLU4	0.294	
54	  HA	855.196	229.404	-821.967	 H	4	GLU4	0.111	
55	 2HB	853.424	230.732	-819.799	 H	4	GLU4	-0.017	
56	 3HB	852.929	229.395	-820.812	 H	4	GLU4	-0.017	
57	 2HG	853.110	230.881	-822.889	 H	4	GLU4	-0.043	
58	 3HG	853.616	232.229	-821.882	 H	4	GLU4	-0.043	
59	   N	856.191	231.638	-819.772	N.am	5	ARG5	-0.348	
60	  CA	857.061	232.810	-819.713	C.3	5	ARG5	-0.264	
61	   C	858.419	232.504	-820.298	C.2	5	ARG5	0.734	
62	   O	858.966	233.256	-821.102	O.2	5	ARG5	-0.589	
63	  CB	857.173	233.277	-818.234	C.3	5	ARG5	-0.001	
64	  CG	857.833	234.668	-818.019	C.3	5	ARG5	0.039	
65	  CD	857.936	235.036	-816.530	C.3	5	ARG5	0.049	
66	  NE	858.557	236.385	-816.388	N.pl3	5	ARG5	-0.530	
67	  CZ	858.799	237.003	-815.236	C.cat	5	ARG5	0.808	
68	 NH1	858.523	236.489	-814.070	N.pl3	5	ARG5	-0.863	
69	 NH2	859.339	238.180	-815.270	N.pl3	5	ARG5	-0.863	
70	   H	855.774	231.267	-818.930	 H	5	ARG5	0.275	
71	  HA	856.602	233.607	-820.329	 H	5	ARG5	0.156	
72	 2HB	857.719	232.503	-817.656	 H	5	ARG5	0.033	
73	 3HB	856.161	233.293	-817.780	 H	5	ARG5	0.033	
74	 2HG	857.251	235.436	-818.570	 H	5	ARG5	0.029	
75	 3HG	858.846	234.681	-818.471	 H	5	ARG5	0.029	
76	 2HD	858.538	234.264	-816.002	 H	5	ARG5	0.069	
77	 3HD	856.924	235.013	-816.072	 H	5	ARG5	0.069	
78	  HE	858.837	236.927	-817.212	 H	5	ARG5	0.346	
79	1HH1	858.101	235.559	-814.113	 H	5	ARG5	0.448	
80	2HH1	858.739	237.028	-813.230	 H	5	ARG5	0.448	
81	1HH2	859.549	238.566	-816.192	 H	5	ARG5	0.448	
82	2HH2	859.516	238.639	-814.374	 H	5	ARG5	0.448	
83	   N	859.023	231.421	-819.944	N.am	6	ILE6	-0.416	
84	  CA	860.337	231.126	-820.509	C.3	6	ILE6	-0.060	
85	   C	860.280	231.088	-822.017	C.2	6	ILE6	0.597	
86	   O	861.115	231.675	-822.721	O.2	6	ILE6	-0.568	
87	  CB	860.936	229.789	-819.909	C.3	6	ILE6	0.130	
88	 CG1	860.955	229.727	-818.348	C.3	6	ILE6	-0.043	
89	 CG2	862.377	229.487	-820.424	C.3	6	ILE6	-0.320	
90	 CD1	861.224	228.338	-817.733	C.3	6	ILE6	-0.066	
91	   H	858.595	230.787	-819.285	 H	6	ILE6	0.272	
92	  HA	861.011	231.960	-820.242	 H	6	ILE6	0.087	
93	  HB	860.278	228.964	-820.253	 H	6	ILE6	0.019	
94	2HG1	859.972	230.048	-817.952	 H	6	ILE6	0.024	
95	3HG1	861.671	230.469	-817.943	 H	6	ILE6	0.024	
96	1HG2	862.436	229.393	-821.522	 H	6	ILE6	0.088	
97	2HG2	863.099	230.269	-820.121	 H	6	ILE6	0.088	
98	3HG2	862.767	228.525	-820.045	 H	6	ILE6	0.088	
99	1HD1	860.496	227.584	-818.087	 H	6	ILE6	0.019	
100	2HD1	862.235	227.959	-817.968	 H	6	ILE6	0.019	
101	3HD1	861.147	228.368	-816.630	 H	6	ILE6	0.019	
102	   N	859.334	230.425	-822.591	N.am	7	LEU7	-0.416	
103	  CA	859.279	230.388	-824.050	C.3	7	LEU7	-0.052	
104	   C	859.208	231.784	-824.622	C.2	7	LEU7	0.597	
105	   O	859.929	232.146	-825.564	O.2	7	LEU7	-0.568	
106	  CB	858.076	229.528	-824.530	C.3	7	LEU7	-0.110	
107	  CG	858.003	228.049	-824.063	C.3	7	LEU7	0.353	
108	 CD1	856.813	227.344	-824.729	C.3	7	LEU7	-0.412	
109	 CD2	859.296	227.269	-824.354	C.3	7	LEU7	-0.412	
110	   H	858.641	229.938	-822.040	 H	7	LEU7	0.272	
111	  HA	860.221	229.948	-824.423	 H	7	LEU7	0.092	
112	 2HB	858.053	229.544	-825.638	 H	7	LEU7	0.046	
113	 3HB	857.136	230.032	-824.226	 H	7	LEU7	0.046	
114	  HG	857.832	228.041	-822.966	 H	7	LEU7	-0.036	
115	1HD1	855.856	227.853	-824.507	 H	7	LEU7	0.100	
116	2HD1	856.912	227.303	-825.830	 H	7	LEU7	0.100	
117	3HD1	856.705	226.303	-824.373	 H	7	LEU7	0.100	
118	1HD2	859.571	227.299	-825.424	 H	7	LEU7	0.100	
119	2HD2	860.149	227.681	-823.783	 H	7	LEU7	0.100	
120	3HD2	859.214	226.207	-824.058	 H	7	LEU7	0.100	
121	   N	858.370	232.625	-824.116	N.am	8	ASP8	-0.516	
122	  CA	858.301	233.974	-824.670	C.3	8	ASP8	0.038	
123	   C	859.648	234.653	-824.612	C.2	8	ASP8	0.537	
124	   O	860.121	235.258	-825.586	O.2	8	ASP8	-0.582	
125	  CB	857.223	234.813	-823.928	C.3	8	ASP8	-0.030	
126	  CG	857.004	236.234	-824.469	C.2	8	ASP8	0.799	
127	 OD1	857.069	236.433	-825.700	O.co2	8	ASP8	-0.801	
128	 OD2	856.812	237.160	-823.654	O.co2	8	ASP8	-0.801	
129	   H	857.772	232.354	-823.349	 H	8	ASP8	0.294	
130	  HA	858.018	233.896	-825.737	 H	8	ASP8	0.088	
131	 2HB	857.480	234.897	-822.856	 H	8	ASP8	-0.012	
132	 3HB	856.243	234.309	-823.962	 H	8	ASP8	-0.012	
133	   N	860.327	234.603	-823.517	N.am	9	GLU9	-0.516	
134	  CA	861.630	235.261	-823.461	C.3	9	GLU9	0.040	
135	   C	862.548	234.733	-824.536	C.2	9	GLU9	0.537	
136	   O	863.213	235.487	-825.261	O.2	9	GLU9	-0.582	
137	  CB	862.263	235.053	-822.055	C.3	9	GLU9	0.056	
138	  CG	863.645	235.745	-821.825	C.3	9	GLU9	0.014	
139	  CD	864.347	235.531	-820.497	C.2	9	GLU9	0.805	
140	 OE1	863.825	234.840	-819.600	O.co2	9	GLU9	-0.819	
141	 OE2	865.466	236.068	-820.364	O.co2	9	GLU9	-0.819	
142	   H	859.963	234.117	-822.710	 H	9	GLU9	0.294	
143	  HA	861.488	236.342	-823.636	 H	9	GLU9	0.111	
144	 2HB	862.375	233.968	-821.852	 H	9	GLU9	-0.017	
145	 3HB	861.565	235.406	-821.271	 H	9	GLU9	-0.017	
146	 2HG	863.574	236.835	-821.965	 H	9	GLU9	-0.043	
147	 3HG	864.392	235.399	-822.559	 H	9	GLU9	-0.043	
148	   N	862.644	233.457	-824.706	N.am	10	HIS10	-0.416	
149	  CA	863.533	232.946	-825.746	C.3	10	HIS10	-0.058	
150	   C	863.166	233.510	-827.097	C.2	10	HIS10	0.597	
151	   O	864.019	233.975	-827.868	O.2	10	HIS10	-0.568	
152	  CB	863.368	231.417	-825.741	C.3	10	HIS10	-0.007	
153	  CG	864.654	230.706	-825.432	C.2	10	HIS10	0.187	
154	 CD2	865.034	230.371	-824.139	C.2	10	HIS10	-0.221	
155	 ND1	865.606	230.300	-826.364	N.2	10	HIS10	-0.543	
156	 CE1	866.512	229.742	-825.540	C.2	10	HIS10	0.163	
157	 NE2	866.249	229.739	-824.205	N.pl3	10	HIS10	-0.280	
158	   H	862.113	232.822	-824.127	 H	10	HIS10	0.272	
159	  HA	864.552	233.303	-825.520	 H	10	HIS10	0.136	
160	 2HB	863.003	231.050	-826.721	 H	10	HIS10	0.037	
161	 3HB	862.612	231.080	-825.001	 H	10	HIS10	0.037	
162	 2HD	864.448	230.586	-823.250	 H	10	HIS10	0.186	
163	 1HE	867.403	229.321	-825.987	 H	10	HIS10	0.144	
164	 2HE	866.815	229.362	-823.432	 H	10	HIS10	0.334	
165	   N	861.929	233.510	-827.460	N.am	11	VAL11	-0.416	
166	  CA	861.574	234.056	-828.767	C.3	11	VAL11	-0.087	
167	   C	862.039	235.486	-828.900	C.2	11	VAL11	0.597	
168	   O	862.641	235.891	-829.902	O.2	11	VAL11	-0.568	
169	  CB	860.013	233.950	-828.987	C.3	11	VAL11	0.299	
170	 CG1	859.445	234.654	-830.250	C.3	11	VAL11	-0.319	
171	 CG2	859.488	232.496	-829.061	C.3	11	VAL11	-0.319	
172	   H	861.215	233.137	-826.850	 H	11	VAL11	0.272	
173	  HA	862.094	233.473	-829.549	 H	11	VAL11	0.097	
174	  HB	859.525	234.430	-828.112	 H	11	VAL11	-0.030	
175	1HG1	859.884	234.262	-831.187	 H	11	VAL11	0.079	
176	2HG1	858.346	234.547	-830.333	 H	11	VAL11	0.079	
177	3HG1	859.624	235.746	-830.241	 H	11	VAL11	0.079	
178	1HG2	859.778	231.908	-828.170	 H	11	VAL11	0.079	
179	2HG2	858.383	232.459	-829.104	 H	11	VAL11	0.079	
180	3HG2	859.870	231.955	-829.947	 H	11	VAL11	0.079	
181	   N	861.802	236.312	-827.937	N.am	12	GLN12	-0.416	
182	  CA	862.251	237.695	-828.064	C.3	12	GLN12	-0.003	
183	   C	863.741	237.762	-828.301	C.2	12	GLN12	0.597	
184	   O	864.229	238.470	-829.179	O.2	12	GLN12	-0.568	
185	  CB	861.859	238.462	-826.782	C.3	12	GLN12	-0.004	
186	  CG	862.220	239.984	-826.750	C.3	12	GLN12	-0.064	
187	  CD	861.917	240.797	-825.485	C.2	12	GLN12	0.695	
188	 NE2	861.349	240.221	-824.457	N.pl3	12	GLN12	-0.941	
189	 OE1	862.219	241.978	-825.408	O.2	12	GLN12	-0.609	
190	   H	861.313	236.006	-827.108	 H	12	GLN12	0.272	
191	  HA	861.752	238.151	-828.939	 H	12	GLN12	0.085	
192	 2HB	862.335	237.962	-825.912	 H	12	GLN12	0.017	
193	 3HB	860.769	238.355	-826.619	 H	12	GLN12	0.017	
194	 2HG	861.743	240.505	-827.601	 H	12	GLN12	0.035	
195	 3HG	863.304	240.126	-826.915	 H	12	GLN12	0.035	
196	1HE2	861.242	240.816	-823.633	 H	12	GLN12	0.425	
197	2HE2	861.186	239.218	-824.561	 H	12	GLN12	0.425	
198	   N	864.525	237.055	-827.560	N.am	13	ARG13	-0.348	
199	  CA	865.965	237.121	-827.790	C.3	13	ARG13	-0.264	
200	   C	866.302	236.749	-829.215	C.2	13	ARG13	0.734	
201	   O	867.071	237.421	-829.899	O.2	13	ARG13	-0.589	
202	  CB	866.678	236.181	-826.776	C.3	13	ARG13	-0.001	
203	  CG	868.223	236.334	-826.694	C.3	13	ARG13	0.039	
204	  CD	868.849	235.346	-825.696	C.3	13	ARG13	0.049	
205	  NE	870.326	235.553	-825.645	N.pl3	13	ARG13	-0.530	
206	  CZ	871.174	234.861	-824.889	C.cat	13	ARG13	0.808	
207	 NH1	870.808	233.897	-824.092	N.pl3	13	ARG13	-0.863	
208	 NH2	872.434	235.160	-824.946	N.pl3	13	ARG13	-0.863	
209	   H	864.148	236.465	-826.832	 H	13	ARG13	0.275	
210	  HA	866.290	238.166	-827.631	 H	13	ARG13	0.156	
211	 2HB	866.412	235.131	-827.015	 H	13	ARG13	0.033	
212	 3HB	866.252	236.348	-825.765	 H	13	ARG13	0.033	
213	 2HG	868.471	237.379	-826.414	 H	13	ARG13	0.029	
214	 3HG	868.674	236.178	-827.695	 H	13	ARG13	0.029	
215	 2HD	868.605	234.306	-826.006	 H	13	ARG13	0.069	
216	 3HD	868.392	235.492	-824.694	 H	13	ARG13	0.069	
217	  HE	870.778	236.275	-826.215	 H	13	ARG13	0.346	
218	1HH1	869.803	233.711	-824.096	 H	13	ARG13	0.448	
219	2HH1	871.521	233.414	-823.543	 H	13	ARG13	0.448	
220	1HH2	872.702	235.918	-825.576	 H	13	ARG13	0.448	
221	2HH2	873.068	234.619	-824.357	 H	13	ARG13	0.448	
222	   N	865.766	235.695	-829.730	N.am	14	VAL14	-0.416	
223	  CA	866.091	235.336	-831.107	C.3	14	VAL14	-0.087	
224	   C	865.762	236.466	-832.053	C.2	14	VAL14	0.597	
225	   O	866.556	236.847	-832.922	O.2	14	VAL14	-0.568	
226	  CB	865.319	234.019	-831.514	C.3	14	VAL14	0.299	
227	 CG1	865.409	233.600	-833.008	C.3	14	VAL14	-0.319	
228	 CG2	865.750	232.766	-830.714	C.3	14	VAL14	-0.319	
229	   H	865.131	235.126	-829.188	 H	14	VAL14	0.272	
230	  HA	867.180	235.159	-831.181	 H	14	VAL14	0.097	
231	  HB	864.243	234.190	-831.299	 H	14	VAL14	-0.030	
232	1HG1	866.450	233.423	-833.336	 H	14	VAL14	0.079	
233	2HG1	864.836	232.677	-833.221	 H	14	VAL14	0.079	
234	3HG1	864.980	234.363	-833.686	 H	14	VAL14	0.079	
235	1HG2	865.663	232.925	-829.623	 H	14	VAL14	0.079	
236	2HG2	865.115	231.890	-830.946	 H	14	VAL14	0.079	
237	3HG2	866.798	232.476	-830.919	 H	14	VAL14	0.079	
238	   N	864.617	237.052	-831.952	N.am	15	MET15	-0.416	
239	  CA	864.298	238.145	-832.865	C.3	15	MET15	-0.024	
240	   C	865.328	239.244	-832.777	C.2	15	MET15	0.597	
241	   O	865.831	239.755	-833.790	O.2	15	MET15	-0.568	
242	  CB	862.876	238.691	-832.557	C.3	15	MET15	0.034	
243	  CG	861.714	237.693	-832.749	C.3	15	MET15	0.002	
244	  SD	860.140	238.559	-832.636	S.3	15	MET15	-0.274	
245	  CE	859.059	237.130	-832.500	C.3	15	MET15	-0.054	
246	   H	863.952	236.759	-831.250	 H	15	MET15	0.272	
247	  HA	864.324	237.757	-833.901	 H	15	MET15	0.088	
248	 2HB	862.674	239.569	-833.199	 H	15	MET15	0.024	
249	 3HB	862.840	239.083	-831.521	 H	15	MET15	0.024	
250	 2HG	861.756	236.907	-831.972	 H	15	MET15	0.044	
251	 3HG	861.777	237.178	-833.726	 H	15	MET15	0.044	
252	 1HE	859.203	236.442	-833.352	 H	15	MET15	0.068	
253	 2HE	859.267	236.577	-831.567	 H	15	MET15	0.068	
254	 3HE	858.001	237.445	-832.484	 H	15	MET15	0.068	
255	   N	865.696	239.665	-831.615	N.am	16	ARG16	-0.348	
256	  CA	866.693	240.729	-831.531	C.3	16	ARG16	-0.264	
257	   C	867.964	240.336	-832.246	C.2	16	ARG16	0.734	
258	   O	868.078	239.259	-832.828	O.2	16	ARG16	-0.589	
259	  CB	866.961	241.047	-830.032	C.3	16	ARG16	-0.001	
260	  CG	867.787	242.336	-829.759	C.3	16	ARG16	0.039	
261	  CD	868.036	242.555	-828.258	C.3	16	ARG16	0.049	
262	  NE	868.812	243.814	-828.057	N.pl3	16	ARG16	-0.530	
263	  CZ	869.203	244.296	-826.881	C.cat	16	ARG16	0.808	
264	 NH1	868.954	243.712	-825.742	N.pl3	16	ARG16	-0.863	
265	 NH2	869.867	245.409	-826.862	N.pl3	16	ARG16	-0.863	
266	   H	865.301	239.266	-830.776	 H	16	ARG16	0.275	
267	  HA	866.285	241.622	-832.041	 H	16	ARG16	0.156	
268	 2HB	867.458	240.171	-829.566	 H	16	ARG16	0.033	
269	 3HB	865.992	241.128	-829.499	 H	16	ARG16	0.033	
270	 2HG	867.257	243.207	-830.197	 H	16	ARG16	0.029	
271	 3HG	868.761	242.283	-830.288	 H	16	ARG16	0.029	
272	 2HD	868.584	241.680	-827.844	 H	16	ARG16	0.069	
273	 3HD	867.063	242.598	-827.723	 H	16	ARG16	0.069	
274	  HE	869.091	244.395	-828.854	 H	16	ARG16	0.346	
275	1HH1	868.429	242.839	-825.827	 H	16	ARG16	0.448	
276	2HH1	869.289	244.148	-824.881	 H	16	ARG16	0.448	
277	1HH2	870.053	245.852	-827.764	 H	16	ARG16	0.448	
278	2HH2	870.157	245.764	-825.949	 H	16	ARG16	0.448	
@<TRIPOS>BOND
1 1 2 1
2 1 10 1
3 2 3 1
4 2 5 1
5 2 11 1
6 3 4 2
7 3 16 1
8 5 6 1
9 6 7 1
10 7 8 2
11 7 9 1
12 5 12 1
13 5 13 1
14 6 14 1
15 6 15 1
16 16 17 1
17 16 24 1
18 17 18 1
19 17 20 1
20 17 25 1
21 18 19 2
22 18 30 1
23 20 21 1
24 21 22 1
25 21 23 2
26 20 26 1
27 20 27 1
28 22 28 1
29 22 29 1
30 30 31 1
31 30 36 1
32 31 32 1
33 31 34 1
34 31 37 1
35 32 33 2
36 32 44 1
37 34 35 1
38 35 36 1
39 34 38 1
40 34 39 1
41 35 40 1
42 35 41 1
43 36 42 1
44 36 43 1
45 44 45 1
46 44 53 1
47 45 46 1
48 45 48 1
49 45 54 1
50 46 47 2
51 46 59 1
52 48 49 1
53 49 50 1
54 50 51 2
55 50 52 1
56 48 55 1
57 48 56 1
58 49 57 1
59 49 58 1
60 59 60 1
61 59 70 1
62 60 61 1
63 60 63 1
64 60 71 1
65 61 62 2
66 61 83 1
67 63 64 1
68 64 65 1
69 65 66 1
70 66 67 1
71 67 68 2
72 67 69 1
73 63 72 1
74 63 73 1
75 64 74 1
76 64 75 1
77 65 76 1
78 65 77 1
79 66 78 1
80 68 79 1
81 68 80 1
82 69 81 1
83 69 82 1
84 83 84 1
85 83 91 1
86 84 85 1
87 84 87 1
88 84 92 1
89 85 86 2
90 85 102 1
91 87 88 1
92 87 89 1
93 88 90 1
94 87 93 1
95 88 94 1
96 88 95 1
97 89 96 1
98 89 97 1
99 89 98 1
100 90 99 1
101 90 100 1
102 90 101 1
103 102 103 1
104 102 110 1
105 103 104 1
106 103 106 1
107 103 111 1
108 104 105 2
109 104 121 1
110 106 107 1
111 107 108 1
112 107 109 1
113 106 112 1
114 106 113 1
115 107 114 1
116 108 115 1
117 108 116 1
118 108 117 1
119 109 118 1
120 109 119 1
121 109 120 1
122 121 122 1
123 121 129 1
124 122 123 1
125 122 125 1
126 122 130 1
127 123 124 2
128 123 133 1
129 125 126 1
130 126 127 2
131 126 128 1
132 125 131 1
133 125 132 1
134 133 134 1
135 133 142 1
136 134 135 1
137 134 137 1
138 134 143 1
139 135 136 2
140 135 148 1
141 137 138 1
142 138 139 1
143 139 140 2
144 139 141 1
145 137 144 1
146 137 145 1
147 138 146 1
148 138 147 1
149 148 149 1
150 148 158 1
151 149 150 1
152 149 152 1
153 149 159 1
154 150 151 2
155 150 165 1
156 152 153 1
157 153 154 2
158 154 157 1
159 153 155 1
160 155 156 2
161 156 157 1
162 152 160 1
163 152 161 1
164 154 162 1
165 156 163 1
166 157 164 1
167 165 166 1
168 165 172 1
169 166 167 1
170 166 169 1
171 166 173 1
172 167 168 2
173 167 181 1
174 169 170 1
175 169 171 1
176 169 174 1
177 170 175 1
178 170 176 1
179 170 177 1
180 171 178 1
181 171 179 1
182 171 180 1
183 181 182 1
184 181 190 1
185 182 183 1
186 182 185 1
187 182 191 1
188 183 184 2
189 183 198 1
190 185 186 1
191 186 187 1
192 187 188 1
193 187 189 2
194 185 192 1
195 185 193 1
196 186 194 1
197 186 195 1
198 188 196 1
199 188 197 1
200 198 199 1
201 198 209 1
202 199 200 1
203 199 202 1
204 199 210 1
205 200 201 2
206 200 222 1
207 202 203 1
208 203 204 1
209 204 205 1
210 205 206 1
211 206 207 2
212 206 208 1
213 202 211 1
214 202 212 1
215 203 213 1
216 203 214 1
217 204 215 1
218 204 216 1
219 205 217 1
220 207 218 1
221 207 219 1
222 208 220 1
223 208 221 1
224 222 223 1
225 222 229 1
226 223 224 1
227 223 226 1
228 223 230 1
229 224 225 2
230 224 238 1
231 226 227 1
232 226 228 1
233 226 231 1
234 227 232 1
235 227 233 1
236 227 234 1
237 228 235 1
238 228 236 1
239 228 237 1
240 238 239 1
241 238 246 1
242 239 240 1
243 239 242 1
244 239 247 1
245 240 241 2
246 240 255 1
247 242 243 1
248 243 244 1
249 244 245 1
250 242 248 1
251 242 249 1
252 243 250 1
253 243 251 1
254 245 252 1
255 245 253 1
256 245 254 1
257 255 256 1
258 255 266 1
259 256 257 1
260 256 259 1
261 256 267 1
262 257 258 2
263 259 260 1
264 260 261 1
265 261 262 1
266 262 263 1
267 263 264 2
268 263 265 1
269 259 268 1
270 259 269 1
271 260 270 1
272 260 271 1
273 261 272 1
274 261 273 1
275 262 274 1
276 264 275 1
277 264 276 1
278 265 277 1
279 265 278 1
@<TRIPOS>SUBSTRUCTURE
1	GLU1	1	RESIDUE	1 ****	GLU
2	ASN2	16	RESIDUE	1 ****	ASN
3	PRO3	30	RESIDUE	1 ****	PRO
4	GLU4	44	RESIDUE	1 ****	GLU
5	ARG5	59	RESIDUE	1 ****	ARG
6	ILE6	83	RESIDUE	1 ****	ILE
7	LEU7	102	RESIDUE	1 ****	LEU
8	ASP8	121	RESIDUE	1 ****	ASP
9	GLU9	133	RESIDUE	1 ****	GLU
10	HIS10	148	RESIDUE	1 ****	HIS
11	VAL11	165	RESIDUE	1 ****	VAL
12	GLN12	181	RESIDUE	1 ****	GLN
13	ARG13	198	RESIDUE	1 ****	ARG
14	VAL14	222	RESIDUE	1 ****	VAL
15	MET15	238	RESIDUE	1 ****	MET
16	ARG16	255	RESIDUE	1 ****	ARG
