@<TRIPOS>MOLECULE
15-8
268 270 16              
SMALL
USER_CHARGES
@<TRIPOS>ATOM
1	   N	2390.981	732.280	-2488.626	N.3	1	GLU1	-0.516	
2	  CA	2391.540	733.629	-2488.626	C.3	1	GLU1	0.040	
3	   C	2393.049	733.589	-2488.626	C.2	1	GLU1	0.537	
4	   O	2393.725	734.288	-2489.395	O.2	1	GLU1	-0.582	
5	  CB	2391.017	734.414	-2487.390	C.3	1	GLU1	0.056	
6	  CG	2391.492	735.899	-2487.279	C.3	1	GLU1	0.014	
7	  CD	2391.068	736.703	-2486.063	C.2	1	GLU1	0.805	
8	 OE1	2390.340	736.201	-2485.186	O.co2	1	GLU1	-0.819	
9	 OE2	2391.498	737.873	-2485.991	O.co2	1	GLU1	-0.819	
10	   H	2391.608	731.401	-2488.626	 H	1	GLU1	0.294	
11	  HA	2391.214	734.147	-2489.547	 H	1	GLU1	0.111	
12	 2HB	2391.306	733.883	-2486.459	 H	1	GLU1	-0.017	
13	 3HB	2389.910	734.404	-2487.376	 H	1	GLU1	-0.017	
14	 2HG	2391.182	736.484	-2488.159	 H	1	GLU1	-0.043	
15	 3HG	2392.592	735.966	-2487.250	 H	1	GLU1	-0.043	
16	   N	2393.653	732.803	-2487.801	N.am	2	ASN2	-0.416	
17	  CA	2395.113	732.764	-2487.801	C.3	2	ASN2	0.014	
18	   C	2395.644	732.409	-2489.170	C.2	2	ASN2	0.597	
19	   O	2396.559	733.039	-2489.698	O.2	2	ASN2	-0.568	
20	  CB	2395.604	731.741	-2486.737	C.3	2	ASN2	-0.204	
21	  CG	2395.141	731.965	-2485.293	C.2	2	ASN2	0.713	
22	 ND2	2395.735	732.880	-2484.575	N.pl3	2	ASN2	-0.919	
23	 OD1	2394.220	731.332	-2484.799	O.2	2	ASN2	-0.593	
24	   H	2393.125	732.224	-2487.165	 H	2	ASN2	0.272	
25	  HA	2395.490	733.774	-2487.556	 H	2	ASN2	0.105	
26	 2HB	2396.708	731.682	-2486.740	 H	2	ASN2	0.080	
27	 3HB	2395.275	730.723	-2487.022	 H	2	ASN2	0.080	
28	1HD2	2395.254	733.053	-2483.689	 H	2	ASN2	0.420	
29	2HD2	2396.437	733.452	-2485.044	 H	2	ASN2	0.420	
30	   N	2395.123	731.414	-2489.804	N.am	3	PRO3	-0.255	
31	  CA	2395.575	731.004	-2491.125	C.3	3	PRO3	-0.027	
32	   C	2395.177	732.028	-2492.202	C.2	3	PRO3	0.590	
33	   O	2396.000	732.411	-2493.034	O.2	3	PRO3	-0.575	
34	  CB	2394.870	729.650	-2491.295	C.3	3	PRO3	-0.007	
35	  CG	2393.587	729.802	-2490.465	C.3	3	PRO3	0.019	
36	  CD	2394.044	730.621	-2489.255	C.3	3	PRO3	0.019	
37	  HA	2396.661	730.884	-2491.139	 H	3	PRO3	0.064	
38	 2HB	2395.493	728.869	-2490.854	 H	3	PRO3	0.025	
39	 3HB	2394.672	729.402	-2492.340	 H	3	PRO3	0.025	
40	 2HG	2393.159	728.840	-2490.174	 H	3	PRO3	0.021	
41	 3HG	2392.850	730.373	-2491.033	 H	3	PRO3	0.021	
42	 2HD	2394.433	729.971	-2488.468	 H	3	PRO3	0.039	
43	 3HD	2393.248	731.257	-2488.863	 H	3	PRO3	0.039	
44	   N	2393.972	732.488	-2492.235	N.am	4	GLU4	-0.516	
45	  CA	2393.613	733.459	-2493.265	C.3	4	GLU4	0.040	
46	   C	2394.512	734.670	-2493.203	C.2	4	GLU4	0.537	
47	   O	2395.039	735.150	-2494.218	O.2	4	GLU4	-0.582	
48	  CB	2392.125	733.879	-2493.095	C.3	4	GLU4	0.056	
49	  CG	2391.577	734.882	-2494.161	C.3	4	GLU4	0.014	
50	  CD	2390.151	735.379	-2494.018	C.2	4	GLU4	0.805	
51	 OE1	2389.424	734.981	-2493.087	O.co2	4	GLU4	-0.819	
52	 OE2	2389.762	736.208	-2494.866	O.co2	4	GLU4	-0.819	
53	   H	2393.288	732.182	-2491.559	 H	4	GLU4	0.294	
54	  HA	2393.745	732.989	-2494.256	 H	4	GLU4	0.111	
55	 2HB	2391.972	734.318	-2492.089	 H	4	GLU4	-0.017	
56	 3HB	2391.477	732.981	-2493.102	 H	4	GLU4	-0.017	
57	 2HG	2391.659	734.467	-2495.179	 H	4	GLU4	-0.043	
58	 3HG	2392.166	735.814	-2494.172	 H	4	GLU4	-0.043	
59	   N	2394.739	735.223	-2492.060	N.am	5	SER5	-0.416	
60	  CA	2395.609	736.394	-2492.001	C.3	5	SER5	-0.025	
61	   C	2396.968	736.088	-2492.586	C.2	5	SER5	0.597	
62	   O	2397.516	736.841	-2493.391	O.2	5	SER5	-0.568	
63	  CB	2395.720	736.926	-2490.551	C.3	5	SER5	0.212	
64	  OG	2396.451	736.046	-2489.690	O.3	5	SER5	-0.655	
65	   H	2394.322	734.851	-2491.219	 H	5	SER5	0.272	
66	  HA	2395.160	737.184	-2492.630	 H	5	SER5	0.084	
67	 2HB	2394.720	737.120	-2490.118	 H	5	SER5	0.035	
68	 3HB	2396.226	737.911	-2490.553	 H	5	SER5	0.035	
69	  HG	2395.962	735.222	-2489.639	 H	5	SER5	0.428	
70	   N	2397.572	735.004	-2492.232	N.am	6	ILE6	-0.416	
71	  CA	2398.885	734.709	-2492.798	C.3	6	ILE6	-0.060	
72	   C	2398.828	734.671	-2494.306	C.2	6	ILE6	0.597	
73	   O	2399.663	735.259	-2495.010	O.2	6	ILE6	-0.568	
74	  CB	2399.485	733.373	-2492.198	C.3	6	ILE6	0.130	
75	 CG1	2399.503	733.310	-2490.637	C.3	6	ILE6	-0.043	
76	 CG2	2400.926	733.070	-2492.713	C.3	6	ILE6	-0.320	
77	 CD1	2399.773	731.921	-2490.022	C.3	6	ILE6	-0.066	
78	   H	2397.143	734.370	-2491.573	 H	6	ILE6	0.272	
79	  HA	2399.560	735.543	-2492.530	 H	6	ILE6	0.087	
80	  HB	2398.826	732.547	-2492.542	 H	6	ILE6	0.019	
81	2HG1	2398.521	733.630	-2490.241	 H	6	ILE6	0.024	
82	3HG1	2400.219	734.052	-2490.232	 H	6	ILE6	0.024	
83	1HG2	2400.985	732.977	-2493.811	 H	6	ILE6	0.088	
84	2HG2	2401.648	733.852	-2492.410	 H	6	ILE6	0.088	
85	3HG2	2401.315	732.108	-2492.334	 H	6	ILE6	0.088	
86	1HD1	2399.044	731.167	-2490.377	 H	6	ILE6	0.019	
87	2HD1	2400.783	731.542	-2490.257	 H	6	ILE6	0.019	
88	3HD1	2399.696	731.951	-2488.919	 H	6	ILE6	0.019	
89	   N	2397.882	734.008	-2494.879	N.am	7	LEU7	-0.416	
90	  CA	2397.827	733.972	-2496.338	C.3	7	LEU7	-0.052	
91	   C	2397.755	735.367	-2496.911	C.2	7	LEU7	0.597	
92	   O	2398.476	735.729	-2497.853	O.2	7	LEU7	-0.568	
93	  CB	2396.624	733.112	-2496.818	C.3	7	LEU7	-0.110	
94	  CG	2396.551	731.633	-2496.352	C.3	7	LEU7	0.353	
95	 CD1	2395.361	730.927	-2497.017	C.3	7	LEU7	-0.412	
96	 CD2	2397.844	730.853	-2496.643	C.3	7	LEU7	-0.412	
97	   H	2397.190	733.521	-2494.328	 H	7	LEU7	0.272	
98	  HA	2398.769	733.532	-2496.712	 H	7	LEU7	0.092	
99	 2HB	2396.601	733.128	-2497.926	 H	7	LEU7	0.046	
100	 3HB	2395.684	733.615	-2496.514	 H	7	LEU7	0.046	
101	  HG	2396.381	731.625	-2495.255	 H	7	LEU7	-0.036	
102	1HD1	2394.404	731.437	-2496.795	 H	7	LEU7	0.100	
103	2HD1	2395.460	730.887	-2498.119	 H	7	LEU7	0.100	
104	3HD1	2395.253	729.886	-2496.661	 H	7	LEU7	0.100	
105	1HD2	2398.119	730.883	-2497.713	 H	7	LEU7	0.100	
106	2HD2	2398.698	731.264	-2496.072	 H	7	LEU7	0.100	
107	3HD2	2397.762	729.791	-2496.347	 H	7	LEU7	0.100	
108	   N	2396.918	736.209	-2496.405	N.am	8	ASP8	-0.516	
109	  CA	2396.849	737.558	-2496.959	C.3	8	ASP8	0.038	
110	   C	2398.196	738.237	-2496.902	C.2	8	ASP8	0.537	
111	   O	2398.669	738.841	-2497.877	O.2	8	ASP8	-0.582	
112	  CB	2395.771	738.398	-2496.218	C.3	8	ASP8	-0.030	
113	  CG	2395.553	739.818	-2496.759	C.2	8	ASP8	0.799	
114	 OD1	2395.617	740.017	-2497.990	O.co2	8	ASP8	-0.801	
115	 OD2	2395.362	740.745	-2495.945	O.co2	8	ASP8	-0.801	
116	   H	2396.321	735.938	-2495.637	 H	8	ASP8	0.294	
117	  HA	2396.566	737.479	-2498.026	 H	8	ASP8	0.088	
118	 2HB	2396.028	738.482	-2495.146	 H	8	ASP8	-0.012	
119	 3HB	2394.792	737.893	-2496.251	 H	8	ASP8	-0.012	
120	   N	2398.876	738.187	-2495.807	N.am	9	GLU9	-0.516	
121	  CA	2400.179	738.844	-2495.752	C.3	9	GLU9	0.040	
122	   C	2401.096	738.316	-2496.828	C.2	9	GLU9	0.537	
123	   O	2401.760	739.069	-2497.554	O.2	9	GLU9	-0.582	
124	  CB	2400.812	738.637	-2494.347	C.3	9	GLU9	0.056	
125	  CG	2402.196	739.329	-2494.118	C.3	9	GLU9	0.014	
126	  CD	2402.897	739.116	-2492.790	C.2	9	GLU9	0.805	
127	 OE1	2402.376	738.426	-2491.893	O.co2	9	GLU9	-0.819	
128	 OE2	2404.017	739.653	-2492.659	O.co2	9	GLU9	-0.819	
129	   H	2398.512	737.702	-2495.000	 H	9	GLU9	0.294	
130	  HA	2400.037	739.926	-2495.928	 H	9	GLU9	0.111	
131	 2HB	2400.925	737.552	-2494.143	 H	9	GLU9	-0.017	
132	 3HB	2400.116	738.991	-2493.563	 H	9	GLU9	-0.017	
133	 2HG	2402.124	740.419	-2494.259	 H	9	GLU9	-0.043	
134	 3HG	2402.942	738.983	-2494.852	 H	9	GLU9	-0.043	
135	   N	2401.192	737.040	-2496.997	N.am	10	HIS10	-0.416	
136	  CA	2402.080	736.528	-2498.038	C.3	10	HIS10	-0.058	
137	   C	2401.713	737.092	-2499.389	C.2	10	HIS10	0.597	
138	   O	2402.565	737.556	-2500.161	O.2	10	HIS10	-0.568	
139	  CB	2401.915	734.999	-2498.032	C.3	10	HIS10	-0.007	
140	  CG	2403.200	734.288	-2497.724	C.2	10	HIS10	0.187	
141	 CD2	2403.582	733.954	-2496.431	C.2	10	HIS10	-0.221	
142	 ND1	2404.152	733.882	-2498.656	N.2	10	HIS10	-0.543	
143	 CE1	2405.058	733.324	-2497.833	C.2	10	HIS10	0.163	
144	 NE2	2404.796	733.321	-2496.498	N.pl3	10	HIS10	-0.280	
145	   H	2400.662	736.405	-2496.418	 H	10	HIS10	0.272	
146	  HA	2403.099	736.885	-2497.813	 H	10	HIS10	0.136	
147	 2HB	2401.549	734.632	-2499.011	 H	10	HIS10	0.037	
148	 3HB	2401.159	734.663	-2497.291	 H	10	HIS10	0.037	
149	 2HD	2402.997	734.170	-2495.542	 H	10	HIS10	0.186	
150	 1HE	2405.949	732.902	-2498.281	 H	10	HIS10	0.144	
151	 2HE	2405.363	732.945	-2495.725	 H	10	HIS10	0.334	
152	   N	2400.475	737.092	-2499.752	N.am	11	VAL11	-0.416	
153	  CA	2400.120	737.637	-2501.059	C.3	11	VAL11	-0.087	
154	   C	2400.585	739.067	-2501.192	C.2	11	VAL11	0.597	
155	   O	2401.186	739.472	-2502.195	O.2	11	VAL11	-0.568	
156	  CB	2398.558	737.531	-2501.278	C.3	11	VAL11	0.299	
157	 CG1	2397.990	738.235	-2502.541	C.3	11	VAL11	-0.319	
158	 CG2	2398.033	736.077	-2501.350	C.3	11	VAL11	-0.319	
159	   H	2399.762	736.720	-2499.141	 H	11	VAL11	0.272	
160	  HA	2400.639	737.054	-2501.841	 H	11	VAL11	0.097	
161	  HB	2398.071	738.012	-2500.403	 H	11	VAL11	-0.030	
162	1HG1	2398.428	737.842	-2503.478	 H	11	VAL11	0.079	
163	2HG1	2396.891	738.128	-2502.623	 H	11	VAL11	0.079	
164	3HG1	2398.169	739.327	-2502.532	 H	11	VAL11	0.079	
165	1HG2	2398.323	735.491	-2500.459	 H	11	VAL11	0.079	
166	2HG2	2396.927	736.041	-2501.393	 H	11	VAL11	0.079	
167	3HG2	2398.415	735.536	-2502.236	 H	11	VAL11	0.079	
168	   N	2400.349	739.894	-2500.230	N.am	12	GLN12	-0.416	
169	  CA	2400.798	741.276	-2500.358	C.3	12	GLN12	-0.003	
170	   C	2402.288	741.343	-2500.596	C.2	12	GLN12	0.597	
171	   O	2402.775	742.050	-2501.475	O.2	12	GLN12	-0.568	
172	  CB	2400.407	742.045	-2499.076	C.3	12	GLN12	-0.004	
173	  CG	2400.769	743.566	-2499.045	C.3	12	GLN12	-0.064	
174	  CD	2400.467	744.381	-2497.781	C.2	12	GLN12	0.695	
175	 NE2	2399.900	743.805	-2496.752	N.pl3	12	GLN12	-0.941	
176	 OE1	2400.770	745.562	-2497.704	O.2	12	GLN12	-0.609	
177	   H	2399.860	739.588	-2499.401	 H	12	GLN12	0.272	
178	  HA	2400.298	741.732	-2501.233	 H	12	GLN12	0.085	
179	 2HB	2400.884	741.545	-2498.206	 H	12	GLN12	0.017	
180	 3HB	2399.317	741.938	-2498.912	 H	12	GLN12	0.017	
181	 2HG	2400.292	744.087	-2499.896	 H	12	GLN12	0.035	
182	 3HG	2401.852	743.708	-2499.211	 H	12	GLN12	0.035	
183	1HE2	2399.794	744.400	-2495.928	 H	12	GLN12	0.425	
184	2HE2	2399.736	742.802	-2496.854	 H	12	GLN12	0.425	
185	   N	2403.072	740.636	-2499.855	N.am	13	ARG13	-0.348	
186	  CA	2404.512	740.701	-2500.086	C.3	13	ARG13	-0.264	
187	   C	2404.848	740.329	-2501.511	C.2	13	ARG13	0.734	
188	   O	2405.617	741.000	-2502.196	O.2	13	ARG13	-0.589	
189	  CB	2405.226	739.763	-2499.072	C.3	13	ARG13	-0.001	
190	  CG	2406.771	739.916	-2498.991	C.3	13	ARG13	0.039	
191	  CD	2407.398	738.928	-2497.993	C.3	13	ARG13	0.049	
192	  NE	2408.875	739.135	-2497.943	N.pl3	13	ARG13	-0.530	
193	  CZ	2409.723	738.444	-2497.188	C.cat	13	ARG13	0.808	
194	 NH1	2409.358	737.480	-2496.389	N.pl3	13	ARG13	-0.863	
195	 NH2	2410.983	738.743	-2497.245	N.pl3	13	ARG13	-0.863	
196	   H	2402.696	740.047	-2499.126	 H	13	ARG13	0.275	
197	  HA	2404.837	741.747	-2499.929	 H	13	ARG13	0.156	
198	 2HB	2404.959	738.712	-2499.310	 H	13	ARG13	0.033	
199	 3HB	2404.801	739.930	-2498.061	 H	13	ARG13	0.033	
200	 2HG	2407.019	740.961	-2498.713	 H	13	ARG13	0.029	
201	 3HG	2407.221	739.759	-2499.993	 H	13	ARG13	0.029	
202	 2HD	2407.153	737.888	-2498.301	 H	13	ARG13	0.069	
203	 3HD	2406.942	739.075	-2496.990	 H	13	ARG13	0.069	
204	  HE	2409.326	739.857	-2498.515	 H	13	ARG13	0.346	
205	1HH1	2408.353	737.294	-2496.392	 H	13	ARG13	0.448	
206	2HH1	2410.071	736.997	-2495.841	 H	13	ARG13	0.448	
207	1HH2	2411.250	739.500	-2497.877	 H	13	ARG13	0.448	
208	2HH2	2411.618	738.201	-2496.656	 H	13	ARG13	0.448	
209	   N	2404.312	739.274	-2502.025	N.am	14	VAL14	-0.416	
210	  CA	2404.636	738.914	-2503.402	C.3	14	VAL14	-0.087	
211	   C	2404.306	740.044	-2504.348	C.2	14	VAL14	0.597	
212	   O	2405.099	740.425	-2505.218	O.2	14	VAL14	-0.568	
213	  CB	2403.863	737.597	-2503.808	C.3	14	VAL14	0.299	
214	 CG1	2403.952	737.178	-2505.302	C.3	14	VAL14	-0.319	
215	 CG2	2404.295	736.345	-2503.007	C.3	14	VAL14	-0.319	
216	   H	2403.677	738.706	-2501.482	 H	14	VAL14	0.272	
217	  HA	2405.724	738.737	-2503.477	 H	14	VAL14	0.097	
218	  HB	2402.787	737.769	-2503.592	 H	14	VAL14	-0.030	
219	1HG1	2404.993	737.000	-2505.630	 H	14	VAL14	0.079	
220	2HG1	2403.378	736.254	-2505.513	 H	14	VAL14	0.079	
221	3HG1	2403.523	737.940	-2505.980	 H	14	VAL14	0.079	
222	1HG2	2404.208	736.504	-2501.917	 H	14	VAL14	0.079	
223	2HG2	2403.658	735.469	-2503.239	 H	14	VAL14	0.079	
224	3HG2	2405.342	736.054	-2503.213	 H	14	VAL14	0.079	
225	   N	2403.162	740.630	-2504.246	N.am	15	PHE15	-0.416	
226	  CA	2402.842	741.722	-2505.160	C.3	15	PHE15	-0.002	
227	   C	2403.873	742.822	-2505.073	C.2	15	PHE15	0.597	
228	   O	2404.385	743.341	-2506.104	O.2	15	PHE15	-0.568	
229	  CB	2401.443	742.316	-2504.815	C.3	15	PHE15	-0.034	
230	  CG	2400.256	741.340	-2504.851	C.2	15	PHE15	0.012	
231	 CD1	2399.924	740.614	-2503.701	C.2	15	PHE15	-0.126	
232	 CD2	2399.545	741.121	-2506.033	C.2	15	PHE15	-0.126	
233	 CE1	2398.906	739.668	-2503.739	C.2	15	PHE15	-0.170	
234	 CE2	2398.518	740.181	-2506.067	C.2	15	PHE15	-0.170	
235	  CZ	2398.201	739.453	-2504.921	C.2	15	PHE15	-0.107	
236	   H	2402.497	740.337	-2503.545	 H	15	PHE15	0.272	
237	  HA	2402.842	741.334	-2506.197	 H	15	PHE15	0.098	
238	 2HB	2401.222	743.159	-2505.500	 H	15	PHE15	0.030	
239	 3HB	2401.479	742.798	-2503.816	 H	15	PHE15	0.030	
240	 1HD	2400.488	740.753	-2502.788	 H	15	PHE15	0.133	
241	 2HD	2399.800	741.666	-2506.931	 H	15	PHE15	0.133	
242	 1HE	2398.677	739.091	-2502.855	 H	15	PHE15	0.143	
243	 2HE	2397.976	740.009	-2506.986	 H	15	PHE15	0.143	
244	  HZ	2397.415	738.714	-2504.950	 H	15	PHE15	0.130	
245	   N	2404.242	743.243	-2503.911	N.am	16	ARG16	-0.348	
246	  CA	2405.239	744.307	-2503.828	C.3	16	ARG16	-0.264	
247	   C	2406.509	743.912	-2504.544	C.2	16	ARG16	0.734	
248	   O	2406.623	742.836	-2505.125	O.2	16	ARG16	-0.589	
249	  CB	2405.509	744.625	-2502.329	C.3	16	ARG16	-0.001	
250	  CG	2406.335	745.913	-2502.058	C.3	16	ARG16	0.039	
251	  CD	2406.585	746.134	-2500.557	C.3	16	ARG16	0.049	
252	  NE	2407.362	747.392	-2500.356	N.pl3	16	ARG16	-0.530	
253	  CZ	2407.754	747.875	-2499.181	C.cat	16	ARG16	0.808	
254	 NH1	2407.506	747.292	-2498.042	N.pl3	16	ARG16	-0.863	
255	 NH2	2408.418	748.987	-2499.164	N.pl3	16	ARG16	-0.863	
256	   H	2403.847	742.843	-2503.071	 H	16	ARG16	0.275	
257	  HA	2404.831	745.199	-2504.338	 H	16	ARG16	0.156	
258	 2HB	2406.005	743.749	-2501.863	 H	16	ARG16	0.033	
259	 3HB	2404.540	744.707	-2501.795	 H	16	ARG16	0.033	
260	 2HG	2405.805	746.784	-2502.495	 H	16	ARG16	0.029	
261	 3HG	2407.308	745.860	-2502.587	 H	16	ARG16	0.029	
262	 2HD	2407.133	745.259	-2500.143	 H	16	ARG16	0.069	
263	 3HD	2405.612	746.178	-2500.021	 H	16	ARG16	0.069	
264	  HE	2407.641	747.972	-2501.154	 H	16	ARG16	0.346	
265	1HH1	2406.979	746.419	-2498.126	 H	16	ARG16	0.448	
266	2HH1	2407.841	747.728	-2497.181	 H	16	ARG16	0.448	
267	1HH2	2408.604	749.430	-2500.065	 H	16	ARG16	0.448	
268	2HH2	2408.709	749.343	-2498.251	 H	16	ARG16	0.448	
@<TRIPOS>BOND
1 1 2 1
2 1 10 1
3 2 3 1
4 2 5 1
5 2 11 1
6 3 4 2
7 3 16 1
8 5 6 1
9 6 7 1
10 7 8 2
11 7 9 1
12 5 12 1
13 5 13 1
14 6 14 1
15 6 15 1
16 16 17 1
17 16 24 1
18 17 18 1
19 17 20 1
20 17 25 1
21 18 19 2
22 18 30 1
23 20 21 1
24 21 22 1
25 21 23 2
26 20 26 1
27 20 27 1
28 22 28 1
29 22 29 1
30 30 31 1
31 30 36 1
32 31 32 1
33 31 34 1
34 31 37 1
35 32 33 2
36 32 44 1
37 34 35 1
38 35 36 1
39 34 38 1
40 34 39 1
41 35 40 1
42 35 41 1
43 36 42 1
44 36 43 1
45 44 45 1
46 44 53 1
47 45 46 1
48 45 48 1
49 45 54 1
50 46 47 2
51 46 59 1
52 48 49 1
53 49 50 1
54 50 51 2
55 50 52 1
56 48 55 1
57 48 56 1
58 49 57 1
59 49 58 1
60 59 60 1
61 59 65 1
62 60 61 1
63 60 63 1
64 60 66 1
65 61 62 2
66 61 70 1
67 63 64 1
68 63 67 1
69 63 68 1
70 64 69 1
71 70 71 1
72 70 78 1
73 71 72 1
74 71 74 1
75 71 79 1
76 72 73 2
77 72 89 1
78 74 75 1
79 74 76 1
80 75 77 1
81 74 80 1
82 75 81 1
83 75 82 1
84 76 83 1
85 76 84 1
86 76 85 1
87 77 86 1
88 77 87 1
89 77 88 1
90 89 90 1
91 89 97 1
92 90 91 1
93 90 93 1
94 90 98 1
95 91 92 2
96 91 108 1
97 93 94 1
98 94 95 1
99 94 96 1
100 93 99 1
101 93 100 1
102 94 101 1
103 95 102 1
104 95 103 1
105 95 104 1
106 96 105 1
107 96 106 1
108 96 107 1
109 108 109 1
110 108 116 1
111 109 110 1
112 109 112 1
113 109 117 1
114 110 111 2
115 110 120 1
116 112 113 1
117 113 114 2
118 113 115 1
119 112 118 1
120 112 119 1
121 120 121 1
122 120 129 1
123 121 122 1
124 121 124 1
125 121 130 1
126 122 123 2
127 122 135 1
128 124 125 1
129 125 126 1
130 126 127 2
131 126 128 1
132 124 131 1
133 124 132 1
134 125 133 1
135 125 134 1
136 135 136 1
137 135 145 1
138 136 137 1
139 136 139 1
140 136 146 1
141 137 138 2
142 137 152 1
143 139 140 1
144 140 141 2
145 141 144 1
146 140 142 1
147 142 143 2
148 143 144 1
149 139 147 1
150 139 148 1
151 141 149 1
152 143 150 1
153 144 151 1
154 152 153 1
155 152 159 1
156 153 154 1
157 153 156 1
158 153 160 1
159 154 155 2
160 154 168 1
161 156 157 1
162 156 158 1
163 156 161 1
164 157 162 1
165 157 163 1
166 157 164 1
167 158 165 1
168 158 166 1
169 158 167 1
170 168 169 1
171 168 177 1
172 169 170 1
173 169 172 1
174 169 178 1
175 170 171 2
176 170 185 1
177 172 173 1
178 173 174 1
179 174 175 1
180 174 176 2
181 172 179 1
182 172 180 1
183 173 181 1
184 173 182 1
185 175 183 1
186 175 184 1
187 185 186 1
188 185 196 1
189 186 187 1
190 186 189 1
191 186 197 1
192 187 188 2
193 187 209 1
194 189 190 1
195 190 191 1
196 191 192 1
197 192 193 1
198 193 194 2
199 193 195 1
200 189 198 1
201 189 199 1
202 190 200 1
203 190 201 1
204 191 202 1
205 191 203 1
206 192 204 1
207 194 205 1
208 194 206 1
209 195 207 1
210 195 208 1
211 209 210 1
212 209 216 1
213 210 211 1
214 210 213 1
215 210 217 1
216 211 212 2
217 211 225 1
218 213 214 1
219 213 215 1
220 213 218 1
221 214 219 1
222 214 220 1
223 214 221 1
224 215 222 1
225 215 223 1
226 215 224 1
227 225 226 1
228 225 236 1
229 226 227 1
230 226 229 1
231 226 237 1
232 227 228 2
233 227 245 1
234 229 230 1
235 230 231 2
236 230 232 1
237 232 234 2
238 231 233 1
239 234 235 1
240 233 235 2
241 229 238 1
242 229 239 1
243 231 240 1
244 232 241 1
245 233 242 1
246 234 243 1
247 235 244 1
248 245 246 1
249 245 256 1
250 246 247 1
251 246 249 1
252 246 257 1
253 247 248 2
254 249 250 1
255 250 251 1
256 251 252 1
257 252 253 1
258 253 254 2
259 253 255 1
260 249 258 1
261 249 259 1
262 250 260 1
263 250 261 1
264 251 262 1
265 251 263 1
266 252 264 1
267 254 265 1
268 254 266 1
269 255 267 1
270 255 268 1
@<TRIPOS>SUBSTRUCTURE
1	GLU1	1	RESIDUE	1 ****	GLU
2	ASN2	16	RESIDUE	1 ****	ASN
3	PRO3	30	RESIDUE	1 ****	PRO
4	GLU4	44	RESIDUE	1 ****	GLU
5	SER5	59	RESIDUE	1 ****	SER
6	ILE6	70	RESIDUE	1 ****	ILE
7	LEU7	89	RESIDUE	1 ****	LEU
8	ASP8	108	RESIDUE	1 ****	ASP
9	GLU9	120	RESIDUE	1 ****	GLU
10	HIS10	135	RESIDUE	1 ****	HIS
11	VAL11	152	RESIDUE	1 ****	VAL
12	GLN12	168	RESIDUE	1 ****	GLN
13	ARG13	185	RESIDUE	1 ****	ARG
14	VAL14	209	RESIDUE	1 ****	VAL
15	PHE15	225	RESIDUE	1 ****	PHE
16	ARG16	245	RESIDUE	1 ****	ARG
