@<TRIPOS>MOLECULE
9-15
264 265 16              
SMALL
USER_CHARGES
@<TRIPOS>ATOM
1	   N	1468.001	432.005	-1484.201	N.3	1	GLU1	-0.516	
2	  CA	1468.560	433.354	-1484.201	C.3	1	GLU1	0.040	
3	   C	1470.069	433.314	-1484.201	C.2	1	GLU1	0.537	
4	   O	1470.745	434.013	-1484.970	O.2	1	GLU1	-0.582	
5	  CB	1468.037	434.139	-1482.964	C.3	1	GLU1	0.056	
6	  CG	1468.512	435.624	-1482.853	C.3	1	GLU1	0.014	
7	  CD	1468.088	436.428	-1481.638	C.2	1	GLU1	0.805	
8	 OE1	1467.360	435.926	-1480.760	O.co2	1	GLU1	-0.819	
9	 OE2	1468.518	437.598	-1481.566	O.co2	1	GLU1	-0.819	
10	   H	1468.628	431.126	-1484.201	 H	1	GLU1	0.294	
11	  HA	1468.234	433.872	-1485.121	 H	1	GLU1	0.111	
12	 2HB	1468.326	433.608	-1482.034	 H	1	GLU1	-0.017	
13	 3HB	1466.930	434.129	-1482.951	 H	1	GLU1	-0.017	
14	 2HG	1468.202	436.209	-1483.734	 H	1	GLU1	-0.043	
15	 3HG	1469.612	435.691	-1482.824	 H	1	GLU1	-0.043	
16	   N	1470.674	432.528	-1483.376	N.am	2	ASN2	-0.416	
17	  CA	1472.133	432.489	-1483.376	C.3	2	ASN2	0.014	
18	   C	1472.664	432.134	-1484.745	C.2	2	ASN2	0.597	
19	   O	1473.579	432.764	-1485.274	O.2	2	ASN2	-0.568	
20	  CB	1472.625	431.466	-1482.312	C.3	2	ASN2	-0.204	
21	  CG	1472.162	431.690	-1480.869	C.2	2	ASN2	0.713	
22	 ND2	1472.756	432.605	-1480.150	N.pl3	2	ASN2	-0.919	
23	 OD1	1471.241	431.056	-1480.374	O.2	2	ASN2	-0.593	
24	   H	1470.146	431.948	-1482.740	 H	2	ASN2	0.272	
25	  HA	1472.510	433.500	-1483.131	 H	2	ASN2	0.105	
26	 2HB	1473.729	431.407	-1482.316	 H	2	ASN2	0.080	
27	 3HB	1472.296	430.448	-1482.598	 H	2	ASN2	0.080	
28	1HD2	1472.276	432.778	-1479.264	 H	2	ASN2	0.420	
29	2HD2	1473.458	433.177	-1480.620	 H	2	ASN2	0.420	
30	   N	1472.143	431.139	-1485.379	N.am	3	PRO3	-0.255	
31	  CA	1472.594	430.730	-1486.701	C.3	3	PRO3	-0.027	
32	   C	1472.196	431.753	-1487.777	C.2	3	PRO3	0.590	
33	   O	1473.019	432.136	-1488.609	O.2	3	PRO3	-0.575	
34	  CB	1471.890	429.375	-1486.870	C.3	3	PRO3	-0.007	
35	  CG	1470.607	429.527	-1486.040	C.3	3	PRO3	0.019	
36	  CD	1471.065	430.346	-1484.830	C.3	3	PRO3	0.019	
37	  HA	1473.680	430.610	-1486.714	 H	3	PRO3	0.064	
38	 2HB	1472.513	428.594	-1486.429	 H	3	PRO3	0.025	
39	 3HB	1471.692	429.126	-1487.915	 H	3	PRO3	0.025	
40	 2HG	1470.180	428.565	-1485.749	 H	3	PRO3	0.021	
41	 3HG	1469.869	430.098	-1486.607	 H	3	PRO3	0.021	
42	 2HD	1471.454	429.696	-1484.042	 H	3	PRO3	0.039	
43	 3HD	1470.268	430.982	-1484.437	 H	3	PRO3	0.039	
44	   N	1470.991	432.213	-1487.810	N.am	4	GLU4	-0.516	
45	  CA	1470.632	433.184	-1488.839	C.3	4	GLU4	0.040	
46	   C	1471.531	434.395	-1488.778	C.2	4	GLU4	0.537	
47	   O	1472.057	434.875	-1489.793	O.2	4	GLU4	-0.582	
48	  CB	1469.143	433.603	-1488.669	C.3	4	GLU4	0.056	
49	  CG	1468.595	434.606	-1489.734	C.3	4	GLU4	0.014	
50	  CD	1467.168	435.103	-1489.590	C.2	4	GLU4	0.805	
51	 OE1	1466.442	434.704	-1488.659	O.co2	4	GLU4	-0.819	
52	 OE2	1466.778	435.932	-1490.439	O.co2	4	GLU4	-0.819	
53	   H	1470.307	431.906	-1487.133	 H	4	GLU4	0.294	
54	  HA	1470.763	432.714	-1489.830	 H	4	GLU4	0.111	
55	 2HB	1468.991	434.043	-1487.662	 H	4	GLU4	-0.017	
56	 3HB	1468.495	432.705	-1488.675	 H	4	GLU4	-0.017	
57	 2HG	1468.676	434.192	-1490.752	 H	4	GLU4	-0.043	
58	 3HG	1469.183	435.539	-1489.745	 H	4	GLU4	-0.043	
59	   N	1471.758	434.948	-1487.635	N.am	5	SER5	-0.416	
60	  CA	1472.627	436.119	-1487.577	C.3	5	SER5	-0.025	
61	   C	1473.986	435.814	-1488.162	C.2	5	SER5	0.597	
62	   O	1474.533	436.568	-1488.967	O.2	5	SER5	-0.568	
63	  CB	1472.739	436.651	-1486.126	C.3	5	SER5	0.212	
64	  OG	1473.471	435.772	-1485.265	O.3	5	SER5	-0.655	
65	   H	1471.341	434.576	-1486.793	 H	5	SER5	0.272	
66	  HA	1472.178	436.910	-1488.205	 H	5	SER5	0.084	
67	 2HB	1471.739	436.845	-1485.693	 H	5	SER5	0.035	
68	 3HB	1473.244	437.637	-1486.128	 H	5	SER5	0.035	
69	  HG	1472.982	434.947	-1485.214	 H	5	SER5	0.428	
70	   N	1474.591	434.731	-1487.808	N.am	6	ILE6	-0.416	
71	  CA	1475.904	434.436	-1488.375	C.3	6	ILE6	-0.060	
72	   C	1475.847	434.399	-1489.883	C.2	6	ILE6	0.597	
73	   O	1476.682	434.987	-1490.587	O.2	6	ILE6	-0.568	
74	  CB	1476.504	433.100	-1487.775	C.3	6	ILE6	0.130	
75	 CG1	1476.524	433.038	-1486.214	C.3	6	ILE6	-0.043	
76	 CG2	1477.945	432.799	-1488.290	C.3	6	ILE6	-0.320	
77	 CD1	1476.794	431.648	-1485.599	C.3	6	ILE6	-0.066	
78	   H	1474.163	434.096	-1487.149	 H	6	ILE6	0.272	
79	  HA	1476.578	435.271	-1488.107	 H	6	ILE6	0.087	
80	  HB	1475.846	432.274	-1488.119	 H	6	ILE6	0.019	
81	2HG1	1475.541	433.357	-1485.818	 H	6	ILE6	0.024	
82	3HG1	1477.239	433.780	-1485.809	 H	6	ILE6	0.024	
83	1HG2	1478.004	432.705	-1489.389	 H	6	ILE6	0.088	
84	2HG2	1478.667	433.581	-1487.988	 H	6	ILE6	0.088	
85	3HG2	1478.335	431.836	-1487.912	 H	6	ILE6	0.088	
86	1HD1	1476.066	430.894	-1485.954	 H	6	ILE6	0.019	
87	2HD1	1477.804	431.270	-1485.835	 H	6	ILE6	0.019	
88	3HD1	1476.718	431.678	-1484.497	 H	6	ILE6	0.019	
89	   N	1474.901	433.735	-1490.456	N.am	7	LEU7	-0.416	
90	  CA	1474.846	433.700	-1491.915	C.3	7	LEU7	-0.052	
91	   C	1474.773	435.095	-1492.487	C.2	7	LEU7	0.597	
92	   O	1475.494	435.458	-1493.429	O.2	7	LEU7	-0.568	
93	  CB	1473.643	432.839	-1492.395	C.3	7	LEU7	-0.110	
94	  CG	1473.570	431.360	-1491.929	C.3	7	LEU7	0.353	
95	 CD1	1472.380	430.654	-1492.594	C.3	7	LEU7	-0.412	
96	 CD2	1474.864	430.581	-1492.221	C.3	7	LEU7	-0.412	
97	   H	1474.209	433.248	-1489.905	 H	7	LEU7	0.272	
98	  HA	1475.788	433.260	-1492.289	 H	7	LEU7	0.092	
99	 2HB	1473.619	432.856	-1493.503	 H	7	LEU7	0.046	
100	 3HB	1472.703	433.342	-1492.091	 H	7	LEU7	0.046	
101	  HG	1473.400	431.352	-1490.832	 H	7	LEU7	-0.036	
102	1HD1	1471.423	431.163	-1492.372	 H	7	LEU7	0.100	
103	2HD1	1472.479	430.614	-1493.696	 H	7	LEU7	0.100	
104	3HD1	1472.273	429.613	-1492.239	 H	7	LEU7	0.100	
105	1HD2	1475.139	430.611	-1493.291	 H	7	LEU7	0.100	
106	2HD2	1475.717	430.992	-1491.649	 H	7	LEU7	0.100	
107	3HD2	1474.782	429.518	-1491.925	 H	7	LEU7	0.100	
108	   N	1473.936	435.935	-1491.980	N.am	8	ASP8	-0.516	
109	  CA	1473.866	437.285	-1492.533	C.3	8	ASP8	0.038	
110	   C	1475.212	437.965	-1492.476	C.2	8	ASP8	0.537	
111	   O	1475.685	438.570	-1493.450	O.2	8	ASP8	-0.582	
112	  CB	1472.787	438.124	-1491.791	C.3	8	ASP8	-0.030	
113	  CG	1472.568	439.545	-1492.331	C.2	8	ASP8	0.799	
114	 OD1	1472.632	439.744	-1493.562	O.co2	8	ASP8	-0.801	
115	 OD2	1472.376	440.470	-1491.516	O.co2	8	ASP8	-0.801	
116	   H	1473.338	435.664	-1491.213	 H	8	ASP8	0.294	
117	  HA	1473.583	437.208	-1493.600	 H	8	ASP8	0.088	
118	 2HB	1473.045	438.207	-1490.719	 H	8	ASP8	-0.012	
119	 3HB	1471.808	437.619	-1491.824	 H	8	ASP8	-0.012	
120	   N	1475.892	437.915	-1491.381	N.am	9	ASN9	-0.416	
121	  CA	1477.194	438.573	-1491.326	C.3	9	ASN9	0.014	
122	   C	1478.112	438.044	-1492.403	C.2	9	ASN9	0.597	
123	   O	1478.771	438.793	-1493.123	O.2	9	ASN9	-0.568	
124	  CB	1477.821	438.365	-1489.917	C.3	9	ASN9	-0.204	
125	  CG	1477.002	438.846	-1488.715	C.2	9	ASN9	0.713	
126	 ND2	1476.985	440.121	-1488.433	N.pl3	9	ASN9	-0.919	
127	 OD1	1476.347	438.079	-1488.024	O.2	9	ASN9	-0.593	
128	   H	1475.529	437.428	-1490.574	 H	9	ASN9	0.272	
129	  HA	1477.050	439.652	-1491.519	 H	9	ASN9	0.105	
130	 2HB	1478.820	438.837	-1489.866	 H	9	ASN9	0.080	
131	 3HB	1478.020	437.287	-1489.756	 H	9	ASN9	0.080	
132	1HD2	1476.293	440.353	-1487.715	 H	9	ASN9	0.420	
133	2HD2	1477.467	440.744	-1489.081	 H	9	ASN9	0.420	
134	   N	1478.208	436.769	-1492.572	N.am	10	HIS10	-0.416	
135	  CA	1479.096	436.257	-1493.613	C.3	10	HIS10	-0.058	
136	   C	1478.728	436.822	-1494.964	C.2	10	HIS10	0.597	
137	   O	1479.581	437.286	-1495.736	O.2	10	HIS10	-0.568	
138	  CB	1478.931	434.729	-1493.608	C.3	10	HIS10	-0.007	
139	  CG	1480.217	434.018	-1493.300	C.2	10	HIS10	0.187	
140	 CD2	1480.598	433.683	-1492.008	C.2	10	HIS10	-0.221	
141	 ND1	1481.168	433.612	-1494.233	N.2	10	HIS10	-0.543	
142	 CE1	1482.075	433.053	-1493.410	C.2	10	HIS10	0.163	
143	 NE2	1481.813	433.051	-1492.075	N.pl3	10	HIS10	-0.280	
144	   H	1477.678	436.134	-1491.993	 H	10	HIS10	0.272	
145	  HA	1480.115	436.615	-1493.388	 H	10	HIS10	0.136	
146	 2HB	1478.565	434.362	-1494.587	 H	10	HIS10	0.037	
147	 3HB	1478.176	434.392	-1492.867	 H	10	HIS10	0.037	
148	 2HD	1480.013	433.898	-1491.118	 H	10	HIS10	0.186	
149	 1HE	1482.966	432.632	-1493.857	 H	10	HIS10	0.144	
150	 2HE	1482.380	432.674	-1491.302	 H	10	HIS10	0.334	
151	   N	1477.490	436.821	-1495.326	N.am	11	VAL11	-0.416	
152	  CA	1477.135	437.367	-1496.633	C.3	11	VAL11	-0.087	
153	   C	1477.599	438.798	-1496.766	C.2	11	VAL11	0.597	
154	   O	1478.200	439.202	-1497.769	O.2	11	VAL11	-0.568	
155	  CB	1475.573	437.261	-1496.852	C.3	11	VAL11	0.299	
156	 CG1	1475.004	437.965	-1498.114	C.3	11	VAL11	-0.319	
157	 CG2	1475.048	435.807	-1496.924	C.3	11	VAL11	-0.319	
158	   H	1476.778	436.449	-1494.715	 H	11	VAL11	0.272	
159	  HA	1477.654	436.785	-1497.416	 H	11	VAL11	0.097	
160	  HB	1475.086	437.741	-1495.976	 H	11	VAL11	-0.030	
161	1HG1	1475.442	437.573	-1499.052	 H	11	VAL11	0.079	
162	2HG1	1473.905	437.858	-1498.196	 H	11	VAL11	0.079	
163	3HG1	1475.183	439.057	-1498.105	 H	11	VAL11	0.079	
164	1HG2	1475.339	435.220	-1496.034	 H	11	VAL11	0.079	
165	2HG2	1473.942	435.770	-1496.967	 H	11	VAL11	0.079	
166	3HG2	1475.430	435.266	-1497.811	 H	11	VAL11	0.079	
167	   N	1477.363	439.624	-1495.804	N.am	12	GLN12	-0.416	
168	  CA	1477.812	441.007	-1495.932	C.3	12	GLN12	-0.003	
169	   C	1479.301	441.074	-1496.170	C.2	12	GLN12	0.597	
170	   O	1479.788	441.781	-1497.049	O.2	12	GLN12	-0.568	
171	  CB	1477.422	441.774	-1494.649	C.3	12	GLN12	-0.004	
172	  CG	1477.782	443.296	-1494.618	C.3	12	GLN12	-0.064	
173	  CD	1477.480	444.110	-1493.354	C.2	12	GLN12	0.695	
174	 NE2	1476.913	443.534	-1492.324	N.pl3	12	GLN12	-0.941	
175	 OE1	1477.782	445.291	-1493.277	O.2	12	GLN12	-0.609	
176	   H	1476.874	439.318	-1494.974	 H	12	GLN12	0.272	
177	  HA	1477.312	441.463	-1496.807	 H	12	GLN12	0.085	
178	 2HB	1477.898	441.274	-1493.780	 H	12	GLN12	0.017	
179	 3HB	1476.331	441.667	-1494.485	 H	12	GLN12	0.017	
180	 2HG	1477.304	443.817	-1495.469	 H	12	GLN12	0.035	
181	 3HG	1478.865	443.438	-1494.784	 H	12	GLN12	0.035	
182	1HE2	1476.807	444.129	-1491.501	 H	12	GLN12	0.425	
183	2HE2	1476.750	442.531	-1492.428	 H	12	GLN12	0.425	
184	   N	1480.086	440.367	-1495.429	N.am	13	ARG13	-0.348	
185	  CA	1481.526	440.432	-1495.661	C.3	13	ARG13	-0.264	
186	   C	1481.862	440.060	-1497.086	C.2	13	ARG13	0.734	
187	   O	1482.630	440.731	-1497.771	O.2	13	ARG13	-0.589	
188	  CB	1482.240	439.494	-1494.647	C.3	13	ARG13	-0.001	
189	  CG	1483.785	439.647	-1494.567	C.3	13	ARG13	0.039	
190	  CD	1484.413	438.659	-1493.569	C.3	13	ARG13	0.049	
191	  NE	1485.890	438.866	-1493.519	N.pl3	13	ARG13	-0.530	
192	  CZ	1486.738	438.175	-1492.764	C.cat	13	ARG13	0.808	
193	 NH1	1486.373	437.211	-1491.966	N.pl3	13	ARG13	-0.863	
194	 NH2	1487.998	438.474	-1492.822	N.pl3	13	ARG13	-0.863	
195	   H	1479.710	439.777	-1494.700	 H	13	ARG13	0.275	
196	  HA	1481.851	441.478	-1495.503	 H	13	ARG13	0.156	
197	 2HB	1481.974	438.443	-1494.885	 H	13	ARG13	0.033	
198	 3HB	1481.816	439.661	-1493.636	 H	13	ARG13	0.033	
199	 2HG	1484.034	440.691	-1494.288	 H	13	ARG13	0.029	
200	 3HG	1484.235	439.490	-1495.568	 H	13	ARG13	0.029	
201	 2HD	1484.168	437.619	-1493.877	 H	13	ARG13	0.069	
202	 3HD	1483.957	438.805	-1492.566	 H	13	ARG13	0.069	
203	  HE	1486.341	439.588	-1494.090	 H	13	ARG13	0.346	
204	1HH1	1485.368	437.025	-1491.969	 H	13	ARG13	0.448	
205	2HH1	1487.087	436.728	-1491.418	 H	13	ARG13	0.448	
206	1HH2	1488.265	439.231	-1493.453	 H	13	ARG13	0.448	
207	2HH2	1488.633	437.932	-1492.233	 H	13	ARG13	0.448	
208	   N	1481.325	439.006	-1497.599	N.am	14	VAL14	-0.416	
209	  CA	1481.649	438.646	-1498.977	C.3	14	VAL14	-0.087	
210	   C	1481.318	439.776	-1499.923	C.2	14	VAL14	0.597	
211	   O	1482.111	440.157	-1500.793	O.2	14	VAL14	-0.568	
212	  CB	1480.876	437.329	-1499.383	C.3	14	VAL14	0.299	
213	 CG1	1480.964	436.910	-1500.877	C.3	14	VAL14	-0.319	
214	 CG2	1481.308	436.077	-1498.583	C.3	14	VAL14	-0.319	
215	   H	1480.690	438.437	-1497.057	 H	14	VAL14	0.272	
216	  HA	1482.737	438.469	-1499.053	 H	14	VAL14	0.097	
217	  HB	1479.800	437.500	-1499.166	 H	14	VAL14	-0.030	
218	1HG1	1482.005	436.733	-1501.206	 H	14	VAL14	0.079	
219	2HG1	1480.391	435.987	-1501.089	 H	14	VAL14	0.079	
220	3HG1	1480.534	437.672	-1501.555	 H	14	VAL14	0.079	
221	1HG2	1481.222	436.236	-1497.492	 H	14	VAL14	0.079	
222	2HG2	1480.672	435.200	-1498.814	 H	14	VAL14	0.079	
223	3HG2	1482.356	435.787	-1498.789	 H	14	VAL14	0.079	
224	   N	1480.174	440.362	-1499.820	N.am	15	MET15	-0.416	
225	  CA	1479.853	441.454	-1500.734	C.3	15	MET15	-0.024	
226	   C	1480.884	442.554	-1500.647	C.2	15	MET15	0.597	
227	   O	1481.386	443.064	-1501.660	O.2	15	MET15	-0.568	
228	  CB	1478.432	442.000	-1500.425	C.3	15	MET15	0.034	
229	  CG	1477.269	441.003	-1500.615	C.3	15	MET15	0.002	
230	  SD	1475.696	441.869	-1500.500	S.3	15	MET15	-0.274	
231	  CE	1474.614	440.440	-1500.363	C.3	15	MET15	-0.054	
232	   H	1479.509	440.069	-1499.118	 H	15	MET15	0.272	
233	  HA	1479.878	441.067	-1501.770	 H	15	MET15	0.088	
234	 2HB	1478.230	442.879	-1501.067	 H	15	MET15	0.024	
235	 3HB	1478.397	442.393	-1499.388	 H	15	MET15	0.024	
236	 2HG	1477.313	440.217	-1499.838	 H	15	MET15	0.044	
237	 3HG	1477.332	440.487	-1501.591	 H	15	MET15	0.044	
238	 1HE	1474.757	439.751	-1501.215	 H	15	MET15	0.068	
239	 2HE	1474.824	439.887	-1499.430	 H	15	MET15	0.068	
240	 3HE	1473.557	440.755	-1500.345	 H	15	MET15	0.068	
241	   N	1481.253	442.975	-1499.485	N.am	16	ARG16	-0.348	
242	  CA	1482.250	444.039	-1499.402	C.3	16	ARG16	-0.264	
243	   C	1483.520	443.645	-1500.119	C.2	16	ARG16	0.734	
244	   O	1483.633	442.569	-1500.701	O.2	16	ARG16	-0.589	
245	  CB	1482.520	444.357	-1497.904	C.3	16	ARG16	-0.001	
246	  CG	1483.346	445.646	-1497.632	C.3	16	ARG16	0.039	
247	  CD	1483.596	445.865	-1496.131	C.3	16	ARG16	0.049	
248	  NE	1484.373	447.124	-1495.931	N.pl3	16	ARG16	-0.530	
249	  CZ	1484.765	447.606	-1494.756	C.cat	16	ARG16	0.808	
250	 NH1	1484.518	447.022	-1493.617	N.pl3	16	ARG16	-0.863	
251	 NH2	1485.429	448.719	-1494.738	N.pl3	16	ARG16	-0.863	
252	   H	1480.859	442.575	-1498.646	 H	16	ARG16	0.275	
253	  HA	1481.841	444.931	-1499.912	 H	16	ARG16	0.156	
254	 2HB	1483.017	443.481	-1497.438	 H	16	ARG16	0.033	
255	 3HB	1481.552	444.438	-1497.370	 H	16	ARG16	0.033	
256	 2HG	1482.815	446.517	-1498.069	 H	16	ARG16	0.029	
257	 3HG	1484.319	445.592	-1498.162	 H	16	ARG16	0.029	
258	 2HD	1484.145	444.990	-1495.718	 H	16	ARG16	0.069	
259	 3HD	1482.624	445.908	-1495.595	 H	16	ARG16	0.069	
260	  HE	1484.651	447.705	-1496.729	 H	16	ARG16	0.346	
261	1HH1	1483.992	446.150	-1493.701	 H	16	ARG16	0.448	
262	2HH1	1484.853	447.458	-1492.756	 H	16	ARG16	0.448	
263	1HH2	1485.614	449.162	-1495.640	 H	16	ARG16	0.448	
264	2HH2	1485.720	449.074	-1493.826	 H	16	ARG16	0.448	
@<TRIPOS>BOND
1 1 2 1
2 1 10 1
3 2 3 1
4 2 5 1
5 2 11 1
6 3 4 2
7 3 16 1
8 5 6 1
9 6 7 1
10 7 8 2
11 7 9 1
12 5 12 1
13 5 13 1
14 6 14 1
15 6 15 1
16 16 17 1
17 16 24 1
18 17 18 1
19 17 20 1
20 17 25 1
21 18 19 2
22 18 30 1
23 20 21 1
24 21 22 1
25 21 23 2
26 20 26 1
27 20 27 1
28 22 28 1
29 22 29 1
30 30 31 1
31 30 36 1
32 31 32 1
33 31 34 1
34 31 37 1
35 32 33 2
36 32 44 1
37 34 35 1
38 35 36 1
39 34 38 1
40 34 39 1
41 35 40 1
42 35 41 1
43 36 42 1
44 36 43 1
45 44 45 1
46 44 53 1
47 45 46 1
48 45 48 1
49 45 54 1
50 46 47 2
51 46 59 1
52 48 49 1
53 49 50 1
54 50 51 2
55 50 52 1
56 48 55 1
57 48 56 1
58 49 57 1
59 49 58 1
60 59 60 1
61 59 65 1
62 60 61 1
63 60 63 1
64 60 66 1
65 61 62 2
66 61 70 1
67 63 64 1
68 63 67 1
69 63 68 1
70 64 69 1
71 70 71 1
72 70 78 1
73 71 72 1
74 71 74 1
75 71 79 1
76 72 73 2
77 72 89 1
78 74 75 1
79 74 76 1
80 75 77 1
81 74 80 1
82 75 81 1
83 75 82 1
84 76 83 1
85 76 84 1
86 76 85 1
87 77 86 1
88 77 87 1
89 77 88 1
90 89 90 1
91 89 97 1
92 90 91 1
93 90 93 1
94 90 98 1
95 91 92 2
96 91 108 1
97 93 94 1
98 94 95 1
99 94 96 1
100 93 99 1
101 93 100 1
102 94 101 1
103 95 102 1
104 95 103 1
105 95 104 1
106 96 105 1
107 96 106 1
108 96 107 1
109 108 109 1
110 108 116 1
111 109 110 1
112 109 112 1
113 109 117 1
114 110 111 2
115 110 120 1
116 112 113 1
117 113 114 2
118 113 115 1
119 112 118 1
120 112 119 1
121 120 121 1
122 120 128 1
123 121 122 1
124 121 124 1
125 121 129 1
126 122 123 2
127 122 134 1
128 124 125 1
129 125 126 1
130 125 127 2
131 124 130 1
132 124 131 1
133 126 132 1
134 126 133 1
135 134 135 1
136 134 144 1
137 135 136 1
138 135 138 1
139 135 145 1
140 136 137 2
141 136 151 1
142 138 139 1
143 139 140 2
144 140 143 1
145 139 141 1
146 141 142 2
147 142 143 1
148 138 146 1
149 138 147 1
150 140 148 1
151 142 149 1
152 143 150 1
153 151 152 1
154 151 158 1
155 152 153 1
156 152 155 1
157 152 159 1
158 153 154 2
159 153 167 1
160 155 156 1
161 155 157 1
162 155 160 1
163 156 161 1
164 156 162 1
165 156 163 1
166 157 164 1
167 157 165 1
168 157 166 1
169 167 168 1
170 167 176 1
171 168 169 1
172 168 171 1
173 168 177 1
174 169 170 2
175 169 184 1
176 171 172 1
177 172 173 1
178 173 174 1
179 173 175 2
180 171 178 1
181 171 179 1
182 172 180 1
183 172 181 1
184 174 182 1
185 174 183 1
186 184 185 1
187 184 195 1
188 185 186 1
189 185 188 1
190 185 196 1
191 186 187 2
192 186 208 1
193 188 189 1
194 189 190 1
195 190 191 1
196 191 192 1
197 192 193 2
198 192 194 1
199 188 197 1
200 188 198 1
201 189 199 1
202 189 200 1
203 190 201 1
204 190 202 1
205 191 203 1
206 193 204 1
207 193 205 1
208 194 206 1
209 194 207 1
210 208 209 1
211 208 215 1
212 209 210 1
213 209 212 1
214 209 216 1
215 210 211 2
216 210 224 1
217 212 213 1
218 212 214 1
219 212 217 1
220 213 218 1
221 213 219 1
222 213 220 1
223 214 221 1
224 214 222 1
225 214 223 1
226 224 225 1
227 224 232 1
228 225 226 1
229 225 228 1
230 225 233 1
231 226 227 2
232 226 241 1
233 228 229 1
234 229 230 1
235 230 231 1
236 228 234 1
237 228 235 1
238 229 236 1
239 229 237 1
240 231 238 1
241 231 239 1
242 231 240 1
243 241 242 1
244 241 252 1
245 242 243 1
246 242 245 1
247 242 253 1
248 243 244 2
249 245 246 1
250 246 247 1
251 247 248 1
252 248 249 1
253 249 250 2
254 249 251 1
255 245 254 1
256 245 255 1
257 246 256 1
258 246 257 1
259 247 258 1
260 247 259 1
261 248 260 1
262 250 261 1
263 250 262 1
264 251 263 1
265 251 264 1
@<TRIPOS>SUBSTRUCTURE
1	GLU1	1	RESIDUE	1 ****	GLU
2	ASN2	16	RESIDUE	1 ****	ASN
3	PRO3	30	RESIDUE	1 ****	PRO
4	GLU4	44	RESIDUE	1 ****	GLU
5	SER5	59	RESIDUE	1 ****	SER
6	ILE6	70	RESIDUE	1 ****	ILE
7	LEU7	89	RESIDUE	1 ****	LEU
8	ASP8	108	RESIDUE	1 ****	ASP
9	ASN9	120	RESIDUE	1 ****	ASN
10	HIS10	134	RESIDUE	1 ****	HIS
11	VAL11	151	RESIDUE	1 ****	VAL
12	GLN12	167	RESIDUE	1 ****	GLN
13	ARG13	184	RESIDUE	1 ****	ARG
14	VAL14	208	RESIDUE	1 ****	VAL
15	MET15	224	RESIDUE	1 ****	MET
16	ARG16	241	RESIDUE	1 ****	ARG
