@<TRIPOS>MOLECULE
11-4
265 266 16              
SMALL
USER_CHARGES
@<TRIPOS>ATOM
1	   N	1705.858	509.944	-1741.968	N.3	1	GLU1	-0.516	
2	  CA	1706.417	511.293	-1741.968	C.3	1	GLU1	0.040	
3	   C	1707.926	511.253	-1741.968	C.2	1	GLU1	0.537	
4	   O	1708.602	511.952	-1742.736	O.2	1	GLU1	-0.582	
5	  CB	1705.894	512.078	-1740.730	C.3	1	GLU1	0.056	
6	  CG	1706.369	513.563	-1740.620	C.3	1	GLU1	0.014	
7	  CD	1705.945	514.367	-1739.404	C.2	1	GLU1	0.805	
8	 OE1	1705.217	513.865	-1738.526	O.co2	1	GLU1	-0.819	
9	 OE2	1706.375	515.537	-1739.333	O.co2	1	GLU1	-0.819	
10	   H	1706.485	509.065	-1741.968	 H	1	GLU1	0.294	
11	  HA	1706.091	511.811	-1742.887	 H	1	GLU1	0.111	
12	 2HB	1706.183	511.547	-1739.801	 H	1	GLU1	-0.017	
13	 3HB	1704.787	512.068	-1740.718	 H	1	GLU1	-0.017	
14	 2HG	1706.059	514.148	-1741.500	 H	1	GLU1	-0.043	
15	 3HG	1707.469	513.630	-1740.590	 H	1	GLU1	-0.043	
16	   N	1708.530	510.467	-1741.142	N.am	2	ASN2	-0.416	
17	  CA	1709.990	510.429	-1741.142	C.3	2	ASN2	0.014	
18	   C	1710.521	510.073	-1742.511	C.2	2	ASN2	0.597	
19	   O	1711.436	510.704	-1743.040	O.2	2	ASN2	-0.568	
20	  CB	1710.482	509.406	-1740.078	C.3	2	ASN2	-0.204	
21	  CG	1710.019	509.630	-1738.635	C.2	2	ASN2	0.713	
22	 ND2	1710.613	510.544	-1737.917	N.pl3	2	ASN2	-0.919	
23	 OD1	1709.098	508.996	-1738.141	O.2	2	ASN2	-0.593	
24	   H	1708.002	509.888	-1740.506	 H	2	ASN2	0.272	
25	  HA	1710.367	511.439	-1740.897	 H	2	ASN2	0.105	
26	 2HB	1711.586	509.347	-1740.082	 H	2	ASN2	0.080	
27	 3HB	1710.153	508.387	-1740.364	 H	2	ASN2	0.080	
28	1HD2	1710.132	510.717	-1737.030	 H	2	ASN2	0.420	
29	2HD2	1711.315	511.116	-1738.386	 H	2	ASN2	0.420	
30	   N	1709.999	509.078	-1743.145	N.am	3	PRO3	-0.255	
31	  CA	1710.451	508.669	-1744.467	C.3	3	PRO3	-0.027	
32	   C	1710.053	509.692	-1745.544	C.2	3	PRO3	0.590	
33	   O	1710.876	510.076	-1746.375	O.2	3	PRO3	-0.575	
34	  CB	1709.747	507.314	-1744.636	C.3	3	PRO3	-0.007	
35	  CG	1708.464	507.466	-1743.806	C.3	3	PRO3	0.019	
36	  CD	1708.921	508.285	-1742.596	C.3	3	PRO3	0.019	
37	  HA	1711.537	508.549	-1744.480	 H	3	PRO3	0.064	
38	 2HB	1710.370	506.533	-1744.195	 H	3	PRO3	0.025	
39	 3HB	1709.549	507.066	-1745.681	 H	3	PRO3	0.025	
40	 2HG	1708.036	506.504	-1743.515	 H	3	PRO3	0.021	
41	 3HG	1707.726	508.037	-1744.373	 H	3	PRO3	0.021	
42	 2HD	1709.311	507.635	-1741.808	 H	3	PRO3	0.039	
43	 3HD	1708.125	508.921	-1742.203	 H	3	PRO3	0.039	
44	   N	1708.848	510.152	-1745.576	N.am	4	GLU4	-0.516	
45	  CA	1708.488	511.123	-1746.605	C.3	4	GLU4	0.040	
46	   C	1709.387	512.334	-1746.544	C.2	4	GLU4	0.537	
47	   O	1709.913	512.814	-1747.559	O.2	4	GLU4	-0.582	
48	  CB	1707.000	511.542	-1746.435	C.3	4	GLU4	0.056	
49	  CG	1706.451	512.545	-1747.501	C.3	4	GLU4	0.014	
50	  CD	1705.025	513.042	-1747.357	C.2	4	GLU4	0.805	
51	 OE1	1704.298	512.643	-1746.426	O.co2	4	GLU4	-0.819	
52	 OE2	1704.635	513.871	-1748.205	O.co2	4	GLU4	-0.819	
53	   H	1708.164	509.845	-1744.899	 H	4	GLU4	0.294	
54	  HA	1708.619	510.653	-1747.597	 H	4	GLU4	0.111	
55	 2HB	1706.847	511.981	-1745.428	 H	4	GLU4	-0.017	
56	 3HB	1706.352	510.644	-1746.441	 H	4	GLU4	-0.017	
57	 2HG	1706.533	512.130	-1748.518	 H	4	GLU4	-0.043	
58	 3HG	1707.039	513.477	-1747.512	 H	4	GLU4	-0.043	
59	   N	1709.614	512.887	-1745.401	N.am	5	SER5	-0.416	
60	  CA	1710.484	514.059	-1745.343	C.3	5	SER5	-0.025	
61	   C	1711.843	513.753	-1745.928	C.2	5	SER5	0.597	
62	   O	1712.389	514.507	-1746.733	O.2	5	SER5	-0.568	
63	  CB	1710.595	514.591	-1743.892	C.3	5	SER5	0.212	
64	  OG	1711.327	513.711	-1743.031	O.3	5	SER5	-0.655	
65	   H	1709.198	512.515	-1744.560	 H	5	SER5	0.272	
66	  HA	1710.034	514.849	-1745.972	 H	5	SER5	0.084	
67	 2HB	1709.595	514.784	-1743.458	 H	5	SER5	0.035	
68	 3HB	1711.100	515.576	-1743.894	 H	5	SER5	0.035	
69	  HG	1710.839	512.886	-1742.980	 H	5	SER5	0.428	
70	   N	1712.448	512.671	-1745.574	N.am	6	ILE6	-0.416	
71	  CA	1713.761	512.376	-1746.141	C.3	6	ILE6	-0.060	
72	   C	1713.704	512.339	-1747.649	C.2	6	ILE6	0.597	
73	   O	1714.539	512.927	-1748.352	O.2	6	ILE6	-0.568	
74	  CB	1714.361	511.040	-1745.541	C.3	6	ILE6	0.130	
75	 CG1	1714.380	510.978	-1743.980	C.3	6	ILE6	-0.043	
76	 CG2	1715.802	510.739	-1746.056	C.3	6	ILE6	-0.320	
77	 CD1	1714.650	509.588	-1743.365	C.3	6	ILE6	-0.066	
78	   H	1712.019	512.036	-1744.916	 H	6	ILE6	0.272	
79	  HA	1714.435	513.211	-1745.873	 H	6	ILE6	0.087	
80	  HB	1713.703	510.214	-1745.885	 H	6	ILE6	0.019	
81	2HG1	1713.398	511.297	-1743.584	 H	6	ILE6	0.024	
82	3HG1	1715.096	511.720	-1743.575	 H	6	ILE6	0.024	
83	1HG2	1715.861	510.645	-1747.155	 H	6	ILE6	0.088	
84	2HG2	1716.524	511.521	-1745.754	 H	6	ILE6	0.088	
85	3HG2	1716.193	509.777	-1745.678	 H	6	ILE6	0.088	
86	1HD1	1713.923	508.834	-1743.720	 H	6	ILE6	0.019	
87	2HD1	1715.661	509.210	-1743.601	 H	6	ILE6	0.019	
88	3HD1	1714.574	509.618	-1742.262	 H	6	ILE6	0.019	
89	   N	1712.758	511.675	-1748.223	N.am	7	LEU7	-0.416	
90	  CA	1712.704	511.639	-1749.681	C.3	7	LEU7	-0.052	
91	   C	1712.631	513.035	-1750.253	C.2	7	LEU7	0.597	
92	   O	1713.352	513.398	-1751.195	O.2	7	LEU7	-0.568	
93	  CB	1711.501	510.779	-1750.162	C.3	7	LEU7	-0.110	
94	  CG	1711.428	509.299	-1749.696	C.3	7	LEU7	0.353	
95	 CD1	1710.239	508.593	-1750.362	C.3	7	LEU7	-0.412	
96	 CD2	1712.722	508.521	-1749.987	C.3	7	LEU7	-0.412	
97	   H	1712.066	511.188	-1747.672	 H	7	LEU7	0.272	
98	  HA	1713.646	511.200	-1750.055	 H	7	LEU7	0.092	
99	 2HB	1711.478	510.795	-1751.270	 H	7	LEU7	0.046	
100	 3HB	1710.561	511.281	-1749.858	 H	7	LEU7	0.046	
101	  HG	1711.258	509.291	-1748.599	 H	7	LEU7	-0.036	
102	1HD1	1709.282	509.102	-1750.139	 H	7	LEU7	0.100	
103	2HD1	1710.339	508.553	-1751.463	 H	7	LEU7	0.100	
104	3HD1	1710.132	507.552	-1750.006	 H	7	LEU7	0.100	
105	1HD2	1712.998	508.551	-1751.057	 H	7	LEU7	0.100	
106	2HD2	1713.576	508.932	-1749.416	 H	7	LEU7	0.100	
107	3HD2	1712.641	507.458	-1749.692	 H	7	LEU7	0.100	
108	   N	1711.794	513.875	-1749.747	N.am	8	ASP8	-0.516	
109	  CA	1711.723	515.225	-1750.300	C.3	8	ASP8	0.038	
110	   C	1713.069	515.905	-1750.242	C.2	8	ASP8	0.537	
111	   O	1713.542	516.511	-1751.217	O.2	8	ASP8	-0.582	
112	  CB	1710.644	516.063	-1749.558	C.3	8	ASP8	-0.030	
113	  CG	1710.425	517.484	-1750.098	C.2	8	ASP8	0.799	
114	 OD1	1710.489	517.683	-1751.329	O.co2	8	ASP8	-0.801	
115	 OD2	1710.232	518.409	-1749.283	O.co2	8	ASP8	-0.801	
116	   H	1711.196	513.604	-1748.980	 H	8	ASP8	0.294	
117	  HA	1711.440	515.147	-1751.367	 H	8	ASP8	0.088	
118	 2HB	1710.901	516.146	-1748.486	 H	8	ASP8	-0.012	
119	 3HB	1709.665	515.558	-1749.591	 H	8	ASP8	-0.012	
120	   N	1713.749	515.855	-1749.147	N.am	9	GLU9	-0.516	
121	  CA	1715.051	516.513	-1749.091	C.3	9	GLU9	0.040	
122	   C	1715.970	515.987	-1750.167	C.2	9	GLU9	0.537	
123	   O	1716.634	516.742	-1750.892	O.2	9	GLU9	-0.582	
124	  CB	1715.685	516.306	-1747.686	C.3	9	GLU9	0.056	
125	  CG	1717.067	516.999	-1747.456	C.3	9	GLU9	0.014	
126	  CD	1717.769	516.786	-1746.128	C.2	9	GLU9	0.805	
127	 OE1	1717.247	516.095	-1745.232	O.co2	9	GLU9	-0.819	
128	 OE2	1718.888	517.324	-1745.996	O.co2	9	GLU9	-0.819	
129	   H	1713.386	515.369	-1748.340	 H	9	GLU9	0.294	
130	  HA	1714.909	517.595	-1749.267	 H	9	GLU9	0.111	
131	 2HB	1715.798	515.222	-1747.483	 H	9	GLU9	-0.017	
132	 3HB	1714.988	516.659	-1746.902	 H	9	GLU9	-0.017	
133	 2HG	1716.995	518.090	-1747.596	 H	9	GLU9	-0.043	
134	 3HG	1717.814	516.655	-1748.190	 H	9	GLU9	-0.043	
135	   N	1716.067	514.711	-1750.337	N.am	10	HIS10	-0.416	
136	  CA	1716.955	514.201	-1751.377	C.3	10	HIS10	-0.058	
137	   C	1716.589	514.765	-1752.728	C.2	10	HIS10	0.597	
138	   O	1717.441	515.231	-1753.500	O.2	10	HIS10	-0.568	
139	  CB	1716.792	512.672	-1751.373	C.3	10	HIS10	-0.007	
140	  CG	1718.078	511.962	-1751.064	C.2	10	HIS10	0.187	
141	 CD2	1718.459	511.627	-1749.771	C.2	10	HIS10	-0.221	
142	 ND1	1719.031	511.557	-1751.997	N.2	10	HIS10	-0.543	
143	 CE1	1719.938	510.999	-1751.173	C.2	10	HIS10	0.163	
144	 NE2	1719.674	510.996	-1749.838	N.pl3	10	HIS10	-0.280	
145	   H	1715.536	514.076	-1749.759	 H	10	HIS10	0.272	
146	  HA	1717.974	514.559	-1751.151	 H	10	HIS10	0.136	
147	 2HB	1716.428	512.305	-1752.353	 H	10	HIS10	0.037	
148	 3HB	1716.037	512.334	-1750.633	 H	10	HIS10	0.037	
149	 2HD	1717.873	511.841	-1748.883	 H	10	HIS10	0.186	
150	 1HE	1720.829	510.579	-1751.620	 H	10	HIS10	0.144	
151	 2HE	1720.241	510.619	-1749.065	 H	10	HIS10	0.334	
152	   N	1715.351	514.764	-1753.092	N.am	11	VAL11	-0.416	
153	  CA	1714.996	515.310	-1754.398	C.3	11	VAL11	-0.087	
154	   C	1715.460	516.741	-1754.530	C.2	11	VAL11	0.597	
155	   O	1716.061	517.147	-1755.533	O.2	11	VAL11	-0.568	
156	  CB	1713.435	515.203	-1754.618	C.3	11	VAL11	0.299	
157	 CG1	1712.866	515.907	-1755.881	C.3	11	VAL11	-0.319	
158	 CG2	1712.911	513.748	-1754.692	C.3	11	VAL11	-0.319	
159	   H	1714.638	514.391	-1752.481	 H	11	VAL11	0.272	
160	  HA	1715.516	514.728	-1755.181	 H	11	VAL11	0.097	
161	  HB	1712.947	515.683	-1753.743	 H	11	VAL11	-0.030	
162	1HG1	1713.305	515.516	-1756.818	 H	11	VAL11	0.079	
163	2HG1	1711.767	515.799	-1755.963	 H	11	VAL11	0.079	
164	3HG1	1713.044	516.999	-1755.871	 H	11	VAL11	0.079	
165	1HG2	1713.200	513.161	-1753.801	 H	11	VAL11	0.079	
166	2HG2	1711.805	513.711	-1754.735	 H	11	VAL11	0.079	
167	3HG2	1713.293	513.208	-1755.578	 H	11	VAL11	0.079	
168	   N	1715.222	517.567	-1753.568	N.am	12	GLN12	-0.416	
169	  CA	1715.669	518.950	-1753.695	C.3	12	GLN12	-0.003	
170	   C	1717.159	519.018	-1753.932	C.2	12	GLN12	0.597	
171	   O	1717.646	519.727	-1754.810	O.2	12	GLN12	-0.568	
172	  CB	1715.277	519.717	-1752.412	C.3	12	GLN12	-0.004	
173	  CG	1715.637	521.239	-1752.381	C.3	12	GLN12	-0.064	
174	  CD	1715.333	522.052	-1751.116	C.2	12	GLN12	0.695	
175	 NE2	1714.766	521.475	-1750.087	N.pl3	12	GLN12	-0.941	
176	 OE1	1715.634	523.233	-1751.038	O.2	12	GLN12	-0.609	
177	   H	1714.733	517.260	-1752.739	 H	12	GLN12	0.272	
178	  HA	1715.170	519.406	-1754.570	 H	12	GLN12	0.085	
179	 2HB	1715.754	519.217	-1751.542	 H	12	GLN12	0.017	
180	 3HB	1714.187	519.609	-1752.249	 H	12	GLN12	0.017	
181	 2HG	1715.159	521.760	-1753.231	 H	12	GLN12	0.035	
182	 3HG	1716.720	521.382	-1752.546	 H	12	GLN12	0.035	
183	1HE2	1714.658	522.070	-1749.264	 H	12	GLN12	0.425	
184	2HE2	1714.603	520.472	-1750.191	 H	12	GLN12	0.425	
185	   N	1717.944	518.312	-1753.191	N.am	13	ARG13	-0.348	
186	  CA	1719.385	518.379	-1753.421	C.3	13	ARG13	-0.264	
187	   C	1719.721	518.008	-1754.846	C.2	13	ARG13	0.734	
188	   O	1720.489	518.680	-1755.530	O.2	13	ARG13	-0.589	
189	  CB	1720.098	517.440	-1752.408	C.3	13	ARG13	-0.001	
190	  CG	1721.643	517.595	-1752.326	C.3	13	ARG13	0.039	
191	  CD	1722.271	516.607	-1751.329	C.3	13	ARG13	0.049	
192	  NE	1723.748	516.815	-1751.278	N.pl3	13	ARG13	-0.530	
193	  CZ	1724.596	516.124	-1750.523	C.cat	13	ARG13	0.808	
194	 NH1	1724.232	515.159	-1749.726	N.pl3	13	ARG13	-0.863	
195	 NH2	1725.856	516.424	-1750.579	N.pl3	13	ARG13	-0.863	
196	   H	1717.568	517.722	-1752.463	 H	13	ARG13	0.275	
197	  HA	1719.708	519.425	-1753.263	 H	13	ARG13	0.156	
198	 2HB	1719.833	516.389	-1752.647	 H	13	ARG13	0.033	
199	 3HB	1719.673	517.606	-1751.397	 H	13	ARG13	0.033	
200	 2HG	1721.890	518.639	-1752.047	 H	13	ARG13	0.029	
201	 3HG	1722.094	517.439	-1753.328	 H	13	ARG13	0.029	
202	 2HD	1722.027	515.567	-1751.638	 H	13	ARG13	0.069	
203	 3HD	1721.814	516.752	-1750.326	 H	13	ARG13	0.069	
204	  HE	1724.199	517.538	-1751.848	 H	13	ARG13	0.346	
205	1HH1	1723.226	514.972	-1749.729	 H	13	ARG13	0.448	
206	2HH1	1724.945	514.677	-1749.177	 H	13	ARG13	0.448	
207	1HH2	1726.123	517.182	-1751.210	 H	13	ARG13	0.448	
208	2HH2	1726.491	515.883	-1749.991	 H	13	ARG13	0.448	
209	   N	1719.186	516.953	-1755.361	N.am	14	VAL14	-0.416	
210	  CA	1719.511	516.594	-1756.739	C.3	14	VAL14	-0.087	
211	   C	1719.181	517.724	-1757.684	C.2	14	VAL14	0.597	
212	   O	1719.974	518.107	-1758.553	O.2	14	VAL14	-0.568	
213	  CB	1718.740	515.277	-1757.146	C.3	14	VAL14	0.299	
214	 CG1	1718.830	514.859	-1758.639	C.3	14	VAL14	-0.319	
215	 CG2	1719.173	514.025	-1756.346	C.3	14	VAL14	-0.319	
216	   H	1718.551	516.384	-1754.819	 H	14	VAL14	0.272	
217	  HA	1720.600	516.419	-1756.813	 H	14	VAL14	0.097	
218	  HB	1717.664	515.447	-1756.930	 H	14	VAL14	-0.030	
219	1HG1	1719.871	514.683	-1758.968	 H	14	VAL14	0.079	
220	2HG1	1718.258	513.935	-1758.853	 H	14	VAL14	0.079	
221	3HG1	1718.400	515.621	-1759.318	 H	14	VAL14	0.079	
222	1HG2	1719.085	514.183	-1755.255	 H	14	VAL14	0.079	
223	2HG2	1718.538	513.148	-1756.578	 H	14	VAL14	0.079	
224	3HG2	1720.221	513.736	-1756.551	 H	14	VAL14	0.079	
225	   N	1718.035	518.310	-1757.582	N.am	15	MET15	-0.416	
226	  CA	1717.714	519.402	-1758.496	C.3	15	MET15	-0.024	
227	   C	1718.744	520.503	-1758.407	C.2	15	MET15	0.597	
228	   O	1719.246	521.014	-1759.420	O.2	15	MET15	-0.568	
229	  CB	1716.293	519.947	-1758.187	C.3	15	MET15	0.034	
230	  CG	1715.131	518.948	-1758.379	C.3	15	MET15	0.002	
231	  SD	1713.557	519.814	-1758.265	S.3	15	MET15	-0.274	
232	  CE	1712.476	518.383	-1758.129	C.3	15	MET15	-0.054	
233	   H	1717.371	518.016	-1756.881	 H	15	MET15	0.272	
234	  HA	1717.740	519.015	-1759.531	 H	15	MET15	0.088	
235	 2HB	1716.090	520.826	-1758.829	 H	15	MET15	0.024	
236	 3HB	1716.257	520.339	-1757.150	 H	15	MET15	0.024	
237	 2HG	1715.175	518.162	-1757.601	 H	15	MET15	0.044	
238	 3HG	1715.195	518.434	-1759.355	 H	15	MET15	0.044	
239	 1HE	1712.621	517.695	-1758.981	 H	15	MET15	0.068	
240	 2HE	1712.686	517.830	-1757.196	 H	15	MET15	0.068	
241	 3HE	1711.419	518.698	-1758.112	 H	15	MET15	0.068	
242	   N	1719.112	520.924	-1757.245	N.am	16	ARG16	-0.348	
243	  CA	1720.108	521.988	-1757.161	C.3	16	ARG16	-0.264	
244	   C	1721.379	521.596	-1757.877	C.2	16	ARG16	0.734	
245	   O	1721.494	520.520	-1758.459	O.2	16	ARG16	-0.589	
246	  CB	1720.377	522.306	-1755.663	C.3	16	ARG16	-0.001	
247	  CG	1721.202	523.595	-1755.390	C.3	16	ARG16	0.039	
248	  CD	1721.451	523.814	-1753.888	C.3	16	ARG16	0.049	
249	  NE	1722.226	525.074	-1753.687	N.pl3	16	ARG16	-0.530	
250	  CZ	1722.617	525.556	-1752.511	C.cat	16	ARG16	0.808	
251	 NH1	1722.370	524.971	-1751.373	N.pl3	16	ARG16	-0.863	
252	 NH2	1723.281	526.669	-1752.492	N.pl3	16	ARG16	-0.863	
253	   H	1718.718	520.523	-1756.406	 H	16	ARG16	0.275	
254	  HA	1719.699	522.881	-1757.671	 H	16	ARG16	0.156	
255	 2HB	1720.874	521.430	-1755.196	 H	16	ARG16	0.033	
256	 3HB	1719.408	522.386	-1755.129	 H	16	ARG16	0.033	
257	 2HG	1720.671	524.466	-1755.826	 H	16	ARG16	0.029	
258	 3HG	1722.175	523.543	-1755.918	 H	16	ARG16	0.029	
259	 2HD	1722.000	522.940	-1753.475	 H	16	ARG16	0.069	
260	 3HD	1720.478	523.856	-1753.353	 H	16	ARG16	0.069	
261	  HE	1722.505	525.655	-1754.484	 H	16	ARG16	0.346	
262	1HH1	1721.845	524.098	-1751.458	 H	16	ARG16	0.448	
263	2HH1	1722.704	525.407	-1750.511	 H	16	ARG16	0.448	
264	1HH2	1723.466	527.112	-1753.394	 H	16	ARG16	0.448	
265	2HH2	1723.571	527.024	-1751.580	 H	16	ARG16	0.448	
@<TRIPOS>BOND
1 1 2 1
2 1 10 1
3 2 3 1
4 2 5 1
5 2 11 1
6 3 4 2
7 3 16 1
8 5 6 1
9 6 7 1
10 7 8 2
11 7 9 1
12 5 12 1
13 5 13 1
14 6 14 1
15 6 15 1
16 16 17 1
17 16 24 1
18 17 18 1
19 17 20 1
20 17 25 1
21 18 19 2
22 18 30 1
23 20 21 1
24 21 22 1
25 21 23 2
26 20 26 1
27 20 27 1
28 22 28 1
29 22 29 1
30 30 31 1
31 30 36 1
32 31 32 1
33 31 34 1
34 31 37 1
35 32 33 2
36 32 44 1
37 34 35 1
38 35 36 1
39 34 38 1
40 34 39 1
41 35 40 1
42 35 41 1
43 36 42 1
44 36 43 1
45 44 45 1
46 44 53 1
47 45 46 1
48 45 48 1
49 45 54 1
50 46 47 2
51 46 59 1
52 48 49 1
53 49 50 1
54 50 51 2
55 50 52 1
56 48 55 1
57 48 56 1
58 49 57 1
59 49 58 1
60 59 60 1
61 59 65 1
62 60 61 1
63 60 63 1
64 60 66 1
65 61 62 2
66 61 70 1
67 63 64 1
68 63 67 1
69 63 68 1
70 64 69 1
71 70 71 1
72 70 78 1
73 71 72 1
74 71 74 1
75 71 79 1
76 72 73 2
77 72 89 1
78 74 75 1
79 74 76 1
80 75 77 1
81 74 80 1
82 75 81 1
83 75 82 1
84 76 83 1
85 76 84 1
86 76 85 1
87 77 86 1
88 77 87 1
89 77 88 1
90 89 90 1
91 89 97 1
92 90 91 1
93 90 93 1
94 90 98 1
95 91 92 2
96 91 108 1
97 93 94 1
98 94 95 1
99 94 96 1
100 93 99 1
101 93 100 1
102 94 101 1
103 95 102 1
104 95 103 1
105 95 104 1
106 96 105 1
107 96 106 1
108 96 107 1
109 108 109 1
110 108 116 1
111 109 110 1
112 109 112 1
113 109 117 1
114 110 111 2
115 110 120 1
116 112 113 1
117 113 114 2
118 113 115 1
119 112 118 1
120 112 119 1
121 120 121 1
122 120 129 1
123 121 122 1
124 121 124 1
125 121 130 1
126 122 123 2
127 122 135 1
128 124 125 1
129 125 126 1
130 126 127 2
131 126 128 1
132 124 131 1
133 124 132 1
134 125 133 1
135 125 134 1
136 135 136 1
137 135 145 1
138 136 137 1
139 136 139 1
140 136 146 1
141 137 138 2
142 137 152 1
143 139 140 1
144 140 141 2
145 141 144 1
146 140 142 1
147 142 143 2
148 143 144 1
149 139 147 1
150 139 148 1
151 141 149 1
152 143 150 1
153 144 151 1
154 152 153 1
155 152 159 1
156 153 154 1
157 153 156 1
158 153 160 1
159 154 155 2
160 154 168 1
161 156 157 1
162 156 158 1
163 156 161 1
164 157 162 1
165 157 163 1
166 157 164 1
167 158 165 1
168 158 166 1
169 158 167 1
170 168 169 1
171 168 177 1
172 169 170 1
173 169 172 1
174 169 178 1
175 170 171 2
176 170 185 1
177 172 173 1
178 173 174 1
179 174 175 1
180 174 176 2
181 172 179 1
182 172 180 1
183 173 181 1
184 173 182 1
185 175 183 1
186 175 184 1
187 185 186 1
188 185 196 1
189 186 187 1
190 186 189 1
191 186 197 1
192 187 188 2
193 187 209 1
194 189 190 1
195 190 191 1
196 191 192 1
197 192 193 1
198 193 194 2
199 193 195 1
200 189 198 1
201 189 199 1
202 190 200 1
203 190 201 1
204 191 202 1
205 191 203 1
206 192 204 1
207 194 205 1
208 194 206 1
209 195 207 1
210 195 208 1
211 209 210 1
212 209 216 1
213 210 211 1
214 210 213 1
215 210 217 1
216 211 212 2
217 211 225 1
218 213 214 1
219 213 215 1
220 213 218 1
221 214 219 1
222 214 220 1
223 214 221 1
224 215 222 1
225 215 223 1
226 215 224 1
227 225 226 1
228 225 233 1
229 226 227 1
230 226 229 1
231 226 234 1
232 227 228 2
233 227 242 1
234 229 230 1
235 230 231 1
236 231 232 1
237 229 235 1
238 229 236 1
239 230 237 1
240 230 238 1
241 232 239 1
242 232 240 1
243 232 241 1
244 242 243 1
245 242 253 1
246 243 244 1
247 243 246 1
248 243 254 1
249 244 245 2
250 246 247 1
251 247 248 1
252 248 249 1
253 249 250 1
254 250 251 2
255 250 252 1
256 246 255 1
257 246 256 1
258 247 257 1
259 247 258 1
260 248 259 1
261 248 260 1
262 249 261 1
263 251 262 1
264 251 263 1
265 252 264 1
266 252 265 1
@<TRIPOS>SUBSTRUCTURE
1	GLU1	1	RESIDUE	1 ****	GLU
2	ASN2	16	RESIDUE	1 ****	ASN
3	PRO3	30	RESIDUE	1 ****	PRO
4	GLU4	44	RESIDUE	1 ****	GLU
5	SER5	59	RESIDUE	1 ****	SER
6	ILE6	70	RESIDUE	1 ****	ILE
7	LEU7	89	RESIDUE	1 ****	LEU
8	ASP8	108	RESIDUE	1 ****	ASP
9	GLU9	120	RESIDUE	1 ****	GLU
10	HIS10	135	RESIDUE	1 ****	HIS
11	VAL11	152	RESIDUE	1 ****	VAL
12	GLN12	168	RESIDUE	1 ****	GLN
13	ARG13	185	RESIDUE	1 ****	ARG
14	VAL14	209	RESIDUE	1 ****	VAL
15	MET15	225	RESIDUE	1 ****	MET
16	ARG16	242	RESIDUE	1 ****	ARG
