REMARK WARNING: 32 MAX_TORS EXCEEDED!!!
REMARK  67 active torsions:
REMARK  status: ('A' for Active; 'I' for Inactive)
REMARK    1  A    between atoms: N_1  and  CA_2 
REMARK    2  A    between atoms: CA_2  and  C_3 
REMARK    3  A    between atoms: CA_2  and  CB_5 
REMARK       I    between atoms: C_3  and  N_10 
REMARK    4  A    between atoms: CB_5  and  OG1_7 
REMARK    5  A    between atoms: N_10  and  CA_11 
REMARK    6  A    between atoms: CA_11  and  C_12 
REMARK    7  A    between atoms: CA_11  and  CB_14 
REMARK       I    between atoms: C_12  and  N_21 
REMARK    8  A    between atoms: CB_14  and  CG_15 
REMARK       I    between atoms: CG_15  and  ND2_16 
REMARK    9  A    between atoms: CA_22  and  C_23 
REMARK       I    between atoms: C_23  and  N_28 
REMARK   10  A    between atoms: N_28  and  CA_29 
REMARK   11  A    between atoms: CA_29  and  C_30 
REMARK   12  A    between atoms: CA_29  and  CB_32 
REMARK       I    between atoms: C_30  and  N_38 
REMARK   13  A    between atoms: CB_32  and  CG_33 
REMARK   14  A    between atoms: CG_33  and  CD_34 
REMARK   15  A    between atoms: N_38  and  CA_39 
REMARK   16  A    between atoms: CA_39  and  C_40 
REMARK   17  A    between atoms: CA_39  and  CB_42 
REMARK       I    between atoms: C_40  and  N_46 
REMARK   18  A    between atoms: CB_42  and  OG_43 
REMARK   19  A    between atoms: N_46  and  CA_47 
REMARK   20  A    between atoms: CA_47  and  C_48 
REMARK   21  A    between atoms: CA_47  and  CB_50 
REMARK       I    between atoms: C_48  and  N_55 
REMARK   22  A    between atoms: CB_50  and  CG1_51 
REMARK   23  A    between atoms: N_55  and  CA_56 
REMARK   24  A    between atoms: CA_56  and  C_57 
REMARK   25  A    between atoms: CA_56  and  CB_59 
REMARK       I    between atoms: C_57  and  N_64 
REMARK   26  A    between atoms: CB_59  and  CG_60 
REMARK   27  A    between atoms: N_64  and  CA_65 
REMARK   28  A    between atoms: CA_65  and  C_66 
REMARK   29  A    between atoms: CA_65  and  CB_68 
REMARK       I    between atoms: C_66  and  N_73 
REMARK   30  A    between atoms: CB_68  and  CG_69 
REMARK   31  A    between atoms: N_73  and  CA_74 
REMARK   32  A    between atoms: CA_74  and  C_75 
REMARK   33  A    between atoms: CA_74  and  CB_77 
REMARK       I    between atoms: C_75  and  N_83 
REMARK   34  A    between atoms: CB_77  and  CG_78 
REMARK   35  A    between atoms: CG_78  and  CD_79 
REMARK   36  A    between atoms: N_83  and  CA_84 
REMARK   37  A    between atoms: CA_84  and  C_85 
REMARK   38  A    between atoms: CA_84  and  CB_87 
REMARK       I    between atoms: C_85  and  N_95 
REMARK   39  A    between atoms: CB_87  and  CG_88 
REMARK   40  A    between atoms: N_95  and  CA_96 
REMARK   41  A    between atoms: CA_96  and  C_97 
REMARK   42  A    between atoms: CA_96  and  CB_99 
REMARK       I    between atoms: C_97  and  N_103 
REMARK   43  A    between atoms: N_103  and  CA_104 
REMARK   44  A    between atoms: CA_104  and  C_105 
REMARK   45  A    between atoms: CA_104  and  CB_107 
REMARK       I    between atoms: C_105  and  N_115 
REMARK   46  A    between atoms: CB_107  and  CG_108 
REMARK   47  A    between atoms: CG_108  and  CD_109 
REMARK       I    between atoms: CD_109  and  NE2_110 
REMARK   48  A    between atoms: N_115  and  CA_116 
REMARK   49  A    between atoms: CA_116  and  C_117 
REMARK   50  A    between atoms: CA_116  and  CB_119 
REMARK       I    between atoms: C_117  and  N_132 
REMARK   51  A    between atoms: CB_119  and  CG_120 
REMARK   52  A    between atoms: CG_120  and  CD_121 
REMARK   53  A    between atoms: CD_121  and  NE_122 
REMARK       I    between atoms: NE_122  and  CZ_123 
REMARK       I    between atoms: CZ_123  and  NH1_124 
REMARK       I    between atoms: CZ_123  and  NH2_125 
REMARK   54  A    between atoms: N_132  and  CA_133 
REMARK   55  A    between atoms: CA_133  and  C_134 
REMARK   56  A    between atoms: CA_133  and  CB_136 
REMARK       I    between atoms: C_134  and  N_140 
REMARK   57  A    between atoms: N_140  and  CA_141 
REMARK   58  A    between atoms: CA_141  and  C_142 
REMARK   59  A    between atoms: CA_141  and  CB_144 
REMARK       I    between atoms: C_142  and  N_149 
REMARK   60  A    between atoms: CB_144  and  CG_145 
REMARK   61  A    between atoms: CG_145  and  SD_146 
REMARK   62  A    between atoms: N_149  and  CA_150 
REMARK   63  A    between atoms: CA_150  and  C_151 
REMARK   64  A    between atoms: CA_150  and  CB_153 
REMARK   65  A    between atoms: CB_153  and  CG_154 
REMARK   66  A    between atoms: CG_154  and  CD_155 
REMARK   67  A    between atoms: CD_155  and  NE_156 
REMARK       I    between atoms: NE_156  and  CZ_157 
REMARK       I    between atoms: CZ_157  and  NH1_158 
ROOT
ATOM      1  C   GLU d   9     124.755  23.694 -92.000  0.00  0.00     0.241 C 
ATOM      2  O   GLU d   9     125.451  24.419 -92.725  0.00  0.00    -0.271 OA
ATOM      3  N   HIS d  10     124.796  22.416 -92.169  0.00  0.00    -0.346 N 
ATOM      4  H   HIS d  10     124.239  21.804 -91.591  0.00  0.00     0.163 HD
ENDROOT
BRANCH   3   5
ATOM      5  CA  HIS d  10     125.661  21.867 -93.210  0.00  0.00     0.182 C 
BRANCH   5   6
ATOM      6  C   HIS d  10     125.318  22.447 -94.561  0.00  0.00     0.241 C 
ATOM      7  O   HIS d  10     126.190  22.875 -95.333  0.00  0.00    -0.271 OA
ATOM      8  N   VAL d  11     124.082  22.499 -94.924  0.00  0.00    -0.346 N 
ATOM      9  H   VAL d  11     123.353  22.157 -94.313  0.00  0.00     0.163 HD
BRANCH   8  10
ATOM     10  CA  VAL d  11     123.750  23.060 -96.230  0.00  0.00     0.180 C 
BRANCH  10  11
ATOM     11  C   VAL d  11     124.275  24.470 -96.363  0.00  0.00     0.241 C 
ATOM     12  O   VAL d  11     124.893  24.849 -97.366  0.00  0.00    -0.271 OA
ATOM     13  N   GLN d  12     124.074  25.305 -95.400  0.00  0.00    -0.346 N 
ATOM     14  H   GLN d  12     123.573  25.020 -94.571  0.00  0.00     0.163 HD
BRANCH  13  15
ATOM     15  CA  GLN d  12     124.582  26.667 -95.527  0.00  0.00     0.177 C 
BRANCH  15  16
ATOM     16  C   GLN d  12     126.073  26.670 -95.765  0.00  0.00     0.241 C 
ATOM     17  O   GLN d  12     126.590  27.357 -96.644  0.00  0.00    -0.271 OA
ATOM     18  N   ARG d  13     126.827  25.930 -95.025  0.00  0.00    -0.346 N 
ATOM     19  H   ARG d  13     126.426  25.357 -94.297  0.00  0.00     0.163 HD
BRANCH  18  20
ATOM     20  CA  ARG d  13     128.269  25.934 -95.256  0.00  0.00     0.176 C 
BRANCH  20  21
ATOM     21  C   ARG d  13     128.588  25.549 -96.681  0.00  0.00     0.241 C 
ATOM     22  O   ARG d  13     129.384  26.187 -97.366  0.00  0.00    -0.271 OA
ATOM     23  N   VAL d  14     128.007  24.519 -97.196  0.00  0.00    -0.346 N 
ATOM     24  H   VAL d  14     127.348  23.978 -96.654  0.00  0.00     0.163 HD
BRANCH  23  25
ATOM     25  CA  VAL d  14     128.315  24.146 -98.574  0.00  0.00     0.180 C 
BRANCH  25  26
ATOM     26  C   VAL d  14     128.034  25.289 -99.519  0.00  0.00     0.241 C 
ATOM     27  O   VAL d  14     128.843  25.637-100.389  0.00  0.00    -0.271 OA
ATOM     28  N   MET d  15     126.915  25.924 -99.417  0.00  0.00    -0.346 N 
ATOM     29  H   MET d  15     126.239  25.660 -98.715  0.00  0.00     0.163 HD
BRANCH  28  30
ATOM     30  CA  MET d  15     126.642  27.030-100.330  0.00  0.00     0.177 C 
BRANCH  30  31
ATOM     31  C   MET d  15     127.719  28.084-100.242  0.00  0.00     0.241 C 
ATOM     32  O   MET d  15     128.242  28.573-101.255  0.00  0.00    -0.271 OA
ATOM     33  N   ARG d  16     128.105  28.489 -99.080  0.00  0.00    -0.347 N 
ATOM     34  H   ARG d  16     127.694  28.106 -98.241  0.00  0.00     0.163 HD
BRANCH  33  35
ATOM     35  CA  ARG d  16     129.147  29.509 -98.997  0.00  0.00     0.162 C 
BRANCH  35  36
ATOM     36  C   ARG d  16     130.399  29.062 -99.713  0.00  0.00     0.219 C 
ATOM     37  O   ARG d  16     130.466  27.982-100.295  0.00  0.00    -0.287 OA
ENDBRANCH  35  36
BRANCH  35  38
ATOM     38  CB  ARG d  16     129.430  29.814 -97.498  0.00  0.00     0.035 C 
BRANCH  38  39
ATOM     39  CG  ARG d  16     130.310  31.067 -97.225  0.00  0.00     0.023 C 
BRANCH  39  40
ATOM     40  CD  ARG d  16     130.569  31.275 -95.724  0.00  0.00     0.138 C 
BRANCH  40  41
ATOM     41  NE  ARG d  16     131.399  32.499 -95.523  0.00  0.00    -0.227 N 
ATOM     42  CZ  ARG d  16     131.811  32.964 -94.348  0.00  0.00     0.665 C 
ATOM     43  NH1 ARG d  16     131.539  32.390 -93.209  0.00  0.00    -0.235 N 
ATOM     44  NH2 ARG d  16     132.522  34.047 -94.329  0.00  0.00    -0.235 N 
ATOM     45 11HH ARG d  16     130.976  31.541 -93.294  0.00  0.00     0.174 HD
ATOM     46 12HH ARG d  16     131.892  32.811 -92.348  0.00  0.00     0.174 HD
ATOM     47 21HH ARG d  16     132.726  34.482 -95.231  0.00  0.00     0.174 HD
ATOM     48 22HH ARG d  16     132.827  34.389 -93.417  0.00  0.00     0.174 HD
ATOM     49  HE  ARG d  16     131.702  33.068 -96.320  0.00  0.00     0.177 HD
ENDBRANCH  40  41
ENDBRANCH  39  40
ENDBRANCH  38  39
ENDBRANCH  35  38
ENDBRANCH  33  35
ENDBRANCH  30  31
BRANCH  30  50
ATOM     50  CB  MET d  15     125.245  27.636-100.020  0.00  0.00     0.045 C 
BRANCH  50  51
ATOM     51  CG  MET d  15     124.041  26.688-100.212  0.00  0.00     0.076 C 
BRANCH  51  52
ATOM     52  SD  MET d  15     122.506  27.621-100.097  0.00  0.00    -0.173 SA
ATOM     53  CE  MET d  15     121.365  26.239 -99.960  0.00  0.00     0.089 C 
ENDBRANCH  51  52
ENDBRANCH  50  51
ENDBRANCH  30  50
ENDBRANCH  28  30
ENDBRANCH  25  26
BRANCH  25  54
ATOM     54  CB  VAL d  14     127.487  22.863 -98.980  0.00  0.00     0.009 C 
ATOM     55  CG1 VAL d  14     127.557  22.442-100.474  0.00  0.00     0.012 C 
ATOM     56  CG2 VAL d  14     127.865  21.594 -98.181  0.00  0.00     0.012 C 
ENDBRANCH  25  54
ENDBRANCH  23  25
ENDBRANCH  20  21
BRANCH  20  57
ATOM     57  CB  ARG d  13     128.941  24.965 -94.243  0.00  0.00     0.036 C 
BRANCH  57  58
ATOM     58  CG  ARG d  13     130.491  25.052 -94.162  0.00  0.00     0.023 C 
BRANCH  58  59
ATOM     59  CD  ARG d  13     131.076  24.038 -93.165  0.00  0.00     0.138 C 
BRANCH  59  60
ATOM     60  NE  ARG d  13     132.560  24.181 -93.115  0.00  0.00    -0.227 N 
ATOM     61  CZ  ARG d  13     133.378  23.454 -92.360  0.00  0.00     0.665 C 
ATOM     62  NH1 ARG d  13     132.972  22.506 -91.563  0.00  0.00    -0.235 N 
ATOM     63  NH2 ARG d  13     134.649  23.698 -92.417  0.00  0.00    -0.235 N 
ATOM     64 11HH ARG d  13     131.960  22.363 -91.566  0.00  0.00     0.174 HD
ATOM     65 12HH ARG d  13     133.664  21.992 -91.015  0.00  0.00     0.174 HD
ATOM     66 21HH ARG d  13     134.949  24.444 -93.048  0.00  0.00     0.174 HD
ATOM     67 22HH ARG d  13     135.261  23.130 -91.829  0.00  0.00     0.174 HD
ATOM     68  HE  ARG d  13     133.042  24.884 -93.686  0.00  0.00     0.177 HD
ENDBRANCH  59  60
ENDBRANCH  58  59
ENDBRANCH  57  58
ENDBRANCH  20  57
ENDBRANCH  18  20
ENDBRANCH  15  16
BRANCH  15  69
ATOM     69  CB  GLN d  12     124.225  27.450 -94.244  0.00  0.00     0.044 C 
BRANCH  69  70
ATOM     70  CG  GLN d  12     124.650  28.955 -94.213  0.00  0.00     0.105 C 
BRANCH  70  71
ATOM     71  CD  GLN d  12     124.383  29.781 -92.948  0.00  0.00     0.215 C 
ATOM     72  NE2 GLN d  12     123.792  29.229 -91.919  0.00  0.00    -0.370 N 
ATOM     73 21HE GLN d  12     123.711  29.827 -91.095  0.00  0.00     0.159 HD
ATOM     74 22HE GLN d  12     123.586  28.233 -92.022  0.00  0.00     0.159 HD
ATOM     75  OE1 GLN d  12     124.735  30.948 -92.870  0.00  0.00    -0.274 OA
ENDBRANCH  70  71
ENDBRANCH  69  70
ENDBRANCH  15  69
ENDBRANCH  13  15
ENDBRANCH  10  11
BRANCH  10  76
ATOM     76  CB  VAL d  11     122.185  23.021 -96.449  0.00  0.00     0.009 C 
ATOM     77  CG1 VAL d  11     121.647  23.749 -97.712  0.00  0.00     0.012 C 
ATOM     78  CG2 VAL d  11     121.599  21.591 -96.522  0.00  0.00     0.012 C 
ENDBRANCH  10  76
ENDBRANCH   8  10
ENDBRANCH   5   6
BRANCH   5  79
ATOM     79  CB  HIS d  10     125.432  20.346 -93.206  0.00  0.00     0.095 C 
BRANCH  79  80
ATOM     80  CG  HIS d  10     126.686  19.581 -92.898  0.00  0.00     0.053 A 
ATOM     81  CD2 HIS d  10     127.052  19.230 -91.606  0.00  0.00     0.116 A 
ATOM     82  NE2 HIS d  10     128.239  18.547 -91.673  0.00  0.00    -0.359 N 
ATOM     83  CE1 HIS d  10     128.501  18.538 -93.008  0.00  0.00     0.207 A 
ATOM     84  2HE HIS d  10     128.789  18.145 -90.900  0.00  0.00     0.166 HD
ATOM     85  ND1 HIS d  10     127.619  19.135 -93.831  0.00  0.00    -0.247 NA
ENDBRANCH  79  80
ENDBRANCH   5  79
ENDBRANCH   3   5
BRANCH   1  86
ATOM     86  CA  GLU d   9     123.861  24.260 -90.923  0.00  0.00     0.177 C 
BRANCH  86  87
ATOM     87  N   GLU d   9     122.531  23.660 -90.978  0.00  0.00    -0.346 N 
ATOM     88  C   ASP d   8     121.854  23.739 -92.073  0.00  0.00     0.241 C 
ATOM     89  O   ASP d   8     122.352  24.323 -93.048  0.00  0.00    -0.271 OA
ATOM     90  H   GLU d   9     122.148  23.189 -90.171  0.00  0.00     0.163 HD
BRANCH  88  91
ATOM     91  CA  ASP d   8     120.479  23.118 -92.130  0.00  0.00     0.186 C 
BRANCH  91  92
ATOM     92  N   ASP d   8     120.491  21.766 -91.577  0.00  0.00    -0.346 N 
ATOM     93  C   LEU d   7     121.291  20.890 -92.084  0.00  0.00     0.241 C 
ATOM     94  O   LEU d   7     122.027  21.222 -93.026  0.00  0.00    -0.271 OA
ATOM     95  H   ASP d   8     119.883  21.521 -90.809  0.00  0.00     0.163 HD
BRANCH  93  96
ATOM     96  CA  LEU d   7     121.304  19.493 -91.511  0.00  0.00     0.177 C 
BRANCH  96  97
ATOM     97  N   LEU d   7     121.361  19.527 -90.053  0.00  0.00    -0.346 N 
ATOM     98  C   ILE d   6     122.335  20.149 -89.479  0.00  0.00     0.241 C 
ATOM     99  O   ILE d   6     123.194  20.700 -90.184  0.00  0.00    -0.271 OA
ATOM    100  H   LEU d   7     120.649  19.070 -89.501  0.00  0.00     0.163 HD
BRANCH  98 101
ATOM    101  CA  ILE d   6     122.394  20.184 -87.972  0.00  0.00     0.180 C 
BRANCH 101 102
ATOM    102  N   ILE d   6     121.095  20.535 -87.405  0.00  0.00    -0.346 N 
ATOM    103  C   SER d   5     120.537  21.643 -87.759  0.00  0.00     0.243 C 
ATOM    104  O   SER d   5     121.116  22.373 -88.564  0.00  0.00    -0.271 OA
ATOM    105  H   ILE d   6     120.640  19.920 -86.746  0.00  0.00     0.163 HD
BRANCH 103 106
ATOM    106  CA  SER d   5     119.193  22.007 -87.172  0.00  0.00     0.200 C 
BRANCH 106 107
ATOM    107  N   SER d   5     118.274  20.875 -87.231  0.00  0.00    -0.344 N 
ATOM    108  C   GLU d   4     118.022  20.332 -88.374  0.00  0.00     0.241 C 
ATOM    109  O   GLU d   4     118.569  20.789 -89.388  0.00  0.00    -0.271 OA
ATOM    110  H   SER d   5     117.842  20.521 -86.389  0.00  0.00     0.163 HD
BRANCH 108 111
ATOM    111  CA  GLU d   4     117.072  19.161 -88.434  0.00  0.00     0.177 C 
BRANCH 111 112
ATOM    112  N   GLU d   4     117.390  18.176 -87.405  0.00  0.00    -0.346 N 
ATOM    113  C   PRO d   3     118.573  17.664 -87.373  0.00  0.00     0.241 C 
ATOM    114  O   PRO d   3     119.412  18.011 -88.205  0.00  0.00    -0.271 OA
ATOM    115  H   GLU d   4     116.693  17.899 -86.728  0.00  0.00     0.163 HD
BRANCH 113 116
ATOM    116  CA  PRO d   3     118.927  16.624 -86.296  0.00  0.00     0.179 C 
ATOM    117  N   PRO d   3     118.494  17.053 -84.975  0.00  0.00    -0.337 N 
ATOM    118  C   ASN d   2     119.059  18.024 -84.341  0.00  0.00     0.243 C 
ATOM    119  CD  PRO d   3     117.383  16.307 -84.425  0.00  0.00     0.127 C 
ATOM    120  O   ASN d   2     120.000  18.614 -84.870  0.00  0.00    -0.271 OA
ATOM    121  CG  PRO d   3     116.890  15.509 -85.635  0.00  0.00     0.022 C 
ATOM    122  CB  PRO d   3     118.165  15.301 -86.466  0.00  0.00     0.037 C 
BRANCH 118 123
ATOM    123  CA  ASN d   2     118.544  18.402 -82.972  0.00  0.00     0.185 C 
BRANCH 123 124
ATOM    124  N   ASN d   2     117.088  18.504 -82.971  0.00  0.00    -0.345 N 
ATOM    125  C   THR d   1     116.517  19.316 -83.796  0.00  0.00     0.245 C 
ATOM    126  O   THR d   1     117.208  19.971 -84.550  0.00  0.00    -0.271 OA
ATOM    127  H   ASN d   2     116.535  17.948 -82.335  0.00  0.00     0.163 HD
BRANCH 125 128
ATOM    128  CA  THR d   1     115.011  19.422 -83.796  0.00  0.00     0.218 C 
BRANCH 128 129
ATOM    129  N   THR d   1     114.393  18.100 -83.796  0.00  0.00    -0.324 NA
ATOM    130  H   THR d   1     114.980  17.193 -83.796  0.00  0.00     0.180 HD
ENDBRANCH 128 129
BRANCH 128 131
ATOM    131  CB  THR d   1     114.515  20.261 -82.570  0.00  0.00     0.147 C 
ATOM    132  CG2 THR d   1     115.096  21.685 -82.435  0.00  0.00     0.042 C 
BRANCH 131 133
ATOM    133  OG1 THR d   1     113.108  20.455 -82.634  0.00  0.00    -0.393 OA
ATOM    134  1HG THR d   1     112.864  20.910 -81.823  0.00  0.00     0.210 HD
ENDBRANCH 131 133
ENDBRANCH 128 131
ENDBRANCH 125 128
ENDBRANCH 123 124
BRANCH 123 135
ATOM    135  CB  ASN d   2     118.991  17.359 -81.908  0.00  0.00     0.137 C 
BRANCH 135 136
ATOM    136  CG  ASN d   2     118.539  17.603 -80.464  0.00  0.00     0.217 C 
ATOM    137  ND2 ASN d   2     119.173  18.491 -79.746  0.00  0.00    -0.370 N 
ATOM    138 21HD ASN d   2     118.700  18.685 -78.860  0.00  0.00     0.159 HD
ATOM    139 22HD ASN d   2     119.898  19.031 -80.216  0.00  0.00     0.159 HD
ATOM    140  OD1 ASN d   2     117.592  17.009 -79.970  0.00  0.00    -0.274 OA
ENDBRANCH 135 136
ENDBRANCH 123 135
ENDBRANCH 118 123
ENDBRANCH 113 116
ENDBRANCH 111 112
BRANCH 111 141
ATOM    141  CB  GLU d   4     115.603  19.644 -88.264  0.00  0.00     0.045 C 
BRANCH 141 142
ATOM    142  CG  GLU d   4     115.098  20.670 -89.329  0.00  0.00     0.116 C 
BRANCH 142 143
ATOM    143  CD  GLU d   4     113.695  21.228 -89.185  0.00  0.00     0.172 C 
ATOM    144  OE1 GLU d   4     112.952  20.862 -88.253  0.00  0.00    -0.648 OA
ATOM    145  OE2 GLU d   4     113.341  22.074 -90.033  0.00  0.00    -0.648 OA
ENDBRANCH 142 143
ENDBRANCH 141 142
ENDBRANCH 111 141
ENDBRANCH 108 111
ENDBRANCH 106 107
BRANCH 106 146
ATOM    146  CB  SER d   5     119.328  22.534 -85.722  0.00  0.00     0.199 C 
BRANCH 146 147
ATOM    147  OG  SER d   5     120.022  21.624 -84.861  0.00  0.00    -0.398 OA
ATOM    148  HG  SER d   5     119.498  20.821 -84.810  0.00  0.00     0.209 HD
ENDBRANCH 146 147
ENDBRANCH 106 146
ENDBRANCH 103 106
ENDBRANCH 101 102
BRANCH 101 149
ATOM    149  CB  ILE d   6     122.936  18.823 -87.372  0.00  0.00     0.013 C 
ATOM    150  CG2 ILE d   6     124.362  18.459 -87.888  0.00  0.00     0.012 C 
BRANCH 149 151
ATOM    151  CG1 ILE d   6     122.953  18.760 -85.811  0.00  0.00     0.002 C 
ATOM    152  CD1 ILE d   6     123.163  17.361 -85.196  0.00  0.00     0.005 C 
ENDBRANCH 149 151
ENDBRANCH 101 149
ENDBRANCH  98 101
ENDBRANCH  96  97
BRANCH  96 153
ATOM    153  CB  LEU d   7     120.064  18.686 -91.991  0.00  0.00     0.038 C 
BRANCH 153 154
ATOM    154  CG  LEU d   7     119.928  17.211 -91.525  0.00  0.00    -0.020 C 
ATOM    155  CD1 LEU d   7     118.708  16.557 -92.190  0.00  0.00     0.009 C 
ATOM    156  CD2 LEU d   7     121.187  16.377 -91.817  0.00  0.00     0.009 C 
ENDBRANCH 153 154
ENDBRANCH  96 153
ENDBRANCH  93  96
ENDBRANCH  91  92
BRANCH  91 157
ATOM    157  CB  ASP d   8     119.438  24.002 -91.388  0.00  0.00     0.147 C 
BRANCH 157 158
ATOM    158  CG  ASP d   8     119.281  25.431 -91.928  0.00  0.00     0.175 C 
ATOM    159  OD1 ASP d   8     119.353  25.628 -93.159  0.00  0.00    -0.648 OA
ATOM    160  OD2 ASP d   8     119.129  26.365 -91.112  0.00  0.00    -0.648 OA
ENDBRANCH 157 158
ENDBRANCH  91 157
ENDBRANCH  88  91
ENDBRANCH  86  87
BRANCH  86 161
ATOM    161  CB  GLU d   9     124.486  24.025 -89.518  0.00  0.00     0.045 C 
BRANCH 161 162
ATOM    162  CG  GLU d   9     125.897  24.657 -89.289  0.00  0.00     0.116 C 
BRANCH 162 163
ATOM    163  CD  GLU d   9     126.589  24.414 -87.961  0.00  0.00     0.172 C 
ATOM    164  OE1 GLU d   9     126.039  23.746 -87.065  0.00  0.00    -0.648 OA
ATOM    165  OE2 GLU d   9     127.731  24.903 -87.830  0.00  0.00    -0.648 OA
ENDBRANCH 162 163
ENDBRANCH 161 162
ENDBRANCH  86 161
ENDBRANCH   1  86
TORSDOF 67
