@<TRIPOS>MOLECULE
6-2
260 262 16              
SMALL
USER_CHARGES
@<TRIPOS>ATOM
1	   N	868.791	234.353	-833.938	N.3	1	GLU1	-0.516	
2	  CA	869.350	235.702	-833.938	C.3	1	GLU1	0.040	
3	   C	870.859	235.662	-833.938	C.2	1	GLU1	0.537	
4	   O	871.535	236.361	-834.706	O.2	1	GLU1	-0.582	
5	  CB	868.827	236.487	-832.701	C.3	1	GLU1	0.056	
6	  CG	869.302	237.972	-832.590	C.3	1	GLU1	0.014	
7	  CD	868.878	238.776	-831.375	C.2	1	GLU1	0.805	
8	 OE1	868.150	238.274	-830.497	O.co2	1	GLU1	-0.819	
9	 OE2	869.308	239.946	-831.303	O.co2	1	GLU1	-0.819	
10	   H	869.418	233.474	-833.938	 H	1	GLU1	0.294	
11	  HA	869.024	236.220	-834.858	 H	1	GLU1	0.111	
12	 2HB	869.116	235.956	-831.771	 H	1	GLU1	-0.017	
13	 3HB	867.720	236.477	-832.688	 H	1	GLU1	-0.017	
14	 2HG	868.992	238.557	-833.471	 H	1	GLU1	-0.043	
15	 3HG	870.402	238.039	-832.561	 H	1	GLU1	-0.043	
16	   N	871.463	234.877	-833.113	N.am	2	ASN2	-0.416	
17	  CA	872.923	234.838	-833.113	C.3	2	ASN2	0.014	
18	   C	873.454	234.482	-834.481	C.2	2	ASN2	0.597	
19	   O	874.369	235.113	-835.010	O.2	2	ASN2	-0.568	
20	  CB	873.415	233.815	-832.048	C.3	2	ASN2	-0.204	
21	  CG	872.952	234.039	-830.605	C.2	2	ASN2	0.713	
22	 ND2	873.546	234.954	-829.887	N.pl3	2	ASN2	-0.919	
23	 OD1	872.031	233.405	-830.111	O.2	2	ASN2	-0.593	
24	   H	870.935	234.297	-832.476	 H	2	ASN2	0.272	
25	  HA	873.300	235.848	-832.867	 H	2	ASN2	0.105	
26	 2HB	874.519	233.756	-832.052	 H	2	ASN2	0.080	
27	 3HB	873.086	232.797	-832.334	 H	2	ASN2	0.080	
28	1HD2	873.065	235.127	-829.000	 H	2	ASN2	0.420	
29	2HD2	874.248	235.525	-830.356	 H	2	ASN2	0.420	
30	   N	872.933	233.487	-835.115	N.am	3	PRO3	-0.255	
31	  CA	873.385	233.078	-836.437	C.3	3	PRO3	-0.027	
32	   C	872.986	234.102	-837.514	C.2	3	PRO3	0.590	
33	   O	873.810	234.485	-838.345	O.2	3	PRO3	-0.575	
34	  CB	872.681	231.723	-836.606	C.3	3	PRO3	-0.007	
35	  CG	871.397	231.875	-835.776	C.3	3	PRO3	0.019	
36	  CD	871.855	232.694	-834.566	C.3	3	PRO3	0.019	
37	  HA	874.471	232.958	-836.451	 H	3	PRO3	0.064	
38	 2HB	873.304	230.942	-836.166	 H	3	PRO3	0.025	
39	 3HB	872.483	231.475	-837.652	 H	3	PRO3	0.025	
40	 2HG	870.970	230.913	-835.485	 H	3	PRO3	0.021	
41	 3HG	870.660	232.446	-836.344	 H	3	PRO3	0.021	
42	 2HD	872.244	232.045	-833.779	 H	3	PRO3	0.039	
43	 3HD	871.058	233.330	-834.173	 H	3	PRO3	0.039	
44	   N	871.782	234.562	-837.546	N.am	4	GLU4	-0.516	
45	  CA	871.422	235.532	-838.576	C.3	4	GLU4	0.040	
46	   C	872.321	236.744	-838.515	C.2	4	GLU4	0.537	
47	   O	872.847	237.223	-839.529	O.2	4	GLU4	-0.582	
48	  CB	869.933	235.951	-838.406	C.3	4	GLU4	0.056	
49	  CG	869.385	236.954	-839.471	C.3	4	GLU4	0.014	
50	  CD	867.958	237.451	-839.328	C.2	4	GLU4	0.805	
51	 OE1	867.232	237.052	-838.397	O.co2	4	GLU4	-0.819	
52	 OE2	867.569	238.280	-840.176	O.co2	4	GLU4	-0.819	
53	   H	871.097	234.255	-836.870	 H	4	GLU4	0.294	
54	  HA	871.553	235.062	-839.567	 H	4	GLU4	0.111	
55	 2HB	869.781	236.391	-837.399	 H	4	GLU4	-0.017	
56	 3HB	869.286	235.053	-838.412	 H	4	GLU4	-0.017	
57	 2HG	869.467	236.540	-840.489	 H	4	GLU4	-0.043	
58	 3HG	869.973	237.887	-839.482	 H	4	GLU4	-0.043	
59	   N	872.548	237.297	-837.372	N.am	5	SER5	-0.416	
60	  CA	873.417	238.468	-837.313	C.3	5	SER5	-0.025	
61	   C	874.776	238.163	-837.899	C.2	5	SER5	0.597	
62	   O	875.323	238.916	-838.703	O.2	5	SER5	-0.568	
63	  CB	873.528	239.000	-835.863	C.3	5	SER5	0.212	
64	  OG	874.260	238.121	-835.002	O.3	5	SER5	-0.655	
65	   H	872.131	236.925	-836.530	 H	5	SER5	0.272	
66	  HA	872.968	239.258	-837.942	 H	5	SER5	0.084	
67	 2HB	872.529	239.194	-835.429	 H	5	SER5	0.035	
68	 3HB	874.034	239.986	-835.865	 H	5	SER5	0.035	
69	  HG	873.772	237.296	-834.951	 H	5	SER5	0.428	
70	   N	875.381	237.080	-837.544	N.am	6	PRO6	-0.255	
71	  CA	876.691	236.710	-838.060	C.3	6	PRO6	-0.027	
72	   C	876.622	236.305	-839.542	C.2	6	PRO6	0.590	
73	   O	877.434	236.756	-840.351	O.2	6	PRO6	-0.575	
74	  CB	877.077	235.546	-837.136	C.3	6	PRO6	-0.007	
75	  CG	875.726	234.925	-836.751	C.3	6	PRO6	0.019	
76	  CD	874.808	236.141	-836.604	C.3	6	PRO6	0.019	
77	  HA	877.392	237.541	-837.955	 H	6	PRO6	0.064	
78	 2HB	877.557	235.947	-836.241	 H	6	PRO6	0.025	
79	 3HB	877.752	234.831	-837.613	 H	6	PRO6	0.025	
80	 2HG	875.782	234.337	-835.832	 H	6	PRO6	0.021	
81	 3HG	875.367	234.294	-837.567	 H	6	PRO6	0.021	
82	 2HD	874.865	236.555	-835.595	 H	6	PRO6	0.039	
83	 3HD	873.772	235.909	-836.861	 H	6	PRO6	0.039	
84	   N	875.708	235.488	-839.941	N.am	7	LEU7	-0.416	
85	  CA	875.659	235.115	-841.352	C.3	7	LEU7	-0.052	
86	   C	875.528	236.337	-842.229	C.2	7	LEU7	0.597	
87	   O	876.235	236.504	-843.235	O.2	7	LEU7	-0.568	
88	  CB	874.496	234.116	-841.613	C.3	7	LEU7	-0.110	
89	  CG	874.486	232.782	-840.819	C.3	7	LEU7	0.353	
90	 CD1	873.330	231.892	-841.296	C.3	7	LEU7	-0.412	
91	 CD2	875.813	232.013	-840.933	C.3	7	LEU7	-0.412	
92	   H	875.036	235.111	-839.288	 H	7	LEU7	0.272	
93	  HA	876.620	234.642	-841.622	 H	7	LEU7	0.092	
94	 2HB	874.475	233.877	-842.695	 H	7	LEU7	0.046	
95	 3HB	873.534	234.635	-841.426	 H	7	LEU7	0.046	
96	  HG	874.314	233.019	-839.748	 H	7	LEU7	-0.036	
97	1HD1	872.351	232.397	-841.190	 H	7	LEU7	0.100	
98	2HD1	873.434	231.604	-842.359	 H	7	LEU7	0.100	
99	3HD1	873.268	230.957	-840.710	 H	7	LEU7	0.100	
100	1HD2	876.090	231.809	-841.983	 H	7	LEU7	0.100	
101	2HD2	876.646	232.581	-840.478	 H	7	LEU7	0.100	
102	3HD2	875.777	231.045	-840.400	 H	7	LEU7	0.100	
103	   N	874.653	237.235	-841.924	N.am	8	ASP8	-0.516	
104	  CA	874.526	238.417	-842.772	C.3	8	ASP8	0.038	
105	   C	875.841	239.149	-842.882	C.2	8	ASP8	0.537	
106	   O	876.290	239.533	-843.973	O.2	8	ASP8	-0.582	
107	  CB	873.410	239.356	-842.235	C.3	8	ASP8	-0.030	
108	  CG	873.131	240.604	-843.086	C.2	8	ASP8	0.799	
109	 OD1	873.190	240.517	-844.330	O.co2	8	ASP8	-0.801	
110	 OD2	872.896	241.683	-842.504	O.co2	8	ASP8	-0.801	
111	   H	874.065	237.122	-841.110	 H	8	ASP8	0.294	
112	  HA	874.250	238.083	-843.790	 H	8	ASP8	0.088	
113	 2HB	873.660	239.695	-841.213	 H	8	ASP8	-0.012	
114	 3HB	872.454	238.815	-842.144	 H	8	ASP8	-0.012	
115	   N	876.519	239.381	-841.809	N.am	9	GLU9	-0.516	
116	  CA	877.792	240.089	-841.916	C.3	9	GLU9	0.040	
117	   C	878.735	239.369	-842.848	C.2	9	GLU9	0.537	
118	   O	879.368	239.964	-843.732	O.2	9	GLU9	-0.582	
119	  CB	878.429	240.238	-840.505	C.3	9	GLU9	0.056	
120	  CG	879.780	241.023	-840.450	C.3	9	GLU9	0.014	
121	  CD	880.486	241.151	-839.114	C.2	9	GLU9	0.805	
122	 OE1	879.993	240.663	-838.079	O.co2	9	GLU9	-0.819	
123	 OE2	881.581	241.753	-839.117	O.co2	9	GLU9	-0.819	
124	   H	876.175	239.078	-840.909	 H	9	GLU9	0.294	
125	  HA	877.603	241.095	-842.334	 H	9	GLU9	0.111	
126	 2HB	878.589	239.235	-840.059	 H	9	GLU9	-0.017	
127	 3HB	877.715	240.731	-839.818	 H	9	GLU9	-0.017	
128	 2HG	879.661	242.048	-840.836	 H	9	GLU9	-0.043	
129	 3HG	880.543	240.551	-841.091	 H	9	GLU9	-0.043	
130	   N	878.888	238.094	-842.721	N.am	10	HIS10	-0.416	
131	  CA	879.800	237.396	-843.622	C.3	10	HIS10	-0.058	
132	   C	879.413	237.619	-845.064	C.2	10	HIS10	0.597	
133	   O	880.247	237.930	-845.928	O.2	10	HIS10	-0.568	
134	  CB	879.703	235.904	-843.265	C.3	10	HIS10	-0.007	
135	  CG	881.018	235.339	-842.811	C.2	10	HIS10	0.187	
136	 CD2	881.409	235.327	-841.479	C.2	10	HIS10	-0.221	
137	 ND1	881.989	234.772	-843.633	N.2	10	HIS10	-0.543	
138	 CE1	882.917	234.457	-842.710	C.2	10	HIS10	0.163	
139	 NE2	882.650	234.750	-841.408	N.pl3	10	HIS10	-0.280	
140	   H	878.383	237.586	-842.008	 H	10	HIS10	0.272	
141	  HA	880.802	237.839	-843.492	 H	10	HIS10	0.136	
142	 2HB	879.357	235.306	-844.132	 H	10	HIS10	0.037	
143	 3HB	878.961	235.713	-842.462	 H	10	HIS10	0.037	
144	 2HD	880.812	235.715	-840.659	 H	10	HIS10	0.186	
145	 1HE	883.826	233.983	-843.054	 H	10	HIS10	0.144	
146	 2HE	883.231	234.585	-840.572	 H	10	HIS10	0.334	
147	   N	878.178	237.481	-845.409	N.am	11	VAL11	-0.416	
148	  CA	877.803	237.696	-846.803	C.3	11	VAL11	-0.087	
149	   C	878.205	239.077	-847.264	C.2	11	VAL11	0.597	
150	   O	878.791	239.267	-848.337	O.2	11	VAL11	-0.568	
151	  CB	876.249	237.475	-846.982	C.3	11	VAL11	0.299	
152	 CG1	875.654	237.845	-848.368	C.3	11	VAL11	-0.319	
153	 CG2	875.788	236.021	-846.715	C.3	11	VAL11	-0.319	
154	   H	877.480	237.228	-844.724	 H	11	VAL11	0.272	
155	  HA	878.350	236.973	-847.435	 H	11	VAL11	0.097	
156	  HB	875.738	238.122	-846.236	 H	11	VAL11	-0.030	
157	1HG1	876.112	237.268	-849.193	 H	11	VAL11	0.079	
158	2HG1	874.561	237.674	-848.415	 H	11	VAL11	0.079	
159	3HG1	875.784	238.917	-848.611	 H	11	VAL11	0.079	
160	1HG2	876.101	235.668	-845.715	 H	11	VAL11	0.079	
161	2HG2	874.685	235.928	-846.740	 H	11	VAL11	0.079	
162	3HG2	876.196	235.309	-847.456	 H	11	VAL11	0.079	
163	   N	877.929	240.091	-846.515	N.am	12	GLN12	-0.416	
164	  CA	878.317	241.426	-846.960	C.3	12	GLN12	-0.003	
165	   C	879.803	241.501	-847.217	C.2	12	GLN12	0.597	
166	   O	880.262	242.009	-848.238	O.2	12	GLN12	-0.568	
167	  CB	877.889	242.450	-845.885	C.3	12	GLN12	-0.004	
168	  CG	878.182	243.952	-846.207	C.3	12	GLN12	-0.064	
169	  CD	877.841	245.020	-845.160	C.2	12	GLN12	0.695	
170	 NE2	877.296	244.672	-844.022	N.pl3	12	GLN12	-0.941	
171	 OE1	878.091	246.199	-845.358	O.2	12	GLN12	-0.609	
172	   H	877.452	239.962	-845.635	 H	12	GLN12	0.272	
173	  HA	877.801	241.647	-847.913	 H	12	GLN12	0.085	
174	 2HB	878.384	242.183	-844.927	 H	12	GLN12	0.017	
175	 3HB	876.804	242.336	-845.694	 H	12	GLN12	0.017	
176	 2HG	877.685	244.242	-847.151	 H	12	GLN12	0.035	
177	 3HG	879.259	244.099	-846.408	 H	12	GLN12	0.035	
178	1HE2	877.161	245.434	-843.357	 H	12	GLN12	0.425	
179	2HE2	877.177	243.665	-843.892	 H	12	GLN12	0.425	
180	   N	880.616	241.018	-846.339	N.am	13	ARG13	-0.348	
181	  CA	882.053	241.091	-846.589	C.3	13	ARG13	-0.264	
182	   C	882.409	240.417	-847.893	C.2	13	ARG13	0.734	
183	   O	883.150	240.946	-848.719	O.2	13	ARG13	-0.589	
184	  CB	882.803	240.442	-845.392	C.3	13	ARG13	-0.001	
185	  CG	884.340	240.676	-845.359	C.3	13	ARG13	0.039	
186	  CD	885.006	239.972	-844.165	C.3	13	ARG13	0.049	
187	  NE	886.473	240.249	-844.174	N.pl3	13	ARG13	-0.530	
188	  CZ	887.348	239.787	-843.286	C.cat	13	ARG13	0.808	
189	 NH1	887.023	239.016	-842.286	N.pl3	13	ARG13	-0.863	
190	 NH2	888.593	240.119	-843.419	N.pl3	13	ARG13	-0.863	
191	   H	880.264	240.595	-845.492	 H	13	ARG13	0.275	
192	  HA	882.330	242.158	-846.677	 H	13	ARG13	0.156	
193	 2HB	882.584	239.354	-845.382	 H	13	ARG13	0.033	
194	 3HB	882.368	240.817	-844.444	 H	13	ARG13	0.033	
195	 2HG	884.541	241.767	-845.329	 H	13	ARG13	0.029	
196	 3HG	884.800	240.314	-846.301	 H	13	ARG13	0.029	
197	 2HD	884.808	238.879	-844.226	 H	13	ARG13	0.069	
198	 3HD	884.540	240.324	-843.220	 H	13	ARG13	0.069	
199	  HE	886.894	240.840	-844.899	 H	13	ARG13	0.346	
200	1HH1	886.026	238.791	-842.240	 H	13	ARG13	0.448	
201	2HH1	887.755	238.704	-841.647	 H	13	ARG13	0.448	
202	1HH2	888.829	240.722	-844.209	 H	13	ARG13	0.448	
203	2HH2	889.250	239.755	-842.727	 H	13	ARG13	0.448	
204	   N	881.921	239.250	-848.148	N.am	14	VAL14	-0.416	
205	  CA	882.266	238.599	-849.408	C.3	14	VAL14	-0.087	
206	   C	881.889	239.466	-850.586	C.2	14	VAL14	0.597	
207	   O	882.668	239.672	-851.525	O.2	14	VAL14	-0.568	
208	  CB	881.553	237.191	-849.497	C.3	14	VAL14	0.299	
209	 CG1	881.665	236.446	-850.855	C.3	14	VAL14	-0.319	
210	 CG2	882.036	236.176	-848.433	C.3	14	VAL14	-0.319	
211	   H	881.310	238.795	-847.486	 H	14	VAL14	0.272	
212	  HA	883.361	238.457	-849.448	 H	14	VAL14	0.097	
213	  HB	880.469	237.361	-849.318	 H	14	VAL14	-0.030	
214	1HG1	882.714	236.243	-851.142	 H	14	VAL14	0.079	
215	2HG1	881.133	235.474	-850.846	 H	14	VAL14	0.079	
216	3HG1	881.205	237.012	-851.687	 H	14	VAL14	0.079	
217	1HG2	881.939	236.577	-847.408	 H	14	VAL14	0.079	
218	2HG2	881.440	235.243	-848.454	 H	14	VAL14	0.079	
219	3HG2	883.096	235.892	-848.574	 H	14	VAL14	0.079	
220	   N	880.720	240.010	-850.613	N.am	15	MET15	-0.416	
221	  CA	880.355	240.848	-851.751	C.3	15	MET15	-0.024	
222	   C	881.336	241.982	-851.926	C.2	15	MET15	0.597	
223	   O	881.819	242.268	-853.032	O.2	15	MET15	-0.568	
224	  CB	878.910	241.389	-851.566	C.3	15	MET15	0.034	
225	  CG	877.793	240.324	-851.515	C.3	15	MET15	0.002	
226	  SD	876.183	241.124	-851.592	S.3	15	MET15	-0.274	
227	  CE	875.165	239.719	-851.123	C.3	15	MET15	-0.054	
228	   H	880.066	239.857	-849.859	 H	15	MET15	0.272	
229	  HA	880.401	240.235	-852.671	 H	15	MET15	0.088	
230	 2HB	878.672	242.087	-852.391	 H	15	MET15	0.024	
231	 3HB	878.854	242.007	-850.647	 H	15	MET15	0.024	
232	 2HG	877.868	239.740	-850.578	 H	15	MET15	0.044	
233	 3HG	877.882	239.601	-852.348	 H	15	MET15	0.044	
234	 1HE	875.341	238.860	-851.796	 H	15	MET15	0.068	
235	 2HE	875.395	239.405	-850.090	 H	15	MET15	0.068	
236	 3HE	874.094	239.983	-851.172	 H	15	MET15	0.068	
237	   N	881.682	242.675	-850.894	N.am	16	ARG16	-0.348	
238	  CA	882.631	243.771	-851.064	C.3	16	ARG16	-0.264	
239	   C	883.920	243.280	-851.679	C.2	16	ARG16	0.734	
240	   O	884.082	242.105	-851.999	O.2	16	ARG16	-0.589	
241	  CB	882.881	244.436	-849.680	C.3	16	ARG16	-0.001	
242	  CG	883.648	245.788	-849.716	C.3	16	ARG16	0.039	
243	  CD	883.884	246.357	-848.307	C.3	16	ARG16	0.049	
244	  NE	884.603	247.661	-848.406	N.pl3	16	ARG16	-0.530	
245	  CZ	884.970	248.417	-847.376	C.cat	16	ARG16	0.808	
246	 NH1	884.744	248.099	-846.132	N.pl3	16	ARG16	-0.863	
247	 NH2	885.584	249.531	-847.618	N.pl3	16	ARG16	-0.863	
248	   H	881.303	242.462	-849.982	 H	16	ARG16	0.275	
249	  HA	882.185	244.505	-851.762	 H	16	ARG16	0.156	
250	 2HB	883.414	243.713	-849.029	 H	16	ARG16	0.033	
251	 3HB	881.908	244.596	-849.173	 H	16	ARG16	0.033	
252	 2HG	883.082	246.511	-850.338	 H	16	ARG16	0.029	
253	 3HG	884.625	245.657	-850.226	 H	16	ARG16	0.029	
254	 2HD	884.469	245.625	-847.708	 H	16	ARG16	0.069	
255	 3HD	882.908	246.479	-847.789	 H	16	ARG16	0.069	
256	  HE	884.859	248.054	-849.318	 H	16	ARG16	0.346	
257	1HH1	884.257	247.208	-846.010	 H	16	ARG16	0.448	
258	2HH1	885.056	248.735	-845.396	 H	16	ARG16	0.448	
259	1HH2	885.753	249.763	-848.599	 H	16	ARG16	0.448	
260	2HH2	885.856	250.099	-846.813	 H	16	ARG16	0.448	
@<TRIPOS>BOND
1 1 2 1
2 1 10 1
3 2 3 1
4 2 5 1
5 2 11 1
6 3 4 2
7 3 16 1
8 5 6 1
9 6 7 1
10 7 8 2
11 7 9 1
12 5 12 1
13 5 13 1
14 6 14 1
15 6 15 1
16 16 17 1
17 16 24 1
18 17 18 1
19 17 20 1
20 17 25 1
21 18 19 2
22 18 30 1
23 20 21 1
24 21 22 1
25 21 23 2
26 20 26 1
27 20 27 1
28 22 28 1
29 22 29 1
30 30 31 1
31 30 36 1
32 31 32 1
33 31 34 1
34 31 37 1
35 32 33 2
36 32 44 1
37 34 35 1
38 35 36 1
39 34 38 1
40 34 39 1
41 35 40 1
42 35 41 1
43 36 42 1
44 36 43 1
45 44 45 1
46 44 53 1
47 45 46 1
48 45 48 1
49 45 54 1
50 46 47 2
51 46 59 1
52 48 49 1
53 49 50 1
54 50 51 2
55 50 52 1
56 48 55 1
57 48 56 1
58 49 57 1
59 49 58 1
60 59 60 1
61 59 65 1
62 60 61 1
63 60 63 1
64 60 66 1
65 61 62 2
66 61 70 1
67 63 64 1
68 63 67 1
69 63 68 1
70 64 69 1
71 70 71 1
72 70 76 1
73 71 72 1
74 71 74 1
75 71 77 1
76 72 73 2
77 72 84 1
78 74 75 1
79 75 76 1
80 74 78 1
81 74 79 1
82 75 80 1
83 75 81 1
84 76 82 1
85 76 83 1
86 84 85 1
87 84 92 1
88 85 86 1
89 85 88 1
90 85 93 1
91 86 87 2
92 86 103 1
93 88 89 1
94 89 90 1
95 89 91 1
96 88 94 1
97 88 95 1
98 89 96 1
99 90 97 1
100 90 98 1
101 90 99 1
102 91 100 1
103 91 101 1
104 91 102 1
105 103 104 1
106 103 111 1
107 104 105 1
108 104 107 1
109 104 112 1
110 105 106 2
111 105 115 1
112 107 108 1
113 108 109 2
114 108 110 1
115 107 113 1
116 107 114 1
117 115 116 1
118 115 124 1
119 116 117 1
120 116 119 1
121 116 125 1
122 117 118 2
123 117 130 1
124 119 120 1
125 120 121 1
126 121 122 2
127 121 123 1
128 119 126 1
129 119 127 1
130 120 128 1
131 120 129 1
132 130 131 1
133 130 140 1
134 131 132 1
135 131 134 1
136 131 141 1
137 132 133 2
138 132 147 1
139 134 135 1
140 135 136 2
141 136 139 1
142 135 137 1
143 137 138 2
144 138 139 1
145 134 142 1
146 134 143 1
147 136 144 1
148 138 145 1
149 139 146 1
150 147 148 1
151 147 154 1
152 148 149 1
153 148 151 1
154 148 155 1
155 149 150 2
156 149 163 1
157 151 152 1
158 151 153 1
159 151 156 1
160 152 157 1
161 152 158 1
162 152 159 1
163 153 160 1
164 153 161 1
165 153 162 1
166 163 164 1
167 163 172 1
168 164 165 1
169 164 167 1
170 164 173 1
171 165 166 2
172 165 180 1
173 167 168 1
174 168 169 1
175 169 170 1
176 169 171 2
177 167 174 1
178 167 175 1
179 168 176 1
180 168 177 1
181 170 178 1
182 170 179 1
183 180 181 1
184 180 191 1
185 181 182 1
186 181 184 1
187 181 192 1
188 182 183 2
189 182 204 1
190 184 185 1
191 185 186 1
192 186 187 1
193 187 188 1
194 188 189 2
195 188 190 1
196 184 193 1
197 184 194 1
198 185 195 1
199 185 196 1
200 186 197 1
201 186 198 1
202 187 199 1
203 189 200 1
204 189 201 1
205 190 202 1
206 190 203 1
207 204 205 1
208 204 211 1
209 205 206 1
210 205 208 1
211 205 212 1
212 206 207 2
213 206 220 1
214 208 209 1
215 208 210 1
216 208 213 1
217 209 214 1
218 209 215 1
219 209 216 1
220 210 217 1
221 210 218 1
222 210 219 1
223 220 221 1
224 220 228 1
225 221 222 1
226 221 224 1
227 221 229 1
228 222 223 2
229 222 237 1
230 224 225 1
231 225 226 1
232 226 227 1
233 224 230 1
234 224 231 1
235 225 232 1
236 225 233 1
237 227 234 1
238 227 235 1
239 227 236 1
240 237 238 1
241 237 248 1
242 238 239 1
243 238 241 1
244 238 249 1
245 239 240 2
246 241 242 1
247 242 243 1
248 243 244 1
249 244 245 1
250 245 246 2
251 245 247 1
252 241 250 1
253 241 251 1
254 242 252 1
255 242 253 1
256 243 254 1
257 243 255 1
258 244 256 1
259 246 257 1
260 246 258 1
261 247 259 1
262 247 260 1
@<TRIPOS>SUBSTRUCTURE
1	GLU1	1	RESIDUE	1 ****	GLU
2	ASN2	16	RESIDUE	1 ****	ASN
3	PRO3	30	RESIDUE	1 ****	PRO
4	GLU4	44	RESIDUE	1 ****	GLU
5	SER5	59	RESIDUE	1 ****	SER
6	PRO6	70	RESIDUE	1 ****	PRO
7	LEU7	84	RESIDUE	1 ****	LEU
8	ASP8	103	RESIDUE	1 ****	ASP
9	GLU9	115	RESIDUE	1 ****	GLU
10	HIS10	130	RESIDUE	1 ****	HIS
11	VAL11	147	RESIDUE	1 ****	VAL
12	GLN12	163	RESIDUE	1 ****	GLN
13	ARG13	180	RESIDUE	1 ****	ARG
14	VAL14	204	RESIDUE	1 ****	VAL
15	MET15	220	RESIDUE	1 ****	MET
16	ARG16	237	RESIDUE	1 ****	ARG
