REMARK WARNING: 32 MAX_TORS EXCEEDED!!!
REMARK  69 active torsions:
REMARK  status: ('A' for Active; 'I' for Inactive)
REMARK    1  A    between atoms: N_1  and  CA_2 
REMARK    2  A    between atoms: CA_2  and  C_3 
REMARK    3  A    between atoms: CA_2  and  CB_5 
REMARK       I    between atoms: C_3  and  N_11 
REMARK    4  A    between atoms: CB_5  and  CG_6 
REMARK    5  A    between atoms: CG_6  and  CD_7 
REMARK    6  A    between atoms: N_11  and  CA_12 
REMARK    7  A    between atoms: CA_12  and  C_13 
REMARK    8  A    between atoms: CA_12  and  CB_15 
REMARK       I    between atoms: C_13  and  N_22 
REMARK    9  A    between atoms: CB_15  and  CG_16 
REMARK       I    between atoms: CG_16  and  ND2_17 
REMARK   10  A    between atoms: CA_23  and  C_24 
REMARK       I    between atoms: C_24  and  N_29 
REMARK   11  A    between atoms: N_29  and  CA_30 
REMARK   12  A    between atoms: CA_30  and  C_31 
REMARK   13  A    between atoms: CA_30  and  CB_33 
REMARK       I    between atoms: C_31  and  N_39 
REMARK   14  A    between atoms: CB_33  and  CG_34 
REMARK   15  A    between atoms: CG_34  and  CD_35 
REMARK   16  A    between atoms: N_39  and  CA_40 
REMARK   17  A    between atoms: CA_40  and  C_41 
REMARK   18  A    between atoms: CA_40  and  CB_43 
REMARK       I    between atoms: C_41  and  N_47 
REMARK   19  A    between atoms: CB_43  and  OG_44 
REMARK   20  A    between atoms: N_47  and  CA_48 
REMARK   21  A    between atoms: CA_48  and  C_49 
REMARK   22  A    between atoms: CA_48  and  CB_51 
REMARK       I    between atoms: C_49  and  N_56 
REMARK   23  A    between atoms: CB_51  and  CG1_52 
REMARK   24  A    between atoms: N_56  and  CA_57 
REMARK   25  A    between atoms: CA_57  and  C_58 
REMARK   26  A    between atoms: CA_57  and  CB_60 
REMARK       I    between atoms: C_58  and  N_65 
REMARK   27  A    between atoms: CB_60  and  CG_61 
REMARK   28  A    between atoms: N_65  and  CA_66 
REMARK   29  A    between atoms: CA_66  and  C_67 
REMARK   30  A    between atoms: CA_66  and  CB_69 
REMARK       I    between atoms: C_67  and  N_74 
REMARK   31  A    between atoms: CB_69  and  CG_70 
REMARK   32  A    between atoms: N_74  and  CA_75 
REMARK   33  A    between atoms: CA_75  and  C_76 
REMARK   34  A    between atoms: CA_75  and  CB_78 
REMARK       I    between atoms: C_76  and  N_84 
REMARK   35  A    between atoms: CB_78  and  CG_79 
REMARK   36  A    between atoms: CG_79  and  CD_80 
REMARK   37  A    between atoms: N_84  and  CA_85 
REMARK   38  A    between atoms: CA_85  and  C_86 
REMARK   39  A    between atoms: CA_85  and  CB_88 
REMARK       I    between atoms: C_86  and  N_96 
REMARK   40  A    between atoms: CB_88  and  CG_89 
REMARK   41  A    between atoms: N_96  and  CA_97 
REMARK   42  A    between atoms: CA_97  and  C_98 
REMARK   43  A    between atoms: CA_97  and  CB_100 
REMARK       I    between atoms: C_98  and  N_104 
REMARK   44  A    between atoms: N_104  and  CA_105 
REMARK   45  A    between atoms: CA_105  and  C_106 
REMARK   46  A    between atoms: CA_105  and  CB_108 
REMARK       I    between atoms: C_106  and  N_116 
REMARK   47  A    between atoms: CB_108  and  CG_109 
REMARK   48  A    between atoms: CG_109  and  CD_110 
REMARK       I    between atoms: CD_110  and  NE2_111 
REMARK   49  A    between atoms: N_116  and  CA_117 
REMARK   50  A    between atoms: CA_117  and  C_118 
REMARK   51  A    between atoms: CA_117  and  CB_120 
REMARK       I    between atoms: C_118  and  N_133 
REMARK   52  A    between atoms: CB_120  and  CG_121 
REMARK   53  A    between atoms: CG_121  and  CD_122 
REMARK   54  A    between atoms: CD_122  and  NE_123 
REMARK       I    between atoms: NE_123  and  CZ_124 
REMARK       I    between atoms: CZ_124  and  NH1_125 
REMARK       I    between atoms: CZ_124  and  NH2_126 
REMARK   55  A    between atoms: N_133  and  CA_134 
REMARK   56  A    between atoms: CA_134  and  C_135 
REMARK   57  A    between atoms: CA_134  and  CB_137 
REMARK       I    between atoms: C_135  and  N_141 
REMARK   58  A    between atoms: CB_137  and  SG_138 
REMARK   59  A    between atoms: N_141  and  CA_142 
REMARK   60  A    between atoms: CA_142  and  C_143 
REMARK   61  A    between atoms: CA_142  and  CB_145 
REMARK       I    between atoms: C_143  and  N_150 
REMARK   62  A    between atoms: CB_145  and  CG_146 
REMARK   63  A    between atoms: CG_146  and  SD_147 
REMARK   64  A    between atoms: N_150  and  CA_151 
REMARK   65  A    between atoms: CA_151  and  C_152 
REMARK   66  A    between atoms: CA_151  and  CB_154 
REMARK   67  A    between atoms: CB_154  and  CG_155 
REMARK   68  A    between atoms: CG_155  and  CD_156 
REMARK   69  A    between atoms: CD_156  and  NE_157 
REMARK       I    between atoms: NE_157  and  CZ_158 
REMARK       I    between atoms: CZ_158  and  NH1_159 
ROOT
ATOM      1  C   GLU d   9    2269.115 695.848-2354.870  0.00  0.00     0.241 C 
ATOM      2  O   GLU d   9    2269.778 696.601-2355.596  0.00  0.00    -0.271 OA
ATOM      3  N   HIS d  10    2269.210 694.572-2355.039  0.00  0.00    -0.346 N 
ATOM      4  H   HIS d  10    2268.680 693.937-2354.460  0.00  0.00     0.163 HD
ENDROOT
BRANCH   1   5
ATOM      5  CA  GLU d   9    2268.197 696.376-2353.794  0.00  0.00     0.177 C 
BRANCH   5   6
ATOM      6  N   GLU d   9    2266.894 695.719-2353.849  0.00  0.00    -0.346 N 
ATOM      7  C   ASP d   8    2266.214 695.769-2354.944  0.00  0.00     0.241 C 
ATOM      8  O   ASP d   8    2266.687 696.373-2355.919  0.00  0.00    -0.271 OA
ATOM      9  H   GLU d   9    2266.530 695.233-2353.042  0.00  0.00     0.163 HD
BRANCH   7  10
ATOM     10  CA  ASP d   8    2264.867 695.090-2355.001  0.00  0.00     0.186 C 
BRANCH  10  11
ATOM     11  N   ASP d   8    2264.937 693.740-2354.447  0.00  0.00    -0.346 N 
ATOM     12  C   LEU d   7    2265.773 692.899-2354.953  0.00  0.00     0.241 C 
ATOM     13  O   LEU d   7    2266.494 693.261-2355.895  0.00  0.00    -0.271 OA
ATOM     14  H   ASP d   8    2264.339 693.470-2353.679  0.00  0.00     0.163 HD
BRANCH  12  15
ATOM     15  CA  LEU d   7    2265.845 691.504-2354.380  0.00  0.00     0.177 C 
BRANCH  15  16
ATOM     16  N   LEU d   7    2265.900 691.540-2352.921  0.00  0.00    -0.346 N 
ATOM     17  C   ILE d   6    2266.846 692.203-2352.348  0.00  0.00     0.241 C 
ATOM     18  O   ILE d   6    2267.681 692.790-2353.052  0.00  0.00    -0.271 OA
ATOM     19  H   LEU d   7    2265.208 691.053-2352.370  0.00  0.00     0.163 HD
BRANCH  17  20
ATOM     20  CA  ILE d   6    2266.904 692.241-2350.840  0.00  0.00     0.180 C 
BRANCH  20  21
ATOM     21  N   ILE d   6    2265.590 692.536-2350.274  0.00  0.00    -0.346 N 
ATOM     22  C   SER d   5    2264.986 693.620-2350.628  0.00  0.00     0.243 C 
ATOM     23  O   SER d   5    2265.534 694.373-2351.433  0.00  0.00    -0.271 OA
ATOM     24  H   ILE d   6    2265.161 691.902-2349.615  0.00  0.00     0.163 HD
BRANCH  22  25
ATOM     25  CA  SER d   5    2263.627 693.926-2350.043  0.00  0.00     0.200 C 
BRANCH  25  26
ATOM     26  N   SER d   5    2262.757 692.755-2350.102  0.00  0.00    -0.344 N 
ATOM     27  C   GLU d   4    2262.530 692.202-2351.245  0.00  0.00     0.241 C 
ATOM     28  O   GLU d   4    2263.057 692.681-2352.260  0.00  0.00    -0.271 OA
ATOM     29  H   SER d   5    2262.340 692.383-2349.261  0.00  0.00     0.163 HD
BRANCH  27  30
ATOM     30  CA  GLU d   4    2261.631 690.991-2351.307  0.00  0.00     0.177 C 
BRANCH  30  31
ATOM     31  N   GLU d   4    2261.990 690.020-2350.277  0.00  0.00    -0.346 N 
ATOM     32  C   PRO d   3    2263.195 689.560-2350.244  0.00  0.00     0.241 C 
ATOM     33  O   PRO d   3    2264.019 689.943-2351.076  0.00  0.00    -0.271 OA
ATOM     34  H   GLU d   4    2261.306 689.714-2349.601  0.00  0.00     0.163 HD
BRANCH  32  35
ATOM     35  CA  PRO d   3    2263.593 688.536-2349.167  0.00  0.00     0.179 C 
ATOM     36  N   PRO d   3    2263.141 688.946-2347.846  0.00  0.00    -0.337 N 
ATOM     37  C   ASN d   2    2263.662 689.940-2347.212  0.00  0.00     0.243 C 
ATOM     38  CD  PRO d   3    2262.062 688.153-2347.297  0.00  0.00     0.127 C 
ATOM     39  O   ASN d   2    2264.577 690.571-2347.740  0.00  0.00    -0.271 OA
ATOM     40  CG  PRO d   3    2261.605 687.334-2348.507  0.00  0.00     0.022 C 
ATOM     41  CB  PRO d   3    2262.888 687.182-2349.337  0.00  0.00     0.037 C 
BRANCH  37  42
ATOM     42  CA  ASN d   2    2263.131 690.296-2345.843  0.00  0.00     0.185 C 
BRANCH  42  43
ATOM     43  N   ASN d   2    2261.671 690.335-2345.843  0.00  0.00    -0.346 N 
ATOM     44  C   GLU d   1    2261.067 691.121-2346.668  0.00  0.00     0.242 C 
ATOM     45  O   GLU d   1    2261.743 691.820-2347.437  0.00  0.00    -0.271 OA
ATOM     46  H   ASN d   2    2261.143 689.755-2345.207  0.00  0.00     0.163 HD
BRANCH  44  47
ATOM     47  CA  GLU d   1    2259.558 691.161-2346.668  0.00  0.00     0.191 C 
BRANCH  47  48
ATOM     48  N   GLU d   1    2258.999 689.812-2346.668  0.00  0.00    -0.326 NA
ATOM     49  H   GLU d   1    2259.626 688.933-2346.668  0.00  0.00     0.180 HD
ENDBRANCH  47  48
BRANCH  47  50
ATOM     50  CB  GLU d   1    2259.035 691.946-2345.432  0.00  0.00     0.047 C 
BRANCH  50  51
ATOM     51  CG  GLU d   1    2259.510 693.431-2345.321  0.00  0.00     0.116 C 
BRANCH  51  52
ATOM     52  CD  GLU d   1    2259.086 694.235-2344.105  0.00  0.00     0.172 C 
ATOM     53  OE1 GLU d   1    2258.358 693.733-2343.228  0.00  0.00    -0.648 OA
ATOM     54  OE2 GLU d   1    2259.516 695.405-2344.033  0.00  0.00    -0.648 OA
ENDBRANCH  51  52
ENDBRANCH  50  51
ENDBRANCH  47  50
ENDBRANCH  44  47
ENDBRANCH  42  43
BRANCH  42  55
ATOM     55  CB  ASN d   2    2263.622 689.273-2344.779  0.00  0.00     0.137 C 
BRANCH  55  56
ATOM     56  CG  ASN d   2    2263.159 689.497-2343.335  0.00  0.00     0.217 C 
ATOM     57  ND2 ASN d   2    2263.753 690.412-2342.617  0.00  0.00    -0.370 N 
ATOM     58 21HD ASN d   2    2263.272 690.585-2341.731  0.00  0.00     0.159 HD
ATOM     59 22HD ASN d   2    2264.455 690.983-2343.086  0.00  0.00     0.159 HD
ATOM     60  OD1 ASN d   2    2262.238 688.864-2342.841  0.00  0.00    -0.274 OA
ENDBRANCH  55  56
ENDBRANCH  42  55
ENDBRANCH  37  42
ENDBRANCH  32  35
ENDBRANCH  30  31
BRANCH  30  61
ATOM     61  CB  GLU d   4    2260.143 691.410-2351.137  0.00  0.00     0.045 C 
BRANCH  61  62
ATOM     62  CG  GLU d   4    2259.595 692.414-2352.203  0.00  0.00     0.116 C 
BRANCH  62  63
ATOM     63  CD  GLU d   4    2258.169 692.911-2352.060  0.00  0.00     0.172 C 
ATOM     64  OE1 GLU d   4    2257.442 692.513-2351.129  0.00  0.00    -0.648 OA
ATOM     65  OE2 GLU d   4    2257.780 693.740-2352.908  0.00  0.00    -0.648 OA
ENDBRANCH  62  63
ENDBRANCH  61  62
ENDBRANCH  30  61
ENDBRANCH  27  30
ENDBRANCH  25  26
BRANCH  25  66
ATOM     66  CB  SER d   5    2263.739 694.458-2348.593  0.00  0.00     0.199 C 
BRANCH  66  67
ATOM     67  OG  SER d   5    2264.469 693.578-2347.732  0.00  0.00    -0.398 OA
ATOM     68  HG  SER d   5    2263.980 692.753-2347.681  0.00  0.00     0.209 HD
ENDBRANCH  66  67
ENDBRANCH  25  66
ENDBRANCH  22  25
ENDBRANCH  20  21
BRANCH  20  69
ATOM     69  CB  ILE d   6    2267.503 690.904-2350.240  0.00  0.00     0.013 C 
ATOM     70  CG2 ILE d   6    2268.944 690.602-2350.755  0.00  0.00     0.012 C 
BRANCH  69  71
ATOM     71  CG1 ILE d   6    2267.521 690.842-2348.679  0.00  0.00     0.002 C 
ATOM     72  CD1 ILE d   6    2267.791 689.453-2348.064  0.00  0.00     0.005 C 
ENDBRANCH  69  71
ENDBRANCH  20  69
ENDBRANCH  17  20
ENDBRANCH  15  16
BRANCH  15  73
ATOM     73  CB  LEU d   7    2264.642 690.644-2354.860  0.00  0.00     0.038 C 
BRANCH  73  74
ATOM     74  CG  LEU d   7    2264.569 689.165-2354.394  0.00  0.00    -0.020 C 
ATOM     75  CD1 LEU d   7    2263.379 688.459-2355.059  0.00  0.00     0.009 C 
ATOM     76  CD2 LEU d   7    2265.862 688.385-2354.685  0.00  0.00     0.009 C 
ENDBRANCH  73  74
ENDBRANCH  15  73
ENDBRANCH  12  15
ENDBRANCH  10  11
BRANCH  10  77
ATOM     77  CB  ASP d   8    2263.789 695.930-2354.260  0.00  0.00     0.147 C 
BRANCH  77  78
ATOM     78  CG  ASP d   8    2263.571 697.350-2354.801  0.00  0.00     0.175 C 
ATOM     79  OD1 ASP d   8    2263.635 697.548-2356.032  0.00  0.00    -0.648 OA
ATOM     80  OD2 ASP d   8    2263.380 698.277-2353.987  0.00  0.00    -0.648 OA
ENDBRANCH  77  78
ENDBRANCH  10  77
ENDBRANCH   7  10
ENDBRANCH   5   6
BRANCH   5  81
ATOM     81  CB  GLU d   9    2268.831 696.169-2352.389  0.00  0.00     0.045 C 
BRANCH  81  82
ATOM     82  CG  GLU d   9    2270.214 696.861-2352.160  0.00  0.00     0.116 C 
BRANCH  82  83
ATOM     83  CD  GLU d   9    2270.916 696.648-2350.832  0.00  0.00     0.172 C 
ATOM     84  OE1 GLU d   9    2270.394 695.957-2349.935  0.00  0.00    -0.648 OA
ATOM     85  OE2 GLU d   9    2272.035 697.185-2350.701  0.00  0.00    -0.648 OA
ENDBRANCH  82  83
ENDBRANCH  81  82
ENDBRANCH   5  81
ENDBRANCH   1   5
BRANCH   3  86
ATOM     86  CA  HIS d  10    2270.098 694.060-2356.080  0.00  0.00     0.182 C 
BRANCH  86  87
ATOM     87  C   HIS d  10    2269.731 694.624-2357.431  0.00  0.00     0.241 C 
ATOM     88  O   HIS d  10    2270.583 695.088-2358.203  0.00  0.00    -0.271 OA
ATOM     89  N   VAL d  11    2268.493 694.624-2357.794  0.00  0.00    -0.346 N 
ATOM     90  H   VAL d  11    2267.780 694.251-2357.183  0.00  0.00     0.163 HD
BRANCH  89  91
ATOM     91  CA  VAL d  11    2268.138 695.169-2359.101  0.00  0.00     0.180 C 
BRANCH  91  92
ATOM     92  C   VAL d  11    2268.603 696.599-2359.234  0.00  0.00     0.241 C 
ATOM     93  O   VAL d  11    2269.204 697.004-2360.237  0.00  0.00    -0.271 OA
ATOM     94  N   GLN d  12    2268.367 697.426-2358.272  0.00  0.00    -0.346 N 
ATOM     95  H   GLN d  12    2267.878 697.120-2357.443  0.00  0.00     0.163 HD
BRANCH  94  96
ATOM     96  CA  GLN d  12    2268.816 698.808-2358.400  0.00  0.00     0.177 C 
BRANCH  96  97
ATOM     97  C   GLN d  12    2270.306 698.875-2358.638  0.00  0.00     0.241 C 
ATOM     98  O   GLN d  12    2270.793 699.582-2359.517  0.00  0.00    -0.271 OA
ATOM     99  N   ARG d  13    2271.090 698.168-2357.897  0.00  0.00    -0.346 N 
ATOM    100  H   ARG d  13    2270.714 697.579-2357.168  0.00  0.00     0.163 HD
BRANCH  99 101
ATOM    101  CA  ARG d  13    2272.531 698.233-2358.128  0.00  0.00     0.176 C 
BRANCH 101 102
ATOM    102  C   ARG d  13    2272.866 697.861-2359.553  0.00  0.00     0.241 C 
ATOM    103  O   ARG d  13    2273.635 698.532-2360.238  0.00  0.00    -0.271 OA
ATOM    104  N   CYS d  14    2272.330 696.806-2360.067  0.00  0.00    -0.345 N 
ATOM    105  H   CYS d  14    2271.695 696.238-2359.524  0.00  0.00     0.163 HD
BRANCH 104 106
ATOM    106  CA  CYS d  14    2272.654 696.445-2361.444  0.00  0.00     0.185 C 
BRANCH 106 107
ATOM    107  C   CYS d  14    2272.324 697.575-2362.391  0.00  0.00     0.241 C 
ATOM    108  O   CYS d  14    2273.119 697.956-2363.262  0.00  0.00    -0.271 OA
ATOM    109  N   MET d  15    2271.180 698.162-2362.290  0.00  0.00    -0.346 N 
ATOM    110  H   MET d  15    2270.515 697.871-2361.588  0.00  0.00     0.163 HD
BRANCH 109 111
ATOM    111  CA  MET d  15    2270.860 699.254-2363.204  0.00  0.00     0.177 C 
BRANCH 111 112
ATOM    112  C   MET d  15    2271.891 700.353-2363.118  0.00  0.00     0.241 C 
ATOM    113  O   MET d  15    2272.394 700.862-2364.132  0.00  0.00    -0.271 OA
ATOM    114  N   ARG d  16    2272.260 700.776-2361.956  0.00  0.00    -0.347 N 
ATOM    115  H   ARG d  16    2271.865 700.377-2361.116  0.00  0.00     0.163 HD
BRANCH 114 116
ATOM    116  CA  ARG d  16    2273.258 701.839-2361.874  0.00  0.00     0.162 C 
BRANCH 116 117
ATOM    117  C   ARG d  16    2274.528 701.444-2362.590  0.00  0.00     0.219 C 
ATOM    118  O   ARG d  16    2274.640 700.367-2363.170  0.00  0.00    -0.287 OA
ENDBRANCH 116 117
BRANCH 116 119
ATOM    119  CB  ARG d  16    2273.528 702.158-2360.376  0.00  0.00     0.035 C 
BRANCH 119 120
ATOM    120  CG  ARG d  16    2274.354 703.447-2360.105  0.00  0.00     0.023 C 
BRANCH 120 121
ATOM    121  CD  ARG d  16    2274.604 703.668-2358.604  0.00  0.00     0.138 C 
BRANCH 121 122
ATOM    122  NE  ARG d  16    2275.381 704.926-2358.405  0.00  0.00    -0.227 N 
ATOM    123  CZ  ARG d  16    2275.774 705.410-2357.230  0.00  0.00     0.665 C 
ATOM    124  NH1 ARG d  16    2275.526 704.827-2356.091  0.00  0.00    -0.235 N 
ATOM    125  NH2 ARG d  16    2276.438 706.522-2357.213  0.00  0.00    -0.235 N 
ATOM    126 11HH ARG d  16    2275.000 703.954-2356.174  0.00  0.00     0.174 HD
ATOM    127 12HH ARG d  16    2275.861 705.263-2355.231  0.00  0.00     0.174 HD
ATOM    128 21HH ARG d  16    2276.624 706.964-2358.116  0.00  0.00     0.174 HD
ATOM    129 22HH ARG d  16    2276.729 706.878-2356.301  0.00  0.00     0.174 HD
ATOM    130  HE  ARG d  16    2275.660 705.506-2359.203  0.00  0.00     0.177 HD
ENDBRANCH 121 122
ENDBRANCH 120 121
ENDBRANCH 119 120
ENDBRANCH 116 119
ENDBRANCH 114 116
ENDBRANCH 111 112
BRANCH 111 131
ATOM    131  CB  MET d  15    2269.439 699.801-2362.896  0.00  0.00     0.045 C 
BRANCH 131 132
ATOM    132  CG  MET d  15    2268.276 698.804-2363.086  0.00  0.00     0.076 C 
BRANCH 132 133
ATOM    133  SD  MET d  15    2266.703 699.671-2362.973  0.00  0.00    -0.173 SA
ATOM    134  CE  MET d  15    2265.621 698.242-2362.834  0.00  0.00     0.089 C 
ENDBRANCH 132 133
ENDBRANCH 131 132
ENDBRANCH 111 131
ENDBRANCH 109 111
ENDBRANCH 106 107
BRANCH 106 135
ATOM    135  CB  CYS d  14    2271.909 695.144-2361.798  0.00  0.00     0.105 C 
BRANCH 135 136
ATOM    136  SG  CYS d  14    2272.407 694.544-2363.428  0.00  0.00    -0.180 SA
ATOM    137  HG  CYS d  14    2271.300 694.900-2364.075  0.00  0.00     0.101 HD
ENDBRANCH 135 136
ENDBRANCH 106 135
ENDBRANCH 104 106
ENDBRANCH 101 102
BRANCH 101 138
ATOM    138  CB  ARG d  13    2273.244 697.295-2357.114  0.00  0.00     0.036 C 
BRANCH 138 139
ATOM    139  CG  ARG d  13    2274.789 697.448-2357.033  0.00  0.00     0.023 C 
BRANCH 139 140
ATOM    140  CD  ARG d  13    2275.416 696.460-2356.035  0.00  0.00     0.138 C 
BRANCH 140 141
ATOM    141  NE  ARG d  13    2276.893 696.667-2355.985  0.00  0.00    -0.227 N 
ATOM    142  CZ  ARG d  13    2277.741 695.976-2355.230  0.00  0.00     0.665 C 
ATOM    143  NH1 ARG d  13    2277.376 695.012-2354.431  0.00  0.00    -0.235 N 
ATOM    144  NH2 ARG d  13    2279.001 696.274-2355.287  0.00  0.00    -0.235 N 
ATOM    145 11HH ARG d  13    2276.371 694.826-2354.434  0.00  0.00     0.174 HD
ATOM    146 12HH ARG d  13    2278.089 694.529-2353.883  0.00  0.00     0.174 HD
ATOM    147 21HH ARG d  13    2279.269 697.032-2355.919  0.00  0.00     0.174 HD
ATOM    148 22HH ARG d  13    2279.636 695.733-2354.698  0.00  0.00     0.174 HD
ATOM    149  HE  ARG d  13    2277.344 697.389-2356.557  0.00  0.00     0.177 HD
ENDBRANCH 140 141
ENDBRANCH 139 140
ENDBRANCH 138 139
ENDBRANCH 101 138
ENDBRANCH  99 101
ENDBRANCH  96  97
BRANCH  96 150
ATOM    150  CB  GLN d  12    2268.426 699.577-2357.118  0.00  0.00     0.044 C 
BRANCH 150 151
ATOM    151  CG  GLN d  12    2268.787 701.098-2357.087  0.00  0.00     0.105 C 
BRANCH 151 152
ATOM    152  CD  GLN d  12    2268.485 701.913-2355.823  0.00  0.00     0.215 C 
ATOM    153  NE2 GLN d  12    2267.918 701.337-2354.794  0.00  0.00    -0.370 N 
ATOM    154 21HE GLN d  12    2267.812 701.932-2353.970  0.00  0.00     0.159 HD
ATOM    155 22HE GLN d  12    2267.754 700.334-2354.896  0.00  0.00     0.159 HD
ATOM    156  OE1 GLN d  12    2268.788 703.093-2355.746  0.00  0.00    -0.274 OA
ENDBRANCH 151 152
ENDBRANCH 150 151
ENDBRANCH  96 150
ENDBRANCH  94  96
ENDBRANCH  91  92
BRANCH  91 157
ATOM    157  CB  VAL d  11    2266.576 695.063-2359.320  0.00  0.00     0.009 C 
ATOM    158  CG1 VAL d  11    2266.008 695.767-2360.583  0.00  0.00     0.012 C 
ATOM    159  CG2 VAL d  11    2266.051 693.609-2359.392  0.00  0.00     0.012 C 
ENDBRANCH  91 157
ENDBRANCH  89  91
ENDBRANCH  86  87
BRANCH  86 160
ATOM    160  CB  HIS d  10    2269.933 692.531-2356.074  0.00  0.00     0.095 C 
BRANCH 160 161
ATOM    161  CG  HIS d  10    2271.219 691.820-2355.766  0.00  0.00     0.053 A 
ATOM    162  CD2 HIS d  10    2271.600 691.486-2354.473  0.00  0.00     0.116 A 
ATOM    163  NE2 HIS d  10    2272.814 690.853-2354.540  0.00  0.00    -0.359 N 
ATOM    164  CE1 HIS d  10    2273.076 690.856-2355.875  0.00  0.00     0.207 A 
ATOM    165  2HE HIS d  10    2273.381 690.476-2353.767  0.00  0.00     0.166 HD
ATOM    166  ND1 HIS d  10    2272.170 691.414-2356.698  0.00  0.00    -0.247 NA
ENDBRANCH 160 161
ENDBRANCH  86 160
ENDBRANCH   3  86
TORSDOF 69
