@<TRIPOS>MOLECULE
12-4
264 265 16              
SMALL
USER_CHARGES
@<TRIPOS>ATOM
1	   N	1870.344	562.580	-1920.091	N.3	1	GLU1	-0.516	
2	  CA	1870.903	563.929	-1920.091	C.3	1	GLU1	0.040	
3	   C	1872.412	563.889	-1920.091	C.2	1	GLU1	0.537	
4	   O	1873.088	564.588	-1920.860	O.2	1	GLU1	-0.582	
5	  CB	1870.380	564.714	-1918.854	C.3	1	GLU1	0.056	
6	  CG	1870.855	566.199	-1918.743	C.3	1	GLU1	0.014	
7	  CD	1870.431	567.003	-1917.528	C.2	1	GLU1	0.805	
8	 OE1	1869.703	566.501	-1916.650	O.co2	1	GLU1	-0.819	
9	 OE2	1870.861	568.173	-1917.456	O.co2	1	GLU1	-0.819	
10	   H	1870.971	561.701	-1920.091	 H	1	GLU1	0.294	
11	  HA	1870.577	564.447	-1921.011	 H	1	GLU1	0.111	
12	 2HB	1870.669	564.183	-1917.924	 H	1	GLU1	-0.017	
13	 3HB	1869.273	564.704	-1918.841	 H	1	GLU1	-0.017	
14	 2HG	1870.545	566.784	-1919.624	 H	1	GLU1	-0.043	
15	 3HG	1871.955	566.266	-1918.714	 H	1	GLU1	-0.043	
16	   N	1873.016	563.104	-1919.266	N.am	2	ASN2	-0.416	
17	  CA	1874.476	563.065	-1919.266	C.3	2	ASN2	0.014	
18	   C	1875.007	562.709	-1920.635	C.2	2	ASN2	0.597	
19	   O	1875.922	563.340	-1921.164	O.2	2	ASN2	-0.568	
20	  CB	1874.968	562.042	-1918.202	C.3	2	ASN2	-0.204	
21	  CG	1874.504	562.266	-1916.759	C.2	2	ASN2	0.713	
22	 ND2	1875.099	563.181	-1916.040	N.pl3	2	ASN2	-0.919	
23	 OD1	1873.584	561.632	-1916.264	O.2	2	ASN2	-0.593	
24	   H	1872.488	562.524	-1918.630	 H	2	ASN2	0.272	
25	  HA	1874.853	564.075	-1919.021	 H	2	ASN2	0.105	
26	 2HB	1876.072	561.983	-1918.205	 H	2	ASN2	0.080	
27	 3HB	1874.639	561.024	-1918.488	 H	2	ASN2	0.080	
28	1HD2	1874.618	563.354	-1915.154	 H	2	ASN2	0.420	
29	2HD2	1875.801	563.752	-1916.510	 H	2	ASN2	0.420	
30	   N	1874.485	561.714	-1921.269	N.am	3	PRO3	-0.255	
31	  CA	1874.937	561.305	-1922.590	C.3	3	PRO3	-0.027	
32	   C	1874.539	562.328	-1923.667	C.2	3	PRO3	0.590	
33	   O	1875.362	562.711	-1924.499	O.2	3	PRO3	-0.575	
34	  CB	1874.233	559.950	-1922.760	C.3	3	PRO3	-0.007	
35	  CG	1872.950	560.102	-1921.930	C.3	3	PRO3	0.019	
36	  CD	1873.407	560.921	-1920.720	C.3	3	PRO3	0.019	
37	  HA	1876.023	561.185	-1922.604	 H	3	PRO3	0.064	
38	 2HB	1874.856	559.169	-1922.319	 H	3	PRO3	0.025	
39	 3HB	1874.035	559.702	-1923.805	 H	3	PRO3	0.025	
40	 2HG	1872.522	559.140	-1921.638	 H	3	PRO3	0.021	
41	 3HG	1872.212	560.673	-1922.497	 H	3	PRO3	0.021	
42	 2HD	1873.797	560.272	-1919.932	 H	3	PRO3	0.039	
43	 3HD	1872.611	561.557	-1920.327	 H	3	PRO3	0.039	
44	   N	1873.334	562.788	-1923.700	N.am	4	GLU4	-0.516	
45	  CA	1872.975	563.759	-1924.729	C.3	4	GLU4	0.040	
46	   C	1873.874	564.970	-1924.668	C.2	4	GLU4	0.537	
47	   O	1874.400	565.450	-1925.683	O.2	4	GLU4	-0.582	
48	  CB	1871.486	564.178	-1924.559	C.3	4	GLU4	0.056	
49	  CG	1870.938	565.182	-1925.625	C.3	4	GLU4	0.014	
50	  CD	1869.512	565.679	-1925.481	C.2	4	GLU4	0.805	
51	 OE1	1868.785	565.280	-1924.550	O.co2	4	GLU4	-0.819	
52	 OE2	1869.122	566.508	-1926.329	O.co2	4	GLU4	-0.819	
53	   H	1872.650	562.482	-1923.023	 H	4	GLU4	0.294	
54	  HA	1873.106	563.289	-1925.720	 H	4	GLU4	0.111	
55	 2HB	1871.334	564.618	-1923.552	 H	4	GLU4	-0.017	
56	 3HB	1870.838	563.280	-1924.565	 H	4	GLU4	-0.017	
57	 2HG	1871.020	564.767	-1926.642	 H	4	GLU4	-0.043	
58	 3HG	1871.526	566.114	-1925.636	 H	4	GLU4	-0.043	
59	   N	1874.101	565.523	-1923.525	N.am	5	SER5	-0.416	
60	  CA	1874.970	566.695	-1923.467	C.3	5	SER5	-0.025	
61	   C	1876.329	566.389	-1924.052	C.2	5	SER5	0.597	
62	   O	1876.877	567.142	-1924.857	O.2	5	SER5	-0.568	
63	  CB	1875.082	567.227	-1922.016	C.3	5	SER5	0.212	
64	  OG	1875.814	566.348	-1921.155	O.3	5	SER5	-0.655	
65	   H	1873.684	565.152	-1922.683	 H	5	SER5	0.272	
66	  HA	1874.521	567.485	-1924.096	 H	5	SER5	0.084	
67	 2HB	1874.082	567.420	-1921.583	 H	5	SER5	0.035	
68	 3HB	1875.587	568.212	-1922.018	 H	5	SER5	0.035	
69	  HG	1875.325	565.523	-1921.104	 H	5	SER5	0.428	
70	   N	1876.934	565.306	-1923.698	N.am	6	ILE6	-0.416	
71	  CA	1878.247	565.011	-1924.264	C.3	6	ILE6	-0.060	
72	   C	1878.190	564.974	-1925.772	C.2	6	ILE6	0.597	
73	   O	1879.025	565.562	-1926.476	O.2	6	ILE6	-0.568	
74	  CB	1878.847	563.675	-1923.664	C.3	6	ILE6	0.130	
75	 CG1	1878.867	563.613	-1922.103	C.3	6	ILE6	-0.043	
76	 CG2	1880.289	563.373	-1924.179	C.3	6	ILE6	-0.320	
77	 CD1	1879.137	562.224	-1921.488	C.3	6	ILE6	-0.066	
78	   H	1876.506	564.672	-1923.039	 H	6	ILE6	0.272	
79	  HA	1878.921	565.846	-1923.996	 H	6	ILE6	0.087	
80	  HB	1878.189	562.849	-1924.008	 H	6	ILE6	0.019	
81	2HG1	1877.885	563.933	-1921.707	 H	6	ILE6	0.024	
82	3HG1	1879.583	564.355	-1921.698	 H	6	ILE6	0.024	
83	1HG2	1880.347	563.280	-1925.278	 H	6	ILE6	0.088	
84	2HG2	1881.011	564.156	-1923.877	 H	6	ILE6	0.088	
85	3HG2	1880.679	562.411	-1923.801	 H	6	ILE6	0.088	
86	1HD1	1878.409	561.470	-1921.843	 H	6	ILE6	0.019	
87	2HD1	1880.147	561.845	-1921.724	 H	6	ILE6	0.019	
88	3HD1	1879.061	562.254	-1920.385	 H	6	ILE6	0.019	
89	   N	1877.244	564.310	-1926.346	N.am	7	LEU7	-0.416	
90	  CA	1877.189	564.274	-1927.804	C.3	7	LEU7	-0.052	
91	   C	1877.117	565.669	-1928.377	C.2	7	LEU7	0.597	
92	   O	1877.838	566.032	-1929.318	O.2	7	LEU7	-0.568	
93	  CB	1875.986	563.413	-1928.284	C.3	7	LEU7	-0.110	
94	  CG	1875.914	561.934	-1927.818	C.3	7	LEU7	0.353	
95	 CD1	1874.724	561.228	-1928.484	C.3	7	LEU7	-0.412	
96	 CD2	1877.208	561.155	-1928.109	C.3	7	LEU7	-0.412	
97	   H	1876.552	563.823	-1925.794	 H	7	LEU7	0.272	
98	  HA	1878.131	563.834	-1928.178	 H	7	LEU7	0.092	
99	 2HB	1875.963	563.430	-1929.392	 H	7	LEU7	0.046	
100	 3HB	1875.047	563.916	-1927.980	 H	7	LEU7	0.046	
101	  HG	1875.744	561.926	-1926.721	 H	7	LEU7	-0.036	
102	1HD1	1873.767	561.737	-1928.261	 H	7	LEU7	0.100	
103	2HD1	1874.823	561.188	-1929.585	 H	7	LEU7	0.100	
104	3HD1	1874.618	560.187	-1928.128	 H	7	LEU7	0.100	
105	1HD2	1877.483	561.186	-1929.180	 H	7	LEU7	0.100	
106	2HD2	1878.061	561.567	-1927.538	 H	7	LEU7	0.100	
107	3HD2	1877.126	560.093	-1927.814	 H	7	LEU7	0.100	
108	   N	1876.279	566.510	-1927.870	N.am	8	ASP8	-0.516	
109	  CA	1876.209	567.859	-1928.423	C.3	8	ASP8	0.038	
110	   C	1877.555	568.539	-1928.366	C.2	8	ASP8	0.537	
111	   O	1878.028	569.145	-1929.341	O.2	8	ASP8	-0.582	
112	  CB	1875.130	568.698	-1927.682	C.3	8	ASP8	-0.030	
113	  CG	1874.911	570.119	-1928.222	C.2	8	ASP8	0.799	
114	 OD1	1874.975	570.318	-1929.453	O.co2	8	ASP8	-0.801	
115	 OD2	1874.719	571.044	-1927.406	O.co2	8	ASP8	-0.801	
116	   H	1875.681	566.238	-1927.103	 H	8	ASP8	0.294	
117	  HA	1875.926	567.781	-1929.491	 H	8	ASP8	0.088	
118	 2HB	1875.388	568.781	-1926.610	 H	8	ASP8	-0.012	
119	 3HB	1874.151	568.193	-1927.715	 H	8	ASP8	-0.012	
120	   N	1878.235	568.489	-1927.271	N.am	9	GLU9	-0.516	
121	  CA	1879.537	569.147	-1927.216	C.3	9	GLU9	0.040	
122	   C	1880.456	568.620	-1928.292	C.2	9	GLU9	0.537	
123	   O	1881.119	569.375	-1929.017	O.2	9	GLU9	-0.582	
124	  CB	1880.171	568.940	-1925.810	C.3	9	GLU9	0.056	
125	  CG	1881.554	569.633	-1925.581	C.3	9	GLU9	0.014	
126	  CD	1882.256	569.420	-1924.253	C.2	9	GLU9	0.805	
127	 OE1	1881.735	568.728	-1923.357	O.co2	9	GLU9	-0.819	
128	 OE2	1883.375	569.958	-1924.121	O.co2	9	GLU9	-0.819	
129	   H	1877.872	568.003	-1926.464	 H	9	GLU9	0.294	
130	  HA	1879.395	570.229	-1927.391	 H	9	GLU9	0.111	
131	 2HB	1880.285	567.855	-1925.607	 H	9	GLU9	-0.017	
132	 3HB	1879.474	569.293	-1925.026	 H	9	GLU9	-0.017	
133	 2HG	1881.481	570.724	-1925.721	 H	9	GLU9	-0.043	
134	 3HG	1882.300	569.288	-1926.315	 H	9	GLU9	-0.043	
135	   N	1880.553	567.345	-1928.461	N.am	10	HIS10	-0.416	
136	  CA	1881.441	566.835	-1929.502	C.3	10	HIS10	-0.058	
137	   C	1881.073	567.399	-1930.853	C.2	10	HIS10	0.597	
138	   O	1881.926	567.865	-1931.625	O.2	10	HIS10	-0.568	
139	  CB	1881.278	565.306	-1929.498	C.3	10	HIS10	-0.007	
140	  CG	1882.564	564.596	-1929.190	C.2	10	HIS10	0.187	
141	 CD2	1882.945	564.260	-1927.897	C.2	10	HIS10	-0.221	
142	 ND1	1883.516	564.191	-1930.123	N.2	10	HIS10	-0.543	
143	 CE1	1884.423	563.633	-1929.300	C.2	10	HIS10	0.163	
144	 NE2	1884.160	563.629	-1927.964	N.pl3	10	HIS10	-0.280	
145	   H	1880.023	566.709	-1927.883	 H	10	HIS10	0.272	
146	  HA	1882.460	567.192	-1929.277	 H	10	HIS10	0.136	
147	 2HB	1880.912	564.939	-1930.477	 H	10	HIS10	0.037	
148	 3HB	1880.522	564.968	-1928.758	 H	10	HIS10	0.037	
149	 2HD	1882.359	564.475	-1927.008	 H	10	HIS10	0.186	
150	 1HE	1885.314	563.212	-1929.747	 H	10	HIS10	0.144	
151	 2HE	1884.727	563.252	-1927.191	 H	10	HIS10	0.334	
152	   N	1879.836	567.398	-1931.216	N.am	11	VAL11	-0.416	
153	  CA	1879.480	567.944	-1932.522	C.3	11	VAL11	-0.087	
154	   C	1879.943	569.375	-1932.655	C.2	11	VAL11	0.597	
155	   O	1880.544	569.781	-1933.658	O.2	11	VAL11	-0.568	
156	  CB	1877.919	567.837	-1932.741	C.3	11	VAL11	0.299	
157	 CG1	1877.349	568.540	-1934.004	C.3	11	VAL11	-0.319	
158	 CG2	1877.395	566.382	-1932.815	C.3	11	VAL11	-0.319	
159	   H	1879.123	567.024	-1930.605	 H	11	VAL11	0.272	
160	  HA	1880.000	567.362	-1933.305	 H	11	VAL11	0.097	
161	  HB	1877.431	568.316	-1931.866	 H	11	VAL11	-0.030	
162	1HG1	1877.788	568.149	-1934.941	 H	11	VAL11	0.079	
163	2HG1	1876.250	568.432	-1934.086	 H	11	VAL11	0.079	
164	3HG1	1877.527	569.633	-1933.994	 H	11	VAL11	0.079	
165	1HG2	1877.685	565.795	-1931.925	 H	11	VAL11	0.079	
166	2HG2	1876.289	566.344	-1932.857	 H	11	VAL11	0.079	
167	3HG2	1877.777	565.842	-1933.702	 H	11	VAL11	0.079	
168	   N	1879.706	570.200	-1931.692	N.am	12	VAL12	-0.416	
169	  CA	1880.154	571.584	-1931.819	C.3	12	VAL12	-0.087	
170	   C	1881.643	571.651	-1932.058	C.2	12	VAL12	0.597	
171	   O	1882.136	572.363	-1932.942	O.2	12	VAL12	-0.568	
172	  CB	1879.755	572.398	-1930.525	C.3	12	VAL12	0.299	
173	 CG1	1880.319	573.841	-1930.417	C.3	12	VAL12	-0.319	
174	 CG2	1878.227	572.541	-1930.321	C.3	12	VAL12	-0.319	
175	   H	1879.218	569.894	-1930.863	 H	12	VAL12	0.272	
176	  HA	1879.665	572.037	-1932.701	 H	12	VAL12	0.097	
177	  HB	1880.151	571.838	-1929.651	 H	12	VAL12	-0.030	
178	1HG1	1879.999	574.485	-1931.258	 H	12	VAL12	0.079	
179	2HG1	1880.008	574.345	-1929.481	 H	12	VAL12	0.079	
180	3HG1	1881.425	573.862	-1930.395	 H	12	VAL12	0.079	
181	1HG2	1877.720	571.559	-1930.312	 H	12	VAL12	0.079	
182	2HG2	1877.985	573.018	-1929.352	 H	12	VAL12	0.079	
183	3HG2	1877.752	573.147	-1931.114	 H	12	VAL12	0.079	
184	   N	1882.427	570.943	-1931.317	N.am	13	ARG13	-0.348	
185	  CA	1883.868	571.008	-1931.547	C.3	13	ARG13	-0.264	
186	   C	1884.204	570.636	-1932.972	C.2	13	ARG13	0.734	
187	   O	1884.973	571.307	-1933.656	O.2	13	ARG13	-0.589	
188	  CB	1884.580	570.069	-1930.533	C.3	13	ARG13	-0.001	
189	  CG	1886.125	570.221	-1930.452	C.3	13	ARG13	0.039	
190	  CD	1886.751	569.233	-1929.453	C.3	13	ARG13	0.049	
191	  NE	1888.229	569.439	-1929.403	N.pl3	13	ARG13	-0.530	
192	  CZ	1889.076	568.747	-1928.647	C.cat	13	ARG13	0.808	
193	 NH1	1888.710	567.783	-1927.850	N.pl3	13	ARG13	-0.863	
194	 NH2	1890.336	569.045	-1928.704	N.pl3	13	ARG13	-0.863	
195	   H	1882.050	570.354	-1930.588	 H	13	ARG13	0.275	
196	  HA	1884.193	572.054	-1931.389	 H	13	ARG13	0.156	
197	 2HB	1884.313	569.018	-1930.772	 H	13	ARG13	0.033	
198	 3HB	1884.155	570.236	-1929.522	 H	13	ARG13	0.033	
199	 2HG	1886.374	571.265	-1930.172	 H	13	ARG13	0.029	
200	 3HG	1886.576	570.064	-1931.453	 H	13	ARG13	0.029	
201	 2HD	1886.506	568.193	-1929.762	 H	13	ARG13	0.069	
202	 3HD	1886.295	569.379	-1928.451	 H	13	ARG13	0.069	
203	  HE	1888.680	570.161	-1929.974	 H	13	ARG13	0.346	
204	1HH1	1887.704	567.598	-1927.853	 H	13	ARG13	0.448	
205	2HH1	1889.423	567.299	-1927.301	 H	13	ARG13	0.448	
206	1HH2	1890.604	569.802	-1929.335	 H	13	ARG13	0.448	
207	2HH2	1890.970	568.503	-1928.115	 H	13	ARG13	0.448	
208	   N	1883.667	569.582	-1933.486	N.am	14	VAL14	-0.416	
209	  CA	1883.991	569.222	-1934.864	C.3	14	VAL14	-0.087	
210	   C	1883.662	570.352	-1935.809	C.2	14	VAL14	0.597	
211	   O	1884.456	570.733	-1936.679	O.2	14	VAL14	-0.568	
212	  CB	1883.218	567.905	-1935.270	C.3	14	VAL14	0.299	
213	 CG1	1883.307	567.487	-1936.764	C.3	14	VAL14	-0.319	
214	 CG2	1883.648	566.653	-1934.470	C.3	14	VAL14	-0.319	
215	   H	1883.031	569.014	-1932.944	 H	14	VAL14	0.272	
216	  HA	1885.079	569.044	-1934.938	 H	14	VAL14	0.097	
217	  HB	1882.142	568.078	-1935.055	 H	14	VAL14	-0.030	
218	1HG1	1884.348	567.309	-1937.093	 H	14	VAL14	0.079	
219	2HG1	1882.733	566.564	-1936.976	 H	14	VAL14	0.079	
220	3HG1	1882.878	568.249	-1937.442	 H	14	VAL14	0.079	
221	1HG2	1883.561	566.812	-1933.379	 H	14	VAL14	0.079	
222	2HG2	1883.012	565.777	-1934.702	 H	14	VAL14	0.079	
223	3HG2	1884.696	566.362	-1934.675	 H	14	VAL14	0.079	
224	   N	1882.518	570.939	-1935.708	N.am	15	MET15	-0.416	
225	  CA	1882.199	572.032	-1936.622	C.3	15	MET15	-0.024	
226	   C	1883.229	573.131	-1936.534	C.2	15	MET15	0.597	
227	   O	1883.733	573.641	-1937.546	O.2	15	MET15	-0.568	
228	  CB	1880.778	572.578	-1936.313	C.3	15	MET15	0.034	
229	  CG	1879.615	571.581	-1936.505	C.3	15	MET15	0.002	
230	  SD	1878.041	572.448	-1936.391	S.3	15	MET15	-0.274	
231	  CE	1876.959	571.019	-1936.254	C.3	15	MET15	-0.054	
232	   H	1881.853	570.646	-1935.006	 H	15	MET15	0.272	
233	  HA	1882.224	571.644	-1937.657	 H	15	MET15	0.088	
234	 2HB	1880.576	573.457	-1936.955	 H	15	MET15	0.024	
235	 3HB	1880.742	572.971	-1935.276	 H	15	MET15	0.024	
236	 2HG	1879.657	570.795	-1935.727	 H	15	MET15	0.044	
237	 3HG	1879.677	571.066	-1937.481	 H	15	MET15	0.044	
238	 1HE	1877.103	570.331	-1937.106	 H	15	MET15	0.068	
239	 2HE	1877.168	570.466	-1935.321	 H	15	MET15	0.068	
240	 3HE	1875.902	571.335	-1936.238	 H	15	MET15	0.068	
241	   N	1883.598	573.551	-1935.371	N.am	16	ARG16	-0.348	
242	  CA	1884.596	574.615	-1935.287	C.3	16	ARG16	-0.264	
243	   C	1885.866	574.221	-1936.003	C.2	16	ARG16	0.734	
244	   O	1885.979	573.145	-1936.585	O.2	16	ARG16	-0.589	
245	  CB	1884.865	574.932	-1933.789	C.3	16	ARG16	-0.001	
246	  CG	1885.691	576.220	-1933.516	C.3	16	ARG16	0.039	
247	  CD	1885.940	576.439	-1932.014	C.3	16	ARG16	0.049	
248	  NE	1886.717	577.698	-1931.813	N.pl3	16	ARG16	-0.530	
249	  CZ	1887.109	578.180	-1930.637	C.cat	16	ARG16	0.808	
250	 NH1	1886.860	577.595	-1929.499	N.pl3	16	ARG16	-0.863	
251	 NH2	1887.773	579.292	-1930.618	N.pl3	16	ARG16	-0.863	
252	   H	1883.203	573.152	-1934.532	 H	16	ARG16	0.275	
253	  HA	1884.187	575.508	-1935.797	 H	16	ARG16	0.156	
254	 2HB	1885.361	574.056	-1933.323	 H	16	ARG16	0.033	
255	 3HB	1883.896	575.014	-1933.255	 H	16	ARG16	0.033	
256	 2HG	1885.161	577.092	-1933.953	 H	16	ARG16	0.029	
257	 3HG	1886.664	576.167	-1934.044	 H	16	ARG16	0.029	
258	 2HD	1886.488	575.564	-1931.601	 H	16	ARG16	0.069	
259	 3HD	1884.967	576.483	-1931.479	 H	16	ARG16	0.069	
260	  HE	1886.996	578.279	-1932.610	 H	16	ARG16	0.346	
261	1HH1	1886.334	576.722	-1929.583	 H	16	ARG16	0.448	
262	2HH1	1887.195	578.030	-1928.638	 H	16	ARG16	0.448	
263	1HH2	1887.959	579.735	-1931.520	 H	16	ARG16	0.448	
264	2HH2	1888.064	579.646	-1929.706	 H	16	ARG16	0.448	
@<TRIPOS>BOND
1 1 2 1
2 1 10 1
3 2 3 1
4 2 5 1
5 2 11 1
6 3 4 2
7 3 16 1
8 5 6 1
9 6 7 1
10 7 8 2
11 7 9 1
12 5 12 1
13 5 13 1
14 6 14 1
15 6 15 1
16 16 17 1
17 16 24 1
18 17 18 1
19 17 20 1
20 17 25 1
21 18 19 2
22 18 30 1
23 20 21 1
24 21 22 1
25 21 23 2
26 20 26 1
27 20 27 1
28 22 28 1
29 22 29 1
30 30 31 1
31 30 36 1
32 31 32 1
33 31 34 1
34 31 37 1
35 32 33 2
36 32 44 1
37 34 35 1
38 35 36 1
39 34 38 1
40 34 39 1
41 35 40 1
42 35 41 1
43 36 42 1
44 36 43 1
45 44 45 1
46 44 53 1
47 45 46 1
48 45 48 1
49 45 54 1
50 46 47 2
51 46 59 1
52 48 49 1
53 49 50 1
54 50 51 2
55 50 52 1
56 48 55 1
57 48 56 1
58 49 57 1
59 49 58 1
60 59 60 1
61 59 65 1
62 60 61 1
63 60 63 1
64 60 66 1
65 61 62 2
66 61 70 1
67 63 64 1
68 63 67 1
69 63 68 1
70 64 69 1
71 70 71 1
72 70 78 1
73 71 72 1
74 71 74 1
75 71 79 1
76 72 73 2
77 72 89 1
78 74 75 1
79 74 76 1
80 75 77 1
81 74 80 1
82 75 81 1
83 75 82 1
84 76 83 1
85 76 84 1
86 76 85 1
87 77 86 1
88 77 87 1
89 77 88 1
90 89 90 1
91 89 97 1
92 90 91 1
93 90 93 1
94 90 98 1
95 91 92 2
96 91 108 1
97 93 94 1
98 94 95 1
99 94 96 1
100 93 99 1
101 93 100 1
102 94 101 1
103 95 102 1
104 95 103 1
105 95 104 1
106 96 105 1
107 96 106 1
108 96 107 1
109 108 109 1
110 108 116 1
111 109 110 1
112 109 112 1
113 109 117 1
114 110 111 2
115 110 120 1
116 112 113 1
117 113 114 2
118 113 115 1
119 112 118 1
120 112 119 1
121 120 121 1
122 120 129 1
123 121 122 1
124 121 124 1
125 121 130 1
126 122 123 2
127 122 135 1
128 124 125 1
129 125 126 1
130 126 127 2
131 126 128 1
132 124 131 1
133 124 132 1
134 125 133 1
135 125 134 1
136 135 136 1
137 135 145 1
138 136 137 1
139 136 139 1
140 136 146 1
141 137 138 2
142 137 152 1
143 139 140 1
144 140 141 2
145 141 144 1
146 140 142 1
147 142 143 2
148 143 144 1
149 139 147 1
150 139 148 1
151 141 149 1
152 143 150 1
153 144 151 1
154 152 153 1
155 152 159 1
156 153 154 1
157 153 156 1
158 153 160 1
159 154 155 2
160 154 168 1
161 156 157 1
162 156 158 1
163 156 161 1
164 157 162 1
165 157 163 1
166 157 164 1
167 158 165 1
168 158 166 1
169 158 167 1
170 168 169 1
171 168 175 1
172 169 170 1
173 169 172 1
174 169 176 1
175 170 171 2
176 170 184 1
177 172 173 1
178 172 174 1
179 172 177 1
180 173 178 1
181 173 179 1
182 173 180 1
183 174 181 1
184 174 182 1
185 174 183 1
186 184 185 1
187 184 195 1
188 185 186 1
189 185 188 1
190 185 196 1
191 186 187 2
192 186 208 1
193 188 189 1
194 189 190 1
195 190 191 1
196 191 192 1
197 192 193 2
198 192 194 1
199 188 197 1
200 188 198 1
201 189 199 1
202 189 200 1
203 190 201 1
204 190 202 1
205 191 203 1
206 193 204 1
207 193 205 1
208 194 206 1
209 194 207 1
210 208 209 1
211 208 215 1
212 209 210 1
213 209 212 1
214 209 216 1
215 210 211 2
216 210 224 1
217 212 213 1
218 212 214 1
219 212 217 1
220 213 218 1
221 213 219 1
222 213 220 1
223 214 221 1
224 214 222 1
225 214 223 1
226 224 225 1
227 224 232 1
228 225 226 1
229 225 228 1
230 225 233 1
231 226 227 2
232 226 241 1
233 228 229 1
234 229 230 1
235 230 231 1
236 228 234 1
237 228 235 1
238 229 236 1
239 229 237 1
240 231 238 1
241 231 239 1
242 231 240 1
243 241 242 1
244 241 252 1
245 242 243 1
246 242 245 1
247 242 253 1
248 243 244 2
249 245 246 1
250 246 247 1
251 247 248 1
252 248 249 1
253 249 250 2
254 249 251 1
255 245 254 1
256 245 255 1
257 246 256 1
258 246 257 1
259 247 258 1
260 247 259 1
261 248 260 1
262 250 261 1
263 250 262 1
264 251 263 1
265 251 264 1
@<TRIPOS>SUBSTRUCTURE
1	GLU1	1	RESIDUE	1 ****	GLU
2	ASN2	16	RESIDUE	1 ****	ASN
3	PRO3	30	RESIDUE	1 ****	PRO
4	GLU4	44	RESIDUE	1 ****	GLU
5	SER5	59	RESIDUE	1 ****	SER
6	ILE6	70	RESIDUE	1 ****	ILE
7	LEU7	89	RESIDUE	1 ****	LEU
8	ASP8	108	RESIDUE	1 ****	ASP
9	GLU9	120	RESIDUE	1 ****	GLU
10	HIS10	135	RESIDUE	1 ****	HIS
11	VAL11	152	RESIDUE	1 ****	VAL
12	VAL12	168	RESIDUE	1 ****	VAL
13	ARG13	184	RESIDUE	1 ****	ARG
14	VAL14	208	RESIDUE	1 ****	VAL
15	MET15	224	RESIDUE	1 ****	MET
16	ARG16	241	RESIDUE	1 ****	ARG
