@<TRIPOS>MOLECULE
15-18
263 264 16              
SMALL
USER_CHARGES
@<TRIPOS>ATOM
1	   N	2473.761	758.984	-2577.514	N.3	1	GLU1	-0.516	
2	  CA	2474.320	760.333	-2577.514	C.3	1	GLU1	0.040	
3	   C	2475.829	760.293	-2577.514	C.2	1	GLU1	0.537	
4	   O	2476.505	760.992	-2578.283	O.2	1	GLU1	-0.582	
5	  CB	2473.797	761.118	-2576.277	C.3	1	GLU1	0.056	
6	  CG	2474.272	762.603	-2576.166	C.3	1	GLU1	0.014	
7	  CD	2473.848	763.407	-2574.951	C.2	1	GLU1	0.805	
8	 OE1	2473.120	762.905	-2574.073	O.co2	1	GLU1	-0.819	
9	 OE2	2474.278	764.577	-2574.879	O.co2	1	GLU1	-0.819	
10	   H	2474.388	758.105	-2577.514	 H	1	GLU1	0.294	
11	  HA	2473.994	760.851	-2578.434	 H	1	GLU1	0.111	
12	 2HB	2474.086	760.587	-2575.347	 H	1	GLU1	-0.017	
13	 3HB	2472.690	761.108	-2576.264	 H	1	GLU1	-0.017	
14	 2HG	2473.962	763.188	-2577.047	 H	1	GLU1	-0.043	
15	 3HG	2475.372	762.670	-2576.137	 H	1	GLU1	-0.043	
16	   N	2476.434	759.507	-2576.689	N.am	2	ASN2	-0.416	
17	  CA	2477.893	759.468	-2576.689	C.3	2	ASN2	0.014	
18	   C	2478.425	759.112	-2578.057	C.2	2	ASN2	0.597	
19	   O	2479.340	759.743	-2578.585	O.2	2	ASN2	-0.568	
20	  CB	2478.385	758.445	-2575.624	C.3	2	ASN2	-0.204	
21	  CG	2477.921	758.669	-2574.181	C.2	2	ASN2	0.713	
22	 ND2	2478.515	759.584	-2573.463	N.pl3	2	ASN2	-0.919	
23	 OD1	2477.000	758.035	-2573.687	O.2	2	ASN2	-0.593	
24	   H	2475.906	758.927	-2576.052	 H	2	ASN2	0.272	
25	  HA	2478.271	760.478	-2576.443	 H	2	ASN2	0.105	
26	 2HB	2479.489	758.386	-2575.627	 H	2	ASN2	0.080	
27	 3HB	2478.056	757.427	-2575.910	 H	2	ASN2	0.080	
28	1HD2	2478.034	759.757	-2572.576	 H	2	ASN2	0.420	
29	2HD2	2479.217	760.155	-2573.932	 H	2	ASN2	0.420	
30	   N	2477.903	758.118	-2578.692	N.am	3	PRO3	-0.255	
31	  CA	2478.355	757.708	-2580.013	C.3	3	PRO3	-0.027	
32	   C	2477.958	758.732	-2581.090	C.2	3	PRO3	0.590	
33	   O	2478.781	759.115	-2581.921	O.2	3	PRO3	-0.575	
34	  CB	2477.651	756.354	-2580.183	C.3	3	PRO3	-0.007	
35	  CG	2476.367	756.506	-2579.353	C.3	3	PRO3	0.019	
36	  CD	2476.825	757.325	-2578.143	C.3	3	PRO3	0.019	
37	  HA	2479.441	757.588	-2580.026	 H	3	PRO3	0.064	
38	 2HB	2478.274	755.573	-2579.742	 H	3	PRO3	0.025	
39	 3HB	2477.453	756.105	-2581.228	 H	3	PRO3	0.025	
40	 2HG	2475.939	755.544	-2579.062	 H	3	PRO3	0.021	
41	 3HG	2475.630	757.077	-2579.920	 H	3	PRO3	0.021	
42	 2HD	2477.214	756.675	-2577.355	 H	3	PRO3	0.039	
43	 3HD	2476.028	757.961	-2577.750	 H	3	PRO3	0.039	
44	   N	2476.753	759.192	-2581.123	N.am	4	GLU4	-0.516	
45	  CA	2476.394	760.163	-2582.153	C.3	4	GLU4	0.040	
46	   C	2477.293	761.374	-2582.091	C.2	4	GLU4	0.537	
47	   O	2477.820	761.853	-2583.105	O.2	4	GLU4	-0.582	
48	  CB	2474.905	760.582	-2581.983	C.3	4	GLU4	0.056	
49	  CG	2474.358	761.586	-2583.049	C.3	4	GLU4	0.014	
50	  CD	2472.931	762.083	-2582.906	C.2	4	GLU4	0.805	
51	 OE1	2472.204	761.685	-2581.975	O.co2	4	GLU4	-0.819	
52	 OE2	2472.542	762.912	-2583.754	O.co2	4	GLU4	-0.819	
53	   H	2476.068	758.886	-2580.446	 H	4	GLU4	0.294	
54	  HA	2476.525	759.693	-2583.144	 H	4	GLU4	0.111	
55	 2HB	2474.752	761.022	-2580.976	 H	4	GLU4	-0.017	
56	 3HB	2474.257	759.684	-2581.989	 H	4	GLU4	-0.017	
57	 2HG	2474.439	761.171	-2584.067	 H	4	GLU4	-0.043	
58	 3HG	2474.946	762.518	-2583.060	 H	4	GLU4	-0.043	
59	   N	2477.520	761.926	-2580.948	N.am	5	SER5	-0.416	
60	  CA	2478.390	763.098	-2580.889	C.3	5	SER5	-0.025	
61	   C	2479.749	762.791	-2581.474	C.2	5	SER5	0.597	
62	   O	2480.296	763.545	-2582.279	O.2	5	SER5	-0.568	
63	  CB	2478.501	763.630	-2579.438	C.3	5	SER5	0.212	
64	  OG	2479.232	762.750	-2578.577	O.3	5	SER5	-0.655	
65	   H	2477.102	761.555	-2580.106	 H	5	SER5	0.272	
66	  HA	2477.941	763.888	-2581.518	 H	5	SER5	0.084	
67	 2HB	2477.501	763.824	-2579.005	 H	5	SER5	0.035	
68	 3HB	2479.006	764.615	-2579.440	 H	5	SER5	0.035	
69	  HG	2478.743	761.925	-2578.527	 H	5	SER5	0.428	
70	   N	2480.353	761.708	-2581.120	N.am	6	ILE6	-0.416	
71	  CA	2481.666	761.413	-2581.686	C.3	6	ILE6	-0.060	
72	   C	2481.609	761.375	-2583.194	C.2	6	ILE6	0.597	
73	   O	2482.444	761.962	-2583.897	O.2	6	ILE6	-0.568	
74	  CB	2482.265	760.076	-2581.085	C.3	6	ILE6	0.130	
75	 CG1	2482.284	760.014	-2579.525	C.3	6	ILE6	-0.043	
76	 CG2	2483.706	759.774	-2581.601	C.3	6	ILE6	-0.320	
77	 CD1	2482.553	758.625	-2578.909	C.3	6	ILE6	-0.066	
78	   H	2479.924	761.074	-2580.461	 H	6	ILE6	0.272	
79	  HA	2482.340	762.247	-2581.418	 H	6	ILE6	0.087	
80	  HB	2481.607	759.250	-2581.430	 H	6	ILE6	0.019	
81	2HG1	2481.302	760.334	-2579.129	 H	6	ILE6	0.024	
82	3HG1	2483.000	760.756	-2579.120	 H	6	ILE6	0.024	
83	1HG2	2483.765	759.681	-2582.699	 H	6	ILE6	0.088	
84	2HG2	2484.429	760.556	-2581.298	 H	6	ILE6	0.088	
85	3HG2	2484.096	758.812	-2581.222	 H	6	ILE6	0.088	
86	1HD1	2481.825	757.871	-2579.264	 H	6	ILE6	0.019	
87	2HD1	2483.564	758.246	-2579.145	 H	6	ILE6	0.019	
88	3HD1	2482.477	758.655	-2577.807	 H	6	ILE6	0.019	
89	   N	2480.663	760.712	-2583.767	N.am	7	LEU7	-0.416	
90	  CA	2480.608	760.676	-2585.226	C.3	7	LEU7	-0.052	
91	   C	2480.536	762.071	-2585.799	C.2	7	LEU7	0.597	
92	   O	2481.257	762.433	-2586.741	O.2	7	LEU7	-0.568	
93	  CB	2479.405	759.816	-2585.706	C.3	7	LEU7	-0.110	
94	  CG	2479.331	758.336	-2585.240	C.3	7	LEU7	0.353	
95	 CD1	2478.141	757.631	-2585.905	C.3	7	LEU7	-0.412	
96	 CD2	2480.625	757.557	-2585.531	C.3	7	LEU7	-0.412	
97	   H	2479.971	760.225	-2583.216	 H	7	LEU7	0.272	
98	  HA	2481.550	760.235	-2585.600	 H	7	LEU7	0.092	
99	 2HB	2479.381	759.832	-2586.814	 H	7	LEU7	0.046	
100	 3HB	2478.465	760.319	-2585.402	 H	7	LEU7	0.046	
101	  HG	2479.161	758.329	-2584.142	 H	7	LEU7	-0.036	
102	1HD1	2477.184	758.140	-2585.682	 H	7	LEU7	0.100	
103	2HD1	2478.240	757.590	-2587.006	 H	7	LEU7	0.100	
104	3HD1	2478.034	756.590	-2585.549	 H	7	LEU7	0.100	
105	1HD2	2480.900	757.587	-2586.601	 H	7	LEU7	0.100	
106	2HD2	2481.478	757.968	-2584.959	 H	7	LEU7	0.100	
107	3HD2	2480.543	756.495	-2585.235	 H	7	LEU7	0.100	
108	   N	2479.699	762.912	-2585.293	N.am	8	ASP8	-0.516	
109	  CA	2479.629	764.261	-2585.847	C.3	8	ASP8	0.038	
110	   C	2480.976	764.941	-2585.790	C.2	8	ASP8	0.537	
111	   O	2481.449	765.545	-2586.765	O.2	8	ASP8	-0.582	
112	  CB	2478.552	765.102	-2585.106	C.3	8	ASP8	-0.030	
113	  CG	2478.333	766.522	-2585.647	C.2	8	ASP8	0.799	
114	 OD1	2478.398	766.720	-2586.878	O.co2	8	ASP8	-0.801	
115	 OD2	2478.142	767.448	-2584.832	O.co2	8	ASP8	-0.801	
116	   H	2479.101	762.642	-2584.525	 H	8	ASP8	0.294	
117	  HA	2479.346	764.183	-2586.914	 H	8	ASP8	0.088	
118	 2HB	2478.809	765.185	-2584.034	 H	8	ASP8	-0.012	
119	 3HB	2477.572	764.597	-2585.138	 H	8	ASP8	-0.012	
120	   N	2481.656	764.891	-2584.695	N.am	9	GLU9	-0.516	
121	  CA	2482.959	765.548	-2584.640	C.3	9	GLU9	0.040	
122	   C	2483.877	765.019	-2585.716	C.2	9	GLU9	0.537	
123	   O	2484.541	765.773	-2586.442	O.2	9	GLU9	-0.582	
124	  CB	2483.593	765.341	-2583.235	C.3	9	GLU9	0.056	
125	  CG	2484.976	766.033	-2583.006	C.3	9	GLU9	0.014	
126	  CD	2485.678	765.819	-2581.678	C.2	9	GLU9	0.805	
127	 OE1	2485.156	765.129	-2580.781	O.co2	9	GLU9	-0.819	
128	 OE2	2486.797	766.357	-2581.547	O.co2	9	GLU9	-0.819	
129	   H	2481.293	764.405	-2583.887	 H	9	GLU9	0.294	
130	  HA	2482.818	766.630	-2584.816	 H	9	GLU9	0.111	
131	 2HB	2483.705	764.256	-2583.031	 H	9	GLU9	-0.017	
132	 3HB	2482.896	765.695	-2582.450	 H	9	GLU9	-0.017	
133	 2HG	2484.904	767.123	-2583.146	 H	9	GLU9	-0.043	
134	 3HG	2485.722	765.687	-2583.740	 H	9	GLU9	-0.043	
135	   N	2483.973	763.744	-2585.885	N.am	10	HIS10	-0.416	
136	  CA	2484.860	763.232	-2586.925	C.3	10	HIS10	-0.058	
137	   C	2484.493	763.796	-2588.277	C.2	10	HIS10	0.597	
138	   O	2485.346	764.260	-2589.049	O.2	10	HIS10	-0.568	
139	  CB	2484.696	761.703	-2586.920	C.3	10	HIS10	-0.007	
140	  CG	2485.981	760.992	-2586.612	C.2	10	HIS10	0.187	
141	 CD2	2486.362	760.658	-2585.319	C.2	10	HIS10	-0.221	
142	 ND1	2486.932	760.585	-2587.544	N.2	10	HIS10	-0.543	
143	 CE1	2487.839	760.027	-2586.721	C.2	10	HIS10	0.163	
144	 NE2	2487.577	760.025	-2585.386	N.pl3	10	HIS10	-0.280	
145	   H	2483.442	763.109	-2585.306	 H	10	HIS10	0.272	
146	  HA	2485.880	763.589	-2586.701	 H	10	HIS10	0.136	
147	 2HB	2484.330	761.336	-2587.899	 H	10	HIS10	0.037	
148	 3HB	2483.940	761.367	-2586.179	 H	10	HIS10	0.037	
149	 2HD	2485.777	760.873	-2584.430	 H	10	HIS10	0.186	
150	 1HE	2488.729	759.606	-2587.168	 H	10	HIS10	0.144	
151	 2HE	2488.144	759.648	-2584.613	 H	10	HIS10	0.334	
152	   N	2483.255	763.795	-2588.639	N.am	11	VAL11	-0.416	
153	  CA	2482.900	764.341	-2589.947	C.3	11	VAL11	-0.087	
154	   C	2483.365	765.771	-2590.080	C.2	11	VAL11	0.597	
155	   O	2483.967	766.176	-2591.083	O.2	11	VAL11	-0.568	
156	  CB	2481.339	764.235	-2590.166	C.3	11	VAL11	0.299	
157	 CG1	2480.771	764.938	-2591.428	C.3	11	VAL11	-0.319	
158	 CG2	2480.814	762.781	-2590.238	C.3	11	VAL11	-0.319	
159	   H	2482.542	763.423	-2588.029	 H	11	VAL11	0.272	
160	  HA	2483.419	763.758	-2590.729	 H	11	VAL11	0.097	
161	  HB	2480.852	764.716	-2589.291	 H	11	VAL11	-0.030	
162	1HG1	2481.209	764.546	-2592.365	 H	11	VAL11	0.079	
163	2HG1	2479.671	764.832	-2591.510	 H	11	VAL11	0.079	
164	3HG1	2480.949	766.031	-2591.420	 H	11	VAL11	0.079	
165	1HG2	2481.103	762.194	-2589.347	 H	11	VAL11	0.079	
166	2HG2	2479.708	762.745	-2590.280	 H	11	VAL11	0.079	
167	3HG2	2481.195	762.240	-2591.124	 H	11	VAL11	0.079	
168	   N	2483.129	766.597	-2589.118	N.am	12	GLN12	-0.416	
169	  CA	2483.578	767.980	-2589.246	C.3	12	GLN12	-0.003	
170	   C	2485.068	768.047	-2589.484	C.2	12	GLN12	0.597	
171	   O	2485.555	768.754	-2590.363	O.2	12	GLN12	-0.568	
172	  CB	2483.188	768.749	-2587.963	C.3	12	GLN12	-0.004	
173	  CG	2483.549	770.270	-2587.933	C.3	12	GLN12	-0.064	
174	  CD	2483.248	771.084	-2586.669	C.2	12	GLN12	0.695	
175	 NE2	2482.681	770.509	-2585.639	N.pl3	12	GLN12	-0.941	
176	 OE1	2483.550	772.265	-2586.592	O.2	12	GLN12	-0.609	
177	   H	2482.640	766.292	-2588.288	 H	12	GLN12	0.272	
178	  HA	2483.079	768.436	-2590.121	 H	12	GLN12	0.085	
179	 2HB	2483.664	768.248	-2587.094	 H	12	GLN12	0.017	
180	 3HB	2482.098	768.642	-2587.800	 H	12	GLN12	0.017	
181	 2HG	2483.072	770.791	-2588.784	 H	12	GLN12	0.035	
182	 3HG	2484.633	770.412	-2588.099	 H	12	GLN12	0.035	
183	1HE2	2482.574	771.104	-2584.816	 H	12	GLN12	0.425	
184	2HE2	2482.516	769.505	-2585.742	 H	12	GLN12	0.425	
185	   N	2485.853	767.340	-2588.743	N.am	13	ARG13	-0.348	
186	  CA	2487.293	767.405	-2588.974	C.3	13	ARG13	-0.264	
187	   C	2487.629	767.033	-2590.399	C.2	13	ARG13	0.734	
188	   O	2488.397	767.704	-2591.083	O.2	13	ARG13	-0.589	
189	  CB	2488.006	766.467	-2587.959	C.3	13	ARG13	-0.001	
190	  CG	2489.551	766.619	-2587.879	C.3	13	ARG13	0.039	
191	  CD	2490.178	765.632	-2586.881	C.3	13	ARG13	0.049	
192	  NE	2491.655	765.839	-2586.831	N.pl3	13	ARG13	-0.530	
193	  CZ	2492.504	765.148	-2586.075	C.cat	13	ARG13	0.808	
194	 NH1	2492.139	764.184	-2585.277	N.pl3	13	ARG13	-0.863	
195	 NH2	2493.763	765.446	-2586.133	N.pl3	13	ARG13	-0.863	
196	   H	2485.476	766.751	-2588.014	 H	13	ARG13	0.275	
197	  HA	2487.618	768.451	-2588.816	 H	13	ARG13	0.156	
198	 2HB	2487.740	765.416	-2588.198	 H	13	ARG13	0.033	
199	 3HB	2487.581	766.634	-2586.949	 H	13	ARG13	0.033	
200	 2HG	2489.800	767.664	-2587.601	 H	13	ARG13	0.029	
201	 3HG	2490.002	766.462	-2588.881	 H	13	ARG13	0.029	
202	 2HD	2489.933	764.592	-2587.189	 H	13	ARG13	0.069	
203	 3HD	2489.722	765.779	-2585.878	 H	13	ARG13	0.069	
204	  HE	2492.107	766.561	-2587.402	 H	13	ARG13	0.346	
205	1HH1	2491.133	763.998	-2585.280	 H	13	ARG13	0.448	
206	2HH1	2492.852	763.701	-2584.728	 H	13	ARG13	0.448	
207	1HH2	2494.031	766.204	-2586.765	 H	13	ARG13	0.448	
208	2HH2	2494.399	764.905	-2585.544	 H	13	ARG13	0.448	
209	   N	2487.092	765.978	-2590.912	N.am	14	VAL14	-0.416	
210	  CA	2487.417	765.618	-2592.290	C.3	14	VAL14	-0.087	
211	   C	2487.087	766.747	-2593.236	C.2	14	VAL14	0.597	
212	   O	2487.880	767.128	-2594.106	O.2	14	VAL14	-0.568	
213	  CB	2486.644	764.301	-2592.696	C.3	14	VAL14	0.299	
214	 CG1	2486.732	763.881	-2594.189	C.3	14	VAL14	-0.319	
215	 CG2	2487.075	763.049	-2591.895	C.3	14	VAL14	-0.319	
216	   H	2486.457	765.410	-2590.370	 H	14	VAL14	0.272	
217	  HA	2488.505	765.440	-2592.365	 H	14	VAL14	0.097	
218	  HB	2485.567	764.472	-2592.479	 H	14	VAL14	-0.030	
219	1HG1	2487.773	763.704	-2594.518	 H	14	VAL14	0.079	
220	2HG1	2486.159	762.958	-2594.401	 H	14	VAL14	0.079	
221	3HG1	2486.303	764.643	-2594.867	 H	14	VAL14	0.079	
222	1HG2	2486.988	763.208	-2590.804	 H	14	VAL14	0.079	
223	2HG2	2486.439	762.172	-2592.126	 H	14	VAL14	0.079	
224	3HG2	2488.123	762.758	-2592.101	 H	14	VAL14	0.079	
225	   N	2485.942	767.334	-2593.134	N.am	15	GLU15	-0.516	
226	  CA	2485.622	768.426	-2594.048	C.3	15	GLU15	0.040	
227	   C	2486.654	769.524	-2593.960	C.2	15	GLU15	0.537	
228	   O	2487.159	770.035	-2594.970	O.2	15	GLU15	-0.582	
229	  CB	2484.206	768.984	-2593.726	C.3	15	GLU15	0.056	
230	  CG	2483.701	770.132	-2594.658	C.3	15	GLU15	0.014	
231	  CD	2482.353	770.762	-2594.361	C.2	15	GLU15	0.805	
232	 OE1	2481.654	770.361	-2593.411	O.co2	15	GLU15	-0.819	
233	 OE2	2482.001	771.701	-2595.104	O.co2	15	GLU15	-0.819	
234	   H	2485.277	767.041	-2592.432	 H	15	GLU15	0.294	
235	  HA	2485.629	768.036	-2595.082	 H	15	GLU15	0.111	
236	 2HB	2484.176	769.344	-2592.677	 H	15	GLU15	-0.017	
237	 3HB	2483.463	768.164	-2593.754	 H	15	GLU15	-0.017	
238	 2HG	2483.664	769.805	-2595.710	 H	15	GLU15	-0.043	
239	 3HG	2484.388	770.994	-2594.640	 H	15	GLU15	-0.043	
240	   N	2487.022	769.944	-2592.797	N.am	16	ARG16	-0.348	
241	  CA	2488.020	771.006	-2592.711	C.3	16	ARG16	-0.264	
242	   C	2489.291	770.612	-2593.426	C.2	16	ARG16	0.734	
243	   O	2489.404	769.536	-2594.008	O.2	16	ARG16	-0.589	
244	  CB	2488.288	771.323	-2591.212	C.3	16	ARG16	-0.001	
245	  CG	2489.115	772.611	-2590.938	C.3	16	ARG16	0.039	
246	  CD	2489.363	772.829	-2589.436	C.3	16	ARG16	0.049	
247	  NE	2490.140	774.086	-2589.233	N.pl3	16	ARG16	-0.530	
248	  CZ	2490.531	774.567	-2588.057	C.cat	16	ARG16	0.808	
249	 NH1	2490.281	773.983	-2586.919	N.pl3	16	ARG16	-0.863	
250	 NH2	2491.196	775.679	-2588.037	N.pl3	16	ARG16	-0.863	
251	   H	2486.626	769.544	-2591.958	 H	16	ARG16	0.275	
252	  HA	2487.613	771.900	-2593.221	 H	16	ARG16	0.156	
253	 2HB	2488.783	770.446	-2590.746	 H	16	ARG16	0.033	
254	 3HB	2487.318	771.405	-2590.679	 H	16	ARG16	0.033	
255	 2HG	2488.586	773.483	-2591.375	 H	16	ARG16	0.029	
256	 3HG	2490.089	772.557	-2591.465	 H	16	ARG16	0.029	
257	 2HD	2489.910	771.953	-2589.022	 H	16	ARG16	0.069	
258	 3HD	2488.389	772.872	-2588.902	 H	16	ARG16	0.069	
259	  HE	2490.421	774.668	-2590.030	 H	16	ARG16	0.346	
260	1HH1	2489.754	773.111	-2587.004	 H	16	ARG16	0.448	
261	2HH1	2490.615	774.417	-2586.057	 H	16	ARG16	0.448	
262	1HH2	2491.384	776.123	-2588.938	 H	16	ARG16	0.448	
263	2HH2	2491.486	776.033	-2587.124	 H	16	ARG16	0.448	
@<TRIPOS>BOND
1 1 2 1
2 1 10 1
3 2 3 1
4 2 5 1
5 2 11 1
6 3 4 2
7 3 16 1
8 5 6 1
9 6 7 1
10 7 8 2
11 7 9 1
12 5 12 1
13 5 13 1
14 6 14 1
15 6 15 1
16 16 17 1
17 16 24 1
18 17 18 1
19 17 20 1
20 17 25 1
21 18 19 2
22 18 30 1
23 20 21 1
24 21 22 1
25 21 23 2
26 20 26 1
27 20 27 1
28 22 28 1
29 22 29 1
30 30 31 1
31 30 36 1
32 31 32 1
33 31 34 1
34 31 37 1
35 32 33 2
36 32 44 1
37 34 35 1
38 35 36 1
39 34 38 1
40 34 39 1
41 35 40 1
42 35 41 1
43 36 42 1
44 36 43 1
45 44 45 1
46 44 53 1
47 45 46 1
48 45 48 1
49 45 54 1
50 46 47 2
51 46 59 1
52 48 49 1
53 49 50 1
54 50 51 2
55 50 52 1
56 48 55 1
57 48 56 1
58 49 57 1
59 49 58 1
60 59 60 1
61 59 65 1
62 60 61 1
63 60 63 1
64 60 66 1
65 61 62 2
66 61 70 1
67 63 64 1
68 63 67 1
69 63 68 1
70 64 69 1
71 70 71 1
72 70 78 1
73 71 72 1
74 71 74 1
75 71 79 1
76 72 73 2
77 72 89 1
78 74 75 1
79 74 76 1
80 75 77 1
81 74 80 1
82 75 81 1
83 75 82 1
84 76 83 1
85 76 84 1
86 76 85 1
87 77 86 1
88 77 87 1
89 77 88 1
90 89 90 1
91 89 97 1
92 90 91 1
93 90 93 1
94 90 98 1
95 91 92 2
96 91 108 1
97 93 94 1
98 94 95 1
99 94 96 1
100 93 99 1
101 93 100 1
102 94 101 1
103 95 102 1
104 95 103 1
105 95 104 1
106 96 105 1
107 96 106 1
108 96 107 1
109 108 109 1
110 108 116 1
111 109 110 1
112 109 112 1
113 109 117 1
114 110 111 2
115 110 120 1
116 112 113 1
117 113 114 2
118 113 115 1
119 112 118 1
120 112 119 1
121 120 121 1
122 120 129 1
123 121 122 1
124 121 124 1
125 121 130 1
126 122 123 2
127 122 135 1
128 124 125 1
129 125 126 1
130 126 127 2
131 126 128 1
132 124 131 1
133 124 132 1
134 125 133 1
135 125 134 1
136 135 136 1
137 135 145 1
138 136 137 1
139 136 139 1
140 136 146 1
141 137 138 2
142 137 152 1
143 139 140 1
144 140 141 2
145 141 144 1
146 140 142 1
147 142 143 2
148 143 144 1
149 139 147 1
150 139 148 1
151 141 149 1
152 143 150 1
153 144 151 1
154 152 153 1
155 152 159 1
156 153 154 1
157 153 156 1
158 153 160 1
159 154 155 2
160 154 168 1
161 156 157 1
162 156 158 1
163 156 161 1
164 157 162 1
165 157 163 1
166 157 164 1
167 158 165 1
168 158 166 1
169 158 167 1
170 168 169 1
171 168 177 1
172 169 170 1
173 169 172 1
174 169 178 1
175 170 171 2
176 170 185 1
177 172 173 1
178 173 174 1
179 174 175 1
180 174 176 2
181 172 179 1
182 172 180 1
183 173 181 1
184 173 182 1
185 175 183 1
186 175 184 1
187 185 186 1
188 185 196 1
189 186 187 1
190 186 189 1
191 186 197 1
192 187 188 2
193 187 209 1
194 189 190 1
195 190 191 1
196 191 192 1
197 192 193 1
198 193 194 2
199 193 195 1
200 189 198 1
201 189 199 1
202 190 200 1
203 190 201 1
204 191 202 1
205 191 203 1
206 192 204 1
207 194 205 1
208 194 206 1
209 195 207 1
210 195 208 1
211 209 210 1
212 209 216 1
213 210 211 1
214 210 213 1
215 210 217 1
216 211 212 2
217 211 225 1
218 213 214 1
219 213 215 1
220 213 218 1
221 214 219 1
222 214 220 1
223 214 221 1
224 215 222 1
225 215 223 1
226 215 224 1
227 225 226 1
228 225 234 1
229 226 227 1
230 226 229 1
231 226 235 1
232 227 228 2
233 227 240 1
234 229 230 1
235 230 231 1
236 231 232 2
237 231 233 1
238 229 236 1
239 229 237 1
240 230 238 1
241 230 239 1
242 240 241 1
243 240 251 1
244 241 242 1
245 241 244 1
246 241 252 1
247 242 243 2
248 244 245 1
249 245 246 1
250 246 247 1
251 247 248 1
252 248 249 2
253 248 250 1
254 244 253 1
255 244 254 1
256 245 255 1
257 245 256 1
258 246 257 1
259 246 258 1
260 247 259 1
261 249 260 1
262 249 261 1
263 250 262 1
264 250 263 1
@<TRIPOS>SUBSTRUCTURE
1	GLU1	1	RESIDUE	1 ****	GLU
2	ASN2	16	RESIDUE	1 ****	ASN
3	PRO3	30	RESIDUE	1 ****	PRO
4	GLU4	44	RESIDUE	1 ****	GLU
5	SER5	59	RESIDUE	1 ****	SER
6	ILE6	70	RESIDUE	1 ****	ILE
7	LEU7	89	RESIDUE	1 ****	LEU
8	ASP8	108	RESIDUE	1 ****	ASP
9	GLU9	120	RESIDUE	1 ****	GLU
10	HIS10	135	RESIDUE	1 ****	HIS
11	VAL11	152	RESIDUE	1 ****	VAL
12	GLN12	168	RESIDUE	1 ****	GLN
13	ARG13	185	RESIDUE	1 ****	ARG
14	VAL14	209	RESIDUE	1 ****	VAL
15	GLU15	225	RESIDUE	1 ****	GLU
16	ARG16	240	RESIDUE	1 ****	ARG
