@<TRIPOS>MOLECULE
5-6
273 274 16              
SMALL
USER_CHARGES
@<TRIPOS>ATOM
1	   N	738.477	190.643	-693.987	N.3	1	GLU1	-0.516	
2	  CA	739.036	191.992	-693.987	C.3	1	GLU1	0.040	
3	   C	740.545	191.952	-693.987	C.2	1	GLU1	0.537	
4	   O	741.221	192.652	-694.756	O.2	1	GLU1	-0.582	
5	  CB	738.513	192.777	-692.750	C.3	1	GLU1	0.056	
6	  CG	738.988	194.262	-692.639	C.3	1	GLU1	0.014	
7	  CD	738.564	195.066	-691.424	C.2	1	GLU1	0.805	
8	 OE1	737.836	194.564	-690.547	O.co2	1	GLU1	-0.819	
9	 OE2	738.994	196.236	-691.352	O.co2	1	GLU1	-0.819	
10	   H	739.104	189.764	-693.987	 H	1	GLU1	0.294	
11	  HA	738.710	192.510	-694.907	 H	1	GLU1	0.111	
12	 2HB	738.802	192.246	-691.820	 H	1	GLU1	-0.017	
13	 3HB	737.406	192.767	-692.737	 H	1	GLU1	-0.017	
14	 2HG	738.678	194.847	-693.521	 H	1	GLU1	-0.043	
15	 3HG	740.088	194.329	-692.610	 H	1	GLU1	-0.043	
16	   N	741.149	191.167	-693.162	N.am	2	ASN2	-0.416	
17	  CA	742.609	191.128	-693.162	C.3	2	ASN2	0.014	
18	   C	743.140	190.773	-694.531	C.2	2	ASN2	0.597	
19	   O	744.055	191.403	-695.060	O.2	2	ASN2	-0.568	
20	  CB	743.101	190.105	-692.098	C.3	2	ASN2	-0.204	
21	  CG	742.638	190.329	-690.655	C.2	2	ASN2	0.713	
22	 ND2	743.232	191.244	-689.937	N.pl3	2	ASN2	-0.919	
23	 OD1	741.717	189.695	-690.161	O.2	2	ASN2	-0.593	
24	   H	740.621	190.587	-692.526	 H	2	ASN2	0.272	
25	  HA	742.986	192.138	-692.917	 H	2	ASN2	0.105	
26	 2HB	744.205	190.046	-692.102	 H	2	ASN2	0.080	
27	 3HB	742.772	189.087	-692.384	 H	2	ASN2	0.080	
28	1HD2	742.751	191.417	-689.050	 H	2	ASN2	0.420	
29	2HD2	743.934	191.815	-690.406	 H	2	ASN2	0.420	
30	   N	742.619	189.777	-695.165	N.am	3	PRO3	-0.255	
31	  CA	743.070	189.368	-696.487	C.3	3	PRO3	-0.027	
32	   C	742.672	190.392	-697.564	C.2	3	PRO3	0.590	
33	   O	743.496	190.775	-698.395	O.2	3	PRO3	-0.575	
34	  CB	742.367	188.013	-696.656	C.3	3	PRO3	-0.007	
35	  CG	741.083	188.165	-695.826	C.3	3	PRO3	0.019	
36	  CD	741.541	188.984	-694.616	C.3	3	PRO3	0.019	
37	  HA	744.156	189.248	-696.500	 H	3	PRO3	0.064	
38	 2HB	742.990	187.232	-696.215	 H	3	PRO3	0.025	
39	 3HB	742.169	187.765	-697.701	 H	3	PRO3	0.025	
40	 2HG	740.656	187.203	-695.535	 H	3	PRO3	0.021	
41	 3HG	740.346	188.736	-696.393	 H	3	PRO3	0.021	
42	 2HD	741.930	188.335	-693.829	 H	3	PRO3	0.039	
43	 3HD	740.744	189.620	-694.223	 H	3	PRO3	0.039	
44	   N	741.467	190.852	-697.596	N.am	4	GLU4	-0.516	
45	  CA	741.108	191.822	-698.626	C.3	4	GLU4	0.040	
46	   C	742.006	193.034	-698.564	C.2	4	GLU4	0.537	
47	   O	742.533	193.513	-699.579	O.2	4	GLU4	-0.582	
48	  CB	739.619	192.241	-698.455	C.3	4	GLU4	0.056	
49	  CG	739.071	193.244	-699.521	C.3	4	GLU4	0.014	
50	  CD	737.644	193.741	-699.378	C.2	4	GLU4	0.805	
51	 OE1	736.918	193.342	-698.447	O.co2	4	GLU4	-0.819	
52	 OE2	737.255	194.570	-700.226	O.co2	4	GLU4	-0.819	
53	   H	740.783	190.545	-696.919	 H	4	GLU4	0.294	
54	  HA	741.239	191.352	-699.617	 H	4	GLU4	0.111	
55	 2HB	739.467	192.681	-697.449	 H	4	GLU4	-0.017	
56	 3HB	738.971	191.343	-698.462	 H	4	GLU4	-0.017	
57	 2HG	739.153	192.830	-700.539	 H	4	GLU4	-0.043	
58	 3HG	739.659	194.177	-699.532	 H	4	GLU4	-0.043	
59	   N	742.234	193.587	-697.421	N.am	5	ILE5	-0.416	
60	  CA	743.103	194.758	-697.362	C.3	5	ILE5	-0.060	
61	   C	744.461	194.454	-697.947	C.2	5	ILE5	0.597	
62	   O	745.012	195.214	-698.757	O.2	5	ILE5	-0.568	
63	  CB	743.210	195.323	-695.887	C.3	5	ILE5	0.130	
64	 CG1	741.837	195.589	-695.191	C.3	5	ILE5	-0.043	
65	 CG2	744.060	196.628	-695.799	C.3	5	ILE5	-0.320	
66	 CD1	741.890	195.828	-693.667	C.3	5	ILE5	-0.066	
67	   H	741.817	193.215	-696.580	 H	5	ILE5	0.272	
68	  HA	742.654	195.540	-698.002	 H	5	ILE5	0.087	
69	  HB	743.727	194.546	-695.286	 H	5	ILE5	0.019	
70	2HG1	741.172	194.718	-695.337	 H	5	ILE5	0.024	
71	3HG1	741.309	196.426	-695.690	 H	5	ILE5	0.024	
72	1HG2	745.094	196.500	-696.163	 H	5	ILE5	0.088	
73	2HG2	743.609	197.458	-696.376	 H	5	ILE5	0.088	
74	3HG2	744.177	196.985	-694.760	 H	5	ILE5	0.088	
75	1HD1	742.375	194.986	-693.137	 H	5	ILE5	0.019	
76	2HD1	742.441	196.748	-693.401	 H	5	ILE5	0.019	
77	3HD1	740.874	195.934	-693.244	 H	5	ILE5	0.019	
78	   N	745.066	193.371	-697.593	N.am	6	ILE6	-0.416	
79	  CA	746.380	193.078	-698.158	C.3	6	ILE6	-0.060	
80	   C	746.324	193.041	-699.666	C.2	6	ILE6	0.597	
81	   O	747.158	193.629	-700.369	O.2	6	ILE6	-0.568	
82	  CB	746.980	191.742	-697.558	C.3	6	ILE6	0.130	
83	 CG1	746.999	191.679	-695.997	C.3	6	ILE6	-0.043	
84	 CG2	748.422	191.441	-698.073	C.3	6	ILE6	-0.320	
85	 CD1	747.269	190.290	-695.383	C.3	6	ILE6	-0.066	
86	   H	744.638	192.737	-696.934	 H	6	ILE6	0.272	
87	  HA	747.053	193.912	-697.890	 H	6	ILE6	0.087	
88	  HB	746.323	190.915	-697.903	 H	6	ILE6	0.019	
89	2HG1	746.016	191.998	-695.602	 H	6	ILE6	0.024	
90	3HG1	747.714	192.421	-695.592	 H	6	ILE6	0.024	
91	1HG2	748.482	191.348	-699.171	 H	6	ILE6	0.088	
92	2HG2	749.143	192.224	-697.770	 H	6	ILE6	0.088	
93	3HG2	748.812	190.479	-697.694	 H	6	ILE6	0.088	
94	1HD1	746.542	189.535	-695.738	 H	6	ILE6	0.019	
95	2HD1	748.280	189.912	-695.618	 H	6	ILE6	0.019	
96	3HD1	747.192	190.319	-694.280	 H	6	ILE6	0.019	
97	   N	745.378	192.377	-700.241	N.am	7	LEU7	-0.416	
98	  CA	745.324	192.341	-701.699	C.3	7	LEU7	-0.052	
99	   C	745.251	193.737	-702.271	C.2	7	LEU7	0.597	
100	   O	745.972	194.100	-703.213	O.2	7	LEU7	-0.568	
101	  CB	744.122	191.480	-702.181	C.3	7	LEU7	-0.110	
102	  CG	744.050	190.001	-701.715	C.3	7	LEU7	0.353	
103	 CD1	742.861	189.294	-702.381	C.3	7	LEU7	-0.412	
104	 CD2	745.344	189.223	-702.006	C.3	7	LEU7	-0.412	
105	   H	744.687	191.889	-699.690	 H	7	LEU7	0.272	
106	  HA	746.267	191.902	-702.073	 H	7	LEU7	0.092	
107	 2HB	744.100	191.497	-703.288	 H	7	LEU7	0.046	
108	 3HB	743.182	191.982	-701.877	 H	7	LEU7	0.046	
109	  HG	743.880	189.992	-700.618	 H	7	LEU7	-0.036	
110	1HD1	741.904	189.803	-702.159	 H	7	LEU7	0.100	
111	2HD1	742.961	189.254	-703.482	 H	7	LEU7	0.100	
112	3HD1	742.755	188.253	-702.026	 H	7	LEU7	0.100	
113	1HD2	745.620	189.253	-703.076	 H	7	LEU7	0.100	
114	2HD2	746.197	189.634	-701.434	 H	7	LEU7	0.100	
115	3HD2	745.263	188.160	-701.710	 H	7	LEU7	0.100	
116	   N	744.413	194.577	-701.765	N.am	8	ASP8	-0.516	
117	  CA	744.342	195.926	-702.318	C.3	8	ASP8	0.038	
118	   C	745.688	196.607	-702.260	C.2	8	ASP8	0.537	
119	   O	746.162	197.213	-703.234	O.2	8	ASP8	-0.582	
120	  CB	743.263	196.764	-701.577	C.3	8	ASP8	-0.030	
121	  CG	743.044	198.185	-702.117	C.2	8	ASP8	0.799	
122	 OD1	743.109	198.385	-703.347	O.co2	8	ASP8	-0.801	
123	 OD2	742.851	199.111	-701.301	O.co2	8	ASP8	-0.801	
124	   H	743.815	194.305	-700.998	 H	8	ASP8	0.294	
125	  HA	744.060	195.849	-703.385	 H	8	ASP8	0.088	
126	 2HB	743.520	196.847	-700.504	 H	8	ASP8	-0.012	
127	 3HB	742.285	196.259	-701.610	 H	8	ASP8	-0.012	
128	   N	746.368	196.557	-701.164	N.am	9	GLU9	-0.516	
129	  CA	747.670	197.216	-701.108	C.3	9	GLU9	0.040	
130	   C	748.589	196.689	-702.183	C.2	9	GLU9	0.537	
131	   O	749.253	197.444	-702.908	O.2	9	GLU9	-0.582	
132	  CB	748.303	197.008	-699.702	C.3	9	GLU9	0.056	
133	  CG	749.685	197.701	-699.471	C.3	9	GLU9	0.014	
134	  CD	750.386	197.488	-698.143	C.2	9	GLU9	0.805	
135	 OE1	749.864	196.796	-697.247	O.co2	9	GLU9	-0.819	
136	 OE2	751.505	198.026	-698.010	O.co2	9	GLU9	-0.819	
137	   H	746.004	196.070	-700.357	 H	9	GLU9	0.294	
138	  HA	747.527	198.297	-701.283	 H	9	GLU9	0.111	
139	 2HB	748.416	195.923	-699.499	 H	9	GLU9	-0.017	
140	 3HB	747.605	197.361	-698.918	 H	9	GLU9	-0.017	
141	 2HG	749.612	198.792	-699.611	 H	9	GLU9	-0.043	
142	 3HG	750.432	197.357	-700.205	 H	9	GLU9	-0.043	
143	   N	748.686	195.414	-702.353	N.am	10	HIS10	-0.416	
144	  CA	749.575	194.903	-703.393	C.3	10	HIS10	-0.058	
145	   C	749.209	195.468	-704.744	C.2	10	HIS10	0.597	
146	   O	750.061	195.934	-705.515	O.2	10	HIS10	-0.568	
147	  CB	749.412	193.374	-703.389	C.3	10	HIS10	-0.007	
148	  CG	750.698	192.665	-703.080	C.2	10	HIS10	0.187	
149	 CD2	751.078	192.329	-701.787	C.2	10	HIS10	-0.221	
150	 ND1	751.651	192.260	-704.012	N.2	10	HIS10	-0.543	
151	 CE1	752.557	191.702	-703.189	C.2	10	HIS10	0.163	
152	 NE2	752.294	191.699	-701.854	N.pl3	10	HIS10	-0.280	
153	   H	748.156	194.778	-701.775	 H	10	HIS10	0.272	
154	  HA	750.594	195.261	-703.167	 H	10	HIS10	0.136	
155	 2HB	749.048	193.008	-704.369	 H	10	HIS10	0.037	
156	 3HB	748.656	193.037	-702.649	 H	10	HIS10	0.037	
157	 2HD	750.492	192.544	-700.899	 H	10	HIS10	0.186	
158	 1HE	753.449	191.282	-703.635	 H	10	HIS10	0.144	
159	 2HE	752.860	191.321	-701.080	 H	10	HIS10	0.334	
160	   N	747.971	195.467	-705.108	N.am	11	VAL11	-0.416	
161	  CA	747.617	196.013	-706.415	C.3	11	VAL11	-0.087	
162	   C	748.080	197.444	-706.546	C.2	11	VAL11	0.597	
163	   O	748.682	197.850	-707.548	O.2	11	VAL11	-0.568	
164	  CB	746.056	195.906	-706.635	C.3	11	VAL11	0.299	
165	 CG1	745.487	196.610	-707.898	C.3	11	VAL11	-0.319	
166	 CG2	745.532	194.451	-706.709	C.3	11	VAL11	-0.319	
167	   H	747.258	195.093	-704.498	 H	11	VAL11	0.272	
168	  HA	748.137	195.431	-707.197	 H	11	VAL11	0.097	
169	  HB	745.567	196.385	-705.760	 H	11	VAL11	-0.030	
170	1HG1	745.927	196.219	-708.835	 H	11	VAL11	0.079	
171	2HG1	744.389	196.502	-707.981	 H	11	VAL11	0.079	
172	3HG1	745.665	197.702	-707.888	 H	11	VAL11	0.079	
173	1HG2	745.821	193.864	-705.819	 H	11	VAL11	0.079	
174	2HG2	744.426	194.414	-706.753	 H	11	VAL11	0.079	
175	3HG2	745.915	193.911	-707.596	 H	11	VAL11	0.079	
176	   N	747.842	198.269	-705.584	N.am	12	GLN12	-0.416	
177	  CA	748.290	199.652	-705.710	C.3	12	GLN12	-0.003	
178	   C	749.780	199.721	-705.946	C.2	12	GLN12	0.597	
179	   O	750.267	200.430	-706.824	O.2	12	GLN12	-0.568	
180	  CB	747.897	200.419	-704.427	C.3	12	GLN12	-0.004	
181	  CG	748.257	201.941	-704.395	C.3	12	GLN12	-0.064	
182	  CD	747.953	202.754	-703.130	C.2	12	GLN12	0.695	
183	 NE2	747.385	202.177	-702.102	N.pl3	12	GLN12	-0.941	
184	 OE1	748.254	203.935	-703.052	O.2	12	GLN12	-0.609	
185	   H	747.353	197.962	-704.755	 H	12	GLN12	0.272	
186	  HA	747.791	200.109	-706.585	 H	12	GLN12	0.085	
187	 2HB	748.373	199.919	-703.558	 H	12	GLN12	0.017	
188	 3HB	746.807	200.311	-704.265	 H	12	GLN12	0.017	
189	 2HG	747.780	202.462	-705.246	 H	12	GLN12	0.035	
190	 3HG	749.340	202.084	-704.560	 H	12	GLN12	0.035	
191	1HE2	747.277	202.771	-701.278	 H	12	GLN12	0.425	
192	2HE2	747.223	201.173	-702.206	 H	12	GLN12	0.425	
193	   N	750.564	199.014	-705.205	N.am	13	ARG13	-0.348	
194	  CA	752.005	199.081	-705.435	C.3	13	ARG13	-0.264	
195	   C	752.342	198.710	-706.860	C.2	13	ARG13	0.734	
196	   O	753.111	199.383	-707.543	O.2	13	ARG13	-0.589	
197	  CB	752.718	198.142	-704.421	C.3	13	ARG13	-0.001	
198	  CG	754.263	198.296	-704.339	C.3	13	ARG13	0.039	
199	  CD	754.890	197.308	-703.341	C.3	13	ARG13	0.049	
200	  NE	756.367	197.516	-703.289	N.pl3	13	ARG13	-0.530	
201	  CZ	757.214	196.825	-702.534	C.cat	13	ARG13	0.808	
202	 NH1	756.849	195.860	-701.737	N.pl3	13	ARG13	-0.863	
203	 NH2	758.474	197.125	-702.589	N.pl3	13	ARG13	-0.863	
204	   H	750.188	198.424	-704.478	 H	13	ARG13	0.275	
205	  HA	752.328	200.127	-705.276	 H	13	ARG13	0.156	
206	 2HB	752.452	197.091	-704.661	 H	13	ARG13	0.033	
207	 3HB	752.292	198.308	-703.411	 H	13	ARG13	0.033	
208	 2HG	754.510	199.341	-704.059	 H	13	ARG13	0.029	
209	 3HG	754.714	198.141	-705.340	 H	13	ARG13	0.029	
210	 2HD	754.646	196.268	-703.651	 H	13	ARG13	0.069	
211	 3HD	754.432	197.453	-702.339	 H	13	ARG13	0.069	
212	  HE	756.818	198.239	-703.859	 H	13	ARG13	0.346	
213	1HH1	755.844	195.673	-701.741	 H	13	ARG13	0.448	
214	2HH1	757.562	195.377	-701.188	 H	13	ARG13	0.448	
215	1HH2	758.741	197.883	-703.220	 H	13	ARG13	0.448	
216	2HH2	759.109	196.583	-702.000	 H	13	ARG13	0.448	
217	   N	751.807	197.656	-707.375	N.am	14	VAL14	-0.416	
218	  CA	752.133	197.297	-708.753	C.3	14	VAL14	-0.087	
219	   C	751.803	198.428	-709.698	C.2	14	VAL14	0.597	
220	   O	752.597	198.810	-710.567	O.2	14	VAL14	-0.568	
221	  CB	751.362	195.980	-709.161	C.3	14	VAL14	0.299	
222	 CG1	751.453	195.563	-710.654	C.3	14	VAL14	-0.319	
223	 CG2	751.794	194.728	-708.361	C.3	14	VAL14	-0.319	
224	   H	751.172	197.086	-706.834	 H	14	VAL14	0.272	
225	  HA	753.222	197.121	-708.827	 H	14	VAL14	0.097	
226	  HB	750.285	196.150	-708.946	 H	14	VAL14	-0.030	
227	1HG1	752.494	195.386	-710.983	 H	14	VAL14	0.079	
228	2HG1	750.880	194.639	-710.868	 H	14	VAL14	0.079	
229	3HG1	751.024	196.325	-711.333	 H	14	VAL14	0.079	
230	1HG2	751.706	194.885	-707.270	 H	14	VAL14	0.079	
231	2HG2	751.159	193.851	-708.594	 H	14	VAL14	0.079	
232	3HG2	752.842	194.438	-708.566	 H	14	VAL14	0.079	
233	   N	750.658	199.013	-709.597	N.am	15	MET15	-0.416	
234	  CA	750.338	200.106	-710.510	C.3	15	MET15	-0.024	
235	   C	751.367	201.206	-710.421	C.2	15	MET15	0.597	
236	   O	751.870	201.718	-711.433	O.2	15	MET15	-0.568	
237	  CB	748.916	200.650	-710.202	C.3	15	MET15	0.034	
238	  CG	747.755	199.652	-710.395	C.3	15	MET15	0.002	
239	  SD	746.180	200.517	-710.281	S.3	15	MET15	-0.274	
240	  CE	745.099	199.087	-710.146	C.3	15	MET15	-0.054	
241	   H	749.993	198.719	-708.896	 H	15	MET15	0.272	
242	  HA	750.365	199.719	-711.546	 H	15	MET15	0.088	
243	 2HB	748.714	201.529	-710.844	 H	15	MET15	0.024	
244	 3HB	748.879	201.042	-709.165	 H	15	MET15	0.024	
245	 2HG	747.797	198.866	-709.618	 H	15	MET15	0.044	
246	 3HG	747.818	199.137	-711.371	 H	15	MET15	0.044	
247	 1HE	745.244	198.399	-710.999	 H	15	MET15	0.068	
248	 2HE	745.308	198.533	-709.214	 H	15	MET15	0.068	
249	 3HE	744.042	199.401	-710.130	 H	15	MET15	0.068	
250	   N	751.735	201.627	-709.258	N.am	16	ARG16	-0.348	
251	  CA	752.731	202.691	-709.173	C.3	16	ARG16	-0.264	
252	   C	754.002	202.300	-709.889	C.2	16	ARG16	0.734	
253	   O	754.117	201.223	-710.471	O.2	16	ARG16	-0.589	
254	  CB	752.999	203.008	-707.674	C.3	16	ARG16	-0.001	
255	  CG	753.823	204.298	-707.400	C.3	16	ARG16	0.039	
256	  CD	754.071	204.516	-705.899	C.3	16	ARG16	0.049	
257	  NE	754.846	205.776	-705.697	N.pl3	16	ARG16	-0.530	
258	  CZ	755.237	206.258	-704.520	C.cat	16	ARG16	0.808	
259	 NH1	754.989	205.672	-703.382	N.pl3	16	ARG16	-0.863	
260	 NH2	755.900	207.371	-704.501	N.pl3	16	ARG16	-0.863	
261	   H	751.340	201.226	-708.419	 H	16	ARG16	0.275	
262	  HA	752.322	203.584	-709.683	 H	16	ARG16	0.156	
263	 2HB	753.496	202.132	-707.208	 H	16	ARG16	0.033	
264	 3HB	752.029	203.088	-707.141	 H	16	ARG16	0.033	
265	 2HG	753.292	205.169	-707.837	 H	16	ARG16	0.029	
266	 3HG	754.797	204.246	-707.929	 H	16	ARG16	0.029	
267	 2HD	754.620	203.642	-705.486	 H	16	ARG16	0.069	
268	 3HD	753.098	204.558	-705.364	 H	16	ARG16	0.069	
269	  HE	755.125	206.357	-706.493	 H	16	ARG16	0.346	
270	1HH1	754.464	204.799	-703.468	 H	16	ARG16	0.448	
271	2HH1	755.322	206.108	-702.521	 H	16	ARG16	0.448	
272	1HH2	756.086	207.814	-705.402	 H	16	ARG16	0.448	
273	2HH2	756.189	207.725	-703.588	 H	16	ARG16	0.448	
@<TRIPOS>BOND
1 1 2 1
2 1 10 1
3 2 3 1
4 2 5 1
5 2 11 1
6 3 4 2
7 3 16 1
8 5 6 1
9 6 7 1
10 7 8 2
11 7 9 1
12 5 12 1
13 5 13 1
14 6 14 1
15 6 15 1
16 16 17 1
17 16 24 1
18 17 18 1
19 17 20 1
20 17 25 1
21 18 19 2
22 18 30 1
23 20 21 1
24 21 22 1
25 21 23 2
26 20 26 1
27 20 27 1
28 22 28 1
29 22 29 1
30 30 31 1
31 30 36 1
32 31 32 1
33 31 34 1
34 31 37 1
35 32 33 2
36 32 44 1
37 34 35 1
38 35 36 1
39 34 38 1
40 34 39 1
41 35 40 1
42 35 41 1
43 36 42 1
44 36 43 1
45 44 45 1
46 44 53 1
47 45 46 1
48 45 48 1
49 45 54 1
50 46 47 2
51 46 59 1
52 48 49 1
53 49 50 1
54 50 51 2
55 50 52 1
56 48 55 1
57 48 56 1
58 49 57 1
59 49 58 1
60 59 60 1
61 59 67 1
62 60 61 1
63 60 63 1
64 60 68 1
65 61 62 2
66 61 78 1
67 63 64 1
68 63 65 1
69 64 66 1
70 63 69 1
71 64 70 1
72 64 71 1
73 65 72 1
74 65 73 1
75 65 74 1
76 66 75 1
77 66 76 1
78 66 77 1
79 78 79 1
80 78 86 1
81 79 80 1
82 79 82 1
83 79 87 1
84 80 81 2
85 80 97 1
86 82 83 1
87 82 84 1
88 83 85 1
89 82 88 1
90 83 89 1
91 83 90 1
92 84 91 1
93 84 92 1
94 84 93 1
95 85 94 1
96 85 95 1
97 85 96 1
98 97 98 1
99 97 105 1
100 98 99 1
101 98 101 1
102 98 106 1
103 99 100 2
104 99 116 1
105 101 102 1
106 102 103 1
107 102 104 1
108 101 107 1
109 101 108 1
110 102 109 1
111 103 110 1
112 103 111 1
113 103 112 1
114 104 113 1
115 104 114 1
116 104 115 1
117 116 117 1
118 116 124 1
119 117 118 1
120 117 120 1
121 117 125 1
122 118 119 2
123 118 128 1
124 120 121 1
125 121 122 2
126 121 123 1
127 120 126 1
128 120 127 1
129 128 129 1
130 128 137 1
131 129 130 1
132 129 132 1
133 129 138 1
134 130 131 2
135 130 143 1
136 132 133 1
137 133 134 1
138 134 135 2
139 134 136 1
140 132 139 1
141 132 140 1
142 133 141 1
143 133 142 1
144 143 144 1
145 143 153 1
146 144 145 1
147 144 147 1
148 144 154 1
149 145 146 2
150 145 160 1
151 147 148 1
152 148 149 2
153 149 152 1
154 148 150 1
155 150 151 2
156 151 152 1
157 147 155 1
158 147 156 1
159 149 157 1
160 151 158 1
161 152 159 1
162 160 161 1
163 160 167 1
164 161 162 1
165 161 164 1
166 161 168 1
167 162 163 2
168 162 176 1
169 164 165 1
170 164 166 1
171 164 169 1
172 165 170 1
173 165 171 1
174 165 172 1
175 166 173 1
176 166 174 1
177 166 175 1
178 176 177 1
179 176 185 1
180 177 178 1
181 177 180 1
182 177 186 1
183 178 179 2
184 178 193 1
185 180 181 1
186 181 182 1
187 182 183 1
188 182 184 2
189 180 187 1
190 180 188 1
191 181 189 1
192 181 190 1
193 183 191 1
194 183 192 1
195 193 194 1
196 193 204 1
197 194 195 1
198 194 197 1
199 194 205 1
200 195 196 2
201 195 217 1
202 197 198 1
203 198 199 1
204 199 200 1
205 200 201 1
206 201 202 2
207 201 203 1
208 197 206 1
209 197 207 1
210 198 208 1
211 198 209 1
212 199 210 1
213 199 211 1
214 200 212 1
215 202 213 1
216 202 214 1
217 203 215 1
218 203 216 1
219 217 218 1
220 217 224 1
221 218 219 1
222 218 221 1
223 218 225 1
224 219 220 2
225 219 233 1
226 221 222 1
227 221 223 1
228 221 226 1
229 222 227 1
230 222 228 1
231 222 229 1
232 223 230 1
233 223 231 1
234 223 232 1
235 233 234 1
236 233 241 1
237 234 235 1
238 234 237 1
239 234 242 1
240 235 236 2
241 235 250 1
242 237 238 1
243 238 239 1
244 239 240 1
245 237 243 1
246 237 244 1
247 238 245 1
248 238 246 1
249 240 247 1
250 240 248 1
251 240 249 1
252 250 251 1
253 250 261 1
254 251 252 1
255 251 254 1
256 251 262 1
257 252 253 2
258 254 255 1
259 255 256 1
260 256 257 1
261 257 258 1
262 258 259 2
263 258 260 1
264 254 263 1
265 254 264 1
266 255 265 1
267 255 266 1
268 256 267 1
269 256 268 1
270 257 269 1
271 259 270 1
272 259 271 1
273 260 272 1
274 260 273 1
@<TRIPOS>SUBSTRUCTURE
1	GLU1	1	RESIDUE	1 ****	GLU
2	ASN2	16	RESIDUE	1 ****	ASN
3	PRO3	30	RESIDUE	1 ****	PRO
4	GLU4	44	RESIDUE	1 ****	GLU
5	ILE5	59	RESIDUE	1 ****	ILE
6	ILE6	78	RESIDUE	1 ****	ILE
7	LEU7	97	RESIDUE	1 ****	LEU
8	ASP8	116	RESIDUE	1 ****	ASP
9	GLU9	128	RESIDUE	1 ****	GLU
10	HIS10	143	RESIDUE	1 ****	HIS
11	VAL11	160	RESIDUE	1 ****	VAL
12	GLN12	176	RESIDUE	1 ****	GLN
13	ARG13	193	RESIDUE	1 ****	ARG
14	VAL14	217	RESIDUE	1 ****	VAL
15	MET15	233	RESIDUE	1 ****	MET
16	ARG16	250	RESIDUE	1 ****	ARG
