REMARK WARNING: 32 MAX_TORS EXCEEDED!!!
REMARK  69 active torsions:
REMARK  status: ('A' for Active; 'I' for Inactive)
REMARK    1  A    between atoms: N_1  and  CA_2 
REMARK    2  A    between atoms: CA_2  and  C_3 
REMARK    3  A    between atoms: CA_2  and  CB_5 
REMARK       I    between atoms: C_3  and  N_11 
REMARK    4  A    between atoms: CB_5  and  CG_6 
REMARK    5  A    between atoms: CG_6  and  CD_7 
REMARK    6  A    between atoms: N_11  and  CA_12 
REMARK    7  A    between atoms: CA_12  and  C_13 
REMARK    8  A    between atoms: CA_12  and  CB_15 
REMARK       I    between atoms: C_13  and  N_22 
REMARK    9  A    between atoms: CB_15  and  CG_16 
REMARK       I    between atoms: CG_16  and  ND2_17 
REMARK   10  A    between atoms: CA_23  and  C_24 
REMARK       I    between atoms: C_24  and  N_29 
REMARK   11  A    between atoms: N_29  and  CA_30 
REMARK   12  A    between atoms: CA_30  and  C_31 
REMARK   13  A    between atoms: CA_30  and  CB_33 
REMARK       I    between atoms: C_31  and  N_39 
REMARK   14  A    between atoms: CB_33  and  CG_34 
REMARK   15  A    between atoms: CG_34  and  CD_35 
REMARK   16  A    between atoms: N_39  and  CA_40 
REMARK   17  A    between atoms: CA_40  and  C_41 
REMARK   18  A    between atoms: CA_40  and  CB_43 
REMARK       I    between atoms: C_41  and  N_47 
REMARK   19  A    between atoms: CB_43  and  OG_44 
REMARK   20  A    between atoms: N_47  and  CA_48 
REMARK   21  A    between atoms: CA_48  and  C_49 
REMARK   22  A    between atoms: CA_48  and  CB_51 
REMARK       I    between atoms: C_49  and  N_56 
REMARK   23  A    between atoms: CB_51  and  CG1_52 
REMARK   24  A    between atoms: N_56  and  CA_57 
REMARK   25  A    between atoms: CA_57  and  C_58 
REMARK   26  A    between atoms: CA_57  and  CB_60 
REMARK       I    between atoms: C_58  and  N_65 
REMARK   27  A    between atoms: CB_60  and  CG_61 
REMARK   28  A    between atoms: N_65  and  CA_66 
REMARK   29  A    between atoms: CA_66  and  C_67 
REMARK   30  A    between atoms: CA_66  and  CB_69 
REMARK       I    between atoms: C_67  and  N_74 
REMARK   31  A    between atoms: CB_69  and  CG_70 
REMARK   32  A    between atoms: N_74  and  CA_75 
REMARK   33  A    between atoms: CA_75  and  C_76 
REMARK   34  A    between atoms: CA_75  and  CB_78 
REMARK       I    between atoms: C_76  and  N_84 
REMARK   35  A    between atoms: CB_78  and  CG_79 
REMARK   36  A    between atoms: CG_79  and  CD_80 
REMARK   37  A    between atoms: N_84  and  CA_85 
REMARK   38  A    between atoms: CA_85  and  C_86 
REMARK   39  A    between atoms: CA_85  and  CB_88 
REMARK       I    between atoms: C_86  and  N_98 
REMARK   40  A    between atoms: CB_88  and  CG_89 
REMARK   41  A    between atoms: CZ_94  and  OH_95 
REMARK   42  A    between atoms: N_98  and  CA_99 
REMARK   43  A    between atoms: CA_99  and  C_100 
REMARK   44  A    between atoms: CA_99  and  CB_102 
REMARK       I    between atoms: C_100  and  N_106 
REMARK   45  A    between atoms: N_106  and  CA_107 
REMARK   46  A    between atoms: CA_107  and  C_108 
REMARK   47  A    between atoms: CA_107  and  CB_110 
REMARK       I    between atoms: C_108  and  N_118 
REMARK   48  A    between atoms: CB_110  and  CG_111 
REMARK   49  A    between atoms: CG_111  and  CD_112 
REMARK       I    between atoms: CD_112  and  NE2_113 
REMARK   50  A    between atoms: N_118  and  CA_119 
REMARK   51  A    between atoms: CA_119  and  C_120 
REMARK   52  A    between atoms: CA_119  and  CB_122 
REMARK       I    between atoms: C_120  and  N_135 
REMARK   53  A    between atoms: CB_122  and  CG_123 
REMARK   54  A    between atoms: CG_123  and  CD_124 
REMARK   55  A    between atoms: CD_124  and  NE_125 
REMARK       I    between atoms: NE_125  and  CZ_126 
REMARK       I    between atoms: CZ_126  and  NH1_127 
REMARK       I    between atoms: CZ_126  and  NH2_128 
REMARK   56  A    between atoms: N_135  and  CA_136 
REMARK   57  A    between atoms: CA_136  and  C_137 
REMARK   58  A    between atoms: CA_136  and  CB_139 
REMARK       I    between atoms: C_137  and  N_143 
REMARK   59  A    between atoms: N_143  and  CA_144 
REMARK   60  A    between atoms: CA_144  and  C_145 
REMARK   61  A    between atoms: CA_144  and  CB_147 
REMARK       I    between atoms: C_145  and  N_152 
REMARK   62  A    between atoms: CB_147  and  CG_148 
REMARK   63  A    between atoms: CG_148  and  SD_149 
REMARK   64  A    between atoms: N_152  and  CA_153 
REMARK   65  A    between atoms: CA_153  and  C_154 
REMARK   66  A    between atoms: CA_153  and  CB_156 
REMARK   67  A    between atoms: CB_156  and  CG_157 
REMARK   68  A    between atoms: CG_157  and  CD_158 
REMARK   69  A    between atoms: CD_158  and  NE_159 
REMARK       I    between atoms: NE_159  and  CZ_160 
REMARK       I    between atoms: CZ_160  and  NH1_161 
ROOT
ATOM      1  C   GLU d   9    1592.870 475.614-1616.947  0.00  0.00     0.241 C 
ATOM      2  O   GLU d   9    1593.534 476.368-1617.672  0.00  0.00    -0.271 OA
ATOM      3  N   TYR d  10    1592.967 474.339-1617.117  0.00  0.00    -0.346 N 
ATOM      4  H   TYR d  10    1592.436 473.702-1616.539  0.00  0.00     0.163 HD
ENDROOT
BRANCH   3   5
ATOM      5  CA  TYR d  10    1593.855 473.829-1618.158  0.00  0.00     0.180 C 
BRANCH   5   6
ATOM      6  C   TYR d  10    1593.486 474.395-1619.508  0.00  0.00     0.241 C 
ATOM      7  O   TYR d  10    1594.333 474.860-1620.276  0.00  0.00    -0.271 OA
ATOM      8  N   VAL d  11    1592.248 474.394-1619.870  0.00  0.00    -0.346 N 
ATOM      9  H   VAL d  11    1591.536 474.020-1619.260  0.00  0.00     0.163 HD
BRANCH   8  10
ATOM     10  CA  VAL d  11    1591.892 474.942-1621.176  0.00  0.00     0.180 C 
BRANCH  10  11
ATOM     11  C   VAL d  11    1592.355 476.373-1621.306  0.00  0.00     0.241 C 
ATOM     12  O   VAL d  11    1592.955 476.781-1622.309  0.00  0.00    -0.271 OA
ATOM     13  N   GLN d  12    1592.118 477.197-1620.342  0.00  0.00    -0.346 N 
ATOM     14  H   GLN d  12    1591.630 476.889-1619.514  0.00  0.00     0.163 HD
BRANCH  13  15
ATOM     15  CA  GLN d  12    1592.565 478.581-1620.467  0.00  0.00     0.177 C 
BRANCH  15  16
ATOM     16  C   GLN d  12    1594.054 478.650-1620.706  0.00  0.00     0.241 C 
ATOM     17  O   GLN d  12    1594.540 479.360-1621.583  0.00  0.00    -0.271 OA
ATOM     18  N   ARG d  13    1594.840 477.942-1619.967  0.00  0.00    -0.346 N 
ATOM     19  H   ARG d  13    1594.465 477.351-1619.239  0.00  0.00     0.163 HD
BRANCH  18  20
ATOM     20  CA  ARG d  13    1596.280 478.010-1620.198  0.00  0.00     0.176 C 
BRANCH  20  21
ATOM     21  C   ARG d  13    1596.616 477.641-1621.624  0.00  0.00     0.241 C 
ATOM     22  O   ARG d  13    1597.384 478.315-1622.307  0.00  0.00    -0.271 OA
ATOM     23  N   VAL d  14    1596.081 476.587-1622.140  0.00  0.00    -0.346 N 
ATOM     24  H   VAL d  14    1595.446 476.017-1621.599  0.00  0.00     0.163 HD
BRANCH  23  25
ATOM     25  CA  VAL d  14    1596.405 476.231-1623.518  0.00  0.00     0.180 C 
BRANCH  25  26
ATOM     26  C   VAL d  14    1596.074 477.363-1624.461  0.00  0.00     0.241 C 
ATOM     27  O   VAL d  14    1596.867 477.746-1625.331  0.00  0.00    -0.271 OA
ATOM     28  N   MET d  15    1594.929 477.947-1624.358  0.00  0.00    -0.346 N 
ATOM     29  H   MET d  15    1594.264 477.653-1623.657  0.00  0.00     0.163 HD
BRANCH  28  30
ATOM     30  CA  MET d  15    1594.607 479.041-1625.270  0.00  0.00     0.177 C 
BRANCH  30  31
ATOM     31  C   MET d  15    1595.637 480.142-1625.180  0.00  0.00     0.241 C 
ATOM     32  O   MET d  15    1596.139 480.655-1626.192  0.00  0.00    -0.271 OA
ATOM     33  N   ARG d  16    1596.005 480.561-1624.017  0.00  0.00    -0.347 N 
ATOM     34  H   ARG d  16    1595.611 480.159-1623.178  0.00  0.00     0.163 HD
BRANCH  33  35
ATOM     35  CA  ARG d  16    1597.001 481.626-1623.932  0.00  0.00     0.162 C 
BRANCH  35  36
ATOM     36  C   ARG d  16    1598.272 481.235-1624.649  0.00  0.00     0.219 C 
ATOM     37  O   ARG d  16    1598.386 480.160-1625.232  0.00  0.00    -0.287 OA
ENDBRANCH  35  36
BRANCH  35  38
ATOM     38  CB  ARG d  16    1597.270 481.941-1622.433  0.00  0.00     0.035 C 
BRANCH  38  39
ATOM     39  CG  ARG d  16    1598.094 483.230-1622.158  0.00  0.00     0.023 C 
BRANCH  39  40
ATOM     40  CD  ARG d  16    1598.344 483.447-1620.656  0.00  0.00     0.138 C 
BRANCH  40  41
ATOM     41  NE  ARG d  16    1599.119 484.706-1620.453  0.00  0.00    -0.227 N 
ATOM     42  CZ  ARG d  16    1599.510 485.186-1619.276  0.00  0.00     0.665 C 
ATOM     43  NH1 ARG d  16    1599.263 484.600-1618.139  0.00  0.00    -0.235 N 
ATOM     44  NH2 ARG d  16    1600.173 486.299-1619.256  0.00  0.00    -0.235 N 
ATOM     45 11HH ARG d  16    1598.738 483.726-1618.225  0.00  0.00     0.174 HD
ATOM     46 12HH ARG d  16    1599.598 485.034-1617.277  0.00  0.00     0.174 HD
ATOM     47 21HH ARG d  16    1600.358 486.744-1620.157  0.00  0.00     0.174 HD
ATOM     48 22HH ARG d  16    1600.464 486.653-1618.343  0.00  0.00     0.174 HD
ATOM     49  HE  ARG d  16    1599.397 485.289-1621.249  0.00  0.00     0.177 HD
ENDBRANCH  40  41
ENDBRANCH  39  40
ENDBRANCH  38  39
ENDBRANCH  35  38
ENDBRANCH  33  35
ENDBRANCH  30  31
BRANCH  30  50
ATOM     50  CB  MET d  15    1593.186 479.585-1624.960  0.00  0.00     0.045 C 
BRANCH  50  51
ATOM     51  CG  MET d  15    1592.024 478.587-1625.153  0.00  0.00     0.076 C 
BRANCH  51  52
ATOM     52  SD  MET d  15    1590.450 479.452-1625.037  0.00  0.00    -0.173 SA
ATOM     53  CE  MET d  15    1589.370 478.021-1624.903  0.00  0.00     0.089 C 
ENDBRANCH  51  52
ENDBRANCH  50  51
ENDBRANCH  30  50
ENDBRANCH  28  30
ENDBRANCH  25  26
BRANCH  25  54
ATOM     54  CB  VAL d  14    1595.634 474.914-1623.927  0.00  0.00     0.009 C 
ATOM     55  CG1 VAL d  14    1595.723 474.499-1625.422  0.00  0.00     0.012 C 
ATOM     56  CG2 VAL d  14    1596.067 473.661-1623.130  0.00  0.00     0.012 C 
ENDBRANCH  25  54
ENDBRANCH  23  25
ENDBRANCH  20  21
BRANCH  20  57
ATOM     57  CB  ARG d  13    1596.995 477.070-1619.186  0.00  0.00     0.036 C 
BRANCH  57  58
ATOM     58  CG  ARG d  13    1598.539 477.224-1619.105  0.00  0.00     0.023 C 
BRANCH  58  59
ATOM     59  CD  ARG d  13    1599.168 476.235-1618.110  0.00  0.00     0.138 C 
BRANCH  59  60
ATOM     60  NE  ARG d  13    1600.645 476.443-1618.059  0.00  0.00    -0.227 N 
ATOM     61  CZ  ARG d  13    1601.493 475.750-1617.306  0.00  0.00     0.665 C 
ATOM     62  NH1 ARG d  13    1601.130 474.784-1616.510  0.00  0.00    -0.235 N 
ATOM     63  NH2 ARG d  13    1602.753 476.051-1617.363  0.00  0.00    -0.235 N 
ATOM     64 11HH ARG d  13    1600.124 474.597-1616.513  0.00  0.00     0.174 HD
ATOM     65 12HH ARG d  13    1601.843 474.301-1615.963  0.00  0.00     0.174 HD
ATOM     66 21HH ARG d  13    1603.020 476.810-1617.992  0.00  0.00     0.174 HD
ATOM     67 22HH ARG d  13    1603.389 475.508-1616.775  0.00  0.00     0.174 HD
ATOM     68  HE  ARG d  13    1601.095 477.166-1618.629  0.00  0.00     0.177 HD
ENDBRANCH  59  60
ENDBRANCH  58  59
ENDBRANCH  57  58
ENDBRANCH  20  57
ENDBRANCH  18  20
ENDBRANCH  15  16
BRANCH  15  69
ATOM     69  CB  GLN d  12    1592.174 479.345-1619.183  0.00  0.00     0.044 C 
BRANCH  69  70
ATOM     70  CG  GLN d  12    1592.533 480.868-1619.149  0.00  0.00     0.105 C 
BRANCH  70  71
ATOM     71  CD  GLN d  12    1592.230 481.678-1617.883  0.00  0.00     0.215 C 
ATOM     72  NE2 GLN d  12    1591.664 481.099-1616.854  0.00  0.00    -0.370 N 
ATOM     73 21HE GLN d  12    1591.557 481.692-1616.030  0.00  0.00     0.159 HD
ATOM     74 22HE GLN d  12    1591.502 480.096-1616.960  0.00  0.00     0.159 HD
ATOM     75  OE1 GLN d  12    1592.531 482.859-1617.803  0.00  0.00    -0.274 OA
ENDBRANCH  70  71
ENDBRANCH  69  70
ENDBRANCH  15  69
ENDBRANCH  13  15
ENDBRANCH  10  11
BRANCH  10  76
ATOM     76  CB  VAL d  11    1590.330 474.835-1621.395  0.00  0.00     0.009 C 
ATOM     77  CG1 VAL d  11    1589.760 475.540-1622.656  0.00  0.00     0.012 C 
ATOM     78  CG2 VAL d  11    1589.807 473.380-1621.470  0.00  0.00     0.012 C 
ENDBRANCH  10  76
ENDBRANCH   8  10
ENDBRANCH   5   6
BRANCH   5  79
ATOM     79  CB  TYR d  10    1593.770 472.277-1618.250  0.00  0.00     0.073 C 
BRANCH  79  80
ATOM     80  CG  TYR d  10    1594.189 471.490-1617.002  0.00  0.00    -0.056 A 
ATOM     81  CD1 TYR d  10    1595.541 471.300-1616.700  0.00  0.00     0.010 A 
ATOM     82  CE1 TYR d  10    1595.909 470.597-1615.556  0.00  0.00     0.037 A 
ATOM     83  CZ  TYR d  10    1594.930 470.078-1614.712  0.00  0.00     0.065 A 
ATOM     84  CE2 TYR d  10    1593.581 470.262-1615.009  0.00  0.00     0.037 A 
ATOM     85  CD2 TYR d  10    1593.212 470.965-1616.151  0.00  0.00     0.010 A 
BRANCH  83  86
ATOM     86  OH  TYR d  10    1595.296 469.391-1613.590  0.00  0.00    -0.361 OA
ATOM     87  HH  TYR d  10    1594.500 469.113-1613.132  0.00  0.00     0.217 HD
ENDBRANCH  83  86
ENDBRANCH  79  80
ENDBRANCH   5  79
ENDBRANCH   3   5
BRANCH   1  88
ATOM     88  CA  GLU d   9    1591.952 476.141-1615.871  0.00  0.00     0.177 C 
BRANCH  88  89
ATOM     89  N   GLU d   9    1590.649 475.483-1615.926  0.00  0.00    -0.346 N 
ATOM     90  C   ASP d   8    1589.969 475.533-1617.021  0.00  0.00     0.241 C 
ATOM     91  O   ASP d   8    1590.442 476.138-1617.996  0.00  0.00    -0.271 OA
ATOM     92  H   GLU d   9    1590.286 474.996-1615.119  0.00  0.00     0.163 HD
BRANCH  90  93
ATOM     93  CA  ASP d   8    1588.623 474.853-1617.079  0.00  0.00     0.186 C 
BRANCH  93  94
ATOM     94  N   ASP d   8    1588.693 473.504-1616.526  0.00  0.00    -0.346 N 
ATOM     95  C   LEU d   7    1589.531 472.663-1617.032  0.00  0.00     0.241 C 
ATOM     96  O   LEU d   7    1590.251 473.026-1617.974  0.00  0.00    -0.271 OA
ATOM     97  H   ASP d   8    1588.096 473.232-1615.758  0.00  0.00     0.163 HD
BRANCH  95  98
ATOM     98  CA  LEU d   7    1589.603 471.268-1616.460  0.00  0.00     0.177 C 
BRANCH  98  99
ATOM     99  N   LEU d   7    1589.658 471.303-1615.002  0.00  0.00    -0.346 N 
ATOM    100  C   ILE d   6    1590.604 471.967-1614.428  0.00  0.00     0.241 C 
ATOM    101  O   ILE d   6    1591.439 472.555-1615.132  0.00  0.00    -0.271 OA
ATOM    102  H   LEU d   7    1588.966 470.816-1614.450  0.00  0.00     0.163 HD
BRANCH 100 103
ATOM    103  CA  ILE d   6    1590.661 472.004-1612.920  0.00  0.00     0.180 C 
BRANCH 103 104
ATOM    104  N   ILE d   6    1589.348 472.299-1612.354  0.00  0.00    -0.346 N 
ATOM    105  C   SER d   5    1588.744 473.382-1612.708  0.00  0.00     0.243 C 
ATOM    106  O   SER d   5    1589.291 474.136-1613.513  0.00  0.00    -0.271 OA
ATOM    107  H   ILE d   6    1588.920 471.665-1611.695  0.00  0.00     0.163 HD
BRANCH 105 108
ATOM    108  CA  SER d   5    1587.385 473.687-1612.122  0.00  0.00     0.200 C 
BRANCH 108 109
ATOM    109  N   SER d   5    1586.515 472.516-1612.181  0.00  0.00    -0.344 N 
ATOM    110  C   GLU d   4    1586.288 471.963-1613.324  0.00  0.00     0.241 C 
ATOM    111  O   GLU d   4    1586.814 472.443-1614.338  0.00  0.00    -0.271 OA
ATOM    112  H   SER d   5    1586.099 472.144-1611.339  0.00  0.00     0.163 HD
BRANCH 110 113
ATOM    113  CA  GLU d   4    1585.389 470.752-1613.385  0.00  0.00     0.177 C 
BRANCH 113 114
ATOM    114  N   GLU d   4    1585.749 469.781-1612.355  0.00  0.00    -0.346 N 
ATOM    115  C   PRO d   3    1586.953 469.321-1612.323  0.00  0.00     0.241 C 
ATOM    116  O   PRO d   3    1587.777 469.704-1613.155  0.00  0.00    -0.271 OA
ATOM    117  H   GLU d   4    1585.065 469.474-1611.678  0.00  0.00     0.163 HD
BRANCH 115 118
ATOM    118  CA  PRO d   3    1587.352 468.298-1611.246  0.00  0.00     0.179 C 
ATOM    119  N   PRO d   3    1586.900 468.707-1609.925  0.00  0.00    -0.337 N 
ATOM    120  C   ASN d   2    1587.422 469.702-1609.291  0.00  0.00     0.243 C 
ATOM    121  CD  PRO d   3    1585.822 467.914-1609.375  0.00  0.00     0.127 C 
ATOM    122  O   ASN d   2    1588.336 470.332-1609.819  0.00  0.00    -0.271 OA
ATOM    123  CG  PRO d   3    1585.364 467.095-1610.585  0.00  0.00     0.022 C 
ATOM    124  CB  PRO d   3    1586.648 466.943-1611.415  0.00  0.00     0.037 C 
BRANCH 120 125
ATOM    125  CA  ASN d   2    1586.890 470.058-1607.922  0.00  0.00     0.185 C 
BRANCH 125 126
ATOM    126  N   ASN d   2    1585.431 470.096-1607.922  0.00  0.00    -0.346 N 
ATOM    127  C   GLU d   1    1584.826 470.882-1608.747  0.00  0.00     0.242 C 
ATOM    128  O   GLU d   1    1585.502 471.581-1609.516  0.00  0.00    -0.271 OA
ATOM    129  H   ASN d   2    1584.903 469.517-1607.285  0.00  0.00     0.163 HD
BRANCH 127 130
ATOM    130  CA  GLU d   1    1583.317 470.922-1608.747  0.00  0.00     0.191 C 
BRANCH 130 131
ATOM    131  N   GLU d   1    1582.758 469.573-1608.747  0.00  0.00    -0.326 NA
ATOM    132  H   GLU d   1    1583.385 468.694-1608.747  0.00  0.00     0.180 HD
ENDBRANCH 130 131
BRANCH 130 133
ATOM    133  CB  GLU d   1    1582.794 471.707-1607.510  0.00  0.00     0.047 C 
BRANCH 133 134
ATOM    134  CG  GLU d   1    1583.269 473.192-1607.399  0.00  0.00     0.116 C 
BRANCH 134 135
ATOM    135  CD  GLU d   1    1582.845 473.996-1606.184  0.00  0.00     0.172 C 
ATOM    136  OE1 GLU d   1    1582.117 473.494-1605.306  0.00  0.00    -0.648 OA
ATOM    137  OE2 GLU d   1    1583.275 475.166-1606.112  0.00  0.00    -0.648 OA
ENDBRANCH 134 135
ENDBRANCH 133 134
ENDBRANCH 130 133
ENDBRANCH 127 130
ENDBRANCH 125 126
BRANCH 125 138
ATOM    138  CB  ASN d   2    1587.382 469.035-1606.857  0.00  0.00     0.137 C 
BRANCH 138 139
ATOM    139  CG  ASN d   2    1586.919 469.258-1605.414  0.00  0.00     0.217 C 
ATOM    140  ND2 ASN d   2    1587.514 470.173-1604.696  0.00  0.00    -0.370 N 
ATOM    141 21HD ASN d   2    1587.033 470.346-1603.809  0.00  0.00     0.159 HD
ATOM    142 22HD ASN d   2    1588.215 470.745-1605.165  0.00  0.00     0.159 HD
ATOM    143  OD1 ASN d   2    1585.999 468.625-1604.920  0.00  0.00    -0.274 OA
ENDBRANCH 138 139
ENDBRANCH 125 138
ENDBRANCH 120 125
ENDBRANCH 115 118
ENDBRANCH 113 114
BRANCH 113 144
ATOM    144  CB  GLU d   4    1583.900 471.171-1613.214  0.00  0.00     0.045 C 
BRANCH 144 145
ATOM    145  CG  GLU d   4    1583.352 472.174-1614.280  0.00  0.00     0.116 C 
BRANCH 145 146
ATOM    146  CD  GLU d   4    1581.926 472.671-1614.136  0.00  0.00     0.172 C 
ATOM    147  OE1 GLU d   4    1581.199 472.273-1613.205  0.00  0.00    -0.648 OA
ATOM    148  OE2 GLU d   4    1581.536 473.500-1614.984  0.00  0.00    -0.648 OA
ENDBRANCH 145 146
ENDBRANCH 144 145
ENDBRANCH 113 144
ENDBRANCH 110 113
ENDBRANCH 108 109
BRANCH 108 149
ATOM    149  CB  SER d   5    1587.496 474.220-1610.671  0.00  0.00     0.199 C 
BRANCH 149 150
ATOM    150  OG  SER d   5    1588.228 473.340-1609.811  0.00  0.00    -0.398 OA
ATOM    151  HG  SER d   5    1587.740 472.515-1609.760  0.00  0.00     0.209 HD
ENDBRANCH 149 150
ENDBRANCH 108 149
ENDBRANCH 105 108
ENDBRANCH 103 104
BRANCH 103 152
ATOM    152  CB  ILE d   6    1591.261 470.668-1612.321  0.00  0.00     0.013 C 
ATOM    153  CG2 ILE d   6    1592.703 470.367-1612.836  0.00  0.00     0.012 C 
BRANCH 152 154
ATOM    154  CG1 ILE d   6    1591.281 470.606-1610.760  0.00  0.00     0.002 C 
ATOM    155  CD1 ILE d   6    1591.551 469.217-1610.145  0.00  0.00     0.005 C 
ENDBRANCH 152 154
ENDBRANCH 103 152
ENDBRANCH 100 103
ENDBRANCH  98  99
BRANCH  98 156
ATOM    156  CB  LEU d   7    1588.400 470.407-1616.941  0.00  0.00     0.038 C 
BRANCH 156 157
ATOM    157  CG  LEU d   7    1588.327 468.928-1616.474  0.00  0.00    -0.020 C 
ATOM    158  CD1 LEU d   7    1587.138 468.222-1617.140  0.00  0.00     0.009 C 
ATOM    159  CD2 LEU d   7    1589.621 468.149-1616.766  0.00  0.00     0.009 C 
ENDBRANCH 156 157
ENDBRANCH  98 156
ENDBRANCH  95  98
ENDBRANCH  93  94
BRANCH  93 160
ATOM    160  CB  ASP d   8    1587.545 475.692-1616.337  0.00  0.00     0.147 C 
BRANCH 160 161
ATOM    161  CG  ASP d   8    1587.326 477.113-1616.877  0.00  0.00     0.175 C 
ATOM    162  OD1 ASP d   8    1587.390 477.312-1618.108  0.00  0.00    -0.648 OA
ATOM    163  OD2 ASP d   8    1587.134 478.038-1616.061  0.00  0.00    -0.648 OA
ENDBRANCH 160 161
ENDBRANCH  93 160
ENDBRANCH  90  93
ENDBRANCH  88  89
BRANCH  88 164
ATOM    164  CB  GLU d   9    1592.586 475.933-1614.466  0.00  0.00     0.045 C 
BRANCH 164 165
ATOM    165  CG  GLU d   9    1593.968 476.625-1614.236  0.00  0.00     0.116 C 
BRANCH 165 166
ATOM    166  CD  GLU d   9    1594.670 476.411-1612.908  0.00  0.00     0.172 C 
ATOM    167  OE1 GLU d   9    1594.149 475.720-1612.012  0.00  0.00    -0.648 OA
ATOM    168  OE2 GLU d   9    1595.789 476.949-1612.776  0.00  0.00    -0.648 OA
ENDBRANCH 165 166
ENDBRANCH 164 165
ENDBRANCH  88 164
ENDBRANCH   1  88
TORSDOF 69
