@<TRIPOS>MOLECULE
6-3
253 254 16              
SMALL
USER_CHARGES
@<TRIPOS>ATOM
1	   N	876.842	236.017	-843.513	N.3	1	GLU1	-0.516	
2	  CA	877.401	237.366	-843.513	C.3	1	GLU1	0.040	
3	   C	878.910	237.326	-843.513	C.2	1	GLU1	0.537	
4	   O	879.586	238.025	-844.281	O.2	1	GLU1	-0.582	
5	  CB	876.878	238.151	-842.276	C.3	1	GLU1	0.056	
6	  CG	877.353	239.636	-842.165	C.3	1	GLU1	0.014	
7	  CD	876.929	240.440	-840.950	C.2	1	GLU1	0.805	
8	 OE1	876.201	239.938	-840.072	O.co2	1	GLU1	-0.819	
9	 OE2	877.359	241.610	-840.878	O.co2	1	GLU1	-0.819	
10	   H	877.469	235.138	-843.513	 H	1	GLU1	0.294	
11	  HA	877.075	237.884	-844.433	 H	1	GLU1	0.111	
12	 2HB	877.167	237.620	-841.346	 H	1	GLU1	-0.017	
13	 3HB	875.771	238.141	-842.263	 H	1	GLU1	-0.017	
14	 2HG	877.043	240.221	-843.046	 H	1	GLU1	-0.043	
15	 3HG	878.453	239.703	-842.136	 H	1	GLU1	-0.043	
16	   N	879.515	236.540	-842.688	N.am	2	ASN2	-0.416	
17	  CA	880.974	236.501	-842.688	C.3	2	ASN2	0.014	
18	   C	881.506	236.146	-844.056	C.2	2	ASN2	0.597	
19	   O	882.420	236.776	-844.585	O.2	2	ASN2	-0.568	
20	  CB	881.466	235.478	-841.623	C.3	2	ASN2	-0.204	
21	  CG	881.003	235.702	-840.180	C.2	2	ASN2	0.713	
22	 ND2	881.598	236.617	-839.462	N.pl3	2	ASN2	-0.919	
23	 OD1	880.083	235.068	-839.686	O.2	2	ASN2	-0.593	
24	   H	878.987	235.960	-842.051	 H	2	ASN2	0.272	
25	  HA	881.352	237.511	-842.442	 H	2	ASN2	0.105	
26	 2HB	882.571	235.419	-841.627	 H	2	ASN2	0.080	
27	 3HB	881.137	234.460	-841.909	 H	2	ASN2	0.080	
28	1HD2	881.117	236.790	-838.575	 H	2	ASN2	0.420	
29	2HD2	882.299	237.189	-839.931	 H	2	ASN2	0.420	
30	   N	880.984	235.151	-844.690	N.am	3	PRO3	-0.255	
31	  CA	881.436	234.741	-846.012	C.3	3	PRO3	-0.027	
32	   C	881.038	235.765	-847.089	C.2	3	PRO3	0.590	
33	   O	881.861	236.148	-847.920	O.2	3	PRO3	-0.575	
34	  CB	880.732	233.387	-846.181	C.3	3	PRO3	-0.007	
35	  CG	879.449	233.539	-845.351	C.3	3	PRO3	0.019	
36	  CD	879.906	234.357	-844.141	C.3	3	PRO3	0.019	
37	  HA	882.522	234.622	-846.026	 H	3	PRO3	0.064	
38	 2HB	881.355	232.605	-845.741	 H	3	PRO3	0.025	
39	 3HB	880.534	233.138	-847.227	 H	3	PRO3	0.025	
40	 2HG	879.021	232.576	-845.060	 H	3	PRO3	0.021	
41	 3HG	878.711	234.109	-845.919	 H	3	PRO3	0.021	
42	 2HD	880.296	233.708	-843.354	 H	3	PRO3	0.039	
43	 3HD	879.110	234.993	-843.748	 H	3	PRO3	0.039	
44	   N	879.833	236.225	-847.121	N.am	4	GLU4	-0.516	
45	  CA	879.473	237.196	-848.151	C.3	4	GLU4	0.040	
46	   C	880.372	238.407	-848.090	C.2	4	GLU4	0.537	
47	   O	880.898	238.886	-849.104	O.2	4	GLU4	-0.582	
48	  CB	877.985	237.614	-847.981	C.3	4	GLU4	0.056	
49	  CG	877.436	238.617	-849.046	C.3	4	GLU4	0.014	
50	  CD	876.010	239.114	-848.903	C.2	4	GLU4	0.805	
51	 OE1	875.284	238.715	-847.972	O.co2	4	GLU4	-0.819	
52	 OE2	875.620	239.943	-849.751	O.co2	4	GLU4	-0.819	
53	   H	879.149	235.918	-846.445	 H	4	GLU4	0.294	
54	  HA	879.604	236.725	-849.142	 H	4	GLU4	0.111	
55	 2HB	877.832	238.054	-846.974	 H	4	GLU4	-0.017	
56	 3HB	877.337	236.716	-847.987	 H	4	GLU4	-0.017	
57	 2HG	877.518	238.203	-850.064	 H	4	GLU4	-0.043	
58	 3HG	878.024	239.550	-849.057	 H	4	GLU4	-0.043	
59	   N	880.599	238.960	-846.947	N.am	5	SER5	-0.416	
60	  CA	881.469	240.131	-846.888	C.3	5	SER5	-0.025	
61	   C	882.828	239.826	-847.474	C.2	5	SER5	0.597	
62	   O	883.375	240.579	-848.278	O.2	5	SER5	-0.568	
63	  CB	881.580	240.664	-845.438	C.3	5	SER5	0.212	
64	  OG	882.312	239.785	-844.576	O.3	5	SER5	-0.655	
65	   H	880.182	238.588	-846.105	 H	5	SER5	0.272	
66	  HA	881.019	240.921	-847.517	 H	5	SER5	0.084	
67	 2HB	880.580	240.857	-845.004	 H	5	SER5	0.035	
68	 3HB	882.085	241.649	-845.440	 H	5	SER5	0.035	
69	  HG	881.823	238.960	-844.526	 H	5	SER5	0.428	
70	   N	883.432	238.743	-847.119	N.am	6	GLY6	-0.416	
71	  CA	884.746	238.448	-847.685	C.3	6	GLY6	-0.025	
72	   C	884.688	238.411	-849.193	C.2	6	GLY6	0.597	
73	   O	885.519	238.995	-849.894	O.2	6	GLY6	-0.568	
74	   H	883.004	238.109	-846.460	 H	6	GLY6	0.272	
75	 3HA	885.057	237.512	-847.326	 H	6	GLY6	0.070	
76	  HA	885.451	239.248	-847.392	 H	6	GLY6	0.070	
77	   N	883.743	237.747	-849.767	N.am	7	LEU7	-0.416	
78	  CA	883.688	237.711	-851.225	C.3	7	LEU7	-0.052	
79	   C	883.615	239.106	-851.798	C.2	7	LEU7	0.597	
80	   O	884.336	239.469	-852.740	O.2	7	LEU7	-0.568	
81	  CB	882.484	236.850	-851.706	C.3	7	LEU7	-0.110	
82	  CG	882.412	235.371	-851.239	C.3	7	LEU7	0.353	
83	 CD1	881.222	234.665	-851.905	C.3	7	LEU7	-0.412	
84	 CD2	883.706	234.592	-851.531	C.3	7	LEU7	-0.412	
85	   H	883.051	237.260	-849.216	 H	7	LEU7	0.272	
86	  HA	884.629	237.271	-851.600	 H	7	LEU7	0.092	
87	 2HB	882.461	236.867	-852.813	 H	7	LEU7	0.046	
88	 3HB	881.545	237.353	-851.401	 H	7	LEU7	0.046	
89	  HG	882.242	235.363	-850.142	 H	7	LEU7	-0.036	
90	1HD1	880.265	235.174	-851.682	 H	7	LEU7	0.100	
91	2HD1	881.321	234.625	-853.006	 H	7	LEU7	0.100	
92	3HD1	881.115	233.624	-851.549	 H	7	LEU7	0.100	
93	1HD2	883.981	234.622	-852.601	 H	7	LEU7	0.100	
94	2HD2	884.559	235.004	-850.960	 H	7	LEU7	0.100	
95	3HD2	883.624	233.530	-851.235	 H	7	LEU7	0.100	
96	   N	882.778	239.947	-851.292	N.am	8	ASP8	-0.516	
97	  CA	882.707	241.296	-851.845	C.3	8	ASP8	0.038	
98	   C	884.054	241.976	-851.787	C.2	8	ASP8	0.537	
99	   O	884.526	242.582	-852.762	O.2	8	ASP8	-0.582	
100	  CB	881.629	242.135	-851.103	C.3	8	ASP8	-0.030	
101	  CG	881.410	243.556	-851.643	C.2	8	ASP8	0.799	
102	 OD1	881.474	243.755	-852.874	O.co2	8	ASP8	-0.801	
103	 OD2	881.217	244.482	-850.828	O.co2	8	ASP8	-0.801	
104	   H	882.180	239.675	-850.524	 H	8	ASP8	0.294	
105	  HA	882.424	241.218	-852.912	 H	8	ASP8	0.088	
106	 2HB	881.886	242.218	-850.031	 H	8	ASP8	-0.012	
107	 3HB	880.650	241.630	-851.136	 H	8	ASP8	-0.012	
108	   N	884.733	241.926	-850.692	N.am	9	GLU9	-0.516	
109	  CA	886.036	242.584	-850.637	C.3	9	GLU9	0.040	
110	   C	886.954	242.057	-851.713	C.2	9	GLU9	0.537	
111	   O	887.618	242.812	-852.438	O.2	9	GLU9	-0.582	
112	  CB	886.669	242.376	-849.231	C.3	9	GLU9	0.056	
113	  CG	888.052	243.069	-849.002	C.3	9	GLU9	0.014	
114	  CD	888.754	242.856	-847.674	C.2	9	GLU9	0.805	
115	 OE1	888.232	242.165	-846.777	O.co2	9	GLU9	-0.819	
116	 OE2	889.873	243.394	-847.542	O.co2	9	GLU9	-0.819	
117	   H	884.370	241.440	-849.885	 H	9	GLU9	0.294	
118	  HA	885.894	243.666	-850.812	 H	9	GLU9	0.111	
119	 2HB	886.783	241.292	-849.028	 H	9	GLU9	-0.017	
120	 3HB	885.972	242.730	-848.447	 H	9	GLU9	-0.017	
121	 2HG	887.980	244.160	-849.142	 H	9	GLU9	-0.043	
122	 3HG	888.799	242.724	-849.736	 H	9	GLU9	-0.043	
123	   N	887.051	240.782	-851.882	N.am	10	HIS10	-0.416	
124	  CA	887.939	240.271	-852.923	C.3	10	HIS10	-0.058	
125	   C	887.572	240.835	-854.274	C.2	10	HIS10	0.597	
126	   O	888.424	241.301	-855.045	O.2	10	HIS10	-0.568	
127	  CB	887.775	238.742	-852.918	C.3	10	HIS10	-0.007	
128	  CG	889.061	238.032	-852.610	C.2	10	HIS10	0.187	
129	 CD2	889.442	237.696	-851.318	C.2	10	HIS10	-0.221	
130	 ND1	890.013	237.626	-853.543	N.2	10	HIS10	-0.543	
131	 CE1	890.920	237.068	-852.720	C.2	10	HIS10	0.163	
132	 NE2	890.657	237.065	-851.384	N.pl3	10	HIS10	-0.280	
133	   H	886.520	240.146	-851.304	 H	10	HIS10	0.272	
134	  HA	888.958	240.628	-852.698	 H	10	HIS10	0.136	
135	 2HB	887.410	238.375	-853.898	 H	10	HIS10	0.037	
136	 3HB	887.020	238.404	-852.178	 H	10	HIS10	0.037	
137	 2HD	888.857	237.911	-850.429	 H	10	HIS10	0.186	
138	 1HE	891.811	236.648	-853.167	 H	10	HIS10	0.144	
139	 2HE	891.224	236.688	-850.611	 H	10	HIS10	0.334	
140	   N	886.334	240.834	-854.637	N.am	11	VAL11	-0.416	
141	  CA	885.979	241.380	-855.944	C.3	11	VAL11	-0.087	
142	   C	886.443	242.811	-856.076	C.2	11	VAL11	0.597	
143	   O	887.044	243.217	-857.079	O.2	11	VAL11	-0.568	
144	  CB	884.418	241.273	-856.163	C.3	11	VAL11	0.299	
145	 CG1	883.849	241.977	-857.426	C.3	11	VAL11	-0.319	
146	 CG2	883.894	239.819	-856.237	C.3	11	VAL11	-0.319	
147	   H	885.621	240.461	-854.026	 H	11	VAL11	0.272	
148	  HA	886.499	240.798	-856.726	 H	11	VAL11	0.097	
149	  HB	883.930	241.753	-855.288	 H	11	VAL11	-0.030	
150	1HG1	884.288	241.586	-858.363	 H	11	VAL11	0.079	
151	2HG1	882.750	241.870	-857.508	 H	11	VAL11	0.079	
152	3HG1	884.027	243.070	-857.416	 H	11	VAL11	0.079	
153	1HG2	884.184	239.232	-855.346	 H	11	VAL11	0.079	
154	2HG2	882.788	239.782	-856.279	 H	11	VAL11	0.079	
155	3HG2	884.276	239.278	-857.123	 H	11	VAL11	0.079	
156	   N	886.206	243.637	-855.113	N.am	12	GLN12	-0.416	
157	  CA	886.653	245.020	-855.240	C.3	12	GLN12	-0.003	
158	   C	888.143	245.088	-855.478	C.2	12	GLN12	0.597	
159	   O	888.630	245.796	-856.356	O.2	12	GLN12	-0.568	
160	  CB	886.262	245.787	-853.957	C.3	12	GLN12	-0.004	
161	  CG	886.622	247.309	-853.926	C.3	12	GLN12	-0.064	
162	  CD	886.319	248.122	-852.661	C.2	12	GLN12	0.695	
163	 NE2	885.752	247.545	-851.632	N.pl3	12	GLN12	-0.941	
164	 OE1	886.620	249.303	-852.583	O.2	12	GLN12	-0.609	
165	   H	885.717	243.330	-854.284	 H	12	GLN12	0.272	
166	  HA	886.154	245.476	-856.115	 H	12	GLN12	0.085	
167	 2HB	886.738	245.286	-853.088	 H	12	GLN12	0.017	
168	 3HB	885.172	245.679	-853.794	 H	12	GLN12	0.017	
169	 2HG	886.144	247.829	-854.776	 H	12	GLN12	0.035	
170	 3HG	887.705	247.451	-854.091	 H	12	GLN12	0.035	
171	1HE2	885.645	248.139	-850.808	 H	12	GLN12	0.425	
172	2HE2	885.589	246.541	-851.736	 H	12	GLN12	0.425	
173	   N	888.928	244.381	-854.737	N.am	13	ARG13	-0.348	
174	  CA	890.369	244.448	-854.968	C.3	13	ARG13	-0.264	
175	   C	890.705	244.077	-856.393	C.2	13	ARG13	0.734	
176	   O	891.473	244.749	-857.077	O.2	13	ARG13	-0.589	
177	  CB	891.082	243.509	-853.954	C.3	13	ARG13	-0.001	
178	  CG	892.627	243.662	-853.873	C.3	13	ARG13	0.039	
179	  CD	893.255	242.675	-852.876	C.3	13	ARG13	0.049	
180	  NE	894.732	242.883	-852.825	N.pl3	13	ARG13	-0.530	
181	  CZ	895.580	242.191	-852.070	C.cat	13	ARG13	0.808	
182	 NH1	895.215	241.226	-851.273	N.pl3	13	ARG13	-0.863	
183	 NH2	896.839	242.491	-852.127	N.pl3	13	ARG13	-0.863	
184	   H	888.552	243.791	-854.009	 H	13	ARG13	0.275	
185	  HA	890.692	245.494	-854.809	 H	13	ARG13	0.156	
186	 2HB	890.816	242.458	-854.194	 H	13	ARG13	0.033	
187	 3HB	890.657	243.675	-852.944	 H	13	ARG13	0.033	
188	 2HG	892.875	244.707	-853.594	 H	13	ARG13	0.029	
189	 3HG	893.078	243.507	-854.875	 H	13	ARG13	0.029	
190	 2HD	893.011	241.635	-853.185	 H	13	ARG13	0.069	
191	 3HD	892.798	242.820	-851.873	 H	13	ARG13	0.069	
192	  HE	895.183	243.605	-853.396	 H	13	ARG13	0.346	
193	1HH1	894.210	241.040	-851.276	 H	13	ARG13	0.448	
194	2HH1	895.929	240.744	-850.725	 H	13	ARG13	0.448	
195	1HH2	897.107	243.249	-852.758	 H	13	ARG13	0.448	
196	2HH2	897.475	241.950	-851.539	 H	13	ARG13	0.448	
197	   N	890.169	243.022	-856.908	N.am	14	VAL14	-0.416	
198	  CA	890.494	242.663	-858.285	C.3	14	VAL14	-0.087	
199	   C	890.163	243.793	-859.231	C.2	14	VAL14	0.597	
200	   O	890.956	244.175	-860.100	O.2	14	VAL14	-0.568	
201	  CB	889.722	241.346	-858.693	C.3	14	VAL14	0.299	
202	 CG1	889.811	240.928	-860.186	C.3	14	VAL14	-0.319	
203	 CG2	890.155	240.094	-857.893	C.3	14	VAL14	-0.319	
204	   H	889.534	242.453	-856.366	 H	14	VAL14	0.272	
205	  HA	891.582	242.487	-858.360	 H	14	VAL14	0.097	
206	  HB	888.646	241.517	-858.476	 H	14	VAL14	-0.030	
207	1HG1	890.853	240.752	-860.515	 H	14	VAL14	0.079	
208	2HG1	889.239	240.005	-860.399	 H	14	VAL14	0.079	
209	3HG1	889.382	241.690	-860.864	 H	14	VAL14	0.079	
210	1HG2	890.068	240.252	-856.802	 H	14	VAL14	0.079	
211	2HG2	889.519	239.217	-858.125	 H	14	VAL14	0.079	
212	3HG2	891.203	239.804	-858.098	 H	14	VAL14	0.079	
213	   N	889.018	244.379	-859.129	N.am	15	MET15	-0.416	
214	  CA	888.697	245.471	-860.042	C.3	15	MET15	-0.024	
215	   C	889.727	246.572	-859.954	C.2	15	MET15	0.597	
216	   O	890.229	247.083	-860.967	O.2	15	MET15	-0.568	
217	  CB	887.276	246.016	-859.733	C.3	15	MET15	0.034	
218	  CG	886.114	245.018	-859.924	C.3	15	MET15	0.002	
219	  SD	884.540	245.883	-859.810	S.3	15	MET15	-0.274	
220	  CE	883.459	244.453	-859.673	C.3	15	MET15	-0.054	
221	   H	888.354	244.085	-858.427	 H	15	MET15	0.272	
222	  HA	888.723	245.084	-861.078	 H	15	MET15	0.088	
223	 2HB	887.073	246.895	-860.375	 H	15	MET15	0.024	
224	 3HB	887.240	246.409	-858.696	 H	15	MET15	0.024	
225	 2HG	886.157	244.232	-859.147	 H	15	MET15	0.044	
226	 3HG	886.177	244.503	-860.901	 H	15	MET15	0.044	
227	 1HE	883.603	243.765	-860.526	 H	15	MET15	0.068	
228	 2HE	883.669	243.900	-858.741	 H	15	MET15	0.068	
229	 3HE	882.401	244.768	-859.657	 H	15	MET15	0.068	
230	   N	890.096	246.993	-858.792	N.am	16	ARG16	-0.348	
231	  CA	891.092	248.057	-858.708	C.3	16	ARG16	-0.264	
232	   C	892.363	247.665	-859.425	C.2	16	ARG16	0.734	
233	   O	892.477	246.589	-860.006	O.2	16	ARG16	-0.589	
234	  CB	891.361	248.375	-857.210	C.3	16	ARG16	-0.001	
235	  CG	892.185	249.664	-856.937	C.3	16	ARG16	0.039	
236	  CD	892.435	249.884	-855.436	C.3	16	ARG16	0.049	
237	  NE	893.211	251.143	-855.235	N.pl3	16	ARG16	-0.530	
238	  CZ	893.602	251.625	-854.059	C.cat	16	ARG16	0.808	
239	 NH1	893.355	251.040	-852.921	N.pl3	16	ARG16	-0.863	
240	 NH2	894.266	252.738	-854.040	N.pl3	16	ARG16	-0.863	
241	   H	889.701	246.593	-857.953	 H	16	ARG16	0.275	
242	  HA	890.682	248.950	-859.218	 H	16	ARG16	0.156	
243	 2HB	891.858	247.499	-856.744	 H	16	ARG16	0.033	
244	 3HB	890.392	248.455	-856.676	 H	16	ARG16	0.033	
245	 2HG	891.655	250.535	-857.374	 H	16	ARG16	0.029	
246	 3HG	893.159	249.612	-857.466	 H	16	ARG16	0.029	
247	 2HD	892.985	249.009	-855.023	 H	16	ARG16	0.069	
248	 3HD	891.463	249.926	-854.900	 H	16	ARG16	0.069	
249	  HE	893.489	251.724	-856.032	 H	16	ARG16	0.346	
250	1HH1	892.830	250.167	-853.005	 H	16	ARG16	0.448	
251	2HH1	893.689	251.476	-852.059	 H	16	ARG16	0.448	
252	1HH2	894.451	253.181	-854.942	 H	16	ARG16	0.448	
253	2HH2	894.556	253.093	-853.128	 H	16	ARG16	0.448	
@<TRIPOS>BOND
1 1 2 1
2 1 10 1
3 2 3 1
4 2 5 1
5 2 11 1
6 3 4 2
7 3 16 1
8 5 6 1
9 6 7 1
10 7 8 2
11 7 9 1
12 5 12 1
13 5 13 1
14 6 14 1
15 6 15 1
16 16 17 1
17 16 24 1
18 17 18 1
19 17 20 1
20 17 25 1
21 18 19 2
22 18 30 1
23 20 21 1
24 21 22 1
25 21 23 2
26 20 26 1
27 20 27 1
28 22 28 1
29 22 29 1
30 30 31 1
31 30 36 1
32 31 32 1
33 31 34 1
34 31 37 1
35 32 33 2
36 32 44 1
37 34 35 1
38 35 36 1
39 34 38 1
40 34 39 1
41 35 40 1
42 35 41 1
43 36 42 1
44 36 43 1
45 44 45 1
46 44 53 1
47 45 46 1
48 45 48 1
49 45 54 1
50 46 47 2
51 46 59 1
52 48 49 1
53 49 50 1
54 50 51 2
55 50 52 1
56 48 55 1
57 48 56 1
58 49 57 1
59 49 58 1
60 59 60 1
61 59 65 1
62 60 61 1
63 60 63 1
64 60 66 1
65 61 62 2
66 61 70 1
67 63 64 1
68 63 67 1
69 63 68 1
70 64 69 1
71 70 71 1
72 70 74 1
73 71 72 1
74 71 75 1
75 71 76 1
76 72 73 2
77 72 77 1
78 77 78 1
79 77 85 1
80 78 79 1
81 78 81 1
82 78 86 1
83 79 80 2
84 79 96 1
85 81 82 1
86 82 83 1
87 82 84 1
88 81 87 1
89 81 88 1
90 82 89 1
91 83 90 1
92 83 91 1
93 83 92 1
94 84 93 1
95 84 94 1
96 84 95 1
97 96 97 1
98 96 104 1
99 97 98 1
100 97 100 1
101 97 105 1
102 98 99 2
103 98 108 1
104 100 101 1
105 101 102 2
106 101 103 1
107 100 106 1
108 100 107 1
109 108 109 1
110 108 117 1
111 109 110 1
112 109 112 1
113 109 118 1
114 110 111 2
115 110 123 1
116 112 113 1
117 113 114 1
118 114 115 2
119 114 116 1
120 112 119 1
121 112 120 1
122 113 121 1
123 113 122 1
124 123 124 1
125 123 133 1
126 124 125 1
127 124 127 1
128 124 134 1
129 125 126 2
130 125 140 1
131 127 128 1
132 128 129 2
133 129 132 1
134 128 130 1
135 130 131 2
136 131 132 1
137 127 135 1
138 127 136 1
139 129 137 1
140 131 138 1
141 132 139 1
142 140 141 1
143 140 147 1
144 141 142 1
145 141 144 1
146 141 148 1
147 142 143 2
148 142 156 1
149 144 145 1
150 144 146 1
151 144 149 1
152 145 150 1
153 145 151 1
154 145 152 1
155 146 153 1
156 146 154 1
157 146 155 1
158 156 157 1
159 156 165 1
160 157 158 1
161 157 160 1
162 157 166 1
163 158 159 2
164 158 173 1
165 160 161 1
166 161 162 1
167 162 163 1
168 162 164 2
169 160 167 1
170 160 168 1
171 161 169 1
172 161 170 1
173 163 171 1
174 163 172 1
175 173 174 1
176 173 184 1
177 174 175 1
178 174 177 1
179 174 185 1
180 175 176 2
181 175 197 1
182 177 178 1
183 178 179 1
184 179 180 1
185 180 181 1
186 181 182 2
187 181 183 1
188 177 186 1
189 177 187 1
190 178 188 1
191 178 189 1
192 179 190 1
193 179 191 1
194 180 192 1
195 182 193 1
196 182 194 1
197 183 195 1
198 183 196 1
199 197 198 1
200 197 204 1
201 198 199 1
202 198 201 1
203 198 205 1
204 199 200 2
205 199 213 1
206 201 202 1
207 201 203 1
208 201 206 1
209 202 207 1
210 202 208 1
211 202 209 1
212 203 210 1
213 203 211 1
214 203 212 1
215 213 214 1
216 213 221 1
217 214 215 1
218 214 217 1
219 214 222 1
220 215 216 2
221 215 230 1
222 217 218 1
223 218 219 1
224 219 220 1
225 217 223 1
226 217 224 1
227 218 225 1
228 218 226 1
229 220 227 1
230 220 228 1
231 220 229 1
232 230 231 1
233 230 241 1
234 231 232 1
235 231 234 1
236 231 242 1
237 232 233 2
238 234 235 1
239 235 236 1
240 236 237 1
241 237 238 1
242 238 239 2
243 238 240 1
244 234 243 1
245 234 244 1
246 235 245 1
247 235 246 1
248 236 247 1
249 236 248 1
250 237 249 1
251 239 250 1
252 239 251 1
253 240 252 1
254 240 253 1
@<TRIPOS>SUBSTRUCTURE
1	GLU1	1	RESIDUE	1 ****	GLU
2	ASN2	16	RESIDUE	1 ****	ASN
3	PRO3	30	RESIDUE	1 ****	PRO
4	GLU4	44	RESIDUE	1 ****	GLU
5	SER5	59	RESIDUE	1 ****	SER
6	GLY6	70	RESIDUE	1 ****	GLY
7	LEU7	77	RESIDUE	1 ****	LEU
8	ASP8	96	RESIDUE	1 ****	ASP
9	GLU9	108	RESIDUE	1 ****	GLU
10	HIS10	123	RESIDUE	1 ****	HIS
11	VAL11	140	RESIDUE	1 ****	VAL
12	GLN12	156	RESIDUE	1 ****	GLN
13	ARG13	173	RESIDUE	1 ****	ARG
14	VAL14	197	RESIDUE	1 ****	VAL
15	MET15	213	RESIDUE	1 ****	MET
16	ARG16	230	RESIDUE	1 ****	ARG
