REMARK WARNING: 32 MAX_TORS EXCEEDED!!!
REMARK  67 active torsions:
REMARK  status: ('A' for Active; 'I' for Inactive)
REMARK    1  A    between atoms: N_1  and  CA_2 
REMARK    2  A    between atoms: CA_2  and  C_3 
REMARK    3  A    between atoms: CA_2  and  CB_5 
REMARK       I    between atoms: C_3  and  N_11 
REMARK    4  A    between atoms: CB_5  and  CG_6 
REMARK    5  A    between atoms: CG_6  and  CD_7 
REMARK    6  A    between atoms: N_11  and  CA_12 
REMARK    7  A    between atoms: CA_12  and  C_13 
REMARK    8  A    between atoms: CA_12  and  CB_15 
REMARK       I    between atoms: C_13  and  N_22 
REMARK    9  A    between atoms: CB_15  and  CG_16 
REMARK       I    between atoms: CG_16  and  ND2_17 
REMARK   10  A    between atoms: CA_23  and  C_24 
REMARK       I    between atoms: C_24  and  N_29 
REMARK   11  A    between atoms: N_29  and  CA_30 
REMARK   12  A    between atoms: CA_30  and  C_31 
REMARK   13  A    between atoms: CA_30  and  CB_33 
REMARK       I    between atoms: C_31  and  N_39 
REMARK   14  A    between atoms: CB_33  and  CG_34 
REMARK   15  A    between atoms: CG_34  and  CD_35 
REMARK   16  A    between atoms: N_39  and  CA_40 
REMARK   17  A    between atoms: CA_40  and  C_41 
REMARK   18  A    between atoms: CA_40  and  CB_43 
REMARK       I    between atoms: C_41  and  N_47 
REMARK   19  A    between atoms: CB_43  and  OG_44 
REMARK   20  A    between atoms: N_47  and  CA_48 
REMARK   21  A    between atoms: CA_48  and  C_49 
REMARK   22  A    between atoms: CA_48  and  CB_51 
REMARK       I    between atoms: C_49  and  N_56 
REMARK   23  A    between atoms: CB_51  and  CG1_52 
REMARK   24  A    between atoms: N_56  and  CA_57 
REMARK   25  A    between atoms: CA_57  and  C_58 
REMARK   26  A    between atoms: CA_57  and  CB_60 
REMARK       I    between atoms: C_58  and  N_65 
REMARK   27  A    between atoms: CB_60  and  CG_61 
REMARK   28  A    between atoms: N_65  and  CA_66 
REMARK   29  A    between atoms: CA_66  and  C_67 
REMARK   30  A    between atoms: CA_66  and  CB_69 
REMARK       I    between atoms: C_67  and  N_74 
REMARK   31  A    between atoms: CB_69  and  CG_70 
REMARK   32  A    between atoms: N_74  and  CA_75 
REMARK   33  A    between atoms: CA_75  and  C_76 
REMARK   34  A    between atoms: CA_75  and  CB_78 
REMARK       I    between atoms: C_76  and  N_84 
REMARK   35  A    between atoms: CB_78  and  CG_79 
REMARK   36  A    between atoms: CG_79  and  CD_80 
REMARK   37  A    between atoms: N_84  and  CA_85 
REMARK   38  A    between atoms: CA_85  and  C_86 
REMARK   39  A    between atoms: CA_85  and  CB_88 
REMARK       I    between atoms: C_86  and  N_96 
REMARK   40  A    between atoms: CB_88  and  CG_89 
REMARK   41  A    between atoms: N_96  and  CA_97 
REMARK   42  A    between atoms: CA_97  and  C_98 
REMARK   43  A    between atoms: CA_97  and  CB_100 
REMARK       I    between atoms: C_98  and  N_104 
REMARK   44  A    between atoms: N_104  and  CA_105 
REMARK   45  A    between atoms: CA_105  and  C_106 
REMARK   46  A    between atoms: CA_105  and  CB_108 
REMARK       I    between atoms: C_106  and  N_116 
REMARK   47  A    between atoms: CB_108  and  CG_109 
REMARK   48  A    between atoms: CG_109  and  CD_110 
REMARK       I    between atoms: CD_110  and  NE2_111 
REMARK   49  A    between atoms: N_116  and  CA_117 
REMARK   50  A    between atoms: CA_117  and  C_118 
REMARK   51  A    between atoms: CA_117  and  CB_120 
REMARK       I    between atoms: C_118  and  N_133 
REMARK   52  A    between atoms: CB_120  and  CG_121 
REMARK   53  A    between atoms: CG_121  and  CD_122 
REMARK   54  A    between atoms: CD_122  and  NE_123 
REMARK       I    between atoms: NE_123  and  CZ_124 
REMARK       I    between atoms: CZ_124  and  NH1_125 
REMARK       I    between atoms: CZ_124  and  NH2_126 
REMARK   55  A    between atoms: N_133  and  CA_134 
REMARK   56  A    between atoms: CA_134  and  C_135 
REMARK   57  A    between atoms: CA_134  and  CB_137 
REMARK       I    between atoms: C_135  and  N_141 
REMARK   58  A    between atoms: N_141  and  CA_142 
REMARK   59  A    between atoms: CA_142  and  C_143 
REMARK   60  A    between atoms: CA_142  and  CB_145 
REMARK       I    between atoms: C_143  and  N_149 
REMARK   61  A    between atoms: CB_145  and  SG_146 
REMARK   62  A    between atoms: N_149  and  CA_150 
REMARK   63  A    between atoms: CA_150  and  C_151 
REMARK   64  A    between atoms: CA_150  and  CB_153 
REMARK   65  A    between atoms: CB_153  and  CG_154 
REMARK   66  A    between atoms: CG_154  and  CD_155 
REMARK   67  A    between atoms: CD_155  and  NE_156 
REMARK       I    between atoms: NE_156  and  CZ_157 
REMARK       I    between atoms: CZ_157  and  NH1_158 
ROOT
ATOM      1  C   GLU d   9    2434.115 749.131-2533.015  0.00  0.00     0.241 C 
ATOM      2  O   GLU d   9    2434.779 749.884-2533.741  0.00  0.00    -0.271 OA
ATOM      3  N   HIS d  10    2434.211 747.855-2533.184  0.00  0.00    -0.346 N 
ATOM      4  H   HIS d  10    2433.680 747.221-2532.605  0.00  0.00     0.163 HD
ENDROOT
BRANCH   1   5
ATOM      5  CA  GLU d   9    2433.197 749.659-2531.939  0.00  0.00     0.177 C 
BRANCH   5   6
ATOM      6  N   GLU d   9    2431.894 749.003-2531.994  0.00  0.00    -0.346 N 
ATOM      7  C   ASP d   8    2431.214 749.052-2533.089  0.00  0.00     0.241 C 
ATOM      8  O   ASP d   8    2431.687 749.656-2534.064  0.00  0.00    -0.271 OA
ATOM      9  H   GLU d   9    2431.531 748.517-2531.186  0.00  0.00     0.163 HD
BRANCH   7  10
ATOM     10  CA  ASP d   8    2429.867 748.373-2533.146  0.00  0.00     0.186 C 
BRANCH  10  11
ATOM     11  N   ASP d   8    2429.937 747.024-2532.592  0.00  0.00    -0.346 N 
ATOM     12  C   LEU d   7    2430.774 746.182-2533.097  0.00  0.00     0.241 C 
ATOM     13  O   LEU d   7    2431.495 746.544-2534.040  0.00  0.00    -0.271 OA
ATOM     14  H   ASP d   8    2429.339 746.753-2531.824  0.00  0.00     0.163 HD
BRANCH  12  15
ATOM     15  CA  LEU d   7    2430.846 744.787-2532.524  0.00  0.00     0.177 C 
BRANCH  15  16
ATOM     16  N   LEU d   7    2430.901 744.823-2531.066  0.00  0.00    -0.346 N 
ATOM     17  C   ILE d   6    2431.847 745.487-2530.492  0.00  0.00     0.241 C 
ATOM     18  O   ILE d   6    2432.681 746.074-2531.196  0.00  0.00    -0.271 OA
ATOM     19  H   LEU d   7    2430.208 744.336-2530.515  0.00  0.00     0.163 HD
BRANCH  17  20
ATOM     20  CA  ILE d   6    2431.904 745.524-2528.985  0.00  0.00     0.180 C 
BRANCH  20  21
ATOM     21  N   ILE d   6    2430.591 745.820-2528.419  0.00  0.00    -0.346 N 
ATOM     22  C   SER d   5    2429.986 746.903-2528.773  0.00  0.00     0.243 C 
ATOM     23  O   SER d   5    2430.534 747.656-2529.578  0.00  0.00    -0.271 OA
ATOM     24  H   ILE d   6    2430.162 745.185-2527.760  0.00  0.00     0.163 HD
BRANCH  22  25
ATOM     25  CA  SER d   5    2428.627 747.209-2528.188  0.00  0.00     0.200 C 
BRANCH  25  26
ATOM     26  N   SER d   5    2427.758 746.038-2528.247  0.00  0.00    -0.344 N 
ATOM     27  C   GLU d   4    2427.531 745.485-2529.390  0.00  0.00     0.241 C 
ATOM     28  O   GLU d   4    2428.057 745.965-2530.404  0.00  0.00    -0.271 OA
ATOM     29  H   SER d   5    2427.340 745.666-2527.405  0.00  0.00     0.163 HD
BRANCH  27  30
ATOM     30  CA  GLU d   4    2426.631 744.275-2529.451  0.00  0.00     0.177 C 
BRANCH  30  31
ATOM     31  N   GLU d   4    2426.990 743.304-2528.422  0.00  0.00    -0.346 N 
ATOM     32  C   PRO d   3    2428.195 742.843-2528.389  0.00  0.00     0.241 C 
ATOM     33  O   PRO d   3    2429.019 743.226-2529.220  0.00  0.00    -0.271 OA
ATOM     34  H   GLU d   4    2426.306 742.997-2527.745  0.00  0.00     0.163 HD
BRANCH  32  35
ATOM     35  CA  PRO d   3    2428.593 741.820-2527.312  0.00  0.00     0.179 C 
ATOM     36  N   PRO d   3    2428.141 742.229-2525.990  0.00  0.00    -0.337 N 
ATOM     37  C   ASN d   2    2428.662 743.224-2525.356  0.00  0.00     0.243 C 
ATOM     38  CD  PRO d   3    2427.062 741.436-2525.442  0.00  0.00     0.127 C 
ATOM     39  O   ASN d   2    2429.577 743.854-2525.884  0.00  0.00    -0.271 OA
ATOM     40  CG  PRO d   3    2426.605 740.617-2526.652  0.00  0.00     0.022 C 
ATOM     41  CB  PRO d   3    2427.889 740.465-2527.481  0.00  0.00     0.037 C 
BRANCH  37  42
ATOM     42  CA  ASN d   2    2428.131 743.579-2523.988  0.00  0.00     0.185 C 
BRANCH  42  43
ATOM     43  N   ASN d   2    2426.672 743.618-2523.988  0.00  0.00    -0.346 N 
ATOM     44  C   GLU d   1    2426.067 744.404-2524.813  0.00  0.00     0.242 C 
ATOM     45  O   GLU d   1    2426.743 745.103-2525.582  0.00  0.00    -0.271 OA
ATOM     46  H   ASN d   2    2426.143 743.039-2523.351  0.00  0.00     0.163 HD
BRANCH  44  47
ATOM     47  CA  GLU d   1    2424.558 744.444-2524.813  0.00  0.00     0.191 C 
BRANCH  47  48
ATOM     48  N   GLU d   1    2423.999 743.095-2524.813  0.00  0.00    -0.326 NA
ATOM     49  H   GLU d   1    2424.626 742.216-2524.813  0.00  0.00     0.180 HD
ENDBRANCH  47  48
BRANCH  47  50
ATOM     50  CB  GLU d   1    2424.035 745.229-2523.576  0.00  0.00     0.047 C 
BRANCH  50  51
ATOM     51  CG  GLU d   1    2424.510 746.714-2523.465  0.00  0.00     0.116 C 
BRANCH  51  52
ATOM     52  CD  GLU d   1    2424.086 747.518-2522.250  0.00  0.00     0.172 C 
ATOM     53  OE1 GLU d   1    2423.358 747.016-2521.372  0.00  0.00    -0.648 OA
ATOM     54  OE2 GLU d   1    2424.516 748.688-2522.178  0.00  0.00    -0.648 OA
ENDBRANCH  51  52
ENDBRANCH  50  51
ENDBRANCH  47  50
ENDBRANCH  44  47
ENDBRANCH  42  43
BRANCH  42  55
ATOM     55  CB  ASN d   2    2428.623 742.556-2522.923  0.00  0.00     0.137 C 
BRANCH  55  56
ATOM     56  CG  ASN d   2    2428.159 742.780-2521.480  0.00  0.00     0.217 C 
ATOM     57  ND2 ASN d   2    2428.753 743.695-2520.761  0.00  0.00    -0.370 N 
ATOM     58 21HD ASN d   2    2428.272 743.868-2519.875  0.00  0.00     0.159 HD
ATOM     59 22HD ASN d   2    2429.455 744.267-2521.230  0.00  0.00     0.159 HD
ATOM     60  OD1 ASN d   2    2427.238 742.147-2520.986  0.00  0.00    -0.274 OA
ENDBRANCH  55  56
ENDBRANCH  42  55
ENDBRANCH  37  42
ENDBRANCH  32  35
ENDBRANCH  30  31
BRANCH  30  61
ATOM     61  CB  GLU d   4    2425.143 744.694-2529.282  0.00  0.00     0.045 C 
BRANCH  61  62
ATOM     62  CG  GLU d   4    2424.595 745.697-2530.347  0.00  0.00     0.116 C 
BRANCH  62  63
ATOM     63  CD  GLU d   4    2423.169 746.194-2530.204  0.00  0.00     0.172 C 
ATOM     64  OE1 GLU d   4    2422.442 745.796-2529.274  0.00  0.00    -0.648 OA
ATOM     65  OE2 GLU d   4    2422.780 747.024-2531.053  0.00  0.00    -0.648 OA
ENDBRANCH  62  63
ENDBRANCH  61  62
ENDBRANCH  30  61
ENDBRANCH  27  30
ENDBRANCH  25  26
BRANCH  25  66
ATOM     66  CB  SER d   5    2428.739 747.741-2526.737  0.00  0.00     0.199 C 
BRANCH  66  67
ATOM     67  OG  SER d   5    2429.470 746.861-2525.876  0.00  0.00    -0.398 OA
ATOM     68  HG  SER d   5    2428.981 746.037-2525.825  0.00  0.00     0.209 HD
ENDBRANCH  66  67
ENDBRANCH  25  66
ENDBRANCH  22  25
ENDBRANCH  20  21
BRANCH  20  69
ATOM     69  CB  ILE d   6    2432.503 744.188-2528.384  0.00  0.00     0.013 C 
ATOM     70  CG2 ILE d   6    2433.944 743.885-2528.899  0.00  0.00     0.012 C 
BRANCH  69  71
ATOM     71  CG1 ILE d   6    2432.522 744.125-2526.823  0.00  0.00     0.002 C 
ATOM     72  CD1 ILE d   6    2432.791 742.736-2526.208  0.00  0.00     0.005 C 
ENDBRANCH  69  71
ENDBRANCH  20  69
ENDBRANCH  17  20
ENDBRANCH  15  16
BRANCH  15  73
ATOM     73  CB  LEU d   7    2429.642 743.927-2533.005  0.00  0.00     0.038 C 
BRANCH  73  74
ATOM     74  CG  LEU d   7    2429.569 742.448-2532.538  0.00  0.00    -0.020 C 
ATOM     75  CD1 LEU d   7    2428.379 741.742-2533.204  0.00  0.00     0.009 C 
ATOM     76  CD2 LEU d   7    2430.863 741.668-2532.830  0.00  0.00     0.009 C 
ENDBRANCH  73  74
ENDBRANCH  15  73
ENDBRANCH  12  15
ENDBRANCH  10  11
BRANCH  10  77
ATOM     77  CB  ASP d   8    2428.789 749.213-2532.405  0.00  0.00     0.147 C 
BRANCH  77  78
ATOM     78  CG  ASP d   8    2428.571 750.633-2532.946  0.00  0.00     0.175 C 
ATOM     79  OD1 ASP d   8    2428.636 750.832-2534.177  0.00  0.00    -0.648 OA
ATOM     80  OD2 ASP d   8    2428.380 751.560-2532.131  0.00  0.00    -0.648 OA
ENDBRANCH  77  78
ENDBRANCH  10  77
ENDBRANCH   7  10
ENDBRANCH   5   6
BRANCH   5  81
ATOM     81  CB  GLU d   9    2433.831 749.452-2530.534  0.00  0.00     0.045 C 
BRANCH  81  82
ATOM     82  CG  GLU d   9    2435.214 750.144-2530.305  0.00  0.00     0.116 C 
BRANCH  82  83
ATOM     83  CD  GLU d   9    2435.916 749.931-2528.977  0.00  0.00     0.172 C 
ATOM     84  OE1 GLU d   9    2435.394 749.241-2528.080  0.00  0.00    -0.648 OA
ATOM     85  OE2 GLU d   9    2437.035 750.468-2528.845  0.00  0.00    -0.648 OA
ENDBRANCH  82  83
ENDBRANCH  81  82
ENDBRANCH   5  81
ENDBRANCH   1   5
BRANCH   3  86
ATOM     86  CA  HIS d  10    2435.098 747.343-2534.224  0.00  0.00     0.182 C 
BRANCH  86  87
ATOM     87  C   HIS d  10    2434.731 747.907-2535.575  0.00  0.00     0.241 C 
ATOM     88  O   HIS d  10    2435.584 748.371-2536.348  0.00  0.00    -0.271 OA
ATOM     89  N   VAL d  11    2433.493 747.907-2535.938  0.00  0.00    -0.346 N 
ATOM     90  H   VAL d  11    2432.780 747.535-2535.327  0.00  0.00     0.163 HD
BRANCH  89  91
ATOM     91  CA  VAL d  11    2433.138 748.452-2537.245  0.00  0.00     0.180 C 
BRANCH  91  92
ATOM     92  C   VAL d  11    2433.603 749.883-2537.379  0.00  0.00     0.241 C 
ATOM     93  O   VAL d  11    2434.204 750.287-2538.382  0.00  0.00    -0.271 OA
ATOM     94  N   GLN d  12    2433.367 750.709-2536.417  0.00  0.00    -0.346 N 
ATOM     95  H   GLN d  12    2432.878 750.403-2535.587  0.00  0.00     0.163 HD
BRANCH  94  96
ATOM     96  CA  GLN d  12    2433.816 752.092-2536.544  0.00  0.00     0.177 C 
BRANCH  96  97
ATOM     97  C   GLN d  12    2435.306 752.158-2536.783  0.00  0.00     0.241 C 
ATOM     98  O   GLN d  12    2435.793 752.866-2537.662  0.00  0.00    -0.271 OA
ATOM     99  N   ARG d  13    2436.091 751.451-2536.042  0.00  0.00    -0.346 N 
ATOM    100  H   ARG d  13    2435.714 750.862-2535.312  0.00  0.00     0.163 HD
BRANCH  99 101
ATOM    101  CA  ARG d  13    2437.531 751.516-2536.273  0.00  0.00     0.176 C 
BRANCH 101 102
ATOM    102  C   ARG d  13    2437.866 751.144-2537.698  0.00  0.00     0.241 C 
ATOM    103  O   ARG d  13    2438.635 751.815-2538.382  0.00  0.00    -0.271 OA
ATOM    104  N   VAL d  14    2437.330 750.089-2538.211  0.00  0.00    -0.346 N 
ATOM    105  H   VAL d  14    2436.695 749.521-2537.669  0.00  0.00     0.163 HD
BRANCH 104 106
ATOM    106  CA  VAL d  14    2437.654 749.729-2539.589  0.00  0.00     0.180 C 
BRANCH 106 107
ATOM    107  C   VAL d  14    2437.324 750.859-2540.535  0.00  0.00     0.241 C 
ATOM    108  O   VAL d  14    2438.117 751.240-2541.404  0.00  0.00    -0.271 OA
ATOM    109  N   CYS d  15    2436.180 751.445-2540.433  0.00  0.00    -0.345 N 
ATOM    110  H   CYS d  15    2435.515 751.152-2539.731  0.00  0.00     0.163 HD
BRANCH 109 111
ATOM    111  CA  CYS d  15    2435.859 752.537-2541.347  0.00  0.00     0.185 C 
BRANCH 111 112
ATOM    112  C   CYS d  15    2436.891 753.637-2541.259  0.00  0.00     0.241 C 
ATOM    113  O   CYS d  15    2437.395 754.148-2542.270  0.00  0.00    -0.271 OA
ATOM    114  N   ARG d  16    2437.260 754.057-2540.096  0.00  0.00    -0.347 N 
ATOM    115  H   ARG d  16    2436.864 753.657-2539.258  0.00  0.00     0.163 HD
BRANCH 114 116
ATOM    116  CA  ARG d  16    2438.257 755.120-2540.011  0.00  0.00     0.162 C 
BRANCH 116 117
ATOM    117  C   ARG d  16    2439.528 754.727-2540.727  0.00  0.00     0.219 C 
ATOM    118  O   ARG d  16    2439.641 753.651-2541.309  0.00  0.00    -0.287 OA
ENDBRANCH 116 117
BRANCH 116 119
ATOM    119  CB  ARG d  16    2438.525 755.438-2538.513  0.00  0.00     0.035 C 
BRANCH 119 120
ATOM    120  CG  ARG d  16    2439.351 756.726-2538.239  0.00  0.00     0.023 C 
BRANCH 120 121
ATOM    121  CD  ARG d  16    2439.600 756.944-2536.737  0.00  0.00     0.138 C 
BRANCH 121 122
ATOM    122  NE  ARG d  16    2440.377 758.203-2536.535  0.00  0.00    -0.227 N 
ATOM    123  CZ  ARG d  16    2440.768 758.684-2535.359  0.00  0.00     0.665 C 
ATOM    124  NH1 ARG d  16    2440.519 758.100-2534.221  0.00  0.00    -0.235 N 
ATOM    125  NH2 ARG d  16    2441.433 759.796-2535.340  0.00  0.00    -0.235 N 
ATOM    126 11HH ARG d  16    2439.992 757.227-2534.306  0.00  0.00     0.174 HD
ATOM    127 12HH ARG d  16    2440.853 758.535-2533.359  0.00  0.00     0.174 HD
ATOM    128 21HH ARG d  16    2441.619 760.240-2536.241  0.00  0.00     0.174 HD
ATOM    129 22HH ARG d  16    2441.722 760.151-2534.427  0.00  0.00     0.174 HD
ATOM    130  HE  ARG d  16    2440.656 758.784-2537.332  0.00  0.00     0.177 HD
ENDBRANCH 121 122
ENDBRANCH 120 121
ENDBRANCH 119 120
ENDBRANCH 116 119
ENDBRANCH 114 116
ENDBRANCH 111 112
BRANCH 111 131
ATOM    131  CB  CYS d  15    2434.437 753.038-2541.032  0.00  0.00     0.105 C 
BRANCH 131 132
ATOM    132  SG  CYS d  15    2433.908 754.270-2542.245  0.00  0.00    -0.180 SA
ATOM    133  HG  CYS d  15    2434.043 755.335-2541.460  0.00  0.00     0.101 HD
ENDBRANCH 131 132
ENDBRANCH 111 131
ENDBRANCH 109 111
ENDBRANCH 106 107
BRANCH 106 134
ATOM    134  CB  VAL d  14    2436.881 748.412-2539.995  0.00  0.00     0.009 C 
ATOM    135  CG1 VAL d  14    2436.970 747.993-2541.488  0.00  0.00     0.012 C 
ATOM    136  CG2 VAL d  14    2437.313 747.160-2539.194  0.00  0.00     0.012 C 
ENDBRANCH 106 134
ENDBRANCH 104 106
ENDBRANCH 101 102
BRANCH 101 137
ATOM    137  CB  ARG d  13    2438.244 750.578-2535.258  0.00  0.00     0.036 C 
BRANCH 137 138
ATOM    138  CG  ARG d  13    2439.789 750.731-2535.178  0.00  0.00     0.023 C 
BRANCH 138 139
ATOM    139  CD  ARG d  13    2440.416 749.744-2534.180  0.00  0.00     0.138 C 
BRANCH 139 140
ATOM    140  NE  ARG d  13    2441.893 749.950-2534.130  0.00  0.00    -0.227 N 
ATOM    141  CZ  ARG d  13    2442.741 749.259-2533.374  0.00  0.00     0.665 C 
ATOM    142  NH1 ARG d  13    2442.376 748.296-2532.576  0.00  0.00    -0.235 N 
ATOM    143  NH2 ARG d  13    2444.001 749.558-2533.432  0.00  0.00    -0.235 N 
ATOM    144 11HH ARG d  13    2441.371 748.110-2532.579  0.00  0.00     0.174 HD
ATOM    145 12HH ARG d  13    2443.090 747.813-2532.027  0.00  0.00     0.174 HD
ATOM    146 21HH ARG d  13    2444.269 750.315-2534.063  0.00  0.00     0.174 HD
ATOM    147 22HH ARG d  13    2444.636 749.017-2532.843  0.00  0.00     0.174 HD
ATOM    148  HE  ARG d  13    2442.344 750.672-2534.701  0.00  0.00     0.177 HD
ENDBRANCH 139 140
ENDBRANCH 138 139
ENDBRANCH 137 138
ENDBRANCH 101 137
ENDBRANCH  99 101
ENDBRANCH  96  97
BRANCH  96 149
ATOM    149  CB  GLN d  12    2433.426 752.860-2535.262  0.00  0.00     0.044 C 
BRANCH 149 150
ATOM    150  CG  GLN d  12    2433.787 754.382-2535.232  0.00  0.00     0.105 C 
BRANCH 150 151
ATOM    151  CD  GLN d  12    2433.486 755.196-2533.968  0.00  0.00     0.215 C 
ATOM    152  NE2 GLN d  12    2432.918 754.620-2532.938  0.00  0.00    -0.370 N 
ATOM    153 21HE GLN d  12    2432.812 755.215-2532.115  0.00  0.00     0.159 HD
ATOM    154 22HE GLN d  12    2432.754 753.617-2533.041  0.00  0.00     0.159 HD
ATOM    155  OE1 GLN d  12    2433.788 756.377-2533.891  0.00  0.00    -0.274 OA
ENDBRANCH 150 151
ENDBRANCH 149 150
ENDBRANCH  96 149
ENDBRANCH  94  96
ENDBRANCH  91  92
BRANCH  91 156
ATOM    156  CB  VAL d  11    2431.577 748.346-2537.464  0.00  0.00     0.009 C 
ATOM    157  CG1 VAL d  11    2431.008 749.050-2538.727  0.00  0.00     0.012 C 
ATOM    158  CG2 VAL d  11    2431.052 746.893-2537.536  0.00  0.00     0.012 C 
ENDBRANCH  91 156
ENDBRANCH  89  91
ENDBRANCH  86  87
BRANCH  86 159
ATOM    159  CB  HIS d  10    2434.933 745.814-2534.219  0.00  0.00     0.095 C 
BRANCH 159 160
ATOM    160  CG  HIS d  10    2436.219 745.103-2533.910  0.00  0.00     0.053 A 
ATOM    161  CD2 HIS d  10    2436.600 744.769-2532.618  0.00  0.00     0.116 A 
ATOM    162  NE2 HIS d  10    2437.814 744.137-2532.685  0.00  0.00    -0.359 N 
ATOM    163  CE1 HIS d  10    2438.077 744.139-2534.020  0.00  0.00     0.207 A 
ATOM    164  2HE HIS d  10    2438.381 743.760-2531.911  0.00  0.00     0.166 HD
ATOM    165  ND1 HIS d  10    2437.170 744.697-2534.843  0.00  0.00    -0.247 NA
ENDBRANCH 159 160
ENDBRANCH  86 159
ENDBRANCH   3  86
TORSDOF 67
