REMARK WARNING: 32 MAX_TORS EXCEEDED!!!
REMARK  66 active torsions:
REMARK  status: ('A' for Active; 'I' for Inactive)
REMARK    1  A    between atoms: N_1  and  CA_2 
REMARK    2  A    between atoms: CA_2  and  C_3 
REMARK    3  A    between atoms: CA_2  and  CB_5 
REMARK       I    between atoms: C_3  and  N_11 
REMARK    4  A    between atoms: CB_5  and  CG_6 
REMARK    5  A    between atoms: CG_6  and  CD_7 
REMARK    6  A    between atoms: N_11  and  CA_12 
REMARK    7  A    between atoms: CA_12  and  C_13 
REMARK    8  A    between atoms: CA_12  and  CB_15 
REMARK       I    between atoms: C_13  and  N_22 
REMARK    9  A    between atoms: CB_15  and  CG_16 
REMARK       I    between atoms: CG_16  and  ND2_17 
REMARK   10  A    between atoms: CA_23  and  C_24 
REMARK       I    between atoms: C_24  and  N_29 
REMARK   11  A    between atoms: N_29  and  CA_30 
REMARK   12  A    between atoms: CA_30  and  C_31 
REMARK   13  A    between atoms: CA_30  and  CB_33 
REMARK       I    between atoms: C_31  and  N_39 
REMARK   14  A    between atoms: CB_33  and  CG_34 
REMARK   15  A    between atoms: CG_34  and  CD_35 
REMARK   16  A    between atoms: N_39  and  CA_40 
REMARK   17  A    between atoms: CA_40  and  C_41 
REMARK   18  A    between atoms: CA_40  and  CB_43 
REMARK       I    between atoms: C_41  and  N_47 
REMARK   19  A    between atoms: CB_43  and  OG_44 
REMARK   20  A    between atoms: N_47  and  CA_48 
REMARK   21  A    between atoms: CA_48  and  C_49 
REMARK   22  A    between atoms: CA_48  and  CB_51 
REMARK       I    between atoms: C_49  and  N_56 
REMARK   23  A    between atoms: CB_51  and  CG1_52 
REMARK   24  A    between atoms: N_56  and  CA_57 
REMARK   25  A    between atoms: CA_57  and  C_58 
REMARK   26  A    between atoms: CA_57  and  CB_60 
REMARK       I    between atoms: C_58  and  N_65 
REMARK   27  A    between atoms: CB_60  and  CG_61 
REMARK   28  A    between atoms: N_65  and  CA_66 
REMARK   29  A    between atoms: CA_66  and  C_67 
REMARK   30  A    between atoms: CA_66  and  CB_69 
REMARK       I    between atoms: C_67  and  N_74 
REMARK   31  A    between atoms: CB_69  and  CG_70 
REMARK   32  A    between atoms: N_74  and  CA_75 
REMARK   33  A    between atoms: CA_75  and  C_76 
REMARK   34  A    between atoms: CA_75  and  CB_78 
REMARK       I    between atoms: C_76  and  N_84 
REMARK   35  A    between atoms: CB_78  and  CG_79 
REMARK   36  A    between atoms: CG_79  and  CD_80 
REMARK   37  A    between atoms: N_84  and  CA_85 
REMARK   38  A    between atoms: CA_85  and  C_86 
REMARK   39  A    between atoms: CA_85  and  CB_88 
REMARK       I    between atoms: C_86  and  N_96 
REMARK   40  A    between atoms: CB_88  and  CG_89 
REMARK   41  A    between atoms: N_96  and  CA_97 
REMARK   42  A    between atoms: CA_97  and  C_98 
REMARK   43  A    between atoms: CA_97  and  CB_100 
REMARK       I    between atoms: C_98  and  N_104 
REMARK   44  A    between atoms: N_104  and  CA_105 
REMARK   45  A    between atoms: CA_105  and  C_106 
REMARK   46  A    between atoms: CA_105  and  CB_108 
REMARK       I    between atoms: C_106  and  N_116 
REMARK   47  A    between atoms: CB_108  and  CG_109 
REMARK   48  A    between atoms: CG_109  and  CD_110 
REMARK       I    between atoms: CD_110  and  NE2_111 
REMARK   49  A    between atoms: N_116  and  CA_117 
REMARK   50  A    between atoms: CA_117  and  C_118 
REMARK   51  A    between atoms: CA_117  and  CB_120 
REMARK       I    between atoms: C_118  and  N_124 
REMARK   52  A    between atoms: CB_120  and  SG_121 
REMARK   53  A    between atoms: N_124  and  CA_125 
REMARK   54  A    between atoms: CA_125  and  C_126 
REMARK   55  A    between atoms: CA_125  and  CB_128 
REMARK       I    between atoms: C_126  and  N_132 
REMARK   56  A    between atoms: N_132  and  CA_133 
REMARK   57  A    between atoms: CA_133  and  C_134 
REMARK   58  A    between atoms: CA_133  and  CB_136 
REMARK       I    between atoms: C_134  and  N_141 
REMARK   59  A    between atoms: CB_136  and  CG_137 
REMARK   60  A    between atoms: CG_137  and  SD_138 
REMARK   61  A    between atoms: N_141  and  CA_142 
REMARK   62  A    between atoms: CA_142  and  C_143 
REMARK   63  A    between atoms: CA_142  and  CB_145 
REMARK   64  A    between atoms: CB_145  and  CG_146 
REMARK   65  A    between atoms: CG_146  and  CD_147 
REMARK   66  A    between atoms: CD_147  and  NE_148 
REMARK       I    between atoms: NE_148  and  CZ_149 
REMARK       I    between atoms: CZ_149  and  NH1_150 
ROOT
ATOM      1  CA  GLU d   9    2106.028 643.721-2176.112  0.00  0.00     0.177 C 
ENDROOT
BRANCH   1   2
ATOM      2  N   GLU d   9    2104.724 643.064-2176.167  0.00  0.00    -0.346 N 
ATOM      3  C   ASP d   8    2104.044 643.113-2177.262  0.00  0.00     0.241 C 
ATOM      4  O   ASP d   8    2104.517 643.717-2178.237  0.00  0.00    -0.271 OA
ATOM      5  H   GLU d   9    2104.361 642.578-2175.359  0.00  0.00     0.163 HD
BRANCH   3   6
ATOM      6  CA  ASP d   8    2102.697 642.434-2177.319  0.00  0.00     0.186 C 
BRANCH   6   7
ATOM      7  N   ASP d   8    2102.767 641.085-2176.765  0.00  0.00    -0.346 N 
ATOM      8  C   LEU d   7    2103.604 640.244-2177.271  0.00  0.00     0.241 C 
ATOM      9  O   LEU d   7    2104.325 640.605-2178.213  0.00  0.00    -0.271 OA
ATOM     10  H   ASP d   8    2102.169 640.815-2175.997  0.00  0.00     0.163 HD
BRANCH   8  11
ATOM     11  CA  LEU d   7    2103.676 638.848-2176.698  0.00  0.00     0.177 C 
BRANCH  11  12
ATOM     12  N   LEU d   7    2103.731 638.885-2175.239  0.00  0.00    -0.346 N 
ATOM     13  C   ILE d   6    2104.677 639.548-2174.666  0.00  0.00     0.241 C 
ATOM     14  O   ILE d   6    2105.512 640.135-2175.369  0.00  0.00    -0.271 OA
ATOM     15  H   LEU d   7    2103.039 638.398-2174.688  0.00  0.00     0.163 HD
BRANCH  13  16
ATOM     16  CA  ILE d   6    2104.734 639.585-2173.158  0.00  0.00     0.180 C 
BRANCH  16  17
ATOM     17  N   ILE d   6    2103.421 639.881-2172.592  0.00  0.00    -0.346 N 
ATOM     18  C   SER d   5    2102.817 640.964-2172.946  0.00  0.00     0.243 C 
ATOM     19  O   SER d   5    2103.365 641.718-2173.751  0.00  0.00    -0.271 OA
ATOM     20  H   ILE d   6    2102.992 639.247-2171.933  0.00  0.00     0.163 HD
BRANCH  18  21
ATOM     21  CA  SER d   5    2101.458 641.270-2172.361  0.00  0.00     0.200 C 
BRANCH  21  22
ATOM     22  N   SER d   5    2100.588 640.099-2172.420  0.00  0.00    -0.344 N 
ATOM     23  C   GLU d   4    2100.361 639.547-2173.563  0.00  0.00     0.241 C 
ATOM     24  O   GLU d   4    2100.888 640.026-2174.577  0.00  0.00    -0.271 OA
ATOM     25  H   SER d   5    2100.170 639.728-2171.578  0.00  0.00     0.163 HD
BRANCH  23  26
ATOM     26  CA  GLU d   4    2099.462 638.336-2173.625  0.00  0.00     0.177 C 
BRANCH  26  27
ATOM     27  N   GLU d   4    2099.821 637.365-2172.595  0.00  0.00    -0.346 N 
ATOM     28  C   PRO d   3    2101.026 636.905-2172.562  0.00  0.00     0.241 C 
ATOM     29  O   PRO d   3    2101.849 637.288-2173.393  0.00  0.00    -0.271 OA
ATOM     30  H   GLU d   4    2099.136 637.058-2171.918  0.00  0.00     0.163 HD
BRANCH  28  31
ATOM     31  CA  PRO d   3    2101.423 635.881-2171.485  0.00  0.00     0.179 C 
ATOM     32  N   PRO d   3    2100.971 636.290-2170.164  0.00  0.00    -0.337 N 
ATOM     33  C   ASN d   2    2101.493 637.285-2169.529  0.00  0.00     0.243 C 
ATOM     34  CD  PRO d   3    2099.893 635.497-2169.615  0.00  0.00     0.127 C 
ATOM     35  O   ASN d   2    2102.408 637.915-2170.057  0.00  0.00    -0.271 OA
ATOM     36  CG  PRO d   3    2099.435 634.679-2170.825  0.00  0.00     0.022 C 
ATOM     37  CB  PRO d   3    2100.719 634.526-2171.655  0.00  0.00     0.037 C 
BRANCH  33  38
ATOM     38  CA  ASN d   2    2100.961 637.641-2168.161  0.00  0.00     0.185 C 
BRANCH  38  39
ATOM     39  N   ASN d   2    2099.502 637.680-2168.161  0.00  0.00    -0.346 N 
ATOM     40  C   GLU d   1    2098.897 638.466-2168.986  0.00  0.00     0.242 C 
ATOM     41  O   GLU d   1    2099.573 639.165-2169.755  0.00  0.00    -0.271 OA
ATOM     42  H   ASN d   2    2098.974 637.100-2167.524  0.00  0.00     0.163 HD
BRANCH  40  43
ATOM     43  CA  GLU d   1    2097.388 638.506-2168.986  0.00  0.00     0.191 C 
BRANCH  43  44
ATOM     44  N   GLU d   1    2096.829 637.157-2168.986  0.00  0.00    -0.326 NA
ATOM     45  H   GLU d   1    2097.456 636.278-2168.986  0.00  0.00     0.180 HD
ENDBRANCH  43  44
BRANCH  43  46
ATOM     46  CB  GLU d   1    2096.865 639.291-2167.749  0.00  0.00     0.047 C 
BRANCH  46  47
ATOM     47  CG  GLU d   1    2097.340 640.776-2167.638  0.00  0.00     0.116 C 
BRANCH  47  48
ATOM     48  CD  GLU d   1    2096.916 641.580-2166.423  0.00  0.00     0.172 C 
ATOM     49  OE1 GLU d   1    2096.188 641.078-2165.545  0.00  0.00    -0.648 OA
ATOM     50  OE2 GLU d   1    2097.346 642.750-2166.351  0.00  0.00    -0.648 OA
ENDBRANCH  47  48
ENDBRANCH  46  47
ENDBRANCH  43  46
ENDBRANCH  40  43
ENDBRANCH  38  39
BRANCH  38  51
ATOM     51  CB  ASN d   2    2101.453 636.618-2167.096  0.00  0.00     0.137 C 
BRANCH  51  52
ATOM     52  CG  ASN d   2    2100.990 636.842-2165.653  0.00  0.00     0.217 C 
ATOM     53  ND2 ASN d   2    2101.583 637.756-2164.935  0.00  0.00    -0.370 N 
ATOM     54 21HD ASN d   2    2101.103 637.930-2164.048  0.00  0.00     0.159 HD
ATOM     55 22HD ASN d   2    2102.285 638.328-2165.404  0.00  0.00     0.159 HD
ATOM     56  OD1 ASN d   2    2100.068 636.208-2165.159  0.00  0.00    -0.274 OA
ENDBRANCH  51  52
ENDBRANCH  38  51
ENDBRANCH  33  38
ENDBRANCH  28  31
ENDBRANCH  26  27
BRANCH  26  57
ATOM     57  CB  GLU d   4    2097.973 638.755-2173.455  0.00  0.00     0.045 C 
BRANCH  57  58
ATOM     58  CG  GLU d   4    2097.426 639.759-2174.521  0.00  0.00     0.116 C 
BRANCH  58  59
ATOM     59  CD  GLU d   4    2095.999 640.256-2174.377  0.00  0.00     0.172 C 
ATOM     60  OE1 GLU d   4    2095.272 639.857-2173.447  0.00  0.00    -0.648 OA
ATOM     61  OE2 GLU d   4    2095.610 641.085-2175.226  0.00  0.00    -0.648 OA
ENDBRANCH  58  59
ENDBRANCH  57  58
ENDBRANCH  26  57
ENDBRANCH  23  26
ENDBRANCH  21  22
BRANCH  21  62
ATOM     62  CB  SER d   5    2101.569 641.802-2170.910  0.00  0.00     0.199 C 
BRANCH  62  63
ATOM     63  OG  SER d   5    2102.300 640.923-2170.049  0.00  0.00    -0.398 OA
ATOM     64  HG  SER d   5    2101.811 640.098-2169.999  0.00  0.00     0.209 HD
ENDBRANCH  62  63
ENDBRANCH  21  62
ENDBRANCH  18  21
ENDBRANCH  16  17
BRANCH  16  65
ATOM     65  CB  ILE d   6    2105.333 638.249-2172.557  0.00  0.00     0.013 C 
ATOM     66  CG2 ILE d   6    2106.774 637.947-2173.073  0.00  0.00     0.012 C 
BRANCH  65  67
ATOM     67  CG1 ILE d   6    2105.352 638.187-2170.997  0.00  0.00     0.002 C 
ATOM     68  CD1 ILE d   6    2105.622 636.797-2170.381  0.00  0.00     0.005 C 
ENDBRANCH  65  67
ENDBRANCH  16  65
ENDBRANCH  13  16
ENDBRANCH  11  12
BRANCH  11  69
ATOM     69  CB  LEU d   7    2102.473 637.989-2177.178  0.00  0.00     0.038 C 
BRANCH  69  70
ATOM     70  CG  LEU d   7    2102.399 636.509-2176.711  0.00  0.00    -0.020 C 
ATOM     71  CD1 LEU d   7    2101.209 635.804-2177.377  0.00  0.00     0.009 C 
ATOM     72  CD2 LEU d   7    2103.693 635.730-2177.003  0.00  0.00     0.009 C 
ENDBRANCH  69  70
ENDBRANCH  11  69
ENDBRANCH   8  11
ENDBRANCH   6   7
BRANCH   6  73
ATOM     73  CB  ASP d   8    2101.620 643.274-2176.578  0.00  0.00     0.147 C 
BRANCH  73  74
ATOM     74  CG  ASP d   8    2101.402 644.695-2177.119  0.00  0.00     0.175 C 
ATOM     75  OD1 ASP d   8    2101.466 644.893-2178.350  0.00  0.00    -0.648 OA
ATOM     76  OD2 ASP d   8    2101.210 645.621-2176.304  0.00  0.00    -0.648 OA
ENDBRANCH  73  74
ENDBRANCH   6  73
ENDBRANCH   3   6
ENDBRANCH   1   2
BRANCH   1  77
ATOM     77  C   GLU d   9    2106.945 643.192-2177.188  0.00  0.00     0.241 C 
ATOM     78  O   GLU d   9    2107.609 643.946-2177.914  0.00  0.00    -0.271 OA
ATOM     79  N   HIS d  10    2107.041 641.917-2177.357  0.00  0.00    -0.346 N 
ATOM     80  H   HIS d  10    2106.510 641.282-2176.778  0.00  0.00     0.163 HD
BRANCH  79  81
ATOM     81  CA  HIS d  10    2107.928 641.404-2178.397  0.00  0.00     0.182 C 
BRANCH  81  82
ATOM     82  C   HIS d  10    2107.561 641.969-2179.749  0.00  0.00     0.241 C 
ATOM     83  O   HIS d  10    2108.414 642.433-2180.521  0.00  0.00    -0.271 OA
ATOM     84  N   VAL d  11    2106.323 641.968-2180.111  0.00  0.00    -0.346 N 
ATOM     85  H   VAL d  11    2105.610 641.596-2179.500  0.00  0.00     0.163 HD
BRANCH  84  86
ATOM     86  CA  VAL d  11    2105.968 642.514-2181.418  0.00  0.00     0.180 C 
BRANCH  86  87
ATOM     87  C   VAL d  11    2106.434 643.944-2181.552  0.00  0.00     0.241 C 
ATOM     88  O   VAL d  11    2107.035 644.348-2182.555  0.00  0.00    -0.271 OA
ATOM     89  N   GLN d  12    2106.197 644.770-2180.590  0.00  0.00    -0.346 N 
ATOM     90  H   GLN d  12    2105.708 644.465-2179.760  0.00  0.00     0.163 HD
BRANCH  89  91
ATOM     91  CA  GLN d  12    2106.646 646.153-2180.718  0.00  0.00     0.177 C 
BRANCH  91  92
ATOM     92  C   GLN d  12    2108.136 646.219-2180.956  0.00  0.00     0.241 C 
ATOM     93  O   GLN d  12    2108.624 646.927-2181.835  0.00  0.00    -0.271 OA
ATOM     94  N   CYS d  13    2108.921 645.512-2180.215  0.00  0.00    -0.345 N 
ATOM     95  H   CYS d  13    2108.544 644.923-2179.486  0.00  0.00     0.163 HD
BRANCH  94  96
ATOM     96  CA  CYS d  13    2110.361 645.576-2180.445  0.00  0.00     0.185 C 
BRANCH  96  97
ATOM     97  C   CYS d  13    2110.699 645.204-2181.870  0.00  0.00     0.241 C 
ATOM     98  O   CYS d  13    2111.475 645.880-2182.559  0.00  0.00    -0.271 OA
ATOM     99  N   VAL d  14    2110.162 644.150-2182.384  0.00  0.00    -0.346 N 
ATOM    100  H   VAL d  14    2109.526 643.582-2181.843  0.00  0.00     0.163 HD
BRANCH  99 101
ATOM    101  CA  VAL d  14    2110.488 643.790-2183.761  0.00  0.00     0.180 C 
BRANCH 101 102
ATOM    102  C   VAL d  14    2110.161 644.919-2184.708  0.00  0.00     0.241 C 
ATOM    103  O   VAL d  14    2110.956 645.300-2185.577  0.00  0.00    -0.271 OA
ATOM    104  N   MET d  15    2109.016 645.507-2184.608  0.00  0.00    -0.346 N 
ATOM    105  H   MET d  15    2108.350 645.215-2183.907  0.00  0.00     0.163 HD
BRANCH 104 106
ATOM    106  CA  MET d  15    2108.698 646.599-2185.522  0.00  0.00     0.177 C 
BRANCH 106 107
ATOM    107  C   MET d  15    2109.730 647.698-2185.434  0.00  0.00     0.241 C 
ATOM    108  O   MET d  15    2110.234 648.208-2186.446  0.00  0.00    -0.271 OA
ATOM    109  N   ARG d  16    2110.097 648.119-2184.271  0.00  0.00    -0.347 N 
ATOM    110  H   ARG d  16    2109.701 647.720-2183.433  0.00  0.00     0.163 HD
BRANCH 109 111
ATOM    111  CA  ARG d  16    2111.095 649.182-2184.187  0.00  0.00     0.162 C 
BRANCH 111 112
ATOM    112  C   ARG d  16    2112.366 648.787-2184.902  0.00  0.00     0.219 C 
ATOM    113  O   ARG d  16    2112.480 647.711-2185.482  0.00  0.00    -0.287 OA
ENDBRANCH 111 112
BRANCH 111 114
ATOM    114  CB  ARG d  16    2111.363 649.500-2182.688  0.00  0.00     0.035 C 
BRANCH 114 115
ATOM    115  CG  ARG d  16    2112.189 650.788-2182.415  0.00  0.00     0.023 C 
BRANCH 115 116
ATOM    116  CD  ARG d  16    2112.437 651.008-2180.914  0.00  0.00     0.138 C 
BRANCH 116 117
ATOM    117  NE  ARG d  16    2113.214 652.266-2180.712  0.00  0.00    -0.227 N 
ATOM    118  CZ  ARG d  16    2113.604 652.749-2179.536  0.00  0.00     0.665 C 
ATOM    119  NH1 ARG d  16    2113.355 652.165-2178.398  0.00  0.00    -0.235 N 
ATOM    120  NH2 ARG d  16    2114.269 653.861-2179.518  0.00  0.00    -0.235 N 
ATOM    121 11HH ARG d  16    2112.828 651.293-2178.483  0.00  0.00     0.174 HD
ATOM    122 12HH ARG d  16    2113.688 652.601-2177.536  0.00  0.00     0.174 HD
ATOM    123 21HH ARG d  16    2114.457 654.303-2180.419  0.00  0.00     0.174 HD
ATOM    124 22HH ARG d  16    2114.559 654.216-2178.605  0.00  0.00     0.174 HD
ATOM    125  HE  ARG d  16    2113.494 652.846-2181.510  0.00  0.00     0.177 HD
ENDBRANCH 116 117
ENDBRANCH 115 116
ENDBRANCH 114 115
ENDBRANCH 111 114
ENDBRANCH 109 111
ENDBRANCH 106 107
BRANCH 106 126
ATOM    126  CB  MET d  15    2107.277 647.147-2185.216  0.00  0.00     0.045 C 
BRANCH 126 127
ATOM    127  CG  MET d  15    2106.115 646.150-2185.408  0.00  0.00     0.076 C 
BRANCH 127 128
ATOM    128  SD  MET d  15    2104.541 647.017-2185.297  0.00  0.00    -0.173 SA
ATOM    129  CE  MET d  15    2103.458 645.589-2185.161  0.00  0.00     0.089 C 
ENDBRANCH 127 128
ENDBRANCH 126 127
ENDBRANCH 106 126
ENDBRANCH 104 106
ENDBRANCH 101 102
BRANCH 101 130
ATOM    130  CB  VAL d  14    2109.715 642.473-2184.169  0.00  0.00     0.009 C 
ATOM    131  CG1 VAL d  14    2109.806 642.054-2185.662  0.00  0.00     0.012 C 
ATOM    132  CG2 VAL d  14    2110.145 641.220-2183.368  0.00  0.00     0.012 C 
ENDBRANCH 101 130
ENDBRANCH  99 101
ENDBRANCH  96  97
BRANCH  96 133
ATOM    133  CB  CYS d  13    2111.062 644.668-2179.417  0.00  0.00     0.105 C 
BRANCH 133 134
ATOM    134  SG  CYS d  13    2112.858 644.841-2179.529  0.00  0.00    -0.180 SA
ATOM    135  HG  CYS d  13    2113.092 643.682-2180.140  0.00  0.00     0.101 HD
ENDBRANCH 133 134
ENDBRANCH  96 133
ENDBRANCH  94  96
ENDBRANCH  91  92
BRANCH  91 136
ATOM    136  CB  GLN d  12    2106.256 646.921-2179.435  0.00  0.00     0.044 C 
BRANCH 136 137
ATOM    137  CG  GLN d  12    2106.617 648.443-2179.405  0.00  0.00     0.105 C 
BRANCH 137 138
ATOM    138  CD  GLN d  12    2106.316 649.257-2178.141  0.00  0.00     0.215 C 
ATOM    139  NE2 GLN d  12    2105.749 648.682-2177.111  0.00  0.00    -0.370 N 
ATOM    140 21HE GLN d  12    2105.642 649.276-2176.288  0.00  0.00     0.159 HD
ATOM    141 22HE GLN d  12    2105.584 647.678-2177.214  0.00  0.00     0.159 HD
ATOM    142  OE1 GLN d  12    2106.618 650.438-2178.064  0.00  0.00    -0.274 OA
ENDBRANCH 137 138
ENDBRANCH 136 137
ENDBRANCH  91 136
ENDBRANCH  89  91
ENDBRANCH  86  87
BRANCH  86 143
ATOM    143  CB  VAL d  11    2104.407 642.408-2181.637  0.00  0.00     0.009 C 
ATOM    144  CG1 VAL d  11    2103.839 643.111-2182.900  0.00  0.00     0.012 C 
ATOM    145  CG2 VAL d  11    2103.882 640.954-2181.709  0.00  0.00     0.012 C 
ENDBRANCH  86 143
ENDBRANCH  84  86
ENDBRANCH  81  82
BRANCH  81 146
ATOM    146  CB  HIS d  10    2107.764 639.876-2178.392  0.00  0.00     0.095 C 
BRANCH 146 147
ATOM    147  CG  HIS d  10    2109.049 639.165-2178.083  0.00  0.00     0.053 A 
ATOM    148  CD2 HIS d  10    2109.430 638.830-2176.791  0.00  0.00     0.116 A 
ATOM    149  NE2 HIS d  10    2110.645 638.198-2176.858  0.00  0.00    -0.359 N 
ATOM    150  CE1 HIS d  10    2110.907 638.200-2178.193  0.00  0.00     0.207 A 
ATOM    151  2HE HIS d  10    2111.212 637.821-2176.084  0.00  0.00     0.166 HD
ATOM    152  ND1 HIS d  10    2110.000 638.758-2179.016  0.00  0.00    -0.247 NA
ENDBRANCH 146 147
ENDBRANCH  81 146
ENDBRANCH  79  81
ENDBRANCH   1  77
BRANCH   1 153
ATOM    153  CB  GLU d   9    2106.661 643.513-2174.707  0.00  0.00     0.045 C 
BRANCH 153 154
ATOM    154  CG  GLU d   9    2108.044 644.205-2174.478  0.00  0.00     0.116 C 
BRANCH 154 155
ATOM    155  CD  GLU d   9    2108.746 643.992-2173.150  0.00  0.00     0.172 C 
ATOM    156  OE1 GLU d   9    2108.224 643.302-2172.253  0.00  0.00    -0.648 OA
ATOM    157  OE2 GLU d   9    2109.865 644.530-2173.019  0.00  0.00    -0.648 OA
ENDBRANCH 154 155
ENDBRANCH 153 154
ENDBRANCH   1 153
TORSDOF 66
