REMARK WARNING: 32 MAX_TORS EXCEEDED!!!
REMARK  68 active torsions:
REMARK  status: ('A' for Active; 'I' for Inactive)
REMARK    1  A    between atoms: N_1  and  CA_2 
REMARK    2  A    between atoms: CA_2  and  C_3 
REMARK    3  A    between atoms: CA_2  and  CB_5 
REMARK       I    between atoms: C_3  and  N_11 
REMARK    4  A    between atoms: CB_5  and  CG_6 
REMARK    5  A    between atoms: CG_6  and  CD_7 
REMARK    6  A    between atoms: N_11  and  CA_12 
REMARK    7  A    between atoms: CA_12  and  C_13 
REMARK    8  A    between atoms: CA_12  and  CB_15 
REMARK       I    between atoms: C_13  and  N_22 
REMARK    9  A    between atoms: CB_15  and  CG_16 
REMARK       I    between atoms: CG_16  and  ND2_17 
REMARK   10  A    between atoms: CA_23  and  C_24 
REMARK       I    between atoms: C_24  and  N_29 
REMARK   11  A    between atoms: N_29  and  CA_30 
REMARK   12  A    between atoms: CA_30  and  C_31 
REMARK   13  A    between atoms: CA_30  and  CB_33 
REMARK       I    between atoms: C_31  and  N_39 
REMARK   14  A    between atoms: CB_33  and  CG_34 
REMARK   15  A    between atoms: CG_34  and  CD_35 
REMARK   16  A    between atoms: N_39  and  CA_40 
REMARK   17  A    between atoms: CA_40  and  C_41 
REMARK   18  A    between atoms: CA_40  and  CB_43 
REMARK       I    between atoms: C_41  and  N_47 
REMARK   19  A    between atoms: CB_43  and  OG_44 
REMARK   20  A    between atoms: N_47  and  CA_48 
REMARK   21  A    between atoms: CA_48  and  C_49 
REMARK   22  A    between atoms: CA_48  and  CB_51 
REMARK       I    between atoms: C_49  and  N_56 
REMARK   23  A    between atoms: CB_51  and  CG1_52 
REMARK   24  A    between atoms: N_56  and  CA_57 
REMARK   25  A    between atoms: CA_57  and  C_58 
REMARK   26  A    between atoms: CA_57  and  CB_60 
REMARK       I    between atoms: C_58  and  N_65 
REMARK   27  A    between atoms: CB_60  and  CG_61 
REMARK   28  A    between atoms: N_65  and  CA_66 
REMARK   29  A    between atoms: CA_66  and  C_67 
REMARK   30  A    between atoms: CA_66  and  CB_69 
REMARK       I    between atoms: C_67  and  N_74 
REMARK   31  A    between atoms: CB_69  and  CG_70 
REMARK   32  A    between atoms: N_74  and  CA_75 
REMARK   33  A    between atoms: CA_75  and  C_76 
REMARK   34  A    between atoms: CA_75  and  CB_78 
REMARK       I    between atoms: C_76  and  N_84 
REMARK   35  A    between atoms: CB_78  and  CG_79 
REMARK   36  A    between atoms: CG_79  and  CD_80 
REMARK   37  A    between atoms: N_84  and  CA_85 
REMARK   38  A    between atoms: CA_85  and  C_86 
REMARK   39  A    between atoms: CA_85  and  CB_88 
REMARK       I    between atoms: C_86  and  N_96 
REMARK   40  A    between atoms: CB_88  and  CG_89 
REMARK   41  A    between atoms: N_96  and  CA_97 
REMARK   42  A    between atoms: CA_97  and  C_98 
REMARK   43  A    between atoms: CA_97  and  CB_100 
REMARK       I    between atoms: C_98  and  N_104 
REMARK   44  A    between atoms: N_104  and  CA_105 
REMARK   45  A    between atoms: CA_105  and  C_106 
REMARK   46  A    between atoms: CA_105  and  CB_108 
REMARK       I    between atoms: C_106  and  N_116 
REMARK   47  A    between atoms: CB_108  and  CG_109 
REMARK   48  A    between atoms: CG_109  and  CD_110 
REMARK       I    between atoms: CD_110  and  NE2_111 
REMARK   49  A    between atoms: N_116  and  CA_117 
REMARK   50  A    between atoms: CA_117  and  C_118 
REMARK   51  A    between atoms: CA_117  and  CB_120 
REMARK       I    between atoms: C_118  and  N_133 
REMARK   52  A    between atoms: CB_120  and  CG_121 
REMARK   53  A    between atoms: CG_121  and  CD_122 
REMARK   54  A    between atoms: CD_122  and  NE_123 
REMARK       I    between atoms: NE_123  and  CZ_124 
REMARK       I    between atoms: CZ_124  and  NH1_125 
REMARK       I    between atoms: CZ_124  and  NH2_126 
REMARK   55  A    between atoms: N_133  and  CA_134 
REMARK   56  A    between atoms: CA_134  and  C_135 
REMARK   57  A    between atoms: CA_134  and  CB_137 
REMARK       I    between atoms: C_135  and  N_141 
REMARK   58  A    between atoms: N_141  and  CA_142 
REMARK   59  A    between atoms: CA_142  and  C_143 
REMARK   60  A    between atoms: CA_142  and  CB_145 
REMARK       I    between atoms: C_143  and  N_150 
REMARK   61  A    between atoms: CB_145  and  CG_146 
REMARK   62  A    between atoms: CG_146  and  SD_147 
REMARK   63  A    between atoms: N_150  and  CA_151 
REMARK   64  A    between atoms: CA_151  and  C_152 
REMARK   65  A    between atoms: CA_151  and  CB_154 
REMARK   66  A    between atoms: CB_154  and  CG_155 
REMARK   67  A    between atoms: CG_155  and  CD_156 
REMARK   68  A    between atoms: CD_156  and  NE_157 
REMARK       I    between atoms: NE_157  and  CZ_158 
REMARK       I    between atoms: CZ_158  and  NH1_159 
ROOT
ATOM      1  C   GLU d   9    1715.970 515.987-1750.167  0.00  0.00     0.241 C 
ATOM      2  O   GLU d   9    1716.634 516.742-1750.892  0.00  0.00    -0.271 OA
ATOM      3  N   HIS d  10    1716.067 514.711-1750.337  0.00  0.00    -0.346 N 
ATOM      4  H   HIS d  10    1715.536 514.076-1749.759  0.00  0.00     0.163 HD
ENDROOT
BRANCH   1   5
ATOM      5  CA  GLU d   9    1715.051 516.513-1749.091  0.00  0.00     0.177 C 
BRANCH   5   6
ATOM      6  N   GLU d   9    1713.749 515.855-1749.147  0.00  0.00    -0.346 N 
ATOM      7  C   ASP d   8    1713.069 515.905-1750.242  0.00  0.00     0.241 C 
ATOM      8  O   ASP d   8    1713.542 516.511-1751.217  0.00  0.00    -0.271 OA
ATOM      9  H   GLU d   9    1713.386 515.369-1748.340  0.00  0.00     0.163 HD
BRANCH   7  10
ATOM     10  CA  ASP d   8    1711.723 515.225-1750.300  0.00  0.00     0.186 C 
BRANCH  10  11
ATOM     11  N   ASP d   8    1711.794 513.875-1749.747  0.00  0.00    -0.346 N 
ATOM     12  C   LEU d   7    1712.631 513.035-1750.253  0.00  0.00     0.241 C 
ATOM     13  O   LEU d   7    1713.352 513.398-1751.195  0.00  0.00    -0.271 OA
ATOM     14  H   ASP d   8    1711.196 513.604-1748.980  0.00  0.00     0.163 HD
BRANCH  12  15
ATOM     15  CA  LEU d   7    1712.704 511.639-1749.681  0.00  0.00     0.177 C 
BRANCH  15  16
ATOM     16  N   LEU d   7    1712.758 511.675-1748.223  0.00  0.00    -0.346 N 
ATOM     17  C   ILE d   6    1713.704 512.339-1747.649  0.00  0.00     0.241 C 
ATOM     18  O   ILE d   6    1714.539 512.927-1748.352  0.00  0.00    -0.271 OA
ATOM     19  H   LEU d   7    1712.066 511.188-1747.672  0.00  0.00     0.163 HD
BRANCH  17  20
ATOM     20  CA  ILE d   6    1713.761 512.376-1746.141  0.00  0.00     0.180 C 
BRANCH  20  21
ATOM     21  N   ILE d   6    1712.448 512.671-1745.574  0.00  0.00    -0.346 N 
ATOM     22  C   SER d   5    1711.843 513.753-1745.928  0.00  0.00     0.243 C 
ATOM     23  O   SER d   5    1712.389 514.507-1746.733  0.00  0.00    -0.271 OA
ATOM     24  H   ILE d   6    1712.019 512.036-1744.916  0.00  0.00     0.163 HD
BRANCH  22  25
ATOM     25  CA  SER d   5    1710.484 514.059-1745.343  0.00  0.00     0.200 C 
BRANCH  25  26
ATOM     26  N   SER d   5    1709.614 512.887-1745.401  0.00  0.00    -0.344 N 
ATOM     27  C   GLU d   4    1709.387 512.334-1746.544  0.00  0.00     0.241 C 
ATOM     28  O   GLU d   4    1709.913 512.814-1747.559  0.00  0.00    -0.271 OA
ATOM     29  H   SER d   5    1709.198 512.515-1744.560  0.00  0.00     0.163 HD
BRANCH  27  30
ATOM     30  CA  GLU d   4    1708.488 511.123-1746.605  0.00  0.00     0.177 C 
BRANCH  30  31
ATOM     31  N   GLU d   4    1708.848 510.152-1745.576  0.00  0.00    -0.346 N 
ATOM     32  C   PRO d   3    1710.053 509.692-1745.544  0.00  0.00     0.241 C 
ATOM     33  O   PRO d   3    1710.876 510.076-1746.375  0.00  0.00    -0.271 OA
ATOM     34  H   GLU d   4    1708.164 509.845-1744.899  0.00  0.00     0.163 HD
BRANCH  32  35
ATOM     35  CA  PRO d   3    1710.451 508.669-1744.467  0.00  0.00     0.179 C 
ATOM     36  N   PRO d   3    1709.999 509.078-1743.145  0.00  0.00    -0.337 N 
ATOM     37  C   ASN d   2    1710.521 510.073-1742.511  0.00  0.00     0.243 C 
ATOM     38  CD  PRO d   3    1708.921 508.285-1742.596  0.00  0.00     0.127 C 
ATOM     39  O   ASN d   2    1711.436 510.704-1743.040  0.00  0.00    -0.271 OA
ATOM     40  CG  PRO d   3    1708.464 507.466-1743.806  0.00  0.00     0.022 C 
ATOM     41  CB  PRO d   3    1709.747 507.314-1744.636  0.00  0.00     0.037 C 
BRANCH  37  42
ATOM     42  CA  ASN d   2    1709.990 510.429-1741.142  0.00  0.00     0.185 C 
BRANCH  42  43
ATOM     43  N   ASN d   2    1708.530 510.467-1741.142  0.00  0.00    -0.346 N 
ATOM     44  C   GLU d   1    1707.926 511.253-1741.968  0.00  0.00     0.242 C 
ATOM     45  O   GLU d   1    1708.602 511.952-1742.736  0.00  0.00    -0.271 OA
ATOM     46  H   ASN d   2    1708.002 509.888-1740.506  0.00  0.00     0.163 HD
BRANCH  44  47
ATOM     47  CA  GLU d   1    1706.417 511.293-1741.968  0.00  0.00     0.191 C 
BRANCH  47  48
ATOM     48  N   GLU d   1    1705.858 509.944-1741.968  0.00  0.00    -0.326 NA
ATOM     49  H   GLU d   1    1706.485 509.065-1741.968  0.00  0.00     0.180 HD
ENDBRANCH  47  48
BRANCH  47  50
ATOM     50  CB  GLU d   1    1705.894 512.078-1740.730  0.00  0.00     0.047 C 
BRANCH  50  51
ATOM     51  CG  GLU d   1    1706.369 513.563-1740.620  0.00  0.00     0.116 C 
BRANCH  51  52
ATOM     52  CD  GLU d   1    1705.945 514.367-1739.404  0.00  0.00     0.172 C 
ATOM     53  OE1 GLU d   1    1705.217 513.865-1738.526  0.00  0.00    -0.648 OA
ATOM     54  OE2 GLU d   1    1706.375 515.537-1739.333  0.00  0.00    -0.648 OA
ENDBRANCH  51  52
ENDBRANCH  50  51
ENDBRANCH  47  50
ENDBRANCH  44  47
ENDBRANCH  42  43
BRANCH  42  55
ATOM     55  CB  ASN d   2    1710.482 509.406-1740.078  0.00  0.00     0.137 C 
BRANCH  55  56
ATOM     56  CG  ASN d   2    1710.019 509.630-1738.635  0.00  0.00     0.217 C 
ATOM     57  ND2 ASN d   2    1710.613 510.544-1737.917  0.00  0.00    -0.370 N 
ATOM     58 21HD ASN d   2    1710.132 510.717-1737.030  0.00  0.00     0.159 HD
ATOM     59 22HD ASN d   2    1711.315 511.116-1738.386  0.00  0.00     0.159 HD
ATOM     60  OD1 ASN d   2    1709.098 508.996-1738.141  0.00  0.00    -0.274 OA
ENDBRANCH  55  56
ENDBRANCH  42  55
ENDBRANCH  37  42
ENDBRANCH  32  35
ENDBRANCH  30  31
BRANCH  30  61
ATOM     61  CB  GLU d   4    1707.000 511.542-1746.435  0.00  0.00     0.045 C 
BRANCH  61  62
ATOM     62  CG  GLU d   4    1706.451 512.545-1747.501  0.00  0.00     0.116 C 
BRANCH  62  63
ATOM     63  CD  GLU d   4    1705.025 513.042-1747.357  0.00  0.00     0.172 C 
ATOM     64  OE1 GLU d   4    1704.298 512.643-1746.426  0.00  0.00    -0.648 OA
ATOM     65  OE2 GLU d   4    1704.635 513.871-1748.205  0.00  0.00    -0.648 OA
ENDBRANCH  62  63
ENDBRANCH  61  62
ENDBRANCH  30  61
ENDBRANCH  27  30
ENDBRANCH  25  26
BRANCH  25  66
ATOM     66  CB  SER d   5    1710.595 514.591-1743.892  0.00  0.00     0.199 C 
BRANCH  66  67
ATOM     67  OG  SER d   5    1711.327 513.711-1743.031  0.00  0.00    -0.398 OA
ATOM     68  HG  SER d   5    1710.839 512.886-1742.980  0.00  0.00     0.209 HD
ENDBRANCH  66  67
ENDBRANCH  25  66
ENDBRANCH  22  25
ENDBRANCH  20  21
BRANCH  20  69
ATOM     69  CB  ILE d   6    1714.361 511.040-1745.541  0.00  0.00     0.013 C 
ATOM     70  CG2 ILE d   6    1715.802 510.739-1746.056  0.00  0.00     0.012 C 
BRANCH  69  71
ATOM     71  CG1 ILE d   6    1714.380 510.978-1743.980  0.00  0.00     0.002 C 
ATOM     72  CD1 ILE d   6    1714.650 509.588-1743.365  0.00  0.00     0.005 C 
ENDBRANCH  69  71
ENDBRANCH  20  69
ENDBRANCH  17  20
ENDBRANCH  15  16
BRANCH  15  73
ATOM     73  CB  LEU d   7    1711.501 510.779-1750.162  0.00  0.00     0.038 C 
BRANCH  73  74
ATOM     74  CG  LEU d   7    1711.428 509.299-1749.696  0.00  0.00    -0.020 C 
ATOM     75  CD1 LEU d   7    1710.239 508.593-1750.362  0.00  0.00     0.009 C 
ATOM     76  CD2 LEU d   7    1712.722 508.521-1749.987  0.00  0.00     0.009 C 
ENDBRANCH  73  74
ENDBRANCH  15  73
ENDBRANCH  12  15
ENDBRANCH  10  11
BRANCH  10  77
ATOM     77  CB  ASP d   8    1710.644 516.063-1749.558  0.00  0.00     0.147 C 
BRANCH  77  78
ATOM     78  CG  ASP d   8    1710.425 517.484-1750.098  0.00  0.00     0.175 C 
ATOM     79  OD1 ASP d   8    1710.489 517.683-1751.329  0.00  0.00    -0.648 OA
ATOM     80  OD2 ASP d   8    1710.232 518.409-1749.283  0.00  0.00    -0.648 OA
ENDBRANCH  77  78
ENDBRANCH  10  77
ENDBRANCH   7  10
ENDBRANCH   5   6
BRANCH   5  81
ATOM     81  CB  GLU d   9    1715.685 516.306-1747.686  0.00  0.00     0.045 C 
BRANCH  81  82
ATOM     82  CG  GLU d   9    1717.067 516.999-1747.456  0.00  0.00     0.116 C 
BRANCH  82  83
ATOM     83  CD  GLU d   9    1717.769 516.786-1746.128  0.00  0.00     0.172 C 
ATOM     84  OE1 GLU d   9    1717.247 516.095-1745.232  0.00  0.00    -0.648 OA
ATOM     85  OE2 GLU d   9    1718.888 517.324-1745.996  0.00  0.00    -0.648 OA
ENDBRANCH  82  83
ENDBRANCH  81  82
ENDBRANCH   5  81
ENDBRANCH   1   5
BRANCH   3  86
ATOM     86  CA  HIS d  10    1716.955 514.201-1751.377  0.00  0.00     0.182 C 
BRANCH  86  87
ATOM     87  C   HIS d  10    1716.589 514.765-1752.728  0.00  0.00     0.241 C 
ATOM     88  O   HIS d  10    1717.441 515.231-1753.500  0.00  0.00    -0.271 OA
ATOM     89  N   VAL d  11    1715.351 514.764-1753.092  0.00  0.00    -0.346 N 
ATOM     90  H   VAL d  11    1714.638 514.391-1752.481  0.00  0.00     0.163 HD
BRANCH  89  91
ATOM     91  CA  VAL d  11    1714.996 515.310-1754.398  0.00  0.00     0.180 C 
BRANCH  91  92
ATOM     92  C   VAL d  11    1715.460 516.741-1754.530  0.00  0.00     0.241 C 
ATOM     93  O   VAL d  11    1716.061 517.147-1755.533  0.00  0.00    -0.271 OA
ATOM     94  N   GLN d  12    1715.222 517.567-1753.568  0.00  0.00    -0.346 N 
ATOM     95  H   GLN d  12    1714.733 517.260-1752.739  0.00  0.00     0.163 HD
BRANCH  94  96
ATOM     96  CA  GLN d  12    1715.669 518.950-1753.695  0.00  0.00     0.177 C 
BRANCH  96  97
ATOM     97  C   GLN d  12    1717.159 519.018-1753.932  0.00  0.00     0.241 C 
ATOM     98  O   GLN d  12    1717.646 519.727-1754.810  0.00  0.00    -0.271 OA
ATOM     99  N   ARG d  13    1717.944 518.312-1753.191  0.00  0.00    -0.346 N 
ATOM    100  H   ARG d  13    1717.568 517.722-1752.463  0.00  0.00     0.163 HD
BRANCH  99 101
ATOM    101  CA  ARG d  13    1719.385 518.379-1753.421  0.00  0.00     0.176 C 
BRANCH 101 102
ATOM    102  C   ARG d  13    1719.721 518.008-1754.846  0.00  0.00     0.241 C 
ATOM    103  O   ARG d  13    1720.489 518.680-1755.530  0.00  0.00    -0.271 OA
ATOM    104  N   VAL d  14    1719.186 516.953-1755.361  0.00  0.00    -0.346 N 
ATOM    105  H   VAL d  14    1718.551 516.384-1754.819  0.00  0.00     0.163 HD
BRANCH 104 106
ATOM    106  CA  VAL d  14    1719.511 516.594-1756.739  0.00  0.00     0.180 C 
BRANCH 106 107
ATOM    107  C   VAL d  14    1719.181 517.724-1757.684  0.00  0.00     0.241 C 
ATOM    108  O   VAL d  14    1719.974 518.107-1758.553  0.00  0.00    -0.271 OA
ATOM    109  N   MET d  15    1718.035 518.310-1757.582  0.00  0.00    -0.346 N 
ATOM    110  H   MET d  15    1717.371 518.016-1756.881  0.00  0.00     0.163 HD
BRANCH 109 111
ATOM    111  CA  MET d  15    1717.714 519.402-1758.496  0.00  0.00     0.177 C 
BRANCH 111 112
ATOM    112  C   MET d  15    1718.744 520.503-1758.407  0.00  0.00     0.241 C 
ATOM    113  O   MET d  15    1719.246 521.014-1759.420  0.00  0.00    -0.271 OA
ATOM    114  N   ARG d  16    1719.112 520.924-1757.245  0.00  0.00    -0.347 N 
ATOM    115  H   ARG d  16    1718.718 520.523-1756.406  0.00  0.00     0.163 HD
BRANCH 114 116
ATOM    116  CA  ARG d  16    1720.108 521.988-1757.161  0.00  0.00     0.162 C 
BRANCH 116 117
ATOM    117  C   ARG d  16    1721.379 521.596-1757.877  0.00  0.00     0.219 C 
ATOM    118  O   ARG d  16    1721.494 520.520-1758.459  0.00  0.00    -0.287 OA
ENDBRANCH 116 117
BRANCH 116 119
ATOM    119  CB  ARG d  16    1720.377 522.306-1755.663  0.00  0.00     0.035 C 
BRANCH 119 120
ATOM    120  CG  ARG d  16    1721.202 523.595-1755.390  0.00  0.00     0.023 C 
BRANCH 120 121
ATOM    121  CD  ARG d  16    1721.451 523.814-1753.888  0.00  0.00     0.138 C 
BRANCH 121 122
ATOM    122  NE  ARG d  16    1722.226 525.074-1753.687  0.00  0.00    -0.227 N 
ATOM    123  CZ  ARG d  16    1722.617 525.556-1752.511  0.00  0.00     0.665 C 
ATOM    124  NH1 ARG d  16    1722.370 524.971-1751.373  0.00  0.00    -0.235 N 
ATOM    125  NH2 ARG d  16    1723.281 526.669-1752.492  0.00  0.00    -0.235 N 
ATOM    126 11HH ARG d  16    1721.845 524.098-1751.458  0.00  0.00     0.174 HD
ATOM    127 12HH ARG d  16    1722.704 525.407-1750.511  0.00  0.00     0.174 HD
ATOM    128 21HH ARG d  16    1723.466 527.112-1753.394  0.00  0.00     0.174 HD
ATOM    129 22HH ARG d  16    1723.571 527.024-1751.580  0.00  0.00     0.174 HD
ATOM    130  HE  ARG d  16    1722.505 525.655-1754.484  0.00  0.00     0.177 HD
ENDBRANCH 121 122
ENDBRANCH 120 121
ENDBRANCH 119 120
ENDBRANCH 116 119
ENDBRANCH 114 116
ENDBRANCH 111 112
BRANCH 111 131
ATOM    131  CB  MET d  15    1716.293 519.947-1758.187  0.00  0.00     0.045 C 
BRANCH 131 132
ATOM    132  CG  MET d  15    1715.131 518.948-1758.379  0.00  0.00     0.076 C 
BRANCH 132 133
ATOM    133  SD  MET d  15    1713.557 519.814-1758.265  0.00  0.00    -0.173 SA
ATOM    134  CE  MET d  15    1712.476 518.383-1758.129  0.00  0.00     0.089 C 
ENDBRANCH 132 133
ENDBRANCH 131 132
ENDBRANCH 111 131
ENDBRANCH 109 111
ENDBRANCH 106 107
BRANCH 106 135
ATOM    135  CB  VAL d  14    1718.740 515.277-1757.146  0.00  0.00     0.009 C 
ATOM    136  CG1 VAL d  14    1718.830 514.859-1758.639  0.00  0.00     0.012 C 
ATOM    137  CG2 VAL d  14    1719.173 514.025-1756.346  0.00  0.00     0.012 C 
ENDBRANCH 106 135
ENDBRANCH 104 106
ENDBRANCH 101 102
BRANCH 101 138
ATOM    138  CB  ARG d  13    1720.098 517.440-1752.408  0.00  0.00     0.036 C 
BRANCH 138 139
ATOM    139  CG  ARG d  13    1721.643 517.595-1752.326  0.00  0.00     0.023 C 
BRANCH 139 140
ATOM    140  CD  ARG d  13    1722.271 516.607-1751.329  0.00  0.00     0.138 C 
BRANCH 140 141
ATOM    141  NE  ARG d  13    1723.748 516.815-1751.278  0.00  0.00    -0.227 N 
ATOM    142  CZ  ARG d  13    1724.596 516.124-1750.523  0.00  0.00     0.665 C 
ATOM    143  NH1 ARG d  13    1724.232 515.159-1749.726  0.00  0.00    -0.235 N 
ATOM    144  NH2 ARG d  13    1725.856 516.424-1750.579  0.00  0.00    -0.235 N 
ATOM    145 11HH ARG d  13    1723.226 514.972-1749.729  0.00  0.00     0.174 HD
ATOM    146 12HH ARG d  13    1724.945 514.677-1749.177  0.00  0.00     0.174 HD
ATOM    147 21HH ARG d  13    1726.123 517.182-1751.210  0.00  0.00     0.174 HD
ATOM    148 22HH ARG d  13    1726.491 515.883-1749.991  0.00  0.00     0.174 HD
ATOM    149  HE  ARG d  13    1724.199 517.538-1751.848  0.00  0.00     0.177 HD
ENDBRANCH 140 141
ENDBRANCH 139 140
ENDBRANCH 138 139
ENDBRANCH 101 138
ENDBRANCH  99 101
ENDBRANCH  96  97
BRANCH  96 150
ATOM    150  CB  GLN d  12    1715.277 519.717-1752.412  0.00  0.00     0.044 C 
BRANCH 150 151
ATOM    151  CG  GLN d  12    1715.637 521.239-1752.381  0.00  0.00     0.105 C 
BRANCH 151 152
ATOM    152  CD  GLN d  12    1715.333 522.052-1751.116  0.00  0.00     0.215 C 
ATOM    153  NE2 GLN d  12    1714.766 521.475-1750.087  0.00  0.00    -0.370 N 
ATOM    154 21HE GLN d  12    1714.658 522.070-1749.264  0.00  0.00     0.159 HD
ATOM    155 22HE GLN d  12    1714.603 520.472-1750.191  0.00  0.00     0.159 HD
ATOM    156  OE1 GLN d  12    1715.634 523.233-1751.038  0.00  0.00    -0.274 OA
ENDBRANCH 151 152
ENDBRANCH 150 151
ENDBRANCH  96 150
ENDBRANCH  94  96
ENDBRANCH  91  92
BRANCH  91 157
ATOM    157  CB  VAL d  11    1713.435 515.203-1754.618  0.00  0.00     0.009 C 
ATOM    158  CG1 VAL d  11    1712.866 515.907-1755.881  0.00  0.00     0.012 C 
ATOM    159  CG2 VAL d  11    1712.911 513.748-1754.692  0.00  0.00     0.012 C 
ENDBRANCH  91 157
ENDBRANCH  89  91
ENDBRANCH  86  87
BRANCH  86 160
ATOM    160  CB  HIS d  10    1716.792 512.672-1751.373  0.00  0.00     0.095 C 
BRANCH 160 161
ATOM    161  CG  HIS d  10    1718.078 511.962-1751.064  0.00  0.00     0.053 A 
ATOM    162  CD2 HIS d  10    1718.459 511.627-1749.771  0.00  0.00     0.116 A 
ATOM    163  NE2 HIS d  10    1719.674 510.996-1749.838  0.00  0.00    -0.359 N 
ATOM    164  CE1 HIS d  10    1719.938 510.999-1751.173  0.00  0.00     0.207 A 
ATOM    165  2HE HIS d  10    1720.241 510.619-1749.065  0.00  0.00     0.166 HD
ATOM    166  ND1 HIS d  10    1719.031 511.557-1751.997  0.00  0.00    -0.247 NA
ENDBRANCH 160 161
ENDBRANCH  86 160
ENDBRANCH   3  86
TORSDOF 68
