REMARK WARNING: 32 MAX_TORS EXCEEDED!!!
REMARK  69 active torsions:
REMARK  status: ('A' for Active; 'I' for Inactive)
REMARK    1  A    between atoms: N_1  and  CA_2 
REMARK    2  A    between atoms: CA_2  and  C_3 
REMARK    3  A    between atoms: CA_2  and  CB_5 
REMARK       I    between atoms: C_3  and  N_11 
REMARK    4  A    between atoms: CB_5  and  CG_6 
REMARK    5  A    between atoms: CG_6  and  CD_7 
REMARK    6  A    between atoms: N_11  and  CA_12 
REMARK    7  A    between atoms: CA_12  and  C_13 
REMARK    8  A    between atoms: CA_12  and  CB_15 
REMARK       I    between atoms: C_13  and  N_22 
REMARK    9  A    between atoms: CB_15  and  CG_16 
REMARK       I    between atoms: CG_16  and  ND2_17 
REMARK   10  A    between atoms: CA_23  and  C_24 
REMARK       I    between atoms: C_24  and  N_29 
REMARK   11  A    between atoms: N_29  and  CA_30 
REMARK   12  A    between atoms: CA_30  and  C_31 
REMARK   13  A    between atoms: CA_30  and  CB_33 
REMARK       I    between atoms: C_31  and  N_39 
REMARK   14  A    between atoms: CB_33  and  CG_34 
REMARK   15  A    between atoms: CG_34  and  CD_35 
REMARK   16  A    between atoms: N_39  and  CA_40 
REMARK   17  A    between atoms: CA_40  and  C_41 
REMARK   18  A    between atoms: CA_40  and  CB_43 
REMARK       I    between atoms: C_41  and  N_47 
REMARK   19  A    between atoms: CB_43  and  OG_44 
REMARK   20  A    between atoms: N_47  and  CA_48 
REMARK   21  A    between atoms: CA_48  and  C_49 
REMARK   22  A    between atoms: CA_48  and  CB_51 
REMARK       I    between atoms: C_49  and  N_56 
REMARK   23  A    between atoms: CB_51  and  CG1_52 
REMARK   24  A    between atoms: N_56  and  CA_57 
REMARK   25  A    between atoms: CA_57  and  C_58 
REMARK   26  A    between atoms: CA_57  and  CB_60 
REMARK       I    between atoms: C_58  and  N_65 
REMARK   27  A    between atoms: CB_60  and  CG_61 
REMARK   28  A    between atoms: N_65  and  CA_66 
REMARK   29  A    between atoms: CA_66  and  C_67 
REMARK   30  A    between atoms: CA_66  and  CB_69 
REMARK       I    between atoms: C_67  and  N_74 
REMARK   31  A    between atoms: CB_69  and  CG_70 
REMARK   32  A    between atoms: N_74  and  CA_75 
REMARK   33  A    between atoms: CA_75  and  C_76 
REMARK   34  A    between atoms: CA_75  and  CB_78 
REMARK       I    between atoms: C_76  and  N_84 
REMARK   35  A    between atoms: CB_78  and  CG_79 
REMARK   36  A    between atoms: CG_79  and  CD_80 
REMARK   37  A    between atoms: N_84  and  CA_85 
REMARK   38  A    between atoms: CA_85  and  C_86 
REMARK   39  A    between atoms: CA_85  and  CB_88 
REMARK       I    between atoms: C_86  and  N_96 
REMARK   40  A    between atoms: CB_88  and  CG_89 
REMARK   41  A    between atoms: N_96  and  CA_97 
REMARK   42  A    between atoms: CA_97  and  C_98 
REMARK   43  A    between atoms: CA_97  and  CB_100 
REMARK       I    between atoms: C_98  and  N_104 
REMARK   44  A    between atoms: N_104  and  CA_105 
REMARK   45  A    between atoms: CA_105  and  C_106 
REMARK   46  A    between atoms: CA_105  and  CB_108 
REMARK       I    between atoms: C_106  and  N_116 
REMARK   47  A    between atoms: CB_108  and  CG_109 
REMARK   48  A    between atoms: CG_109  and  CD_110 
REMARK       I    between atoms: CD_110  and  NE2_111 
REMARK   49  A    between atoms: N_116  and  CA_117 
REMARK   50  A    between atoms: CA_117  and  C_118 
REMARK   51  A    between atoms: CA_117  and  CB_120 
REMARK       I    between atoms: C_118  and  N_133 
REMARK   52  A    between atoms: CB_120  and  CG_121 
REMARK   53  A    between atoms: CG_121  and  CD_122 
REMARK   54  A    between atoms: CD_122  and  NE_123 
REMARK       I    between atoms: NE_123  and  CZ_124 
REMARK       I    between atoms: CZ_124  and  NH1_125 
REMARK       I    between atoms: CZ_124  and  NH2_126 
REMARK   55  A    between atoms: N_133  and  CA_134 
REMARK   56  A    between atoms: CA_134  and  C_135 
REMARK   57  A    between atoms: CA_134  and  CB_137 
REMARK       I    between atoms: C_135  and  N_149 
REMARK   58  A    between atoms: CB_137  and  CG_138 
REMARK   59  A    between atoms: N_149  and  CA_150 
REMARK   60  A    between atoms: CA_150  and  C_151 
REMARK   61  A    between atoms: CA_150  and  CB_153 
REMARK       I    between atoms: C_151  and  N_158 
REMARK   62  A    between atoms: CB_153  and  CG_154 
REMARK   63  A    between atoms: CG_154  and  SD_155 
REMARK   64  A    between atoms: N_158  and  CA_159 
REMARK   65  A    between atoms: CA_159  and  C_160 
REMARK   66  A    between atoms: CA_159  and  CB_162 
REMARK   67  A    between atoms: CB_162  and  CG_163 
REMARK   68  A    between atoms: CG_163  and  CD_164 
REMARK   69  A    between atoms: CD_164  and  NE_165 
REMARK       I    between atoms: NE_165  and  CZ_166 
REMARK       I    between atoms: CZ_166  and  NH1_167 
ROOT
ATOM      1  CA  HIS d  10    2253.325 688.875-2338.100  0.00  0.00     0.182 C 
ENDROOT
BRANCH   1   2
ATOM      2  N   HIS d  10    2252.438 689.387-2337.059  0.00  0.00    -0.346 N 
ATOM      3  C   GLU d   9    2252.342 690.662-2336.891  0.00  0.00     0.241 C 
ATOM      4  O   GLU d   9    2253.006 691.416-2337.617  0.00  0.00    -0.271 OA
ATOM      5  H   HIS d  10    2251.907 688.752-2336.480  0.00  0.00     0.163 HD
BRANCH   3   6
ATOM      6  CA  GLU d   9    2251.424 691.191-2335.815  0.00  0.00     0.177 C 
BRANCH   6   7
ATOM      7  N   GLU d   9    2250.121 690.534-2335.869  0.00  0.00    -0.346 N 
ATOM      8  C   ASP d   8    2249.441 690.583-2336.965  0.00  0.00     0.241 C 
ATOM      9  O   ASP d   8    2249.914 691.188-2337.940  0.00  0.00    -0.271 OA
ATOM     10  H   GLU d   9    2249.758 690.048-2335.062  0.00  0.00     0.163 HD
BRANCH   8  11
ATOM     11  CA  ASP d   8    2248.094 689.904-2337.021  0.00  0.00     0.186 C 
BRANCH  11  12
ATOM     12  N   ASP d   8    2248.164 688.555-2336.467  0.00  0.00    -0.346 N 
ATOM     13  C   LEU d   7    2249.001 687.714-2336.973  0.00  0.00     0.241 C 
ATOM     14  O   LEU d   7    2249.722 688.076-2337.916  0.00  0.00    -0.271 OA
ATOM     15  H   ASP d   8    2247.566 688.285-2335.699  0.00  0.00     0.163 HD
BRANCH  13  16
ATOM     16  CA  LEU d   7    2249.073 686.319-2336.400  0.00  0.00     0.177 C 
BRANCH  16  17
ATOM     17  N   LEU d   7    2249.128 686.355-2334.942  0.00  0.00    -0.346 N 
ATOM     18  C   ILE d   6    2250.074 687.018-2334.368  0.00  0.00     0.241 C 
ATOM     19  O   ILE d   6    2250.908 687.605-2335.072  0.00  0.00    -0.271 OA
ATOM     20  H   LEU d   7    2248.436 685.868-2334.390  0.00  0.00     0.163 HD
BRANCH  18  21
ATOM     21  CA  ILE d   6    2250.131 687.056-2332.860  0.00  0.00     0.180 C 
BRANCH  21  22
ATOM     22  N   ILE d   6    2248.818 687.351-2332.294  0.00  0.00    -0.346 N 
ATOM     23  C   SER d   5    2248.213 688.434-2332.649  0.00  0.00     0.243 C 
ATOM     24  O   SER d   5    2248.761 689.188-2333.453  0.00  0.00    -0.271 OA
ATOM     25  H   ILE d   6    2248.389 686.717-2331.636  0.00  0.00     0.163 HD
BRANCH  23  26
ATOM     26  CA  SER d   5    2246.854 688.740-2332.063  0.00  0.00     0.200 C 
BRANCH  26  27
ATOM     27  N   SER d   5    2245.985 687.569-2332.122  0.00  0.00    -0.344 N 
ATOM     28  C   GLU d   4    2245.758 687.017-2333.266  0.00  0.00     0.241 C 
ATOM     29  O   GLU d   4    2246.284 687.496-2334.280  0.00  0.00    -0.271 OA
ATOM     30  H   SER d   5    2245.567 687.198-2331.281  0.00  0.00     0.163 HD
BRANCH  28  31
ATOM     31  CA  GLU d   4    2244.858 685.806-2333.327  0.00  0.00     0.177 C 
BRANCH  31  32
ATOM     32  N   GLU d   4    2245.218 684.835-2332.297  0.00  0.00    -0.346 N 
ATOM     33  C   PRO d   3    2246.422 684.375-2332.265  0.00  0.00     0.241 C 
ATOM     34  O   PRO d   3    2247.246 684.758-2333.096  0.00  0.00    -0.271 OA
ATOM     35  H   GLU d   4    2244.533 684.529-2331.621  0.00  0.00     0.163 HD
BRANCH  33  36
ATOM     36  CA  PRO d   3    2246.820 683.351-2331.188  0.00  0.00     0.179 C 
ATOM     37  N   PRO d   3    2246.368 683.760-2329.866  0.00  0.00    -0.337 N 
ATOM     38  C   ASN d   2    2246.889 684.755-2329.232  0.00  0.00     0.243 C 
ATOM     39  CD  PRO d   3    2245.290 682.968-2329.317  0.00  0.00     0.127 C 
ATOM     40  O   ASN d   2    2247.804 685.386-2329.760  0.00  0.00    -0.271 OA
ATOM     41  CG  PRO d   3    2244.832 682.149-2330.527  0.00  0.00     0.022 C 
ATOM     42  CB  PRO d   3    2246.116 681.997-2331.357  0.00  0.00     0.037 C 
BRANCH  38  43
ATOM     43  CA  ASN d   2    2246.358 685.111-2327.863  0.00  0.00     0.185 C 
BRANCH  43  44
ATOM     44  N   ASN d   2    2244.899 685.150-2327.864  0.00  0.00    -0.346 N 
ATOM     45  C   GLU d   1    2244.294 685.936-2328.689  0.00  0.00     0.242 C 
ATOM     46  O   GLU d   1    2244.970 686.635-2329.457  0.00  0.00    -0.271 OA
ATOM     47  H   ASN d   2    2244.370 684.570-2327.227  0.00  0.00     0.163 HD
BRANCH  45  48
ATOM     48  CA  GLU d   1    2242.785 685.976-2328.689  0.00  0.00     0.191 C 
BRANCH  48  49
ATOM     49  N   GLU d   1    2242.226 684.627-2328.689  0.00  0.00    -0.326 NA
ATOM     50  H   GLU d   1    2242.853 683.748-2328.689  0.00  0.00     0.180 HD
ENDBRANCH  48  49
BRANCH  48  51
ATOM     51  CB  GLU d   1    2242.262 686.761-2327.452  0.00  0.00     0.047 C 
BRANCH  51  52
ATOM     52  CG  GLU d   1    2242.737 688.246-2327.341  0.00  0.00     0.116 C 
BRANCH  52  53
ATOM     53  CD  GLU d   1    2242.313 689.050-2326.126  0.00  0.00     0.172 C 
ATOM     54  OE1 GLU d   1    2241.585 688.548-2325.248  0.00  0.00    -0.648 OA
ATOM     55  OE2 GLU d   1    2242.743 690.220-2326.054  0.00  0.00    -0.648 OA
ENDBRANCH  52  53
ENDBRANCH  51  52
ENDBRANCH  48  51
ENDBRANCH  45  48
ENDBRANCH  43  44
BRANCH  43  56
ATOM     56  CB  ASN d   2    2246.850 684.088-2326.799  0.00  0.00     0.137 C 
BRANCH  56  57
ATOM     57  CG  ASN d   2    2246.386 684.312-2325.356  0.00  0.00     0.217 C 
ATOM     58  ND2 ASN d   2    2246.980 685.227-2324.637  0.00  0.00    -0.370 N 
ATOM     59 21HD ASN d   2    2246.499 685.400-2323.751  0.00  0.00     0.159 HD
ATOM     60 22HD ASN d   2    2247.682 685.798-2325.106  0.00  0.00     0.159 HD
ATOM     61  OD1 ASN d   2    2245.465 683.678-2324.862  0.00  0.00    -0.274 OA
ENDBRANCH  56  57
ENDBRANCH  43  56
ENDBRANCH  38  43
ENDBRANCH  33  36
ENDBRANCH  31  32
BRANCH  31  62
ATOM     62  CB  GLU d   4    2243.370 686.225-2333.157  0.00  0.00     0.045 C 
BRANCH  62  63
ATOM     63  CG  GLU d   4    2242.823 687.229-2334.223  0.00  0.00     0.116 C 
BRANCH  63  64
ATOM     64  CD  GLU d   4    2241.396 687.726-2334.080  0.00  0.00     0.172 C 
ATOM     65  OE1 GLU d   4    2240.669 687.328-2333.150  0.00  0.00    -0.648 OA
ATOM     66  OE2 GLU d   4    2241.007 688.555-2334.929  0.00  0.00    -0.648 OA
ENDBRANCH  63  64
ENDBRANCH  62  63
ENDBRANCH  31  62
ENDBRANCH  28  31
ENDBRANCH  26  27
BRANCH  26  67
ATOM     67  CB  SER d   5    2246.966 689.273-2330.613  0.00  0.00     0.199 C 
BRANCH  67  68
ATOM     68  OG  SER d   5    2247.697 688.393-2329.752  0.00  0.00    -0.398 OA
ATOM     69  HG  SER d   5    2247.208 687.568-2329.701  0.00  0.00     0.209 HD
ENDBRANCH  67  68
ENDBRANCH  26  67
ENDBRANCH  23  26
ENDBRANCH  21  22
BRANCH  21  70
ATOM     70  CB  ILE d   6    2250.730 685.719-2332.260  0.00  0.00     0.013 C 
ATOM     71  CG2 ILE d   6    2252.171 685.417-2332.775  0.00  0.00     0.012 C 
BRANCH  70  72
ATOM     72  CG1 ILE d   6    2250.749 685.657-2330.699  0.00  0.00     0.002 C 
ATOM     73  CD1 ILE d   6    2251.018 684.268-2330.084  0.00  0.00     0.005 C 
ENDBRANCH  70  72
ENDBRANCH  21  70
ENDBRANCH  18  21
ENDBRANCH  16  17
BRANCH  16  74
ATOM     74  CB  LEU d   7    2247.869 685.459-2336.881  0.00  0.00     0.038 C 
BRANCH  74  75
ATOM     75  CG  LEU d   7    2247.796 683.979-2336.414  0.00  0.00    -0.020 C 
ATOM     76  CD1 LEU d   7    2246.606 683.274-2337.079  0.00  0.00     0.009 C 
ATOM     77  CD2 LEU d   7    2249.090 683.200-2336.706  0.00  0.00     0.009 C 
ENDBRANCH  74  75
ENDBRANCH  16  74
ENDBRANCH  13  16
ENDBRANCH  11  12
BRANCH  11  78
ATOM     78  CB  ASP d   8    2247.016 690.744-2336.280  0.00  0.00     0.147 C 
BRANCH  78  79
ATOM     79  CG  ASP d   8    2246.798 692.165-2336.822  0.00  0.00     0.175 C 
ATOM     80  OD1 ASP d   8    2246.863 692.363-2338.052  0.00  0.00    -0.648 OA
ATOM     81  OD2 ASP d   8    2246.607 693.091-2336.007  0.00  0.00    -0.648 OA
ENDBRANCH  78  79
ENDBRANCH  11  78
ENDBRANCH   8  11
ENDBRANCH   6   7
BRANCH   6  82
ATOM     82  CB  GLU d   9    2252.058 690.984-2334.409  0.00  0.00     0.045 C 
BRANCH  82  83
ATOM     83  CG  GLU d   9    2253.441 691.675-2334.181  0.00  0.00     0.116 C 
BRANCH  83  84
ATOM     84  CD  GLU d   9    2254.143 691.462-2332.852  0.00  0.00     0.172 C 
ATOM     85  OE1 GLU d   9    2253.621 690.772-2331.956  0.00  0.00    -0.648 OA
ATOM     86  OE2 GLU d   9    2255.262 692.000-2332.721  0.00  0.00    -0.648 OA
ENDBRANCH  83  84
ENDBRANCH  82  83
ENDBRANCH   6  82
ENDBRANCH   3   6
ENDBRANCH   1   2
BRANCH   1  87
ATOM     87  C   HIS d  10    2252.958 689.439-2339.451  0.00  0.00     0.241 C 
ATOM     88  O   HIS d  10    2253.811 689.903-2340.223  0.00  0.00    -0.271 OA
ATOM     89  N   VAL d  11    2251.720 689.438-2339.814  0.00  0.00    -0.346 N 
ATOM     90  H   VAL d  11    2251.007 689.066-2339.203  0.00  0.00     0.163 HD
BRANCH  89  91
ATOM     91  CA  VAL d  11    2251.365 689.984-2341.121  0.00  0.00     0.180 C 
BRANCH  91  92
ATOM     92  C   VAL d  11    2251.830 691.414-2341.254  0.00  0.00     0.241 C 
ATOM     93  O   VAL d  11    2252.431 691.818-2342.258  0.00  0.00    -0.271 OA
ATOM     94  N   GLN d  12    2251.594 692.240-2340.292  0.00  0.00    -0.346 N 
ATOM     95  H   GLN d  12    2251.105 691.935-2339.463  0.00  0.00     0.163 HD
BRANCH  94  96
ATOM     96  CA  GLN d  12    2252.043 693.623-2340.420  0.00  0.00     0.177 C 
BRANCH  96  97
ATOM     97  C   GLN d  12    2253.533 693.690-2340.658  0.00  0.00     0.241 C 
ATOM     98  O   GLN d  12    2254.020 694.397-2341.538  0.00  0.00    -0.271 OA
ATOM     99  N   ARG d  13    2254.318 692.983-2339.917  0.00  0.00    -0.346 N 
ATOM    100  H   ARG d  13    2253.941 692.394-2339.188  0.00  0.00     0.163 HD
BRANCH  99 101
ATOM    101  CA  ARG d  13    2255.758 693.048-2340.148  0.00  0.00     0.176 C 
BRANCH 101 102
ATOM    102  C   ARG d  13    2256.094 692.675-2341.573  0.00  0.00     0.241 C 
ATOM    103  O   ARG d  13    2256.862 693.347-2342.258  0.00  0.00    -0.271 OA
ATOM    104  N   TRP d  14    2255.557 691.621-2342.087  0.00  0.00    -0.346 N 
ATOM    105  H   TRP d  14    2254.922 691.053-2341.545  0.00  0.00     0.163 HD
BRANCH 104 106
ATOM    106  CA  TRP d  14    2255.881 691.260-2343.464  0.00  0.00     0.181 C 
BRANCH 106 107
ATOM    107  C   TRP d  14    2255.551 692.390-2344.412  0.00  0.00     0.241 C 
ATOM    108  O   TRP d  14    2256.341 692.766-2345.276  0.00  0.00    -0.271 OA
ATOM    109  N   MET d  15    2254.407 692.977-2344.311  0.00  0.00    -0.346 N 
ATOM    110  H   MET d  15    2253.741 692.686-2343.609  0.00  0.00     0.163 HD
BRANCH 109 111
ATOM    111  CA  MET d  15    2254.088 694.068-2345.227  0.00  0.00     0.177 C 
BRANCH 111 112
ATOM    112  C   MET d  15    2255.120 695.167-2345.141  0.00  0.00     0.241 C 
ATOM    113  O   MET d  15    2255.623 695.675-2346.155  0.00  0.00    -0.271 OA
ATOM    114  N   ARG d  16    2255.489 695.590-2343.980  0.00  0.00    -0.347 N 
ATOM    115  H   ARG d  16    2255.094 695.192-2343.140  0.00  0.00     0.163 HD
BRANCH 114 116
ATOM    116  CA  ARG d  16    2256.487 696.653-2343.898  0.00  0.00     0.162 C 
BRANCH 116 117
ATOM    117  C   ARG d  16    2257.757 696.257-2344.614  0.00  0.00     0.219 C 
ATOM    118  O   ARG d  16    2257.869 695.179-2345.193  0.00  0.00    -0.287 OA
ENDBRANCH 116 117
BRANCH 116 119
ATOM    119  CB  ARG d  16    2256.756 696.974-2342.401  0.00  0.00     0.035 C 
BRANCH 119 120
ATOM    120  CG  ARG d  16    2257.583 698.262-2342.131  0.00  0.00     0.023 C 
BRANCH 120 121
ATOM    121  CD  ARG d  16    2257.833 698.484-2340.630  0.00  0.00     0.138 C 
BRANCH 121 122
ATOM    122  NE  ARG d  16    2258.610 699.743-2340.431  0.00  0.00    -0.227 N 
ATOM    123  CZ  ARG d  16    2259.002 700.227-2339.257  0.00  0.00     0.665 C 
ATOM    124  NH1 ARG d  16    2258.753 699.646-2338.117  0.00  0.00    -0.235 N 
ATOM    125  NH2 ARG d  16    2259.667 701.339-2339.241  0.00  0.00    -0.235 N 
ATOM    126 11HH ARG d  16    2258.226 698.773-2338.200  0.00  0.00     0.174 HD
ATOM    127 12HH ARG d  16    2259.088 700.083-2337.257  0.00  0.00     0.174 HD
ATOM    128 21HH ARG d  16    2259.854 701.780-2340.144  0.00  0.00     0.174 HD
ATOM    129 22HH ARG d  16    2259.958 701.696-2338.329  0.00  0.00     0.174 HD
ATOM    130  HE  ARG d  16    2258.890 700.322-2341.230  0.00  0.00     0.177 HD
ENDBRANCH 121 122
ENDBRANCH 120 121
ENDBRANCH 119 120
ENDBRANCH 116 119
ENDBRANCH 114 116
ENDBRANCH 111 112
BRANCH 111 131
ATOM    131  CB  MET d  15    2252.667 694.616-2344.920  0.00  0.00     0.045 C 
BRANCH 131 132
ATOM    132  CG  MET d  15    2251.504 693.618-2345.111  0.00  0.00     0.076 C 
BRANCH 132 133
ATOM    133  SD  MET d  15    2249.931 694.487-2344.999  0.00  0.00    -0.173 SA
ATOM    134  CE  MET d  15    2248.849 693.058-2344.860  0.00  0.00     0.089 C 
ENDBRANCH 132 133
ENDBRANCH 131 132
ENDBRANCH 111 131
ENDBRANCH 109 111
ENDBRANCH 106 107
BRANCH 106 135
ATOM    135  CB  TRP d  14    2255.077 689.991-2343.860  0.00  0.00     0.075 C 
BRANCH 135 136
ATOM    136  CG  TRP d  14    2255.465 688.722-2343.094  0.00  0.00    -0.028 A 
ATOM    137  CD2 TRP d  14    2256.554 687.900-2343.298  0.00  0.00    -0.002 A 
ATOM    138  CE3 TRP d  14    2257.591 687.935-2344.265  0.00  0.00     0.014 A 
ATOM    139  CE2 TRP d  14    2256.541 686.904-2342.290  0.00  0.00     0.042 A 
ATOM    140  CZ3 TRP d  14    2258.583 686.956-2344.207  0.00  0.00     0.001 A 
ATOM    141  CH2 TRP d  14    2258.568 685.965-2343.215  0.00  0.00     0.002 A 
ATOM    142  CZ2 TRP d  14    2257.561 685.929-2342.248  0.00  0.00     0.030 A 
ATOM    143  NE1 TRP d  14    2255.458 687.078-2341.441  0.00  0.00    -0.365 N 
ATOM    144  CD1 TRP d  14    2254.805 688.214-2341.956  0.00  0.00     0.096 A 
ATOM    145  1HE TRP d  14    2255.221 686.534-2340.604  0.00  0.00     0.165 HD
ENDBRANCH 135 136
ENDBRANCH 106 135
ENDBRANCH 104 106
ENDBRANCH 101 102
BRANCH 101 146
ATOM    146  CB  ARG d  13    2256.471 692.110-2339.134  0.00  0.00     0.036 C 
BRANCH 146 147
ATOM    147  CG  ARG d  13    2258.016 692.262-2339.054  0.00  0.00     0.023 C 
BRANCH 147 148
ATOM    148  CD  ARG d  13    2258.643 691.275-2338.055  0.00  0.00     0.138 C 
BRANCH 148 149
ATOM    149  NE  ARG d  13    2260.120 691.482-2338.005  0.00  0.00    -0.227 N 
ATOM    150  CZ  ARG d  13    2260.969 690.791-2337.250  0.00  0.00     0.665 C 
ATOM    151  NH1 ARG d  13    2260.604 689.827-2336.452  0.00  0.00    -0.235 N 
ATOM    152  NH2 ARG d  13    2262.228 691.089-2337.307  0.00  0.00    -0.235 N 
ATOM    153 11HH ARG d  13    2259.598 689.641-2336.454  0.00  0.00     0.174 HD
ATOM    154 12HH ARG d  13    2261.317 689.344-2335.903  0.00  0.00     0.174 HD
ATOM    155 21HH ARG d  13    2262.496 691.847-2337.939  0.00  0.00     0.174 HD
ATOM    156 22HH ARG d  13    2262.864 690.548-2336.719  0.00  0.00     0.174 HD
ATOM    157  HE  ARG d  13    2260.572 692.204-2338.577  0.00  0.00     0.177 HD
ENDBRANCH 148 149
ENDBRANCH 147 148
ENDBRANCH 146 147
ENDBRANCH 101 146
ENDBRANCH  99 101
ENDBRANCH  96  97
BRANCH  96 158
ATOM    158  CB  GLN d  12    2251.653 694.391-2339.138  0.00  0.00     0.044 C 
BRANCH 158 159
ATOM    159  CG  GLN d  12    2252.014 695.913-2339.108  0.00  0.00     0.105 C 
BRANCH 159 160
ATOM    160  CD  GLN d  12    2251.713 696.727-2337.843  0.00  0.00     0.215 C 
ATOM    161  NE2 GLN d  12    2251.146 696.152-2336.814  0.00  0.00    -0.370 N 
ATOM    162 21HE GLN d  12    2251.039 696.747-2335.991  0.00  0.00     0.159 HD
ATOM    163 22HE GLN d  12    2250.981 695.148-2336.917  0.00  0.00     0.159 HD
ATOM    164  OE1 GLN d  12    2252.015 697.908-2337.766  0.00  0.00    -0.274 OA
ENDBRANCH 159 160
ENDBRANCH 158 159
ENDBRANCH  96 158
ENDBRANCH  94  96
ENDBRANCH  91  92
BRANCH  91 165
ATOM    165  CB  VAL d  11    2249.804 689.878-2341.340  0.00  0.00     0.009 C 
ATOM    166  CG1 VAL d  11    2249.235 690.581-2342.603  0.00  0.00     0.012 C 
ATOM    167  CG2 VAL d  11    2249.279 688.424-2341.412  0.00  0.00     0.012 C 
ENDBRANCH  91 165
ENDBRANCH  89  91
ENDBRANCH   1  87
BRANCH   1 168
ATOM    168  CB  HIS d  10    2253.160 687.346-2338.094  0.00  0.00     0.095 C 
BRANCH 168 169
ATOM    169  CG  HIS d  10    2254.446 686.635-2337.786  0.00  0.00     0.053 A 
ATOM    170  CD2 HIS d  10    2254.827 686.301-2336.494  0.00  0.00     0.116 A 
ATOM    171  NE2 HIS d  10    2256.042 685.668-2336.560  0.00  0.00    -0.359 N 
ATOM    172  CE1 HIS d  10    2256.304 685.670-2337.896  0.00  0.00     0.207 A 
ATOM    173  2HE HIS d  10    2256.608 685.291-2335.787  0.00  0.00     0.166 HD
ATOM    174  ND1 HIS d  10    2255.397 686.228-2338.719  0.00  0.00    -0.247 NA
ENDBRANCH 168 169
ENDBRANCH   1 168
TORSDOF 69
