@<TRIPOS>MOLECULE
4-6
269 270 16              
SMALL
USER_CHARGES
@<TRIPOS>ATOM
1	   N	574.117	138.406	-517.647	N.3	1	GLU1	-0.516	
2	  CA	574.676	139.755	-517.647	C.3	1	GLU1	0.040	
3	   C	576.185	139.715	-517.647	C.2	1	GLU1	0.537	
4	   O	576.861	140.414	-518.415	O.2	1	GLU1	-0.582	
5	  CB	574.153	140.540	-516.410	C.3	1	GLU1	0.056	
6	  CG	574.628	142.025	-516.299	C.3	1	GLU1	0.014	
7	  CD	574.204	142.829	-515.084	C.2	1	GLU1	0.805	
8	 OE1	573.476	142.327	-514.206	O.co2	1	GLU1	-0.819	
9	 OE2	574.634	143.999	-515.012	O.co2	1	GLU1	-0.819	
10	   H	574.744	137.527	-517.647	 H	1	GLU1	0.294	
11	  HA	574.350	140.273	-518.567	 H	1	GLU1	0.111	
12	 2HB	574.442	140.009	-515.480	 H	1	GLU1	-0.017	
13	 3HB	573.046	140.530	-516.397	 H	1	GLU1	-0.017	
14	 2HG	574.318	142.610	-517.180	 H	1	GLU1	-0.043	
15	 3HG	575.728	142.092	-516.270	 H	1	GLU1	-0.043	
16	   N	576.790	138.929	-516.822	N.am	2	ASN2	-0.416	
17	  CA	578.249	138.891	-516.822	C.3	2	ASN2	0.014	
18	   C	578.781	138.535	-518.190	C.2	2	ASN2	0.597	
19	   O	579.695	139.166	-518.719	O.2	2	ASN2	-0.568	
20	  CB	578.741	137.868	-515.757	C.3	2	ASN2	-0.204	
21	  CG	578.278	138.092	-514.314	C.2	2	ASN2	0.713	
22	 ND2	578.873	139.007	-513.596	N.pl3	2	ASN2	-0.919	
23	 OD1	577.358	137.458	-513.820	O.2	2	ASN2	-0.593	
24	   H	576.262	138.350	-516.185	 H	2	ASN2	0.272	
25	  HA	578.627	139.901	-516.576	 H	2	ASN2	0.105	
26	 2HB	579.846	137.809	-515.761	 H	2	ASN2	0.080	
27	 3HB	578.412	136.850	-516.043	 H	2	ASN2	0.080	
28	1HD2	578.392	139.180	-512.709	 H	2	ASN2	0.420	
29	2HD2	579.574	139.578	-514.065	 H	2	ASN2	0.420	
30	   N	578.259	137.540	-518.824	N.am	3	PRO3	-0.255	
31	  CA	578.711	137.131	-520.146	C.3	3	PRO3	-0.027	
32	   C	578.313	138.155	-521.223	C.2	3	PRO3	0.590	
33	   O	579.136	138.538	-522.054	O.2	3	PRO3	-0.575	
34	  CB	578.007	135.776	-520.316	C.3	3	PRO3	-0.007	
35	  CG	576.724	135.928	-519.485	C.3	3	PRO3	0.019	
36	  CD	577.181	136.747	-518.276	C.3	3	PRO3	0.019	
37	  HA	579.797	137.011	-520.160	 H	3	PRO3	0.064	
38	 2HB	578.630	134.995	-519.875	 H	3	PRO3	0.025	
39	 3HB	577.809	135.528	-521.361	 H	3	PRO3	0.025	
40	 2HG	576.296	134.966	-519.194	 H	3	PRO3	0.021	
41	 3HG	575.986	136.499	-520.053	 H	3	PRO3	0.021	
42	 2HD	577.571	136.098	-517.488	 H	3	PRO3	0.039	
43	 3HD	576.385	137.383	-517.882	 H	3	PRO3	0.039	
44	   N	577.108	138.614	-521.255	N.am	4	ILE4	-0.416	
45	  CA	576.749	139.585	-522.285	C.3	4	ILE4	-0.060	
46	   C	577.647	140.796	-522.224	C.2	4	ILE4	0.597	
47	   O	578.174	141.275	-523.240	O.2	4	ILE4	-0.568	
48	  CB	575.219	139.982	-522.195	C.3	4	ILE4	0.130	
49	 CG1	574.232	138.771	-522.176	C.3	4	ILE4	-0.043	
50	 CG2	574.776	140.951	-523.334	C.3	4	ILE4	-0.320	
51	 CD1	572.779	139.093	-521.768	C.3	4	ILE4	-0.066	
52	   H	576.424	138.308	-520.579	 H	4	ILE4	0.272	
53	  HA	576.927	139.111	-523.268	 H	4	ILE4	0.087	
54	  HB	575.086	140.517	-521.231	 H	4	ILE4	0.019	
55	2HG1	574.588	138.014	-521.452	 H	4	ILE4	0.024	
56	3HG1	574.247	138.248	-523.152	 H	4	ILE4	0.024	
57	1HG2	575.347	141.896	-523.348	 H	4	ILE4	0.088	
58	2HG2	574.879	140.490	-524.336	 H	4	ILE4	0.088	
59	3HG2	573.723	141.268	-523.233	 H	4	ILE4	0.088	
60	1HD1	572.729	139.579	-520.775	 H	4	ILE4	0.019	
61	2HD1	572.275	139.762	-522.490	 H	4	ILE4	0.019	
62	3HD1	572.167	138.174	-521.710	 H	4	ILE4	0.019	
63	   N	577.875	141.350	-521.081	N.am	5	SER5	-0.416	
64	  CA	578.744	142.521	-521.023	C.3	5	SER5	-0.025	
65	   C	580.103	142.215	-521.609	C.2	5	SER5	0.597	
66	   O	580.650	142.969	-522.414	O.2	5	SER5	-0.568	
67	  CB	578.855	143.054	-519.573	C.3	5	SER5	0.212	
68	  OG	579.587	142.175	-518.711	O.3	5	SER5	-0.655	
69	   H	577.458	140.978	-520.240	 H	5	SER5	0.272	
70	  HA	578.295	143.311	-521.653	 H	5	SER5	0.084	
71	 2HB	577.856	143.248	-519.140	 H	5	SER5	0.035	
72	 3HB	579.361	144.040	-519.576	 H	5	SER5	0.035	
73	  HG	579.099	141.350	-518.660	 H	5	SER5	0.428	
74	   N	580.708	141.133	-521.254	N.am	6	ILE6	-0.416	
75	  CA	582.021	140.838	-521.820	C.3	6	ILE6	-0.060	
76	   C	581.964	140.799	-523.328	C.2	6	ILE6	0.597	
77	   O	582.799	141.387	-524.032	O.2	6	ILE6	-0.568	
78	  CB	582.621	139.502	-521.219	C.3	6	ILE6	0.130	
79	 CG1	582.640	139.440	-519.658	C.3	6	ILE6	-0.043	
80	 CG2	584.062	139.200	-521.735	C.3	6	ILE6	-0.320	
81	 CD1	582.910	138.051	-519.043	C.3	6	ILE6	-0.066	
82	   H	580.280	140.498	-520.595	 H	6	ILE6	0.272	
83	  HA	582.695	141.672	-521.553	 H	6	ILE6	0.087	
84	  HB	581.963	138.675	-521.563	 H	6	ILE6	0.019	
85	2HG1	581.658	139.760	-519.263	 H	6	ILE6	0.024	
86	3HG1	583.356	140.182	-519.254	 H	6	ILE6	0.024	
87	1HG2	584.121	139.106	-522.833	 H	6	ILE6	0.088	
88	2HG2	584.784	139.982	-521.433	 H	6	ILE6	0.088	
89	3HG2	584.452	138.238	-521.355	 H	6	ILE6	0.088	
90	1HD1	582.182	137.297	-519.397	 H	6	ILE6	0.019	
91	2HD1	583.921	137.672	-519.279	 H	6	ILE6	0.019	
92	3HD1	582.834	138.081	-517.940	 H	6	ILE6	0.019	
93	   N	581.018	140.136	-523.901	N.am	7	LEU7	-0.416	
94	  CA	580.964	140.099	-525.360	C.3	7	LEU7	-0.052	
95	   C	580.891	141.494	-525.933	C.2	7	LEU7	0.597	
96	   O	581.612	141.857	-526.875	O.2	7	LEU7	-0.568	
97	  CB	579.761	139.238	-525.840	C.3	7	LEU7	-0.110	
98	  CG	579.688	137.759	-525.373	C.3	7	LEU7	0.353	
99	 CD1	578.498	137.053	-526.039	C.3	7	LEU7	-0.412	
100	 CD2	580.982	136.980	-525.664	C.3	7	LEU7	-0.412	
101	   H	580.326	139.649	-523.350	 H	7	LEU7	0.272	
102	  HA	581.905	139.659	-525.734	 H	7	LEU7	0.092	
103	 2HB	579.738	139.254	-526.948	 H	7	LEU7	0.046	
104	 3HB	578.821	139.741	-525.536	 H	7	LEU7	0.046	
105	  HG	579.518	137.752	-524.276	 H	7	LEU7	-0.036	
106	1HD1	577.541	137.562	-525.816	 H	7	LEU7	0.100	
107	2HD1	578.598	137.012	-527.140	 H	7	LEU7	0.100	
108	3HD1	578.392	136.012	-525.682	 H	7	LEU7	0.100	
109	1HD2	581.257	137.010	-526.734	 H	7	LEU7	0.100	
110	2HD2	581.835	137.392	-525.093	 H	7	LEU7	0.100	
111	3HD2	580.901	135.918	-525.368	 H	7	LEU7	0.100	
112	   N	580.054	142.335	-525.427	N.am	8	ASP8	-0.516	
113	  CA	579.983	143.684	-525.981	C.3	8	ASP8	0.038	
114	   C	581.329	144.364	-525.924	C.2	8	ASP8	0.537	
115	   O	581.802	144.969	-526.899	O.2	8	ASP8	-0.582	
116	  CB	578.905	144.523	-525.240	C.3	8	ASP8	-0.030	
117	  CG	578.685	145.944	-525.781	C.2	8	ASP8	0.799	
118	 OD1	578.749	146.142	-527.011	O.co2	8	ASP8	-0.801	
119	 OD2	578.493	146.870	-524.965	O.co2	8	ASP8	-0.801	
120	   H	579.456	142.064	-524.659	 H	8	ASP8	0.294	
121	  HA	579.700	143.606	-527.048	 H	8	ASP8	0.088	
122	 2HB	579.162	144.607	-524.168	 H	8	ASP8	-0.012	
123	 3HB	577.926	144.018	-525.272	 H	8	ASP8	-0.012	
124	   N	582.009	144.315	-524.828	N.am	9	GLU9	-0.516	
125	  CA	583.311	144.973	-524.773	C.3	9	GLU9	0.040	
126	   C	584.230	144.445	-525.849	C.2	9	GLU9	0.537	
127	   O	584.894	145.199	-526.574	O.2	9	GLU9	-0.582	
128	  CB	583.945	144.766	-523.367	C.3	9	GLU9	0.056	
129	  CG	585.327	145.459	-523.138	C.3	9	GLU9	0.014	
130	  CD	586.029	145.246	-521.810	C.2	9	GLU9	0.805	
131	 OE1	585.507	144.555	-520.913	O.co2	9	GLU9	-0.819	
132	 OE2	587.148	145.784	-521.678	O.co2	9	GLU9	-0.819	
133	   H	581.646	143.829	-524.021	 H	9	GLU9	0.294	
134	  HA	583.169	146.055	-524.949	 H	9	GLU9	0.111	
135	 2HB	584.058	143.681	-523.164	 H	9	GLU9	-0.017	
136	 3HB	583.248	145.119	-522.583	 H	9	GLU9	-0.017	
137	 2HG	585.255	146.549	-523.278	 H	9	GLU9	-0.043	
138	 3HG	586.074	145.114	-523.872	 H	9	GLU9	-0.043	
139	   N	584.327	143.170	-526.018	N.am	10	HIS10	-0.416	
140	  CA	585.215	142.658	-527.058	C.3	10	HIS10	-0.058	
141	   C	584.848	143.223	-528.409	C.2	10	HIS10	0.597	
142	   O	585.701	143.687	-529.181	O.2	10	HIS10	-0.568	
143	  CB	585.052	141.130	-527.052	C.3	10	HIS10	-0.007	
144	  CG	586.337	140.420	-526.744	C.2	10	HIS10	0.187	
145	 CD2	586.718	140.085	-525.451	C.2	10	HIS10	-0.221	
146	 ND1	587.290	140.014	-527.676	N.2	10	HIS10	-0.543	
147	 CE1	588.196	139.456	-526.853	C.2	10	HIS10	0.163	
148	 NE2	587.933	139.453	-525.517	N.pl3	10	HIS10	-0.280	
149	   H	583.796	142.534	-525.439	 H	10	HIS10	0.272	
150	  HA	586.234	143.016	-526.832	 H	10	HIS10	0.136	
151	 2HB	584.687	140.762	-528.032	 H	10	HIS10	0.037	
152	 3HB	584.296	140.792	-526.313	 H	10	HIS10	0.037	
153	 2HD	586.132	140.300	-524.562	 H	10	HIS10	0.186	
154	 1HE	589.087	139.035	-527.299	 H	10	HIS10	0.144	
155	 2HE	588.500	139.076	-524.744	 H	10	HIS10	0.334	
156	   N	583.611	143.221	-528.772	N.am	11	VAL11	-0.416	
157	  CA	583.256	143.767	-530.079	C.3	11	VAL11	-0.087	
158	   C	583.720	145.198	-530.212	C.2	11	VAL11	0.597	
159	   O	584.321	145.603	-531.215	O.2	11	VAL11	-0.568	
160	  CB	581.695	143.660	-530.299	C.3	11	VAL11	0.299	
161	 CG1	581.126	144.363	-531.562	C.3	11	VAL11	-0.319	
162	 CG2	581.170	142.205	-530.372	C.3	11	VAL11	-0.319	
163	   H	582.898	142.848	-528.162	 H	11	VAL11	0.272	
164	  HA	583.776	143.185	-530.861	 H	11	VAL11	0.097	
165	  HB	581.207	144.140	-529.424	 H	11	VAL11	-0.030	
166	1HG1	581.565	143.972	-532.499	 H	11	VAL11	0.079	
167	2HG1	580.027	144.256	-531.644	 H	11	VAL11	0.079	
168	3HG1	581.304	145.456	-531.553	 H	11	VAL11	0.079	
169	1HG2	581.460	141.619	-529.481	 H	11	VAL11	0.079	
170	2HG2	580.065	142.168	-530.415	 H	11	VAL11	0.079	
171	3HG2	581.553	141.665	-531.258	 H	11	VAL11	0.079	
172	   N	583.482	146.024	-529.250	N.am	12	GLN12	-0.416	
173	  CA	583.930	147.407	-529.377	C.3	12	GLN12	-0.003	
174	   C	585.420	147.474	-529.615	C.2	12	GLN12	0.597	
175	   O	585.907	148.183	-530.493	O.2	12	GLN12	-0.568	
176	  CB	583.539	148.174	-528.095	C.3	12	GLN12	-0.004	
177	  CG	583.899	149.696	-528.064	C.3	12	GLN12	-0.064	
178	  CD	583.596	150.510	-526.799	C.2	12	GLN12	0.695	
179	 NE2	583.028	149.933	-525.770	N.pl3	12	GLN12	-0.941	
180	 OE1	583.897	151.691	-526.722	O.2	12	GLN12	-0.609	
181	   H	582.993	145.718	-528.421	 H	12	GLN12	0.272	
182	  HA	583.431	147.863	-530.252	 H	12	GLN12	0.085	
183	 2HB	584.015	147.674	-527.225	 H	12	GLN12	0.017	
184	 3HB	582.449	148.067	-527.932	 H	12	GLN12	0.017	
185	 2HG	583.421	150.217	-528.915	 H	12	GLN12	0.035	
186	 3HG	584.982	149.839	-528.229	 H	12	GLN12	0.035	
187	1HE2	582.921	150.528	-524.947	 H	12	GLN12	0.425	
188	2HE2	582.865	148.930	-525.874	 H	12	GLN12	0.425	
189	   N	586.205	146.768	-528.873	N.am	13	ARG13	-0.348	
190	  CA	587.645	146.834	-529.104	C.3	13	ARG13	-0.264	
191	   C	587.982	146.463	-530.529	C.2	13	ARG13	0.734	
192	   O	588.750	147.134	-531.213	O.2	13	ARG13	-0.589	
193	  CB	588.359	145.896	-528.090	C.3	13	ARG13	-0.001	
194	  CG	589.903	146.049	-528.008	C.3	13	ARG13	0.039	
195	  CD	590.531	145.062	-527.010	C.3	13	ARG13	0.049	
196	  NE	592.008	145.270	-526.960	N.pl3	13	ARG13	-0.530	
197	  CZ	592.856	144.579	-526.204	C.cat	13	ARG13	0.808	
198	 NH1	592.491	143.614	-525.407	N.pl3	13	ARG13	-0.863	
199	 NH2	594.115	144.878	-526.261	N.pl3	13	ARG13	-0.863	
200	   H	585.829	146.178	-528.145	 H	13	ARG13	0.275	
201	  HA	587.969	147.880	-528.945	 H	13	ARG13	0.156	
202	 2HB	588.093	144.845	-528.329	 H	13	ARG13	0.033	
203	 3HB	587.933	146.062	-527.079	 H	13	ARG13	0.033	
204	 2HG	590.151	147.094	-527.729	 H	13	ARG13	0.029	
205	 3HG	590.354	145.893	-529.010	 H	13	ARG13	0.029	
206	 2HD	590.287	144.022	-527.319	 H	13	ARG13	0.069	
207	 3HD	590.074	145.208	-526.008	 H	13	ARG13	0.069	
208	  HE	592.459	145.992	-527.530	 H	13	ARG13	0.346	
209	1HH1	591.485	143.428	-525.410	 H	13	ARG13	0.448	
210	2HH1	593.204	143.131	-524.858	 H	13	ARG13	0.448	
211	1HH2	594.383	145.636	-526.892	 H	13	ARG13	0.448	
212	2HH2	594.750	144.337	-525.672	 H	13	ARG13	0.448	
213	   N	587.446	145.408	-531.043	N.am	14	VAL14	-0.416	
214	  CA	587.771	145.048	-532.420	C.3	14	VAL14	-0.087	
215	   C	587.441	146.178	-533.366	C.2	14	VAL14	0.597	
216	   O	588.235	146.560	-534.236	O.2	14	VAL14	-0.568	
217	  CB	586.999	143.731	-532.827	C.3	14	VAL14	0.299	
218	 CG1	587.089	143.313	-534.321	C.3	14	VAL14	-0.319	
219	 CG2	587.432	142.479	-532.027	C.3	14	VAL14	-0.319	
220	   H	586.811	144.839	-530.501	 H	14	VAL14	0.272	
221	  HA	588.860	144.872	-532.495	 H	14	VAL14	0.097	
222	  HB	585.923	143.902	-532.612	 H	14	VAL14	-0.030	
223	1HG1	588.130	143.136	-534.649	 H	14	VAL14	0.079	
224	2HG1	586.516	142.389	-534.534	 H	14	VAL14	0.079	
225	3HG1	586.660	144.075	-534.999	 H	14	VAL14	0.079	
226	1HG2	587.344	142.638	-530.936	 H	14	VAL14	0.079	
227	2HG2	586.796	141.602	-532.259	 H	14	VAL14	0.079	
228	3HG2	588.479	142.189	-532.232	 H	14	VAL14	0.079	
229	   N	586.296	146.764	-533.265	N.am	15	MET15	-0.416	
230	  CA	585.976	147.856	-534.179	C.3	15	MET15	-0.024	
231	   C	587.005	148.956	-534.091	C.2	15	MET15	0.597	
232	   O	587.508	149.467	-535.104	O.2	15	MET15	-0.568	
233	  CB	584.554	148.401	-533.870	C.3	15	MET15	0.034	
234	  CG	583.392	147.403	-534.062	C.3	15	MET15	0.002	
235	  SD	581.818	148.268	-533.948	S.3	15	MET15	-0.274	
236	  CE	580.737	146.838	-533.811	C.3	15	MET15	-0.054	
237	   H	585.631	146.471	-532.563	 H	15	MET15	0.272	
238	  HA	586.002	147.469	-535.214	 H	15	MET15	0.088	
239	 2HB	584.351	149.280	-534.512	 H	15	MET15	0.024	
240	 3HB	584.518	148.794	-532.834	 H	15	MET15	0.024	
241	 2HG	583.435	146.617	-533.284	 H	15	MET15	0.044	
242	 3HG	583.455	146.888	-535.038	 H	15	MET15	0.044	
243	 1HE	580.881	146.150	-534.663	 H	15	MET15	0.068	
244	 2HE	580.947	146.286	-532.878	 H	15	MET15	0.068	
245	 3HE	579.680	147.153	-533.795	 H	15	MET15	0.068	
246	   N	587.374	149.378	-532.929	N.am	16	ARG16	-0.348	
247	  CA	588.370	150.442	-532.845	C.3	16	ARG16	-0.264	
248	   C	589.641	150.050	-533.561	C.2	16	ARG16	0.734	
249	   O	589.755	148.973	-534.143	O.2	16	ARG16	-0.589	
250	  CB	588.639	150.761	-531.347	C.3	16	ARG16	-0.001	
251	  CG	589.463	152.050	-531.074	C.3	16	ARG16	0.039	
252	  CD	589.713	152.270	-529.573	C.3	16	ARG16	0.049	
253	  NE	590.488	153.529	-529.372	N.pl3	16	ARG16	-0.530	
254	  CZ	590.879	154.012	-528.197	C.cat	16	ARG16	0.808	
255	 NH1	590.632	153.427	-527.058	N.pl3	16	ARG16	-0.863	
256	 NH2	591.543	155.124	-528.179	N.pl3	16	ARG16	-0.863	
257	   H	586.979	148.978	-532.090	 H	16	ARG16	0.275	
258	  HA	587.961	151.335	-533.355	 H	16	ARG16	0.156	
259	 2HB	589.136	149.885	-530.880	 H	16	ARG16	0.033	
260	 3HB	587.670	150.841	-530.813	 H	16	ARG16	0.033	
261	 2HG	588.933	152.920	-531.512	 H	16	ARG16	0.029	
262	 3HG	590.437	151.997	-531.603	 H	16	ARG16	0.029	
263	 2HD	590.262	151.395	-529.160	 H	16	ARG16	0.069	
264	 3HD	588.740	152.312	-529.038	 H	16	ARG16	0.069	
265	  HE	590.767	154.110	-530.170	 H	16	ARG16	0.346	
266	1HH1	590.107	152.554	-527.143	 H	16	ARG16	0.448	
267	2HH1	590.966	153.863	-526.197	 H	16	ARG16	0.448	
268	1HH2	591.729	155.567	-529.080	 H	16	ARG16	0.448	
269	2HH2	591.833	155.480	-527.266	 H	16	ARG16	0.448	
@<TRIPOS>BOND
1 1 2 1
2 1 10 1
3 2 3 1
4 2 5 1
5 2 11 1
6 3 4 2
7 3 16 1
8 5 6 1
9 6 7 1
10 7 8 2
11 7 9 1
12 5 12 1
13 5 13 1
14 6 14 1
15 6 15 1
16 16 17 1
17 16 24 1
18 17 18 1
19 17 20 1
20 17 25 1
21 18 19 2
22 18 30 1
23 20 21 1
24 21 22 1
25 21 23 2
26 20 26 1
27 20 27 1
28 22 28 1
29 22 29 1
30 30 31 1
31 30 36 1
32 31 32 1
33 31 34 1
34 31 37 1
35 32 33 2
36 32 44 1
37 34 35 1
38 35 36 1
39 34 38 1
40 34 39 1
41 35 40 1
42 35 41 1
43 36 42 1
44 36 43 1
45 44 45 1
46 44 52 1
47 45 46 1
48 45 48 1
49 45 53 1
50 46 47 2
51 46 63 1
52 48 49 1
53 48 50 1
54 49 51 1
55 48 54 1
56 49 55 1
57 49 56 1
58 50 57 1
59 50 58 1
60 50 59 1
61 51 60 1
62 51 61 1
63 51 62 1
64 63 64 1
65 63 69 1
66 64 65 1
67 64 67 1
68 64 70 1
69 65 66 2
70 65 74 1
71 67 68 1
72 67 71 1
73 67 72 1
74 68 73 1
75 74 75 1
76 74 82 1
77 75 76 1
78 75 78 1
79 75 83 1
80 76 77 2
81 76 93 1
82 78 79 1
83 78 80 1
84 79 81 1
85 78 84 1
86 79 85 1
87 79 86 1
88 80 87 1
89 80 88 1
90 80 89 1
91 81 90 1
92 81 91 1
93 81 92 1
94 93 94 1
95 93 101 1
96 94 95 1
97 94 97 1
98 94 102 1
99 95 96 2
100 95 112 1
101 97 98 1
102 98 99 1
103 98 100 1
104 97 103 1
105 97 104 1
106 98 105 1
107 99 106 1
108 99 107 1
109 99 108 1
110 100 109 1
111 100 110 1
112 100 111 1
113 112 113 1
114 112 120 1
115 113 114 1
116 113 116 1
117 113 121 1
118 114 115 2
119 114 124 1
120 116 117 1
121 117 118 2
122 117 119 1
123 116 122 1
124 116 123 1
125 124 125 1
126 124 133 1
127 125 126 1
128 125 128 1
129 125 134 1
130 126 127 2
131 126 139 1
132 128 129 1
133 129 130 1
134 130 131 2
135 130 132 1
136 128 135 1
137 128 136 1
138 129 137 1
139 129 138 1
140 139 140 1
141 139 149 1
142 140 141 1
143 140 143 1
144 140 150 1
145 141 142 2
146 141 156 1
147 143 144 1
148 144 145 2
149 145 148 1
150 144 146 1
151 146 147 2
152 147 148 1
153 143 151 1
154 143 152 1
155 145 153 1
156 147 154 1
157 148 155 1
158 156 157 1
159 156 163 1
160 157 158 1
161 157 160 1
162 157 164 1
163 158 159 2
164 158 172 1
165 160 161 1
166 160 162 1
167 160 165 1
168 161 166 1
169 161 167 1
170 161 168 1
171 162 169 1
172 162 170 1
173 162 171 1
174 172 173 1
175 172 181 1
176 173 174 1
177 173 176 1
178 173 182 1
179 174 175 2
180 174 189 1
181 176 177 1
182 177 178 1
183 178 179 1
184 178 180 2
185 176 183 1
186 176 184 1
187 177 185 1
188 177 186 1
189 179 187 1
190 179 188 1
191 189 190 1
192 189 200 1
193 190 191 1
194 190 193 1
195 190 201 1
196 191 192 2
197 191 213 1
198 193 194 1
199 194 195 1
200 195 196 1
201 196 197 1
202 197 198 2
203 197 199 1
204 193 202 1
205 193 203 1
206 194 204 1
207 194 205 1
208 195 206 1
209 195 207 1
210 196 208 1
211 198 209 1
212 198 210 1
213 199 211 1
214 199 212 1
215 213 214 1
216 213 220 1
217 214 215 1
218 214 217 1
219 214 221 1
220 215 216 2
221 215 229 1
222 217 218 1
223 217 219 1
224 217 222 1
225 218 223 1
226 218 224 1
227 218 225 1
228 219 226 1
229 219 227 1
230 219 228 1
231 229 230 1
232 229 237 1
233 230 231 1
234 230 233 1
235 230 238 1
236 231 232 2
237 231 246 1
238 233 234 1
239 234 235 1
240 235 236 1
241 233 239 1
242 233 240 1
243 234 241 1
244 234 242 1
245 236 243 1
246 236 244 1
247 236 245 1
248 246 247 1
249 246 257 1
250 247 248 1
251 247 250 1
252 247 258 1
253 248 249 2
254 250 251 1
255 251 252 1
256 252 253 1
257 253 254 1
258 254 255 2
259 254 256 1
260 250 259 1
261 250 260 1
262 251 261 1
263 251 262 1
264 252 263 1
265 252 264 1
266 253 265 1
267 255 266 1
268 255 267 1
269 256 268 1
270 256 269 1
@<TRIPOS>SUBSTRUCTURE
1	GLU1	1	RESIDUE	1 ****	GLU
2	ASN2	16	RESIDUE	1 ****	ASN
3	PRO3	30	RESIDUE	1 ****	PRO
4	ILE4	44	RESIDUE	1 ****	ILE
5	SER5	63	RESIDUE	1 ****	SER
6	ILE6	74	RESIDUE	1 ****	ILE
7	LEU7	93	RESIDUE	1 ****	LEU
8	ASP8	112	RESIDUE	1 ****	ASP
9	GLU9	124	RESIDUE	1 ****	GLU
10	HIS10	139	RESIDUE	1 ****	HIS
11	VAL11	156	RESIDUE	1 ****	VAL
12	GLN12	172	RESIDUE	1 ****	GLN
13	ARG13	189	RESIDUE	1 ****	ARG
14	VAL14	213	RESIDUE	1 ****	VAL
15	MET15	229	RESIDUE	1 ****	MET
16	ARG16	246	RESIDUE	1 ****	ARG
