@<TRIPOS>MOLECULE
7-11
263 265 16              
SMALL
USER_CHARGES
@<TRIPOS>ATOM
1	   N	1107.296	312.608	-1093.702	N.3	1	GLU1	-0.516	
2	  CA	1107.855	313.957	-1093.702	C.3	1	GLU1	0.040	
3	   C	1109.364	313.917	-1093.702	C.2	1	GLU1	0.537	
4	   O	1110.040	314.616	-1094.470	O.2	1	GLU1	-0.582	
5	  CB	1107.332	314.742	-1092.464	C.3	1	GLU1	0.056	
6	  CG	1107.807	316.227	-1092.354	C.3	1	GLU1	0.014	
7	  CD	1107.383	317.031	-1091.138	C.2	1	GLU1	0.805	
8	 OE1	1106.655	316.529	-1090.260	O.co2	1	GLU1	-0.819	
9	 OE2	1107.813	318.201	-1091.067	O.co2	1	GLU1	-0.819	
10	   H	1107.923	311.729	-1093.702	 H	1	GLU1	0.294	
11	  HA	1107.529	314.475	-1094.621	 H	1	GLU1	0.111	
12	 2HB	1107.621	314.211	-1091.535	 H	1	GLU1	-0.017	
13	 3HB	1106.225	314.732	-1092.452	 H	1	GLU1	-0.017	
14	 2HG	1107.497	316.812	-1093.234	 H	1	GLU1	-0.043	
15	 3HG	1108.907	316.294	-1092.324	 H	1	GLU1	-0.043	
16	   N	1109.968	313.131	-1092.876	N.am	2	ASN2	-0.416	
17	  CA	1111.428	313.092	-1092.876	C.3	2	ASN2	0.014	
18	   C	1111.959	312.737	-1094.245	C.2	2	ASN2	0.597	
19	   O	1112.874	313.367	-1094.774	O.2	2	ASN2	-0.568	
20	  CB	1111.920	312.069	-1091.812	C.3	2	ASN2	-0.204	
21	  CG	1111.457	312.293	-1090.369	C.2	2	ASN2	0.713	
22	 ND2	1112.051	313.208	-1089.651	N.pl3	2	ASN2	-0.919	
23	 OD1	1110.536	311.659	-1089.875	O.2	2	ASN2	-0.593	
24	   H	1109.440	312.551	-1092.240	 H	2	ASN2	0.272	
25	  HA	1111.805	314.102	-1092.631	 H	2	ASN2	0.105	
26	 2HB	1113.024	312.010	-1091.816	 H	2	ASN2	0.080	
27	 3HB	1111.591	311.051	-1092.098	 H	2	ASN2	0.080	
28	1HD2	1111.570	313.381	-1088.764	 H	2	ASN2	0.420	
29	2HD2	1112.753	313.780	-1090.120	 H	2	ASN2	0.420	
30	   N	1111.437	311.741	-1094.879	N.am	3	PRO3	-0.255	
31	  CA	1111.889	311.332	-1096.201	C.3	3	PRO3	-0.027	
32	   C	1111.491	312.356	-1097.278	C.2	3	PRO3	0.590	
33	   O	1112.314	312.739	-1098.109	O.2	3	PRO3	-0.575	
34	  CB	1111.185	309.977	-1096.370	C.3	3	PRO3	-0.007	
35	  CG	1109.902	310.130	-1095.540	C.3	3	PRO3	0.019	
36	  CD	1110.359	310.948	-1094.330	C.3	3	PRO3	0.019	
37	  HA	1112.975	311.212	-1096.214	 H	3	PRO3	0.064	
38	 2HB	1111.808	309.196	-1095.929	 H	3	PRO3	0.025	
39	 3HB	1110.987	309.729	-1097.415	 H	3	PRO3	0.025	
40	 2HG	1109.474	309.167	-1095.249	 H	3	PRO3	0.021	
41	 3HG	1109.164	310.701	-1096.107	 H	3	PRO3	0.021	
42	 2HD	1110.749	310.299	-1093.542	 H	3	PRO3	0.039	
43	 3HD	1109.563	311.584	-1093.937	 H	3	PRO3	0.039	
44	   N	1110.286	312.816	-1097.310	N.am	4	GLU4	-0.516	
45	  CA	1109.926	313.787	-1098.339	C.3	4	GLU4	0.040	
46	   C	1110.825	314.998	-1098.278	C.2	4	GLU4	0.537	
47	   O	1111.351	315.478	-1099.293	O.2	4	GLU4	-0.582	
48	  CB	1108.438	314.205	-1098.169	C.3	4	GLU4	0.056	
49	  CG	1107.889	315.209	-1099.234	C.3	4	GLU4	0.014	
50	  CD	1106.463	315.706	-1099.090	C.2	4	GLU4	0.805	
51	 OE1	1105.737	315.307	-1098.160	O.co2	4	GLU4	-0.819	
52	 OE2	1106.073	316.535	-1099.939	O.co2	4	GLU4	-0.819	
53	   H	1109.602	312.509	-1096.633	 H	4	GLU4	0.294	
54	  HA	1110.057	313.316	-1099.331	 H	4	GLU4	0.111	
55	 2HB	1108.285	314.645	-1097.162	 H	4	GLU4	-0.017	
56	 3HB	1107.790	313.307	-1098.175	 H	4	GLU4	-0.017	
57	 2HG	1107.971	314.794	-1100.252	 H	4	GLU4	-0.043	
58	 3HG	1108.477	316.141	-1099.245	 H	4	GLU4	-0.043	
59	   N	1111.053	315.551	-1097.135	N.am	5	SER5	-0.416	
60	  CA	1111.922	316.722	-1097.077	C.3	5	SER5	-0.025	
61	   C	1113.281	316.417	-1097.662	C.2	5	SER5	0.597	
62	   O	1113.828	317.170	-1098.467	O.2	5	SER5	-0.568	
63	  CB	1112.034	317.254	-1095.626	C.3	5	SER5	0.212	
64	  OG	1112.766	316.375	-1094.765	O.3	5	SER5	-0.655	
65	   H	1110.636	315.179	-1096.294	 H	5	SER5	0.272	
66	  HA	1111.473	317.512	-1097.706	 H	5	SER5	0.084	
67	 2HB	1111.034	317.448	-1095.193	 H	5	SER5	0.035	
68	 3HB	1112.539	318.240	-1095.628	 H	5	SER5	0.035	
69	  HG	1112.277	315.550	-1094.715	 H	5	SER5	0.428	
70	   N	1113.886	315.334	-1097.308	N.am	6	ILE6	-0.416	
71	  CA	1115.199	315.039	-1097.875	C.3	6	ILE6	-0.060	
72	   C	1115.141	315.002	-1099.383	C.2	6	ILE6	0.597	
73	   O	1115.976	315.589	-1100.087	O.2	6	ILE6	-0.568	
74	  CB	1115.799	313.703	-1097.275	C.3	6	ILE6	0.130	
75	 CG1	1115.818	313.640	-1095.714	C.3	6	ILE6	-0.043	
76	 CG2	1117.240	313.401	-1097.791	C.3	6	ILE6	-0.320	
77	 CD1	1116.088	312.251	-1095.099	C.3	6	ILE6	-0.066	
78	   H	1113.457	314.699	-1096.650	 H	6	ILE6	0.272	
79	  HA	1115.873	315.873	-1097.607	 H	6	ILE6	0.087	
80	  HB	1115.141	312.877	-1097.619	 H	6	ILE6	0.019	
81	2HG1	1114.836	313.960	-1095.318	 H	6	ILE6	0.024	
82	3HG1	1116.534	314.382	-1095.309	 H	6	ILE6	0.024	
83	1HG2	1117.299	313.308	-1098.889	 H	6	ILE6	0.088	
84	2HG2	1117.962	314.183	-1097.488	 H	6	ILE6	0.088	
85	3HG2	1117.630	312.439	-1097.412	 H	6	ILE6	0.088	
86	1HD1	1115.360	311.497	-1095.454	 H	6	ILE6	0.019	
87	2HD1	1117.099	311.872	-1095.335	 H	6	ILE6	0.019	
88	3HD1	1116.012	312.281	-1093.997	 H	6	ILE6	0.019	
89	   N	1114.196	314.338	-1099.956	N.am	7	HIS7	-0.416	
90	  CA	1114.140	314.301	-1101.415	C.3	7	HIS7	-0.058	
91	   C	1114.067	315.695	-1101.990	C.2	7	HIS7	0.597	
92	   O	1114.787	316.056	-1102.933	O.2	7	HIS7	-0.568	
93	  CB	1112.876	313.504	-1101.779	C.3	7	HIS7	-0.007	
94	  CG	1113.190	312.269	-1102.572	C.2	7	HIS7	0.187	
95	 CD2	1113.434	311.038	-1101.978	C.2	7	HIS7	-0.221	
96	 ND1	1113.276	312.191	-1103.960	N.2	7	HIS7	-0.543	
97	 CE1	1113.577	310.886	-1104.099	C.2	7	HIS7	0.163	
98	 NE2	1113.687	310.130	-1102.973	N.pl3	7	HIS7	-0.280	
99	   H	1113.504	313.851	-1099.405	 H	7	HIS7	0.272	
100	  HA	1115.085	313.861	-1101.775	 H	7	HIS7	0.136	
101	 2HB	1112.171	314.120	-1102.373	 H	7	HIS7	0.037	
102	 3HB	1112.306	313.190	-1100.880	 H	7	HIS7	0.037	
103	 2HD	1113.420	310.858	-1100.907	 H	7	HIS7	0.186	
104	 1HE	1113.714	310.508	-1105.104	 H	7	HIS7	0.144	
105	 2HE	1113.907	309.128	-1102.882	 H	7	HIS7	0.334	
106	   N	1113.230	316.537	-1101.484	N.am	8	ASP8	-0.516	
107	  CA	1113.159	317.886	-1102.040	C.3	8	ASP8	0.038	
108	   C	1114.505	318.565	-1101.985	C.2	8	ASP8	0.537	
109	   O	1114.978	319.169	-1102.961	O.2	8	ASP8	-0.582	
110	  CB	1112.081	318.726	-1101.299	C.3	8	ASP8	-0.030	
111	  CG	1111.862	320.146	-1101.842	C.2	8	ASP8	0.799	
112	 OD1	1111.925	320.342	-1103.073	O.co2	8	ASP8	-0.801	
113	 OD2	1111.670	321.073	-1101.028	O.co2	8	ASP8	-0.801	
114	   H	1112.632	316.267	-1100.716	 H	8	ASP8	0.294	
115	  HA	1112.875	317.806	-1103.107	 H	8	ASP8	0.088	
116	 2HB	1112.339	318.811	-1100.228	 H	8	ASP8	-0.012	
117	 3HB	1111.102	318.221	-1101.331	 H	8	ASP8	-0.012	
118	   N	1115.186	318.518	-1100.890	N.am	9	GLU9	-0.516	
119	  CA	1116.488	319.175	-1100.837	C.3	9	GLU9	0.040	
120	   C	1117.406	318.646	-1101.912	C.2	9	GLU9	0.537	
121	   O	1118.069	319.399	-1102.639	O.2	9	GLU9	-0.582	
122	  CB	1117.123	318.970	-1099.431	C.3	9	GLU9	0.056	
123	  CG	1118.506	319.663	-1099.204	C.3	9	GLU9	0.014	
124	  CD	1119.208	319.452	-1097.876	C.2	9	GLU9	0.805	
125	 OE1	1118.687	318.762	-1096.978	O.co2	9	GLU9	-0.819	
126	 OE2	1120.327	319.990	-1097.746	O.co2	9	GLU9	-0.819	
127	   H	1114.823	318.033	-1100.082	 H	9	GLU9	0.294	
128	  HA	1116.346	320.257	-1101.014	 H	9	GLU9	0.111	
129	 2HB	1117.236	317.886	-1099.226	 H	9	GLU9	-0.017	
130	 3HB	1116.426	319.325	-1098.647	 H	9	GLU9	-0.017	
131	 2HG	1118.433	320.753	-1099.345	 H	9	GLU9	-0.043	
132	 3HG	1119.252	319.317	-1099.938	 H	9	GLU9	-0.043	
133	   N	1117.503	317.370	-1102.080	N.am	10	HIS10	-0.416	
134	  CA	1118.390	316.858	-1103.120	C.3	10	HIS10	-0.058	
135	   C	1118.022	317.420	-1104.472	C.2	10	HIS10	0.597	
136	   O	1118.874	317.883	-1105.245	O.2	10	HIS10	-0.568	
137	  CB	1118.226	315.329	-1103.112	C.3	10	HIS10	-0.007	
138	  CG	1119.512	314.619	-1102.804	C.2	10	HIS10	0.187	
139	 CD2	1119.893	314.286	-1101.511	C.2	10	HIS10	-0.221	
140	 ND1	1120.463	314.212	-1103.736	N.2	10	HIS10	-0.543	
141	 CE1	1121.370	313.655	-1102.913	C.2	10	HIS10	0.163	
142	 NE2	1121.108	313.654	-1101.577	N.pl3	10	HIS10	-0.280	
143	   H	1116.972	316.736	-1101.500	 H	10	HIS10	0.272	
144	  HA	1119.409	317.215	-1102.896	 H	10	HIS10	0.136	
145	 2HB	1117.860	314.960	-1104.091	 H	10	HIS10	0.037	
146	 3HB	1117.471	314.993	-1102.372	 H	10	HIS10	0.037	
147	 2HD	1119.308	314.502	-1100.622	 H	10	HIS10	0.186	
148	 1HE	1122.261	313.233	-1103.359	 H	10	HIS10	0.144	
149	 2HE	1121.676	313.278	-1100.804	 H	10	HIS10	0.334	
150	   N	1116.784	317.418	-1104.834	N.am	11	VAL11	-0.416	
151	  CA	1116.428	317.962	-1106.142	C.3	11	VAL11	-0.087	
152	   C	1116.892	319.393	-1106.277	C.2	11	VAL11	0.597	
153	   O	1117.493	319.796	-1107.281	O.2	11	VAL11	-0.568	
154	  CB	1114.867	317.855	-1106.360	C.3	11	VAL11	0.299	
155	 CG1	1114.298	318.557	-1107.624	C.3	11	VAL11	-0.319	
156	 CG2	1114.343	316.400	-1106.431	C.3	11	VAL11	-0.319	
157	   H	1116.072	317.046	-1104.223	 H	11	VAL11	0.272	
158	  HA	1116.948	317.379	-1106.923	 H	11	VAL11	0.097	
159	  HB	1114.380	318.336	-1105.485	 H	11	VAL11	-0.030	
160	1HG1	1114.736	318.163	-1108.560	 H	11	VAL11	0.079	
161	2HG1	1113.199	318.449	-1107.705	 H	11	VAL11	0.079	
162	3HG1	1114.476	319.649	-1107.616	 H	11	VAL11	0.079	
163	1HG2	1114.633	315.815	-1105.539	 H	11	VAL11	0.079	
164	2HG2	1113.237	316.363	-1106.473	 H	11	VAL11	0.079	
165	3HG2	1114.724	315.858	-1107.317	 H	11	VAL11	0.079	
166	   N	1116.656	320.220	-1105.316	N.am	12	GLN12	-0.416	
167	  CA	1117.104	321.603	-1105.445	C.3	12	GLN12	-0.003	
168	   C	1118.594	321.670	-1105.684	C.2	12	GLN12	0.597	
169	   O	1119.080	322.377	-1106.563	O.2	12	GLN12	-0.568	
170	  CB	1116.713	322.372	-1104.163	C.3	12	GLN12	-0.004	
171	  CG	1117.074	323.894	-1104.135	C.3	12	GLN12	-0.064	
172	  CD	1116.771	324.709	-1102.871	C.2	12	GLN12	0.695	
173	 NE2	1116.205	324.134	-1101.841	N.pl3	12	GLN12	-0.941	
174	 OE1	1117.073	325.891	-1102.796	O.2	12	GLN12	-0.609	
175	   H	1116.167	319.915	-1104.486	 H	12	GLN12	0.272	
176	  HA	1116.604	322.057	-1106.321	 H	12	GLN12	0.085	
177	 2HB	1117.190	321.873	-1103.293	 H	12	GLN12	0.017	
178	 3HB	1115.623	322.265	-1104.000	 H	12	GLN12	0.017	
179	 2HG	1116.596	324.413	-1104.986	 H	12	GLN12	0.035	
180	 3HG	1118.157	324.036	-1104.301	 H	12	GLN12	0.035	
181	1HE2	1116.098	324.730	-1101.019	 H	12	GLN12	0.425	
182	2HE2	1116.041	323.131	-1101.943	 H	12	GLN12	0.425	
183	   N	1119.379	320.964	-1104.942	N.am	13	ARG13	-0.348	
184	  CA	1120.819	321.030	-1105.173	C.3	13	ARG13	-0.264	
185	   C	1121.155	320.656	-1106.598	C.2	13	ARG13	0.734	
186	   O	1121.923	321.327	-1107.283	O.2	13	ARG13	-0.589	
187	  CB	1121.532	320.093	-1104.158	C.3	13	ARG13	-0.001	
188	  CG	1123.077	320.246	-1104.078	C.3	13	ARG13	0.039	
189	  CD	1123.705	319.260	-1103.078	C.3	13	ARG13	0.049	
190	  NE	1125.182	319.468	-1103.029	N.pl3	13	ARG13	-0.530	
191	  CZ	1126.030	318.777	-1102.273	C.cat	13	ARG13	0.808	
192	 NH1	1125.666	317.814	-1101.474	N.pl3	13	ARG13	-0.863	
193	 NH2	1127.290	319.076	-1102.330	N.pl3	13	ARG13	-0.863	
194	   H	1119.003	320.376	-1104.213	 H	13	ARG13	0.275	
195	  HA	1121.143	322.076	-1105.016	 H	13	ARG13	0.156	
196	 2HB	1121.266	319.042	-1104.396	 H	13	ARG13	0.033	
197	 3HB	1121.108	320.261	-1103.148	 H	13	ARG13	0.033	
198	 2HG	1123.325	321.291	-1103.800	 H	13	ARG13	0.029	
199	 3HG	1123.528	320.088	-1105.079	 H	13	ARG13	0.029	
200	 2HD	1123.461	318.220	-1103.386	 H	13	ARG13	0.069	
201	 3HD	1123.249	319.407	-1102.076	 H	13	ARG13	0.069	
202	  HE	1125.633	320.189	-1103.601	 H	13	ARG13	0.346	
203	1HH1	1124.660	317.628	-1101.476	 H	13	ARG13	0.448	
204	2HH1	1126.379	317.332	-1100.924	 H	13	ARG13	0.448	
205	1HH2	1127.557	319.833	-1102.963	 H	13	ARG13	0.448	
206	2HH2	1127.925	318.536	-1101.741	 H	13	ARG13	0.448	
207	   N	1120.618	319.601	-1107.110	N.am	14	VAL14	-0.416	
208	  CA	1120.943	319.239	-1108.487	C.3	14	VAL14	-0.087	
209	   C	1120.612	320.368	-1109.434	C.2	14	VAL14	0.597	
210	   O	1121.405	320.748	-1110.305	O.2	14	VAL14	-0.568	
211	  CB	1120.170	317.922	-1108.892	C.3	14	VAL14	0.299	
212	 CG1	1120.259	317.501	-1110.385	C.3	14	VAL14	-0.319	
213	 CG2	1120.603	316.671	-1108.089	C.3	14	VAL14	-0.319	
214	   H	1119.984	319.033	-1106.567	 H	14	VAL14	0.272	
215	  HA	1122.031	319.063	-1108.562	 H	14	VAL14	0.097	
216	  HB	1119.094	318.093	-1108.676	 H	14	VAL14	-0.030	
217	1HG1	1121.300	317.324	-1110.714	 H	14	VAL14	0.079	
218	2HG1	1119.686	316.578	-1110.596	 H	14	VAL14	0.079	
219	3HG1	1119.829	318.262	-1111.064	 H	14	VAL14	0.079	
220	1HG2	1120.516	316.831	-1106.999	 H	14	VAL14	0.079	
221	2HG2	1119.967	315.794	-1108.320	 H	14	VAL14	0.079	
222	3HG2	1121.650	316.381	-1108.295	 H	14	VAL14	0.079	
223	   N	1119.467	320.954	-1109.333	N.am	15	MET15	-0.416	
224	  CA	1119.146	322.045	-1110.248	C.3	15	MET15	-0.024	
225	   C	1120.177	323.145	-1110.163	C.2	15	MET15	0.597	
226	   O	1120.679	323.655	-1111.177	O.2	15	MET15	-0.568	
227	  CB	1117.725	322.591	-1109.939	C.3	15	MET15	0.034	
228	  CG	1116.563	321.593	-1110.129	C.3	15	MET15	0.002	
229	  SD	1114.989	322.459	-1110.015	S.3	15	MET15	-0.274	
230	  CE	1113.908	321.029	-1109.876	C.3	15	MET15	-0.054	
231	   H	1118.803	320.662	-1108.631	 H	15	MET15	0.272	
232	  HA	1119.172	321.656	-1111.283	 H	15	MET15	0.088	
233	 2HB	1117.522	323.469	-1110.583	 H	15	MET15	0.024	
234	 3HB	1117.690	322.985	-1108.904	 H	15	MET15	0.024	
235	 2HG	1116.607	320.808	-1109.350	 H	15	MET15	0.044	
236	 3HG	1116.625	321.076	-1111.104	 H	15	MET15	0.044	
237	 1HE	1114.052	320.340	-1110.727	 H	15	MET15	0.068	
238	 2HE	1114.118	320.478	-1108.942	 H	15	MET15	0.068	
239	 3HE	1112.851	321.344	-1109.859	 H	15	MET15	0.068	
240	   N	1120.546	323.568	-1109.001	N.am	16	ARG16	-0.348	
241	  CA	1121.542	324.632	-1108.920	C.3	16	ARG16	-0.264	
242	   C	1122.813	324.239	-1109.636	C.2	16	ARG16	0.734	
243	   O	1122.926	323.161	-1110.216	O.2	16	ARG16	-0.589	
244	  CB	1121.812	324.953	-1107.422	C.3	16	ARG16	-0.001	
245	  CG	1122.637	326.242	-1107.152	C.3	16	ARG16	0.039	
246	  CD	1122.888	326.464	-1105.651	C.3	16	ARG16	0.049	
247	  NE	1123.664	327.723	-1105.453	N.pl3	16	ARG16	-0.530	
248	  CZ	1124.056	328.207	-1104.278	C.cat	16	ARG16	0.808	
249	 NH1	1123.809	327.625	-1103.138	N.pl3	16	ARG16	-0.863	
250	 NH2	1124.720	329.320	-1104.261	N.pl3	16	ARG16	-0.863	
251	   H	1120.152	323.169	-1108.161	 H	16	ARG16	0.275	
252	  HA	1121.133	325.524	-1109.431	 H	16	ARG16	0.156	
253	 2HB	1122.310	324.077	-1106.955	 H	16	ARG16	0.033	
254	 3HB	1120.844	325.034	-1106.888	 H	16	ARG16	0.033	
255	 2HG	1122.107	327.112	-1107.590	 H	16	ARG16	0.029	
256	 3HG	1123.611	326.188	-1107.681	 H	16	ARG16	0.029	
257	 2HD	1123.437	325.590	-1105.237	 H	16	ARG16	0.069	
258	 3HD	1121.915	326.507	-1105.115	 H	16	ARG16	0.069	
259	  HE	1123.942	328.303	-1106.251	 H	16	ARG16	0.346	
260	1HH1	1123.283	326.751	-1103.221	 H	16	ARG16	0.448	
261	2HH1	1124.144	328.062	-1102.278	 H	16	ARG16	0.448	
262	1HH2	1124.905	329.762	-1105.164	 H	16	ARG16	0.448	
263	2HH2	1125.010	329.677	-1103.350	 H	16	ARG16	0.448	
@<TRIPOS>BOND
1 1 2 1
2 1 10 1
3 2 3 1
4 2 5 1
5 2 11 1
6 3 4 2
7 3 16 1
8 5 6 1
9 6 7 1
10 7 8 2
11 7 9 1
12 5 12 1
13 5 13 1
14 6 14 1
15 6 15 1
16 16 17 1
17 16 24 1
18 17 18 1
19 17 20 1
20 17 25 1
21 18 19 2
22 18 30 1
23 20 21 1
24 21 22 1
25 21 23 2
26 20 26 1
27 20 27 1
28 22 28 1
29 22 29 1
30 30 31 1
31 30 36 1
32 31 32 1
33 31 34 1
34 31 37 1
35 32 33 2
36 32 44 1
37 34 35 1
38 35 36 1
39 34 38 1
40 34 39 1
41 35 40 1
42 35 41 1
43 36 42 1
44 36 43 1
45 44 45 1
46 44 53 1
47 45 46 1
48 45 48 1
49 45 54 1
50 46 47 2
51 46 59 1
52 48 49 1
53 49 50 1
54 50 51 2
55 50 52 1
56 48 55 1
57 48 56 1
58 49 57 1
59 49 58 1
60 59 60 1
61 59 65 1
62 60 61 1
63 60 63 1
64 60 66 1
65 61 62 2
66 61 70 1
67 63 64 1
68 63 67 1
69 63 68 1
70 64 69 1
71 70 71 1
72 70 78 1
73 71 72 1
74 71 74 1
75 71 79 1
76 72 73 2
77 72 89 1
78 74 75 1
79 74 76 1
80 75 77 1
81 74 80 1
82 75 81 1
83 75 82 1
84 76 83 1
85 76 84 1
86 76 85 1
87 77 86 1
88 77 87 1
89 77 88 1
90 89 90 1
91 89 99 1
92 90 91 1
93 90 93 1
94 90 100 1
95 91 92 2
96 91 106 1
97 93 94 1
98 94 95 2
99 95 98 1
100 94 96 1
101 96 97 2
102 97 98 1
103 93 101 1
104 93 102 1
105 95 103 1
106 97 104 1
107 98 105 1
108 106 107 1
109 106 114 1
110 107 108 1
111 107 110 1
112 107 115 1
113 108 109 2
114 108 118 1
115 110 111 1
116 111 112 2
117 111 113 1
118 110 116 1
119 110 117 1
120 118 119 1
121 118 127 1
122 119 120 1
123 119 122 1
124 119 128 1
125 120 121 2
126 120 133 1
127 122 123 1
128 123 124 1
129 124 125 2
130 124 126 1
131 122 129 1
132 122 130 1
133 123 131 1
134 123 132 1
135 133 134 1
136 133 143 1
137 134 135 1
138 134 137 1
139 134 144 1
140 135 136 2
141 135 150 1
142 137 138 1
143 138 139 2
144 139 142 1
145 138 140 1
146 140 141 2
147 141 142 1
148 137 145 1
149 137 146 1
150 139 147 1
151 141 148 1
152 142 149 1
153 150 151 1
154 150 157 1
155 151 152 1
156 151 154 1
157 151 158 1
158 152 153 2
159 152 166 1
160 154 155 1
161 154 156 1
162 154 159 1
163 155 160 1
164 155 161 1
165 155 162 1
166 156 163 1
167 156 164 1
168 156 165 1
169 166 167 1
170 166 175 1
171 167 168 1
172 167 170 1
173 167 176 1
174 168 169 2
175 168 183 1
176 170 171 1
177 171 172 1
178 172 173 1
179 172 174 2
180 170 177 1
181 170 178 1
182 171 179 1
183 171 180 1
184 173 181 1
185 173 182 1
186 183 184 1
187 183 194 1
188 184 185 1
189 184 187 1
190 184 195 1
191 185 186 2
192 185 207 1
193 187 188 1
194 188 189 1
195 189 190 1
196 190 191 1
197 191 192 2
198 191 193 1
199 187 196 1
200 187 197 1
201 188 198 1
202 188 199 1
203 189 200 1
204 189 201 1
205 190 202 1
206 192 203 1
207 192 204 1
208 193 205 1
209 193 206 1
210 207 208 1
211 207 214 1
212 208 209 1
213 208 211 1
214 208 215 1
215 209 210 2
216 209 223 1
217 211 212 1
218 211 213 1
219 211 216 1
220 212 217 1
221 212 218 1
222 212 219 1
223 213 220 1
224 213 221 1
225 213 222 1
226 223 224 1
227 223 231 1
228 224 225 1
229 224 227 1
230 224 232 1
231 225 226 2
232 225 240 1
233 227 228 1
234 228 229 1
235 229 230 1
236 227 233 1
237 227 234 1
238 228 235 1
239 228 236 1
240 230 237 1
241 230 238 1
242 230 239 1
243 240 241 1
244 240 251 1
245 241 242 1
246 241 244 1
247 241 252 1
248 242 243 2
249 244 245 1
250 245 246 1
251 246 247 1
252 247 248 1
253 248 249 2
254 248 250 1
255 244 253 1
256 244 254 1
257 245 255 1
258 245 256 1
259 246 257 1
260 246 258 1
261 247 259 1
262 249 260 1
263 249 261 1
264 250 262 1
265 250 263 1
@<TRIPOS>SUBSTRUCTURE
1	GLU1	1	RESIDUE	1 ****	GLU
2	ASN2	16	RESIDUE	1 ****	ASN
3	PRO3	30	RESIDUE	1 ****	PRO
4	GLU4	44	RESIDUE	1 ****	GLU
5	SER5	59	RESIDUE	1 ****	SER
6	ILE6	70	RESIDUE	1 ****	ILE
7	HIS7	89	RESIDUE	1 ****	HIS
8	ASP8	106	RESIDUE	1 ****	ASP
9	GLU9	118	RESIDUE	1 ****	GLU
10	HIS10	133	RESIDUE	1 ****	HIS
11	VAL11	150	RESIDUE	1 ****	VAL
12	GLN12	166	RESIDUE	1 ****	GLN
13	ARG13	183	RESIDUE	1 ****	ARG
14	VAL14	207	RESIDUE	1 ****	VAL
15	MET15	223	RESIDUE	1 ****	MET
16	ARG16	240	RESIDUE	1 ****	ARG
