REMARK WARNING: 32 MAX_TORS EXCEEDED!!!
REMARK  68 active torsions:
REMARK  status: ('A' for Active; 'I' for Inactive)
REMARK    1  A    between atoms: N_1  and  CA_2 
REMARK    2  A    between atoms: CA_2  and  C_3 
REMARK    3  A    between atoms: CA_2  and  CB_5 
REMARK       I    between atoms: C_3  and  N_11 
REMARK    4  A    between atoms: CB_5  and  CG_6 
REMARK    5  A    between atoms: CG_6  and  CD_7 
REMARK    6  A    between atoms: N_11  and  CA_12 
REMARK    7  A    between atoms: CA_12  and  C_13 
REMARK    8  A    between atoms: CA_12  and  CB_15 
REMARK       I    between atoms: C_13  and  N_22 
REMARK    9  A    between atoms: CB_15  and  CG_16 
REMARK       I    between atoms: CG_16  and  ND2_17 
REMARK   10  A    between atoms: CA_23  and  C_24 
REMARK       I    between atoms: C_24  and  N_29 
REMARK   11  A    between atoms: N_29  and  CA_30 
REMARK   12  A    between atoms: CA_30  and  C_31 
REMARK   13  A    between atoms: CA_30  and  CB_33 
REMARK       I    between atoms: C_31  and  N_39 
REMARK   14  A    between atoms: CB_33  and  CG_34 
REMARK   15  A    between atoms: CG_34  and  CD_35 
REMARK   16  A    between atoms: N_39  and  CA_40 
REMARK   17  A    between atoms: CA_40  and  C_41 
REMARK   18  A    between atoms: CA_40  and  CB_43 
REMARK       I    between atoms: C_41  and  N_47 
REMARK   19  A    between atoms: CB_43  and  OG_44 
REMARK   20  A    between atoms: N_47  and  CA_48 
REMARK   21  A    between atoms: CA_48  and  C_49 
REMARK   22  A    between atoms: CA_48  and  CB_51 
REMARK       I    between atoms: C_49  and  N_56 
REMARK   23  A    between atoms: CB_51  and  CG1_52 
REMARK   24  A    between atoms: N_56  and  CA_57 
REMARK   25  A    between atoms: CA_57  and  C_58 
REMARK   26  A    between atoms: CA_57  and  CB_60 
REMARK       I    between atoms: C_58  and  N_65 
REMARK   27  A    between atoms: CB_60  and  CG_61 
REMARK   28  A    between atoms: N_65  and  CA_66 
REMARK   29  A    between atoms: CA_66  and  C_67 
REMARK   30  A    between atoms: CA_66  and  CB_69 
REMARK       I    between atoms: C_67  and  N_74 
REMARK   31  A    between atoms: CB_69  and  CG_70 
REMARK   32  A    between atoms: N_74  and  CA_75 
REMARK   33  A    between atoms: CA_75  and  C_76 
REMARK   34  A    between atoms: CA_75  and  CB_78 
REMARK       I    between atoms: C_76  and  N_84 
REMARK   35  A    between atoms: CB_78  and  CG_79 
REMARK   36  A    between atoms: CG_79  and  CD_80 
REMARK   37  A    between atoms: N_84  and  CA_85 
REMARK   38  A    between atoms: CA_85  and  C_86 
REMARK   39  A    between atoms: CA_85  and  CB_88 
REMARK       I    between atoms: C_86  and  N_96 
REMARK   40  A    between atoms: CB_88  and  CG_89 
REMARK   41  A    between atoms: N_96  and  CA_97 
REMARK   42  A    between atoms: CA_97  and  C_98 
REMARK   43  A    between atoms: CA_97  and  CB_100 
REMARK       I    between atoms: C_98  and  N_104 
REMARK   44  A    between atoms: N_104  and  CA_105 
REMARK   45  A    between atoms: CA_105  and  C_106 
REMARK   46  A    between atoms: CA_105  and  CB_108 
REMARK       I    between atoms: C_106  and  N_116 
REMARK   47  A    between atoms: CB_108  and  CG_109 
REMARK   48  A    between atoms: CG_109  and  CD_110 
REMARK       I    between atoms: CD_110  and  NE2_111 
REMARK   49  A    between atoms: N_116  and  CA_117 
REMARK   50  A    between atoms: CA_117  and  C_118 
REMARK   51  A    between atoms: CA_117  and  CB_120 
REMARK       I    between atoms: C_118  and  N_133 
REMARK   52  A    between atoms: CB_120  and  CG_121 
REMARK   53  A    between atoms: CG_121  and  CD_122 
REMARK   54  A    between atoms: CD_122  and  NE_123 
REMARK       I    between atoms: NE_123  and  CZ_124 
REMARK       I    between atoms: CZ_124  and  NH1_125 
REMARK       I    between atoms: CZ_124  and  NH2_126 
REMARK   55  A    between atoms: N_133  and  CA_134 
REMARK   56  A    between atoms: CA_134  and  C_135 
REMARK   57  A    between atoms: CA_134  and  CB_137 
REMARK       I    between atoms: C_135  and  N_141 
REMARK   58  A    between atoms: N_141  and  CA_142 
REMARK   59  A    between atoms: CA_142  and  C_143 
REMARK   60  A    between atoms: CA_142  and  CB_145 
REMARK       I    between atoms: C_143  and  N_155 
REMARK   61  A    between atoms: CB_145  and  CG_146 
REMARK   62  A    between atoms: CZ_151  and  OH_152 
REMARK   63  A    between atoms: N_155  and  CA_156 
REMARK   64  A    between atoms: CA_156  and  C_157 
REMARK   65  A    between atoms: CA_156  and  CB_159 
REMARK   66  A    between atoms: CB_159  and  CG_160 
REMARK   67  A    between atoms: CG_160  and  CD_161 
REMARK   68  A    between atoms: CD_161  and  NE_162 
REMARK       I    between atoms: NE_162  and  CZ_163 
REMARK       I    between atoms: CZ_163  and  NH1_164 
ROOT
ATOM      1  CA  HIS d  10    2410.338 739.216-2507.033  0.00  0.00     0.182 C 
ENDROOT
BRANCH   1   2
ATOM      2  N   HIS d  10    2409.450 739.728-2505.993  0.00  0.00    -0.346 N 
ATOM      3  C   GLU d   9    2409.354 741.003-2505.824  0.00  0.00     0.241 C 
ATOM      4  O   GLU d   9    2410.018 741.757-2506.550  0.00  0.00    -0.271 OA
ATOM      5  H   HIS d  10    2408.920 739.093-2505.414  0.00  0.00     0.163 HD
BRANCH   3   6
ATOM      6  CA  GLU d   9    2408.437 741.532-2504.748  0.00  0.00     0.177 C 
BRANCH   6   7
ATOM      7  N   GLU d   9    2407.134 740.875-2504.803  0.00  0.00    -0.346 N 
ATOM      8  C   ASP d   8    2406.454 740.924-2505.898  0.00  0.00     0.241 C 
ATOM      9  O   ASP d   8    2406.927 741.529-2506.873  0.00  0.00    -0.271 OA
ATOM     10  H   GLU d   9    2406.770 740.389-2503.995  0.00  0.00     0.163 HD
BRANCH   8  11
ATOM     11  CA  ASP d   8    2405.107 740.245-2505.955  0.00  0.00     0.186 C 
BRANCH  11  12
ATOM     12  N   ASP d   8    2405.177 738.896-2505.401  0.00  0.00    -0.346 N 
ATOM     13  C   LEU d   7    2406.013 738.055-2505.906  0.00  0.00     0.241 C 
ATOM     14  O   LEU d   7    2406.734 738.417-2506.849  0.00  0.00    -0.271 OA
ATOM     15  H   ASP d   8    2404.579 738.626-2504.633  0.00  0.00     0.163 HD
BRANCH  13  16
ATOM     16  CA  LEU d   7    2406.085 736.659-2505.333  0.00  0.00     0.177 C 
BRANCH  16  17
ATOM     17  N   LEU d   7    2406.140 736.696-2503.875  0.00  0.00    -0.346 N 
ATOM     18  C   ILE d   6    2407.086 737.359-2503.302  0.00  0.00     0.241 C 
ATOM     19  O   ILE d   6    2407.921 737.946-2504.005  0.00  0.00    -0.271 OA
ATOM     20  H   LEU d   7    2405.448 736.209-2503.324  0.00  0.00     0.163 HD
BRANCH  18  21
ATOM     21  CA  ILE d   6    2407.144 737.396-2501.794  0.00  0.00     0.180 C 
BRANCH  21  22
ATOM     22  N   ILE d   6    2405.830 737.692-2501.228  0.00  0.00    -0.346 N 
ATOM     23  C   SER d   5    2405.226 738.775-2501.582  0.00  0.00     0.243 C 
ATOM     24  O   SER d   5    2405.774 739.529-2502.387  0.00  0.00    -0.271 OA
ATOM     25  H   ILE d   6    2405.401 737.058-2500.569  0.00  0.00     0.163 HD
BRANCH  23  26
ATOM     26  CA  SER d   5    2403.867 739.081-2500.997  0.00  0.00     0.200 C 
BRANCH  26  27
ATOM     27  N   SER d   5    2402.997 737.910-2501.056  0.00  0.00    -0.344 N 
ATOM     28  C   GLU d   4    2402.770 737.358-2502.199  0.00  0.00     0.241 C 
ATOM     29  O   GLU d   4    2403.297 737.837-2503.213  0.00  0.00    -0.271 OA
ATOM     30  H   SER d   5    2402.580 737.539-2500.214  0.00  0.00     0.163 HD
BRANCH  28  31
ATOM     31  CA  GLU d   4    2401.871 736.147-2502.260  0.00  0.00     0.177 C 
BRANCH  31  32
ATOM     32  N   GLU d   4    2402.230 735.176-2501.231  0.00  0.00    -0.346 N 
ATOM     33  C   PRO d   3    2403.435 734.716-2501.198  0.00  0.00     0.241 C 
ATOM     34  O   PRO d   3    2404.259 735.099-2502.029  0.00  0.00    -0.271 OA
ATOM     35  H   GLU d   4    2401.546 734.869-2500.554  0.00  0.00     0.163 HD
BRANCH  33  36
ATOM     36  CA  PRO d   3    2403.833 733.692-2500.121  0.00  0.00     0.179 C 
ATOM     37  N   PRO d   3    2403.381 734.101-2498.800  0.00  0.00    -0.337 N 
ATOM     38  C   ASN d   2    2403.902 735.096-2498.165  0.00  0.00     0.243 C 
ATOM     39  CD  PRO d   3    2402.302 733.308-2498.251  0.00  0.00     0.127 C 
ATOM     40  O   ASN d   2    2404.817 735.727-2498.693  0.00  0.00    -0.271 OA
ATOM     41  CG  PRO d   3    2401.845 732.490-2499.461  0.00  0.00     0.022 C 
ATOM     42  CB  PRO d   3    2403.128 732.337-2500.291  0.00  0.00     0.037 C 
BRANCH  38  43
ATOM     43  CA  ASN d   2    2403.371 735.452-2496.797  0.00  0.00     0.185 C 
BRANCH  43  44
ATOM     44  N   ASN d   2    2401.911 735.491-2496.797  0.00  0.00    -0.346 N 
ATOM     45  C   GLU d   1    2401.307 736.277-2497.622  0.00  0.00     0.242 C 
ATOM     46  O   GLU d   1    2401.983 736.976-2498.391  0.00  0.00    -0.271 OA
ATOM     47  H   ASN d   2    2401.383 734.911-2496.160  0.00  0.00     0.163 HD
BRANCH  45  48
ATOM     48  CA  GLU d   1    2399.798 736.317-2497.622  0.00  0.00     0.191 C 
BRANCH  48  49
ATOM     49  N   GLU d   1    2399.239 734.968-2497.622  0.00  0.00    -0.326 NA
ATOM     50  H   GLU d   1    2399.866 734.089-2497.622  0.00  0.00     0.180 HD
ENDBRANCH  48  49
BRANCH  48  51
ATOM     51  CB  GLU d   1    2399.275 737.102-2496.385  0.00  0.00     0.047 C 
BRANCH  51  52
ATOM     52  CG  GLU d   1    2399.750 738.587-2496.274  0.00  0.00     0.116 C 
BRANCH  52  53
ATOM     53  CD  GLU d   1    2399.326 739.391-2495.059  0.00  0.00     0.172 C 
ATOM     54  OE1 GLU d   1    2398.598 738.889-2494.181  0.00  0.00    -0.648 OA
ATOM     55  OE2 GLU d   1    2399.756 740.561-2494.987  0.00  0.00    -0.648 OA
ENDBRANCH  52  53
ENDBRANCH  51  52
ENDBRANCH  48  51
ENDBRANCH  45  48
ENDBRANCH  43  44
BRANCH  43  56
ATOM     56  CB  ASN d   2    2403.862 734.429-2495.732  0.00  0.00     0.137 C 
BRANCH  56  57
ATOM     57  CG  ASN d   2    2403.399 734.653-2494.289  0.00  0.00     0.217 C 
ATOM     58  ND2 ASN d   2    2403.993 735.567-2493.571  0.00  0.00    -0.370 N 
ATOM     59 21HD ASN d   2    2403.512 735.741-2492.684  0.00  0.00     0.159 HD
ATOM     60 22HD ASN d   2    2404.695 736.139-2494.040  0.00  0.00     0.159 HD
ATOM     61  OD1 ASN d   2    2402.478 734.019-2493.795  0.00  0.00    -0.274 OA
ENDBRANCH  56  57
ENDBRANCH  43  56
ENDBRANCH  38  43
ENDBRANCH  33  36
ENDBRANCH  31  32
BRANCH  31  62
ATOM     62  CB  GLU d   4    2400.383 736.566-2502.091  0.00  0.00     0.045 C 
BRANCH  62  63
ATOM     63  CG  GLU d   4    2399.835 737.570-2503.156  0.00  0.00     0.116 C 
BRANCH  63  64
ATOM     64  CD  GLU d   4    2398.409 738.067-2503.013  0.00  0.00     0.172 C 
ATOM     65  OE1 GLU d   4    2397.682 737.669-2502.083  0.00  0.00    -0.648 OA
ATOM     66  OE2 GLU d   4    2398.020 738.896-2503.862  0.00  0.00    -0.648 OA
ENDBRANCH  63  64
ENDBRANCH  62  63
ENDBRANCH  31  62
ENDBRANCH  28  31
ENDBRANCH  26  27
BRANCH  26  67
ATOM     67  CB  SER d   5    2403.979 739.613-2499.546  0.00  0.00     0.199 C 
BRANCH  67  68
ATOM     68  OG  SER d   5    2404.709 738.734-2498.685  0.00  0.00    -0.398 OA
ATOM     69  HG  SER d   5    2404.220 737.909-2498.635  0.00  0.00     0.209 HD
ENDBRANCH  67  68
ENDBRANCH  26  67
ENDBRANCH  23  26
ENDBRANCH  21  22
BRANCH  21  70
ATOM     70  CB  ILE d   6    2407.743 736.060-2501.193  0.00  0.00     0.013 C 
ATOM     71  CG2 ILE d   6    2409.184 735.758-2501.708  0.00  0.00     0.012 C 
BRANCH  70  72
ATOM     72  CG1 ILE d   6    2407.761 735.998-2499.633  0.00  0.00     0.002 C 
ATOM     73  CD1 ILE d   6    2408.031 734.609-2499.017  0.00  0.00     0.005 C 
ENDBRANCH  70  72
ENDBRANCH  21  70
ENDBRANCH  18  21
ENDBRANCH  16  17
BRANCH  16  74
ATOM     74  CB  LEU d   7    2404.882 735.800-2505.814  0.00  0.00     0.038 C 
BRANCH  74  75
ATOM     75  CG  LEU d   7    2404.809 734.320-2505.347  0.00  0.00    -0.020 C 
ATOM     76  CD1 LEU d   7    2403.619 733.615-2506.013  0.00  0.00     0.009 C 
ATOM     77  CD2 LEU d   7    2406.102 733.541-2505.639  0.00  0.00     0.009 C 
ENDBRANCH  74  75
ENDBRANCH  16  74
ENDBRANCH  13  16
ENDBRANCH  11  12
BRANCH  11  78
ATOM     78  CB  ASP d   8    2404.029 741.085-2505.214  0.00  0.00     0.147 C 
BRANCH  78  79
ATOM     79  CG  ASP d   8    2403.811 742.506-2505.755  0.00  0.00     0.175 C 
ATOM     80  OD1 ASP d   8    2403.875 742.704-2506.986  0.00  0.00    -0.648 OA
ATOM     81  OD2 ASP d   8    2403.620 743.432-2504.940  0.00  0.00    -0.648 OA
ENDBRANCH  78  79
ENDBRANCH  11  78
ENDBRANCH   8  11
ENDBRANCH   6   7
BRANCH   6  82
ATOM     82  CB  GLU d   9    2409.071 741.324-2503.343  0.00  0.00     0.045 C 
BRANCH  82  83
ATOM     83  CG  GLU d   9    2410.454 742.016-2503.114  0.00  0.00     0.116 C 
BRANCH  83  84
ATOM     84  CD  GLU d   9    2411.156 741.803-2501.786  0.00  0.00     0.172 C 
ATOM     85  OE1 GLU d   9    2410.634 741.113-2500.889  0.00  0.00    -0.648 OA
ATOM     86  OE2 GLU d   9    2412.275 742.341-2501.655  0.00  0.00    -0.648 OA
ENDBRANCH  83  84
ENDBRANCH  82  83
ENDBRANCH   6  82
ENDBRANCH   3   6
ENDBRANCH   1   2
BRANCH   1  87
ATOM     87  C   HIS d  10    2409.971 739.780-2508.385  0.00  0.00     0.241 C 
ATOM     88  O   HIS d  10    2410.823 740.244-2509.157  0.00  0.00    -0.271 OA
ATOM     89  N   VAL d  11    2408.733 739.779-2508.747  0.00  0.00    -0.346 N 
ATOM     90  H   VAL d  11    2408.020 739.407-2508.136  0.00  0.00     0.163 HD
BRANCH  89  91
ATOM     91  CA  VAL d  11    2408.378 740.325-2510.054  0.00  0.00     0.180 C 
BRANCH  91  92
ATOM     92  C   VAL d  11    2408.843 741.755-2510.188  0.00  0.00     0.241 C 
ATOM     93  O   VAL d  11    2409.444 742.159-2511.191  0.00  0.00    -0.271 OA
ATOM     94  N   GLN d  12    2408.607 742.581-2509.226  0.00  0.00    -0.346 N 
ATOM     95  H   GLN d  12    2408.118 742.276-2508.396  0.00  0.00     0.163 HD
BRANCH  94  96
ATOM     96  CA  GLN d  12    2409.056 743.964-2509.354  0.00  0.00     0.177 C 
BRANCH  96  97
ATOM     97  C   GLN d  12    2410.546 744.030-2509.592  0.00  0.00     0.241 C 
ATOM     98  O   GLN d  12    2411.033 744.738-2510.471  0.00  0.00    -0.271 OA
ATOM     99  N   ARG d  13    2411.330 743.324-2508.851  0.00  0.00    -0.346 N 
ATOM    100  H   ARG d  13    2410.954 742.734-2508.122  0.00  0.00     0.163 HD
BRANCH  99 101
ATOM    101  CA  ARG d  13    2412.771 743.389-2509.082  0.00  0.00     0.176 C 
BRANCH 101 102
ATOM    102  C   ARG d  13    2413.106 743.016-2510.507  0.00  0.00     0.241 C 
ATOM    103  O   ARG d  13    2413.875 743.688-2511.191  0.00  0.00    -0.271 OA
ATOM    104  N   VAL d  14    2412.570 741.962-2511.020  0.00  0.00    -0.346 N 
ATOM    105  H   VAL d  14    2411.935 741.393-2510.478  0.00  0.00     0.163 HD
BRANCH 104 106
ATOM    106  CA  VAL d  14    2412.894 741.601-2512.398  0.00  0.00     0.180 C 
BRANCH 106 107
ATOM    107  C   VAL d  14    2412.564 742.731-2513.344  0.00  0.00     0.241 C 
ATOM    108  O   VAL d  14    2413.357 743.112-2514.214  0.00  0.00    -0.271 OA
ATOM    109  N   TYR d  15    2411.420 743.317-2513.242  0.00  0.00    -0.346 N 
ATOM    110  H   TYR d  15    2410.755 743.025-2512.540  0.00  0.00     0.163 HD
BRANCH 109 111
ATOM    111  CA  TYR d  15    2411.100 744.410-2514.156  0.00  0.00     0.180 C 
BRANCH 111 112
ATOM    112  C   TYR d  15    2412.131 745.508-2514.068  0.00  0.00     0.241 C 
ATOM    113  O   TYR d  15    2412.633 746.017-2515.074  0.00  0.00    -0.271 OA
ATOM    114  N   ARG d  16    2412.499 745.929-2512.905  0.00  0.00    -0.347 N 
ATOM    115  H   ARG d  16    2412.104 745.529-2512.066  0.00  0.00     0.163 HD
BRANCH 114 116
ATOM    116  CA  ARG d  16    2413.497 746.992-2512.820  0.00  0.00     0.162 C 
BRANCH 116 117
ATOM    117  C   ARG d  16    2414.768 746.598-2513.535  0.00  0.00     0.219 C 
ATOM    118  O   ARG d  16    2414.881 745.522-2514.117  0.00  0.00    -0.287 OA
ENDBRANCH 116 117
BRANCH 116 119
ATOM    119  CB  ARG d  16    2413.765 747.309-2511.322  0.00  0.00     0.035 C 
BRANCH 119 120
ATOM    120  CG  ARG d  16    2414.591 748.597-2511.048  0.00  0.00     0.023 C 
BRANCH 120 121
ATOM    121  CD  ARG d  16    2414.839 748.816-2509.546  0.00  0.00     0.138 C 
BRANCH 121 122
ATOM    122  NE  ARG d  16    2415.616 750.074-2509.344  0.00  0.00    -0.227 N 
ATOM    123  CZ  ARG d  16    2416.007 750.555-2508.168  0.00  0.00     0.665 C 
ATOM    124  NH1 ARG d  16    2415.758 749.971-2507.030  0.00  0.00    -0.235 N 
ATOM    125  NH2 ARG d  16    2416.672 751.667-2508.148  0.00  0.00    -0.235 N 
ATOM    126 11HH ARG d  16    2415.231 749.099-2507.115  0.00  0.00     0.174 HD
ATOM    127 12HH ARG d  16    2416.092 750.406-2506.168  0.00  0.00     0.174 HD
ATOM    128 21HH ARG d  16    2416.859 752.111-2509.050  0.00  0.00     0.174 HD
ATOM    129 22HH ARG d  16    2416.962 752.022-2507.236  0.00  0.00     0.174 HD
ATOM    130  HE  ARG d  16    2415.896 750.655-2510.141  0.00  0.00     0.177 HD
ENDBRANCH 121 122
ENDBRANCH 120 121
ENDBRANCH 119 120
ENDBRANCH 116 119
ENDBRANCH 114 116
ENDBRANCH 111 112
BRANCH 111 131
ATOM    131  CB  TYR d  15    2409.711 745.027-2513.819  0.00  0.00     0.073 C 
BRANCH 131 132
ATOM    132  CG  TYR d  15    2408.498 744.096-2513.932  0.00  0.00    -0.056 A 
ATOM    133  CD1 TYR d  15    2407.948 743.790-2515.182  0.00  0.00     0.010 A 
ATOM    134  CE1 TYR d  15    2406.857 742.931-2515.272  0.00  0.00     0.037 A 
ATOM    135  CZ  TYR d  15    2406.307 742.378-2514.119  0.00  0.00     0.065 A 
ATOM    136  CE2 TYR d  15    2406.848 742.681-2512.871  0.00  0.00     0.037 A 
ATOM    137  CD2 TYR d  15    2407.940 743.538-2512.778  0.00  0.00     0.010 A 
BRANCH 135 138
ATOM    138  OH  TYR d  15    2405.237 741.534-2514.213  0.00  0.00    -0.361 OA
ATOM    139  HH  TYR d  15    2404.996 741.249-2513.329  0.00  0.00     0.217 HD
ENDBRANCH 135 138
ENDBRANCH 131 132
ENDBRANCH 111 131
ENDBRANCH 109 111
ENDBRANCH 106 107
BRANCH 106 140
ATOM    140  CB  VAL d  14    2412.121 740.284-2512.804  0.00  0.00     0.009 C 
ATOM    141  CG1 VAL d  14    2412.210 739.865-2514.297  0.00  0.00     0.012 C 
ATOM    142  CG2 VAL d  14    2412.553 739.032-2512.003  0.00  0.00     0.012 C 
ENDBRANCH 106 140
ENDBRANCH 104 106
ENDBRANCH 101 102
BRANCH 101 143
ATOM    143  CB  ARG d  13    2413.484 742.450-2508.067  0.00  0.00     0.036 C 
BRANCH 143 144
ATOM    144  CG  ARG d  13    2415.029 742.603-2507.987  0.00  0.00     0.023 C 
BRANCH 144 145
ATOM    145  CD  ARG d  13    2415.656 741.616-2506.989  0.00  0.00     0.138 C 
BRANCH 145 146
ATOM    146  NE  ARG d  13    2417.133 741.823-2506.939  0.00  0.00    -0.227 N 
ATOM    147  CZ  ARG d  13    2417.981 741.132-2506.183  0.00  0.00     0.665 C 
ATOM    148  NH1 ARG d  13    2417.616 740.168-2505.385  0.00  0.00    -0.235 N 
ATOM    149  NH2 ARG d  13    2419.241 741.430-2506.241  0.00  0.00    -0.235 N 
ATOM    150 11HH ARG d  13    2416.611 739.982-2505.388  0.00  0.00     0.174 HD
ATOM    151 12HH ARG d  13    2418.329 739.685-2504.836  0.00  0.00     0.174 HD
ATOM    152 21HH ARG d  13    2419.509 742.188-2506.873  0.00  0.00     0.174 HD
ATOM    153 22HH ARG d  13    2419.876 740.889-2505.652  0.00  0.00     0.174 HD
ATOM    154  HE  ARG d  13    2417.584 742.544-2507.510  0.00  0.00     0.177 HD
ENDBRANCH 145 146
ENDBRANCH 144 145
ENDBRANCH 143 144
ENDBRANCH 101 143
ENDBRANCH  99 101
ENDBRANCH  96  97
BRANCH  96 155
ATOM    155  CB  GLN d  12    2408.666 744.732-2508.071  0.00  0.00     0.044 C 
BRANCH 155 156
ATOM    156  CG  GLN d  12    2409.027 746.254-2508.041  0.00  0.00     0.105 C 
BRANCH 156 157
ATOM    157  CD  GLN d  12    2408.725 747.068-2506.777  0.00  0.00     0.215 C 
ATOM    158  NE2 GLN d  12    2408.158 746.493-2505.747  0.00  0.00    -0.370 N 
ATOM    159 21HE GLN d  12    2408.052 747.088-2504.924  0.00  0.00     0.159 HD
ATOM    160 22HE GLN d  12    2407.994 745.489-2505.850  0.00  0.00     0.159 HD
ATOM    161  OE1 GLN d  12    2409.028 748.249-2506.700  0.00  0.00    -0.274 OA
ENDBRANCH 156 157
ENDBRANCH 155 156
ENDBRANCH  96 155
ENDBRANCH  94  96
ENDBRANCH  91  92
BRANCH  91 162
ATOM    162  CB  VAL d  11    2406.816 740.219-2510.273  0.00  0.00     0.009 C 
ATOM    163  CG1 VAL d  11    2406.248 740.922-2511.536  0.00  0.00     0.012 C 
ATOM    164  CG2 VAL d  11    2406.291 738.765-2510.345  0.00  0.00     0.012 C 
ENDBRANCH  91 162
ENDBRANCH  89  91
ENDBRANCH   1  87
BRANCH   1 165
ATOM    165  CB  HIS d  10    2410.173 737.687-2507.028  0.00  0.00     0.095 C 
BRANCH 165 166
ATOM    166  CG  HIS d  10    2411.458 736.976-2506.719  0.00  0.00     0.053 A 
ATOM    167  CD2 HIS d  10    2411.840 736.641-2505.427  0.00  0.00     0.116 A 
ATOM    168  NE2 HIS d  10    2413.054 736.009-2505.494  0.00  0.00    -0.359 N 
ATOM    169  CE1 HIS d  10    2413.316 736.011-2506.829  0.00  0.00     0.207 A 
ATOM    170  2HE HIS d  10    2413.621 735.632-2504.720  0.00  0.00     0.166 HD
ATOM    171  ND1 HIS d  10    2412.410 736.569-2507.652  0.00  0.00    -0.247 NA
ENDBRANCH 165 166
ENDBRANCH   1 165
TORSDOF 68
