@<TRIPOS>MOLECULE
6-5
263 264 16              
SMALL
USER_CHARGES
@<TRIPOS>ATOM
1	   N	893.321	241.651	-861.646	N.3	1	GLU1	-0.516	
2	  CA	893.880	243.000	-861.646	C.3	1	GLU1	0.040	
3	   C	895.389	242.960	-861.646	C.2	1	GLU1	0.537	
4	   O	896.065	243.659	-862.414	O.2	1	GLU1	-0.582	
5	  CB	893.357	243.785	-860.409	C.3	1	GLU1	0.056	
6	  CG	893.832	245.270	-860.298	C.3	1	GLU1	0.014	
7	  CD	893.408	246.074	-859.083	C.2	1	GLU1	0.805	
8	 OE1	892.680	245.572	-858.205	O.co2	1	GLU1	-0.819	
9	 OE2	893.838	247.244	-859.011	O.co2	1	GLU1	-0.819	
10	   H	893.948	240.772	-861.646	 H	1	GLU1	0.294	
11	  HA	893.554	243.518	-862.566	 H	1	GLU1	0.111	
12	 2HB	893.646	243.254	-859.479	 H	1	GLU1	-0.017	
13	 3HB	892.250	243.775	-860.396	 H	1	GLU1	-0.017	
14	 2HG	893.522	245.855	-861.179	 H	1	GLU1	-0.043	
15	 3HG	894.932	245.337	-860.269	 H	1	GLU1	-0.043	
16	   N	895.994	242.174	-860.821	N.am	2	ASN2	-0.416	
17	  CA	897.453	242.135	-860.821	C.3	2	ASN2	0.014	
18	   C	897.984	241.780	-862.189	C.2	2	ASN2	0.597	
19	   O	898.899	242.411	-862.718	O.2	2	ASN2	-0.568	
20	  CB	897.945	241.112	-859.756	C.3	2	ASN2	-0.204	
21	  CG	897.482	241.336	-858.313	C.2	2	ASN2	0.713	
22	 ND2	898.077	242.251	-857.595	N.pl3	2	ASN2	-0.919	
23	 OD1	896.562	240.702	-857.819	O.2	2	ASN2	-0.593	
24	   H	895.466	241.594	-860.184	 H	2	ASN2	0.272	
25	  HA	897.831	243.145	-860.575	 H	2	ASN2	0.105	
26	 2HB	899.050	241.053	-859.760	 H	2	ASN2	0.080	
27	 3HB	897.616	240.094	-860.042	 H	2	ASN2	0.080	
28	1HD2	897.596	242.424	-856.708	 H	2	ASN2	0.420	
29	2HD2	898.778	242.823	-858.064	 H	2	ASN2	0.420	
30	   N	897.463	240.785	-862.823	N.am	3	PRO3	-0.255	
31	  CA	897.915	240.376	-864.145	C.3	3	PRO3	-0.027	
32	   C	897.517	241.399	-865.222	C.2	3	PRO3	0.590	
33	   O	898.340	241.782	-866.053	O.2	3	PRO3	-0.575	
34	  CB	897.211	239.021	-864.314	C.3	3	PRO3	-0.007	
35	  CG	895.928	239.173	-863.484	C.3	3	PRO3	0.019	
36	  CD	896.385	239.992	-862.274	C.3	3	PRO3	0.019	
37	  HA	899.001	240.256	-864.159	 H	3	PRO3	0.064	
38	 2HB	897.834	238.240	-863.874	 H	3	PRO3	0.025	
39	 3HB	897.013	238.772	-865.360	 H	3	PRO3	0.025	
40	 2HG	895.500	238.211	-863.193	 H	3	PRO3	0.021	
41	 3HG	895.190	239.744	-864.052	 H	3	PRO3	0.021	
42	 2HD	896.775	239.342	-861.487	 H	3	PRO3	0.039	
43	 3HD	895.589	240.627	-861.881	 H	3	PRO3	0.039	
44	   N	896.312	241.859	-865.254	N.am	4	GLU4	-0.516	
45	  CA	895.952	242.830	-866.284	C.3	4	GLU4	0.040	
46	   C	896.851	244.041	-866.223	C.2	4	GLU4	0.537	
47	   O	897.377	244.521	-867.237	O.2	4	GLU4	-0.582	
48	  CB	894.464	243.248	-866.114	C.3	4	GLU4	0.056	
49	  CG	893.915	244.252	-867.179	C.3	4	GLU4	0.014	
50	  CD	892.489	244.748	-867.036	C.2	4	GLU4	0.805	
51	 OE1	891.763	244.350	-866.105	O.co2	4	GLU4	-0.819	
52	 OE2	892.099	245.577	-867.884	O.co2	4	GLU4	-0.819	
53	   H	895.628	241.552	-864.578	 H	4	GLU4	0.294	
54	  HA	896.083	242.359	-867.275	 H	4	GLU4	0.111	
55	 2HB	894.311	243.688	-865.107	 H	4	GLU4	-0.017	
56	 3HB	893.816	242.350	-866.120	 H	4	GLU4	-0.017	
57	 2HG	893.997	243.837	-868.197	 H	4	GLU4	-0.043	
58	 3HG	894.503	245.184	-867.190	 H	4	GLU4	-0.043	
59	   N	897.078	244.594	-865.080	N.am	5	SER5	-0.416	
60	  CA	897.948	245.766	-865.021	C.3	5	SER5	-0.025	
61	   C	899.306	245.460	-865.607	C.2	5	SER5	0.597	
62	   O	899.854	246.214	-866.411	O.2	5	SER5	-0.568	
63	  CB	898.059	246.298	-863.571	C.3	5	SER5	0.212	
64	  OG	898.791	245.419	-862.710	O.3	5	SER5	-0.655	
65	   H	896.661	244.222	-864.238	 H	5	SER5	0.272	
66	  HA	897.498	246.556	-865.650	 H	5	SER5	0.084	
67	 2HB	897.059	246.492	-863.137	 H	5	SER5	0.035	
68	 3HB	898.564	247.284	-863.573	 H	5	SER5	0.035	
69	  HG	898.302	244.594	-862.659	 H	5	SER5	0.428	
70	   N	899.911	244.377	-865.252	N.am	6	MET6	-0.416	
71	  CA	901.225	244.082	-865.818	C.3	6	MET6	-0.024	
72	   C	901.169	244.043	-867.326	C.2	6	MET6	0.597	
73	   O	902.006	244.631	-868.029	O.2	6	MET6	-0.568	
74	  CB	901.753	242.737	-865.248	C.3	6	MET6	0.034	
75	  CG	901.988	242.696	-863.723	C.3	6	MET6	0.002	
76	  SD	902.864	241.188	-863.279	S.3	6	MET6	-0.274	
77	  CE	902.625	241.254	-861.499	C.3	6	MET6	-0.054	
78	   H	899.483	243.743	-864.593	 H	6	MET6	0.272	
79	  HA	901.920	244.896	-865.539	 H	6	MET6	0.088	
80	 2HB	902.710	242.481	-865.742	 H	6	MET6	0.024	
81	 3HB	901.064	241.914	-865.524	 H	6	MET6	0.024	
82	 2HG	901.019	242.727	-863.189	 H	6	MET6	0.044	
83	 3HG	902.569	243.571	-863.377	 H	6	MET6	0.044	
84	 1HE	903.003	242.206	-861.084	 H	6	MET6	0.068	
85	 2HE	901.552	241.169	-861.251	 H	6	MET6	0.068	
86	 3HE	903.160	240.424	-861.006	 H	6	MET6	0.068	
87	   N	900.224	243.380	-867.901	N.am	7	LEU7	-0.416	
88	  CA	900.171	243.343	-869.360	C.3	7	LEU7	-0.052	
89	   C	900.100	244.738	-869.932	C.2	7	LEU7	0.597	
90	   O	900.822	245.101	-870.873	O.2	7	LEU7	-0.568	
91	  CB	898.969	242.483	-869.841	C.3	7	LEU7	-0.110	
92	  CG	898.894	241.004	-869.375	C.3	7	LEU7	0.353	
93	 CD1	897.706	240.298	-870.042	C.3	7	LEU7	-0.412	
94	 CD2	900.188	240.225	-869.664	C.3	7	LEU7	-0.412	
95	   H	899.531	242.893	-867.350	 H	7	LEU7	0.272	
96	  HA	901.113	242.903	-869.732	 H	7	LEU7	0.092	
97	 2HB	898.947	242.499	-870.949	 H	7	LEU7	0.046	
98	 3HB	898.028	242.987	-869.539	 H	7	LEU7	0.046	
99	  HG	898.723	240.997	-868.278	 H	7	LEU7	-0.036	
100	1HD1	896.748	240.808	-869.821	 H	7	LEU7	0.100	
101	2HD1	897.806	240.258	-871.143	 H	7	LEU7	0.100	
102	3HD1	897.598	239.258	-869.685	 H	7	LEU7	0.100	
103	1HD2	900.465	240.254	-870.733	 H	7	LEU7	0.100	
104	2HD2	901.041	240.636	-869.092	 H	7	LEU7	0.100	
105	3HD2	900.106	239.162	-869.368	 H	7	LEU7	0.100	
106	   N	899.262	245.580	-869.428	N.am	8	ASP8	-0.516	
107	  CA	899.193	246.929	-869.981	C.3	8	ASP8	0.038	
108	   C	900.540	247.608	-869.922	C.2	8	ASP8	0.537	
109	   O	901.014	248.213	-870.896	O.2	8	ASP8	-0.582	
110	  CB	898.114	247.768	-869.242	C.3	8	ASP8	-0.030	
111	  CG	897.896	249.189	-869.783	C.2	8	ASP8	0.799	
112	 OD1	897.962	249.388	-871.013	O.co2	8	ASP8	-0.801	
113	 OD2	897.703	250.115	-868.968	O.co2	8	ASP8	-0.801	
114	   H	898.663	245.309	-868.661	 H	8	ASP8	0.294	
115	  HA	898.912	246.851	-871.049	 H	8	ASP8	0.088	
116	 2HB	898.370	247.852	-868.169	 H	8	ASP8	-0.012	
117	 3HB	897.135	247.263	-869.276	 H	8	ASP8	-0.012	
118	   N	901.218	247.559	-868.826	N.am	9	GLU9	-0.516	
119	  CA	902.521	248.216	-868.769	C.3	9	GLU9	0.040	
120	   C	903.440	247.688	-869.843	C.2	9	GLU9	0.537	
121	   O	904.105	248.442	-870.568	O.2	9	GLU9	-0.582	
122	  CB	903.152	248.009	-867.362	C.3	9	GLU9	0.056	
123	  CG	904.534	248.700	-867.131	C.3	9	GLU9	0.014	
124	  CD	905.234	248.487	-865.802	C.2	9	GLU9	0.805	
125	 OE1	904.711	247.797	-864.906	O.co2	9	GLU9	-0.819	
126	 OE2	906.353	249.025	-865.668	O.co2	9	GLU9	-0.819	
127	   H	900.853	247.073	-868.019	 H	9	GLU9	0.294	
128	  HA	902.379	249.298	-868.945	 H	9	GLU9	0.111	
129	 2HB	903.264	246.924	-867.159	 H	9	GLU9	-0.017	
130	 3HB	902.454	248.362	-866.579	 H	9	GLU9	-0.017	
131	 2HG	904.463	249.791	-867.271	 H	9	GLU9	-0.043	
132	 3HG	905.282	248.355	-867.864	 H	9	GLU9	-0.043	
133	   N	903.537	246.412	-870.012	N.am	10	HIS10	-0.416	
134	  CA	904.426	245.901	-871.051	C.3	10	HIS10	-0.058	
135	   C	904.061	246.465	-872.403	C.2	10	HIS10	0.597	
136	   O	904.915	246.929	-873.174	O.2	10	HIS10	-0.568	
137	  CB	904.262	244.372	-871.046	C.3	10	HIS10	-0.007	
138	  CG	905.547	243.661	-870.736	C.2	10	HIS10	0.187	
139	 CD2	905.926	243.326	-869.442	C.2	10	HIS10	-0.221	
140	 ND1	906.500	243.255	-871.667	N.2	10	HIS10	-0.543	
141	 CE1	907.405	242.697	-870.842	C.2	10	HIS10	0.163	
142	 NE2	907.141	242.695	-869.507	N.pl3	10	HIS10	-0.280	
143	   H	903.005	245.777	-869.434	 H	10	HIS10	0.272	
144	  HA	905.445	246.258	-870.824	 H	10	HIS10	0.136	
145	 2HB	903.898	244.005	-872.026	 H	10	HIS10	0.037	
146	 3HB	903.505	244.035	-870.307	 H	10	HIS10	0.037	
147	 2HD	905.339	243.542	-868.554	 H	10	HIS10	0.186	
148	 1HE	908.297	242.276	-871.287	 H	10	HIS10	0.144	
149	 2HE	907.706	242.317	-868.733	 H	10	HIS10	0.334	
150	   N	902.824	246.464	-872.768	N.am	11	VAL11	-0.416	
151	  CA	902.471	247.010	-874.075	C.3	11	VAL11	-0.087	
152	   C	902.936	248.440	-874.208	C.2	11	VAL11	0.597	
153	   O	903.538	248.845	-875.210	O.2	11	VAL11	-0.568	
154	  CB	900.910	246.903	-874.297	C.3	11	VAL11	0.299	
155	 CG1	900.344	247.607	-875.561	C.3	11	VAL11	-0.319	
156	 CG2	900.386	245.449	-874.371	C.3	11	VAL11	-0.319	
157	   H	902.110	246.091	-872.158	 H	11	VAL11	0.272	
158	  HA	902.992	246.427	-874.857	 H	11	VAL11	0.097	
159	  HB	900.421	247.384	-873.423	 H	11	VAL11	-0.030	
160	1HG1	900.784	247.215	-876.497	 H	11	VAL11	0.079	
161	2HG1	899.245	247.500	-875.645	 H	11	VAL11	0.079	
162	3HG1	900.522	248.699	-875.552	 H	11	VAL11	0.079	
163	1HG2	900.674	244.862	-873.479	 H	11	VAL11	0.079	
164	2HG2	899.280	245.412	-874.415	 H	11	VAL11	0.079	
165	3HG2	900.769	244.908	-875.256	 H	11	VAL11	0.079	
166	   N	902.697	249.266	-873.246	N.am	12	GLN12	-0.416	
167	  CA	903.146	250.649	-873.372	C.3	12	GLN12	-0.003	
168	   C	904.637	250.716	-873.608	C.2	12	GLN12	0.597	
169	   O	905.125	251.424	-874.486	O.2	12	GLN12	-0.568	
170	  CB	902.753	251.417	-872.090	C.3	12	GLN12	-0.004	
171	  CG	903.114	252.939	-872.059	C.3	12	GLN12	-0.064	
172	  CD	902.810	253.752	-870.795	C.2	12	GLN12	0.695	
173	 NE2	902.241	253.176	-869.767	N.pl3	12	GLN12	-0.941	
174	 OE1	903.112	254.933	-870.717	O.2	12	GLN12	-0.609	
175	   H	902.207	248.960	-872.417	 H	12	GLN12	0.272	
176	  HA	902.648	251.105	-874.248	 H	12	GLN12	0.085	
177	 2HB	903.228	250.917	-871.220	 H	12	GLN12	0.017	
178	 3HB	901.663	251.310	-871.929	 H	12	GLN12	0.017	
179	 2HG	902.638	253.459	-872.911	 H	12	GLN12	0.035	
180	 3HG	904.198	253.081	-872.223	 H	12	GLN12	0.035	
181	1HE2	902.133	253.771	-868.944	 H	12	GLN12	0.425	
182	2HE2	902.078	252.173	-869.870	 H	12	GLN12	0.425	
183	   N	905.420	250.010	-872.866	N.am	13	ARG13	-0.348	
184	  CA	906.861	250.075	-873.094	C.3	13	ARG13	-0.264	
185	   C	907.199	249.703	-874.519	C.2	13	ARG13	0.734	
186	   O	907.968	250.374	-875.202	O.2	13	ARG13	-0.589	
187	  CB	907.572	249.136	-872.079	C.3	13	ARG13	-0.001	
188	  CG	909.117	249.289	-871.996	C.3	13	ARG13	0.039	
189	  CD	909.742	248.301	-870.997	C.3	13	ARG13	0.049	
190	  NE	911.219	248.508	-870.944	N.pl3	13	ARG13	-0.530	
191	  CZ	912.066	247.817	-870.188	C.cat	13	ARG13	0.808	
192	 NH1	911.700	246.853	-869.391	N.pl3	13	ARG13	-0.863	
193	 NH2	913.326	248.115	-870.243	N.pl3	13	ARG13	-0.863	
194	   H	905.043	249.420	-872.138	 H	13	ARG13	0.275	
195	  HA	907.185	251.121	-872.936	 H	13	ARG13	0.156	
196	 2HB	907.306	248.086	-872.319	 H	13	ARG13	0.033	
197	 3HB	907.145	249.303	-871.069	 H	13	ARG13	0.033	
198	 2HG	909.365	250.334	-871.716	 H	13	ARG13	0.029	
199	 3HG	909.569	249.133	-872.997	 H	13	ARG13	0.029	
200	 2HD	909.498	247.261	-871.306	 H	13	ARG13	0.069	
201	 3HD	909.284	248.447	-869.995	 H	13	ARG13	0.069	
202	  HE	911.672	249.230	-871.515	 H	13	ARG13	0.346	
203	1HH1	910.694	246.667	-869.395	 H	13	ARG13	0.448	
204	2HH1	912.412	246.369	-868.841	 H	13	ARG13	0.448	
205	1HH2	913.594	248.873	-870.873	 H	13	ARG13	0.448	
206	2HH2	913.960	247.574	-869.653	 H	13	ARG13	0.448	
207	   N	906.663	248.649	-875.034	N.am	14	VAL14	-0.416	
208	  CA	906.990	248.289	-876.411	C.3	14	VAL14	-0.087	
209	   C	906.661	249.419	-877.357	C.2	14	VAL14	0.597	
210	   O	907.456	249.800	-878.225	O.2	14	VAL14	-0.568	
211	  CB	906.218	246.972	-876.819	C.3	14	VAL14	0.299	
212	 CG1	906.309	246.553	-878.312	C.3	14	VAL14	-0.319	
213	 CG2	906.648	245.720	-876.018	C.3	14	VAL14	-0.319	
214	   H	906.027	248.080	-874.493	 H	14	VAL14	0.272	
215	  HA	908.078	248.112	-876.484	 H	14	VAL14	0.097	
216	  HB	905.141	247.144	-876.604	 H	14	VAL14	-0.030	
217	1HG1	907.351	246.376	-878.639	 H	14	VAL14	0.079	
218	2HG1	905.736	245.630	-878.525	 H	14	VAL14	0.079	
219	3HG1	905.881	247.316	-878.991	 H	14	VAL14	0.079	
220	1HG2	906.560	245.879	-874.927	 H	14	VAL14	0.079	
221	2HG2	906.013	244.843	-876.250	 H	14	VAL14	0.079	
222	3HG2	907.696	245.430	-876.222	 H	14	VAL14	0.079	
223	   N	905.517	250.005	-877.257	N.am	15	MET15	-0.416	
224	  CA	905.198	251.098	-878.171	C.3	15	MET15	-0.024	
225	   C	906.228	252.197	-878.082	C.2	15	MET15	0.597	
226	   O	906.732	252.708	-879.095	O.2	15	MET15	-0.568	
227	  CB	903.776	251.644	-877.865	C.3	15	MET15	0.034	
228	  CG	902.614	250.646	-878.058	C.3	15	MET15	0.002	
229	  SD	901.040	251.512	-877.946	S.3	15	MET15	-0.274	
230	  CE	899.958	250.083	-877.811	C.3	15	MET15	-0.054	
231	   H	904.851	249.712	-876.556	 H	15	MET15	0.272	
232	  HA	905.225	250.710	-879.207	 H	15	MET15	0.088	
233	 2HB	903.575	252.522	-878.507	 H	15	MET15	0.024	
234	 3HB	903.739	252.036	-876.829	 H	15	MET15	0.024	
235	 2HG	902.656	249.860	-877.280	 H	15	MET15	0.044	
236	 3HG	902.678	250.130	-879.034	 H	15	MET15	0.044	
237	 1HE	900.103	249.394	-878.663	 H	15	MET15	0.068	
238	 2HE	900.166	249.530	-876.878	 H	15	MET15	0.068	
239	 3HE	898.901	250.398	-877.796	 H	15	MET15	0.068	
240	   N	906.595	252.619	-876.920	N.am	16	ARG16	-0.348	
241	  CA	907.592	253.682	-876.835	C.3	16	ARG16	-0.264	
242	   C	908.863	253.289	-877.549	C.2	16	ARG16	0.734	
243	   O	908.978	252.213	-878.130	O.2	16	ARG16	-0.589	
244	  CB	907.859	254.001	-875.336	C.3	16	ARG16	-0.001	
245	  CG	908.684	255.289	-875.063	C.3	16	ARG16	0.039	
246	  CD	908.932	255.509	-873.561	C.3	16	ARG16	0.049	
247	  NE	909.708	256.768	-873.359	N.pl3	16	ARG16	-0.530	
248	  CZ	910.097	257.251	-872.183	C.cat	16	ARG16	0.808	
249	 NH1	909.848	256.667	-871.045	N.pl3	16	ARG16	-0.863	
250	 NH2	910.762	258.363	-872.164	N.pl3	16	ARG16	-0.863	
251	   H	906.199	252.219	-876.081	 H	16	ARG16	0.275	
252	  HA	907.184	254.575	-877.346	 H	16	ARG16	0.156	
253	 2HB	908.355	253.125	-874.869	 H	16	ARG16	0.033	
254	 3HB	906.889	254.082	-874.804	 H	16	ARG16	0.033	
255	 2HG	908.154	256.160	-875.501	 H	16	ARG16	0.029	
256	 3HG	909.658	255.236	-875.590	 H	16	ARG16	0.029	
257	 2HD	909.480	254.635	-873.147	 H	16	ARG16	0.069	
258	 3HD	907.958	255.552	-873.027	 H	16	ARG16	0.069	
259	  HE	909.987	257.349	-874.156	 H	16	ARG16	0.346	
260	1HH1	909.322	255.794	-871.130	 H	16	ARG16	0.448	
261	2HH1	910.181	257.102	-870.184	 H	16	ARG16	0.448	
262	1HH2	910.948	258.806	-873.066	 H	16	ARG16	0.448	
263	2HH2	911.051	258.718	-871.251	 H	16	ARG16	0.448	
@<TRIPOS>BOND
1 1 2 1
2 1 10 1
3 2 3 1
4 2 5 1
5 2 11 1
6 3 4 2
7 3 16 1
8 5 6 1
9 6 7 1
10 7 8 2
11 7 9 1
12 5 12 1
13 5 13 1
14 6 14 1
15 6 15 1
16 16 17 1
17 16 24 1
18 17 18 1
19 17 20 1
20 17 25 1
21 18 19 2
22 18 30 1
23 20 21 1
24 21 22 1
25 21 23 2
26 20 26 1
27 20 27 1
28 22 28 1
29 22 29 1
30 30 31 1
31 30 36 1
32 31 32 1
33 31 34 1
34 31 37 1
35 32 33 2
36 32 44 1
37 34 35 1
38 35 36 1
39 34 38 1
40 34 39 1
41 35 40 1
42 35 41 1
43 36 42 1
44 36 43 1
45 44 45 1
46 44 53 1
47 45 46 1
48 45 48 1
49 45 54 1
50 46 47 2
51 46 59 1
52 48 49 1
53 49 50 1
54 50 51 2
55 50 52 1
56 48 55 1
57 48 56 1
58 49 57 1
59 49 58 1
60 59 60 1
61 59 65 1
62 60 61 1
63 60 63 1
64 60 66 1
65 61 62 2
66 61 70 1
67 63 64 1
68 63 67 1
69 63 68 1
70 64 69 1
71 70 71 1
72 70 78 1
73 71 72 1
74 71 74 1
75 71 79 1
76 72 73 2
77 72 87 1
78 74 75 1
79 75 76 1
80 76 77 1
81 74 80 1
82 74 81 1
83 75 82 1
84 75 83 1
85 77 84 1
86 77 85 1
87 77 86 1
88 87 88 1
89 87 95 1
90 88 89 1
91 88 91 1
92 88 96 1
93 89 90 2
94 89 106 1
95 91 92 1
96 92 93 1
97 92 94 1
98 91 97 1
99 91 98 1
100 92 99 1
101 93 100 1
102 93 101 1
103 93 102 1
104 94 103 1
105 94 104 1
106 94 105 1
107 106 107 1
108 106 114 1
109 107 108 1
110 107 110 1
111 107 115 1
112 108 109 2
113 108 118 1
114 110 111 1
115 111 112 2
116 111 113 1
117 110 116 1
118 110 117 1
119 118 119 1
120 118 127 1
121 119 120 1
122 119 122 1
123 119 128 1
124 120 121 2
125 120 133 1
126 122 123 1
127 123 124 1
128 124 125 2
129 124 126 1
130 122 129 1
131 122 130 1
132 123 131 1
133 123 132 1
134 133 134 1
135 133 143 1
136 134 135 1
137 134 137 1
138 134 144 1
139 135 136 2
140 135 150 1
141 137 138 1
142 138 139 2
143 139 142 1
144 138 140 1
145 140 141 2
146 141 142 1
147 137 145 1
148 137 146 1
149 139 147 1
150 141 148 1
151 142 149 1
152 150 151 1
153 150 157 1
154 151 152 1
155 151 154 1
156 151 158 1
157 152 153 2
158 152 166 1
159 154 155 1
160 154 156 1
161 154 159 1
162 155 160 1
163 155 161 1
164 155 162 1
165 156 163 1
166 156 164 1
167 156 165 1
168 166 167 1
169 166 175 1
170 167 168 1
171 167 170 1
172 167 176 1
173 168 169 2
174 168 183 1
175 170 171 1
176 171 172 1
177 172 173 1
178 172 174 2
179 170 177 1
180 170 178 1
181 171 179 1
182 171 180 1
183 173 181 1
184 173 182 1
185 183 184 1
186 183 194 1
187 184 185 1
188 184 187 1
189 184 195 1
190 185 186 2
191 185 207 1
192 187 188 1
193 188 189 1
194 189 190 1
195 190 191 1
196 191 192 2
197 191 193 1
198 187 196 1
199 187 197 1
200 188 198 1
201 188 199 1
202 189 200 1
203 189 201 1
204 190 202 1
205 192 203 1
206 192 204 1
207 193 205 1
208 193 206 1
209 207 208 1
210 207 214 1
211 208 209 1
212 208 211 1
213 208 215 1
214 209 210 2
215 209 223 1
216 211 212 1
217 211 213 1
218 211 216 1
219 212 217 1
220 212 218 1
221 212 219 1
222 213 220 1
223 213 221 1
224 213 222 1
225 223 224 1
226 223 231 1
227 224 225 1
228 224 227 1
229 224 232 1
230 225 226 2
231 225 240 1
232 227 228 1
233 228 229 1
234 229 230 1
235 227 233 1
236 227 234 1
237 228 235 1
238 228 236 1
239 230 237 1
240 230 238 1
241 230 239 1
242 240 241 1
243 240 251 1
244 241 242 1
245 241 244 1
246 241 252 1
247 242 243 2
248 244 245 1
249 245 246 1
250 246 247 1
251 247 248 1
252 248 249 2
253 248 250 1
254 244 253 1
255 244 254 1
256 245 255 1
257 245 256 1
258 246 257 1
259 246 258 1
260 247 259 1
261 249 260 1
262 249 261 1
263 250 262 1
264 250 263 1
@<TRIPOS>SUBSTRUCTURE
1	GLU1	1	RESIDUE	1 ****	GLU
2	ASN2	16	RESIDUE	1 ****	ASN
3	PRO3	30	RESIDUE	1 ****	PRO
4	GLU4	44	RESIDUE	1 ****	GLU
5	SER5	59	RESIDUE	1 ****	SER
6	MET6	70	RESIDUE	1 ****	MET
7	LEU7	87	RESIDUE	1 ****	LEU
8	ASP8	106	RESIDUE	1 ****	ASP
9	GLU9	118	RESIDUE	1 ****	GLU
10	HIS10	133	RESIDUE	1 ****	HIS
11	VAL11	150	RESIDUE	1 ****	VAL
12	GLN12	166	RESIDUE	1 ****	GLN
13	ARG13	183	RESIDUE	1 ****	ARG
14	VAL14	207	RESIDUE	1 ****	VAL
15	MET15	223	RESIDUE	1 ****	MET
16	ARG16	240	RESIDUE	1 ****	ARG
