REMARK WARNING: 32 MAX_TORS EXCEEDED!!!
REMARK  67 active torsions:
REMARK  status: ('A' for Active; 'I' for Inactive)
REMARK    1  A    between atoms: N_1  and  CA_2 
REMARK    2  A    between atoms: CA_2  and  C_3 
REMARK    3  A    between atoms: CA_2  and  CB_5 
REMARK       I    between atoms: C_3  and  N_11 
REMARK    4  A    between atoms: CB_5  and  CG_6 
REMARK    5  A    between atoms: CG_6  and  CD_7 
REMARK    6  A    between atoms: N_11  and  CA_12 
REMARK    7  A    between atoms: CA_12  and  C_13 
REMARK    8  A    between atoms: CA_12  and  CB_15 
REMARK       I    between atoms: C_13  and  N_22 
REMARK    9  A    between atoms: CB_15  and  CG_16 
REMARK       I    between atoms: CG_16  and  ND2_17 
REMARK   10  A    between atoms: CA_23  and  C_24 
REMARK       I    between atoms: C_24  and  N_29 
REMARK   11  A    between atoms: N_29  and  CA_30 
REMARK   12  A    between atoms: CA_30  and  C_31 
REMARK   13  A    between atoms: CA_30  and  CB_33 
REMARK       I    between atoms: C_31  and  N_39 
REMARK   14  A    between atoms: CB_33  and  CG_34 
REMARK   15  A    between atoms: CG_34  and  CD_35 
REMARK   16  A    between atoms: N_39  and  CA_40 
REMARK   17  A    between atoms: CA_40  and  C_41 
REMARK   18  A    between atoms: CA_40  and  CB_43 
REMARK       I    between atoms: C_41  and  N_47 
REMARK   19  A    between atoms: CB_43  and  OG_44 
REMARK   20  A    between atoms: N_47  and  CA_48 
REMARK   21  A    between atoms: CA_48  and  C_49 
REMARK   22  A    between atoms: CA_48  and  CB_51 
REMARK       I    between atoms: C_49  and  N_56 
REMARK   23  A    between atoms: CB_51  and  CG1_52 
REMARK   24  A    between atoms: N_56  and  CA_57 
REMARK   25  A    between atoms: CA_57  and  C_58 
REMARK   26  A    between atoms: CA_57  and  CB_60 
REMARK       I    between atoms: C_58  and  N_65 
REMARK   27  A    between atoms: CB_60  and  CG_61 
REMARK   28  A    between atoms: N_65  and  CA_66 
REMARK   29  A    between atoms: CA_66  and  C_67 
REMARK   30  A    between atoms: CA_66  and  CB_69 
REMARK       I    between atoms: C_67  and  N_74 
REMARK   31  A    between atoms: CB_69  and  CG_70 
REMARK   32  A    between atoms: N_74  and  CA_75 
REMARK   33  A    between atoms: CA_75  and  C_76 
REMARK   34  A    between atoms: CA_75  and  CB_78 
REMARK       I    between atoms: C_76  and  N_90 
REMARK   35  A    between atoms: CB_78  and  CG_79 
REMARK   36  A    between atoms: N_90  and  CA_91 
REMARK   37  A    between atoms: CA_91  and  C_92 
REMARK   38  A    between atoms: CA_91  and  CB_94 
REMARK       I    between atoms: C_92  and  N_102 
REMARK   39  A    between atoms: CB_94  and  CG_95 
REMARK   40  A    between atoms: N_102  and  CA_103 
REMARK   41  A    between atoms: CA_103  and  C_104 
REMARK   42  A    between atoms: CA_103  and  CB_106 
REMARK       I    between atoms: C_104  and  N_110 
REMARK   43  A    between atoms: N_110  and  CA_111 
REMARK   44  A    between atoms: CA_111  and  C_112 
REMARK   45  A    between atoms: CA_111  and  CB_114 
REMARK       I    between atoms: C_112  and  N_122 
REMARK   46  A    between atoms: CB_114  and  CG_115 
REMARK   47  A    between atoms: CG_115  and  CD_116 
REMARK       I    between atoms: CD_116  and  NE2_117 
REMARK   48  A    between atoms: N_122  and  CA_123 
REMARK   49  A    between atoms: CA_123  and  C_124 
REMARK   50  A    between atoms: CA_123  and  CB_126 
REMARK       I    between atoms: C_124  and  N_139 
REMARK   51  A    between atoms: CB_126  and  CG_127 
REMARK   52  A    between atoms: CG_127  and  CD_128 
REMARK   53  A    between atoms: CD_128  and  NE_129 
REMARK       I    between atoms: NE_129  and  CZ_130 
REMARK       I    between atoms: CZ_130  and  NH1_131 
REMARK       I    between atoms: CZ_130  and  NH2_132 
REMARK   54  A    between atoms: N_139  and  CA_140 
REMARK   55  A    between atoms: CA_140  and  C_141 
REMARK   56  A    between atoms: CA_140  and  CB_143 
REMARK       I    between atoms: C_141  and  N_147 
REMARK   57  A    between atoms: N_147  and  CA_148 
REMARK   58  A    between atoms: CA_148  and  C_149 
REMARK   59  A    between atoms: CA_148  and  CB_151 
REMARK       I    between atoms: C_149  and  N_156 
REMARK   60  A    between atoms: CB_151  and  CG_152 
REMARK   61  A    between atoms: CG_152  and  SD_153 
REMARK   62  A    between atoms: N_156  and  CA_157 
REMARK   63  A    between atoms: CA_157  and  C_158 
REMARK   64  A    between atoms: CA_157  and  CB_160 
REMARK   65  A    between atoms: CB_160  and  CG_161 
REMARK   66  A    between atoms: CG_161  and  CD_162 
REMARK   67  A    between atoms: CD_162  and  NE_163 
REMARK       I    between atoms: NE_163  and  CZ_164 
REMARK       I    between atoms: CZ_164  and  NH1_165 
ROOT
ATOM      1  CA  TRP d   9    1436.169 425.036-1446.918  0.00  0.00     0.181 C 
ENDROOT
BRANCH   1   2
ATOM      2  N   TRP d   9    1434.867 424.379-1446.974  0.00  0.00    -0.346 N 
ATOM      3  C   ASP d   8    1434.187 424.429-1448.069  0.00  0.00     0.241 C 
ATOM      4  O   ASP d   8    1434.660 425.034-1449.043  0.00  0.00    -0.271 OA
ATOM      5  H   TRP d   9    1434.504 423.892-1446.167  0.00  0.00     0.163 HD
BRANCH   3   6
ATOM      6  CA  ASP d   8    1432.841 423.749-1448.126  0.00  0.00     0.186 C 
BRANCH   6   7
ATOM      7  N   ASP d   8    1432.911 422.399-1447.573  0.00  0.00    -0.346 N 
ATOM      8  C   LEU d   7    1433.748 421.559-1448.080  0.00  0.00     0.241 C 
ATOM      9  O   LEU d   7    1434.469 421.922-1449.022  0.00  0.00    -0.271 OA
ATOM     10  H   ASP d   8    1432.313 422.128-1446.806  0.00  0.00     0.163 HD
BRANCH   8  11
ATOM     11  CA  LEU d   7    1433.821 420.163-1447.508  0.00  0.00     0.177 C 
BRANCH  11  12
ATOM     12  N   LEU d   7    1433.876 420.199-1446.049  0.00  0.00    -0.346 N 
ATOM     13  C   ILE d   6    1434.822 420.862-1445.475  0.00  0.00     0.241 C 
ATOM     14  O   ILE d   6    1435.657 421.450-1446.179  0.00  0.00    -0.271 OA
ATOM     15  H   LEU d   7    1433.184 419.712-1445.498  0.00  0.00     0.163 HD
BRANCH  13  16
ATOM     16  CA  ILE d   6    1434.879 420.900-1443.968  0.00  0.00     0.180 C 
BRANCH  16  17
ATOM     17  N   ILE d   6    1433.566 421.195-1443.401  0.00  0.00    -0.346 N 
ATOM     18  C   SER d   5    1432.961 422.278-1443.755  0.00  0.00     0.243 C 
ATOM     19  O   SER d   5    1433.508 423.031-1444.560  0.00  0.00    -0.271 OA
ATOM     20  H   ILE d   6    1433.138 420.560-1442.742  0.00  0.00     0.163 HD
BRANCH  18  21
ATOM     21  CA  SER d   5    1431.603 422.583-1443.169  0.00  0.00     0.200 C 
BRANCH  21  22
ATOM     22  N   SER d   5    1430.733 421.412-1443.228  0.00  0.00    -0.344 N 
ATOM     23  C   GLU d   4    1430.506 420.859-1444.371  0.00  0.00     0.241 C 
ATOM     24  O   GLU d   4    1431.032 421.339-1445.385  0.00  0.00    -0.271 OA
ATOM     25  H   SER d   5    1430.316 421.040-1442.386  0.00  0.00     0.163 HD
BRANCH  23  26
ATOM     26  CA  GLU d   4    1429.607 419.648-1444.432  0.00  0.00     0.177 C 
BRANCH  26  27
ATOM     27  N   GLU d   4    1429.967 418.677-1443.402  0.00  0.00    -0.346 N 
ATOM     28  C   PRO d   3    1431.171 418.217-1443.370  0.00  0.00     0.241 C 
ATOM     29  O   PRO d   3    1431.995 418.600-1444.202  0.00  0.00    -0.271 OA
ATOM     30  H   GLU d   4    1429.282 418.370-1442.726  0.00  0.00     0.163 HD
BRANCH  28  31
ATOM     31  CA  PRO d   3    1431.569 417.193-1442.293  0.00  0.00     0.179 C 
ATOM     32  N   PRO d   3    1431.118 417.602-1440.972  0.00  0.00    -0.337 N 
ATOM     33  C   ASN d   2    1431.639 418.598-1440.338  0.00  0.00     0.243 C 
ATOM     34  CD  PRO d   3    1430.040 416.809-1440.423  0.00  0.00     0.127 C 
ATOM     35  O   ASN d   2    1432.554 419.228-1440.866  0.00  0.00    -0.271 OA
ATOM     36  CG  PRO d   3    1429.582 415.991-1441.632  0.00  0.00     0.022 C 
ATOM     37  CB  PRO d   3    1430.865 415.838-1442.463  0.00  0.00     0.037 C 
BRANCH  33  38
ATOM     38  CA  ASN d   2    1431.108 418.953-1438.969  0.00  0.00     0.185 C 
BRANCH  38  39
ATOM     39  N   ASN d   2    1429.649 418.992-1438.969  0.00  0.00    -0.346 N 
ATOM     40  C   GLU d   1    1429.044 419.778-1439.794  0.00  0.00     0.242 C 
ATOM     41  O   GLU d   1    1429.720 420.477-1440.563  0.00  0.00    -0.271 OA
ATOM     42  H   ASN d   2    1429.121 418.412-1438.333  0.00  0.00     0.163 HD
BRANCH  40  43
ATOM     43  CA  GLU d   1    1427.535 419.818-1439.794  0.00  0.00     0.191 C 
BRANCH  43  44
ATOM     44  N   GLU d   1    1426.976 418.469-1439.794  0.00  0.00    -0.326 NA
ATOM     45  H   GLU d   1    1427.603 417.590-1439.794  0.00  0.00     0.180 HD
ENDBRANCH  43  44
BRANCH  43  46
ATOM     46  CB  GLU d   1    1427.012 420.603-1438.557  0.00  0.00     0.047 C 
BRANCH  46  47
ATOM     47  CG  GLU d   1    1427.487 422.088-1438.446  0.00  0.00     0.116 C 
BRANCH  47  48
ATOM     48  CD  GLU d   1    1427.063 422.892-1437.231  0.00  0.00     0.172 C 
ATOM     49  OE1 GLU d   1    1426.335 422.390-1436.353  0.00  0.00    -0.648 OA
ATOM     50  OE2 GLU d   1    1427.493 424.062-1437.159  0.00  0.00    -0.648 OA
ENDBRANCH  47  48
ENDBRANCH  46  47
ENDBRANCH  43  46
ENDBRANCH  40  43
ENDBRANCH  38  39
BRANCH  38  51
ATOM     51  CB  ASN d   2    1431.600 417.930-1437.905  0.00  0.00     0.137 C 
BRANCH  51  52
ATOM     52  CG  ASN d   2    1431.137 418.154-1436.461  0.00  0.00     0.217 C 
ATOM     53  ND2 ASN d   2    1431.731 419.069-1435.743  0.00  0.00    -0.370 N 
ATOM     54 21HD ASN d   2    1431.251 419.242-1434.857  0.00  0.00     0.159 HD
ATOM     55 22HD ASN d   2    1432.433 419.641-1436.213  0.00  0.00     0.159 HD
ATOM     56  OD1 ASN d   2    1430.216 417.520-1435.967  0.00  0.00    -0.274 OA
ENDBRANCH  51  52
ENDBRANCH  38  51
ENDBRANCH  33  38
ENDBRANCH  28  31
ENDBRANCH  26  27
BRANCH  26  57
ATOM     57  CB  GLU d   4    1428.118 420.066-1444.261  0.00  0.00     0.045 C 
BRANCH  57  58
ATOM     58  CG  GLU d   4    1427.570 421.070-1445.327  0.00  0.00     0.116 C 
BRANCH  58  59
ATOM     59  CD  GLU d   4    1426.143 421.567-1445.183  0.00  0.00     0.172 C 
ATOM     60  OE1 GLU d   4    1425.417 421.168-1444.252  0.00  0.00    -0.648 OA
ATOM     61  OE2 GLU d   4    1425.754 422.396-1446.031  0.00  0.00    -0.648 OA
ENDBRANCH  58  59
ENDBRANCH  57  58
ENDBRANCH  26  57
ENDBRANCH  23  26
ENDBRANCH  21  22
BRANCH  21  62
ATOM     62  CB  SER d   5    1431.714 423.115-1441.719  0.00  0.00     0.199 C 
BRANCH  62  63
ATOM     63  OG  SER d   5    1432.446 422.236-1440.858  0.00  0.00    -0.398 OA
ATOM     64  HG  SER d   5    1431.957 421.411-1440.807  0.00  0.00     0.209 HD
ENDBRANCH  62  63
ENDBRANCH  21  62
ENDBRANCH  18  21
ENDBRANCH  16  17
BRANCH  16  65
ATOM     65  CB  ILE d   6    1435.479 419.564-1443.368  0.00  0.00     0.013 C 
ATOM     66  CG2 ILE d   6    1436.920 419.262-1443.883  0.00  0.00     0.012 C 
BRANCH  65  67
ATOM     67  CG1 ILE d   6    1435.499 419.501-1441.807  0.00  0.00     0.002 C 
ATOM     68  CD1 ILE d   6    1435.769 418.112-1441.192  0.00  0.00     0.005 C 
ENDBRANCH  65  67
ENDBRANCH  16  65
ENDBRANCH  13  16
ENDBRANCH  11  12
BRANCH  11  69
ATOM     69  CB  LEU d   7    1432.618 419.303-1447.988  0.00  0.00     0.038 C 
BRANCH  69  70
ATOM     70  CG  LEU d   7    1432.545 417.823-1447.522  0.00  0.00    -0.020 C 
ATOM     71  CD1 LEU d   7    1431.355 417.118-1448.187  0.00  0.00     0.009 C 
ATOM     72  CD2 LEU d   7    1433.839 417.044-1447.813  0.00  0.00     0.009 C 
ENDBRANCH  69  70
ENDBRANCH  11  69
ENDBRANCH   8  11
ENDBRANCH   6   7
BRANCH   6  73
ATOM     73  CB  ASP d   8    1431.763 424.588-1447.384  0.00  0.00     0.147 C 
BRANCH  73  74
ATOM     74  CG  ASP d   8    1431.544 426.008-1447.924  0.00  0.00     0.175 C 
ATOM     75  OD1 ASP d   8    1431.608 426.208-1449.155  0.00  0.00    -0.648 OA
ATOM     76  OD2 ASP d   8    1431.351 426.934-1447.109  0.00  0.00    -0.648 OA
ENDBRANCH  73  74
ENDBRANCH   6  73
ENDBRANCH   3   6
ENDBRANCH   1   2
BRANCH   1  77
ATOM     77  C   TRP d   9    1437.089 424.509-1447.994  0.00  0.00     0.241 C 
ATOM     78  O   TRP d   9    1437.747 425.258-1448.713  0.00  0.00    -0.271 OA
ATOM     79  N   HIS d  10    1437.186 423.234-1448.164  0.00  0.00    -0.346 N 
ATOM     80  H   HIS d  10    1436.655 422.598-1447.587  0.00  0.00     0.163 HD
BRANCH  79  81
ATOM     81  CA  HIS d  10    1438.074 422.723-1449.205  0.00  0.00     0.182 C 
BRANCH  81  82
ATOM     82  C   HIS d  10    1437.708 423.289-1450.556  0.00  0.00     0.241 C 
ATOM     83  O   HIS d  10    1438.560 423.754-1451.327  0.00  0.00    -0.271 OA
ATOM     84  N   VAL d  11    1436.470 423.287-1450.919  0.00  0.00    -0.346 N 
ATOM     85  H   VAL d  11    1435.757 422.914-1450.309  0.00  0.00     0.163 HD
BRANCH  84  86
ATOM     86  CA  VAL d  11    1436.115 423.834-1452.226  0.00  0.00     0.180 C 
BRANCH  86  87
ATOM     87  C   VAL d  11    1436.578 425.265-1452.357  0.00  0.00     0.241 C 
ATOM     88  O   VAL d  11    1437.179 425.671-1453.360  0.00  0.00    -0.271 OA
ATOM     89  N   GLN d  12    1436.341 426.090-1451.394  0.00  0.00    -0.346 N 
ATOM     90  H   GLN d  12    1435.852 425.783-1450.566  0.00  0.00     0.163 HD
BRANCH  89  91
ATOM     91  CA  GLN d  12    1436.788 427.473-1451.520  0.00  0.00     0.177 C 
BRANCH  91  92
ATOM     92  C   GLN d  12    1438.278 427.541-1451.758  0.00  0.00     0.241 C 
ATOM     93  O   GLN d  12    1438.766 428.251-1452.635  0.00  0.00    -0.271 OA
ATOM     94  N   ARG d  13    1439.063 426.834-1451.017  0.00  0.00    -0.346 N 
ATOM     95  H   ARG d  13    1438.687 426.244-1450.289  0.00  0.00     0.163 HD
BRANCH  94  96
ATOM     96  CA  ARG d  13    1440.504 426.901-1451.247  0.00  0.00     0.176 C 
BRANCH  96  97
ATOM     97  C   ARG d  13    1440.840 426.531-1452.672  0.00  0.00     0.241 C 
ATOM     98  O   ARG d  13    1441.609 427.203-1453.356  0.00  0.00    -0.271 OA
ATOM     99  N   VAL d  14    1440.305 425.477-1453.188  0.00  0.00    -0.346 N 
ATOM    100  H   VAL d  14    1439.670 424.907-1452.647  0.00  0.00     0.163 HD
BRANCH  99 101
ATOM    101  CA  VAL d  14    1440.630 425.119-1454.566  0.00  0.00     0.180 C 
BRANCH 101 102
ATOM    102  C   VAL d  14    1440.300 426.250-1455.510  0.00  0.00     0.241 C 
ATOM    103  O   VAL d  14    1441.093 426.633-1456.379  0.00  0.00    -0.271 OA
ATOM    104  N   MET d  15    1439.155 426.835-1455.408  0.00  0.00    -0.346 N 
ATOM    105  H   MET d  15    1438.490 426.541-1454.707  0.00  0.00     0.163 HD
BRANCH 104 106
ATOM    106  CA  MET d  15    1438.834 427.928-1456.321  0.00  0.00     0.177 C 
BRANCH 106 107
ATOM    107  C   MET d  15    1439.864 429.029-1456.232  0.00  0.00     0.241 C 
ATOM    108  O   MET d  15    1440.367 429.541-1457.243  0.00  0.00    -0.271 OA
ATOM    109  N   ARG d  16    1440.232 429.448-1455.069  0.00  0.00    -0.347 N 
ATOM    110  H   ARG d  16    1439.838 429.047-1454.230  0.00  0.00     0.163 HD
BRANCH 109 111
ATOM    111  CA  ARG d  16    1441.228 430.513-1454.984  0.00  0.00     0.162 C 
BRANCH 111 112
ATOM    112  C   ARG d  16    1442.499 430.121-1455.700  0.00  0.00     0.219 C 
ATOM    113  O   ARG d  16    1442.614 429.045-1456.283  0.00  0.00    -0.287 OA
ENDBRANCH 111 112
BRANCH 111 114
ATOM    114  CB  ARG d  16    1441.497 430.829-1453.485  0.00  0.00     0.035 C 
BRANCH 114 115
ATOM    115  CG  ARG d  16    1442.322 432.118-1453.210  0.00  0.00     0.023 C 
BRANCH 115 116
ATOM    116  CD  ARG d  16    1442.571 432.336-1451.709  0.00  0.00     0.138 C 
BRANCH 116 117
ATOM    117  NE  ARG d  16    1443.347 433.595-1451.506  0.00  0.00    -0.227 N 
ATOM    118  CZ  ARG d  16    1443.737 434.076-1450.330  0.00  0.00     0.665 C 
ATOM    119  NH1 ARG d  16    1443.490 433.490-1449.192  0.00  0.00    -0.235 N 
ATOM    120  NH2 ARG d  16    1444.401 435.189-1450.310  0.00  0.00    -0.235 N 
ATOM    121 11HH ARG d  16    1442.964 432.617-1449.278  0.00  0.00     0.174 HD
ATOM    122 12HH ARG d  16    1443.824 433.925-1448.331  0.00  0.00     0.174 HD
ATOM    123 21HH ARG d  16    1444.586 435.633-1451.211  0.00  0.00     0.174 HD
ATOM    124 22HH ARG d  16    1444.691 435.543-1449.397  0.00  0.00     0.174 HD
ATOM    125  HE  ARG d  16    1443.625 434.177-1452.303  0.00  0.00     0.177 HD
ENDBRANCH 116 117
ENDBRANCH 115 116
ENDBRANCH 114 115
ENDBRANCH 111 114
ENDBRANCH 109 111
ENDBRANCH 106 107
BRANCH 106 126
ATOM    126  CB  MET d  15    1437.413 428.473-1456.012  0.00  0.00     0.045 C 
BRANCH 126 127
ATOM    127  CG  MET d  15    1436.251 427.474-1456.205  0.00  0.00     0.076 C 
BRANCH 127 128
ATOM    128  SD  MET d  15    1434.677 428.340-1456.090  0.00  0.00    -0.173 SA
ATOM    129  CE  MET d  15    1433.596 426.909-1455.956  0.00  0.00     0.089 C 
ENDBRANCH 127 128
ENDBRANCH 126 127
ENDBRANCH 106 126
ENDBRANCH 104 106
ENDBRANCH 101 102
BRANCH 101 130
ATOM    130  CB  VAL d  14    1439.859 423.802-1454.974  0.00  0.00     0.009 C 
ATOM    131  CG1 VAL d  14    1439.948 423.385-1456.468  0.00  0.00     0.012 C 
ATOM    132  CG2 VAL d  14    1440.291 422.549-1454.175  0.00  0.00     0.012 C 
ENDBRANCH 101 130
ENDBRANCH  99 101
ENDBRANCH  96  97
BRANCH  96 133
ATOM    133  CB  ARG d  13    1441.217 425.961-1450.234  0.00  0.00     0.036 C 
BRANCH 133 134
ATOM    134  CG  ARG d  13    1442.762 426.115-1450.152  0.00  0.00     0.023 C 
BRANCH 134 135
ATOM    135  CD  ARG d  13    1443.389 425.127-1449.155  0.00  0.00     0.138 C 
BRANCH 135 136
ATOM    136  NE  ARG d  13    1444.866 425.335-1449.104  0.00  0.00    -0.227 N 
ATOM    137  CZ  ARG d  13    1445.714 424.643-1448.349  0.00  0.00     0.665 C 
ATOM    138  NH1 ARG d  13    1445.349 423.677-1447.553  0.00  0.00    -0.235 N 
ATOM    139  NH2 ARG d  13    1446.973 424.942-1448.405  0.00  0.00    -0.235 N 
ATOM    140 11HH ARG d  13    1444.343 423.491-1447.556  0.00  0.00     0.174 HD
ATOM    141 12HH ARG d  13    1446.062 423.194-1447.004  0.00  0.00     0.174 HD
ATOM    142 21HH ARG d  13    1447.240 425.701-1449.035  0.00  0.00     0.174 HD
ATOM    143 22HH ARG d  13    1447.608 424.400-1447.817  0.00  0.00     0.174 HD
ATOM    144  HE  ARG d  13    1445.317 426.057-1449.674  0.00  0.00     0.177 HD
ENDBRANCH 135 136
ENDBRANCH 134 135
ENDBRANCH 133 134
ENDBRANCH  96 133
ENDBRANCH  94  96
ENDBRANCH  91  92
BRANCH  91 145
ATOM    145  CB  GLN d  12    1436.397 428.239-1450.237  0.00  0.00     0.044 C 
BRANCH 145 146
ATOM    146  CG  GLN d  12    1436.756 429.761-1450.205  0.00  0.00     0.105 C 
BRANCH 146 147
ATOM    147  CD  GLN d  12    1436.453 430.574-1448.939  0.00  0.00     0.215 C 
ATOM    148  NE2 GLN d  12    1435.886 429.996-1447.911  0.00  0.00    -0.370 N 
ATOM    149 21HE GLN d  12    1435.778 430.590-1447.087  0.00  0.00     0.159 HD
ATOM    150 22HE GLN d  12    1435.723 428.992-1448.015  0.00  0.00     0.159 HD
ATOM    151  OE1 GLN d  12    1436.754 431.755-1448.861  0.00  0.00    -0.274 OA
ENDBRANCH 146 147
ENDBRANCH 145 146
ENDBRANCH  91 145
ENDBRANCH  89  91
ENDBRANCH  86  87
BRANCH  86 152
ATOM    152  CB  VAL d  11    1434.554 423.726-1452.446  0.00  0.00     0.009 C 
ATOM    153  CG1 VAL d  11    1433.985 424.431-1453.708  0.00  0.00     0.012 C 
ATOM    154  CG2 VAL d  11    1434.030 422.272-1452.520  0.00  0.00     0.012 C 
ENDBRANCH  86 152
ENDBRANCH  84  86
ENDBRANCH  81  82
BRANCH  81 155
ATOM    155  CB  HIS d  10    1437.911 421.194-1449.201  0.00  0.00     0.095 C 
BRANCH 155 156
ATOM    156  CG  HIS d  10    1439.198 420.485-1448.893  0.00  0.00     0.053 A 
ATOM    157  CD2 HIS d  10    1439.578 420.149-1447.601  0.00  0.00     0.116 A 
ATOM    158  NE2 HIS d  10    1440.793 419.518-1447.667  0.00  0.00    -0.359 N 
ATOM    159  CE1 HIS d  10    1441.057 419.522-1449.002  0.00  0.00     0.207 A 
ATOM    160  2HE HIS d  10    1441.360 419.141-1446.894  0.00  0.00     0.166 HD
ATOM    161  ND1 HIS d  10    1440.150 420.080-1449.825  0.00  0.00    -0.247 NA
ENDBRANCH 155 156
ENDBRANCH  81 155
ENDBRANCH  79  81
ENDBRANCH   1  77
BRANCH   1 162
ATOM    162  CB  TRP d   9    1436.803 424.792-1445.520  0.00  0.00     0.075 C 
BRANCH 162 163
ATOM    163  CG  TRP d   9    1436.058 425.451-1444.355  0.00  0.00    -0.028 A 
ATOM    164  CD2 TRP d   9    1436.088 426.773-1443.960  0.00  0.00    -0.002 A 
ATOM    165  CE3 TRP d   9    1436.819 427.886-1444.451  0.00  0.00     0.014 A 
ATOM    166  CE2 TRP d   9    1435.171 426.927-1442.891  0.00  0.00     0.042 A 
ATOM    167  CZ3 TRP d   9    1436.623 429.126-1443.844  0.00  0.00     0.001 A 
ATOM    168  CH2 TRP d   9    1435.722 429.280-1442.781  0.00  0.00     0.002 A 
ATOM    169  CZ2 TRP d   9    1434.985 428.195-1442.297  0.00  0.00     0.030 A 
ATOM    170  NE1 TRP d   9    1434.552 425.722-1442.596  0.00  0.00    -0.365 N 
ATOM    171  CD1 TRP d   9    1435.115 424.820-1443.519  0.00  0.00     0.096 A 
ATOM    172  1HE TRP d   9    1433.818 425.545-1441.901  0.00  0.00     0.165 HD
ENDBRANCH 162 163
ENDBRANCH   1 162
TORSDOF 67
