REMARK WARNING: 32 MAX_TORS EXCEEDED!!!
REMARK  69 active torsions:
REMARK  status: ('A' for Active; 'I' for Inactive)
REMARK    1  A    between atoms: N_1  and  CA_2 
REMARK    2  A    between atoms: CA_2  and  C_3 
REMARK    3  A    between atoms: CA_2  and  CB_5 
REMARK       I    between atoms: C_3  and  N_11 
REMARK    4  A    between atoms: CB_5  and  CG_6 
REMARK    5  A    between atoms: CG_6  and  CD_7 
REMARK    6  A    between atoms: N_11  and  CA_12 
REMARK    7  A    between atoms: CA_12  and  C_13 
REMARK    8  A    between atoms: CA_12  and  CB_15 
REMARK       I    between atoms: C_13  and  N_22 
REMARK    9  A    between atoms: CB_15  and  CG_16 
REMARK       I    between atoms: CG_16  and  ND2_17 
REMARK   10  A    between atoms: CA_23  and  C_24 
REMARK       I    between atoms: C_24  and  N_29 
REMARK   11  A    between atoms: N_29  and  CA_30 
REMARK   12  A    between atoms: CA_30  and  C_31 
REMARK   13  A    between atoms: CA_30  and  CB_33 
REMARK       I    between atoms: C_31  and  N_39 
REMARK   14  A    between atoms: CB_33  and  CG_34 
REMARK   15  A    between atoms: CG_34  and  CD_35 
REMARK   16  A    between atoms: N_39  and  CA_40 
REMARK   17  A    between atoms: CA_40  and  C_41 
REMARK   18  A    between atoms: CA_40  and  CB_43 
REMARK       I    between atoms: C_41  and  N_47 
REMARK   19  A    between atoms: CB_43  and  OG_44 
REMARK   20  A    between atoms: N_47  and  CA_48 
REMARK   21  A    between atoms: CA_48  and  C_49 
REMARK   22  A    between atoms: CA_48  and  CB_51 
REMARK       I    between atoms: C_49  and  N_56 
REMARK   23  A    between atoms: CB_51  and  CG1_52 
REMARK   24  A    between atoms: N_56  and  CA_57 
REMARK   25  A    between atoms: CA_57  and  C_58 
REMARK   26  A    between atoms: CA_57  and  CB_60 
REMARK       I    between atoms: C_58  and  N_66 
REMARK   27  A    between atoms: CB_60  and  CG_61 
REMARK   28  A    between atoms: CG_61  and  CD_62 
REMARK   29  A    between atoms: N_66  and  CA_67 
REMARK   30  A    between atoms: CA_67  and  C_68 
REMARK   31  A    between atoms: CA_67  and  CB_70 
REMARK       I    between atoms: C_68  and  N_75 
REMARK   32  A    between atoms: CB_70  and  CG_71 
REMARK   33  A    between atoms: N_75  and  CA_76 
REMARK   34  A    between atoms: CA_76  and  C_77 
REMARK   35  A    between atoms: CA_76  and  CB_79 
REMARK       I    between atoms: C_77  and  N_85 
REMARK   36  A    between atoms: CB_79  and  CG_80 
REMARK   37  A    between atoms: CG_80  and  CD_81 
REMARK   38  A    between atoms: N_85  and  CA_86 
REMARK   39  A    between atoms: CA_86  and  C_87 
REMARK   40  A    between atoms: CA_86  and  CB_89 
REMARK       I    between atoms: C_87  and  N_97 
REMARK   41  A    between atoms: CB_89  and  CG_90 
REMARK   42  A    between atoms: N_97  and  CA_98 
REMARK   43  A    between atoms: CA_98  and  C_99 
REMARK   44  A    between atoms: CA_98  and  CB_101 
REMARK       I    between atoms: C_99  and  N_105 
REMARK   45  A    between atoms: N_105  and  CA_106 
REMARK   46  A    between atoms: CA_106  and  C_107 
REMARK   47  A    between atoms: CA_106  and  CB_109 
REMARK       I    between atoms: C_107  and  N_117 
REMARK   48  A    between atoms: CB_109  and  CG_110 
REMARK   49  A    between atoms: CG_110  and  CD_111 
REMARK       I    between atoms: CD_111  and  NE2_112 
REMARK   50  A    between atoms: N_117  and  CA_118 
REMARK   51  A    between atoms: CA_118  and  C_119 
REMARK   52  A    between atoms: CA_118  and  CB_121 
REMARK       I    between atoms: C_119  and  N_134 
REMARK   53  A    between atoms: CB_121  and  CG_122 
REMARK   54  A    between atoms: CG_122  and  CD_123 
REMARK   55  A    between atoms: CD_123  and  NE_124 
REMARK       I    between atoms: NE_124  and  CZ_125 
REMARK       I    between atoms: CZ_125  and  NH1_126 
REMARK       I    between atoms: CZ_125  and  NH2_127 
REMARK   56  A    between atoms: N_134  and  CA_135 
REMARK   57  A    between atoms: CA_135  and  C_136 
REMARK   58  A    between atoms: CA_135  and  CB_138 
REMARK       I    between atoms: C_136  and  N_142 
REMARK   59  A    between atoms: N_142  and  CA_143 
REMARK   60  A    between atoms: CA_143  and  C_144 
REMARK   61  A    between atoms: CA_143  and  CB_146 
REMARK       I    between atoms: C_144  and  N_151 
REMARK   62  A    between atoms: CB_146  and  CG_147 
REMARK   63  A    between atoms: CG_147  and  SD_148 
REMARK   64  A    between atoms: N_151  and  CA_152 
REMARK   65  A    between atoms: CA_152  and  C_153 
REMARK   66  A    between atoms: CA_152  and  CB_155 
REMARK   67  A    between atoms: CB_155  and  CG_156 
REMARK   68  A    between atoms: CG_156  and  CD_157 
REMARK   69  A    between atoms: CD_157  and  NE_158 
REMARK       I    between atoms: NE_158  and  CZ_159 
REMARK       I    between atoms: CZ_159  and  NH1_160 
ROOT
ATOM      1  C   GLU d   9    1175.580 338.370-1164.333  0.00  0.00     0.241 C 
ATOM      2  O   GLU d   9    1176.244 339.125-1165.059  0.00  0.00    -0.271 OA
ATOM      3  N   HIS d  10    1175.677 337.095-1164.501  0.00  0.00    -0.346 N 
ATOM      4  H   HIS d  10    1175.147 336.460-1163.923  0.00  0.00     0.163 HD
ENDROOT
BRANCH   1   5
ATOM      5  CA  GLU d   9    1174.662 338.898-1163.257  0.00  0.00     0.177 C 
BRANCH   5   6
ATOM      6  N   GLU d   9    1173.360 338.240-1163.311  0.00  0.00    -0.346 N 
ATOM      7  C   ASP d   8    1172.680 338.290-1164.406  0.00  0.00     0.241 C 
ATOM      8  O   ASP d   8    1173.152 338.895-1165.381  0.00  0.00    -0.271 OA
ATOM      9  H   GLU d   9    1172.997 337.754-1162.504  0.00  0.00     0.163 HD
BRANCH   7  10
ATOM     10  CA  ASP d   8    1171.333 337.610-1164.463  0.00  0.00     0.186 C 
BRANCH  10  11
ATOM     11  N   ASP d   8    1171.404 336.260-1163.909  0.00  0.00    -0.346 N 
ATOM     12  C   GLU d   7    1172.241 335.419-1164.415  0.00  0.00     0.241 C 
ATOM     13  O   GLU d   7    1172.961 335.781-1165.357  0.00  0.00    -0.271 OA
ATOM     14  H   ASP d   8    1170.806 335.990-1163.141  0.00  0.00     0.163 HD
BRANCH  12  15
ATOM     15  CA  GLU d   7    1172.314 334.025-1163.842  0.00  0.00     0.177 C 
BRANCH  15  16
ATOM     16  N   GLU d   7    1172.369 334.061-1162.383  0.00  0.00    -0.346 N 
ATOM     17  C   ILE d   6    1173.315 334.724-1161.810  0.00  0.00     0.241 C 
ATOM     18  O   ILE d   6    1174.150 335.312-1162.514  0.00  0.00    -0.271 OA
ATOM     19  H   GLU d   7    1171.677 333.574-1161.832  0.00  0.00     0.163 HD
BRANCH  17  20
ATOM     20  CA  ILE d   6    1173.372 334.762-1160.302  0.00  0.00     0.180 C 
BRANCH  20  21
ATOM     21  N   ILE d   6    1172.059 335.056-1159.735  0.00  0.00    -0.346 N 
ATOM     22  C   SER d   5    1171.454 336.139-1160.089  0.00  0.00     0.243 C 
ATOM     23  O   SER d   5    1172.001 336.893-1160.894  0.00  0.00    -0.271 OA
ATOM     24  H   ILE d   6    1171.631 334.422-1159.077  0.00  0.00     0.163 HD
BRANCH  22  25
ATOM     25  CA  SER d   5    1170.096 336.445-1159.504  0.00  0.00     0.200 C 
BRANCH  25  26
ATOM     26  N   SER d   5    1169.226 335.274-1159.562  0.00  0.00    -0.344 N 
ATOM     27  C   GLU d   4    1168.999 334.721-1160.705  0.00  0.00     0.241 C 
ATOM     28  O   GLU d   4    1169.525 335.201-1161.720  0.00  0.00    -0.271 OA
ATOM     29  H   SER d   5    1168.809 334.902-1158.721  0.00  0.00     0.163 HD
BRANCH  27  30
ATOM     30  CA  GLU d   4    1168.100 333.510-1160.766  0.00  0.00     0.177 C 
BRANCH  30  31
ATOM     31  N   GLU d   4    1168.460 332.539-1159.737  0.00  0.00    -0.346 N 
ATOM     32  C   PRO d   3    1169.664 332.079-1159.705  0.00  0.00     0.241 C 
ATOM     33  O   PRO d   3    1170.488 332.462-1160.536  0.00  0.00    -0.271 OA
ATOM     34  H   GLU d   4    1167.776 332.232-1159.060  0.00  0.00     0.163 HD
BRANCH  32  35
ATOM     35  CA  PRO d   3    1170.063 331.055-1158.628  0.00  0.00     0.179 C 
ATOM     36  N   PRO d   3    1169.611 331.464-1157.306  0.00  0.00    -0.337 N 
ATOM     37  C   ASN d   2    1170.132 332.460-1156.672  0.00  0.00     0.243 C 
ATOM     38  CD  PRO d   3    1168.533 330.671-1156.757  0.00  0.00     0.127 C 
ATOM     39  O   ASN d   2    1171.047 333.090-1157.201  0.00  0.00    -0.271 OA
ATOM     40  CG  PRO d   3    1168.075 329.853-1157.967  0.00  0.00     0.022 C 
ATOM     41  CB  PRO d   3    1169.359 329.700-1158.797  0.00  0.00     0.037 C 
BRANCH  37  42
ATOM     42  CA  ASN d   2    1169.601 332.815-1155.303  0.00  0.00     0.185 C 
BRANCH  42  43
ATOM     43  N   ASN d   2    1168.142 332.854-1155.303  0.00  0.00    -0.346 N 
ATOM     44  C   GLU d   1    1167.537 333.639-1156.129  0.00  0.00     0.242 C 
ATOM     45  O   GLU d   1    1168.213 334.339-1156.897  0.00  0.00    -0.271 OA
ATOM     46  H   ASN d   2    1167.614 332.274-1154.667  0.00  0.00     0.163 HD
BRANCH  44  47
ATOM     47  CA  GLU d   1    1166.028 333.680-1156.129  0.00  0.00     0.191 C 
BRANCH  47  48
ATOM     48  N   GLU d   1    1165.469 332.331-1156.129  0.00  0.00    -0.326 NA
ATOM     49  H   GLU d   1    1166.096 331.451-1156.129  0.00  0.00     0.180 HD
ENDBRANCH  47  48
BRANCH  47  50
ATOM     50  CB  GLU d   1    1165.505 334.464-1154.891  0.00  0.00     0.047 C 
BRANCH  50  51
ATOM     51  CG  GLU d   1    1165.980 335.949-1154.781  0.00  0.00     0.116 C 
BRANCH  51  52
ATOM     52  CD  GLU d   1    1165.556 336.753-1153.565  0.00  0.00     0.172 C 
ATOM     53  OE1 GLU d   1    1164.828 336.251-1152.688  0.00  0.00    -0.648 OA
ATOM     54  OE2 GLU d   1    1165.986 337.923-1153.494  0.00  0.00    -0.648 OA
ENDBRANCH  51  52
ENDBRANCH  50  51
ENDBRANCH  47  50
ENDBRANCH  44  47
ENDBRANCH  42  43
BRANCH  42  55
ATOM     55  CB  ASN d   2    1170.093 331.792-1154.239  0.00  0.00     0.137 C 
BRANCH  55  56
ATOM     56  CG  ASN d   2    1169.630 332.016-1152.796  0.00  0.00     0.217 C 
ATOM     57  ND2 ASN d   2    1170.224 332.931-1152.078  0.00  0.00    -0.370 N 
ATOM     58 21HD ASN d   2    1169.744 333.104-1151.191  0.00  0.00     0.159 HD
ATOM     59 22HD ASN d   2    1170.926 333.503-1152.547  0.00  0.00     0.159 HD
ATOM     60  OD1 ASN d   2    1168.710 331.382-1152.302  0.00  0.00    -0.274 OA
ENDBRANCH  55  56
ENDBRANCH  42  55
ENDBRANCH  37  42
ENDBRANCH  32  35
ENDBRANCH  30  31
BRANCH  30  61
ATOM     61  CB  GLU d   4    1166.611 333.928-1160.596  0.00  0.00     0.045 C 
BRANCH  61  62
ATOM     62  CG  GLU d   4    1166.063 334.932-1161.661  0.00  0.00     0.116 C 
BRANCH  62  63
ATOM     63  CD  GLU d   4    1164.636 335.429-1161.517  0.00  0.00     0.172 C 
ATOM     64  OE1 GLU d   4    1163.910 335.030-1160.587  0.00  0.00    -0.648 OA
ATOM     65  OE2 GLU d   4    1164.247 336.258-1162.366  0.00  0.00    -0.648 OA
ENDBRANCH  62  63
ENDBRANCH  61  62
ENDBRANCH  30  61
ENDBRANCH  27  30
ENDBRANCH  25  26
BRANCH  25  66
ATOM     66  CB  SER d   5    1170.207 336.977-1158.053  0.00  0.00     0.199 C 
BRANCH  66  67
ATOM     67  OG  SER d   5    1170.939 336.098-1157.192  0.00  0.00    -0.398 OA
ATOM     68  HG  SER d   5    1170.451 335.273-1157.142  0.00  0.00     0.209 HD
ENDBRANCH  66  67
ENDBRANCH  25  66
ENDBRANCH  22  25
ENDBRANCH  20  21
BRANCH  20  69
ATOM     69  CB  ILE d   6    1173.972 333.426-1159.702  0.00  0.00     0.013 C 
ATOM     70  CG2 ILE d   6    1175.414 333.124-1160.218  0.00  0.00     0.012 C 
BRANCH  69  71
ATOM     71  CG1 ILE d   6    1173.992 333.363-1158.141  0.00  0.00     0.002 C 
ATOM     72  CD1 ILE d   6    1174.262 331.974-1157.526  0.00  0.00     0.005 C 
ENDBRANCH  69  71
ENDBRANCH  20  69
ENDBRANCH  17  20
ENDBRANCH  15  16
BRANCH  15  73
ATOM     73  CB  GLU d   7    1171.088 333.184-1164.300  0.00  0.00     0.045 C 
BRANCH  73  74
ATOM     74  CG  GLU d   7    1170.922 333.012-1165.845  0.00  0.00     0.116 C 
BRANCH  74  75
ATOM     75  CD  GLU d   7    1169.713 332.255-1166.361  0.00  0.00     0.172 C 
ATOM     76  OE1 GLU d   7    1168.882 331.762-1165.574  0.00  0.00    -0.648 OA
ATOM     77  OE2 GLU d   7    1169.596 332.171-1167.602  0.00  0.00    -0.648 OA
ENDBRANCH  74  75
ENDBRANCH  73  74
ENDBRANCH  15  73
ENDBRANCH  12  15
ENDBRANCH  10  11
BRANCH  10  78
ATOM     78  CB  ASP d   8    1170.255 338.449-1163.721  0.00  0.00     0.147 C 
BRANCH  78  79
ATOM     79  CG  ASP d   8    1170.036 339.869-1164.262  0.00  0.00     0.175 C 
ATOM     80  OD1 ASP d   8    1170.100 340.068-1165.492  0.00  0.00    -0.648 OA
ATOM     81  OD2 ASP d   8    1169.844 340.796-1163.446  0.00  0.00    -0.648 OA
ENDBRANCH  78  79
ENDBRANCH  10  78
ENDBRANCH   7  10
ENDBRANCH   5   6
BRANCH   5  82
ATOM     82  CB  GLU d   9    1175.297 338.691-1161.851  0.00  0.00     0.045 C 
BRANCH  82  83
ATOM     83  CG  GLU d   9    1176.679 339.384-1161.623  0.00  0.00     0.116 C 
BRANCH  83  84
ATOM     84  CD  GLU d   9    1177.381 339.172-1160.295  0.00  0.00     0.172 C 
ATOM     85  OE1 GLU d   9    1176.860 338.481-1159.398  0.00  0.00    -0.648 OA
ATOM     86  OE2 GLU d   9    1178.501 339.710-1160.164  0.00  0.00    -0.648 OA
ENDBRANCH  83  84
ENDBRANCH  82  83
ENDBRANCH   5  82
ENDBRANCH   1   5
BRANCH   3  87
ATOM     87  CA  HIS d  10    1176.565 336.584-1165.542  0.00  0.00     0.182 C 
BRANCH  87  88
ATOM     88  C   HIS d  10    1176.197 337.148-1166.893  0.00  0.00     0.241 C 
ATOM     89  O   HIS d  10    1177.049 337.612-1167.666  0.00  0.00    -0.271 OA
ATOM     90  N   VAL d  11    1174.959 337.146-1167.256  0.00  0.00    -0.346 N 
ATOM     91  H   VAL d  11    1174.247 336.773-1166.645  0.00  0.00     0.163 HD
BRANCH  90  92
ATOM     92  CA  VAL d  11    1174.603 337.691-1168.562  0.00  0.00     0.180 C 
BRANCH  92  93
ATOM     93  C   VAL d  11    1175.067 339.122-1168.696  0.00  0.00     0.241 C 
ATOM     94  O   VAL d  11    1175.667 339.527-1169.699  0.00  0.00    -0.271 OA
ATOM     95  N   GLN d  12    1174.830 339.948-1167.733  0.00  0.00    -0.346 N 
ATOM     96  H   GLN d  12    1174.342 339.642-1166.904  0.00  0.00     0.163 HD
BRANCH  95  97
ATOM     97  CA  GLN d  12    1175.278 341.332-1167.861  0.00  0.00     0.177 C 
BRANCH  97  98
ATOM     98  C   GLN d  12    1176.768 341.399-1168.100  0.00  0.00     0.241 C 
ATOM     99  O   GLN d  12    1177.254 342.108-1168.979  0.00  0.00    -0.271 OA
ATOM    100  N   ARG d  13    1177.553 340.693-1167.359  0.00  0.00    -0.346 N 
ATOM    101  H   ARG d  13    1177.177 340.103-1166.630  0.00  0.00     0.163 HD
BRANCH 100 102
ATOM    102  CA  ARG d  13    1178.993 340.759-1167.591  0.00  0.00     0.176 C 
BRANCH 102 103
ATOM    103  C   ARG d  13    1179.329 340.388-1169.016  0.00  0.00     0.241 C 
ATOM    104  O   ARG d  13    1180.097 341.060-1169.701  0.00  0.00    -0.271 OA
ATOM    105  N   VAL d  14    1178.793 339.333-1169.530  0.00  0.00    -0.346 N 
ATOM    106  H   VAL d  14    1178.158 338.764-1168.988  0.00  0.00     0.163 HD
BRANCH 105 107
ATOM    107  CA  VAL d  14    1179.117 338.974-1170.907  0.00  0.00     0.180 C 
BRANCH 107 108
ATOM    108  C   VAL d  14    1178.786 340.104-1171.853  0.00  0.00     0.241 C 
ATOM    109  O   VAL d  14    1179.579 340.485-1172.723  0.00  0.00    -0.271 OA
ATOM    110  N   MET d  15    1177.641 340.689-1171.751  0.00  0.00    -0.346 N 
ATOM    111  H   MET d  15    1176.976 340.396-1171.049  0.00  0.00     0.163 HD
BRANCH 110 112
ATOM    112  CA  MET d  15    1177.319 341.781-1172.664  0.00  0.00     0.177 C 
BRANCH 112 113
ATOM    113  C   MET d  15    1178.349 342.882-1172.577  0.00  0.00     0.241 C 
ATOM    114  O   MET d  15    1178.851 343.393-1173.590  0.00  0.00    -0.271 OA
ATOM    115  N   ARG d  16    1178.719 343.303-1171.415  0.00  0.00    -0.347 N 
ATOM    116  H   ARG d  16    1178.324 342.903-1170.576  0.00  0.00     0.163 HD
BRANCH 115 117
ATOM    117  CA  ARG d  16    1179.715 344.367-1171.332  0.00  0.00     0.162 C 
BRANCH 117 118
ATOM    118  C   ARG d  16    1180.985 343.975-1172.049  0.00  0.00     0.219 C 
ATOM    119  O   ARG d  16    1181.099 342.899-1172.630  0.00  0.00    -0.287 OA
ENDBRANCH 117 118
BRANCH 117 120
ATOM    120  CB  ARG d  16    1179.984 344.686-1169.834  0.00  0.00     0.035 C 
BRANCH 120 121
ATOM    121  CG  ARG d  16    1180.809 345.975-1169.562  0.00  0.00     0.023 C 
BRANCH 121 122
ATOM    122  CD  ARG d  16    1181.059 346.195-1168.061  0.00  0.00     0.138 C 
BRANCH 122 123
ATOM    123  NE  ARG d  16    1181.835 347.454-1167.860  0.00  0.00    -0.227 N 
ATOM    124  CZ  ARG d  16    1182.226 347.937-1166.685  0.00  0.00     0.665 C 
ATOM    125  NH1 ARG d  16    1181.979 347.353-1165.546  0.00  0.00    -0.235 N 
ATOM    126  NH2 ARG d  16    1182.890 349.050-1166.667  0.00  0.00    -0.235 N 
ATOM    127 11HH ARG d  16    1181.454 346.479-1165.630  0.00  0.00     0.174 HD
ATOM    128 12HH ARG d  16    1182.314 347.789-1164.685  0.00  0.00     0.174 HD
ATOM    129 21HH ARG d  16    1183.075 349.493-1167.569  0.00  0.00     0.174 HD
ATOM    130 22HH ARG d  16    1183.180 349.405-1165.755  0.00  0.00     0.174 HD
ATOM    131  HE  ARG d  16    1182.113 348.035-1168.658  0.00  0.00     0.177 HD
ENDBRANCH 122 123
ENDBRANCH 121 122
ENDBRANCH 120 121
ENDBRANCH 117 120
ENDBRANCH 115 117
ENDBRANCH 112 113
BRANCH 112 132
ATOM    132  CB  MET d  15    1175.898 342.327-1172.355  0.00  0.00     0.045 C 
BRANCH 132 133
ATOM    133  CG  MET d  15    1174.736 341.328-1172.546  0.00  0.00     0.076 C 
BRANCH 133 134
ATOM    134  SD  MET d  15    1173.162 342.193-1172.431  0.00  0.00    -0.173 SA
ATOM    135  CE  MET d  15    1172.082 340.763-1172.293  0.00  0.00     0.089 C 
ENDBRANCH 133 134
ENDBRANCH 132 133
ENDBRANCH 112 132
ENDBRANCH 110 112
ENDBRANCH 107 108
BRANCH 107 136
ATOM    136  CB  VAL d  14    1178.345 337.657-1171.314  0.00  0.00     0.009 C 
ATOM    137  CG1 VAL d  14    1178.433 337.238-1172.807  0.00  0.00     0.012 C 
ATOM    138  CG2 VAL d  14    1178.778 336.405-1170.514  0.00  0.00     0.012 C 
ENDBRANCH 107 136
ENDBRANCH 105 107
ENDBRANCH 102 103
BRANCH 102 139
ATOM    139  CB  ARG d  13    1179.707 339.821-1166.577  0.00  0.00     0.036 C 
BRANCH 139 140
ATOM    140  CG  ARG d  13    1181.252 339.975-1166.497  0.00  0.00     0.023 C 
BRANCH 140 141
ATOM    141  CD  ARG d  13    1181.880 338.987-1165.500  0.00  0.00     0.138 C 
BRANCH 141 142
ATOM    142  NE  ARG d  13    1183.357 339.195-1165.450  0.00  0.00    -0.227 N 
ATOM    143  CZ  ARG d  13    1184.206 338.504-1164.695  0.00  0.00     0.665 C 
ATOM    144  NH1 ARG d  13    1183.842 337.539-1163.897  0.00  0.00    -0.235 N 
ATOM    145  NH2 ARG d  13    1185.465 338.803-1164.753  0.00  0.00    -0.235 N 
ATOM    146 11HH ARG d  13    1182.836 337.353-1163.900  0.00  0.00     0.174 HD
ATOM    147 12HH ARG d  13    1184.555 337.057-1163.349  0.00  0.00     0.174 HD
ATOM    148 21HH ARG d  13    1185.732 339.561-1165.384  0.00  0.00     0.174 HD
ATOM    149 22HH ARG d  13    1186.101 338.262-1164.164  0.00  0.00     0.174 HD
ATOM    150  HE  ARG d  13    1183.808 339.918-1166.021  0.00  0.00     0.177 HD
ENDBRANCH 141 142
ENDBRANCH 140 141
ENDBRANCH 139 140
ENDBRANCH 102 139
ENDBRANCH 100 102
ENDBRANCH  97  98
BRANCH  97 151
ATOM    151  CB  GLN d  12    1174.887 342.099-1166.579  0.00  0.00     0.044 C 
BRANCH 151 152
ATOM    152  CG  GLN d  12    1175.247 343.621-1166.548  0.00  0.00     0.105 C 
BRANCH 152 153
ATOM    153  CD  GLN d  12    1174.944 344.435-1165.284  0.00  0.00     0.215 C 
ATOM    154  NE2 GLN d  12    1174.378 343.859-1164.254  0.00  0.00    -0.370 N 
ATOM    155 21HE GLN d  12    1174.271 344.453-1163.431  0.00  0.00     0.159 HD
ATOM    156 22HE GLN d  12    1174.215 342.855-1164.357  0.00  0.00     0.159 HD
ATOM    157  OE1 GLN d  12    1175.246 345.616-1165.207  0.00  0.00    -0.274 OA
ENDBRANCH 152 153
ENDBRANCH 151 152
ENDBRANCH  97 151
ENDBRANCH  95  97
ENDBRANCH  92  93
BRANCH  92 158
ATOM    158  CB  VAL d  11    1173.042 337.584-1168.781  0.00  0.00     0.009 C 
ATOM    159  CG1 VAL d  11    1172.472 338.287-1170.044  0.00  0.00     0.012 C 
ATOM    160  CG2 VAL d  11    1172.518 336.130-1168.854  0.00  0.00     0.012 C 
ENDBRANCH  92 158
ENDBRANCH  90  92
ENDBRANCH  87  88
BRANCH  87 161
ATOM    161  CB  HIS d  10    1176.401 335.055-1165.536  0.00  0.00     0.095 C 
BRANCH 161 162
ATOM    162  CG  HIS d  10    1177.687 334.345-1165.229  0.00  0.00     0.053 A 
ATOM    163  CD2 HIS d  10    1178.069 334.010-1163.936  0.00  0.00     0.116 A 
ATOM    164  NE2 HIS d  10    1179.284 333.379-1164.003  0.00  0.00    -0.359 N 
ATOM    165  CE1 HIS d  10    1179.546 333.382-1165.338  0.00  0.00     0.207 A 
ATOM    166  2HE HIS d  10    1179.851 333.002-1163.230  0.00  0.00     0.166 HD
ATOM    167  ND1 HIS d  10    1178.639 333.939-1166.161  0.00  0.00    -0.247 NA
ENDBRANCH 161 162
ENDBRANCH  87 161
ENDBRANCH   3  87
TORSDOF 69
