@<TRIPOS>MOLECULE
9-16
267 268 16              
SMALL
USER_CHARGES
@<TRIPOS>ATOM
1	   N	1476.190	434.683	-1493.106	N.3	1	GLU1	-0.516	
2	  CA	1476.749	436.032	-1493.106	C.3	1	GLU1	0.040	
3	   C	1478.258	435.992	-1493.106	C.2	1	GLU1	0.537	
4	   O	1478.934	436.691	-1493.875	O.2	1	GLU1	-0.582	
5	  CB	1476.226	436.817	-1491.869	C.3	1	GLU1	0.056	
6	  CG	1476.701	438.302	-1491.758	C.3	1	GLU1	0.014	
7	  CD	1476.277	439.106	-1490.543	C.2	1	GLU1	0.805	
8	 OE1	1475.549	438.604	-1489.665	O.co2	1	GLU1	-0.819	
9	 OE2	1476.707	440.276	-1490.471	O.co2	1	GLU1	-0.819	
10	   H	1476.817	433.804	-1493.106	 H	1	GLU1	0.294	
11	  HA	1476.423	436.550	-1494.026	 H	1	GLU1	0.111	
12	 2HB	1476.515	436.286	-1490.939	 H	1	GLU1	-0.017	
13	 3HB	1475.119	436.807	-1491.856	 H	1	GLU1	-0.017	
14	 2HG	1476.391	438.887	-1492.639	 H	1	GLU1	-0.043	
15	 3HG	1477.801	438.369	-1491.729	 H	1	GLU1	-0.043	
16	   N	1478.862	435.206	-1492.281	N.am	2	ASN2	-0.416	
17	  CA	1480.322	435.168	-1492.281	C.3	2	ASN2	0.014	
18	   C	1480.853	434.812	-1493.650	C.2	2	ASN2	0.597	
19	   O	1481.768	435.443	-1494.179	O.2	2	ASN2	-0.568	
20	  CB	1480.814	434.145	-1491.217	C.3	2	ASN2	-0.204	
21	  CG	1480.351	434.369	-1489.774	C.2	2	ASN2	0.713	
22	 ND2	1480.945	435.284	-1489.055	N.pl3	2	ASN2	-0.919	
23	 OD1	1479.430	433.735	-1489.279	O.2	2	ASN2	-0.593	
24	   H	1478.334	434.627	-1491.645	 H	2	ASN2	0.272	
25	  HA	1480.699	436.178	-1492.036	 H	2	ASN2	0.105	
26	 2HB	1481.918	434.086	-1491.221	 H	2	ASN2	0.080	
27	 3HB	1480.485	433.127	-1491.503	 H	2	ASN2	0.080	
28	1HD2	1480.464	435.457	-1488.169	 H	2	ASN2	0.420	
29	2HD2	1481.647	435.855	-1489.525	 H	2	ASN2	0.420	
30	   N	1480.331	433.817	-1494.284	N.am	3	PRO3	-0.255	
31	  CA	1480.783	433.408	-1495.606	C.3	3	PRO3	-0.027	
32	   C	1480.385	434.431	-1496.682	C.2	3	PRO3	0.590	
33	   O	1481.208	434.814	-1497.514	O.2	3	PRO3	-0.575	
34	  CB	1480.079	432.053	-1495.775	C.3	3	PRO3	-0.007	
35	  CG	1478.796	432.205	-1494.945	C.3	3	PRO3	0.019	
36	  CD	1479.253	433.024	-1493.735	C.3	3	PRO3	0.019	
37	  HA	1481.869	433.288	-1495.619	 H	3	PRO3	0.064	
38	 2HB	1480.702	431.272	-1495.334	 H	3	PRO3	0.025	
39	 3HB	1479.881	431.805	-1496.820	 H	3	PRO3	0.025	
40	 2HG	1478.368	431.243	-1494.654	 H	3	PRO3	0.021	
41	 3HG	1478.058	432.776	-1495.512	 H	3	PRO3	0.021	
42	 2HD	1479.643	432.375	-1492.947	 H	3	PRO3	0.039	
43	 3HD	1478.457	433.660	-1493.342	 H	3	PRO3	0.039	
44	   N	1479.180	434.891	-1496.715	N.am	4	GLU4	-0.516	
45	  CA	1478.820	435.862	-1497.744	C.3	4	GLU4	0.040	
46	   C	1479.719	437.074	-1497.683	C.2	4	GLU4	0.537	
47	   O	1480.245	437.553	-1498.698	O.2	4	GLU4	-0.582	
48	  CB	1477.332	436.281	-1497.574	C.3	4	GLU4	0.056	
49	  CG	1476.783	437.285	-1498.639	C.3	4	GLU4	0.014	
50	  CD	1475.357	437.781	-1498.495	C.2	4	GLU4	0.805	
51	 OE1	1474.631	437.383	-1497.564	O.co2	4	GLU4	-0.819	
52	 OE2	1474.967	438.610	-1499.344	O.co2	4	GLU4	-0.819	
53	   H	1478.496	434.585	-1496.038	 H	4	GLU4	0.294	
54	  HA	1478.951	435.392	-1498.735	 H	4	GLU4	0.111	
55	 2HB	1477.179	436.721	-1496.567	 H	4	GLU4	-0.017	
56	 3HB	1476.684	435.383	-1497.580	 H	4	GLU4	-0.017	
57	 2HG	1476.865	436.870	-1499.657	 H	4	GLU4	-0.043	
58	 3HG	1477.371	438.217	-1498.650	 H	4	GLU4	-0.043	
59	   N	1479.947	437.626	-1496.540	N.am	5	SER5	-0.416	
60	  CA	1480.816	438.798	-1496.482	C.3	5	SER5	-0.025	
61	   C	1482.175	438.492	-1497.067	C.2	5	SER5	0.597	
62	   O	1482.722	439.246	-1497.872	O.2	5	SER5	-0.568	
63	  CB	1480.928	439.330	-1495.031	C.3	5	SER5	0.212	
64	  OG	1481.660	438.450	-1494.170	O.3	5	SER5	-0.655	
65	   H	1479.530	437.255	-1495.698	 H	5	SER5	0.272	
66	  HA	1480.367	439.588	-1497.110	 H	5	SER5	0.084	
67	 2HB	1479.928	439.523	-1494.598	 H	5	SER5	0.035	
68	 3HB	1481.433	440.315	-1495.033	 H	5	SER5	0.035	
69	  HG	1481.171	437.625	-1494.120	 H	5	SER5	0.428	
70	   N	1482.780	437.409	-1496.713	N.am	6	ILE6	-0.416	
71	  CA	1484.093	437.115	-1497.280	C.3	6	ILE6	-0.060	
72	   C	1484.036	437.077	-1498.788	C.2	6	ILE6	0.597	
73	   O	1484.870	437.665	-1499.492	O.2	6	ILE6	-0.568	
74	  CB	1484.693	435.778	-1496.680	C.3	6	ILE6	0.130	
75	 CG1	1484.712	435.716	-1495.119	C.3	6	ILE6	-0.043	
76	 CG2	1486.134	435.477	-1497.195	C.3	6	ILE6	-0.320	
77	 CD1	1484.982	434.327	-1494.504	C.3	6	ILE6	-0.066	
78	   H	1482.351	436.775	-1496.054	 H	6	ILE6	0.272	
79	  HA	1484.767	437.949	-1497.012	 H	6	ILE6	0.087	
80	  HB	1484.035	434.952	-1497.024	 H	6	ILE6	0.019	
81	2HG1	1483.730	436.036	-1494.723	 H	6	ILE6	0.024	
82	3HG1	1485.428	436.458	-1494.714	 H	6	ILE6	0.024	
83	1HG2	1486.193	435.383	-1498.294	 H	6	ILE6	0.088	
84	2HG2	1486.856	436.259	-1496.893	 H	6	ILE6	0.088	
85	3HG2	1486.524	434.515	-1496.817	 H	6	ILE6	0.088	
86	1HD1	1484.254	433.573	-1494.859	 H	6	ILE6	0.019	
87	2HD1	1485.993	433.948	-1494.740	 H	6	ILE6	0.019	
88	3HD1	1484.906	434.357	-1493.402	 H	6	ILE6	0.019	
89	   N	1483.090	436.414	-1499.361	N.am	7	LEU7	-0.416	
90	  CA	1483.035	436.378	-1500.820	C.3	7	LEU7	-0.052	
91	   C	1482.962	437.773	-1501.392	C.2	7	LEU7	0.597	
92	   O	1483.682	438.136	-1502.334	O.2	7	LEU7	-0.568	
93	  CB	1481.832	435.518	-1501.300	C.3	7	LEU7	-0.110	
94	  CG	1481.759	434.038	-1500.834	C.3	7	LEU7	0.353	
95	 CD1	1480.569	433.332	-1501.500	C.3	7	LEU7	-0.412	
96	 CD2	1483.052	433.259	-1501.126	C.3	7	LEU7	-0.412	
97	   H	1482.398	435.926	-1498.810	 H	7	LEU7	0.272	
98	  HA	1483.976	435.938	-1501.194	 H	7	LEU7	0.092	
99	 2HB	1481.808	435.534	-1502.408	 H	7	LEU7	0.046	
100	 3HB	1480.892	436.020	-1500.996	 H	7	LEU7	0.046	
101	  HG	1481.589	434.030	-1499.737	 H	7	LEU7	-0.036	
102	1HD1	1479.612	433.841	-1501.277	 H	7	LEU7	0.100	
103	2HD1	1480.668	433.292	-1502.601	 H	7	LEU7	0.100	
104	3HD1	1480.462	432.291	-1501.144	 H	7	LEU7	0.100	
105	1HD2	1483.328	433.290	-1502.196	 H	7	LEU7	0.100	
106	2HD2	1483.906	433.671	-1500.554	 H	7	LEU7	0.100	
107	3HD2	1482.971	432.197	-1500.830	 H	7	LEU7	0.100	
108	   N	1482.125	438.614	-1500.885	N.am	8	ASP8	-0.516	
109	  CA	1482.054	439.963	-1501.438	C.3	8	ASP8	0.038	
110	   C	1483.401	440.643	-1501.381	C.2	8	ASP8	0.537	
111	   O	1483.874	441.249	-1502.355	O.2	8	ASP8	-0.582	
112	  CB	1480.976	440.802	-1500.696	C.3	8	ASP8	-0.030	
113	  CG	1480.757	442.223	-1501.236	C.2	8	ASP8	0.799	
114	 OD1	1480.821	442.422	-1502.467	O.co2	8	ASP8	-0.801	
115	 OD2	1480.565	443.149	-1500.421	O.co2	8	ASP8	-0.801	
116	   H	1481.527	438.342	-1500.118	 H	8	ASP8	0.294	
117	  HA	1481.771	439.886	-1502.505	 H	8	ASP8	0.088	
118	 2HB	1481.234	440.885	-1499.625	 H	8	ASP8	-0.012	
119	 3HB	1479.997	440.297	-1500.729	 H	8	ASP8	-0.012	
120	   N	1484.081	440.593	-1500.286	N.am	9	GLN9	-0.416	
121	  CA	1485.383	441.251	-1500.230	C.3	9	GLN9	-0.003	
122	   C	1486.302	440.724	-1501.306	C.2	9	GLN9	0.597	
123	   O	1486.961	441.474	-1502.024	O.2	9	GLN9	-0.568	
124	  CB	1485.990	441.030	-1498.826	C.3	9	GLN9	-0.004	
125	  CG	1487.375	441.704	-1498.559	C.3	9	GLN9	-0.064	
126	  CD	1488.068	441.479	-1497.209	C.2	9	GLN9	0.695	
127	 NE2	1487.491	440.743	-1496.293	N.pl3	9	GLN9	-0.941	
128	 OE1	1489.168	441.956	-1496.977	O.2	9	GLN9	-0.609	
129	   H	1483.717	440.107	-1499.479	 H	9	GLN9	0.272	
130	  HA	1485.242	442.333	-1500.410	 H	9	GLN9	0.085	
131	 2HB	1486.081	439.938	-1498.649	 H	9	GLN9	0.017	
132	 3HB	1485.270	441.389	-1498.065	 H	9	GLN9	0.017	
133	 2HG	1487.302	442.797	-1498.716	 H	9	GLN9	0.035	
134	 3HG	1488.116	441.370	-1499.308	 H	9	GLN9	0.035	
135	1HE2	1488.047	440.590	-1495.450	 H	9	GLN9	0.425	
136	2HE2	1486.606	440.318	-1496.575	 H	9	GLN9	0.425	
137	   N	1486.401	439.449	-1501.477	N.am	10	HIS10	-0.416	
138	  CA	1487.290	438.940	-1502.517	C.3	10	HIS10	-0.058	
139	   C	1486.923	439.506	-1503.868	C.2	10	HIS10	0.597	
140	   O	1487.776	439.972	-1504.638	O.2	10	HIS10	-0.568	
141	  CB	1487.128	437.411	-1502.514	C.3	10	HIS10	-0.007	
142	  CG	1488.414	436.702	-1502.206	C.2	10	HIS10	0.187	
143	 CD2	1488.794	436.365	-1500.913	C.2	10	HIS10	-0.221	
144	 ND1	1489.367	436.298	-1503.138	N.2	10	HIS10	-0.543	
145	 CE1	1490.274	435.740	-1502.315	C.2	10	HIS10	0.163	
146	 NE2	1490.010	435.735	-1500.980	N.pl3	10	HIS10	-0.280	
147	   H	1485.870	438.812	-1500.900	 H	10	HIS10	0.272	
148	  HA	1488.308	439.298	-1502.291	 H	10	HIS10	0.136	
149	 2HB	1486.764	437.045	-1503.495	 H	10	HIS10	0.037	
150	 3HB	1486.372	437.072	-1501.775	 H	10	HIS10	0.037	
151	 2HD	1488.208	436.578	-1500.025	 H	10	HIS10	0.186	
152	 1HE	1491.165	435.320	-1502.761	 H	10	HIS10	0.144	
153	 2HE	1490.576	435.357	-1500.206	 H	10	HIS10	0.334	
154	   N	1485.686	439.504	-1504.232	N.am	11	VAL11	-0.416	
155	  CA	1485.331	440.051	-1505.538	C.3	11	VAL11	-0.087	
156	   C	1485.794	441.482	-1505.668	C.2	11	VAL11	0.597	
157	   O	1486.395	441.889	-1506.671	O.2	11	VAL11	-0.568	
158	  CB	1483.770	439.943	-1505.759	C.3	11	VAL11	0.299	
159	 CG1	1483.201	440.648	-1507.021	C.3	11	VAL11	-0.319	
160	 CG2	1483.247	438.488	-1505.834	C.3	11	VAL11	-0.319	
161	   H	1484.973	439.129	-1503.622	 H	11	VAL11	0.272	
162	  HA	1485.852	439.470	-1506.321	 H	11	VAL11	0.097	
163	  HB	1483.281	440.421	-1504.883	 H	11	VAL11	-0.030	
164	1HG1	1483.641	440.257	-1507.958	 H	11	VAL11	0.079	
165	2HG1	1482.103	440.539	-1507.104	 H	11	VAL11	0.079	
166	3HG1	1483.378	441.740	-1507.010	 H	11	VAL11	0.079	
167	1HG2	1483.537	437.900	-1504.944	 H	11	VAL11	0.079	
168	2HG2	1482.142	438.450	-1505.877	 H	11	VAL11	0.079	
169	3HG2	1483.630	437.949	-1506.721	 H	11	VAL11	0.079	
170	   N	1485.555	442.307	-1504.705	N.am	12	GLN12	-0.416	
171	  CA	1486.002	443.690	-1504.831	C.3	12	GLN12	-0.003	
172	   C	1487.492	443.760	-1505.067	C.2	12	GLN12	0.597	
173	   O	1487.979	444.470	-1505.945	O.2	12	GLN12	-0.568	
174	  CB	1485.609	444.456	-1503.547	C.3	12	GLN12	-0.004	
175	  CG	1485.967	445.978	-1503.514	C.3	12	GLN12	-0.064	
176	  CD	1485.663	446.790	-1502.249	C.2	12	GLN12	0.695	
177	 NE2	1485.096	446.211	-1501.221	N.pl3	12	GLN12	-0.941	
178	 OE1	1485.963	447.971	-1502.170	O.2	12	GLN12	-0.609	
179	   H	1485.066	441.999	-1503.877	 H	12	GLN12	0.272	
180	  HA	1485.502	444.147	-1505.705	 H	12	GLN12	0.085	
181	 2HB	1486.085	443.955	-1502.678	 H	12	GLN12	0.017	
182	 3HB	1484.519	444.347	-1503.385	 H	12	GLN12	0.017	
183	 2HG	1485.490	446.499	-1504.365	 H	12	GLN12	0.035	
184	 3HG	1487.051	446.122	-1503.679	 H	12	GLN12	0.035	
185	1HE2	1484.988	446.805	-1500.397	 H	12	GLN12	0.425	
186	2HE2	1484.934	445.208	-1501.326	 H	12	GLN12	0.425	
187	   N	1488.277	443.053	-1504.327	N.am	13	ARG13	-0.348	
188	  CA	1489.717	443.121	-1504.556	C.3	13	ARG13	-0.264	
189	   C	1490.055	442.752	-1505.982	C.2	13	ARG13	0.734	
190	   O	1490.823	443.425	-1506.664	O.2	13	ARG13	-0.589	
191	  CB	1490.431	442.182	-1503.543	C.3	13	ARG13	-0.001	
192	  CG	1491.976	442.337	-1503.461	C.3	13	ARG13	0.039	
193	  CD	1492.603	441.349	-1502.464	C.3	13	ARG13	0.049	
194	  NE	1494.080	441.558	-1502.412	N.pl3	13	ARG13	-0.530	
195	  CZ	1494.928	440.866	-1501.657	C.cat	13	ARG13	0.808	
196	 NH1	1494.564	439.900	-1500.861	N.pl3	13	ARG13	-0.863	
197	 NH2	1496.188	441.167	-1501.713	N.pl3	13	ARG13	-0.863	
198	   H	1487.901	442.462	-1503.599	 H	13	ARG13	0.275	
199	  HA	1490.040	444.167	-1504.397	 H	13	ARG13	0.156	
200	 2HB	1490.166	441.131	-1503.784	 H	13	ARG13	0.033	
201	 3HB	1490.005	442.347	-1502.532	 H	13	ARG13	0.033	
202	 2HG	1492.222	443.381	-1503.180	 H	13	ARG13	0.029	
203	 3HG	1492.427	442.182	-1504.462	 H	13	ARG13	0.029	
204	 2HD	1492.360	440.309	-1502.774	 H	13	ARG13	0.069	
205	 3HD	1492.146	441.493	-1501.461	 H	13	ARG13	0.069	
206	  HE	1494.531	442.281	-1502.982	 H	13	ARG13	0.346	
207	1HH1	1493.559	439.713	-1500.865	 H	13	ARG13	0.448	
208	2HH1	1495.277	439.418	-1500.312	 H	13	ARG13	0.448	
209	1HH2	1496.455	441.926	-1502.343	 H	13	ARG13	0.448	
210	2HH2	1496.823	440.626	-1501.124	 H	13	ARG13	0.448	
211	   N	1489.520	441.697	-1506.498	N.am	14	VAL14	-0.416	
212	  CA	1489.847	441.340	-1507.875	C.3	14	VAL14	-0.087	
213	   C	1489.516	442.470	-1508.820	C.2	14	VAL14	0.597	
214	   O	1490.310	442.853	-1509.688	O.2	14	VAL14	-0.568	
215	  CB	1489.076	440.022	-1508.284	C.3	14	VAL14	0.299	
216	 CG1	1489.167	439.606	-1509.778	C.3	14	VAL14	-0.319	
217	 CG2	1489.509	438.769	-1507.485	C.3	14	VAL14	-0.319	
218	   H	1488.886	441.127	-1505.957	 H	14	VAL14	0.272	
219	  HA	1490.935	441.164	-1507.949	 H	14	VAL14	0.097	
220	  HB	1487.999	440.192	-1508.069	 H	14	VAL14	-0.030	
221	1HG1	1490.209	439.430	-1510.106	 H	14	VAL14	0.079	
222	2HG1	1488.595	438.682	-1509.992	 H	14	VAL14	0.079	
223	3HG1	1488.737	440.368	-1510.456	 H	14	VAL14	0.079	
224	1HG2	1489.421	438.927	-1506.395	 H	14	VAL14	0.079	
225	2HG2	1488.874	437.893	-1507.719	 H	14	VAL14	0.079	
226	3HG2	1490.557	438.481	-1507.690	 H	14	VAL14	0.079	
227	   N	1488.370	443.055	-1508.719	N.am	15	MET15	-0.416	
228	  CA	1488.050	444.148	-1509.632	C.3	15	MET15	-0.024	
229	   C	1489.079	445.249	-1509.542	C.2	15	MET15	0.597	
230	   O	1489.582	445.761	-1510.554	O.2	15	MET15	-0.568	
231	  CB	1486.627	444.692	-1509.323	C.3	15	MET15	0.034	
232	  CG	1485.467	443.693	-1509.517	C.3	15	MET15	0.002	
233	  SD	1483.892	444.557	-1509.404	S.3	15	MET15	-0.274	
234	  CE	1482.812	443.126	-1509.269	C.3	15	MET15	-0.054	
235	   H	1487.705	442.761	-1508.018	 H	15	MET15	0.272	
236	  HA	1488.077	443.762	-1510.667	 H	15	MET15	0.088	
237	 2HB	1486.425	445.571	-1509.965	 H	15	MET15	0.024	
238	 3HB	1486.591	445.084	-1508.287	 H	15	MET15	0.024	
239	 2HG	1485.510	442.906	-1508.740	 H	15	MET15	0.044	
240	 3HG	1485.531	443.179	-1510.494	 H	15	MET15	0.044	
241	 1HE	1482.957	442.439	-1510.122	 H	15	MET15	0.068	
242	 2HE	1483.021	442.573	-1508.337	 H	15	MET15	0.068	
243	 3HE	1481.754	443.440	-1509.253	 H	15	MET15	0.068	
244	   N	1489.446	445.669	-1508.379	N.am	16	ARG16	-0.348	
245	  CA	1490.441	446.734	-1508.293	C.3	16	ARG16	-0.264	
246	   C	1491.713	446.343	-1509.009	C.2	16	ARG16	0.734	
247	   O	1491.828	445.267	-1509.591	O.2	16	ARG16	-0.589	
248	  CB	1490.709	447.051	-1506.795	C.3	16	ARG16	-0.001	
249	  CG	1491.532	448.341	-1506.520	C.3	16	ARG16	0.039	
250	  CD	1491.780	448.559	-1505.018	C.3	16	ARG16	0.049	
251	  NE	1492.555	449.819	-1504.816	N.pl3	16	ARG16	-0.530	
252	  CZ	1492.945	450.300	-1503.639	C.cat	16	ARG16	0.808	
253	 NH1	1492.697	449.715	-1502.501	N.pl3	16	ARG16	-0.863	
254	 NH2	1493.608	451.414	-1503.619	N.pl3	16	ARG16	-0.863	
255	   H	1489.051	445.268	-1507.540	 H	16	ARG16	0.275	
256	  HA	1490.032	447.627	-1508.803	 H	16	ARG16	0.156	
257	 2HB	1491.206	446.175	-1506.329	 H	16	ARG16	0.033	
258	 3HB	1489.739	447.131	-1506.262	 H	16	ARG16	0.033	
259	 2HG	1491.001	449.211	-1506.957	 H	16	ARG16	0.029	
260	 3HG	1492.506	448.289	-1507.048	 H	16	ARG16	0.029	
261	 2HD	1492.330	447.685	-1504.605	 H	16	ARG16	0.069	
262	 3HD	1490.807	448.600	-1504.484	 H	16	ARG16	0.069	
263	  HE	1492.834	450.400	-1505.612	 H	16	ARG16	0.346	
264	1HH1	1492.172	448.841	-1502.587	 H	16	ARG16	0.448	
265	2HH1	1493.030	450.150	-1501.640	 H	16	ARG16	0.448	
266	1HH2	1493.794	451.858	-1504.521	 H	16	ARG16	0.448	
267	2HH2	1493.897	451.768	-1502.706	 H	16	ARG16	0.448	
@<TRIPOS>BOND
1 1 2 1
2 1 10 1
3 2 3 1
4 2 5 1
5 2 11 1
6 3 4 2
7 3 16 1
8 5 6 1
9 6 7 1
10 7 8 2
11 7 9 1
12 5 12 1
13 5 13 1
14 6 14 1
15 6 15 1
16 16 17 1
17 16 24 1
18 17 18 1
19 17 20 1
20 17 25 1
21 18 19 2
22 18 30 1
23 20 21 1
24 21 22 1
25 21 23 2
26 20 26 1
27 20 27 1
28 22 28 1
29 22 29 1
30 30 31 1
31 30 36 1
32 31 32 1
33 31 34 1
34 31 37 1
35 32 33 2
36 32 44 1
37 34 35 1
38 35 36 1
39 34 38 1
40 34 39 1
41 35 40 1
42 35 41 1
43 36 42 1
44 36 43 1
45 44 45 1
46 44 53 1
47 45 46 1
48 45 48 1
49 45 54 1
50 46 47 2
51 46 59 1
52 48 49 1
53 49 50 1
54 50 51 2
55 50 52 1
56 48 55 1
57 48 56 1
58 49 57 1
59 49 58 1
60 59 60 1
61 59 65 1
62 60 61 1
63 60 63 1
64 60 66 1
65 61 62 2
66 61 70 1
67 63 64 1
68 63 67 1
69 63 68 1
70 64 69 1
71 70 71 1
72 70 78 1
73 71 72 1
74 71 74 1
75 71 79 1
76 72 73 2
77 72 89 1
78 74 75 1
79 74 76 1
80 75 77 1
81 74 80 1
82 75 81 1
83 75 82 1
84 76 83 1
85 76 84 1
86 76 85 1
87 77 86 1
88 77 87 1
89 77 88 1
90 89 90 1
91 89 97 1
92 90 91 1
93 90 93 1
94 90 98 1
95 91 92 2
96 91 108 1
97 93 94 1
98 94 95 1
99 94 96 1
100 93 99 1
101 93 100 1
102 94 101 1
103 95 102 1
104 95 103 1
105 95 104 1
106 96 105 1
107 96 106 1
108 96 107 1
109 108 109 1
110 108 116 1
111 109 110 1
112 109 112 1
113 109 117 1
114 110 111 2
115 110 120 1
116 112 113 1
117 113 114 2
118 113 115 1
119 112 118 1
120 112 119 1
121 120 121 1
122 120 129 1
123 121 122 1
124 121 124 1
125 121 130 1
126 122 123 2
127 122 137 1
128 124 125 1
129 125 126 1
130 126 127 1
131 126 128 2
132 124 131 1
133 124 132 1
134 125 133 1
135 125 134 1
136 127 135 1
137 127 136 1
138 137 138 1
139 137 147 1
140 138 139 1
141 138 141 1
142 138 148 1
143 139 140 2
144 139 154 1
145 141 142 1
146 142 143 2
147 143 146 1
148 142 144 1
149 144 145 2
150 145 146 1
151 141 149 1
152 141 150 1
153 143 151 1
154 145 152 1
155 146 153 1
156 154 155 1
157 154 161 1
158 155 156 1
159 155 158 1
160 155 162 1
161 156 157 2
162 156 170 1
163 158 159 1
164 158 160 1
165 158 163 1
166 159 164 1
167 159 165 1
168 159 166 1
169 160 167 1
170 160 168 1
171 160 169 1
172 170 171 1
173 170 179 1
174 171 172 1
175 171 174 1
176 171 180 1
177 172 173 2
178 172 187 1
179 174 175 1
180 175 176 1
181 176 177 1
182 176 178 2
183 174 181 1
184 174 182 1
185 175 183 1
186 175 184 1
187 177 185 1
188 177 186 1
189 187 188 1
190 187 198 1
191 188 189 1
192 188 191 1
193 188 199 1
194 189 190 2
195 189 211 1
196 191 192 1
197 192 193 1
198 193 194 1
199 194 195 1
200 195 196 2
201 195 197 1
202 191 200 1
203 191 201 1
204 192 202 1
205 192 203 1
206 193 204 1
207 193 205 1
208 194 206 1
209 196 207 1
210 196 208 1
211 197 209 1
212 197 210 1
213 211 212 1
214 211 218 1
215 212 213 1
216 212 215 1
217 212 219 1
218 213 214 2
219 213 227 1
220 215 216 1
221 215 217 1
222 215 220 1
223 216 221 1
224 216 222 1
225 216 223 1
226 217 224 1
227 217 225 1
228 217 226 1
229 227 228 1
230 227 235 1
231 228 229 1
232 228 231 1
233 228 236 1
234 229 230 2
235 229 244 1
236 231 232 1
237 232 233 1
238 233 234 1
239 231 237 1
240 231 238 1
241 232 239 1
242 232 240 1
243 234 241 1
244 234 242 1
245 234 243 1
246 244 245 1
247 244 255 1
248 245 246 1
249 245 248 1
250 245 256 1
251 246 247 2
252 248 249 1
253 249 250 1
254 250 251 1
255 251 252 1
256 252 253 2
257 252 254 1
258 248 257 1
259 248 258 1
260 249 259 1
261 249 260 1
262 250 261 1
263 250 262 1
264 251 263 1
265 253 264 1
266 253 265 1
267 254 266 1
268 254 267 1
@<TRIPOS>SUBSTRUCTURE
1	GLU1	1	RESIDUE	1 ****	GLU
2	ASN2	16	RESIDUE	1 ****	ASN
3	PRO3	30	RESIDUE	1 ****	PRO
4	GLU4	44	RESIDUE	1 ****	GLU
5	SER5	59	RESIDUE	1 ****	SER
6	ILE6	70	RESIDUE	1 ****	ILE
7	LEU7	89	RESIDUE	1 ****	LEU
8	ASP8	108	RESIDUE	1 ****	ASP
9	GLN9	120	RESIDUE	1 ****	GLN
10	HIS10	137	RESIDUE	1 ****	HIS
11	VAL11	154	RESIDUE	1 ****	VAL
12	GLN12	170	RESIDUE	1 ****	GLN
13	ARG13	187	RESIDUE	1 ****	ARG
14	VAL14	211	RESIDUE	1 ****	VAL
15	MET15	227	RESIDUE	1 ****	MET
16	ARG16	244	RESIDUE	1 ****	ARG
