REMARK WARNING: 32 MAX_TORS EXCEEDED!!!
REMARK  66 active torsions:
REMARK  status: ('A' for Active; 'I' for Inactive)
REMARK    1  A    between atoms: N_1  and  CA_2 
REMARK    2  A    between atoms: CA_2  and  C_3 
REMARK    3  A    between atoms: CA_2  and  CB_5 
REMARK       I    between atoms: C_3  and  N_11 
REMARK    4  A    between atoms: CB_5  and  CG_6 
REMARK    5  A    between atoms: CG_6  and  CD_7 
REMARK    6  A    between atoms: N_11  and  CA_12 
REMARK    7  A    between atoms: CA_12  and  C_13 
REMARK    8  A    between atoms: CA_12  and  CB_15 
REMARK       I    between atoms: C_13  and  N_22 
REMARK    9  A    between atoms: CB_15  and  CG_16 
REMARK       I    between atoms: CG_16  and  ND2_17 
REMARK   10  A    between atoms: CA_23  and  C_24 
REMARK       I    between atoms: C_24  and  N_29 
REMARK   11  A    between atoms: N_29  and  CA_30 
REMARK   12  A    between atoms: CA_30  and  C_31 
REMARK   13  A    between atoms: CA_30  and  CB_33 
REMARK       I    between atoms: C_31  and  N_39 
REMARK   14  A    between atoms: CB_33  and  CG_34 
REMARK   15  A    between atoms: CG_34  and  CD_35 
REMARK   16  A    between atoms: N_39  and  CA_40 
REMARK   17  A    between atoms: CA_40  and  C_41 
REMARK   18  A    between atoms: CA_40  and  CB_43 
REMARK       I    between atoms: C_41  and  N_47 
REMARK   19  A    between atoms: CB_43  and  OG_44 
REMARK   20  A    between atoms: N_47  and  CA_48 
REMARK   21  A    between atoms: CA_48  and  C_49 
REMARK   22  A    between atoms: CA_48  and  CB_51 
REMARK       I    between atoms: C_49  and  N_56 
REMARK   23  A    between atoms: CB_51  and  CG1_52 
REMARK   24  A    between atoms: N_56  and  CA_57 
REMARK   25  A    between atoms: CA_57  and  C_58 
REMARK   26  A    between atoms: CA_57  and  CB_60 
REMARK       I    between atoms: C_58  and  N_65 
REMARK   27  A    between atoms: CB_60  and  CG_61 
REMARK   28  A    between atoms: N_65  and  CA_66 
REMARK   29  A    between atoms: CA_66  and  C_67 
REMARK   30  A    between atoms: CA_66  and  CB_69 
REMARK       I    between atoms: C_67  and  N_74 
REMARK   31  A    between atoms: CB_69  and  CG_70 
REMARK   32  A    between atoms: N_74  and  CA_75 
REMARK   33  A    between atoms: CA_75  and  C_76 
REMARK   34  A    between atoms: CA_75  and  CB_78 
REMARK       I    between atoms: C_76  and  N_84 
REMARK   35  A    between atoms: CB_78  and  CG_79 
REMARK   36  A    between atoms: CG_79  and  CD_80 
REMARK   37  A    between atoms: N_84  and  CA_85 
REMARK   38  A    between atoms: CA_85  and  C_86 
REMARK   39  A    between atoms: CA_85  and  CB_88 
REMARK       I    between atoms: C_86  and  N_96 
REMARK   40  A    between atoms: CB_88  and  CG_89 
REMARK   41  A    between atoms: N_96  and  CA_97 
REMARK   42  A    between atoms: CA_97  and  C_98 
REMARK   43  A    between atoms: CA_97  and  CB_100 
REMARK       I    between atoms: C_98  and  N_104 
REMARK   44  A    between atoms: N_104  and  CA_105 
REMARK   45  A    between atoms: CA_105  and  C_106 
REMARK   46  A    between atoms: CA_105  and  CB_108 
REMARK       I    between atoms: C_106  and  N_116 
REMARK   47  A    between atoms: CB_108  and  CG_109 
REMARK   48  A    between atoms: CG_109  and  CD_110 
REMARK       I    between atoms: CD_110  and  NE2_111 
REMARK   49  A    between atoms: N_116  and  CA_117 
REMARK   50  A    between atoms: CA_117  and  C_118 
REMARK   51  A    between atoms: CA_117  and  CB_120 
REMARK       I    between atoms: C_118  and  N_133 
REMARK   52  A    between atoms: CB_120  and  CG_121 
REMARK   53  A    between atoms: CG_121  and  CD_122 
REMARK   54  A    between atoms: CD_122  and  NE_123 
REMARK       I    between atoms: NE_123  and  CZ_124 
REMARK       I    between atoms: CZ_124  and  NH1_125 
REMARK   55  A    between atoms: N_133  and  CA_134 
REMARK   56  A    between atoms: CA_134  and  C_135 
REMARK   57  A    between atoms: CA_134  and  CB_137 
REMARK       I    between atoms: C_135  and  N_141 
REMARK   58  A    between atoms: N_141  and  CA_142 
REMARK   59  A    between atoms: CA_142  and  C_143 
REMARK   60  A    between atoms: CA_142  and  CB_145 
REMARK       I    between atoms: C_143  and  N_150 
REMARK   61  A    between atoms: CB_145  and  CG_146 
REMARK   62  A    between atoms: CG_146  and  SD_147 
REMARK   63  A    between atoms: N_150  and  CA_151 
REMARK   64  A    between atoms: CA_151  and  C_152 
REMARK   65  A    between atoms: CA_151  and  CB_154 
REMARK   66  A    between atoms: CB_154  and  OG_155 
ROOT
ATOM      1  CA  GLU d   9    2602.933 802.116-2717.680  0.00  0.00     0.177 C 
ENDROOT
BRANCH   1   2
ATOM      2  N   GLU d   9    2601.630 801.459-2717.735  0.00  0.00    -0.346 N 
ATOM      3  C   ASP d   8    2600.950 801.509-2718.830  0.00  0.00     0.241 C 
ATOM      4  O   ASP d   8    2601.423 802.113-2719.805  0.00  0.00    -0.271 OA
ATOM      5  H   GLU d   9    2601.266 800.974-2716.927  0.00  0.00     0.163 HD
BRANCH   3   6
ATOM      6  CA  ASP d   8    2599.603 800.830-2718.886  0.00  0.00     0.186 C 
BRANCH   6   7
ATOM      7  N   ASP d   8    2599.672 799.481-2718.333  0.00  0.00    -0.346 N 
ATOM      8  C   LEU d   7    2600.509 798.639-2718.838  0.00  0.00     0.241 C 
ATOM      9  O   LEU d   7    2601.230 799.001-2719.781  0.00  0.00    -0.271 OA
ATOM     10  H   ASP d   8    2599.074 799.210-2717.565  0.00  0.00     0.163 HD
BRANCH   8  11
ATOM     11  CA  LEU d   7    2600.581 797.244-2718.265  0.00  0.00     0.177 C 
BRANCH  11  12
ATOM     12  N   LEU d   7    2600.636 797.280-2716.807  0.00  0.00    -0.346 N 
ATOM     13  C   ILE d   6    2601.582 797.944-2716.233  0.00  0.00     0.241 C 
ATOM     14  O   ILE d   6    2602.417 798.531-2716.937  0.00  0.00    -0.271 OA
ATOM     15  H   LEU d   7    2599.944 796.793-2716.256  0.00  0.00     0.163 HD
BRANCH  13  16
ATOM     16  CA  ILE d   6    2601.639 797.981-2714.726  0.00  0.00     0.180 C 
BRANCH  16  17
ATOM     17  N   ILE d   6    2600.326 798.277-2714.160  0.00  0.00    -0.346 N 
ATOM     18  C   SER d   5    2599.722 799.360-2714.514  0.00  0.00     0.243 C 
ATOM     19  O   SER d   5    2600.270 800.113-2715.319  0.00  0.00    -0.271 OA
ATOM     20  H   ILE d   6    2599.897 797.642-2713.501  0.00  0.00     0.163 HD
BRANCH  18  21
ATOM     21  CA  SER d   5    2598.363 799.666-2713.929  0.00  0.00     0.200 C 
BRANCH  21  22
ATOM     22  N   SER d   5    2597.493 798.495-2713.988  0.00  0.00    -0.344 N 
ATOM     23  C   GLU d   4    2597.266 797.942-2715.131  0.00  0.00     0.241 C 
ATOM     24  O   GLU d   4    2597.793 798.422-2716.145  0.00  0.00    -0.271 OA
ATOM     25  H   SER d   5    2597.076 798.123-2713.146  0.00  0.00     0.163 HD
BRANCH  23  26
ATOM     26  CA  GLU d   4    2596.367 796.732-2715.192  0.00  0.00     0.177 C 
BRANCH  26  27
ATOM     27  N   GLU d   4    2596.726 795.760-2714.163  0.00  0.00    -0.346 N 
ATOM     28  C   PRO d   3    2597.931 795.300-2714.130  0.00  0.00     0.241 C 
ATOM     29  O   PRO d   3    2598.754 795.683-2714.961  0.00  0.00    -0.271 OA
ATOM     30  H   GLU d   4    2596.042 795.454-2713.486  0.00  0.00     0.163 HD
BRANCH  28  31
ATOM     31  CA  PRO d   3    2598.329 794.277-2713.053  0.00  0.00     0.179 C 
ATOM     32  N   PRO d   3    2597.876 794.686-2711.731  0.00  0.00    -0.337 N 
ATOM     33  C   ASN d   2    2598.398 795.681-2711.097  0.00  0.00     0.243 C 
ATOM     34  CD  PRO d   3    2596.798 793.893-2711.183  0.00  0.00     0.127 C 
ATOM     35  O   ASN d   2    2599.313 796.311-2711.625  0.00  0.00    -0.271 OA
ATOM     36  CG  PRO d   3    2596.341 793.074-2712.393  0.00  0.00     0.022 C 
ATOM     37  CB  PRO d   3    2597.624 792.922-2713.222  0.00  0.00     0.037 C 
BRANCH  33  38
ATOM     38  CA  ASN d   2    2597.866 796.036-2709.729  0.00  0.00     0.185 C 
BRANCH  38  39
ATOM     39  N   ASN d   2    2596.407 796.075-2709.729  0.00  0.00    -0.346 N 
ATOM     40  C   GLU d   1    2595.803 796.861-2710.554  0.00  0.00     0.242 C 
ATOM     41  O   GLU d   1    2596.479 797.560-2711.323  0.00  0.00    -0.271 OA
ATOM     42  H   ASN d   2    2595.879 795.496-2709.092  0.00  0.00     0.163 HD
BRANCH  40  43
ATOM     43  CA  GLU d   1    2594.294 796.901-2710.554  0.00  0.00     0.191 C 
BRANCH  43  44
ATOM     44  N   GLU d   1    2593.735 795.552-2710.554  0.00  0.00    -0.326 NA
ATOM     45  H   GLU d   1    2594.362 794.673-2710.554  0.00  0.00     0.180 HD
ENDBRANCH  43  44
BRANCH  43  46
ATOM     46  CB  GLU d   1    2593.771 797.686-2709.317  0.00  0.00     0.047 C 
BRANCH  46  47
ATOM     47  CG  GLU d   1    2594.246 799.171-2709.206  0.00  0.00     0.116 C 
BRANCH  47  48
ATOM     48  CD  GLU d   1    2593.822 799.975-2707.991  0.00  0.00     0.172 C 
ATOM     49  OE1 GLU d   1    2593.094 799.473-2707.113  0.00  0.00    -0.648 OA
ATOM     50  OE2 GLU d   1    2594.252 801.145-2707.919  0.00  0.00    -0.648 OA
ENDBRANCH  47  48
ENDBRANCH  46  47
ENDBRANCH  43  46
ENDBRANCH  40  43
ENDBRANCH  38  39
BRANCH  38  51
ATOM     51  CB  ASN d   2    2598.358 795.013-2708.664  0.00  0.00     0.137 C 
BRANCH  51  52
ATOM     52  CG  ASN d   2    2597.895 795.237-2707.221  0.00  0.00     0.217 C 
ATOM     53  ND2 ASN d   2    2598.489 796.152-2706.502  0.00  0.00    -0.370 N 
ATOM     54 21HD ASN d   2    2598.008 796.325-2705.616  0.00  0.00     0.159 HD
ATOM     55 22HD ASN d   2    2599.191 796.724-2706.971  0.00  0.00     0.159 HD
ATOM     56  OD1 ASN d   2    2596.974 794.604-2706.727  0.00  0.00    -0.274 OA
ENDBRANCH  51  52
ENDBRANCH  38  51
ENDBRANCH  33  38
ENDBRANCH  28  31
ENDBRANCH  26  27
BRANCH  26  57
ATOM     57  CB  GLU d   4    2594.878 797.151-2715.023  0.00  0.00     0.045 C 
BRANCH  57  58
ATOM     58  CG  GLU d   4    2594.331 798.154-2716.088  0.00  0.00     0.116 C 
BRANCH  58  59
ATOM     59  CD  GLU d   4    2592.905 798.651-2715.945  0.00  0.00     0.172 C 
ATOM     60  OE1 GLU d   4    2592.178 798.253-2715.015  0.00  0.00    -0.648 OA
ATOM     61  OE2 GLU d   4    2592.516 799.481-2716.794  0.00  0.00    -0.648 OA
ENDBRANCH  58  59
ENDBRANCH  57  58
ENDBRANCH  26  57
ENDBRANCH  23  26
ENDBRANCH  21  22
BRANCH  21  62
ATOM     62  CB  SER d   5    2598.474 800.198-2712.478  0.00  0.00     0.199 C 
BRANCH  62  63
ATOM     63  OG  SER d   5    2599.205 799.318-2711.617  0.00  0.00    -0.398 OA
ATOM     64  HG  SER d   5    2598.716 798.494-2711.566  0.00  0.00     0.209 HD
ENDBRANCH  62  63
ENDBRANCH  21  62
ENDBRANCH  18  21
ENDBRANCH  16  17
BRANCH  16  65
ATOM     65  CB  ILE d   6    2602.239 796.645-2714.125  0.00  0.00     0.013 C 
ATOM     66  CG2 ILE d   6    2603.680 796.342-2714.640  0.00  0.00     0.012 C 
BRANCH  65  67
ATOM     67  CG1 ILE d   6    2602.257 796.582-2712.564  0.00  0.00     0.002 C 
ATOM     68  CD1 ILE d   6    2602.527 795.193-2711.949  0.00  0.00     0.005 C 
ENDBRANCH  65  67
ENDBRANCH  16  65
ENDBRANCH  13  16
ENDBRANCH  11  12
BRANCH  11  69
ATOM     69  CB  LEU d   7    2599.378 796.384-2718.746  0.00  0.00     0.038 C 
BRANCH  69  70
ATOM     70  CG  LEU d   7    2599.305 794.905-2718.279  0.00  0.00    -0.020 C 
ATOM     71  CD1 LEU d   7    2598.115 794.199-2718.945  0.00  0.00     0.009 C 
ATOM     72  CD2 LEU d   7    2600.598 794.125-2718.571  0.00  0.00     0.009 C 
ENDBRANCH  69  70
ENDBRANCH  11  69
ENDBRANCH   8  11
ENDBRANCH   6   7
BRANCH   6  73
ATOM     73  CB  ASP d   8    2598.525 801.670-2718.146  0.00  0.00     0.147 C 
BRANCH  73  74
ATOM     74  CG  ASP d   8    2598.307 803.090-2718.687  0.00  0.00     0.175 C 
ATOM     75  OD1 ASP d   8    2598.371 803.289-2719.918  0.00  0.00    -0.648 OA
ATOM     76  OD2 ASP d   8    2598.115 804.017-2717.872  0.00  0.00    -0.648 OA
ENDBRANCH  73  74
ENDBRANCH   6  73
ENDBRANCH   3   6
ENDBRANCH   1   2
BRANCH   1  77
ATOM     77  C   GLU d   9    2603.850 801.588-2718.756  0.00  0.00     0.241 C 
ATOM     78  O   GLU d   9    2604.514 802.341-2719.482  0.00  0.00    -0.271 OA
ATOM     79  N   HIS d  10    2603.946 800.312-2718.925  0.00  0.00    -0.346 N 
ATOM     80  H   HIS d  10    2603.416 799.678-2718.346  0.00  0.00     0.163 HD
BRANCH  79  81
ATOM     81  CA  HIS d  10    2604.833 799.800-2719.965  0.00  0.00     0.182 C 
BRANCH  81  82
ATOM     82  C   HIS d  10    2604.467 800.364-2721.316  0.00  0.00     0.241 C 
ATOM     83  O   HIS d  10    2605.319 800.828-2722.089  0.00  0.00    -0.271 OA
ATOM     84  N   VAL d  11    2603.229 800.364-2721.679  0.00  0.00    -0.346 N 
ATOM     85  H   VAL d  11    2602.516 799.992-2721.068  0.00  0.00     0.163 HD
BRANCH  84  86
ATOM     86  CA  VAL d  11    2602.874 800.909-2722.986  0.00  0.00     0.180 C 
BRANCH  86  87
ATOM     87  C   VAL d  11    2603.339 802.340-2723.120  0.00  0.00     0.241 C 
ATOM     88  O   VAL d  11    2603.940 802.744-2724.123  0.00  0.00    -0.271 OA
ATOM     89  N   GLN d  12    2603.103 803.166-2722.157  0.00  0.00    -0.346 N 
ATOM     90  H   GLN d  12    2602.614 802.860-2721.328  0.00  0.00     0.163 HD
BRANCH  89  91
ATOM     91  CA  GLN d  12    2603.552 804.549-2722.285  0.00  0.00     0.177 C 
BRANCH  91  92
ATOM     92  C   GLN d  12    2605.042 804.615-2722.524  0.00  0.00     0.241 C 
ATOM     93  O   GLN d  12    2605.529 805.323-2723.403  0.00  0.00    -0.271 OA
ATOM     94  N   ARG d  13    2605.826 803.908-2721.782  0.00  0.00    -0.346 N 
ATOM     95  H   ARG d  13    2605.450 803.319-2721.053  0.00  0.00     0.163 HD
BRANCH  94  96
ATOM     96  CA  ARG d  13    2607.266 803.973-2722.014  0.00  0.00     0.176 C 
BRANCH  96  97
ATOM     97  C   ARG d  13    2607.602 803.601-2723.438  0.00  0.00     0.241 C 
ATOM     98  O   ARG d  13    2608.371 804.272-2724.123  0.00  0.00    -0.271 OA
ATOM     99  N   VAL d  14    2607.065 802.546-2723.952  0.00  0.00    -0.346 N 
ATOM    100  H   VAL d  14    2606.430 801.978-2723.410  0.00  0.00     0.163 HD
BRANCH  99 101
ATOM    101  CA  VAL d  14    2607.390 802.186-2725.330  0.00  0.00     0.180 C 
BRANCH 101 102
ATOM    102  C   VAL d  14    2607.060 803.316-2726.276  0.00  0.00     0.241 C 
ATOM    103  O   VAL d  14    2607.853 803.697-2727.145  0.00  0.00    -0.271 OA
ATOM    104  N   MET d  15    2605.916 803.902-2726.174  0.00  0.00    -0.346 N 
ATOM    105  H   MET d  15    2605.250 803.609-2725.472  0.00  0.00     0.163 HD
BRANCH 104 106
ATOM    106  CA  MET d  15    2605.595 804.994-2727.088  0.00  0.00     0.177 C 
BRANCH 106 107
ATOM    107  C   MET d  15    2606.625 806.094-2727.000  0.00  0.00     0.241 C 
ATOM    108  O   MET d  15    2607.127 806.605-2728.013  0.00  0.00    -0.271 OA
ATOM    109  N   SER d  16    2606.995 806.516-2725.838  0.00  0.00    -0.345 N 
ATOM    110  H   SER d  16    2606.600 806.116-2724.999  0.00  0.00     0.163 HD
BRANCH 109 111
ATOM    111  CA  SER d  16    2607.991 807.579-2725.756  0.00  0.00     0.186 C 
BRANCH 111 112
ATOM    112  C   SER d  16    2609.262 807.186-2726.473  0.00  0.00     0.221 C 
ATOM    113  O   SER d  16    2609.383 806.098-2727.035  0.00  0.00    -0.287 OA
ENDBRANCH 111 112
BRANCH 111 114
ATOM    114  CB  SER d  16    2608.266 807.965-2724.281  0.00  0.00     0.197 C 
BRANCH 114 115
ATOM    115  OG  SER d  16    2608.955 806.940-2723.556  0.00  0.00    -0.398 OA
ATOM    116  HG  SER d  16    2608.382 806.170-2723.533  0.00  0.00     0.209 HD
ENDBRANCH 114 115
ENDBRANCH 111 114
ENDBRANCH 109 111
ENDBRANCH 106 107
BRANCH 106 117
ATOM    117  CB  MET d  15    2604.174 805.540-2726.779  0.00  0.00     0.045 C 
BRANCH 117 118
ATOM    118  CG  MET d  15    2603.011 804.542-2726.970  0.00  0.00     0.076 C 
BRANCH 118 119
ATOM    119  SD  MET d  15    2601.438 805.409-2726.855  0.00  0.00    -0.173 SA
ATOM    120  CE  MET d  15    2600.357 803.979-2726.718  0.00  0.00     0.089 C 
ENDBRANCH 118 119
ENDBRANCH 117 118
ENDBRANCH 106 117
ENDBRANCH 104 106
ENDBRANCH 101 102
BRANCH 101 121
ATOM    121  CB  VAL d  14    2606.617 800.869-2725.736  0.00  0.00     0.009 C 
ATOM    122  CG1 VAL d  14    2606.706 800.450-2727.229  0.00  0.00     0.012 C 
ATOM    123  CG2 VAL d  14    2607.049 799.617-2724.935  0.00  0.00     0.012 C 
ENDBRANCH 101 121
ENDBRANCH  99 101
ENDBRANCH  96  97
BRANCH  96 124
ATOM    124  CB  ARG d  13    2607.979 803.035-2720.999  0.00  0.00     0.036 C 
BRANCH 124 125
ATOM    125  CG  ARG d  13    2609.525 803.188-2720.919  0.00  0.00     0.023 C 
BRANCH 125 126
ATOM    126  CD  ARG d  13    2610.152 802.201-2719.921  0.00  0.00     0.138 C 
BRANCH 126 127
ATOM    127  NE  ARG d  13    2611.629 802.407-2719.871  0.00  0.00    -0.227 N 
ATOM    128  CZ  ARG d  13    2612.477 801.716-2719.115  0.00  0.00     0.665 C 
ATOM    129  NH1 ARG d  13    2612.112 800.753-2718.317  0.00  0.00    -0.235 N 
ATOM    130  NH2 ARG d  13    2613.737 802.015-2719.173  0.00  0.00    -0.235 N 
ATOM    131 11HH ARG d  13    2611.106 800.567-2718.320  0.00  0.00     0.174 HD
ATOM    132 12HH ARG d  13    2612.825 800.270-2717.768  0.00  0.00     0.174 HD
ATOM    133 21HH ARG d  13    2614.004 802.772-2719.804  0.00  0.00     0.174 HD
ATOM    134 22HH ARG d  13    2614.372 801.474-2718.584  0.00  0.00     0.174 HD
ATOM    135  HE  ARG d  13    2612.080 803.129-2720.442  0.00  0.00     0.177 HD
ENDBRANCH 126 127
ENDBRANCH 125 126
ENDBRANCH 124 125
ENDBRANCH  96 124
ENDBRANCH  94  96
ENDBRANCH  91  92
BRANCH  91 136
ATOM    136  CB  GLN d  12    2603.161 805.317-2721.003  0.00  0.00     0.044 C 
BRANCH 136 137
ATOM    137  CG  GLN d  12    2603.523 806.839-2720.973  0.00  0.00     0.105 C 
BRANCH 137 138
ATOM    138  CD  GLN d  12    2603.221 807.653-2719.708  0.00  0.00     0.215 C 
ATOM    139  NE2 GLN d  12    2602.654 807.077-2718.679  0.00  0.00    -0.370 N 
ATOM    140 21HE GLN d  12    2602.548 807.672-2717.856  0.00  0.00     0.159 HD
ATOM    141 22HE GLN d  12    2602.490 806.074-2718.782  0.00  0.00     0.159 HD
ATOM    142  OE1 GLN d  12    2603.524 808.834-2719.632  0.00  0.00    -0.274 OA
ENDBRANCH 137 138
ENDBRANCH 136 137
ENDBRANCH  91 136
ENDBRANCH  89  91
ENDBRANCH  86  87
BRANCH  86 143
ATOM    143  CB  VAL d  11    2601.312 800.803-2723.205  0.00  0.00     0.009 C 
ATOM    144  CG1 VAL d  11    2600.744 801.507-2724.468  0.00  0.00     0.012 C 
ATOM    145  CG2 VAL d  11    2600.787 799.349-2723.277  0.00  0.00     0.012 C 
ENDBRANCH  86 143
ENDBRANCH  84  86
ENDBRANCH  81  82
BRANCH  81 146
ATOM    146  CB  HIS d  10    2604.669 798.271-2719.959  0.00  0.00     0.095 C 
BRANCH 146 147
ATOM    147  CG  HIS d  10    2605.954 797.560-2719.651  0.00  0.00     0.053 A 
ATOM    148  CD2 HIS d  10    2606.336 797.226-2718.359  0.00  0.00     0.116 A 
ATOM    149  NE2 HIS d  10    2607.550 796.594-2718.426  0.00  0.00    -0.359 N 
ATOM    150  CE1 HIS d  10    2607.812 796.596-2719.761  0.00  0.00     0.207 A 
ATOM    151  2HE HIS d  10    2608.117 796.217-2717.652  0.00  0.00     0.166 HD
ATOM    152  ND1 HIS d  10    2606.906 797.154-2720.584  0.00  0.00    -0.247 NA
ENDBRANCH 146 147
ENDBRANCH  81 146
ENDBRANCH  79  81
ENDBRANCH   1  77
BRANCH   1 153
ATOM    153  CB  GLU d   9    2603.566 801.909-2716.275  0.00  0.00     0.045 C 
BRANCH 153 154
ATOM    154  CG  GLU d   9    2604.949 802.601-2716.046  0.00  0.00     0.116 C 
BRANCH 154 155
ATOM    155  CD  GLU d   9    2605.651 802.388-2714.718  0.00  0.00     0.172 C 
ATOM    156  OE1 GLU d   9    2605.130 801.698-2713.821  0.00  0.00    -0.648 OA
ATOM    157  OE2 GLU d   9    2606.771 802.925-2714.586  0.00  0.00    -0.648 OA
ENDBRANCH 154 155
ENDBRANCH 153 154
ENDBRANCH   1 153
TORSDOF 66
