@<TRIPOS>MOLECULE
6-14
260 261 16              
SMALL
USER_CHARGES
@<TRIPOS>ATOM
1	   N	967.584	266.092	-941.671	N.3	1	GLU1	-0.516	
2	  CA	968.143	267.441	-941.671	C.3	1	GLU1	0.040	
3	   C	969.652	267.401	-941.671	C.2	1	GLU1	0.537	
4	   O	970.328	268.100	-942.439	O.2	1	GLU1	-0.582	
5	  CB	967.620	268.226	-940.434	C.3	1	GLU1	0.056	
6	  CG	968.095	269.711	-940.323	C.3	1	GLU1	0.014	
7	  CD	967.671	270.515	-939.108	C.2	1	GLU1	0.805	
8	 OE1	966.943	270.013	-938.230	O.co2	1	GLU1	-0.819	
9	 OE2	968.101	271.685	-939.036	O.co2	1	GLU1	-0.819	
10	   H	968.211	265.213	-941.671	 H	1	GLU1	0.294	
11	  HA	967.817	267.959	-942.591	 H	1	GLU1	0.111	
12	 2HB	967.909	267.695	-939.504	 H	1	GLU1	-0.017	
13	 3HB	966.513	268.216	-940.421	 H	1	GLU1	-0.017	
14	 2HG	967.785	270.296	-941.204	 H	1	GLU1	-0.043	
15	 3HG	969.195	269.778	-940.294	 H	1	GLU1	-0.043	
16	   N	970.256	266.616	-940.845	N.am	2	ASN2	-0.416	
17	  CA	971.716	266.577	-940.845	C.3	2	ASN2	0.014	
18	   C	972.247	266.221	-942.214	C.2	2	ASN2	0.597	
19	   O	973.162	266.852	-942.743	O.2	2	ASN2	-0.568	
20	  CB	972.208	265.554	-939.781	C.3	2	ASN2	-0.204	
21	  CG	971.745	265.778	-938.338	C.2	2	ASN2	0.713	
22	 ND2	972.339	266.693	-937.620	N.pl3	2	ASN2	-0.919	
23	 OD1	970.824	265.144	-937.844	O.2	2	ASN2	-0.593	
24	   H	969.728	266.036	-940.209	 H	2	ASN2	0.272	
25	  HA	972.093	267.587	-940.600	 H	2	ASN2	0.105	
26	 2HB	973.312	265.495	-939.785	 H	2	ASN2	0.080	
27	 3HB	971.879	264.536	-940.067	 H	2	ASN2	0.080	
28	1HD2	971.858	266.866	-936.733	 H	2	ASN2	0.420	
29	2HD2	973.041	267.264	-938.089	 H	2	ASN2	0.420	
30	   N	971.726	265.226	-942.848	N.am	3	PRO3	-0.255	
31	  CA	972.177	264.817	-944.170	C.3	3	PRO3	-0.027	
32	   C	971.779	265.840	-945.247	C.2	3	PRO3	0.590	
33	   O	972.603	266.224	-946.078	O.2	3	PRO3	-0.575	
34	  CB	971.473	263.462	-944.339	C.3	3	PRO3	-0.007	
35	  CG	970.190	263.614	-943.509	C.3	3	PRO3	0.019	
36	  CD	970.648	264.433	-942.299	C.3	3	PRO3	0.019	
37	  HA	973.263	264.697	-944.183	 H	3	PRO3	0.064	
38	 2HB	972.096	262.681	-943.898	 H	3	PRO3	0.025	
39	 3HB	971.275	263.214	-945.384	 H	3	PRO3	0.025	
40	 2HG	969.763	262.652	-943.218	 H	3	PRO3	0.021	
41	 3HG	969.452	264.185	-944.076	 H	3	PRO3	0.021	
42	 2HD	971.037	263.784	-941.512	 H	3	PRO3	0.039	
43	 3HD	969.851	265.069	-941.906	 H	3	PRO3	0.039	
44	   N	970.574	266.300	-945.279	N.am	4	GLU4	-0.516	
45	  CA	970.215	267.271	-946.309	C.3	4	GLU4	0.040	
46	   C	971.114	268.482	-946.247	C.2	4	GLU4	0.537	
47	   O	971.640	268.962	-947.262	O.2	4	GLU4	-0.582	
48	  CB	968.726	267.690	-946.138	C.3	4	GLU4	0.056	
49	  CG	968.178	268.693	-947.204	C.3	4	GLU4	0.014	
50	  CD	966.751	269.190	-947.060	C.2	4	GLU4	0.805	
51	 OE1	966.025	268.791	-946.130	O.co2	4	GLU4	-0.819	
52	 OE2	966.362	270.019	-947.909	O.co2	4	GLU4	-0.819	
53	   H	969.890	265.994	-944.602	 H	4	GLU4	0.294	
54	  HA	970.346	266.801	-947.300	 H	4	GLU4	0.111	
55	 2HB	968.574	268.130	-945.132	 H	4	GLU4	-0.017	
56	 3HB	968.079	266.792	-946.145	 H	4	GLU4	-0.017	
57	 2HG	968.260	268.279	-948.222	 H	4	GLU4	-0.043	
58	 3HG	968.766	269.626	-947.215	 H	4	GLU4	-0.043	
59	   N	971.341	269.035	-945.104	N.am	5	SER5	-0.416	
60	  CA	972.210	270.207	-945.046	C.3	5	SER5	-0.025	
61	   C	973.569	269.901	-945.631	C.2	5	SER5	0.597	
62	   O	974.116	270.655	-946.436	O.2	5	SER5	-0.568	
63	  CB	972.322	270.739	-943.595	C.3	5	SER5	0.212	
64	  OG	973.053	269.860	-942.734	O.3	5	SER5	-0.655	
65	   H	970.924	268.664	-944.263	 H	5	SER5	0.272	
66	  HA	971.761	270.997	-945.675	 H	5	SER5	0.084	
67	 2HB	971.322	270.932	-943.162	 H	5	SER5	0.035	
68	 3HB	972.827	271.725	-943.597	 H	5	SER5	0.035	
69	  HG	972.565	269.035	-942.683	 H	5	SER5	0.428	
70	   N	974.174	268.818	-945.277	N.am	6	THR6	-0.416	
71	  CA	975.487	268.524	-945.843	C.3	6	THR6	-0.039	
72	   C	975.430	268.487	-947.351	C.2	6	THR6	0.597	
73	   O	976.248	269.063	-948.040	O.2	6	THR6	-0.568	
74	  CB	976.040	267.173	-945.276	C.3	6	THR6	0.365	
75	 CG2	977.424	266.728	-945.797	C.3	6	THR6	-0.244	
76	 OG1	976.199	267.252	-943.865	O.3	6	THR6	-0.676	
77	   H	973.746	268.184	-944.618	 H	6	THR6	0.272	
78	  HA	976.179	269.338	-945.559	 H	6	THR6	0.101	
79	  HB	975.305	266.371	-945.505	 H	6	THR6	0.004	
80	 1HG	976.470	266.375	-943.578	 H	6	THR6	0.410	
81	1HG2	977.757	265.780	-945.335	 H	6	THR6	0.064	
82	2HG2	977.427	266.547	-946.888	 H	6	THR6	0.064	
83	3HG2	978.203	267.485	-945.590	 H	6	THR6	0.064	
84	   N	974.485	267.823	-947.926	N.am	7	LEU7	-0.416	
85	  CA	974.431	267.787	-949.384	C.3	7	LEU7	-0.052	
86	   C	974.358	269.182	-949.956	C.2	7	LEU7	0.597	
87	   O	975.079	269.546	-950.898	O.2	7	LEU7	-0.568	
88	  CB	973.229	266.926	-949.865	C.3	7	LEU7	-0.110	
89	  CG	973.156	265.447	-949.399	C.3	7	LEU7	0.353	
90	 CD1	971.967	264.740	-950.066	C.3	7	LEU7	-0.412	
91	 CD2	974.450	264.668	-949.690	C.3	7	LEU7	-0.412	
92	   H	973.793	267.335	-947.375	 H	7	LEU7	0.272	
93	  HA	975.373	267.347	-949.758	 H	7	LEU7	0.092	
94	 2HB	973.206	266.942	-950.973	 H	7	LEU7	0.046	
95	 3HB	972.288	267.429	-949.562	 H	7	LEU7	0.046	
96	  HG	972.986	265.438	-948.302	 H	7	LEU7	-0.036	
97	1HD1	971.009	265.249	-949.843	 H	7	LEU7	0.100	
98	2HD1	972.067	264.700	-951.167	 H	7	LEU7	0.100	
99	3HD1	971.860	263.699	-949.710	 H	7	LEU7	0.100	
100	1HD2	974.726	264.699	-950.760	 H	7	LEU7	0.100	
101	2HD2	975.303	265.080	-949.118	 H	7	LEU7	0.100	
102	3HD2	974.369	263.606	-949.394	 H	7	LEU7	0.100	
103	   N	973.520	270.022	-949.450	N.am	8	ASP8	-0.516	
104	  CA	973.450	271.372	-950.003	C.3	8	ASP8	0.038	
105	   C	974.796	272.052	-949.945	C.2	8	ASP8	0.537	
106	   O	975.269	272.658	-950.919	O.2	8	ASP8	-0.582	
107	  CB	972.371	272.210	-949.262	C.3	8	ASP8	-0.030	
108	  CG	972.151	273.631	-949.802	C.2	8	ASP8	0.799	
109	 OD1	972.216	273.830	-951.033	O.co2	8	ASP8	-0.801	
110	 OD2	971.958	274.557	-948.987	O.co2	8	ASP8	-0.801	
111	   H	972.922	269.751	-948.683	 H	8	ASP8	0.294	
112	  HA	973.167	271.294	-951.071	 H	8	ASP8	0.088	
113	 2HB	972.627	272.293	-948.190	 H	8	ASP8	-0.012	
114	 3HB	971.392	271.705	-949.296	 H	8	ASP8	-0.012	
115	   N	975.475	272.003	-948.849	N.am	9	GLU9	-0.516	
116	  CA	976.777	272.661	-948.793	C.3	9	GLU9	0.040	
117	   C	977.696	272.134	-949.868	C.2	9	GLU9	0.537	
118	   O	978.360	272.889	-950.593	O.2	9	GLU9	-0.582	
119	  CB	977.410	272.453	-947.387	C.3	9	GLU9	0.056	
120	  CG	978.792	273.146	-947.157	C.3	9	GLU9	0.014	
121	  CD	979.493	272.933	-945.828	C.2	9	GLU9	0.805	
122	 OE1	978.971	272.242	-944.932	O.co2	9	GLU9	-0.819	
123	 OE2	980.612	273.472	-945.695	O.co2	9	GLU9	-0.819	
124	   H	975.111	271.516	-948.043	 H	9	GLU9	0.294	
125	  HA	976.635	273.743	-948.968	 H	9	GLU9	0.111	
126	 2HB	977.523	271.369	-947.184	 H	9	GLU9	-0.017	
127	 3HB	976.712	272.806	-946.603	 H	9	GLU9	-0.017	
128	 2HG	978.720	274.237	-947.296	 H	9	GLU9	-0.043	
129	 3HG	979.539	272.802	-947.890	 H	9	GLU9	-0.043	
130	   N	977.794	270.859	-950.038	N.am	10	HIS10	-0.416	
131	  CA	978.683	270.349	-951.078	C.3	10	HIS10	-0.058	
132	   C	978.316	270.913	-952.429	C.2	10	HIS10	0.597	
133	   O	979.169	271.379	-953.200	O.2	10	HIS10	-0.568	
134	  CB	978.520	268.820	-951.074	C.3	10	HIS10	-0.007	
135	  CG	979.806	268.110	-950.765	C.2	10	HIS10	0.187	
136	 CD2	980.186	267.775	-949.472	C.2	10	HIS10	-0.221	
137	 ND1	980.758	267.705	-951.697	N.2	10	HIS10	-0.543	
138	 CE1	981.665	267.147	-950.873	C.2	10	HIS10	0.163	
139	 NE2	981.401	267.144	-949.538	N.pl3	10	HIS10	-0.280	
140	   H	977.263	270.223	-949.460	 H	10	HIS10	0.272	
141	  HA	979.701	270.706	-950.852	 H	10	HIS10	0.136	
142	 2HB	978.155	268.453	-952.054	 H	10	HIS10	0.037	
143	 3HB	977.764	268.482	-950.334	 H	10	HIS10	0.037	
144	 2HD	979.599	267.989	-948.583	 H	10	HIS10	0.186	
145	 1HE	982.556	266.727	-951.320	 H	10	HIS10	0.144	
146	 2HE	981.967	266.766	-948.765	 H	10	HIS10	0.334	
147	   N	977.079	270.912	-952.793	N.am	11	VAL11	-0.416	
148	  CA	976.724	271.458	-954.100	C.3	11	VAL11	-0.087	
149	   C	977.188	272.889	-954.232	C.2	11	VAL11	0.597	
150	   O	977.789	273.295	-955.234	O.2	11	VAL11	-0.568	
151	  CB	975.163	271.350	-954.320	C.3	11	VAL11	0.299	
152	 CG1	974.595	272.055	-955.583	C.3	11	VAL11	-0.319	
153	 CG2	974.640	269.896	-954.394	C.3	11	VAL11	-0.319	
154	   H	976.366	270.538	-952.183	 H	11	VAL11	0.272	
155	  HA	977.245	270.876	-954.882	 H	11	VAL11	0.097	
156	  HB	974.675	271.830	-953.445	 H	11	VAL11	-0.030	
157	1HG1	975.034	271.663	-956.520	 H	11	VAL11	0.079	
158	2HG1	973.496	271.947	-955.666	 H	11	VAL11	0.079	
159	3HG1	974.772	273.147	-955.573	 H	11	VAL11	0.079	
160	1HG2	974.929	269.309	-953.504	 H	11	VAL11	0.079	
161	2HG2	973.534	269.858	-954.438	 H	11	VAL11	0.079	
162	3HG2	975.022	269.356	-955.281	 H	11	VAL11	0.079	
163	   N	976.950	273.714	-953.269	N.am	12	GLN12	-0.416	
164	  CA	977.397	275.098	-953.396	C.3	12	GLN12	-0.003	
165	   C	978.887	275.166	-953.632	C.2	12	GLN12	0.597	
166	   O	979.375	275.875	-954.510	O.2	12	GLN12	-0.568	
167	  CB	977.005	275.864	-952.113	C.3	12	GLN12	-0.004	
168	  CG	977.364	277.386	-952.081	C.3	12	GLN12	-0.064	
169	  CD	977.061	278.199	-950.816	C.2	12	GLN12	0.695	
170	 NE2	976.493	277.622	-949.788	N.pl3	12	GLN12	-0.941	
171	 OE1	977.362	279.380	-950.738	O.2	12	GLN12	-0.609	
172	   H	976.460	273.408	-952.440	 H	12	GLN12	0.272	
173	  HA	976.898	275.554	-954.271	 H	12	GLN12	0.085	
174	 2HB	977.481	275.364	-951.243	 H	12	GLN12	0.017	
175	 3HB	975.915	275.756	-951.951	 H	12	GLN12	0.017	
176	 2HG	976.887	277.907	-952.932	 H	12	GLN12	0.035	
177	 3HG	978.448	277.529	-952.246	 H	12	GLN12	0.035	
178	1HE2	976.385	278.217	-948.964	 H	12	GLN12	0.425	
179	2HE2	976.330	276.619	-949.892	 H	12	GLN12	0.425	
180	   N	979.672	274.459	-952.891	N.am	13	ARG13	-0.348	
181	  CA	981.112	274.526	-953.121	C.3	13	ARG13	-0.264	
182	   C	981.450	274.155	-954.546	C.2	13	ARG13	0.734	
183	   O	982.218	274.828	-955.229	O.2	13	ARG13	-0.589	
184	  CB	981.826	273.587	-952.107	C.3	13	ARG13	-0.001	
185	  CG	983.370	273.741	-952.024	C.3	13	ARG13	0.039	
186	  CD	983.997	272.753	-951.027	C.3	13	ARG13	0.049	
187	  NE	985.474	272.961	-950.975	N.pl3	13	ARG13	-0.530	
188	  CZ	986.322	272.270	-950.219	C.cat	13	ARG13	0.808	
189	 NH1	985.957	271.305	-949.423	N.pl3	13	ARG13	-0.863	
190	 NH2	987.581	272.569	-950.275	N.pl3	13	ARG13	-0.863	
191	   H	979.295	273.869	-952.163	 H	13	ARG13	0.275	
192	  HA	981.436	275.572	-952.962	 H	13	ARG13	0.156	
193	 2HB	981.560	272.536	-952.346	 H	13	ARG13	0.033	
194	 3HB	981.399	273.753	-951.096	 H	13	ARG13	0.033	
195	 2HG	983.617	274.786	-951.744	 H	13	ARG13	0.029	
196	 3HG	983.822	273.585	-953.026	 H	13	ARG13	0.029	
197	 2HD	983.754	271.713	-951.336	 H	13	ARG13	0.069	
198	 3HD	983.540	272.898	-950.024	 H	13	ARG13	0.069	
199	  HE	985.925	273.684	-951.545	 H	13	ARG13	0.346	
200	1HH1	984.951	271.118	-949.427	 H	13	ARG13	0.448	
201	2HH1	986.670	270.822	-948.874	 H	13	ARG13	0.448	
202	1HH2	987.849	273.328	-950.906	 H	13	ARG13	0.448	
203	2HH2	988.216	272.028	-949.686	 H	13	ARG13	0.448	
204	   N	980.915	273.101	-955.061	N.am	14	VAL14	-0.416	
205	  CA	981.241	272.742	-956.438	C.3	14	VAL14	-0.087	
206	   C	980.911	273.872	-957.384	C.2	14	VAL14	0.597	
207	   O	981.704	274.255	-958.253	O.2	14	VAL14	-0.568	
208	  CB	980.469	271.425	-956.846	C.3	14	VAL14	0.299	
209	 CG1	980.559	271.007	-958.340	C.3	14	VAL14	-0.319	
210	 CG2	980.901	270.173	-956.046	C.3	14	VAL14	-0.319	
211	   H	980.280	272.532	-954.520	 H	14	VAL14	0.272	
212	  HA	982.329	272.566	-956.512	 H	14	VAL14	0.097	
213	  HB	979.393	271.595	-956.631	 H	14	VAL14	-0.030	
214	1HG1	981.601	270.831	-958.668	 H	14	VAL14	0.079	
215	2HG1	979.987	270.084	-958.553	 H	14	VAL14	0.079	
216	3HG1	980.130	271.770	-959.018	 H	14	VAL14	0.079	
217	1HG2	980.813	270.331	-954.956	 H	14	VAL14	0.079	
218	2HG2	980.266	269.296	-956.279	 H	14	VAL14	0.079	
219	3HG2	981.949	269.883	-956.251	 H	14	VAL14	0.079	
220	   N	979.765	274.458	-957.282	N.am	15	MET15	-0.416	
221	  CA	979.445	275.551	-958.196	C.3	15	MET15	-0.024	
222	   C	980.475	276.651	-958.107	C.2	15	MET15	0.597	
223	   O	980.978	277.162	-959.119	O.2	15	MET15	-0.568	
224	  CB	978.023	276.095	-957.888	C.3	15	MET15	0.034	
225	  CG	976.862	275.097	-958.081	C.3	15	MET15	0.002	
226	  SD	975.287	275.962	-957.967	S.3	15	MET15	-0.274	
227	  CE	974.207	274.532	-957.832	C.3	15	MET15	-0.054	
228	   H	979.100	274.164	-956.581	 H	15	MET15	0.272	
229	  HA	979.472	275.164	-959.232	 H	15	MET15	0.088	
230	 2HB	977.821	276.974	-958.529	 H	15	MET15	0.024	
231	 3HB	977.987	276.487	-956.851	 H	15	MET15	0.024	
232	 2HG	976.905	274.311	-957.303	 H	15	MET15	0.044	
233	 3HG	976.926	274.582	-959.057	 H	15	MET15	0.044	
234	 1HE	974.351	273.844	-958.684	 H	15	MET15	0.068	
235	 2HE	974.416	273.979	-956.899	 H	15	MET15	0.068	
236	 3HE	973.149	274.846	-957.816	 H	15	MET15	0.068	
237	   N	980.842	277.072	-956.944	N.am	16	ARG16	-0.348	
238	  CA	981.838	278.136	-956.859	C.3	16	ARG16	-0.264	
239	   C	983.110	277.744	-957.575	C.2	16	ARG16	0.734	
240	   O	983.224	276.668	-958.157	O.2	16	ARG16	-0.589	
241	  CB	982.106	278.453	-955.361	C.3	16	ARG16	-0.001	
242	  CG	982.931	279.742	-955.087	C.3	16	ARG16	0.039	
243	  CD	983.179	279.961	-953.585	C.3	16	ARG16	0.049	
244	  NE	983.955	281.220	-953.383	N.pl3	16	ARG16	-0.530	
245	  CZ	984.345	281.702	-952.207	C.cat	16	ARG16	0.808	
246	 NH1	984.097	281.117	-951.069	N.pl3	16	ARG16	-0.863	
247	 NH2	985.008	282.815	-952.187	N.pl3	16	ARG16	-0.863	
248	   H	980.447	276.671	-956.105	 H	16	ARG16	0.275	
249	  HA	981.429	279.029	-957.369	 H	16	ARG16	0.156	
250	 2HB	982.603	277.577	-954.894	 H	16	ARG16	0.033	
251	 3HB	981.137	278.533	-954.827	 H	16	ARG16	0.033	
252	 2HG	982.400	280.613	-955.524	 H	16	ARG16	0.029	
253	 3HG	983.905	279.690	-955.615	 H	16	ARG16	0.029	
254	 2HD	983.728	279.087	-953.172	 H	16	ARG16	0.069	
255	 3HD	982.206	280.003	-953.050	 H	16	ARG16	0.069	
256	  HE	984.233	281.802	-954.180	 H	16	ARG16	0.346	
257	1HH1	983.572	280.244	-951.154	 H	16	ARG16	0.448	
258	2HH1	984.430	281.553	-950.207	 H	16	ARG16	0.448	
259	1HH2	985.194	283.259	-953.089	 H	16	ARG16	0.448	
260	2HH2	985.298	283.170	-951.275	 H	16	ARG16	0.448	
@<TRIPOS>BOND
1 1 2 1
2 1 10 1
3 2 3 1
4 2 5 1
5 2 11 1
6 3 4 2
7 3 16 1
8 5 6 1
9 6 7 1
10 7 8 2
11 7 9 1
12 5 12 1
13 5 13 1
14 6 14 1
15 6 15 1
16 16 17 1
17 16 24 1
18 17 18 1
19 17 20 1
20 17 25 1
21 18 19 2
22 18 30 1
23 20 21 1
24 21 22 1
25 21 23 2
26 20 26 1
27 20 27 1
28 22 28 1
29 22 29 1
30 30 31 1
31 30 36 1
32 31 32 1
33 31 34 1
34 31 37 1
35 32 33 2
36 32 44 1
37 34 35 1
38 35 36 1
39 34 38 1
40 34 39 1
41 35 40 1
42 35 41 1
43 36 42 1
44 36 43 1
45 44 45 1
46 44 53 1
47 45 46 1
48 45 48 1
49 45 54 1
50 46 47 2
51 46 59 1
52 48 49 1
53 49 50 1
54 50 51 2
55 50 52 1
56 48 55 1
57 48 56 1
58 49 57 1
59 49 58 1
60 59 60 1
61 59 65 1
62 60 61 1
63 60 63 1
64 60 66 1
65 61 62 2
66 61 70 1
67 63 64 1
68 63 67 1
69 63 68 1
70 64 69 1
71 70 71 1
72 70 77 1
73 71 72 1
74 71 74 1
75 71 78 1
76 72 73 2
77 72 84 1
78 74 75 1
79 74 76 1
80 74 79 1
81 76 80 1
82 75 81 1
83 75 82 1
84 75 83 1
85 84 85 1
86 84 92 1
87 85 86 1
88 85 88 1
89 85 93 1
90 86 87 2
91 86 103 1
92 88 89 1
93 89 90 1
94 89 91 1
95 88 94 1
96 88 95 1
97 89 96 1
98 90 97 1
99 90 98 1
100 90 99 1
101 91 100 1
102 91 101 1
103 91 102 1
104 103 104 1
105 103 111 1
106 104 105 1
107 104 107 1
108 104 112 1
109 105 106 2
110 105 115 1
111 107 108 1
112 108 109 2
113 108 110 1
114 107 113 1
115 107 114 1
116 115 116 1
117 115 124 1
118 116 117 1
119 116 119 1
120 116 125 1
121 117 118 2
122 117 130 1
123 119 120 1
124 120 121 1
125 121 122 2
126 121 123 1
127 119 126 1
128 119 127 1
129 120 128 1
130 120 129 1
131 130 131 1
132 130 140 1
133 131 132 1
134 131 134 1
135 131 141 1
136 132 133 2
137 132 147 1
138 134 135 1
139 135 136 2
140 136 139 1
141 135 137 1
142 137 138 2
143 138 139 1
144 134 142 1
145 134 143 1
146 136 144 1
147 138 145 1
148 139 146 1
149 147 148 1
150 147 154 1
151 148 149 1
152 148 151 1
153 148 155 1
154 149 150 2
155 149 163 1
156 151 152 1
157 151 153 1
158 151 156 1
159 152 157 1
160 152 158 1
161 152 159 1
162 153 160 1
163 153 161 1
164 153 162 1
165 163 164 1
166 163 172 1
167 164 165 1
168 164 167 1
169 164 173 1
170 165 166 2
171 165 180 1
172 167 168 1
173 168 169 1
174 169 170 1
175 169 171 2
176 167 174 1
177 167 175 1
178 168 176 1
179 168 177 1
180 170 178 1
181 170 179 1
182 180 181 1
183 180 191 1
184 181 182 1
185 181 184 1
186 181 192 1
187 182 183 2
188 182 204 1
189 184 185 1
190 185 186 1
191 186 187 1
192 187 188 1
193 188 189 2
194 188 190 1
195 184 193 1
196 184 194 1
197 185 195 1
198 185 196 1
199 186 197 1
200 186 198 1
201 187 199 1
202 189 200 1
203 189 201 1
204 190 202 1
205 190 203 1
206 204 205 1
207 204 211 1
208 205 206 1
209 205 208 1
210 205 212 1
211 206 207 2
212 206 220 1
213 208 209 1
214 208 210 1
215 208 213 1
216 209 214 1
217 209 215 1
218 209 216 1
219 210 217 1
220 210 218 1
221 210 219 1
222 220 221 1
223 220 228 1
224 221 222 1
225 221 224 1
226 221 229 1
227 222 223 2
228 222 237 1
229 224 225 1
230 225 226 1
231 226 227 1
232 224 230 1
233 224 231 1
234 225 232 1
235 225 233 1
236 227 234 1
237 227 235 1
238 227 236 1
239 237 238 1
240 237 248 1
241 238 239 1
242 238 241 1
243 238 249 1
244 239 240 2
245 241 242 1
246 242 243 1
247 243 244 1
248 244 245 1
249 245 246 2
250 245 247 1
251 241 250 1
252 241 251 1
253 242 252 1
254 242 253 1
255 243 254 1
256 243 255 1
257 244 256 1
258 246 257 1
259 246 258 1
260 247 259 1
261 247 260 1
@<TRIPOS>SUBSTRUCTURE
1	GLU1	1	RESIDUE	1 ****	GLU
2	ASN2	16	RESIDUE	1 ****	ASN
3	PRO3	30	RESIDUE	1 ****	PRO
4	GLU4	44	RESIDUE	1 ****	GLU
5	SER5	59	RESIDUE	1 ****	SER
6	THR6	70	RESIDUE	1 ****	THR
7	LEU7	84	RESIDUE	1 ****	LEU
8	ASP8	103	RESIDUE	1 ****	ASP
9	GLU9	115	RESIDUE	1 ****	GLU
10	HIS10	130	RESIDUE	1 ****	HIS
11	VAL11	147	RESIDUE	1 ****	VAL
12	GLN12	163	RESIDUE	1 ****	GLN
13	ARG13	180	RESIDUE	1 ****	ARG
14	VAL14	204	RESIDUE	1 ****	VAL
15	MET15	220	RESIDUE	1 ****	MET
16	ARG16	237	RESIDUE	1 ****	ARG
