@<TRIPOS>MOLECULE
6-8
266 268 16              
SMALL
USER_CHARGES
@<TRIPOS>ATOM
1	   N	918.065	249.727	-888.310	N.3	1	GLU1	-0.516	
2	  CA	918.624	251.076	-888.310	C.3	1	GLU1	0.040	
3	   C	920.133	251.036	-888.310	C.2	1	GLU1	0.537	
4	   O	920.809	251.735	-889.078	O.2	1	GLU1	-0.582	
5	  CB	918.101	251.861	-887.073	C.3	1	GLU1	0.056	
6	  CG	918.576	253.346	-886.962	C.3	1	GLU1	0.014	
7	  CD	918.152	254.150	-885.747	C.2	1	GLU1	0.805	
8	 OE1	917.424	253.648	-884.869	O.co2	1	GLU1	-0.819	
9	 OE2	918.582	255.320	-885.675	O.co2	1	GLU1	-0.819	
10	   H	918.692	248.848	-888.310	 H	1	GLU1	0.294	
11	  HA	918.298	251.594	-889.230	 H	1	GLU1	0.111	
12	 2HB	918.390	251.330	-886.143	 H	1	GLU1	-0.017	
13	 3HB	916.994	251.851	-887.060	 H	1	GLU1	-0.017	
14	 2HG	918.266	253.931	-887.843	 H	1	GLU1	-0.043	
15	 3HG	919.676	253.413	-886.933	 H	1	GLU1	-0.043	
16	   N	920.738	250.250	-887.484	N.am	2	ASN2	-0.416	
17	  CA	922.197	250.212	-887.484	C.3	2	ASN2	0.014	
18	   C	922.728	249.856	-888.853	C.2	2	ASN2	0.597	
19	   O	923.643	250.487	-889.382	O.2	2	ASN2	-0.568	
20	  CB	922.689	249.189	-886.420	C.3	2	ASN2	-0.204	
21	  CG	922.226	249.413	-884.977	C.2	2	ASN2	0.713	
22	 ND2	922.820	250.328	-884.259	N.pl3	2	ASN2	-0.919	
23	 OD1	921.306	248.779	-884.483	O.2	2	ASN2	-0.593	
24	   H	920.210	249.671	-886.848	 H	2	ASN2	0.272	
25	  HA	922.574	251.222	-887.239	 H	2	ASN2	0.105	
26	 2HB	923.794	249.130	-886.424	 H	2	ASN2	0.080	
27	 3HB	922.360	248.171	-886.706	 H	2	ASN2	0.080	
28	1HD2	922.340	250.501	-883.372	 H	2	ASN2	0.420	
29	2HD2	923.522	250.899	-884.728	 H	2	ASN2	0.420	
30	   N	922.207	248.861	-889.487	N.am	3	PRO3	-0.255	
31	  CA	922.659	248.452	-890.809	C.3	3	PRO3	-0.027	
32	   C	922.261	249.475	-891.886	C.2	3	PRO3	0.590	
33	   O	923.084	249.859	-892.717	O.2	3	PRO3	-0.575	
34	  CB	921.955	247.097	-890.978	C.3	3	PRO3	-0.007	
35	  CG	920.672	247.249	-890.148	C.3	3	PRO3	0.019	
36	  CD	921.129	248.068	-888.938	C.3	3	PRO3	0.019	
37	  HA	923.745	248.332	-890.823	 H	3	PRO3	0.064	
38	 2HB	922.578	246.316	-890.537	 H	3	PRO3	0.025	
39	 3HB	921.757	246.849	-892.023	 H	3	PRO3	0.025	
40	 2HG	920.244	246.287	-889.857	 H	3	PRO3	0.021	
41	 3HG	919.934	247.820	-890.715	 H	3	PRO3	0.021	
42	 2HD	921.518	247.418	-888.151	 H	3	PRO3	0.039	
43	 3HD	920.332	248.704	-888.545	 H	3	PRO3	0.039	
44	   N	921.056	249.935	-891.918	N.am	4	GLU4	-0.516	
45	  CA	920.696	250.906	-892.948	C.3	4	GLU4	0.040	
46	   C	921.595	252.118	-892.887	C.2	4	GLU4	0.537	
47	   O	922.121	252.597	-893.901	O.2	4	GLU4	-0.582	
48	  CB	919.208	251.325	-892.778	C.3	4	GLU4	0.056	
49	  CG	918.659	252.328	-893.843	C.3	4	GLU4	0.014	
50	  CD	917.233	252.825	-893.700	C.2	4	GLU4	0.805	
51	 OE1	916.506	252.426	-892.769	O.co2	4	GLU4	-0.819	
52	 OE2	916.843	253.654	-894.548	O.co2	4	GLU4	-0.819	
53	   H	920.372	249.629	-891.241	 H	4	GLU4	0.294	
54	  HA	920.827	250.436	-893.939	 H	4	GLU4	0.111	
55	 2HB	919.055	251.765	-891.771	 H	4	GLU4	-0.017	
56	 3HB	918.560	250.427	-892.784	 H	4	GLU4	-0.017	
57	 2HG	918.741	251.913	-894.861	 H	4	GLU4	-0.043	
58	 3HG	919.247	253.261	-893.854	 H	4	GLU4	-0.043	
59	   N	921.822	252.671	-891.743	N.am	5	SER5	-0.416	
60	  CA	922.691	253.842	-891.685	C.3	5	SER5	-0.025	
61	   C	924.050	253.537	-892.270	C.2	5	SER5	0.597	
62	   O	924.598	254.290	-893.075	O.2	5	SER5	-0.568	
63	  CB	922.803	254.374	-890.234	C.3	5	SER5	0.212	
64	  OG	923.535	253.495	-889.373	O.3	5	SER5	-0.655	
65	   H	921.405	252.299	-890.902	 H	5	SER5	0.272	
66	  HA	922.242	254.632	-892.314	 H	5	SER5	0.084	
67	 2HB	921.803	254.568	-889.801	 H	5	SER5	0.035	
68	 3HB	923.308	255.360	-890.237	 H	5	SER5	0.035	
69	  HG	923.046	252.670	-889.323	 H	5	SER5	0.428	
70	   N	924.655	252.454	-891.916	N.am	6	PHE6	-0.416	
71	  CA	925.968	252.159	-892.482	C.3	6	PHE6	-0.002	
72	   C	925.912	252.120	-893.990	C.2	6	PHE6	0.597	
73	   O	926.763	252.718	-894.706	O.2	6	PHE6	-0.568	
74	  CB	926.477	250.780	-891.962	C.3	6	PHE6	-0.034	
75	  CG	926.600	250.625	-890.438	C.2	6	PHE6	0.012	
76	 CD1	925.497	250.186	-889.697	C.2	6	PHE6	-0.126	
77	 CD2	927.778	250.978	-889.776	C.2	6	PHE6	-0.126	
78	 CE1	925.567	250.118	-888.309	C.2	6	PHE6	-0.170	
79	 CE2	927.851	250.900	-888.388	C.2	6	PHE6	-0.170	
80	  CZ	926.744	250.473	-887.655	C.2	6	PHE6	-0.107	
81	   H	924.227	251.819	-891.257	 H	6	PHE6	0.272	
82	  HA	926.674	252.957	-892.185	 H	6	PHE6	0.098	
83	 2HB	927.463	250.556	-892.416	 H	6	PHE6	0.030	
84	 3HB	925.824	249.971	-892.352	 H	6	PHE6	0.030	
85	 1HD	924.570	249.939	-890.196	 H	6	PHE6	0.133	
86	 2HD	928.633	251.331	-890.336	 H	6	PHE6	0.133	
87	 1HE	924.701	249.807	-887.744	 H	6	PHE6	0.143	
88	 2HE	928.762	251.181	-887.879	 H	6	PHE6	0.143	
89	  HZ	926.794	250.425	-886.578	 H	6	PHE6	0.130	
90	   N	924.967	251.457	-894.565	N.am	7	LEU7	-0.416	
91	  CA	924.914	251.420	-896.024	C.3	7	LEU7	-0.052	
92	   C	924.842	252.815	-896.596	C.2	7	LEU7	0.597	
93	   O	925.564	253.178	-897.538	O.2	7	LEU7	-0.568	
94	  CB	923.711	250.560	-896.505	C.3	7	LEU7	-0.110	
95	  CG	923.638	249.081	-896.038	C.3	7	LEU7	0.353	
96	 CD1	922.448	248.375	-896.705	C.3	7	LEU7	-0.412	
97	 CD2	924.932	248.301	-896.328	C.3	7	LEU7	-0.412	
98	   H	924.274	250.970	-894.014	 H	7	LEU7	0.272	
99	  HA	925.856	250.980	-896.397	 H	7	LEU7	0.092	
100	 2HB	923.689	250.576	-897.613	 H	7	LEU7	0.046	
101	 3HB	922.771	251.063	-896.202	 H	7	LEU7	0.046	
102	  HG	923.467	249.073	-894.941	 H	7	LEU7	-0.036	
103	1HD1	921.491	248.884	-896.484	 H	7	LEU7	0.100	
104	2HD1	922.549	248.334	-897.806	 H	7	LEU7	0.100	
105	3HD1	922.341	247.334	-896.349	 H	7	LEU7	0.100	
106	1HD2	925.208	248.331	-897.398	 H	7	LEU7	0.100	
107	2HD2	925.784	248.713	-895.756	 H	7	LEU7	0.100	
108	3HD2	924.850	247.239	-896.032	 H	7	LEU7	0.100	
109	   N	924.005	253.656	-896.091	N.am	8	ASP8	-0.516	
110	  CA	923.935	255.006	-896.645	C.3	8	ASP8	0.038	
111	   C	925.282	255.685	-896.586	C.2	8	ASP8	0.537	
112	   O	925.756	256.290	-897.561	O.2	8	ASP8	-0.582	
113	  CB	922.856	255.845	-895.905	C.3	8	ASP8	-0.030	
114	  CG	922.638	257.265	-896.446	C.2	8	ASP8	0.799	
115	 OD1	922.704	257.464	-897.677	O.co2	8	ASP8	-0.801	
116	 OD2	922.445	258.192	-895.631	O.co2	8	ASP8	-0.801	
117	   H	923.406	253.385	-895.325	 H	8	ASP8	0.294	
118	  HA	923.653	254.927	-897.712	 H	8	ASP8	0.088	
119	 2HB	923.112	255.928	-894.833	 H	8	ASP8	-0.012	
120	 3HB	921.877	255.340	-895.939	 H	8	ASP8	-0.012	
121	   N	925.960	255.636	-895.490	N.am	9	GLU9	-0.516	
122	  CA	927.263	256.293	-895.434	C.3	9	GLU9	0.040	
123	   C	928.182	255.765	-896.508	C.2	9	GLU9	0.537	
124	   O	928.847	256.519	-897.233	O.2	9	GLU9	-0.582	
125	  CB	927.895	256.086	-894.027	C.3	9	GLU9	0.056	
126	  CG	929.277	256.778	-893.797	C.3	9	GLU9	0.014	
127	  CD	929.977	256.565	-892.467	C.2	9	GLU9	0.805	
128	 OE1	929.455	255.874	-891.572	O.co2	9	GLU9	-0.819	
129	 OE2	931.096	257.102	-892.334	O.co2	9	GLU9	-0.819	
130	   H	925.596	255.149	-894.684	 H	9	GLU9	0.294	
131	  HA	927.121	257.375	-895.609	 H	9	GLU9	0.111	
132	 2HB	928.007	255.001	-893.824	 H	9	GLU9	-0.017	
133	 3HB	927.197	256.439	-893.244	 H	9	GLU9	-0.017	
134	 2HG	929.205	257.868	-893.937	 H	9	GLU9	-0.043	
135	 3HG	930.025	256.432	-894.530	 H	9	GLU9	-0.043	
136	   N	928.279	254.490	-896.677	N.am	10	HIS10	-0.416	
137	  CA	929.168	253.978	-897.717	C.3	10	HIS10	-0.058	
138	   C	928.803	254.543	-899.068	C.2	10	HIS10	0.597	
139	   O	929.656	255.007	-899.839	O.2	10	HIS10	-0.568	
140	  CB	929.004	252.449	-897.712	C.3	10	HIS10	-0.007	
141	  CG	930.289	251.739	-897.402	C.2	10	HIS10	0.187	
142	 CD2	930.668	251.404	-896.109	C.2	10	HIS10	-0.221	
143	 ND1	931.242	251.333	-898.333	N.2	10	HIS10	-0.543	
144	 CE1	932.148	250.775	-897.509	C.2	10	HIS10	0.163	
145	 NE2	931.883	250.772	-896.174	N.pl3	10	HIS10	-0.280	
146	   H	927.747	253.855	-896.100	 H	10	HIS10	0.272	
147	  HA	930.187	254.336	-897.490	 H	10	HIS10	0.136	
148	 2HB	928.640	252.082	-898.692	 H	10	HIS10	0.037	
149	 3HB	928.247	252.112	-896.973	 H	10	HIS10	0.037	
150	 2HD	930.081	251.619	-895.221	 H	10	HIS10	0.186	
151	 1HE	933.039	250.354	-897.955	 H	10	HIS10	0.144	
152	 2HE	932.449	250.395	-895.400	 H	10	HIS10	0.334	
153	   N	927.565	254.542	-899.433	N.am	11	VAL11	-0.416	
154	  CA	927.212	255.088	-900.740	C.3	11	VAL11	-0.087	
155	   C	927.677	256.518	-900.872	C.2	11	VAL11	0.597	
156	   O	928.279	256.923	-901.874	O.2	11	VAL11	-0.568	
157	  CB	925.651	254.981	-900.962	C.3	11	VAL11	0.299	
158	 CG1	925.084	255.685	-902.225	C.3	11	VAL11	-0.319	
159	 CG2	925.127	253.527	-901.035	C.3	11	VAL11	-0.319	
160	   H	926.852	254.169	-898.823	 H	11	VAL11	0.272	
161	  HA	927.732	254.505	-901.522	 H	11	VAL11	0.097	
162	  HB	925.162	255.461	-900.087	 H	11	VAL11	-0.030	
163	1HG1	925.524	255.293	-903.162	 H	11	VAL11	0.079	
164	2HG1	923.985	255.578	-902.308	 H	11	VAL11	0.079	
165	3HG1	925.262	256.777	-902.216	 H	11	VAL11	0.079	
166	1HG2	925.415	252.940	-900.144	 H	11	VAL11	0.079	
167	2HG2	924.021	253.490	-901.079	 H	11	VAL11	0.079	
168	3HG2	925.509	252.986	-901.921	 H	11	VAL11	0.079	
169	   N	927.438	257.344	-899.910	N.am	12	GLN12	-0.416	
170	  CA	927.887	258.727	-900.037	C.3	12	GLN12	-0.003	
171	   C	929.377	258.794	-900.273	C.2	12	GLN12	0.597	
172	   O	929.865	259.503	-901.151	O.2	12	GLN12	-0.568	
173	  CB	927.494	259.494	-898.755	C.3	12	GLN12	-0.004	
174	  CG	927.855	261.016	-898.723	C.3	12	GLN12	-0.064	
175	  CD	927.550	261.830	-897.459	C.2	12	GLN12	0.695	
176	 NE2	926.982	261.253	-896.430	N.pl3	12	GLN12	-0.941	
177	 OE1	927.852	263.011	-897.381	O.2	12	GLN12	-0.609	
178	   H	926.948	257.038	-899.082	 H	12	GLN12	0.272	
179	  HA	927.389	259.183	-900.912	 H	12	GLN12	0.085	
180	 2HB	927.969	258.994	-897.885	 H	12	GLN12	0.017	
181	 3HB	926.404	259.387	-898.593	 H	12	GLN12	0.017	
182	 2HG	927.378	261.537	-899.574	 H	12	GLN12	0.035	
183	 3HG	928.938	261.158	-898.887	 H	12	GLN12	0.035	
184	1HE2	926.874	261.848	-895.607	 H	12	GLN12	0.425	
185	2HE2	926.819	260.250	-896.534	 H	12	GLN12	0.425	
186	   N	930.161	258.088	-899.531	N.am	13	ARG13	-0.348	
187	  CA	931.602	258.154	-899.760	C.3	13	ARG13	-0.264	
188	   C	931.940	257.782	-901.184	C.2	13	ARG13	0.734	
189	   O	932.709	258.454	-901.867	O.2	13	ARG13	-0.589	
190	  CB	932.314	257.215	-898.745	C.3	13	ARG13	-0.001	
191	  CG	933.858	257.368	-898.662	C.3	13	ARG13	0.039	
192	  CD	934.484	256.380	-897.663	C.3	13	ARG13	0.049	
193	  NE	935.961	256.588	-897.611	N.pl3	13	ARG13	-0.530	
194	  CZ	936.809	255.896	-896.855	C.cat	13	ARG13	0.808	
195	 NH1	936.443	254.932	-896.058	N.pl3	13	ARG13	-0.863	
196	 NH2	938.068	256.195	-896.910	N.pl3	13	ARG13	-0.863	
197	   H	929.784	257.498	-898.803	 H	13	ARG13	0.275	
198	  HA	931.926	259.200	-899.601	 H	13	ARG13	0.156	
199	 2HB	932.048	256.164	-898.984	 H	13	ARG13	0.033	
200	 3HB	931.887	257.381	-897.735	 H	13	ARG13	0.033	
201	 2HG	934.106	258.413	-898.382	 H	13	ARG13	0.029	
202	 3HG	934.310	257.212	-899.663	 H	13	ARG13	0.029	
203	 2HD	934.240	255.340	-897.973	 H	13	ARG13	0.069	
204	 3HD	934.026	256.526	-896.661	 H	13	ARG13	0.069	
205	  HE	936.413	257.310	-898.181	 H	13	ARG13	0.346	
206	1HH1	935.437	254.746	-896.062	 H	13	ARG13	0.448	
207	2HH1	937.155	254.449	-895.508	 H	13	ARG13	0.448	
208	1HH2	938.336	256.953	-897.541	 H	13	ARG13	0.448	
209	2HH2	938.703	255.654	-896.320	 H	13	ARG13	0.448	
210	   N	931.404	256.728	-901.699	N.am	14	VAL14	-0.416	
211	  CA	931.731	256.368	-903.076	C.3	14	VAL14	-0.087	
212	   C	931.402	257.498	-904.023	C.2	14	VAL14	0.597	
213	   O	932.196	257.880	-904.891	O.2	14	VAL14	-0.568	
214	  CB	930.959	255.051	-903.484	C.3	14	VAL14	0.299	
215	 CG1	931.050	254.633	-904.978	C.3	14	VAL14	-0.319	
216	 CG2	931.390	253.799	-902.684	C.3	14	VAL14	-0.319	
217	   H	930.769	256.159	-901.158	 H	14	VAL14	0.272	
218	  HA	932.819	256.192	-903.150	 H	14	VAL14	0.097	
219	  HB	929.882	255.222	-903.270	 H	14	VAL14	-0.030	
220	1HG1	932.092	254.456	-905.305	 H	14	VAL14	0.079	
221	2HG1	930.477	253.710	-905.191	 H	14	VAL14	0.079	
222	3HG1	930.622	255.395	-905.656	 H	14	VAL14	0.079	
223	1HG2	931.301	253.957	-901.593	 H	14	VAL14	0.079	
224	2HG2	930.755	252.923	-902.917	 H	14	VAL14	0.079	
225	3HG2	932.438	253.509	-902.888	 H	14	VAL14	0.079	
226	   N	930.257	258.084	-903.922	N.am	15	MET15	-0.416	
227	  CA	929.938	259.177	-904.836	C.3	15	MET15	-0.024	
228	   C	930.968	260.277	-904.747	C.2	15	MET15	0.597	
229	   O	931.472	260.787	-905.759	O.2	15	MET15	-0.568	
230	  CB	928.516	259.723	-904.529	C.3	15	MET15	0.034	
231	  CG	927.354	258.724	-904.722	C.3	15	MET15	0.002	
232	  SD	925.780	259.591	-904.610	S.3	15	MET15	-0.274	
233	  CE	924.699	258.161	-904.475	C.3	15	MET15	-0.054	
234	   H	929.591	257.791	-903.221	 H	15	MET15	0.272	
235	  HA	929.965	258.789	-905.872	 H	15	MET15	0.088	
236	 2HB	928.314	260.601	-905.172	 H	15	MET15	0.024	
237	 3HB	928.479	260.115	-903.493	 H	15	MET15	0.024	
238	 2HG	927.396	257.939	-903.945	 H	15	MET15	0.044	
239	 3HG	927.418	258.209	-905.698	 H	15	MET15	0.044	
240	 1HE	924.843	257.473	-905.327	 H	15	MET15	0.068	
241	 2HE	924.907	257.608	-903.542	 H	15	MET15	0.068	
242	 3HE	923.641	258.476	-904.459	 H	15	MET15	0.068	
243	   N	931.335	260.698	-903.585	N.am	16	ARG16	-0.348	
244	  CA	932.332	261.761	-903.500	C.3	16	ARG16	-0.264	
245	   C	933.603	261.369	-904.214	C.2	16	ARG16	0.734	
246	   O	933.718	260.292	-904.796	O.2	16	ARG16	-0.589	
247	  CB	932.599	262.079	-902.001	C.3	16	ARG16	-0.001	
248	  CG	933.424	263.368	-901.727	C.3	16	ARG16	0.039	
249	  CD	933.672	263.588	-900.226	C.3	16	ARG16	0.049	
250	  NE	934.447	264.847	-900.024	N.pl3	16	ARG16	-0.530	
251	  CZ	934.837	265.329	-898.848	C.cat	16	ARG16	0.808	
252	 NH1	934.588	264.745	-897.710	N.pl3	16	ARG16	-0.863	
253	 NH2	935.501	266.442	-898.828	N.pl3	16	ARG16	-0.863	
254	   H	930.939	260.298	-902.746	 H	16	ARG16	0.275	
255	  HA	931.923	262.654	-904.010	 H	16	ARG16	0.156	
256	 2HB	933.095	261.203	-901.534	 H	16	ARG16	0.033	
257	 3HB	931.629	262.160	-901.468	 H	16	ARG16	0.033	
258	 2HG	932.894	264.239	-902.165	 H	16	ARG16	0.029	
259	 3HG	934.398	263.315	-902.255	 H	16	ARG16	0.029	
260	 2HD	934.220	262.713	-899.812	 H	16	ARG16	0.069	
261	 3HD	932.698	263.630	-899.692	 H	16	ARG16	0.069	
262	  HE	934.727	265.428	-900.821	 H	16	ARG16	0.346	
263	1HH1	934.063	263.872	-897.795	 H	16	ARG16	0.448	
264	2HH1	934.922	265.180	-896.848	 H	16	ARG16	0.448	
265	1HH2	935.688	266.885	-899.730	 H	16	ARG16	0.448	
266	2HH2	935.790	266.797	-897.916	 H	16	ARG16	0.448	
@<TRIPOS>BOND
1 1 2 1
2 1 10 1
3 2 3 1
4 2 5 1
5 2 11 1
6 3 4 2
7 3 16 1
8 5 6 1
9 6 7 1
10 7 8 2
11 7 9 1
12 5 12 1
13 5 13 1
14 6 14 1
15 6 15 1
16 16 17 1
17 16 24 1
18 17 18 1
19 17 20 1
20 17 25 1
21 18 19 2
22 18 30 1
23 20 21 1
24 21 22 1
25 21 23 2
26 20 26 1
27 20 27 1
28 22 28 1
29 22 29 1
30 30 31 1
31 30 36 1
32 31 32 1
33 31 34 1
34 31 37 1
35 32 33 2
36 32 44 1
37 34 35 1
38 35 36 1
39 34 38 1
40 34 39 1
41 35 40 1
42 35 41 1
43 36 42 1
44 36 43 1
45 44 45 1
46 44 53 1
47 45 46 1
48 45 48 1
49 45 54 1
50 46 47 2
51 46 59 1
52 48 49 1
53 49 50 1
54 50 51 2
55 50 52 1
56 48 55 1
57 48 56 1
58 49 57 1
59 49 58 1
60 59 60 1
61 59 65 1
62 60 61 1
63 60 63 1
64 60 66 1
65 61 62 2
66 61 70 1
67 63 64 1
68 63 67 1
69 63 68 1
70 64 69 1
71 70 71 1
72 70 81 1
73 71 72 1
74 71 74 1
75 71 82 1
76 72 73 2
77 72 90 1
78 74 75 1
79 75 76 2
80 75 77 1
81 77 79 2
82 76 78 1
83 79 80 1
84 78 80 2
85 74 83 1
86 74 84 1
87 76 85 1
88 77 86 1
89 78 87 1
90 79 88 1
91 80 89 1
92 90 91 1
93 90 98 1
94 91 92 1
95 91 94 1
96 91 99 1
97 92 93 2
98 92 109 1
99 94 95 1
100 95 96 1
101 95 97 1
102 94 100 1
103 94 101 1
104 95 102 1
105 96 103 1
106 96 104 1
107 96 105 1
108 97 106 1
109 97 107 1
110 97 108 1
111 109 110 1
112 109 117 1
113 110 111 1
114 110 113 1
115 110 118 1
116 111 112 2
117 111 121 1
118 113 114 1
119 114 115 2
120 114 116 1
121 113 119 1
122 113 120 1
123 121 122 1
124 121 130 1
125 122 123 1
126 122 125 1
127 122 131 1
128 123 124 2
129 123 136 1
130 125 126 1
131 126 127 1
132 127 128 2
133 127 129 1
134 125 132 1
135 125 133 1
136 126 134 1
137 126 135 1
138 136 137 1
139 136 146 1
140 137 138 1
141 137 140 1
142 137 147 1
143 138 139 2
144 138 153 1
145 140 141 1
146 141 142 2
147 142 145 1
148 141 143 1
149 143 144 2
150 144 145 1
151 140 148 1
152 140 149 1
153 142 150 1
154 144 151 1
155 145 152 1
156 153 154 1
157 153 160 1
158 154 155 1
159 154 157 1
160 154 161 1
161 155 156 2
162 155 169 1
163 157 158 1
164 157 159 1
165 157 162 1
166 158 163 1
167 158 164 1
168 158 165 1
169 159 166 1
170 159 167 1
171 159 168 1
172 169 170 1
173 169 178 1
174 170 171 1
175 170 173 1
176 170 179 1
177 171 172 2
178 171 186 1
179 173 174 1
180 174 175 1
181 175 176 1
182 175 177 2
183 173 180 1
184 173 181 1
185 174 182 1
186 174 183 1
187 176 184 1
188 176 185 1
189 186 187 1
190 186 197 1
191 187 188 1
192 187 190 1
193 187 198 1
194 188 189 2
195 188 210 1
196 190 191 1
197 191 192 1
198 192 193 1
199 193 194 1
200 194 195 2
201 194 196 1
202 190 199 1
203 190 200 1
204 191 201 1
205 191 202 1
206 192 203 1
207 192 204 1
208 193 205 1
209 195 206 1
210 195 207 1
211 196 208 1
212 196 209 1
213 210 211 1
214 210 217 1
215 211 212 1
216 211 214 1
217 211 218 1
218 212 213 2
219 212 226 1
220 214 215 1
221 214 216 1
222 214 219 1
223 215 220 1
224 215 221 1
225 215 222 1
226 216 223 1
227 216 224 1
228 216 225 1
229 226 227 1
230 226 234 1
231 227 228 1
232 227 230 1
233 227 235 1
234 228 229 2
235 228 243 1
236 230 231 1
237 231 232 1
238 232 233 1
239 230 236 1
240 230 237 1
241 231 238 1
242 231 239 1
243 233 240 1
244 233 241 1
245 233 242 1
246 243 244 1
247 243 254 1
248 244 245 1
249 244 247 1
250 244 255 1
251 245 246 2
252 247 248 1
253 248 249 1
254 249 250 1
255 250 251 1
256 251 252 2
257 251 253 1
258 247 256 1
259 247 257 1
260 248 258 1
261 248 259 1
262 249 260 1
263 249 261 1
264 250 262 1
265 252 263 1
266 252 264 1
267 253 265 1
268 253 266 1
@<TRIPOS>SUBSTRUCTURE
1	GLU1	1	RESIDUE	1 ****	GLU
2	ASN2	16	RESIDUE	1 ****	ASN
3	PRO3	30	RESIDUE	1 ****	PRO
4	GLU4	44	RESIDUE	1 ****	GLU
5	SER5	59	RESIDUE	1 ****	SER
6	PHE6	70	RESIDUE	1 ****	PHE
7	LEU7	90	RESIDUE	1 ****	LEU
8	ASP8	109	RESIDUE	1 ****	ASP
9	GLU9	121	RESIDUE	1 ****	GLU
10	HIS10	136	RESIDUE	1 ****	HIS
11	VAL11	153	RESIDUE	1 ****	VAL
12	GLN12	169	RESIDUE	1 ****	GLN
13	ARG13	186	RESIDUE	1 ****	ARG
14	VAL14	210	RESIDUE	1 ****	VAL
15	MET15	226	RESIDUE	1 ****	MET
16	ARG16	243	RESIDUE	1 ****	ARG
