@<TRIPOS>MOLECULE
1-1
260 261 16              
SMALL
USER_CHARGES
@<TRIPOS>ATOM
1	   N	-0.677	-1.230	-0.491	N.3	1	ALA1	-0.416	
2	  CA	-0.001	0.064	-0.491	C.3	1	ALA1	0.034	
3	   C	1.499	-0.110	-0.491	C.2	1	ALA1	0.597	
4	   O	2.233	0.524	-1.257	O.2	1	ALA1	-0.568	
5	  CB	-0.509	0.856	0.727	C.3	1	ALA1	-0.183	
6	   H	-0.131	-2.162	-0.491	 H	1	ALA1	0.272	
7	  HA	-0.269	0.603	-1.418	 H	1	ALA1	0.082	
8	 1HB	-1.605	1.006	0.691	 H	1	ALA1	0.060	
9	 2HB	-0.285	0.342	1.681	 H	1	ALA1	0.060	
10	 3HB	-0.053	1.861	0.784	 H	1	ALA1	0.060	
11	   N	2.031	-0.947	0.335	N.am	2	ASN2	-0.416	
12	  CA	3.481	-1.115	0.335	C.3	2	ASN2	0.014	
13	   C	3.979	-1.516	-1.034	C.2	2	ASN2	0.597	
14	   O	4.946	-0.970	-1.562	O.2	2	ASN2	-0.568	
15	  CB	3.880	-2.178	1.399	C.3	2	ASN2	-0.204	
16	  CG	3.439	-1.914	2.843	C.2	2	ASN2	0.713	
17	 ND2	4.112	-1.055	3.561	N.pl3	2	ASN2	-0.919	
18	 OD1	2.465	-2.463	3.337	O.2	2	ASN2	-0.593	
19	   H	1.453	-1.477	0.971	 H	2	ASN2	0.272	
20	  HA	3.947	-0.143	0.580	 H	2	ASN2	0.105	
21	 2HB	4.975	-2.335	1.396	 H	2	ASN2	0.080	
22	 3HB	3.462	-3.163	1.113	 H	2	ASN2	0.080	
23	1HD2	3.648	-0.840	4.447	 H	2	ASN2	0.420	
24	2HD2	4.862	-0.548	3.092	 H	2	ASN2	0.420	
25	   N	3.371	-2.461	-1.668	N.am	3	PRO3	-0.255	
26	  CA	3.785	-2.909	-2.989	C.3	3	PRO3	-0.027	
27	   C	3.479	-1.854	-4.066	C.2	3	PRO3	0.590	
28	   O	4.334	-1.546	-4.898	O.2	3	PRO3	-0.575	
29	  CB	2.963	-4.196	-3.159	C.3	3	PRO3	-0.007	
30	  CG	1.698	-3.930	-2.329	C.3	3	PRO3	0.019	
31	  CD	2.227	-3.155	-1.119	C.3	3	PRO3	0.019	
32	  HA	4.856	-3.125	-3.003	 H	3	PRO3	0.064	
33	 2HB	3.514	-5.029	-2.718	 H	3	PRO3	0.025	
34	 3HB	2.744	-4.426	-4.204	 H	3	PRO3	0.025	
35	 2HG	1.187	-4.851	-2.038	 H	3	PRO3	0.021	
36	 3HG	1.015	-3.296	-2.896	 H	3	PRO3	0.021	
37	 2HD	2.557	-3.837	-0.331	 H	3	PRO3	0.039	
38	 3HD	1.490	-2.451	-0.726	 H	3	PRO3	0.039	
39	   N	2.320	-1.289	-4.099	N.am	4	GLU4	-0.516	
40	  CA	2.048	-0.290	-5.128	C.3	4	GLU4	0.040	
41	   C	3.051	0.837	-5.067	C.2	4	GLU4	0.537	
42	   O	3.618	1.267	-6.081	O.2	4	GLU4	-0.582	
43	  CB	0.603	0.259	-4.958	C.3	4	GLU4	0.056	
44	  CG	0.146	1.308	-6.024	C.3	4	GLU4	0.014	
45	  CD	-1.231	1.929	-5.880	C.2	4	GLU4	0.805	
46	 OE1	-1.989	1.597	-4.949	O.co2	4	GLU4	-0.819	
47	 OE2	-1.545	2.790	-6.729	O.co2	4	GLU4	-0.819	
48	   H	1.612	-1.534	-3.422	 H	4	GLU4	0.294	
49	  HA	2.137	-0.770	-6.119	 H	4	GLU4	0.111	
50	 2HB	0.490	0.711	-3.951	 H	4	GLU4	-0.017	
51	 3HB	-0.122	-0.577	-4.964	 H	4	GLU4	-0.017	
52	 2HG	0.191	0.887	-7.042	 H	4	GLU4	-0.043	
53	 3HG	0.815	2.184	-6.035	 H	4	GLU4	-0.043	
54	   N	3.327	1.367	-3.924	N.am	5	SER5	-0.416	
55	  CA	4.297	2.456	-3.865	C.3	5	SER5	-0.025	
56	   C	5.623	2.031	-4.451	C.2	5	SER5	0.597	
57	   O	6.235	2.733	-5.256	O.2	5	SER5	-0.568	
58	  CB	4.455	2.977	-2.415	C.3	5	SER5	0.212	
59	  OG	5.106	2.036	-1.554	O.3	5	SER5	-0.655	
60	   H	2.878	1.034	-3.082	 H	5	SER5	0.272	
61	  HA	3.920	3.283	-4.494	 H	5	SER5	0.084	
62	 2HB	3.477	3.258	-1.982	 H	5	SER5	0.035	
63	 3HB	5.046	3.914	-2.417	 H	5	SER5	0.035	
64	  HG	4.546	1.258	-1.503	 H	5	SER5	0.428	
65	   N	6.130	0.899	-4.097	N.am	6	ILE6	-0.416	
66	  CA	7.411	0.489	-4.663	C.3	6	ILE6	-0.060	
67	   C	7.351	0.456	-6.171	C.2	6	ILE6	0.597	
68	   O	8.235	0.968	-6.874	O.2	6	ILE6	-0.568	
69	  CB	7.890	-0.896	-4.063	C.3	6	ILE6	0.130	
70	 CG1	7.904	-0.959	-2.502	C.3	6	ILE6	-0.043	
71	 CG2	9.299	-1.324	-4.578	C.3	6	ILE6	-0.320	
72	 CD1	8.049	-2.367	-1.887	C.3	6	ILE6	-0.066	
73	   H	5.647	0.305	-3.438	 H	6	ILE6	0.272	
74	  HA	8.157	1.260	-4.395	 H	6	ILE6	0.087	
75	  HB	7.162	-1.660	-4.407	 H	6	ILE6	0.019	
76	2HG1	6.954	-0.553	-2.106	 H	6	ILE6	0.024	
77	3HG1	8.683	-0.284	-2.097	 H	6	ILE6	0.024	
78	1HG2	9.349	-1.422	-5.676	 H	6	ILE6	0.088	
79	2HG2	10.088	-0.609	-4.276	 H	6	ILE6	0.088	
80	3HG2	9.602	-2.317	-4.199	 H	6	ILE6	0.088	
81	1HD1	7.257	-3.053	-2.241	 H	6	ILE6	0.019	
82	2HD1	9.023	-2.834	-2.122	 H	6	ILE6	0.019	
83	3HD1	7.976	-2.330	-0.784	 H	6	ILE6	0.019	
84	   N	6.350	-0.121	-6.744	N.am	7	LEU7	-0.416	
85	  CA	6.293	-0.152	-8.203	C.3	7	LEU7	-0.052	
86	   C	6.344	1.244	-8.775	C.2	7	LEU7	0.597	
87	   O	7.094	1.542	-9.717	O.2	7	LEU7	-0.568	
88	  CB	5.018	-0.902	-8.683	C.3	7	LEU7	-0.110	
89	  CG	4.814	-2.369	-8.217	C.3	7	LEU7	0.353	
90	 CD1	3.566	-2.966	-8.883	C.3	7	LEU7	-0.412	
91	 CD2	6.033	-3.260	-8.508	C.3	7	LEU7	-0.412	
92	   H	5.618	-0.545	-6.193	 H	7	LEU7	0.272	
93	  HA	7.192	-0.673	-8.577	 H	7	LEU7	0.092	
94	 2HB	4.996	-0.884	-9.791	 H	7	LEU7	0.046	
95	 3HB	4.126	-0.318	-8.379	 H	7	LEU7	0.046	
96	  HG	4.644	-2.362	-7.120	 H	7	LEU7	-0.036	
97	1HD1	2.658	-2.374	-8.660	 H	7	LEU7	0.100	
98	2HD1	3.662	-3.015	-9.984	 H	7	LEU7	0.100	
99	3HD1	3.367	-3.994	-8.527	 H	7	LEU7	0.100	
100	1HD2	6.310	-3.254	-9.578	 H	7	LEU7	0.100	
101	2HD2	6.920	-2.926	-7.937	 H	7	LEU7	0.100	
102	3HD2	5.858	-4.311	-8.212	 H	7	LEU7	0.100	
103	   N	5.585	2.156	-8.269	N.am	8	ASP8	-0.516	
104	  CA	5.635	3.507	-8.822	C.3	8	ASP8	0.038	
105	   C	7.036	4.064	-8.765	C.2	8	ASP8	0.537	
106	   O	7.561	4.625	-9.739	O.2	8	ASP8	-0.582	
107	  CB	4.635	4.438	-8.081	C.3	8	ASP8	-0.030	
108	  CG	4.543	5.872	-8.621	C.2	8	ASP8	0.799	
109	 OD1	4.625	6.065	-9.852	O.co2	8	ASP8	-0.801	
110	 OD2	4.434	6.812	-7.805	O.co2	8	ASP8	-0.801	
111	   H	4.965	1.939	-7.501	 H	8	ASP8	0.294	
112	  HA	5.346	3.454	-9.889	 H	8	ASP8	0.088	
113	 2HB	4.899	4.498	-7.009	 H	8	ASP8	-0.012	
114	 3HB	3.615	4.022	-8.114	 H	8	ASP8	-0.012	
115	   N	7.709	3.954	-7.669	N.am	9	GLU9	-0.516	
116	  CA	9.064	4.494	-7.614	C.3	9	GLU9	0.040	
117	   C	9.932	3.887	-8.690	C.2	9	GLU9	0.537	
118	   O	10.661	4.580	-9.415	O.2	9	GLU9	-0.582	
119	  CB	9.677	4.231	-6.208	C.3	9	GLU9	0.056	
120	  CG	11.115	4.797	-5.979	C.3	9	GLU9	0.014	
121	  CD	11.795	4.523	-4.651	C.2	9	GLU9	0.805	
122	 OE1	11.215	3.881	-3.754	O.co2	9	GLU9	-0.819	
123	 OE2	12.958	4.959	-4.519	O.co2	9	GLU9	-0.819	
124	   H	7.304	3.502	-6.862	 H	9	GLU9	0.294	
125	  HA	9.019	5.584	-7.789	 H	9	GLU9	0.111	
126	 2HB	9.693	3.140	-6.005	 H	9	GLU9	-0.017	
127	 3HB	9.014	4.644	-5.424	 H	9	GLU9	-0.017	
128	 2HG	11.141	5.890	-6.118	 H	9	GLU9	-0.043	
129	 3HG	11.829	4.388	-6.713	 H	9	GLU9	-0.043	
130	   N	9.915	2.608	-8.859	N.am	10	HIS10	-0.416	
131	  CA	10.755	2.020	-9.900	C.3	10	HIS10	-0.058	
132	   C	10.439	2.615	-11.251	C.2	10	HIS10	0.597	
133	   O	11.330	3.003	-12.022	O.2	10	HIS10	-0.568	
134	  CB	10.456	0.512	-9.895	C.3	10	HIS10	-0.007	
135	  CG	11.674	-0.309	-9.587	C.2	10	HIS10	0.187	
136	 CD2	12.023	-0.677	-8.294	C.2	10	HIS10	-0.221	
137	 ND1	12.586	-0.798	-10.519	N.2	10	HIS10	-0.543	
138	 CE1	13.439	-1.434	-9.696	C.2	10	HIS10	0.163	
139	 NE2	13.177	-1.414	-8.361	N.pl3	10	HIS10	-0.280	
140	   H	9.330	2.022	-8.281	 H	10	HIS10	0.272	
141	  HA	11.801	2.286	-9.674	 H	10	HIS10	0.136	
142	 2HB	10.060	0.179	-10.875	 H	10	HIS10	0.037	
143	 3HB	9.673	0.243	-9.155	 H	10	HIS10	0.037	
144	 2HD	11.459	-0.411	-7.405	 H	10	HIS10	0.186	
145	 1HE	14.290	-1.933	-10.143	 H	10	HIS10	0.144	
146	 2HE	13.708	-1.840	-7.588	 H	10	HIS10	0.334	
147	   N	9.206	2.724	-11.614	N.am	11	VAL11	-0.416	
148	  CA	8.901	3.299	-12.921	C.3	11	VAL11	-0.087	
149	   C	9.491	4.683	-13.053	C.2	11	VAL11	0.597	
150	   O	10.125	5.034	-14.056	O.2	11	VAL11	-0.568	
151	  CB	7.337	3.332	-13.140	C.3	11	VAL11	0.299	
152	 CG1	6.833	4.083	-14.403	C.3	11	VAL11	-0.319	
153	 CG2	6.686	1.930	-13.214	C.3	11	VAL11	-0.319	
154	   H	8.463	2.416	-11.004	 H	11	VAL11	0.272	
155	  HA	9.367	2.674	-13.703	 H	11	VAL11	0.097	
156	  HB	6.894	3.853	-12.265	 H	11	VAL11	-0.030	
157	1HG1	7.235	3.654	-15.340	 H	11	VAL11	0.079	
158	2HG1	5.729	4.074	-14.485	 H	11	VAL11	0.079	
159	3HG1	7.107	5.156	-14.394	 H	11	VAL11	0.079	
160	1HG2	6.922	1.319	-12.323	 H	11	VAL11	0.079	
161	2HG2	5.581	1.991	-13.257	 H	11	VAL11	0.079	
162	3HG2	7.018	1.357	-14.100	 H	11	VAL11	0.079	
163	   N	9.327	5.527	-12.090	N.am	12	GLN12	-0.416	
164	  CA	9.897	6.865	-12.217	C.3	12	GLN12	-0.003	
165	   C	11.387	6.800	-12.455	C.2	12	GLN12	0.597	
166	   O	11.935	7.462	-13.333	O.2	12	GLN12	-0.568	
167	  CB	9.575	7.663	-10.935	C.3	12	GLN12	-0.004	
168	  CG	10.068	9.147	-10.903	C.3	12	GLN12	-0.064	
169	  CD	9.839	9.984	-9.638	C.2	12	GLN12	0.695	
170	 NE2	9.223	9.460	-8.609	N.pl3	12	GLN12	-0.941	
171	 OE1	10.244	11.134	-9.560	O.2	12	GLN12	-0.609	
172	   H	8.813	5.265	-11.261	 H	12	GLN12	0.272	
173	  HA	9.440	7.363	-13.092	 H	12	GLN12	0.085	
174	 2HB	10.005	7.123	-10.065	 H	12	GLN12	0.017	
175	 3HB	8.479	7.653	-10.771	 H	12	GLN12	0.017	
176	 2HG	9.639	9.709	-11.754	 H	12	GLN12	0.035	
177	 3HG	11.160	9.193	-11.069	 H	12	GLN12	0.035	
178	1HE2	9.169	10.062	-7.786	 H	12	GLN12	0.425	
179	2HE2	8.971	8.475	-8.713	 H	12	GLN12	0.425	
180	   N	12.105	6.026	-11.714	N.am	13	ARG13	-0.348	
181	  CA	13.546	5.964	-11.945	C.3	13	ARG13	-0.264	
182	   C	13.848	5.565	-13.370	C.2	13	ARG13	0.734	
183	   O	14.673	6.166	-14.053	O.2	13	ARG13	-0.589	
184	  CB	14.173	4.966	-10.931	C.3	13	ARG13	-0.001	
185	  CG	15.726	4.981	-10.849	C.3	13	ARG13	0.039	
186	  CD	16.263	3.942	-9.852	C.3	13	ARG13	0.049	
187	  NE	17.752	4.018	-9.801	N.pl3	13	ARG13	-0.530	
188	  CZ	18.536	3.253	-9.046	C.cat	13	ARG13	0.808	
189	 NH1	18.086	2.325	-8.249	N.pl3	13	ARG13	-0.863	
190	 NH2	19.817	3.440	-9.102	N.pl3	13	ARG13	-0.863	
191	   H	11.678	5.472	-10.986	 H	13	ARG13	0.275	
192	  HA	13.962	6.977	-11.786	 H	13	ARG13	0.156	
193	 2HB	13.815	3.943	-11.170	 H	13	ARG13	0.033	
194	 3HB	13.764	5.169	-9.920	 H	13	ARG13	0.033	
195	 2HG	16.065	6.000	-10.570	 H	13	ARG13	0.029	
196	 3HG	16.161	4.786	-11.851	 H	13	ARG13	0.029	
197	 2HD	15.927	2.928	-10.161	 H	13	ARG13	0.069	
198	 3HD	15.820	4.127	-8.849	 H	13	ARG13	0.069	
199	  HE	18.266	4.697	-10.371	 H	13	ARG13	0.346	
200	1HH1	17.068	2.229	-8.252	 H	13	ARG13	0.448	
201	2HH1	18.754	1.781	-7.700	 H	13	ARG13	0.448	
202	1HH2	20.150	4.171	-9.733	 H	13	ARG13	0.448	
203	2HH2	20.401	2.844	-8.514	 H	13	ARG13	0.448	
204	   N	13.221	4.562	-13.884	N.am	14	VAL14	-0.416	
205	  CA	13.513	4.176	-15.262	C.3	14	VAL14	-0.087	
206	   C	13.284	5.331	-16.207	C.2	14	VAL14	0.597	
207	   O	14.109	5.640	-17.077	O.2	14	VAL14	-0.568	
208	  CB	12.627	2.932	-15.669	C.3	14	VAL14	0.299	
209	 CG1	12.679	2.508	-17.163	C.3	14	VAL14	-0.319	
210	 CG2	12.946	1.646	-14.869	C.3	14	VAL14	-0.319	
211	   H	12.538	4.052	-13.343	 H	14	VAL14	0.272	
212	  HA	14.581	3.903	-15.336	 H	14	VAL14	0.097	
213	  HB	11.570	3.198	-15.453	 H	14	VAL14	-0.030	
214	1HG1	13.701	2.239	-17.491	 H	14	VAL14	0.079	
215	2HG1	12.027	1.639	-17.376	 H	14	VAL14	0.079	
216	3HG1	12.319	3.305	-17.841	 H	14	VAL14	0.079	
217	1HG2	12.873	1.812	-13.778	 H	14	VAL14	0.079	
218	2HG2	12.235	0.830	-15.101	 H	14	VAL14	0.079	
219	3HG2	13.964	1.265	-15.074	 H	14	VAL14	0.079	
220	   N	12.196	6.015	-16.105	N.am	15	MET15	-0.416	
221	  CA	11.974	7.132	-17.019	C.3	15	MET15	-0.024	
222	   C	13.097	8.137	-16.931	C.2	15	MET15	0.597	
223	   O	13.643	8.601	-17.943	O.2	15	MET15	-0.568	
224	  CB	10.606	7.802	-16.710	C.3	15	MET15	0.034	
225	  CG	9.360	6.910	-16.902	C.3	15	MET15	0.002	
226	  SD	7.869	7.912	-16.788	S.3	15	MET15	-0.274	
227	  CE	6.666	6.584	-16.652	C.3	15	MET15	-0.054	
228	   H	11.508	5.782	-15.404	 H	15	MET15	0.272	
229	  HA	11.965	6.744	-18.055	 H	15	MET15	0.088	
230	 2HB	10.482	8.695	-17.352	 H	15	MET15	0.024	
231	 3HB	10.605	8.196	-15.674	 H	15	MET15	0.024	
232	 2HG	9.333	6.124	-16.125	 H	15	MET15	0.044	
233	 3HG	9.378	6.392	-17.879	 H	15	MET15	0.044	
234	 1HE	6.748	5.886	-17.504	 H	15	MET15	0.068	
235	 2HE	6.825	6.015	-15.719	 H	15	MET15	0.068	
236	 3HE	5.640	6.992	-16.635	 H	15	MET15	0.068	
237	   N	13.501	8.523	-15.769	N.am	16	ARG16	-0.348	
238	  CA	14.588	9.495	-15.685	C.3	16	ARG16	-0.264	
239	   C	15.819	8.991	-16.401	C.2	16	ARG16	0.734	
240	   O	15.837	7.909	-16.982	O.2	16	ARG16	-0.589	
241	  CB	14.884	9.787	-14.186	C.3	16	ARG16	-0.001	
242	  CG	15.820	10.998	-13.913	C.3	16	ARG16	0.039	
243	  CD	16.088	11.194	-12.412	C.3	16	ARG16	0.049	
244	  NE	16.973	12.379	-12.210	N.pl3	16	ARG16	-0.530	
245	  CZ	17.405	12.825	-11.034	C.cat	16	ARG16	0.808	
246	 NH1	17.106	12.265	-9.896	N.pl3	16	ARG16	-0.863	
247	 NH2	18.165	13.874	-11.016	N.pl3	16	ARG16	-0.863	
248	   H	13.073	8.160	-14.929	 H	16	ARG16	0.275	
249	  HA	14.260	10.420	-16.194	 H	16	ARG16	0.156	
250	 2HB	15.302	8.871	-13.720	 H	16	ARG16	0.033	
251	 3HB	13.926	9.954	-13.652	 H	16	ARG16	0.033	
252	 2HG	15.369	11.913	-14.350	 H	16	ARG16	0.029	
253	 3HG	16.785	10.859	-14.442	 H	16	ARG16	0.029	
254	 2HD	16.557	10.274	-11.998	 H	16	ARG16	0.069	
255	 3HD	15.123	11.323	-11.876	 H	16	ARG16	0.069	
256	  HE	17.302	12.934	-13.007	 H	16	ARG16	0.346	
257	1HH1	16.505	11.442	-9.981	 H	16	ARG16	0.448	
258	2HH1	17.478	12.669	-9.035	 H	16	ARG16	0.448	
259	1HH2	18.389	14.300	-11.917	 H	16	ARG16	0.448	
260	2HH2	18.485	14.202	-10.103	 H	16	ARG16	0.448	
@<TRIPOS>BOND
1 1 2 1
2 1 6 1
3 2 3 1
4 2 5 1
5 2 7 1
6 3 4 2
7 3 11 1
8 5 8 1
9 5 9 1
10 5 10 1
11 11 12 1
12 11 19 1
13 12 13 1
14 12 15 1
15 12 20 1
16 13 14 2
17 13 25 1
18 15 16 1
19 16 17 1
20 16 18 2
21 15 21 1
22 15 22 1
23 17 23 1
24 17 24 1
25 25 26 1
26 25 31 1
27 26 27 1
28 26 29 1
29 26 32 1
30 27 28 2
31 27 39 1
32 29 30 1
33 30 31 1
34 29 33 1
35 29 34 1
36 30 35 1
37 30 36 1
38 31 37 1
39 31 38 1
40 39 40 1
41 39 48 1
42 40 41 1
43 40 43 1
44 40 49 1
45 41 42 2
46 41 54 1
47 43 44 1
48 44 45 1
49 45 46 2
50 45 47 1
51 43 50 1
52 43 51 1
53 44 52 1
54 44 53 1
55 54 55 1
56 54 60 1
57 55 56 1
58 55 58 1
59 55 61 1
60 56 57 2
61 56 65 1
62 58 59 1
63 58 62 1
64 58 63 1
65 59 64 1
66 65 66 1
67 65 73 1
68 66 67 1
69 66 69 1
70 66 74 1
71 67 68 2
72 67 84 1
73 69 70 1
74 69 71 1
75 70 72 1
76 69 75 1
77 70 76 1
78 70 77 1
79 71 78 1
80 71 79 1
81 71 80 1
82 72 81 1
83 72 82 1
84 72 83 1
85 84 85 1
86 84 92 1
87 85 86 1
88 85 88 1
89 85 93 1
90 86 87 2
91 86 103 1
92 88 89 1
93 89 90 1
94 89 91 1
95 88 94 1
96 88 95 1
97 89 96 1
98 90 97 1
99 90 98 1
100 90 99 1
101 91 100 1
102 91 101 1
103 91 102 1
104 103 104 1
105 103 111 1
106 104 105 1
107 104 107 1
108 104 112 1
109 105 106 2
110 105 115 1
111 107 108 1
112 108 109 2
113 108 110 1
114 107 113 1
115 107 114 1
116 115 116 1
117 115 124 1
118 116 117 1
119 116 119 1
120 116 125 1
121 117 118 2
122 117 130 1
123 119 120 1
124 120 121 1
125 121 122 2
126 121 123 1
127 119 126 1
128 119 127 1
129 120 128 1
130 120 129 1
131 130 131 1
132 130 140 1
133 131 132 1
134 131 134 1
135 131 141 1
136 132 133 2
137 132 147 1
138 134 135 1
139 135 136 2
140 136 139 1
141 135 137 1
142 137 138 2
143 138 139 1
144 134 142 1
145 134 143 1
146 136 144 1
147 138 145 1
148 139 146 1
149 147 148 1
150 147 154 1
151 148 149 1
152 148 151 1
153 148 155 1
154 149 150 2
155 149 163 1
156 151 152 1
157 151 153 1
158 151 156 1
159 152 157 1
160 152 158 1
161 152 159 1
162 153 160 1
163 153 161 1
164 153 162 1
165 163 164 1
166 163 172 1
167 164 165 1
168 164 167 1
169 164 173 1
170 165 166 2
171 165 180 1
172 167 168 1
173 168 169 1
174 169 170 1
175 169 171 2
176 167 174 1
177 167 175 1
178 168 176 1
179 168 177 1
180 170 178 1
181 170 179 1
182 180 181 1
183 180 191 1
184 181 182 1
185 181 184 1
186 181 192 1
187 182 183 2
188 182 204 1
189 184 185 1
190 185 186 1
191 186 187 1
192 187 188 1
193 188 189 2
194 188 190 1
195 184 193 1
196 184 194 1
197 185 195 1
198 185 196 1
199 186 197 1
200 186 198 1
201 187 199 1
202 189 200 1
203 189 201 1
204 190 202 1
205 190 203 1
206 204 205 1
207 204 211 1
208 205 206 1
209 205 208 1
210 205 212 1
211 206 207 2
212 206 220 1
213 208 209 1
214 208 210 1
215 208 213 1
216 209 214 1
217 209 215 1
218 209 216 1
219 210 217 1
220 210 218 1
221 210 219 1
222 220 221 1
223 220 228 1
224 221 222 1
225 221 224 1
226 221 229 1
227 222 223 2
228 222 237 1
229 224 225 1
230 225 226 1
231 226 227 1
232 224 230 1
233 224 231 1
234 225 232 1
235 225 233 1
236 227 234 1
237 227 235 1
238 227 236 1
239 237 238 1
240 237 248 1
241 238 239 1
242 238 241 1
243 238 249 1
244 239 240 2
245 241 242 1
246 242 243 1
247 243 244 1
248 244 245 1
249 245 246 2
250 245 247 1
251 241 250 1
252 241 251 1
253 242 252 1
254 242 253 1
255 243 254 1
256 243 255 1
257 244 256 1
258 246 257 1
259 246 258 1
260 247 259 1
261 247 260 1
@<TRIPOS>SUBSTRUCTURE
1	ALA1	1	RESIDUE	1 ****	ALA
2	ASN2	11	RESIDUE	1 ****	ASN
3	PRO3	25	RESIDUE	1 ****	PRO
4	GLU4	39	RESIDUE	1 ****	GLU
5	SER5	54	RESIDUE	1 ****	SER
6	ILE6	65	RESIDUE	1 ****	ILE
7	LEU7	84	RESIDUE	1 ****	LEU
8	ASP8	103	RESIDUE	1 ****	ASP
9	GLU9	115	RESIDUE	1 ****	GLU
10	HIS10	130	RESIDUE	1 ****	HIS
11	VAL11	147	RESIDUE	1 ****	VAL
12	GLN12	163	RESIDUE	1 ****	GLN
13	ARG13	180	RESIDUE	1 ****	ARG
14	VAL14	204	RESIDUE	1 ****	VAL
15	MET15	220	RESIDUE	1 ****	MET
16	ARG16	237	RESIDUE	1 ****	ARG
