REMARK WARNING: 32 MAX_TORS EXCEEDED!!!
REMARK  69 active torsions:
REMARK  status: ('A' for Active; 'I' for Inactive)
REMARK    1  A    between atoms: N_1  and  CA_2 
REMARK    2  A    between atoms: CA_2  and  C_3 
REMARK    3  A    between atoms: CA_2  and  CB_5 
REMARK       I    between atoms: C_3  and  N_11 
REMARK    4  A    between atoms: CB_5  and  CG_6 
REMARK    5  A    between atoms: CG_6  and  CD_7 
REMARK    6  A    between atoms: N_11  and  CA_12 
REMARK    7  A    between atoms: CA_12  and  C_13 
REMARK    8  A    between atoms: CA_12  and  CB_15 
REMARK       I    between atoms: C_13  and  N_22 
REMARK    9  A    between atoms: CB_15  and  CG_16 
REMARK       I    between atoms: CG_16  and  ND2_17 
REMARK   10  A    between atoms: CA_23  and  C_24 
REMARK       I    between atoms: C_24  and  N_29 
REMARK   11  A    between atoms: N_29  and  CA_30 
REMARK   12  A    between atoms: CA_30  and  C_31 
REMARK   13  A    between atoms: CA_30  and  CB_33 
REMARK       I    between atoms: C_31  and  N_39 
REMARK   14  A    between atoms: CB_33  and  CG_34 
REMARK   15  A    between atoms: CG_34  and  CD_35 
REMARK   16  A    between atoms: N_39  and  CA_40 
REMARK   17  A    between atoms: CA_40  and  C_41 
REMARK   18  A    between atoms: CA_40  and  CB_43 
REMARK       I    between atoms: C_41  and  N_47 
REMARK   19  A    between atoms: CB_43  and  OG_44 
REMARK   20  A    between atoms: N_47  and  CA_48 
REMARK   21  A    between atoms: CA_48  and  C_49 
REMARK   22  A    between atoms: CA_48  and  CB_51 
REMARK       I    between atoms: C_49  and  N_56 
REMARK   23  A    between atoms: CB_51  and  CG_52 
REMARK   24  A    between atoms: CG_52  and  SD_53 
REMARK   25  A    between atoms: N_56  and  CA_57 
REMARK   26  A    between atoms: CA_57  and  C_58 
REMARK   27  A    between atoms: CA_57  and  CB_60 
REMARK       I    between atoms: C_58  and  N_65 
REMARK   28  A    between atoms: CB_60  and  CG_61 
REMARK   29  A    between atoms: N_65  and  CA_66 
REMARK   30  A    between atoms: CA_66  and  C_67 
REMARK   31  A    between atoms: CA_66  and  CB_69 
REMARK       I    between atoms: C_67  and  N_74 
REMARK   32  A    between atoms: CB_69  and  CG_70 
REMARK   33  A    between atoms: N_74  and  CA_75 
REMARK   34  A    between atoms: CA_75  and  C_76 
REMARK   35  A    between atoms: CA_75  and  CB_78 
REMARK       I    between atoms: C_76  and  N_84 
REMARK   36  A    between atoms: CB_78  and  CG_79 
REMARK   37  A    between atoms: CG_79  and  CD_80 
REMARK   38  A    between atoms: N_84  and  CA_85 
REMARK   39  A    between atoms: CA_85  and  C_86 
REMARK   40  A    between atoms: CA_85  and  CB_88 
REMARK       I    between atoms: C_86  and  N_96 
REMARK   41  A    between atoms: CB_88  and  CG_89 
REMARK   42  A    between atoms: N_96  and  CA_97 
REMARK   43  A    between atoms: CA_97  and  C_98 
REMARK   44  A    between atoms: CA_97  and  CB_100 
REMARK       I    between atoms: C_98  and  N_104 
REMARK   45  A    between atoms: N_104  and  CA_105 
REMARK   46  A    between atoms: CA_105  and  C_106 
REMARK   47  A    between atoms: CA_105  and  CB_108 
REMARK       I    between atoms: C_106  and  N_116 
REMARK   48  A    between atoms: CB_108  and  CG_109 
REMARK   49  A    between atoms: CG_109  and  CD_110 
REMARK       I    between atoms: CD_110  and  NE2_111 
REMARK   50  A    between atoms: N_116  and  CA_117 
REMARK   51  A    between atoms: CA_117  and  C_118 
REMARK   52  A    between atoms: CA_117  and  CB_120 
REMARK       I    between atoms: C_118  and  N_133 
REMARK   53  A    between atoms: CB_120  and  CG_121 
REMARK   54  A    between atoms: CG_121  and  CD_122 
REMARK   55  A    between atoms: CD_122  and  NE_123 
REMARK       I    between atoms: NE_123  and  CZ_124 
REMARK       I    between atoms: CZ_124  and  NH1_125 
REMARK       I    between atoms: CZ_124  and  NH2_126 
REMARK   56  A    between atoms: N_133  and  CA_134 
REMARK   57  A    between atoms: CA_134  and  C_135 
REMARK   58  A    between atoms: CA_134  and  CB_137 
REMARK       I    between atoms: C_135  and  N_141 
REMARK   59  A    between atoms: N_141  and  CA_142 
REMARK   60  A    between atoms: CA_142  and  C_143 
REMARK   61  A    between atoms: CA_142  and  CB_145 
REMARK       I    between atoms: C_143  and  N_150 
REMARK   62  A    between atoms: CB_145  and  CG_146 
REMARK   63  A    between atoms: CG_146  and  SD_147 
REMARK   64  A    between atoms: N_150  and  CA_151 
REMARK   65  A    between atoms: CA_151  and  C_152 
REMARK   66  A    between atoms: CA_151  and  CB_154 
REMARK   67  A    between atoms: CB_154  and  CG_155 
REMARK   68  A    between atoms: CG_155  and  CD_156 
REMARK   69  A    between atoms: CD_156  and  NE_157 
REMARK       I    between atoms: NE_157  and  CZ_158 
REMARK       I    between atoms: CZ_158  and  NH1_159 
ROOT
ATOM      1  C   GLU d   9     903.440 247.688-869.843  0.00  0.00     0.241 C 
ATOM      2  O   GLU d   9     904.105 248.442-870.568  0.00  0.00    -0.271 OA
ATOM      3  N   HIS d  10     903.537 246.412-870.012  0.00  0.00    -0.346 N 
ATOM      4  H   HIS d  10     903.005 245.777-869.434  0.00  0.00     0.163 HD
ENDROOT
BRANCH   1   5
ATOM      5  CA  GLU d   9     902.521 248.216-868.769  0.00  0.00     0.177 C 
BRANCH   5   6
ATOM      6  N   GLU d   9     901.218 247.559-868.826  0.00  0.00    -0.346 N 
ATOM      7  C   ASP d   8     900.540 247.608-869.922  0.00  0.00     0.241 C 
ATOM      8  O   ASP d   8     901.014 248.213-870.896  0.00  0.00    -0.271 OA
ATOM      9  H   GLU d   9     900.853 247.073-868.019  0.00  0.00     0.163 HD
BRANCH   7  10
ATOM     10  CA  ASP d   8     899.193 246.929-869.981  0.00  0.00     0.186 C 
BRANCH  10  11
ATOM     11  N   ASP d   8     899.262 245.580-869.428  0.00  0.00    -0.346 N 
ATOM     12  C   LEU d   7     900.100 244.738-869.932  0.00  0.00     0.241 C 
ATOM     13  O   LEU d   7     900.822 245.101-870.873  0.00  0.00    -0.271 OA
ATOM     14  H   ASP d   8     898.663 245.309-868.661  0.00  0.00     0.163 HD
BRANCH  12  15
ATOM     15  CA  LEU d   7     900.171 243.343-869.360  0.00  0.00     0.177 C 
BRANCH  15  16
ATOM     16  N   LEU d   7     900.224 243.380-867.901  0.00  0.00    -0.346 N 
ATOM     17  C   MET d   6     901.169 244.043-867.326  0.00  0.00     0.241 C 
ATOM     18  O   MET d   6     902.006 244.631-868.029  0.00  0.00    -0.271 OA
ATOM     19  H   LEU d   7     899.531 242.893-867.350  0.00  0.00     0.163 HD
BRANCH  17  20
ATOM     20  CA  MET d   6     901.225 244.082-865.818  0.00  0.00     0.177 C 
BRANCH  20  21
ATOM     21  N   MET d   6     899.911 244.377-865.252  0.00  0.00    -0.346 N 
ATOM     22  C   SER d   5     899.306 245.460-865.607  0.00  0.00     0.243 C 
ATOM     23  O   SER d   5     899.854 246.214-866.411  0.00  0.00    -0.271 OA
ATOM     24  H   MET d   6     899.483 243.743-864.593  0.00  0.00     0.163 HD
BRANCH  22  25
ATOM     25  CA  SER d   5     897.948 245.766-865.021  0.00  0.00     0.200 C 
BRANCH  25  26
ATOM     26  N   SER d   5     897.078 244.594-865.080  0.00  0.00    -0.344 N 
ATOM     27  C   GLU d   4     896.851 244.041-866.223  0.00  0.00     0.241 C 
ATOM     28  O   GLU d   4     897.377 244.521-867.237  0.00  0.00    -0.271 OA
ATOM     29  H   SER d   5     896.661 244.222-864.238  0.00  0.00     0.163 HD
BRANCH  27  30
ATOM     30  CA  GLU d   4     895.952 242.830-866.284  0.00  0.00     0.177 C 
BRANCH  30  31
ATOM     31  N   GLU d   4     896.312 241.859-865.254  0.00  0.00    -0.346 N 
ATOM     32  C   PRO d   3     897.517 241.399-865.222  0.00  0.00     0.241 C 
ATOM     33  O   PRO d   3     898.340 241.782-866.053  0.00  0.00    -0.271 OA
ATOM     34  H   GLU d   4     895.628 241.552-864.578  0.00  0.00     0.163 HD
BRANCH  32  35
ATOM     35  CA  PRO d   3     897.915 240.376-864.145  0.00  0.00     0.179 C 
ATOM     36  N   PRO d   3     897.463 240.785-862.823  0.00  0.00    -0.337 N 
ATOM     37  C   ASN d   2     897.984 241.780-862.189  0.00  0.00     0.243 C 
ATOM     38  CD  PRO d   3     896.385 239.992-862.274  0.00  0.00     0.127 C 
ATOM     39  O   ASN d   2     898.899 242.411-862.718  0.00  0.00    -0.271 OA
ATOM     40  CG  PRO d   3     895.928 239.173-863.484  0.00  0.00     0.022 C 
ATOM     41  CB  PRO d   3     897.211 239.021-864.314  0.00  0.00     0.037 C 
BRANCH  37  42
ATOM     42  CA  ASN d   2     897.453 242.135-860.821  0.00  0.00     0.185 C 
BRANCH  42  43
ATOM     43  N   ASN d   2     895.994 242.174-860.821  0.00  0.00    -0.346 N 
ATOM     44  C   GLU d   1     895.389 242.960-861.646  0.00  0.00     0.242 C 
ATOM     45  O   GLU d   1     896.065 243.659-862.414  0.00  0.00    -0.271 OA
ATOM     46  H   ASN d   2     895.466 241.594-860.184  0.00  0.00     0.163 HD
BRANCH  44  47
ATOM     47  CA  GLU d   1     893.880 243.000-861.646  0.00  0.00     0.191 C 
BRANCH  47  48
ATOM     48  N   GLU d   1     893.321 241.651-861.646  0.00  0.00    -0.326 NA
ATOM     49  H   GLU d   1     893.948 240.772-861.646  0.00  0.00     0.180 HD
ENDBRANCH  47  48
BRANCH  47  50
ATOM     50  CB  GLU d   1     893.357 243.785-860.409  0.00  0.00     0.047 C 
BRANCH  50  51
ATOM     51  CG  GLU d   1     893.832 245.270-860.298  0.00  0.00     0.116 C 
BRANCH  51  52
ATOM     52  CD  GLU d   1     893.408 246.074-859.083  0.00  0.00     0.172 C 
ATOM     53  OE1 GLU d   1     892.680 245.572-858.205  0.00  0.00    -0.648 OA
ATOM     54  OE2 GLU d   1     893.838 247.244-859.011  0.00  0.00    -0.648 OA
ENDBRANCH  51  52
ENDBRANCH  50  51
ENDBRANCH  47  50
ENDBRANCH  44  47
ENDBRANCH  42  43
BRANCH  42  55
ATOM     55  CB  ASN d   2     897.945 241.112-859.756  0.00  0.00     0.137 C 
BRANCH  55  56
ATOM     56  CG  ASN d   2     897.482 241.336-858.313  0.00  0.00     0.217 C 
ATOM     57  ND2 ASN d   2     898.077 242.251-857.595  0.00  0.00    -0.370 N 
ATOM     58 21HD ASN d   2     897.596 242.424-856.708  0.00  0.00     0.159 HD
ATOM     59 22HD ASN d   2     898.778 242.823-858.064  0.00  0.00     0.159 HD
ATOM     60  OD1 ASN d   2     896.562 240.702-857.819  0.00  0.00    -0.274 OA
ENDBRANCH  55  56
ENDBRANCH  42  55
ENDBRANCH  37  42
ENDBRANCH  32  35
ENDBRANCH  30  31
BRANCH  30  61
ATOM     61  CB  GLU d   4     894.464 243.248-866.114  0.00  0.00     0.045 C 
BRANCH  61  62
ATOM     62  CG  GLU d   4     893.915 244.252-867.179  0.00  0.00     0.116 C 
BRANCH  62  63
ATOM     63  CD  GLU d   4     892.489 244.748-867.036  0.00  0.00     0.172 C 
ATOM     64  OE1 GLU d   4     891.763 244.350-866.105  0.00  0.00    -0.648 OA
ATOM     65  OE2 GLU d   4     892.099 245.577-867.884  0.00  0.00    -0.648 OA
ENDBRANCH  62  63
ENDBRANCH  61  62
ENDBRANCH  30  61
ENDBRANCH  27  30
ENDBRANCH  25  26
BRANCH  25  66
ATOM     66  CB  SER d   5     898.059 246.298-863.571  0.00  0.00     0.199 C 
BRANCH  66  67
ATOM     67  OG  SER d   5     898.791 245.419-862.710  0.00  0.00    -0.398 OA
ATOM     68  HG  SER d   5     898.302 244.594-862.659  0.00  0.00     0.209 HD
ENDBRANCH  66  67
ENDBRANCH  25  66
ENDBRANCH  22  25
ENDBRANCH  20  21
BRANCH  20  69
ATOM     69  CB  MET d   6     901.753 242.737-865.248  0.00  0.00     0.045 C 
BRANCH  69  70
ATOM     70  CG  MET d   6     901.988 242.696-863.723  0.00  0.00     0.076 C 
BRANCH  70  71
ATOM     71  SD  MET d   6     902.864 241.188-863.279  0.00  0.00    -0.173 SA
ATOM     72  CE  MET d   6     902.625 241.254-861.499  0.00  0.00     0.089 C 
ENDBRANCH  70  71
ENDBRANCH  69  70
ENDBRANCH  20  69
ENDBRANCH  17  20
ENDBRANCH  15  16
BRANCH  15  73
ATOM     73  CB  LEU d   7     898.969 242.483-869.841  0.00  0.00     0.038 C 
BRANCH  73  74
ATOM     74  CG  LEU d   7     898.894 241.004-869.375  0.00  0.00    -0.020 C 
ATOM     75  CD1 LEU d   7     897.706 240.298-870.042  0.00  0.00     0.009 C 
ATOM     76  CD2 LEU d   7     900.188 240.225-869.664  0.00  0.00     0.009 C 
ENDBRANCH  73  74
ENDBRANCH  15  73
ENDBRANCH  12  15
ENDBRANCH  10  11
BRANCH  10  77
ATOM     77  CB  ASP d   8     898.114 247.768-869.242  0.00  0.00     0.147 C 
BRANCH  77  78
ATOM     78  CG  ASP d   8     897.896 249.189-869.783  0.00  0.00     0.175 C 
ATOM     79  OD1 ASP d   8     897.962 249.388-871.013  0.00  0.00    -0.648 OA
ATOM     80  OD2 ASP d   8     897.703 250.115-868.968  0.00  0.00    -0.648 OA
ENDBRANCH  77  78
ENDBRANCH  10  77
ENDBRANCH   7  10
ENDBRANCH   5   6
BRANCH   5  81
ATOM     81  CB  GLU d   9     903.152 248.009-867.362  0.00  0.00     0.045 C 
BRANCH  81  82
ATOM     82  CG  GLU d   9     904.534 248.700-867.131  0.00  0.00     0.116 C 
BRANCH  82  83
ATOM     83  CD  GLU d   9     905.234 248.487-865.802  0.00  0.00     0.172 C 
ATOM     84  OE1 GLU d   9     904.711 247.797-864.906  0.00  0.00    -0.648 OA
ATOM     85  OE2 GLU d   9     906.353 249.025-865.668  0.00  0.00    -0.648 OA
ENDBRANCH  82  83
ENDBRANCH  81  82
ENDBRANCH   5  81
ENDBRANCH   1   5
BRANCH   3  86
ATOM     86  CA  HIS d  10     904.426 245.901-871.051  0.00  0.00     0.182 C 
BRANCH  86  87
ATOM     87  C   HIS d  10     904.061 246.465-872.403  0.00  0.00     0.241 C 
ATOM     88  O   HIS d  10     904.915 246.929-873.174  0.00  0.00    -0.271 OA
ATOM     89  N   VAL d  11     902.824 246.464-872.768  0.00  0.00    -0.346 N 
ATOM     90  H   VAL d  11     902.110 246.091-872.158  0.00  0.00     0.163 HD
BRANCH  89  91
ATOM     91  CA  VAL d  11     902.471 247.010-874.075  0.00  0.00     0.180 C 
BRANCH  91  92
ATOM     92  C   VAL d  11     902.936 248.440-874.208  0.00  0.00     0.241 C 
ATOM     93  O   VAL d  11     903.538 248.845-875.210  0.00  0.00    -0.271 OA
ATOM     94  N   GLN d  12     902.697 249.266-873.246  0.00  0.00    -0.346 N 
ATOM     95  H   GLN d  12     902.207 248.960-872.417  0.00  0.00     0.163 HD
BRANCH  94  96
ATOM     96  CA  GLN d  12     903.146 250.649-873.372  0.00  0.00     0.177 C 
BRANCH  96  97
ATOM     97  C   GLN d  12     904.637 250.716-873.608  0.00  0.00     0.241 C 
ATOM     98  O   GLN d  12     905.125 251.424-874.486  0.00  0.00    -0.271 OA
ATOM     99  N   ARG d  13     905.420 250.010-872.866  0.00  0.00    -0.346 N 
ATOM    100  H   ARG d  13     905.043 249.420-872.138  0.00  0.00     0.163 HD
BRANCH  99 101
ATOM    101  CA  ARG d  13     906.861 250.075-873.094  0.00  0.00     0.176 C 
BRANCH 101 102
ATOM    102  C   ARG d  13     907.199 249.703-874.519  0.00  0.00     0.241 C 
ATOM    103  O   ARG d  13     907.968 250.374-875.202  0.00  0.00    -0.271 OA
ATOM    104  N   VAL d  14     906.663 248.649-875.034  0.00  0.00    -0.346 N 
ATOM    105  H   VAL d  14     906.027 248.080-874.493  0.00  0.00     0.163 HD
BRANCH 104 106
ATOM    106  CA  VAL d  14     906.990 248.289-876.411  0.00  0.00     0.180 C 
BRANCH 106 107
ATOM    107  C   VAL d  14     906.661 249.419-877.357  0.00  0.00     0.241 C 
ATOM    108  O   VAL d  14     907.456 249.800-878.225  0.00  0.00    -0.271 OA
ATOM    109  N   MET d  15     905.517 250.005-877.257  0.00  0.00    -0.346 N 
ATOM    110  H   MET d  15     904.851 249.712-876.556  0.00  0.00     0.163 HD
BRANCH 109 111
ATOM    111  CA  MET d  15     905.198 251.098-878.171  0.00  0.00     0.177 C 
BRANCH 111 112
ATOM    112  C   MET d  15     906.228 252.197-878.082  0.00  0.00     0.241 C 
ATOM    113  O   MET d  15     906.732 252.708-879.095  0.00  0.00    -0.271 OA
ATOM    114  N   ARG d  16     906.595 252.619-876.920  0.00  0.00    -0.347 N 
ATOM    115  H   ARG d  16     906.199 252.219-876.081  0.00  0.00     0.163 HD
BRANCH 114 116
ATOM    116  CA  ARG d  16     907.592 253.682-876.835  0.00  0.00     0.162 C 
BRANCH 116 117
ATOM    117  C   ARG d  16     908.863 253.289-877.549  0.00  0.00     0.219 C 
ATOM    118  O   ARG d  16     908.978 252.213-878.130  0.00  0.00    -0.287 OA
ENDBRANCH 116 117
BRANCH 116 119
ATOM    119  CB  ARG d  16     907.859 254.001-875.336  0.00  0.00     0.035 C 
BRANCH 119 120
ATOM    120  CG  ARG d  16     908.684 255.289-875.063  0.00  0.00     0.023 C 
BRANCH 120 121
ATOM    121  CD  ARG d  16     908.932 255.509-873.561  0.00  0.00     0.138 C 
BRANCH 121 122
ATOM    122  NE  ARG d  16     909.708 256.768-873.359  0.00  0.00    -0.227 N 
ATOM    123  CZ  ARG d  16     910.097 257.251-872.183  0.00  0.00     0.665 C 
ATOM    124  NH1 ARG d  16     909.848 256.667-871.045  0.00  0.00    -0.235 N 
ATOM    125  NH2 ARG d  16     910.762 258.363-872.164  0.00  0.00    -0.235 N 
ATOM    126 11HH ARG d  16     909.322 255.794-871.130  0.00  0.00     0.174 HD
ATOM    127 12HH ARG d  16     910.181 257.102-870.184  0.00  0.00     0.174 HD
ATOM    128 21HH ARG d  16     910.948 258.806-873.066  0.00  0.00     0.174 HD
ATOM    129 22HH ARG d  16     911.051 258.718-871.251  0.00  0.00     0.174 HD
ATOM    130  HE  ARG d  16     909.987 257.349-874.156  0.00  0.00     0.177 HD
ENDBRANCH 121 122
ENDBRANCH 120 121
ENDBRANCH 119 120
ENDBRANCH 116 119
ENDBRANCH 114 116
ENDBRANCH 111 112
BRANCH 111 131
ATOM    131  CB  MET d  15     903.776 251.644-877.865  0.00  0.00     0.045 C 
BRANCH 131 132
ATOM    132  CG  MET d  15     902.614 250.646-878.058  0.00  0.00     0.076 C 
BRANCH 132 133
ATOM    133  SD  MET d  15     901.040 251.512-877.946  0.00  0.00    -0.173 SA
ATOM    134  CE  MET d  15     899.958 250.083-877.811  0.00  0.00     0.089 C 
ENDBRANCH 132 133
ENDBRANCH 131 132
ENDBRANCH 111 131
ENDBRANCH 109 111
ENDBRANCH 106 107
BRANCH 106 135
ATOM    135  CB  VAL d  14     906.218 246.972-876.819  0.00  0.00     0.009 C 
ATOM    136  CG1 VAL d  14     906.309 246.553-878.312  0.00  0.00     0.012 C 
ATOM    137  CG2 VAL d  14     906.648 245.720-876.018  0.00  0.00     0.012 C 
ENDBRANCH 106 135
ENDBRANCH 104 106
ENDBRANCH 101 102
BRANCH 101 138
ATOM    138  CB  ARG d  13     907.572 249.136-872.079  0.00  0.00     0.036 C 
BRANCH 138 139
ATOM    139  CG  ARG d  13     909.117 249.289-871.996  0.00  0.00     0.023 C 
BRANCH 139 140
ATOM    140  CD  ARG d  13     909.742 248.301-870.997  0.00  0.00     0.138 C 
BRANCH 140 141
ATOM    141  NE  ARG d  13     911.219 248.508-870.944  0.00  0.00    -0.227 N 
ATOM    142  CZ  ARG d  13     912.066 247.817-870.188  0.00  0.00     0.665 C 
ATOM    143  NH1 ARG d  13     911.700 246.853-869.391  0.00  0.00    -0.235 N 
ATOM    144  NH2 ARG d  13     913.326 248.115-870.243  0.00  0.00    -0.235 N 
ATOM    145 11HH ARG d  13     910.694 246.667-869.395  0.00  0.00     0.174 HD
ATOM    146 12HH ARG d  13     912.412 246.369-868.841  0.00  0.00     0.174 HD
ATOM    147 21HH ARG d  13     913.594 248.873-870.873  0.00  0.00     0.174 HD
ATOM    148 22HH ARG d  13     913.960 247.574-869.653  0.00  0.00     0.174 HD
ATOM    149  HE  ARG d  13     911.672 249.230-871.515  0.00  0.00     0.177 HD
ENDBRANCH 140 141
ENDBRANCH 139 140
ENDBRANCH 138 139
ENDBRANCH 101 138
ENDBRANCH  99 101
ENDBRANCH  96  97
BRANCH  96 150
ATOM    150  CB  GLN d  12     902.753 251.417-872.090  0.00  0.00     0.044 C 
BRANCH 150 151
ATOM    151  CG  GLN d  12     903.114 252.939-872.059  0.00  0.00     0.105 C 
BRANCH 151 152
ATOM    152  CD  GLN d  12     902.810 253.752-870.795  0.00  0.00     0.215 C 
ATOM    153  NE2 GLN d  12     902.241 253.176-869.767  0.00  0.00    -0.370 N 
ATOM    154 21HE GLN d  12     902.133 253.771-868.944  0.00  0.00     0.159 HD
ATOM    155 22HE GLN d  12     902.078 252.173-869.870  0.00  0.00     0.159 HD
ATOM    156  OE1 GLN d  12     903.112 254.933-870.717  0.00  0.00    -0.274 OA
ENDBRANCH 151 152
ENDBRANCH 150 151
ENDBRANCH  96 150
ENDBRANCH  94  96
ENDBRANCH  91  92
BRANCH  91 157
ATOM    157  CB  VAL d  11     900.910 246.903-874.297  0.00  0.00     0.009 C 
ATOM    158  CG1 VAL d  11     900.344 247.607-875.561  0.00  0.00     0.012 C 
ATOM    159  CG2 VAL d  11     900.386 245.449-874.371  0.00  0.00     0.012 C 
ENDBRANCH  91 157
ENDBRANCH  89  91
ENDBRANCH  86  87
BRANCH  86 160
ATOM    160  CB  HIS d  10     904.262 244.372-871.046  0.00  0.00     0.095 C 
BRANCH 160 161
ATOM    161  CG  HIS d  10     905.547 243.661-870.736  0.00  0.00     0.053 A 
ATOM    162  CD2 HIS d  10     905.926 243.326-869.442  0.00  0.00     0.116 A 
ATOM    163  NE2 HIS d  10     907.141 242.695-869.507  0.00  0.00    -0.359 N 
ATOM    164  CE1 HIS d  10     907.405 242.697-870.842  0.00  0.00     0.207 A 
ATOM    165  2HE HIS d  10     907.706 242.317-868.733  0.00  0.00     0.166 HD
ATOM    166  ND1 HIS d  10     906.500 243.255-871.667  0.00  0.00    -0.247 NA
ENDBRANCH 160 161
ENDBRANCH  86 160
ENDBRANCH   3  86
TORSDOF 69
