REMARK WARNING: 32 MAX_TORS EXCEEDED!!!
REMARK  71 active torsions:
REMARK  status: ('A' for Active; 'I' for Inactive)
REMARK    1  A    between atoms: N_1  and  CA_2 
REMARK    2  A    between atoms: CA_2  and  C_3 
REMARK    3  A    between atoms: CA_2  and  CB_5 
REMARK       I    between atoms: C_3  and  N_11 
REMARK    4  A    between atoms: CB_5  and  CG_6 
REMARK    5  A    between atoms: CG_6  and  CD_7 
REMARK    6  A    between atoms: N_11  and  CA_12 
REMARK    7  A    between atoms: CA_12  and  C_13 
REMARK    8  A    between atoms: CA_12  and  CB_15 
REMARK       I    between atoms: C_13  and  N_22 
REMARK    9  A    between atoms: CB_15  and  CG_16 
REMARK       I    between atoms: CG_16  and  ND2_17 
REMARK   10  A    between atoms: N_22  and  CA_23 
REMARK   11  A    between atoms: CA_23  and  C_24 
REMARK   12  A    between atoms: CA_23  and  CB_26 
REMARK       I    between atoms: C_24  and  N_31 
REMARK   13  A    between atoms: CB_26  and  OG1_28 
REMARK   14  A    between atoms: N_31  and  CA_32 
REMARK   15  A    between atoms: CA_32  and  C_33 
REMARK   16  A    between atoms: CA_32  and  CB_35 
REMARK       I    between atoms: C_33  and  N_41 
REMARK   17  A    between atoms: CB_35  and  CG_36 
REMARK   18  A    between atoms: CG_36  and  CD_37 
REMARK   19  A    between atoms: N_41  and  CA_42 
REMARK   20  A    between atoms: CA_42  and  C_43 
REMARK   21  A    between atoms: CA_42  and  CB_45 
REMARK       I    between atoms: C_43  and  N_49 
REMARK   22  A    between atoms: CB_45  and  OG_46 
REMARK   23  A    between atoms: N_49  and  CA_50 
REMARK   24  A    between atoms: CA_50  and  C_51 
REMARK   25  A    between atoms: CA_50  and  CB_53 
REMARK       I    between atoms: C_51  and  N_58 
REMARK   26  A    between atoms: CB_53  and  CG1_54 
REMARK   27  A    between atoms: N_58  and  CA_59 
REMARK   28  A    between atoms: CA_59  and  C_60 
REMARK   29  A    between atoms: CA_59  and  CB_62 
REMARK       I    between atoms: C_60  and  N_67 
REMARK   30  A    between atoms: CB_62  and  CG_63 
REMARK   31  A    between atoms: N_67  and  CA_68 
REMARK   32  A    between atoms: CA_68  and  C_69 
REMARK   33  A    between atoms: CA_68  and  CB_71 
REMARK       I    between atoms: C_69  and  N_76 
REMARK   34  A    between atoms: CB_71  and  CG_72 
REMARK   35  A    between atoms: N_76  and  CA_77 
REMARK   36  A    between atoms: CA_77  and  C_78 
REMARK   37  A    between atoms: CA_77  and  CB_80 
REMARK       I    between atoms: C_78  and  N_86 
REMARK   38  A    between atoms: CB_80  and  CG_81 
REMARK   39  A    between atoms: CG_81  and  CD_82 
REMARK   40  A    between atoms: N_86  and  CA_87 
REMARK   41  A    between atoms: CA_87  and  C_88 
REMARK   42  A    between atoms: CA_87  and  CB_90 
REMARK       I    between atoms: C_88  and  N_98 
REMARK   43  A    between atoms: CB_90  and  CG_91 
REMARK   44  A    between atoms: N_98  and  CA_99 
REMARK   45  A    between atoms: CA_99  and  C_100 
REMARK   46  A    between atoms: CA_99  and  CB_102 
REMARK       I    between atoms: C_100  and  N_106 
REMARK   47  A    between atoms: N_106  and  CA_107 
REMARK   48  A    between atoms: CA_107  and  C_108 
REMARK   49  A    between atoms: CA_107  and  CB_110 
REMARK       I    between atoms: C_108  and  N_118 
REMARK   50  A    between atoms: CB_110  and  CG_111 
REMARK   51  A    between atoms: CG_111  and  CD_112 
REMARK       I    between atoms: CD_112  and  NE2_113 
REMARK   52  A    between atoms: N_118  and  CA_119 
REMARK   53  A    between atoms: CA_119  and  C_120 
REMARK   54  A    between atoms: CA_119  and  CB_122 
REMARK       I    between atoms: C_120  and  N_135 
REMARK   55  A    between atoms: CB_122  and  CG_123 
REMARK   56  A    between atoms: CG_123  and  CD_124 
REMARK   57  A    between atoms: CD_124  and  NE_125 
REMARK       I    between atoms: NE_125  and  CZ_126 
REMARK       I    between atoms: CZ_126  and  NH1_127 
REMARK       I    between atoms: CZ_126  and  NH2_128 
REMARK   58  A    between atoms: N_135  and  CA_136 
REMARK   59  A    between atoms: CA_136  and  C_137 
REMARK   60  A    between atoms: CA_136  and  CB_139 
REMARK       I    between atoms: C_137  and  N_143 
REMARK   61  A    between atoms: N_143  and  CA_144 
REMARK   62  A    between atoms: CA_144  and  C_145 
REMARK   63  A    between atoms: CA_144  and  CB_147 
REMARK       I    between atoms: C_145  and  N_152 
REMARK   64  A    between atoms: CB_147  and  CG_148 
REMARK   65  A    between atoms: CG_148  and  SD_149 
REMARK   66  A    between atoms: N_152  and  CA_153 
REMARK   67  A    between atoms: CA_153  and  C_154 
REMARK   68  A    between atoms: CA_153  and  CB_156 
REMARK   69  A    between atoms: CB_156  and  CG_157 
REMARK   70  A    between atoms: CG_157  and  CD_158 
REMARK   71  A    between atoms: CD_158  and  NE_159 
REMARK       I    between atoms: NE_159  and  CZ_160 
REMARK       I    between atoms: CZ_160  and  NH1_161 
ROOT
ATOM      1  C   GLU d   9     476.631 112.778-426.754  0.00  0.00     0.241 C 
ATOM      2  O   GLU d   9     477.479 113.484-427.317  0.00  0.00    -0.271 OA
ATOM      3  N   HIS d  10     476.527 111.537-427.090  0.00  0.00    -0.346 N 
ATOM      4  H   HIS d  10     475.843 110.941-426.645  0.00  0.00     0.163 HD
ENDROOT
BRANCH   1   5
ATOM      5  CA  GLU d   9     475.716 113.325-425.685  0.00  0.00     0.177 C 
BRANCH   5   6
ATOM      6  N   GLU d   9     474.332 112.924-425.926  0.00  0.00    -0.346 N 
ATOM      7  C   ASP d   8     473.779 113.230-427.051  0.00  0.00     0.241 C 
ATOM      8  O   ASP d   8     474.439 113.856-427.895  0.00  0.00    -0.271 OA
ATOM      9  H   GLU d   9     473.816 112.415-425.223  0.00  0.00     0.163 HD
BRANCH   7  10
ATOM     10  CA  ASP d   8     472.349 112.816-427.299  0.00  0.00     0.186 C 
BRANCH  10  11
ATOM     11  N   ASP d   8     472.137 111.418-426.934  0.00  0.00    -0.346 N 
ATOM     12  C   LEU d   7     472.866 110.509-427.489  0.00  0.00     0.241 C 
ATOM     13  O   LEU d   7     473.724 110.850-428.317  0.00  0.00    -0.271 OA
ATOM     14  H   ASP d   8     471.431 111.166-426.257  0.00  0.00     0.163 HD
BRANCH  12  15
ATOM     15  CA  LEU d   7     472.647 109.064-427.111  0.00  0.00     0.177 C 
BRANCH  15  16
ATOM     16  N   LEU d   7     472.566 108.910-425.662  0.00  0.00    -0.346 N 
ATOM     17  C   ILE d   6     473.551 109.316-424.934  0.00  0.00     0.241 C 
ATOM     18  O   ILE d   6     474.536 109.827-425.487  0.00  0.00    -0.271 OA
ATOM     19  H   LEU d   7     471.752 108.491-425.235  0.00  0.00     0.163 HD
BRANCH  17  20
ATOM     20  CA  ILE d   6     473.468 109.157-423.436  0.00  0.00     0.180 C 
BRANCH  20  21
ATOM     21  N   ILE d   6     472.175 109.611-422.932  0.00  0.00    -0.346 N 
ATOM     22  C   SER d   5     471.799 110.821-423.176  0.00  0.00     0.243 C 
ATOM     23  O   SER d   5     472.540 111.557-423.827  0.00  0.00    -0.271 OA
ATOM     24  H   ILE d   6     471.585 108.988-422.400  0.00  0.00     0.163 HD
BRANCH  22  25
ATOM     25  CA  SER d   5     470.461 111.291-422.655  0.00  0.00     0.200 C 
BRANCH  25  26
ATOM     26  N   SER d   5     469.416 110.311-422.938  0.00  0.00    -0.344 N 
ATOM     27  C   GLU d   4     469.210 109.954-424.160  0.00  0.00     0.241 C 
ATOM     28  O   GLU d   4     469.904 110.452-425.057  0.00  0.00    -0.271 OA
ATOM     29  H   SER d   5     468.863 109.920-422.188  0.00  0.00     0.163 HD
BRANCH  27  30
ATOM     30  CA  GLU d   4     468.129 108.941-424.453  0.00  0.00     0.177 C 
BRANCH  30  31
ATOM     31  N   GLU d   4     468.220 107.802-423.544  0.00  0.00    -0.346 N 
ATOM     32  C   THR d   3     469.321 107.132-423.488  0.00  0.00     0.243 C 
ATOM     33  O   THR d   3     470.251 107.468-424.192  0.00  0.00    -0.271 OA
ATOM     34  H   GLU d   4     467.432 107.542-422.968  0.00  0.00     0.163 HD
BRANCH  32  35
ATOM     35  CA  THR d   3     469.414 105.954-422.548  0.00  0.00     0.205 C 
BRANCH  35  36
ATOM     36  N   THR d   3     468.901 106.297-421.226  0.00  0.00    -0.344 N 
ATOM     37  C   ASN d   2     469.422 107.292-420.592  0.00  0.00     0.241 C 
ATOM     38  O   ASN d   2     470.337 107.923-421.120  0.00  0.00    -0.271 OA
ATOM     39  H   THR d   3     468.149 105.764-420.813  0.00  0.00     0.163 HD
BRANCH  37  40
ATOM     40  CA  ASN d   2     468.891 107.648-419.223  0.00  0.00     0.185 C 
BRANCH  40  41
ATOM     41  N   ASN d   2     467.432 107.686-419.223  0.00  0.00    -0.346 N 
ATOM     42  C   GLU d   1     466.827 108.472-420.048  0.00  0.00     0.242 C 
ATOM     43  O   GLU d   1     467.503 109.171-420.817  0.00  0.00    -0.271 OA
ATOM     44  H   ASN d   2     466.904 107.107-418.586  0.00  0.00     0.163 HD
BRANCH  42  45
ATOM     45  CA  GLU d   1     465.318 108.512-420.048  0.00  0.00     0.191 C 
BRANCH  45  46
ATOM     46  N   GLU d   1     464.759 107.163-420.048  0.00  0.00    -0.326 NA
ATOM     47  H   GLU d   1     465.386 106.284-420.048  0.00  0.00     0.180 HD
ENDBRANCH  45  46
BRANCH  45  48
ATOM     48  CB  GLU d   1     464.795 109.297-418.811  0.00  0.00     0.047 C 
BRANCH  48  49
ATOM     49  CG  GLU d   1     465.270 110.782-418.700  0.00  0.00     0.116 C 
BRANCH  49  50
ATOM     50  CD  GLU d   1     464.846 111.586-417.485  0.00  0.00     0.172 C 
ATOM     51  OE1 GLU d   1     464.118 111.084-416.607  0.00  0.00    -0.648 OA
ATOM     52  OE2 GLU d   1     465.276 112.756-417.413  0.00  0.00    -0.648 OA
ENDBRANCH  49  50
ENDBRANCH  48  49
ENDBRANCH  45  48
ENDBRANCH  42  45
ENDBRANCH  40  41
BRANCH  40  53
ATOM     53  CB  ASN d   2     469.384 106.625-418.159  0.00  0.00     0.137 C 
BRANCH  53  54
ATOM     54  CG  ASN d   2     468.921 106.849-416.715  0.00  0.00     0.217 C 
ATOM     55  ND2 ASN d   2     469.515 107.764-415.997  0.00  0.00    -0.370 N 
ATOM     56 21HD ASN d   2     469.034 107.937-415.110  0.00  0.00     0.159 HD
ATOM     57 22HD ASN d   2     470.216 108.335-416.466  0.00  0.00     0.159 HD
ATOM     58  OD1 ASN d   2     468.000 106.215-416.221  0.00  0.00    -0.274 OA
ENDBRANCH  53  54
ENDBRANCH  40  53
ENDBRANCH  37  40
ENDBRANCH  35  36
BRANCH  35  59
ATOM     59  CB  THR d   3     468.649 104.718-423.131  0.00  0.00     0.146 C 
ATOM     60  CG2 THR d   3     469.081 104.246-424.536  0.00  0.00     0.042 C 
BRANCH  59  61
ATOM     61  OG1 THR d   3     468.833 103.579-422.300  0.00  0.00    -0.393 OA
ATOM     62  1HG THR d   3     468.284 102.884-422.674  0.00  0.00     0.210 HD
ENDBRANCH  59  61
ENDBRANCH  35  59
ENDBRANCH  32  35
ENDBRANCH  30  31
BRANCH  30  63
ATOM     63  CB  GLU d   4     466.723 109.596-424.336  0.00  0.00     0.045 C 
BRANCH  63  64
ATOM     64  CG  GLU d   4     466.457 110.805-425.290  0.00  0.00     0.116 C 
BRANCH  64  65
ATOM     65  CD  GLU d   4     465.128 111.529-425.184  0.00  0.00     0.172 C 
ATOM     66  OE1 GLU d   4     464.259 111.156-424.373  0.00  0.00    -0.648 OA
ATOM     67  OE2 GLU d   4     464.967 112.513-425.936  0.00  0.00    -0.648 OA
ENDBRANCH  64  65
ENDBRANCH  63  64
ENDBRANCH  30  63
ENDBRANCH  27  30
ENDBRANCH  25  26
BRANCH  25  68
ATOM     68  CB  SER d   5     470.520 111.612-421.140  0.00  0.00     0.199 C 
BRANCH  68  69
ATOM     69  OG  SER d   5     471.007 110.516-420.358  0.00  0.00    -0.398 OA
ATOM     70  HG  SER d   5     470.384 109.792-420.457  0.00  0.00     0.209 HD
ENDBRANCH  68  69
ENDBRANCH  25  68
ENDBRANCH  22  25
ENDBRANCH  20  21
BRANCH  20  71
ATOM     71  CB  ILE d   6     473.773 107.671-422.984  0.00  0.00     0.013 C 
ATOM     72  CG2 ILE d   6     475.186 107.181-423.429  0.00  0.00     0.012 C 
BRANCH  71  73
ATOM     73  CG1 ILE d   6     473.632 107.415-421.449  0.00  0.00     0.002 C 
ATOM     74  CD1 ILE d   6     473.603 105.935-421.014  0.00  0.00     0.005 C 
ENDBRANCH  71  73
ENDBRANCH  20  71
ENDBRANCH  17  20
ENDBRANCH  15  16
BRANCH  15  75
ATOM     75  CB  LEU d   7     471.367 108.500-427.793  0.00  0.00     0.038 C 
BRANCH  75  76
ATOM     76  CG  LEU d   7     471.002 107.012-427.542  0.00  0.00    -0.020 C 
ATOM     77  CD1 LEU d   7     469.780 106.619-428.384  0.00  0.00     0.009 C 
ATOM     78  CD2 LEU d   7     472.168 106.055-427.843  0.00  0.00     0.009 C 
ENDBRANCH  75  76
ENDBRANCH  15  75
ENDBRANCH  12  15
ENDBRANCH  10  11
BRANCH  10  79
ATOM     79  CB  ASP d   8     471.362 113.737-426.530  0.00  0.00     0.147 C 
BRANCH  79  80
ATOM     80  CG  ASP d   8     471.438 115.230-426.883  0.00  0.00     0.175 C 
ATOM     81  OD1 ASP d   8     471.653 115.564-428.067  0.00  0.00    -0.648 OA
ATOM     82  OD2 ASP d   8     471.327 116.067-425.964  0.00  0.00    -0.648 OA
ENDBRANCH  79  80
ENDBRANCH  10  79
ENDBRANCH   7  10
ENDBRANCH   5   6
BRANCH   5  83
ATOM     83  CB  GLU d   9     476.167 112.835-424.279  0.00  0.00     0.045 C 
BRANCH  83  84
ATOM     84  CG  GLU d   9     477.618 113.234-423.856  0.00  0.00     0.116 C 
BRANCH  84  85
ATOM     85  CD  GLU d   9     478.143 112.736-422.522  0.00  0.00     0.172 C 
ATOM     86  OE1 GLU d   9     477.428 112.045-421.771  0.00  0.00    -0.648 OA
ATOM     87  OE2 GLU d   9     479.318 113.043-422.236  0.00  0.00    -0.648 OA
ENDBRANCH  84  85
ENDBRANCH  83  84
ENDBRANCH   5  83
ENDBRANCH   1   5
BRANCH   3  88
ATOM     88  CA  HIS d  10     477.412 111.006-428.124  0.00  0.00     0.182 C 
BRANCH  88  89
ATOM     89  C   HIS d  10     477.277 111.790-429.407  0.00  0.00     0.241 C 
ATOM     90  O   HIS d  10     478.266 112.185-430.042  0.00  0.00    -0.271 OA
ATOM     91  N   VAL d  11     476.098 112.056-429.856  0.00  0.00    -0.346 N 
ATOM     92  H   VAL d  11     475.277 111.745-429.357  0.00  0.00     0.163 HD
BRANCH  91  93
ATOM     93  CA  VAL d  11     475.967 112.814-431.097  0.00  0.00     0.180 C 
BRANCH  93  94
ATOM     94  C   VAL d  11     476.677 114.143-430.996  0.00  0.00     0.241 C 
ATOM     95  O   VAL d  11     477.431 114.554-431.887  0.00  0.00    -0.271 OA
ATOM     96  N   GLN d  12     476.490 114.873-429.949  0.00  0.00    -0.346 N 
ATOM     97  H   GLN d  12     475.879 114.560-429.208  0.00  0.00     0.163 HD
BRANCH  96  98
ATOM     98  CA  GLN d  12     477.175 116.158-429.850  0.00  0.00     0.177 C 
BRANCH  98  99
ATOM     99  C   GLN d  12     478.671 115.985-429.967  0.00  0.00     0.241 C 
ATOM    100  O   GLN d  12     479.353 116.697-430.701  0.00  0.00    -0.271 OA
ATOM    101  N   ARG d  13     479.251 115.063-429.275  0.00  0.00    -0.346 N 
ATOM    102  H   ARG d  13     478.712 114.465-428.665  0.00  0.00     0.163 HD
BRANCH 101 103
ATOM    103  CA  ARG d  13     480.697 114.897-429.389  0.00  0.00     0.176 C 
BRANCH 103 104
ATOM    104  C   ARG d  13     481.101 114.650-430.823  0.00  0.00     0.241 C 
ATOM    105  O   ARG d  13     482.034 115.252-431.350  0.00  0.00    -0.271 OA
ATOM    106  N   VAL d  14     480.447 113.780-431.516  0.00  0.00    -0.346 N 
ATOM    107  H   VAL d  14     479.676 113.273-431.106  0.00  0.00     0.163 HD
BRANCH 106 108
ATOM    108  CA  VAL d  14     480.838 113.541-432.903  0.00  0.00     0.180 C 
BRANCH 108 109
ATOM    109  C   VAL d  14     480.796 114.820-433.704  0.00  0.00     0.241 C 
ATOM    110  O   VAL d  14     481.722 115.157-434.453  0.00  0.00    -0.271 OA
ATOM    111  N   MET d  15     479.761 115.585-433.607  0.00  0.00    -0.346 N 
ATOM    112  H   MET d  15     478.992 115.332-433.003  0.00  0.00     0.163 HD
BRANCH 111 113
ATOM    113  CA  MET d  15     479.719 116.822-434.381  0.00  0.00     0.177 C 
BRANCH 113 114
ATOM    114  C   MET d  15     480.907 117.699-434.067  0.00  0.00     0.241 C 
ATOM    115  O   MET d  15     481.583 118.232-434.960  0.00  0.00    -0.271 OA
ATOM    116  N   ARG d  16     481.227 117.901-432.834  0.00  0.00    -0.347 N 
ATOM    117  H   ARG d  16     480.692 117.478-432.089  0.00  0.00     0.163 HD
BRANCH 116 118
ATOM    118  CA  ARG d  16     482.376 118.749-432.531  0.00  0.00     0.162 C 
BRANCH 118 119
ATOM    119  C   ARG d  16     483.625 118.226-433.200  0.00  0.00     0.219 C 
ATOM    120  O   ARG d  16     483.612 117.227-433.915  0.00  0.00    -0.287 OA
ENDBRANCH 118 119
BRANCH 118 121
ATOM    121  CB  ARG d  16     482.549 118.827-430.988  0.00  0.00     0.035 C 
BRANCH 121 122
ATOM    122  CG  ARG d  16     483.549 119.903-430.480  0.00  0.00     0.023 C 
BRANCH 122 123
ATOM    123  CD  ARG d  16     483.687 119.887-428.948  0.00  0.00     0.138 C 
BRANCH 123 124
ATOM    124  NE  ARG d  16     484.641 120.951-428.519  0.00  0.00    -0.227 N 
ATOM    125  CZ  ARG d  16     484.993 121.207-427.262  0.00  0.00     0.665 C 
ATOM    126  NH1 ARG d  16     484.542 120.540-426.237  0.00  0.00    -0.235 N 
ATOM    127  NH2 ARG d  16     485.829 122.171-427.041  0.00  0.00    -0.235 N 
ATOM    128 11HH ARG d  16     483.887 119.793-426.479  0.00  0.00     0.174 HD
ATOM    129 12HH ARG d  16     484.860 120.799-425.301  0.00  0.00     0.174 HD
ATOM    130 21HH ARG d  16     486.173 122.681-427.857  0.00  0.00     0.174 HD
ATOM    131 22HH ARG d  16     486.086 122.353-426.070  0.00  0.00     0.174 HD
ATOM    132  HE  ARG d  16     485.089 121.566-429.205  0.00  0.00     0.177 HD
ENDBRANCH 123 124
ENDBRANCH 122 123
ENDBRANCH 121 122
ENDBRANCH 118 121
ENDBRANCH 116 118
ENDBRANCH 113 114
BRANCH 113 133
ATOM    133  CB  MET d  15     478.387 117.572-434.105  0.00  0.00     0.045 C 
BRANCH 133 134
ATOM    134  CG  MET d  15     477.097 116.830-434.517  0.00  0.00     0.076 C 
BRANCH 134 135
ATOM    135  SD  MET d  15     475.688 117.944-434.400  0.00  0.00    -0.173 SA
ATOM    136  CE  MET d  15     474.373 116.726-434.542  0.00  0.00     0.089 C 
ENDBRANCH 134 135
ENDBRANCH 133 134
ENDBRANCH 113 133
ENDBRANCH 111 113
ENDBRANCH 108 109
BRANCH 108 137
ATOM    137  CB  VAL d  14     479.898 112.445-433.543  0.00  0.00     0.009 C 
ATOM    138  CG1 VAL d  14     480.058 112.205-435.070  0.00  0.00     0.012 C 
ATOM    139  CG2 VAL d  14     480.033 111.046-432.894  0.00  0.00     0.012 C 
ENDBRANCH 108 137
ENDBRANCH 106 108
ENDBRANCH 103 104
BRANCH 103 140
ATOM    140  CB  ARG d  13     481.141 113.727-428.465  0.00  0.00     0.036 C 
BRANCH 140 141
ATOM    141  CG  ARG d  13     482.675 113.589-428.251  0.00  0.00     0.023 C 
BRANCH 141 142
ATOM    142  CD  ARG d  13     483.027 112.390-427.356  0.00  0.00     0.138 C 
BRANCH 142 143
ATOM    143  NE  ARG d  13     484.506 112.320-427.169  0.00  0.00    -0.227 N 
ATOM    144  CZ  ARG d  13     485.149 111.400-426.457  0.00  0.00     0.665 C 
ATOM    145  NH1 ARG d  13     484.552 110.426-425.830  0.00  0.00    -0.235 N 
ATOM    146  NH2 ARG d  13     486.441 111.472-426.380  0.00  0.00    -0.235 N 
ATOM    147 11HH ARG d  13     483.534 110.425-425.932  0.00  0.00     0.174 HD
ATOM    148 12HH ARG d  13     485.117 109.758-425.302  0.00  0.00     0.174 HD
ATOM    149 21HH ARG d  13     486.891 112.242-426.879  0.00  0.00     0.174 HD
ATOM    150 22HH ARG d  13     486.916 110.757-425.827  0.00  0.00     0.174 HD
ATOM    151  HE  ARG d  13     485.126 113.014-427.600  0.00  0.00     0.177 HD
ENDBRANCH 142 143
ENDBRANCH 141 142
ENDBRANCH 140 141
ENDBRANCH 103 140
ENDBRANCH 101 103
ENDBRANCH  98  99
BRANCH  98 152
ATOM    152  CB  GLN d  12     476.798 116.819-428.506  0.00  0.00     0.044 C 
BRANCH 152 153
ATOM    153  CG  GLN d  12     477.404 118.235-428.238  0.00  0.00     0.105 C 
BRANCH 153 154
ATOM    154  CD  GLN d  12     477.123 118.927-426.899  0.00  0.00     0.215 C 
ATOM    155  NE2 GLN d  12     476.370 118.340-426.004  0.00  0.00    -0.370 N 
ATOM    156 21HE GLN d  12     476.286 118.838-425.116  0.00  0.00     0.159 HD
ATOM    157 22HE GLN d  12     476.051 117.403-426.257  0.00  0.00     0.159 HD
ATOM    158  OE1 GLN d  12     477.611 120.016-426.637  0.00  0.00    -0.274 OA
ENDBRANCH 153 154
ENDBRANCH 152 153
ENDBRANCH  98 152
ENDBRANCH  96  98
ENDBRANCH  93  94
BRANCH  93 159
ATOM    159  CB  VAL d  11     474.439 113.018-431.443  0.00  0.00     0.009 C 
ATOM    160  CG1 VAL d  11     474.121 113.962-432.634  0.00  0.00     0.012 C 
ATOM    161  CG2 VAL d  11     473.686 111.702-431.755  0.00  0.00     0.012 C 
ENDBRANCH  93 159
ENDBRANCH  91  93
ENDBRANCH  88  89
BRANCH  88 162
ATOM    162  CB  HIS d  10     476.993 109.543-428.342  0.00  0.00     0.095 C 
BRANCH 162 163
ATOM    163  CG  HIS d  10     478.105 108.581-428.042  0.00  0.00     0.053 A 
ATOM    164  CD2 HIS d  10     478.298 108.026-426.784  0.00  0.00     0.116 A 
ATOM    165  NE2 HIS d  10     479.389 107.199-426.848  0.00  0.00    -0.359 N 
ATOM    166  CE1 HIS d  10     479.776 107.319-428.147  0.00  0.00     0.207 A 
ATOM    167  2HE HIS d  10     479.807 106.634-426.095  0.00  0.00     0.166 HD
ATOM    168  ND1 HIS d  10     479.060 108.128-428.949  0.00  0.00    -0.247 NA
ENDBRANCH 162 163
ENDBRANCH  88 162
ENDBRANCH   3  88
TORSDOF 71
