@<TRIPOS>MOLECULE
3-1
261 261 16              
SMALL
USER_CHARGES
@<TRIPOS>ATOM
1	   N	338.915	76.016	-319.311	N.3	1	GLU1	-0.516	
2	  CA	339.474	77.365	-319.311	C.3	1	GLU1	0.040	
3	   C	340.983	77.325	-319.311	C.2	1	GLU1	0.537	
4	   O	341.659	78.024	-320.079	O.2	1	GLU1	-0.582	
5	  CB	338.951	78.150	-318.074	C.3	1	GLU1	0.056	
6	  CG	339.426	79.635	-317.963	C.3	1	GLU1	0.014	
7	  CD	339.002	80.439	-316.748	C.2	1	GLU1	0.805	
8	 OE1	338.274	79.937	-315.870	O.co2	1	GLU1	-0.819	
9	 OE2	339.432	81.609	-316.676	O.co2	1	GLU1	-0.819	
10	   H	339.542	75.137	-319.311	 H	1	GLU1	0.294	
11	  HA	339.148	77.883	-320.231	 H	1	GLU1	0.111	
12	 2HB	339.240	77.619	-317.144	 H	1	GLU1	-0.017	
13	 3HB	337.844	78.140	-318.061	 H	1	GLU1	-0.017	
14	 2HG	339.116	80.220	-318.844	 H	1	GLU1	-0.043	
15	 3HG	340.526	79.702	-317.934	 H	1	GLU1	-0.043	
16	   N	341.588	76.539	-318.485	N.am	2	ASN2	-0.416	
17	  CA	343.047	76.501	-318.486	C.3	2	ASN2	0.014	
18	   C	343.578	76.145	-319.854	C.2	2	ASN2	0.597	
19	   O	344.493	76.776	-320.383	O.2	2	ASN2	-0.568	
20	  CB	343.539	75.478	-317.421	C.3	2	ASN2	-0.204	
21	  CG	343.076	75.702	-315.978	C.2	2	ASN2	0.713	
22	 ND2	343.670	76.617	-315.260	N.pl3	2	ASN2	-0.919	
23	 OD1	342.156	75.068	-315.484	O.2	2	ASN2	-0.593	
24	   H	341.059	75.960	-317.849	 H	2	ASN2	0.272	
25	  HA	343.424	77.511	-318.240	 H	2	ASN2	0.105	
26	 2HB	344.644	75.419	-317.425	 H	2	ASN2	0.080	
27	 3HB	343.210	74.460	-317.707	 H	2	ASN2	0.080	
28	1HD2	343.190	76.790	-314.373	 H	2	ASN2	0.420	
29	2HD2	344.372	77.188	-315.729	 H	2	ASN2	0.420	
30	   N	343.057	75.150	-320.488	N.am	3	ALA3	-0.416	
31	  CA	343.570	74.807	-321.811	C.3	3	ALA3	0.034	
32	   C	343.476	75.986	-322.750	C.2	3	ALA3	0.597	
33	   O	344.422	76.331	-323.468	O.2	3	ALA3	-0.568	
34	  CB	342.787	73.582	-322.313	C.3	3	ALA3	-0.183	
35	   H	342.305	74.617	-320.076	 H	3	ALA3	0.272	
36	  HA	344.641	74.546	-321.718	 H	3	ALA3	0.082	
37	 1HB	342.898	72.717	-321.632	 H	3	ALA3	0.060	
38	 2HB	341.702	73.788	-322.399	 H	3	ALA3	0.060	
39	 3HB	343.135	73.250	-323.308	 H	3	ALA3	0.060	
40	   N	342.374	76.655	-322.805	N.am	4	GLU4	-0.516	
41	  CA	342.283	77.795	-323.712	C.3	4	GLU4	0.040	
42	   C	343.362	78.809	-323.418	C.2	4	GLU4	0.537	
43	   O	344.056	79.309	-324.315	O.2	4	GLU4	-0.582	
44	  CB	340.876	78.449	-323.593	C.3	4	GLU4	0.056	
45	  CG	340.608	79.659	-324.546	C.3	4	GLU4	0.014	
46	  CD	339.278	80.382	-324.438	C.2	4	GLU4	0.805	
47	 OE1	338.410	80.007	-323.626	O.co2	4	GLU4	-0.819	
48	 OE2	339.116	81.366	-325.188	O.co2	4	GLU4	-0.819	
49	   H	341.587	76.394	-322.229	 H	4	GLU4	0.294	
50	  HA	342.427	77.436	-324.747	 H	4	GLU4	0.111	
51	 2HB	340.704	78.780	-322.549	 H	4	GLU4	-0.017	
52	 3HB	340.090	77.690	-323.772	 H	4	GLU4	-0.017	
53	 2HG	340.716	79.367	-325.603	 H	4	GLU4	-0.043	
54	 3HG	341.343	80.465	-324.384	 H	4	GLU4	-0.043	
55	   N	343.569	79.165	-322.196	N.am	5	SER5	-0.416	
56	  CA	344.613	80.145	-321.912	C.3	5	SER5	-0.025	
57	   C	345.951	79.677	-322.435	C.2	5	SER5	0.597	
58	   O	346.691	80.414	-323.085	O.2	5	SER5	-0.568	
59	  CB	344.673	80.464	-320.397	C.3	5	SER5	0.212	
60	  OG	345.161	79.367	-319.617	O.3	5	SER5	-0.655	
61	   H	343.017	78.772	-321.447	 H	5	SER5	0.272	
62	  HA	344.365	81.075	-322.456	 H	5	SER5	0.084	
63	 2HB	343.683	80.778	-320.015	 H	5	SER5	0.035	
64	 3HB	345.335	81.336	-320.226	 H	5	SER5	0.035	
65	  HG	344.539	78.644	-319.717	 H	5	SER5	0.428	
66	   N	346.329	78.467	-322.192	N.am	6	ILE6	-0.416	
67	  CA	347.622	78.015	-322.698	C.3	6	ILE6	-0.060	
68	   C	347.703	78.176	-324.196	C.2	6	ILE6	0.597	
69	   O	348.688	78.688	-324.749	O.2	6	ILE6	-0.568	
70	  CB	347.929	76.529	-322.248	C.3	6	ILE6	0.130	
71	 CG1	347.788	76.270	-320.713	C.3	6	ILE6	-0.043	
72	 CG2	349.342	76.041	-322.695	C.3	6	ILE6	-0.320	
73	 CD1	347.762	74.790	-320.280	C.3	6	ILE6	-0.066	
74	   H	345.739	77.843	-321.661	 H	6	ILE6	0.272	
75	  HA	348.398	78.675	-322.268	 H	6	ILE6	0.087	
76	  HB	347.178	75.883	-322.750	 H	6	ILE6	0.019	
77	2HG1	346.841	76.709	-320.349	 H	6	ILE6	0.024	
78	3HG1	348.577	76.816	-320.159	 H	6	ILE6	0.024	
79	1HG2	349.488	76.076	-323.788	 H	6	ILE6	0.088	
80	2HG2	350.153	76.637	-322.235	 H	6	ILE6	0.088	
81	3HG2	349.527	74.985	-322.426	 H	6	ILE6	0.088	
82	1HD1	346.954	74.228	-320.788	 H	6	ILE6	0.019	
83	2HD1	348.712	74.268	-320.493	 H	6	ILE6	0.019	
84	3HD1	347.587	74.695	-319.192	 H	6	ILE6	0.019	
85	   N	346.719	77.769	-324.924	N.am	7	LEU7	-0.416	
86	  CA	346.798	77.926	-326.373	C.3	7	LEU7	-0.052	
87	   C	347.016	79.372	-326.749	C.2	7	LEU7	0.597	
88	   O	347.874	79.714	-327.577	O.2	7	LEU7	-0.568	
89	  CB	345.519	77.361	-327.054	C.3	7	LEU7	-0.110	
90	  CG	345.155	75.873	-326.805	C.3	7	LEU7	0.353	
91	 CD1	343.933	75.480	-327.647	C.3	7	LEU7	-0.412	
92	 CD2	346.322	74.917	-327.108	C.3	7	LEU7	-0.412	
93	   H	345.905	77.349	-324.497	 H	7	LEU7	0.272	
94	  HA	347.684	77.375	-326.736	 H	7	LEU7	0.092	
95	 2HB	345.605	77.519	-328.147	 H	7	LEU7	0.046	
96	 3HB	344.653	77.982	-326.752	 H	7	LEU7	0.046	
97	  HG	344.882	75.758	-325.735	 H	7	LEU7	-0.036	
98	1HD1	343.058	76.120	-327.425	 H	7	LEU7	0.100	
99	2HD1	344.129	75.560	-328.733	 H	7	LEU7	0.100	
100	3HD1	343.619	74.438	-327.448	 H	7	LEU7	0.100	
101	1HD2	346.699	75.031	-328.141	 H	7	LEU7	0.100	
102	2HD2	347.173	75.095	-326.425	 H	7	LEU7	0.100	
103	3HD2	346.035	73.858	-326.969	 H	7	LEU7	0.100	
104	   N	346.287	80.279	-326.192	N.am	8	ASP8	-0.516	
105	  CA	346.497	81.678	-326.556	C.3	8	ASP8	0.038	
106	   C	347.927	82.093	-326.307	C.2	8	ASP8	0.537	
107	   O	348.585	82.721	-327.151	O.2	8	ASP8	-0.582	
108	  CB	345.509	82.597	-325.784	C.3	8	ASP8	-0.030	
109	  CG	345.584	84.090	-326.136	C.2	8	ASP8	0.799	
110	 OD1	345.798	84.426	-327.319	O.co2	8	ASP8	-0.801	
111	 OD2	345.473	84.926	-325.215	O.co2	8	ASP8	-0.801	
112	   H	345.582	80.026	-325.515	 H	8	ASP8	0.294	
113	  HA	346.308	81.785	-327.641	 H	8	ASP8	0.088	
114	 2HB	345.673	82.498	-324.695	 H	8	ASP8	-0.012	
115	 3HB	344.467	82.283	-325.958	 H	8	ASP8	-0.012	
116	   N	348.481	81.786	-325.183	N.am	9	GLU9	-0.516	
117	  CA	349.864	82.188	-324.943	C.3	9	GLU9	0.040	
118	   C	350.779	81.643	-326.012	C.2	9	GLU9	0.537	
119	   O	351.626	82.351	-326.575	O.2	9	GLU9	-0.582	
120	  CB	350.316	81.697	-323.538	C.3	9	GLU9	0.056	
121	  CG	351.767	82.097	-323.115	C.3	9	GLU9	0.014	
122	  CD	352.293	81.597	-321.782	C.2	9	GLU9	0.805	
123	 OE1	351.580	80.904	-321.031	O.co2	9	GLU9	-0.819	
124	 OE2	353.469	81.905	-321.496	O.co2	9	GLU9	-0.819	
125	   H	347.966	81.276	-324.480	 H	9	GLU9	0.294	
126	  HA	349.922	83.291	-324.975	 H	9	GLU9	0.111	
127	 2HB	350.226	80.593	-323.480	 H	9	GLU9	-0.017	
128	 3HB	349.617	82.068	-322.764	 H	9	GLU9	-0.017	
129	 2HG	351.893	83.191	-323.106	 H	9	GLU9	-0.043	
130	 3HG	352.512	81.718	-323.833	 H	9	GLU9	-0.043	
131	   N	350.676	80.402	-326.350	N.am	10	HIS10	-0.416	
132	  CA	351.561	79.874	-327.385	C.3	10	HIS10	-0.058	
133	   C	351.425	80.659	-328.667	C.2	10	HIS10	0.597	
134	   O	352.413	81.057	-329.303	O.2	10	HIS10	-0.568	
135	  CB	351.144	78.411	-327.605	C.3	10	HIS10	-0.007	
136	  CG	352.257	77.450	-327.307	C.2	10	HIS10	0.187	
137	 CD2	352.451	76.893	-326.049	C.2	10	HIS10	-0.221	
138	 ND1	353.212	76.999	-328.215	N.2	10	HIS10	-0.543	
139	 CE1	353.929	76.190	-327.415	C.2	10	HIS10	0.163	
140	 NE2	353.543	76.068	-326.116	N.pl3	10	HIS10	-0.280	
141	   H	349.994	79.805	-325.906	 H	10	HIS10	0.272	
142	  HA	352.600	80.013	-327.039	 H	10	HIS10	0.136	
143	 2HB	350.817	78.240	-328.650	 H	10	HIS10	0.037	
144	 3HB	350.275	78.125	-326.976	 H	10	HIS10	0.037	
145	 2HD	351.827	77.097	-325.184	 H	10	HIS10	0.186	
146	 1HE	354.775	75.675	-327.850	 H	10	HIS10	0.144	
147	 2HE	353.962	75.502	-325.363	 H	10	HIS10	0.334	
148	   N	350.245	80.925	-329.115	N.am	11	VAL11	-0.416	
149	  CA	350.113	81.685	-330.355	C.3	11	VAL11	-0.087	
150	   C	350.821	83.014	-330.253	C.2	11	VAL11	0.597	
151	   O	351.575	83.427	-331.143	O.2	11	VAL11	-0.568	
152	  CB	348.584	81.887	-330.700	C.3	11	VAL11	0.299	
153	 CG1	348.265	82.833	-331.890	C.3	11	VAL11	-0.319	
154	 CG2	347.833	80.571	-331.013	C.3	11	VAL11	-0.319	
155	   H	349.425	80.613	-328.616	 H	11	VAL11	0.272	
156	  HA	350.600	81.121	-331.172	 H	11	VAL11	0.097	
157	  HB	348.103	82.334	-329.804	 H	11	VAL11	-0.030	
158	1HG1	348.719	82.490	-332.838	 H	11	VAL11	0.079	
159	2HG1	347.177	82.935	-332.065	 H	11	VAL11	0.079	
160	3HG1	348.622	83.866	-331.715	 H	11	VAL11	0.079	
161	1HG2	347.934	79.835	-330.194	 H	11	VAL11	0.079	
162	2HG2	346.746	80.738	-331.140	 H	11	VAL11	0.079	
163	3HG2	348.201	80.086	-331.936	 H	11	VAL11	0.079	
164	   N	350.635	83.743	-329.205	N.am	12	GLN12	-0.416	
165	  CA	351.319	85.028	-329.105	C.3	12	GLN12	-0.003	
166	   C	352.815	84.857	-329.222	C.2	12	GLN12	0.597	
167	   O	353.496	85.570	-329.956	O.2	12	GLN12	-0.568	
168	  CB	350.941	85.687	-327.759	C.3	12	GLN12	-0.004	
169	  CG	351.547	87.104	-327.490	C.3	12	GLN12	-0.064	
170	  CD	351.266	87.794	-326.149	C.2	12	GLN12	0.695	
171	 NE2	350.514	87.204	-325.255	N.pl3	12	GLN12	-0.941	
172	 OE1	351.752	88.883	-325.886	O.2	12	GLN12	-0.609	
173	   H	350.025	83.428	-328.464	 H	12	GLN12	0.272	
174	  HA	350.989	85.672	-329.941	 H	12	GLN12	0.085	
175	 2HB	351.241	85.005	-326.936	 H	12	GLN12	0.017	
176	 3HB	349.838	85.757	-327.692	 H	12	GLN12	0.017	
177	 2HG	351.247	87.803	-328.292	 H	12	GLN12	0.035	
178	 3HG	352.650	87.069	-327.555	 H	12	GLN12	0.035	
179	1HE2	350.430	87.701	-324.366	 H	12	GLN12	0.425	
180	2HE2	350.195	86.267	-325.509	 H	12	GLN12	0.425	
181	   N	353.395	83.934	-328.533	N.am	13	ARG13	-0.348	
182	  CA	354.842	83.770	-328.647	C.3	13	ARG13	-0.264	
183	   C	355.246	83.525	-330.082	C.2	13	ARG13	0.734	
184	   O	356.178	84.128	-330.608	O.2	13	ARG13	-0.589	
185	  CB	355.287	82.599	-327.725	C.3	13	ARG13	-0.001	
186	  CG	356.821	82.462	-327.512	C.3	13	ARG13	0.039	
187	  CD	357.175	81.262	-326.619	C.3	13	ARG13	0.049	
188	  NE	358.655	81.193	-326.433	N.pl3	13	ARG13	-0.530	
189	  CZ	359.299	80.272	-325.722	C.cat	13	ARG13	0.808	
190	 NH1	358.702	79.297	-325.096	N.pl3	13	ARG13	-0.863	
191	 NH2	360.590	80.346	-325.646	N.pl3	13	ARG13	-0.863	
192	   H	352.858	83.335	-327.923	 H	13	ARG13	0.275	
193	  HA	355.320	84.713	-328.321	 H	13	ARG13	0.156	
194	 2HB	354.873	81.651	-328.127	 H	13	ARG13	0.033	
195	 3HB	354.801	82.712	-326.734	 H	13	ARG13	0.033	
196	 2HG	357.213	83.402	-327.072	 H	13	ARG13	0.029	
197	 3HG	357.333	82.354	-328.490	 H	13	ARG13	0.029	
198	 2HD	356.791	80.329	-327.087	 H	13	ARG13	0.069	
199	 3HD	356.656	81.360	-325.641	 H	13	ARG13	0.069	
200	  HE	359.273	81.889	-326.863	 H	13	ARG13	0.346	
201	1HH1	357.685	79.296	-325.198	 H	13	ARG13	0.448	
202	2HH1	359.269	78.630	-324.570	 H	13	ARG13	0.448	
203	1HH2	361.040	81.116	-326.144	 H	13	ARG13	0.448	
204	2HH2	361.066	79.631	-325.094	 H	13	ARG13	0.448	
205	   N	354.592	82.656	-330.776	N.am	14	VAL14	-0.416	
206	  CA	354.982	82.419	-332.163	C.3	14	VAL14	-0.087	
207	   C	354.938	83.699	-332.963	C.2	14	VAL14	0.597	
208	   O	355.864	84.037	-333.711	O.2	14	VAL14	-0.568	
209	  CB	354.042	81.322	-332.804	C.3	14	VAL14	0.299	
210	 CG1	354.202	81.084	-334.331	C.3	14	VAL14	-0.319	
211	 CG2	354.180	79.923	-332.157	C.3	14	VAL14	-0.319	
212	   H	353.822	82.147	-330.366	 H	14	VAL14	0.272	
213	  HA	356.027	82.061	-332.182	 H	14	VAL14	0.097	
214	  HB	352.994	81.655	-332.645	 H	14	VAL14	-0.030	
215	1HG1	355.226	80.766	-334.605	 H	14	VAL14	0.079	
216	2HG1	353.506	80.312	-334.711	 H	14	VAL14	0.079	
217	3HG1	353.974	81.990	-334.925	 H	14	VAL14	0.079	
218	1HG2	354.017	79.957	-331.064	 H	14	VAL14	0.079	
219	2HG2	353.431	79.211	-332.555	 H	14	VAL14	0.079	
220	3HG2	355.179	79.478	-332.325	 H	14	VAL14	0.079	
221	   N	353.903	84.462	-332.863	N.am	15	MET15	-0.416	
222	  CA	353.859	85.700	-333.636	C.3	15	MET15	-0.024	
223	   C	355.046	86.578	-333.322	C.2	15	MET15	0.597	
224	   O	355.722	87.113	-334.214	O.2	15	MET15	-0.568	
225	  CB	352.527	86.448	-333.358	C.3	15	MET15	0.034	
226	  CG	351.237	85.706	-333.771	C.3	15	MET15	0.002	
227	  SD	349.827	86.818	-333.651	S.3	15	MET15	-0.274	
228	  CE	348.514	85.599	-333.794	C.3	15	MET15	-0.054	
229	   H	353.135	84.208	-332.259	 H	15	MET15	0.272	
230	  HA	353.919	85.447	-334.711	 H	15	MET15	0.088	
231	 2HB	352.537	87.422	-333.884	 H	15	MET15	0.024	
232	 3HB	352.458	86.708	-332.282	 H	15	MET15	0.024	
233	 2HG	351.074	84.834	-333.109	 H	15	MET15	0.044	
234	 3HG	351.306	85.314	-334.802	 H	15	MET15	0.044	
235	 1HE	348.621	85.008	-334.721	 H	15	MET15	0.068	
236	 2HE	348.537	84.906	-332.934	 H	15	MET15	0.068	
237	 3HE	347.527	86.094	-333.810	 H	15	MET15	0.068	
238	   N	355.367	86.778	-332.089	N.am	16	ARG16	-0.348	
239	  CA	356.516	87.628	-331.785	C.3	16	ARG16	-0.264	
240	   C	357.765	87.107	-332.456	C.2	16	ARG16	0.734	
241	   O	357.752	86.108	-333.172	O.2	16	ARG16	-0.589	
242	  CB	356.690	87.703	-330.242	C.3	16	ARG16	-0.001	
243	  CG	357.689	88.780	-329.733	C.3	16	ARG16	0.039	
244	  CD	357.828	88.762	-328.202	C.3	16	ARG16	0.049	
245	  NE	358.781	89.827	-327.772	N.pl3	16	ARG16	-0.530	
246	  CZ	359.133	90.081	-326.515	C.cat	16	ARG16	0.808	
247	 NH1	358.684	89.413	-325.490	N.pl3	16	ARG16	-0.863	
248	 NH2	359.970	91.045	-326.294	N.pl3	16	ARG16	-0.863	
249	   H	354.833	86.354	-331.344	 H	16	ARG16	0.275	
250	  HA	356.312	88.636	-332.194	 H	16	ARG16	0.156	
251	 2HB	356.986	86.701	-329.868	 H	16	ARG16	0.033	
252	 3HB	355.702	87.889	-329.773	 H	16	ARG16	0.033	
253	 2HG	357.357	89.779	-330.082	 H	16	ARG16	0.029	
254	 3HG	358.686	88.620	-330.192	 H	16	ARG16	0.029	
255	 2HD	358.180	87.758	-327.876	 H	16	ARG16	0.069	
256	 3HD	356.829	88.911	-327.738	 H	16	ARG16	0.069	
257	  HE	359.228	90.443	-328.458	 H	16	ARG16	0.346	
258	1HH1	358.030	88.665	-325.733	 H	16	ARG16	0.448	
259	2HH1	359.003	89.671	-324.555	 H	16	ARG16	0.448	
260	1HH2	360.312	91.557	-327.109	 H	16	ARG16	0.448	
261	2HH2	360.227	91.226	-325.322	 H	16	ARG16	0.448	
@<TRIPOS>BOND
1 1 2 1
2 1 10 1
3 2 3 1
4 2 5 1
5 2 11 1
6 3 4 2
7 3 16 1
8 5 6 1
9 6 7 1
10 7 8 2
11 7 9 1
12 5 12 1
13 5 13 1
14 6 14 1
15 6 15 1
16 16 17 1
17 16 24 1
18 17 18 1
19 17 20 1
20 17 25 1
21 18 19 2
22 18 30 1
23 20 21 1
24 21 22 1
25 21 23 2
26 20 26 1
27 20 27 1
28 22 28 1
29 22 29 1
30 30 31 1
31 30 35 1
32 31 32 1
33 31 34 1
34 31 36 1
35 32 33 2
36 32 40 1
37 34 37 1
38 34 38 1
39 34 39 1
40 40 41 1
41 40 49 1
42 41 42 1
43 41 44 1
44 41 50 1
45 42 43 2
46 42 55 1
47 44 45 1
48 45 46 1
49 46 47 2
50 46 48 1
51 44 51 1
52 44 52 1
53 45 53 1
54 45 54 1
55 55 56 1
56 55 61 1
57 56 57 1
58 56 59 1
59 56 62 1
60 57 58 2
61 57 66 1
62 59 60 1
63 59 63 1
64 59 64 1
65 60 65 1
66 66 67 1
67 66 74 1
68 67 68 1
69 67 70 1
70 67 75 1
71 68 69 2
72 68 85 1
73 70 71 1
74 70 72 1
75 71 73 1
76 70 76 1
77 71 77 1
78 71 78 1
79 72 79 1
80 72 80 1
81 72 81 1
82 73 82 1
83 73 83 1
84 73 84 1
85 85 86 1
86 85 93 1
87 86 87 1
88 86 89 1
89 86 94 1
90 87 88 2
91 87 104 1
92 89 90 1
93 90 91 1
94 90 92 1
95 89 95 1
96 89 96 1
97 90 97 1
98 91 98 1
99 91 99 1
100 91 100 1
101 92 101 1
102 92 102 1
103 92 103 1
104 104 105 1
105 104 112 1
106 105 106 1
107 105 108 1
108 105 113 1
109 106 107 2
110 106 116 1
111 108 109 1
112 109 110 2
113 109 111 1
114 108 114 1
115 108 115 1
116 116 117 1
117 116 125 1
118 117 118 1
119 117 120 1
120 117 126 1
121 118 119 2
122 118 131 1
123 120 121 1
124 121 122 1
125 122 123 2
126 122 124 1
127 120 127 1
128 120 128 1
129 121 129 1
130 121 130 1
131 131 132 1
132 131 141 1
133 132 133 1
134 132 135 1
135 132 142 1
136 133 134 2
137 133 148 1
138 135 136 1
139 136 137 2
140 137 140 1
141 136 138 1
142 138 139 2
143 139 140 1
144 135 143 1
145 135 144 1
146 137 145 1
147 139 146 1
148 140 147 1
149 148 149 1
150 148 155 1
151 149 150 1
152 149 152 1
153 149 156 1
154 150 151 2
155 150 164 1
156 152 153 1
157 152 154 1
158 152 157 1
159 153 158 1
160 153 159 1
161 153 160 1
162 154 161 1
163 154 162 1
164 154 163 1
165 164 165 1
166 164 173 1
167 165 166 1
168 165 168 1
169 165 174 1
170 166 167 2
171 166 181 1
172 168 169 1
173 169 170 1
174 170 171 1
175 170 172 2
176 168 175 1
177 168 176 1
178 169 177 1
179 169 178 1
180 171 179 1
181 171 180 1
182 181 182 1
183 181 192 1
184 182 183 1
185 182 185 1
186 182 193 1
187 183 184 2
188 183 205 1
189 185 186 1
190 186 187 1
191 187 188 1
192 188 189 1
193 189 190 2
194 189 191 1
195 185 194 1
196 185 195 1
197 186 196 1
198 186 197 1
199 187 198 1
200 187 199 1
201 188 200 1
202 190 201 1
203 190 202 1
204 191 203 1
205 191 204 1
206 205 206 1
207 205 212 1
208 206 207 1
209 206 209 1
210 206 213 1
211 207 208 2
212 207 221 1
213 209 210 1
214 209 211 1
215 209 214 1
216 210 215 1
217 210 216 1
218 210 217 1
219 211 218 1
220 211 219 1
221 211 220 1
222 221 222 1
223 221 229 1
224 222 223 1
225 222 225 1
226 222 230 1
227 223 224 2
228 223 238 1
229 225 226 1
230 226 227 1
231 227 228 1
232 225 231 1
233 225 232 1
234 226 233 1
235 226 234 1
236 228 235 1
237 228 236 1
238 228 237 1
239 238 239 1
240 238 249 1
241 239 240 1
242 239 242 1
243 239 250 1
244 240 241 2
245 242 243 1
246 243 244 1
247 244 245 1
248 245 246 1
249 246 247 2
250 246 248 1
251 242 251 1
252 242 252 1
253 243 253 1
254 243 254 1
255 244 255 1
256 244 256 1
257 245 257 1
258 247 258 1
259 247 259 1
260 248 260 1
261 248 261 1
@<TRIPOS>SUBSTRUCTURE
1	GLU1	1	RESIDUE	1 ****	GLU
2	ASN2	16	RESIDUE	1 ****	ASN
3	ALA3	30	RESIDUE	1 ****	ALA
4	GLU4	40	RESIDUE	1 ****	GLU
5	SER5	55	RESIDUE	1 ****	SER
6	ILE6	66	RESIDUE	1 ****	ILE
7	LEU7	85	RESIDUE	1 ****	LEU
8	ASP8	104	RESIDUE	1 ****	ASP
9	GLU9	116	RESIDUE	1 ****	GLU
10	HIS10	131	RESIDUE	1 ****	HIS
11	VAL11	148	RESIDUE	1 ****	VAL
12	GLN12	164	RESIDUE	1 ****	GLN
13	ARG13	181	RESIDUE	1 ****	ARG
14	VAL14	205	RESIDUE	1 ****	VAL
15	MET15	221	RESIDUE	1 ****	MET
16	ARG16	238	RESIDUE	1 ****	ARG
