@<TRIPOS>MOLECULE
1-12
261 262 16              
SMALL
USER_CHARGES
@<TRIPOS>ATOM
1	   N	97.488	11.774	-66.280	N.3	1	CYS1	-0.416	
2	  CA	98.047	13.123	-66.280	C.3	1	CYS1	0.021	
3	   C	99.557	13.083	-66.280	C.2	1	CYS1	0.597	
4	   O	100.233	13.782	-67.049	O.2	1	CYS1	-0.568	
5	  CB	97.478	13.889	-65.070	C.3	1	CYS1	-0.123	
6	  SG	97.989	15.622	-65.112	S.3	1	CYS1	-0.312	
7	   H	98.116	10.895	-66.280	 H	1	CYS1	0.272	
8	  HA	97.732	13.629	-67.211	 H	1	CYS1	0.112	
9	 2HB	97.803	13.434	-64.112	 H	1	CYS1	0.111	
10	 3HB	96.374	13.861	-65.062	 H	1	CYS1	0.111	
11	  HG	98.901	15.543	-64.146	 H	1	CYS1	0.193	
12	   N	100.161	12.297	-65.455	N.am	2	ASN2	-0.416	
13	  CA	101.621	12.259	-65.455	C.3	2	ASN2	0.014	
14	   C	102.152	11.903	-66.824	C.2	2	ASN2	0.597	
15	   O	103.067	12.534	-67.352	O.2	2	ASN2	-0.568	
16	  CB	102.113	11.236	-64.391	C.3	2	ASN2	-0.204	
17	  CG	101.650	11.460	-62.947	C.2	2	ASN2	0.713	
18	 ND2	102.244	12.375	-62.229	N.pl3	2	ASN2	-0.919	
19	 OD1	100.729	10.826	-62.453	O.2	2	ASN2	-0.593	
20	   H	99.633	11.717	-64.818	 H	2	ASN2	0.272	
21	  HA	101.998	13.269	-65.210	 H	2	ASN2	0.105	
22	 2HB	103.217	11.177	-64.394	 H	2	ASN2	0.080	
23	 3HB	101.784	10.217	-64.677	 H	2	ASN2	0.080	
24	1HD2	101.764	12.548	-61.343	 H	2	ASN2	0.420	
25	2HD2	102.946	12.946	-62.698	 H	2	ASN2	0.420	
26	   N	101.630	10.908	-67.458	N.am	3	PRO3	-0.255	
27	  CA	102.082	10.499	-68.779	C.3	3	PRO3	-0.027	
28	   C	101.684	11.522	-69.856	C.2	3	PRO3	0.590	
29	   O	102.507	11.906	-70.688	O.2	3	PRO3	-0.575	
30	  CB	101.378	9.144	-68.949	C.3	3	PRO3	-0.007	
31	  CG	100.095	9.296	-68.118	C.3	3	PRO3	0.019	
32	  CD	100.553	10.115	-66.909	C.3	3	PRO3	0.019	
33	  HA	103.168	10.379	-68.793	 H	3	PRO3	0.064	
34	 2HB	102.001	8.363	-68.508	 H	3	PRO3	0.025	
35	 3HB	101.180	8.895	-69.994	 H	3	PRO3	0.025	
36	 2HG	99.668	8.334	-67.827	 H	3	PRO3	0.021	
37	 3HG	99.357	9.867	-68.686	 H	3	PRO3	0.021	
38	 2HD	100.942	9.465	-66.121	 H	3	PRO3	0.039	
39	 3HD	99.756	10.751	-66.515	 H	3	PRO3	0.039	
40	   N	100.479	11.982	-69.888	N.am	4	GLU4	-0.516	
41	  CA	100.119	12.953	-70.918	C.3	4	GLU4	0.040	
42	   C	101.018	14.164	-70.857	C.2	4	GLU4	0.537	
43	   O	101.544	14.644	-71.871	O.2	4	GLU4	-0.582	
44	  CB	98.630	13.371	-70.747	C.3	4	GLU4	0.056	
45	  CG	98.082	14.375	-71.813	C.3	4	GLU4	0.014	
46	  CD	96.655	14.871	-71.669	C.2	4	GLU4	0.805	
47	 OE1	95.929	14.473	-70.738	O.co2	4	GLU4	-0.819	
48	 OE2	96.265	15.700	-72.518	O.co2	4	GLU4	-0.819	
49	   H	99.795	11.675	-69.212	 H	4	GLU4	0.294	
50	  HA	100.250	12.483	-71.909	 H	4	GLU4	0.111	
51	 2HB	98.478	13.811	-69.741	 H	4	GLU4	-0.017	
52	 3HB	97.983	12.473	-70.754	 H	4	GLU4	-0.017	
53	 2HG	98.163	13.960	-72.831	 H	4	GLU4	-0.043	
54	 3HG	98.670	15.307	-71.824	 H	4	GLU4	-0.043	
55	   N	101.245	14.717	-69.714	N.am	5	SER5	-0.416	
56	  CA	102.114	15.889	-69.655	C.3	5	SER5	-0.025	
57	   C	103.473	15.583	-70.241	C.2	5	SER5	0.597	
58	   O	104.020	16.337	-71.046	O.2	5	SER5	-0.568	
59	  CB	102.226	16.421	-68.205	C.3	5	SER5	0.212	
60	  OG	102.958	15.542	-67.344	O.3	5	SER5	-0.655	
61	   H	100.828	14.345	-68.872	 H	5	SER5	0.272	
62	  HA	101.665	16.679	-70.284	 H	5	SER5	0.084	
63	 2HB	101.226	16.614	-67.771	 H	5	SER5	0.035	
64	 3HB	102.731	17.407	-68.207	 H	5	SER5	0.035	
65	  HG	102.469	14.717	-67.293	 H	5	SER5	0.428	
66	   N	104.078	14.500	-69.887	N.am	6	ILE6	-0.416	
67	  CA	105.391	14.206	-70.454	C.3	6	ILE6	-0.060	
68	   C	105.334	14.168	-71.961	C.2	6	ILE6	0.597	
69	   O	106.169	14.756	-72.665	O.2	6	ILE6	-0.568	
70	  CB	105.992	12.870	-69.854	C.3	6	ILE6	0.130	
71	 CG1	106.011	12.808	-68.292	C.3	6	ILE6	-0.043	
72	 CG2	107.433	12.569	-70.369	C.3	6	ILE6	-0.320	
73	 CD1	106.282	11.419	-67.678	C.3	6	ILE6	-0.066	
74	   H	103.650	13.866	-69.228	 H	6	ILE6	0.272	
75	  HA	106.065	15.040	-70.186	 H	6	ILE6	0.087	
76	  HB	105.334	12.044	-70.197	 H	6	ILE6	0.019	
77	2HG1	105.029	13.127	-67.897	 H	6	ILE6	0.024	
78	3HG1	106.727	13.550	-67.888	 H	6	ILE6	0.024	
79	1HG2	107.492	12.475	-71.467	 H	6	ILE6	0.088	
80	2HG2	108.155	13.351	-70.067	 H	6	ILE6	0.088	
81	3HG2	107.823	11.607	-69.990	 H	6	ILE6	0.088	
82	1HD1	105.554	10.664	-68.032	 H	6	ILE6	0.019	
83	2HD1	107.292	11.040	-67.914	 H	6	ILE6	0.019	
84	3HD1	106.206	11.449	-66.575	 H	6	ILE6	0.019	
85	   N	104.388	13.505	-72.535	N.am	7	LEU7	-0.416	
86	  CA	104.333	13.469	-73.993	C.3	7	LEU7	-0.052	
87	   C	104.260	14.864	-74.566	C.2	7	LEU7	0.597	
88	   O	104.981	15.227	-75.508	O.2	7	LEU7	-0.568	
89	  CB	103.130	12.608	-74.474	C.3	7	LEU7	-0.110	
90	  CG	103.058	11.128	-74.007	C.3	7	LEU7	0.353	
91	 CD1	101.868	10.422	-74.673	C.3	7	LEU7	-0.412	
92	 CD2	104.352	10.350	-74.299	C.3	7	LEU7	-0.412	
93	   H	103.697	13.017	-71.983	 H	7	LEU7	0.272	
94	  HA	105.275	13.029	-74.368	 H	7	LEU7	0.092	
95	 2HB	103.107	12.624	-75.581	 H	7	LEU7	0.046	
96	 3HB	102.190	13.110	-74.169	 H	7	LEU7	0.046	
97	  HG	102.888	11.120	-72.910	 H	7	LEU7	-0.036	
98	1HD1	100.911	10.931	-74.450	 H	7	LEU7	0.100	
99	2HD1	101.967	10.382	-75.774	 H	7	LEU7	0.100	
100	3HD1	101.762	9.381	-74.316	 H	7	LEU7	0.100	
101	1HD2	104.627	10.380	-75.369	 H	7	LEU7	0.100	
102	2HD2	105.205	10.761	-73.728	 H	7	LEU7	0.100	
103	3HD2	104.271	9.287	-74.003	 H	7	LEU7	0.100	
104	   N	103.423	15.704	-74.059	N.am	8	ASP8	-0.516	
105	  CA	103.352	17.054	-74.613	C.3	8	ASP8	0.038	
106	   C	104.698	17.734	-74.555	C.2	8	ASP8	0.537	
107	   O	105.171	18.339	-75.530	O.2	8	ASP8	-0.582	
108	  CB	102.274	17.892	-73.871	C.3	8	ASP8	-0.030	
109	  CG	102.054	19.313	-74.411	C.2	8	ASP8	0.799	
110	 OD1	102.118	19.512	-75.642	O.co2	8	ASP8	-0.801	
111	 OD2	101.862	20.239	-73.595	O.co2	8	ASP8	-0.801	
112	   H	102.825	15.433	-73.292	 H	8	ASP8	0.294	
113	  HA	103.069	16.976	-75.680	 H	8	ASP8	0.088	
114	 2HB	102.531	17.976	-72.799	 H	8	ASP8	-0.012	
115	 3HB	101.295	17.387	-73.903	 H	8	ASP8	-0.012	
116	   N	105.378	17.684	-73.460	N.am	9	GLU9	-0.516	
117	  CA	106.681	18.342	-73.405	C.3	9	GLU9	0.040	
118	   C	107.599	17.815	-74.481	C.2	9	GLU9	0.537	
119	   O	108.262	18.570	-75.206	O.2	9	GLU9	-0.582	
120	  CB	107.314	18.135	-72.000	C.3	9	GLU9	0.056	
121	  CG	108.697	18.828	-71.771	C.3	9	GLU9	0.014	
122	  CD	109.399	18.614	-70.442	C.2	9	GLU9	0.805	
123	 OE1	108.878	17.923	-69.546	O.co2	9	GLU9	-0.819	
124	 OE2	110.518	19.153	-70.311	O.co2	9	GLU9	-0.819	
125	   H	105.015	17.198	-72.653	 H	9	GLU9	0.294	
126	  HA	106.538	19.424	-73.580	 H	9	GLU9	0.111	
127	 2HB	107.428	17.050	-71.797	 H	9	GLU9	-0.017	
128	 3HB	106.617	18.488	-71.215	 H	9	GLU9	-0.017	
129	 2HG	108.624	19.918	-71.910	 H	9	GLU9	-0.043	
130	 3HG	109.444	18.483	-72.505	 H	9	GLU9	-0.043	
131	   N	107.696	16.540	-74.651	N.am	10	HIS10	-0.416	
132	  CA	108.584	16.029	-75.691	C.3	10	HIS10	-0.058	
133	   C	108.217	16.594	-77.042	C.2	10	HIS10	0.597	
134	   O	109.069	17.059	-77.814	O.2	10	HIS10	-0.568	
135	  CB	108.421	14.500	-75.686	C.3	10	HIS10	-0.007	
136	  CG	109.707	13.790	-75.378	C.2	10	HIS10	0.187	
137	 CD2	110.088	13.455	-74.086	C.2	10	HIS10	-0.221	
138	 ND1	110.659	13.385	-76.311	N.2	10	HIS10	-0.543	
139	 CE1	111.565	12.827	-75.488	C.2	10	HIS10	0.163	
140	 NE2	111.303	12.824	-74.153	N.pl3	10	HIS10	-0.280	
141	   H	107.165	15.904	-74.072	 H	10	HIS10	0.272	
142	  HA	109.603	16.387	-75.466	 H	10	HIS10	0.136	
143	 2HB	108.055	14.133	-76.666	 H	10	HIS10	0.037	
144	 3HB	107.665	14.163	-74.946	 H	10	HIS10	0.037	
145	 2HD	109.502	13.670	-73.197	 H	10	HIS10	0.186	
146	 1HE	112.457	12.407	-75.935	 H	10	HIS10	0.144	
147	 2HE	111.870	12.447	-73.380	 H	10	HIS10	0.334	
148	   N	106.979	16.592	-77.405	N.am	11	VAL11	-0.416	
149	  CA	106.623	17.138	-78.712	C.3	11	VAL11	-0.087	
150	   C	107.087	18.569	-78.844	C.2	11	VAL11	0.597	
151	   O	107.688	18.975	-79.847	O.2	11	VAL11	-0.568	
152	  CB	105.062	17.031	-78.931	C.3	11	VAL11	0.299	
153	 CG1	104.493	17.735	-80.194	C.3	11	VAL11	-0.319	
154	 CG2	104.538	15.577	-79.004	C.3	11	VAL11	-0.319	
155	   H	106.266	16.219	-76.794	 H	11	VAL11	0.272	
156	  HA	107.143	16.556	-79.494	 H	11	VAL11	0.097	
157	  HB	104.574	17.511	-78.056	 H	11	VAL11	-0.030	
158	1HG1	104.932	17.343	-81.131	 H	11	VAL11	0.079	
159	2HG1	103.394	17.627	-80.275	 H	11	VAL11	0.079	
160	3HG1	104.671	18.827	-80.184	 H	11	VAL11	0.079	
161	1HG2	104.828	14.989	-78.114	 H	11	VAL11	0.079	
162	2HG2	103.432	15.539	-79.047	 H	11	VAL11	0.079	
163	3HG2	104.920	15.036	-79.891	 H	11	VAL11	0.079	
164	   N	106.850	19.395	-77.882	N.am	12	GLN12	-0.416	
165	  CA	107.298	20.778	-78.009	C.3	12	GLN12	-0.003	
166	   C	108.787	20.846	-78.247	C.2	12	GLN12	0.597	
167	   O	109.274	21.554	-79.125	O.2	12	GLN12	-0.568	
168	  CB	106.906	21.545	-76.726	C.3	12	GLN12	-0.004	
169	  CG	107.266	23.067	-76.695	C.3	12	GLN12	-0.064	
170	  CD	106.963	23.880	-75.430	C.2	12	GLN12	0.695	
171	 NE2	106.397	23.303	-74.401	N.pl3	12	GLN12	-0.941	
172	 OE1	107.265	25.061	-75.352	O.2	12	GLN12	-0.609	
173	   H	106.361	19.088	-77.053	 H	12	GLN12	0.272	
174	  HA	106.798	21.234	-78.884	 H	12	GLN12	0.085	
175	 2HB	107.383	21.045	-75.857	 H	12	GLN12	0.017	
176	 3HB	105.816	21.437	-76.563	 H	12	GLN12	0.017	
177	 2HG	106.788	23.587	-77.545	 H	12	GLN12	0.035	
178	 3HG	108.349	23.209	-76.860	 H	12	GLN12	0.035	
179	1HE2	106.289	23.897	-73.577	 H	12	GLN12	0.425	
180	2HE2	106.233	22.300	-74.504	 H	12	GLN12	0.425	
181	   N	109.572	20.139	-77.506	N.am	13	ARG13	-0.348	
182	  CA	111.013	20.206	-77.737	C.3	13	ARG13	-0.264	
183	   C	111.349	19.835	-79.162	C.2	13	ARG13	0.734	
184	   O	112.117	20.507	-79.846	O.2	13	ARG13	-0.589	
185	  CB	111.726	19.267	-76.723	C.3	13	ARG13	-0.001	
186	  CG	113.271	19.421	-76.642	C.3	13	ARG13	0.039	
187	  CD	113.899	18.433	-75.645	C.3	13	ARG13	0.049	
188	  NE	115.376	18.641	-75.594	N.pl3	13	ARG13	-0.530	
189	  CZ	116.224	17.950	-74.839	C.cat	13	ARG13	0.808	
190	 NH1	115.860	16.985	-74.042	N.pl3	13	ARG13	-0.863	
191	 NH2	117.484	18.249	-74.896	N.pl3	13	ARG13	-0.863	
192	   H	109.197	19.549	-76.778	 H	13	ARG13	0.275	
193	  HA	111.337	21.252	-77.578	 H	13	ARG13	0.156	
194	 2HB	111.461	18.216	-76.962	 H	13	ARG13	0.033	
195	 3HB	111.301	19.433	-75.712	 H	13	ARG13	0.033	
196	 2HG	113.519	20.465	-76.363	 H	13	ARG13	0.029	
197	 3HG	113.722	19.265	-77.644	 H	13	ARG13	0.029	
198	 2HD	113.655	17.393	-75.954	 H	13	ARG13	0.069	
199	 3HD	113.442	18.578	-74.642	 H	13	ARG13	0.069	
200	  HE	115.827	19.363	-76.165	 H	13	ARG13	0.346	
201	1HH1	114.854	16.798	-74.045	 H	13	ARG13	0.448	
202	2HH1	116.573	16.502	-73.493	 H	13	ARG13	0.448	
203	1HH2	117.751	19.007	-75.527	 H	13	ARG13	0.448	
204	2HH2	118.119	17.708	-74.308	 H	13	ARG13	0.448	
205	   N	110.813	18.780	-79.676	N.am	14	VAL14	-0.416	
206	  CA	111.138	18.421	-81.054	C.3	14	VAL14	-0.087	
207	   C	110.807	19.551	-81.999	C.2	14	VAL14	0.597	
208	   O	111.601	19.933	-82.869	O.2	14	VAL14	-0.568	
209	  CB	110.366	17.104	-81.461	C.3	14	VAL14	0.299	
210	 CG1	110.455	16.686	-82.955	C.3	14	VAL14	-0.319	
211	 CG2	110.799	15.851	-80.661	C.3	14	VAL14	-0.319	
212	   H	110.179	18.211	-79.135	 H	14	VAL14	0.272	
213	  HA	112.226	18.245	-81.129	 H	14	VAL14	0.097	
214	  HB	109.290	17.274	-81.245	 H	14	VAL14	-0.030	
215	1HG1	111.497	16.509	-83.284	 H	14	VAL14	0.079	
216	2HG1	109.883	15.762	-83.167	 H	14	VAL14	0.079	
217	3HG1	110.026	17.448	-83.633	 H	14	VAL14	0.079	
218	1HG2	110.712	16.010	-79.570	 H	14	VAL14	0.079	
219	2HG2	110.163	14.975	-80.893	 H	14	VAL14	0.079	
220	3HG2	111.847	15.562	-80.867	 H	14	VAL14	0.079	
221	   N	109.662	20.136	-81.897	N.am	15	MET15	-0.416	
222	  CA	109.341	21.229	-82.811	C.3	15	MET15	-0.024	
223	   C	110.371	22.329	-82.723	C.2	15	MET15	0.597	
224	   O	110.873	22.840	-83.736	O.2	15	MET15	-0.568	
225	  CB	107.920	21.774	-82.502	C.3	15	MET15	0.034	
226	  CG	106.758	20.775	-82.694	C.3	15	MET15	0.002	
227	  SD	105.184	21.641	-82.579	S.3	15	MET15	-0.274	
228	  CE	104.103	20.211	-82.443	C.3	15	MET15	-0.054	
229	   H	108.998	19.843	-81.196	 H	15	MET15	0.272	
230	  HA	109.367	20.842	-83.847	 H	15	MET15	0.088	
231	 2HB	107.717	22.653	-83.144	 H	15	MET15	0.024	
232	 3HB	107.884	22.166	-81.465	 H	15	MET15	0.024	
233	 2HG	106.802	19.990	-81.916	 H	15	MET15	0.044	
234	 3HG	106.821	20.260	-83.670	 H	15	MET15	0.044	
235	 1HE	104.247	19.523	-83.295	 H	15	MET15	0.068	
236	 2HE	104.313	19.658	-81.510	 H	15	MET15	0.068	
237	 3HE	103.046	20.525	-82.426	 H	15	MET15	0.068	
238	   N	110.740	22.750	-81.561	N.am	16	ARG16	-0.348	
239	  CA	111.736	23.815	-81.477	C.3	16	ARG16	-0.264	
240	   C	113.007	23.423	-82.194	C.2	16	ARG16	0.734	
241	   O	113.121	22.346	-82.775	O.2	16	ARG16	-0.589	
242	  CB	112.005	24.133	-79.979	C.3	16	ARG16	-0.001	
243	  CG	112.830	25.422	-79.706	C.3	16	ARG16	0.039	
244	  CD	113.079	25.641	-78.205	C.3	16	ARG16	0.049	
245	  NE	113.855	26.900	-78.004	N.pl3	16	ARG16	-0.530	
246	  CZ	114.246	27.383	-76.828	C.cat	16	ARG16	0.808	
247	 NH1	113.999	26.798	-75.690	N.pl3	16	ARG16	-0.863	
248	 NH2	114.910	28.496	-76.809	N.pl3	16	ARG16	-0.863	
249	   H	110.345	22.350	-80.722	 H	16	ARG16	0.275	
250	  HA	111.326	24.707	-81.987	 H	16	ARG16	0.156	
251	 2HB	112.502	23.257	-79.513	 H	16	ARG16	0.033	
252	 3HB	111.036	24.213	-79.445	 H	16	ARG16	0.033	
253	 2HG	112.299	26.293	-80.143	 H	16	ARG16	0.029	
254	 3HG	113.803	25.369	-80.235	 H	16	ARG16	0.029	
255	 2HD	113.628	24.767	-77.792	 H	16	ARG16	0.069	
256	 3HD	112.107	25.683	-77.669	 H	16	ARG16	0.069	
257	  HE	114.133	27.482	-78.801	 H	16	ARG16	0.346	
258	1HH1	113.474	25.925	-75.774	 H	16	ARG16	0.448	
259	2HH1	114.333	27.234	-74.828	 H	16	ARG16	0.448	
260	1HH2	115.095	28.939	-77.711	 H	16	ARG16	0.448	
261	2HH2	115.200	28.851	-75.897	 H	16	ARG16	0.448	
@<TRIPOS>BOND
1 1 2 1
2 1 7 1
3 2 3 1
4 2 5 1
5 2 8 1
6 3 4 2
7 3 12 1
8 5 6 1
9 5 9 1
10 5 10 1
11 6 11 1
12 12 13 1
13 12 20 1
14 13 14 1
15 13 16 1
16 13 21 1
17 14 15 2
18 14 26 1
19 16 17 1
20 17 18 1
21 17 19 2
22 16 22 1
23 16 23 1
24 18 24 1
25 18 25 1
26 26 27 1
27 26 32 1
28 27 28 1
29 27 30 1
30 27 33 1
31 28 29 2
32 28 40 1
33 30 31 1
34 31 32 1
35 30 34 1
36 30 35 1
37 31 36 1
38 31 37 1
39 32 38 1
40 32 39 1
41 40 41 1
42 40 49 1
43 41 42 1
44 41 44 1
45 41 50 1
46 42 43 2
47 42 55 1
48 44 45 1
49 45 46 1
50 46 47 2
51 46 48 1
52 44 51 1
53 44 52 1
54 45 53 1
55 45 54 1
56 55 56 1
57 55 61 1
58 56 57 1
59 56 59 1
60 56 62 1
61 57 58 2
62 57 66 1
63 59 60 1
64 59 63 1
65 59 64 1
66 60 65 1
67 66 67 1
68 66 74 1
69 67 68 1
70 67 70 1
71 67 75 1
72 68 69 2
73 68 85 1
74 70 71 1
75 70 72 1
76 71 73 1
77 70 76 1
78 71 77 1
79 71 78 1
80 72 79 1
81 72 80 1
82 72 81 1
83 73 82 1
84 73 83 1
85 73 84 1
86 85 86 1
87 85 93 1
88 86 87 1
89 86 89 1
90 86 94 1
91 87 88 2
92 87 104 1
93 89 90 1
94 90 91 1
95 90 92 1
96 89 95 1
97 89 96 1
98 90 97 1
99 91 98 1
100 91 99 1
101 91 100 1
102 92 101 1
103 92 102 1
104 92 103 1
105 104 105 1
106 104 112 1
107 105 106 1
108 105 108 1
109 105 113 1
110 106 107 2
111 106 116 1
112 108 109 1
113 109 110 2
114 109 111 1
115 108 114 1
116 108 115 1
117 116 117 1
118 116 125 1
119 117 118 1
120 117 120 1
121 117 126 1
122 118 119 2
123 118 131 1
124 120 121 1
125 121 122 1
126 122 123 2
127 122 124 1
128 120 127 1
129 120 128 1
130 121 129 1
131 121 130 1
132 131 132 1
133 131 141 1
134 132 133 1
135 132 135 1
136 132 142 1
137 133 134 2
138 133 148 1
139 135 136 1
140 136 137 2
141 137 140 1
142 136 138 1
143 138 139 2
144 139 140 1
145 135 143 1
146 135 144 1
147 137 145 1
148 139 146 1
149 140 147 1
150 148 149 1
151 148 155 1
152 149 150 1
153 149 152 1
154 149 156 1
155 150 151 2
156 150 164 1
157 152 153 1
158 152 154 1
159 152 157 1
160 153 158 1
161 153 159 1
162 153 160 1
163 154 161 1
164 154 162 1
165 154 163 1
166 164 165 1
167 164 173 1
168 165 166 1
169 165 168 1
170 165 174 1
171 166 167 2
172 166 181 1
173 168 169 1
174 169 170 1
175 170 171 1
176 170 172 2
177 168 175 1
178 168 176 1
179 169 177 1
180 169 178 1
181 171 179 1
182 171 180 1
183 181 182 1
184 181 192 1
185 182 183 1
186 182 185 1
187 182 193 1
188 183 184 2
189 183 205 1
190 185 186 1
191 186 187 1
192 187 188 1
193 188 189 1
194 189 190 2
195 189 191 1
196 185 194 1
197 185 195 1
198 186 196 1
199 186 197 1
200 187 198 1
201 187 199 1
202 188 200 1
203 190 201 1
204 190 202 1
205 191 203 1
206 191 204 1
207 205 206 1
208 205 212 1
209 206 207 1
210 206 209 1
211 206 213 1
212 207 208 2
213 207 221 1
214 209 210 1
215 209 211 1
216 209 214 1
217 210 215 1
218 210 216 1
219 210 217 1
220 211 218 1
221 211 219 1
222 211 220 1
223 221 222 1
224 221 229 1
225 222 223 1
226 222 225 1
227 222 230 1
228 223 224 2
229 223 238 1
230 225 226 1
231 226 227 1
232 227 228 1
233 225 231 1
234 225 232 1
235 226 233 1
236 226 234 1
237 228 235 1
238 228 236 1
239 228 237 1
240 238 239 1
241 238 249 1
242 239 240 1
243 239 242 1
244 239 250 1
245 240 241 2
246 242 243 1
247 243 244 1
248 244 245 1
249 245 246 1
250 246 247 2
251 246 248 1
252 242 251 1
253 242 252 1
254 243 253 1
255 243 254 1
256 244 255 1
257 244 256 1
258 245 257 1
259 247 258 1
260 247 259 1
261 248 260 1
262 248 261 1
@<TRIPOS>SUBSTRUCTURE
1	CYS1	1	RESIDUE	1 ****	CYS
2	ASN2	12	RESIDUE	1 ****	ASN
3	PRO3	26	RESIDUE	1 ****	PRO
4	GLU4	40	RESIDUE	1 ****	GLU
5	SER5	55	RESIDUE	1 ****	SER
6	ILE6	66	RESIDUE	1 ****	ILE
7	LEU7	85	RESIDUE	1 ****	LEU
8	ASP8	104	RESIDUE	1 ****	ASP
9	GLU9	116	RESIDUE	1 ****	GLU
10	HIS10	131	RESIDUE	1 ****	HIS
11	VAL11	148	RESIDUE	1 ****	VAL
12	GLN12	164	RESIDUE	1 ****	GLN
13	ARG13	181	RESIDUE	1 ****	ARG
14	VAL14	205	RESIDUE	1 ****	VAL
15	MET15	221	RESIDUE	1 ****	MET
16	ARG16	238	RESIDUE	1 ****	ARG
