REMARK WARNING: 32 MAX_TORS EXCEEDED!!!
REMARK  67 active torsions:
REMARK  status: ('A' for Active; 'I' for Inactive)
REMARK    1  A    between atoms: N_1  and  CA_2 
REMARK    2  A    between atoms: CA_2  and  C_3 
REMARK    3  A    between atoms: CA_2  and  CB_5 
REMARK       I    between atoms: C_3  and  N_11 
REMARK    4  A    between atoms: CB_5  and  CG_6 
REMARK    5  A    between atoms: CG_6  and  CD_7 
REMARK    6  A    between atoms: N_11  and  CA_12 
REMARK    7  A    between atoms: CA_12  and  C_13 
REMARK    8  A    between atoms: CA_12  and  CB_15 
REMARK       I    between atoms: C_13  and  N_22 
REMARK    9  A    between atoms: CB_15  and  CG_16 
REMARK       I    between atoms: CG_16  and  ND2_17 
REMARK   10  A    between atoms: CA_23  and  C_24 
REMARK       I    between atoms: C_24  and  N_29 
REMARK   11  A    between atoms: N_29  and  CA_30 
REMARK   12  A    between atoms: CA_30  and  C_31 
REMARK   13  A    between atoms: CA_30  and  CB_33 
REMARK       I    between atoms: C_31  and  N_39 
REMARK   14  A    between atoms: CB_33  and  CG_34 
REMARK   15  A    between atoms: CG_34  and  CD_35 
REMARK   16  A    between atoms: N_39  and  CA_40 
REMARK   17  A    between atoms: CA_40  and  C_41 
REMARK   18  A    between atoms: CA_40  and  CB_43 
REMARK       I    between atoms: C_41  and  N_47 
REMARK   19  A    between atoms: CB_43  and  OG_44 
REMARK   20  A    between atoms: N_47  and  CA_48 
REMARK   21  A    between atoms: CA_48  and  C_49 
REMARK   22  A    between atoms: CA_48  and  CB_51 
REMARK       I    between atoms: C_49  and  N_56 
REMARK   23  A    between atoms: CB_51  and  CG1_52 
REMARK   24  A    between atoms: N_56  and  CA_57 
REMARK   25  A    between atoms: CA_57  and  C_58 
REMARK   26  A    between atoms: CA_57  and  CB_60 
REMARK       I    between atoms: C_58  and  N_65 
REMARK   27  A    between atoms: CB_60  and  CG_61 
REMARK   28  A    between atoms: N_65  and  CA_66 
REMARK   29  A    between atoms: CA_66  and  C_67 
REMARK   30  A    between atoms: CA_66  and  CB_69 
REMARK       I    between atoms: C_67  and  N_74 
REMARK   31  A    between atoms: CB_69  and  CG_70 
REMARK   32  A    between atoms: N_74  and  CA_75 
REMARK   33  A    between atoms: CA_75  and  C_76 
REMARK   34  A    between atoms: CA_75  and  CB_78 
REMARK       I    between atoms: C_76  and  N_86 
REMARK   35  A    between atoms: CB_78  and  CG_79 
REMARK   36  A    between atoms: N_86  and  CA_87 
REMARK   37  A    between atoms: CA_87  and  C_88 
REMARK   38  A    between atoms: CA_87  and  CB_90 
REMARK       I    between atoms: C_88  and  N_98 
REMARK   39  A    between atoms: CB_90  and  CG_91 
REMARK   40  A    between atoms: N_98  and  CA_99 
REMARK   41  A    between atoms: CA_99  and  C_100 
REMARK   42  A    between atoms: CA_99  and  CB_102 
REMARK       I    between atoms: C_100  and  N_106 
REMARK   43  A    between atoms: N_106  and  CA_107 
REMARK   44  A    between atoms: CA_107  and  C_108 
REMARK   45  A    between atoms: CA_107  and  CB_110 
REMARK       I    between atoms: C_108  and  N_118 
REMARK   46  A    between atoms: CB_110  and  CG_111 
REMARK   47  A    between atoms: CG_111  and  CD_112 
REMARK       I    between atoms: CD_112  and  NE2_113 
REMARK   48  A    between atoms: N_118  and  CA_119 
REMARK   49  A    between atoms: CA_119  and  C_120 
REMARK   50  A    between atoms: CA_119  and  CB_122 
REMARK       I    between atoms: C_120  and  N_135 
REMARK   51  A    between atoms: CB_122  and  CG_123 
REMARK   52  A    between atoms: CG_123  and  CD_124 
REMARK   53  A    between atoms: CD_124  and  NE_125 
REMARK       I    between atoms: NE_125  and  CZ_126 
REMARK       I    between atoms: CZ_126  and  NH1_127 
REMARK       I    between atoms: CZ_126  and  NH2_128 
REMARK   54  A    between atoms: N_135  and  CA_136 
REMARK   55  A    between atoms: CA_136  and  C_137 
REMARK   56  A    between atoms: CA_136  and  CB_139 
REMARK       I    between atoms: C_137  and  N_143 
REMARK   57  A    between atoms: N_143  and  CA_144 
REMARK   58  A    between atoms: CA_144  and  C_145 
REMARK   59  A    between atoms: CA_144  and  CB_147 
REMARK       I    between atoms: C_145  and  N_152 
REMARK   60  A    between atoms: CB_147  and  CG_148 
REMARK   61  A    between atoms: CG_148  and  SD_149 
REMARK   62  A    between atoms: N_152  and  CA_153 
REMARK   63  A    between atoms: CA_153  and  C_154 
REMARK   64  A    between atoms: CA_153  and  CB_156 
REMARK   65  A    between atoms: CB_156  and  CG_157 
REMARK   66  A    between atoms: CG_157  and  CD_158 
REMARK   67  A    between atoms: CD_158  and  NE_159 
REMARK       I    between atoms: NE_159  and  CZ_160 
REMARK       I    between atoms: CZ_160  and  NH1_161 
ROOT
ATOM      1  C   HIS d   9    1445.273 427.352-1456.724  0.00  0.00     0.241 C 
ATOM      2  O   HIS d   9    1445.938 428.107-1457.449  0.00  0.00    -0.271 OA
ATOM      3  N   HIS d  10    1445.370 426.077-1456.894  0.00  0.00    -0.346 N 
ATOM      4  H   HIS d  10    1444.840 425.441-1456.317  0.00  0.00     0.163 HD
ENDROOT
BRANCH   1   5
ATOM      5  CA  HIS d   9    1444.354 427.879-1455.648  0.00  0.00     0.182 C 
BRANCH   5   6
ATOM      6  N   HIS d   9    1443.051 427.221-1455.704  0.00  0.00    -0.346 N 
ATOM      7  C   ASP d   8    1442.371 427.271-1456.800  0.00  0.00     0.241 C 
ATOM      8  O   ASP d   8    1442.844 427.876-1457.774  0.00  0.00    -0.271 OA
ATOM      9  H   HIS d   9    1442.688 426.734-1454.898  0.00  0.00     0.163 HD
BRANCH   7  10
ATOM     10  CA  ASP d   8    1441.025 426.591-1456.857  0.00  0.00     0.186 C 
BRANCH  10  11
ATOM     11  N   ASP d   8    1441.095 425.241-1456.304  0.00  0.00    -0.346 N 
ATOM     12  C   LEU d   7    1441.933 424.401-1456.811  0.00  0.00     0.241 C 
ATOM     13  O   LEU d   7    1442.653 424.764-1457.753  0.00  0.00    -0.271 OA
ATOM     14  H   ASP d   8    1440.498 424.970-1455.536  0.00  0.00     0.163 HD
BRANCH  12  15
ATOM     15  CA  LEU d   7    1442.005 423.006-1456.239  0.00  0.00     0.177 C 
BRANCH  15  16
ATOM     16  N   LEU d   7    1442.060 423.041-1454.780  0.00  0.00    -0.346 N 
ATOM     17  C   ILE d   6    1443.006 423.705-1454.206  0.00  0.00     0.241 C 
ATOM     18  O   ILE d   6    1443.841 424.293-1454.910  0.00  0.00    -0.271 OA
ATOM     19  H   LEU d   7    1441.368 422.554-1454.229  0.00  0.00     0.163 HD
BRANCH  17  20
ATOM     20  CA  ILE d   6    1443.063 423.742-1452.698  0.00  0.00     0.180 C 
BRANCH  20  21
ATOM     21  N   ILE d   6    1441.750 424.037-1452.132  0.00  0.00    -0.346 N 
ATOM     22  C   SER d   5    1441.146 425.120-1452.486  0.00  0.00     0.243 C 
ATOM     23  O   SER d   5    1441.693 425.873-1453.291  0.00  0.00    -0.271 OA
ATOM     24  H   ILE d   6    1441.322 423.402-1451.473  0.00  0.00     0.163 HD
BRANCH  22  25
ATOM     25  CA  SER d   5    1439.787 425.425-1451.900  0.00  0.00     0.200 C 
BRANCH  25  26
ATOM     26  N   SER d   5    1438.917 424.254-1451.959  0.00  0.00    -0.344 N 
ATOM     27  C   GLU d   4    1438.690 423.701-1453.102  0.00  0.00     0.241 C 
ATOM     28  O   GLU d   4    1439.216 424.181-1454.116  0.00  0.00    -0.271 OA
ATOM     29  H   SER d   5    1438.500 423.882-1451.117  0.00  0.00     0.163 HD
BRANCH  27  30
ATOM     30  CA  GLU d   4    1437.791 422.490-1453.163  0.00  0.00     0.177 C 
BRANCH  30  31
ATOM     31  N   GLU d   4    1438.151 421.519-1452.133  0.00  0.00    -0.346 N 
ATOM     32  C   PRO d   3    1439.355 421.059-1452.101  0.00  0.00     0.241 C 
ATOM     33  O   PRO d   3    1440.179 421.442-1452.933  0.00  0.00    -0.271 OA
ATOM     34  H   GLU d   4    1437.467 421.212-1451.457  0.00  0.00     0.163 HD
BRANCH  32  35
ATOM     35  CA  PRO d   3    1439.754 420.035-1451.024  0.00  0.00     0.179 C 
ATOM     36  N   PRO d   3    1439.302 420.445-1449.703  0.00  0.00    -0.337 N 
ATOM     37  C   ASN d   2    1439.823 421.440-1449.069  0.00  0.00     0.243 C 
ATOM     38  CD  PRO d   3    1438.224 419.652-1449.154  0.00  0.00     0.127 C 
ATOM     39  O   ASN d   2    1440.738 422.070-1449.597  0.00  0.00    -0.271 OA
ATOM     40  CG  PRO d   3    1437.766 418.833-1450.363  0.00  0.00     0.022 C 
ATOM     41  CB  PRO d   3    1439.050 418.681-1451.194  0.00  0.00     0.037 C 
BRANCH  37  42
ATOM     42  CA  ASN d   2    1439.292 421.795-1447.700  0.00  0.00     0.185 C 
BRANCH  42  43
ATOM     43  N   ASN d   2    1437.833 421.834-1447.700  0.00  0.00    -0.346 N 
ATOM     44  C   GLU d   1    1437.228 422.620-1448.525  0.00  0.00     0.242 C 
ATOM     45  O   GLU d   1    1437.904 423.319-1449.294  0.00  0.00    -0.271 OA
ATOM     46  H   ASN d   2    1437.305 421.254-1447.063  0.00  0.00     0.163 HD
BRANCH  44  47
ATOM     47  CA  GLU d   1    1435.719 422.660-1448.525  0.00  0.00     0.191 C 
BRANCH  47  48
ATOM     48  N   GLU d   1    1435.160 421.311-1448.525  0.00  0.00    -0.326 NA
ATOM     49  H   GLU d   1    1435.787 420.432-1448.525  0.00  0.00     0.180 HD
ENDBRANCH  47  48
BRANCH  47  50
ATOM     50  CB  GLU d   1    1435.196 423.445-1447.288  0.00  0.00     0.047 C 
BRANCH  50  51
ATOM     51  CG  GLU d   1    1435.671 424.930-1447.177  0.00  0.00     0.116 C 
BRANCH  51  52
ATOM     52  CD  GLU d   1    1435.247 425.734-1445.962  0.00  0.00     0.172 C 
ATOM     53  OE1 GLU d   1    1434.519 425.232-1445.084  0.00  0.00    -0.648 OA
ATOM     54  OE2 GLU d   1    1435.677 426.904-1445.890  0.00  0.00    -0.648 OA
ENDBRANCH  51  52
ENDBRANCH  50  51
ENDBRANCH  47  50
ENDBRANCH  44  47
ENDBRANCH  42  43
BRANCH  42  55
ATOM     55  CB  ASN d   2    1439.784 420.772-1446.636  0.00  0.00     0.137 C 
BRANCH  55  56
ATOM     56  CG  ASN d   2    1439.321 420.996-1445.192  0.00  0.00     0.217 C 
ATOM     57  ND2 ASN d   2    1439.916 421.911-1444.474  0.00  0.00    -0.370 N 
ATOM     58 21HD ASN d   2    1439.435 422.084-1443.588  0.00  0.00     0.159 HD
ATOM     59 22HD ASN d   2    1440.617 422.483-1444.943  0.00  0.00     0.159 HD
ATOM     60  OD1 ASN d   2    1438.401 420.362-1444.698  0.00  0.00    -0.274 OA
ENDBRANCH  55  56
ENDBRANCH  42  55
ENDBRANCH  37  42
ENDBRANCH  32  35
ENDBRANCH  30  31
BRANCH  30  61
ATOM     61  CB  GLU d   4    1436.302 422.909-1452.992  0.00  0.00     0.045 C 
BRANCH  61  62
ATOM     62  CG  GLU d   4    1435.754 423.912-1454.058  0.00  0.00     0.116 C 
BRANCH  62  63
ATOM     63  CD  GLU d   4    1434.328 424.409-1453.914  0.00  0.00     0.172 C 
ATOM     64  OE1 GLU d   4    1433.601 424.010-1452.983  0.00  0.00    -0.648 OA
ATOM     65  OE2 GLU d   4    1433.938 425.238-1454.762  0.00  0.00    -0.648 OA
ENDBRANCH  62  63
ENDBRANCH  61  62
ENDBRANCH  30  61
ENDBRANCH  27  30
ENDBRANCH  25  26
BRANCH  25  66
ATOM     66  CB  SER d   5    1439.898 425.957-1450.450  0.00  0.00     0.199 C 
BRANCH  66  67
ATOM     67  OG  SER d   5    1440.630 425.078-1449.589  0.00  0.00    -0.398 OA
ATOM     68  HG  SER d   5    1440.142 424.253-1449.538  0.00  0.00     0.209 HD
ENDBRANCH  66  67
ENDBRANCH  25  66
ENDBRANCH  22  25
ENDBRANCH  20  21
BRANCH  20  69
ATOM     69  CB  ILE d   6    1443.663 422.406-1452.099  0.00  0.00     0.013 C 
ATOM     70  CG2 ILE d   6    1445.105 422.105-1452.614  0.00  0.00     0.012 C 
BRANCH  69  71
ATOM     71  CG1 ILE d   6    1443.683 422.344-1450.538  0.00  0.00     0.002 C 
ATOM     72  CD1 ILE d   6    1443.953 420.954-1449.923  0.00  0.00     0.005 C 
ENDBRANCH  69  71
ENDBRANCH  20  69
ENDBRANCH  17  20
ENDBRANCH  15  16
BRANCH  15  73
ATOM     73  CB  LEU d   7    1440.802 422.145-1456.719  0.00  0.00     0.038 C 
BRANCH  73  74
ATOM     74  CG  LEU d   7    1440.729 420.666-1456.253  0.00  0.00    -0.020 C 
ATOM     75  CD1 LEU d   7    1439.540 419.960-1456.918  0.00  0.00     0.009 C 
ATOM     76  CD2 LEU d   7    1442.023 419.887-1456.544  0.00  0.00     0.009 C 
ENDBRANCH  73  74
ENDBRANCH  15  73
ENDBRANCH  12  15
ENDBRANCH  10  11
BRANCH  10  77
ATOM     77  CB  ASP d   8    1439.947 427.430-1456.115  0.00  0.00     0.147 C 
BRANCH  77  78
ATOM     78  CG  ASP d   8    1439.728 428.851-1456.655  0.00  0.00     0.175 C 
ATOM     79  OD1 ASP d   8    1439.792 429.050-1457.886  0.00  0.00    -0.648 OA
ATOM     80  OD2 ASP d   8    1439.536 429.776-1455.839  0.00  0.00    -0.648 OA
ENDBRANCH  77  78
ENDBRANCH  10  77
ENDBRANCH   7  10
ENDBRANCH   5   6
BRANCH   5  81
ATOM     81  CB  HIS d   9    1444.930 427.577-1454.255  0.00  0.00     0.095 C 
BRANCH  81  82
ATOM     82  CG  HIS d   9    1445.176 428.825-1453.458  0.00  0.00     0.053 A 
ATOM     83  CD2 HIS d   9    1444.220 429.377-1452.615  0.00  0.00     0.116 A 
ATOM     84  NE2 HIS d   9    1444.757 430.502-1452.045  0.00  0.00    -0.359 N 
ATOM     85  CE1 HIS d   9    1446.003 430.545-1452.590  0.00  0.00     0.207 A 
ATOM     86  2HE HIS d   9    1444.318 431.149-1451.374  0.00  0.00     0.166 HD
ATOM     87  ND1 HIS d   9    1446.351 429.573-1453.453  0.00  0.00    -0.247 NA
ENDBRANCH  81  82
ENDBRANCH   5  81
ENDBRANCH   1   5
BRANCH   3  88
ATOM     88  CA  HIS d  10    1446.260 425.567-1457.934  0.00  0.00     0.182 C 
BRANCH  88  89
ATOM     89  C   HIS d  10    1445.894 426.132-1459.285  0.00  0.00     0.241 C 
ATOM     90  O   HIS d  10    1446.747 426.597-1460.056  0.00  0.00    -0.271 OA
ATOM     91  N   VAL d  11    1444.656 426.131-1459.649  0.00  0.00    -0.346 N 
ATOM     92  H   VAL d  11    1443.943 425.757-1459.040  0.00  0.00     0.163 HD
BRANCH  91  93
ATOM     93  CA  VAL d  11    1444.302 426.677-1460.956  0.00  0.00     0.180 C 
BRANCH  93  94
ATOM     94  C   VAL d  11    1444.766 428.108-1461.087  0.00  0.00     0.241 C 
ATOM     95  O   VAL d  11    1445.367 428.515-1462.089  0.00  0.00    -0.271 OA
ATOM     96  N   GLN d  12    1444.527 428.933-1460.124  0.00  0.00    -0.346 N 
ATOM     97  H   GLN d  12    1444.038 428.626-1459.296  0.00  0.00     0.163 HD
BRANCH  96  98
ATOM     98  CA  GLN d  12    1444.975 430.316-1460.250  0.00  0.00     0.177 C 
BRANCH  98  99
ATOM     99  C   GLN d  12    1446.465 430.385-1460.486  0.00  0.00     0.241 C 
ATOM    100  O   GLN d  12    1446.953 431.094-1461.363  0.00  0.00    -0.271 OA
ATOM    101  N   ARG d  13    1447.249 429.678-1459.745  0.00  0.00    -0.346 N 
ATOM    102  H   ARG d  13    1446.873 429.087-1459.017  0.00  0.00     0.163 HD
BRANCH 101 103
ATOM    103  CA  ARG d  13    1448.690 429.745-1459.974  0.00  0.00     0.176 C 
BRANCH 103 104
ATOM    104  C   ARG d  13    1449.028 429.375-1461.398  0.00  0.00     0.241 C 
ATOM    105  O   ARG d  13    1449.797 430.047-1462.081  0.00  0.00    -0.271 OA
ATOM    106  N   VAL d  14    1448.494 428.320-1461.915  0.00  0.00    -0.346 N 
ATOM    107  H   VAL d  14    1447.858 427.751-1461.374  0.00  0.00     0.163 HD
BRANCH 106 108
ATOM    108  CA  VAL d  14    1448.820 427.962-1463.292  0.00  0.00     0.180 C 
BRANCH 108 109
ATOM    109  C   VAL d  14    1448.491 429.093-1464.237  0.00  0.00     0.241 C 
ATOM    110  O   VAL d  14    1449.286 429.475-1465.105  0.00  0.00    -0.271 OA
ATOM    111  N   MET d  15    1447.346 429.678-1464.137  0.00  0.00    -0.346 N 
ATOM    112  H   MET d  15    1446.680 429.384-1463.436  0.00  0.00     0.163 HD
BRANCH 111 113
ATOM    113  CA  MET d  15    1447.026 430.771-1465.050  0.00  0.00     0.177 C 
BRANCH 113 114
ATOM    114  C   MET d  15    1448.056 431.871-1464.960  0.00  0.00     0.241 C 
ATOM    115  O   MET d  15    1448.560 432.383-1465.972  0.00  0.00    -0.271 OA
ATOM    116  N   ARG d  16    1448.422 432.292-1463.797  0.00  0.00    -0.347 N 
ATOM    117  H   ARG d  16    1448.026 431.891-1462.958  0.00  0.00     0.163 HD
BRANCH 116 118
ATOM    118  CA  ARG d  16    1449.418 433.356-1463.711  0.00  0.00     0.162 C 
BRANCH 118 119
ATOM    119  C   ARG d  16    1450.690 432.965-1464.425  0.00  0.00     0.219 C 
ATOM    120  O   ARG d  16    1450.805 431.889-1465.007  0.00  0.00    -0.287 OA
ENDBRANCH 118 119
BRANCH 118 121
ATOM    121  CB  ARG d  16    1449.684 433.673-1462.212  0.00  0.00     0.035 C 
BRANCH 121 122
ATOM    122  CG  ARG d  16    1450.508 434.963-1461.937  0.00  0.00     0.023 C 
BRANCH 122 123
ATOM    123  CD  ARG d  16    1450.756 435.181-1460.435  0.00  0.00     0.138 C 
BRANCH 123 124
ATOM    124  NE  ARG d  16    1451.531 436.440-1460.232  0.00  0.00    -0.227 N 
ATOM    125  CZ  ARG d  16    1451.920 436.922-1459.055  0.00  0.00     0.665 C 
ATOM    126  NH1 ARG d  16    1451.671 436.337-1457.918  0.00  0.00    -0.235 N 
ATOM    127  NH2 ARG d  16    1452.583 438.035-1459.035  0.00  0.00    -0.235 N 
ATOM    128 11HH ARG d  16    1451.146 435.464-1458.004  0.00  0.00     0.174 HD
ATOM    129 12HH ARG d  16    1452.004 436.772-1457.056  0.00  0.00     0.174 HD
ATOM    130 21HH ARG d  16    1452.770 438.479-1459.937  0.00  0.00     0.174 HD
ATOM    131 22HH ARG d  16    1452.872 438.390-1458.122  0.00  0.00     0.174 HD
ATOM    132  HE  ARG d  16    1451.810 437.022-1461.028  0.00  0.00     0.177 HD
ENDBRANCH 123 124
ENDBRANCH 122 123
ENDBRANCH 121 122
ENDBRANCH 118 121
ENDBRANCH 116 118
ENDBRANCH 113 114
BRANCH 113 133
ATOM    133  CB  MET d  15    1445.604 431.315-1464.743  0.00  0.00     0.045 C 
BRANCH 133 134
ATOM    134  CG  MET d  15    1444.443 430.317-1464.937  0.00  0.00     0.076 C 
BRANCH 134 135
ATOM    135  SD  MET d  15    1442.868 431.182-1464.825  0.00  0.00    -0.173 SA
ATOM    136  CE  MET d  15    1441.788 429.751-1464.691  0.00  0.00     0.089 C 
ENDBRANCH 134 135
ENDBRANCH 133 134
ENDBRANCH 113 133
ENDBRANCH 111 113
ENDBRANCH 108 109
BRANCH 108 137
ATOM    137  CB  VAL d  14    1448.050 426.645-1463.701  0.00  0.00     0.009 C 
ATOM    138  CG1 VAL d  14    1448.141 426.228-1465.194  0.00  0.00     0.012 C 
ATOM    139  CG2 VAL d  14    1448.481 425.392-1462.901  0.00  0.00     0.012 C 
ENDBRANCH 108 137
ENDBRANCH 106 108
ENDBRANCH 103 104
BRANCH 103 140
ATOM    140  CB  ARG d  13    1449.403 428.806-1458.959  0.00  0.00     0.036 C 
BRANCH 140 141
ATOM    141  CG  ARG d  13    1450.947 428.960-1458.876  0.00  0.00     0.023 C 
BRANCH 141 142
ATOM    142  CD  ARG d  13    1451.574 427.972-1457.879  0.00  0.00     0.138 C 
BRANCH 142 143
ATOM    143  NE  ARG d  13    1453.051 428.180-1457.826  0.00  0.00    -0.227 N 
ATOM    144  CZ  ARG d  13    1453.898 427.488-1457.070  0.00  0.00     0.665 C 
ATOM    145  NH1 ARG d  13    1453.533 426.523-1456.274  0.00  0.00    -0.235 N 
ATOM    146  NH2 ARG d  13    1455.158 427.788-1457.126  0.00  0.00    -0.235 N 
ATOM    147 11HH ARG d  13    1452.528 426.336-1456.279  0.00  0.00     0.174 HD
ATOM    148 12HH ARG d  13    1454.246 426.040-1455.725  0.00  0.00     0.174 HD
ATOM    149 21HH ARG d  13    1455.426 428.547-1457.756  0.00  0.00     0.174 HD
ATOM    150 22HH ARG d  13    1455.792 427.247-1456.536  0.00  0.00     0.174 HD
ATOM    151  HE  ARG d  13    1453.502 428.903-1458.396  0.00  0.00     0.177 HD
ENDBRANCH 142 143
ENDBRANCH 141 142
ENDBRANCH 140 141
ENDBRANCH 103 140
ENDBRANCH 101 103
ENDBRANCH  98  99
BRANCH  98 152
ATOM    152  CB  GLN d  12    1444.583 431.083-1458.967  0.00  0.00     0.044 C 
BRANCH 152 153
ATOM    153  CG  GLN d  12    1444.942 432.605-1458.934  0.00  0.00     0.105 C 
BRANCH 153 154
ATOM    154  CD  GLN d  12    1444.638 433.417-1457.669  0.00  0.00     0.215 C 
ATOM    155  NE2 GLN d  12    1444.070 432.839-1456.641  0.00  0.00    -0.370 N 
ATOM    156 21HE GLN d  12    1443.962 433.433-1455.817  0.00  0.00     0.159 HD
ATOM    157 22HE GLN d  12    1443.907 431.836-1456.746  0.00  0.00     0.159 HD
ATOM    158  OE1 GLN d  12    1444.939 434.598-1457.590  0.00  0.00    -0.274 OA
ENDBRANCH 153 154
ENDBRANCH 152 153
ENDBRANCH  98 152
ENDBRANCH  96  98
ENDBRANCH  93  94
BRANCH  93 159
ATOM    159  CB  VAL d  11    1442.741 426.570-1461.177  0.00  0.00     0.009 C 
ATOM    160  CG1 VAL d  11    1442.173 427.275-1462.440  0.00  0.00     0.012 C 
ATOM    161  CG2 VAL d  11    1442.217 425.116-1461.252  0.00  0.00     0.012 C 
ENDBRANCH  93 159
ENDBRANCH  91  93
ENDBRANCH  88  89
BRANCH  88 162
ATOM    162  CB  HIS d  10    1446.096 424.038-1457.930  0.00  0.00     0.095 C 
BRANCH 162 163
ATOM    163  CG  HIS d  10    1447.382 423.328-1457.622  0.00  0.00     0.053 A 
ATOM    164  CD2 HIS d  10    1447.762 422.992-1456.329  0.00  0.00     0.116 A 
ATOM    165  NE2 HIS d  10    1448.977 422.361-1456.395  0.00  0.00    -0.359 N 
ATOM    166  CE1 HIS d  10    1449.241 422.365-1457.730  0.00  0.00     0.207 A 
ATOM    167  2HE HIS d  10    1449.544 421.984-1455.622  0.00  0.00     0.166 HD
ATOM    168  ND1 HIS d  10    1448.335 422.923-1458.554  0.00  0.00    -0.247 NA
ENDBRANCH 162 163
ENDBRANCH  88 162
ENDBRANCH   3  88
TORSDOF 67
