@<TRIPOS>MOLECULE
14-17
261 262 16              
SMALL
USER_CHARGES
@<TRIPOS>ATOM
1	   N	2300.020	703.194	-2390.814	N.3	1	GLU1	-0.516	
2	  CA	2300.579	704.543	-2390.814	C.3	1	GLU1	0.040	
3	   C	2302.088	704.503	-2390.814	C.2	1	GLU1	0.537	
4	   O	2302.764	705.202	-2391.583	O.2	1	GLU1	-0.582	
5	  CB	2300.056	705.328	-2389.577	C.3	1	GLU1	0.056	
6	  CG	2300.531	706.813	-2389.466	C.3	1	GLU1	0.014	
7	  CD	2300.107	707.617	-2388.251	C.2	1	GLU1	0.805	
8	 OE1	2299.379	707.115	-2387.373	O.co2	1	GLU1	-0.819	
9	 OE2	2300.537	708.787	-2388.179	O.co2	1	GLU1	-0.819	
10	   H	2300.647	702.315	-2390.814	 H	1	GLU1	0.294	
11	  HA	2300.253	705.061	-2391.734	 H	1	GLU1	0.111	
12	 2HB	2300.345	704.797	-2388.647	 H	1	GLU1	-0.017	
13	 3HB	2298.949	705.318	-2389.564	 H	1	GLU1	-0.017	
14	 2HG	2300.221	707.398	-2390.347	 H	1	GLU1	-0.043	
15	 3HG	2301.631	706.880	-2389.437	 H	1	GLU1	-0.043	
16	   N	2302.692	703.717	-2389.989	N.am	2	ASN2	-0.416	
17	  CA	2304.152	703.678	-2389.989	C.3	2	ASN2	0.014	
18	   C	2304.683	703.323	-2391.357	C.2	2	ASN2	0.597	
19	   O	2305.598	703.953	-2391.885	O.2	2	ASN2	-0.568	
20	  CB	2304.643	702.655	-2388.924	C.3	2	ASN2	-0.204	
21	  CG	2304.180	702.879	-2387.481	C.2	2	ASN2	0.713	
22	 ND2	2304.774	703.794	-2386.763	N.pl3	2	ASN2	-0.919	
23	 OD1	2303.259	702.246	-2386.987	O.2	2	ASN2	-0.593	
24	   H	2302.164	703.138	-2389.353	 H	2	ASN2	0.272	
25	  HA	2304.529	704.688	-2389.743	 H	2	ASN2	0.105	
26	 2HB	2305.748	702.596	-2388.927	 H	2	ASN2	0.080	
27	 3HB	2304.314	701.637	-2389.210	 H	2	ASN2	0.080	
28	1HD2	2304.293	703.967	-2385.876	 H	2	ASN2	0.420	
29	2HD2	2305.476	704.365	-2387.232	 H	2	ASN2	0.420	
30	   N	2304.162	702.328	-2391.992	N.am	3	PRO3	-0.255	
31	  CA	2304.614	701.918	-2393.313	C.3	3	PRO3	-0.027	
32	   C	2304.216	702.942	-2394.390	C.2	3	PRO3	0.590	
33	   O	2305.040	703.325	-2395.221	O.2	3	PRO3	-0.575	
34	  CB	2303.909	700.564	-2393.483	C.3	3	PRO3	-0.007	
35	  CG	2302.626	700.716	-2392.653	C.3	3	PRO3	0.019	
36	  CD	2303.083	701.535	-2391.443	C.3	3	PRO3	0.019	
37	  HA	2305.700	701.798	-2393.326	 H	3	PRO3	0.064	
38	 2HB	2304.532	699.783	-2393.042	 H	3	PRO3	0.025	
39	 3HB	2303.711	700.315	-2394.528	 H	3	PRO3	0.025	
40	 2HG	2302.198	699.754	-2392.362	 H	3	PRO3	0.021	
41	 3HG	2301.889	701.287	-2393.220	 H	3	PRO3	0.021	
42	 2HD	2303.472	700.885	-2390.656	 H	3	PRO3	0.039	
43	 3HD	2302.287	702.171	-2391.050	 H	3	PRO3	0.039	
44	   N	2303.011	703.402	-2394.423	N.am	4	GLU4	-0.516	
45	  CA	2302.652	704.373	-2395.453	C.3	4	GLU4	0.040	
46	   C	2303.551	705.584	-2395.391	C.2	4	GLU4	0.537	
47	   O	2304.078	706.063	-2396.405	O.2	4	GLU4	-0.582	
48	  CB	2301.164	704.792	-2395.283	C.3	4	GLU4	0.056	
49	  CG	2300.616	705.796	-2396.349	C.3	4	GLU4	0.014	
50	  CD	2299.190	706.293	-2396.206	C.2	4	GLU4	0.805	
51	 OE1	2298.463	705.895	-2395.275	O.co2	4	GLU4	-0.819	
52	 OE2	2298.801	707.122	-2397.054	O.co2	4	GLU4	-0.819	
53	   H	2302.327	703.096	-2393.746	 H	4	GLU4	0.294	
54	  HA	2302.784	703.903	-2396.444	 H	4	GLU4	0.111	
55	 2HB	2301.011	705.232	-2394.276	 H	4	GLU4	-0.017	
56	 3HB	2300.516	703.895	-2395.289	 H	4	GLU4	-0.017	
57	 2HG	2300.698	705.381	-2397.367	 H	4	GLU4	-0.043	
58	 3HG	2301.205	706.728	-2396.360	 H	4	GLU4	-0.043	
59	   N	2303.778	706.137	-2394.248	N.am	5	SER5	-0.416	
60	  CA	2304.648	707.308	-2394.189	C.3	5	SER5	-0.025	
61	   C	2306.007	707.002	-2394.774	C.2	5	SER5	0.597	
62	   O	2306.555	707.755	-2395.579	O.2	5	SER5	-0.568	
63	  CB	2304.760	707.840	-2392.739	C.3	5	SER5	0.212	
64	  OG	2305.490	706.960	-2391.877	O.3	5	SER5	-0.655	
65	   H	2303.361	705.765	-2393.406	 H	5	SER5	0.272	
66	  HA	2304.199	708.098	-2394.818	 H	5	SER5	0.084	
67	 2HB	2303.760	708.034	-2392.305	 H	5	SER5	0.035	
68	 3HB	2305.265	708.825	-2392.740	 H	5	SER5	0.035	
69	  HG	2305.001	706.135	-2391.827	 H	5	SER5	0.428	
70	   N	2306.611	705.918	-2394.420	N.am	6	ILE6	-0.416	
71	  CA	2307.925	705.623	-2394.986	C.3	6	ILE6	-0.060	
72	   C	2307.867	705.585	-2396.494	C.2	6	ILE6	0.597	
73	   O	2308.702	706.172	-2397.198	O.2	6	ILE6	-0.568	
74	  CB	2308.524	704.286	-2394.385	C.3	6	ILE6	0.130	
75	 CG1	2308.542	704.224	-2392.825	C.3	6	ILE6	-0.043	
76	 CG2	2309.965	703.984	-2394.901	C.3	6	ILE6	-0.320	
77	 CD1	2308.812	702.835	-2392.209	C.3	6	ILE6	-0.066	
78	   H	2306.182	705.284	-2393.761	 H	6	ILE6	0.272	
79	  HA	2308.599	706.457	-2394.718	 H	6	ILE6	0.087	
80	  HB	2307.865	703.461	-2394.730	 H	6	ILE6	0.019	
81	2HG1	2307.561	704.544	-2392.429	 H	6	ILE6	0.024	
82	3HG1	2309.259	704.966	-2392.420	 H	6	ILE6	0.024	
83	1HG2	2310.024	703.891	-2395.999	 H	6	ILE6	0.088	
84	2HG2	2310.687	704.766	-2394.598	 H	6	ILE6	0.088	
85	3HG2	2310.354	703.022	-2394.522	 H	6	ILE6	0.088	
86	1HD1	2308.083	702.081	-2392.564	 H	6	ILE6	0.019	
87	2HD1	2309.822	702.456	-2392.445	 H	6	ILE6	0.019	
88	3HD1	2308.735	702.865	-2391.107	 H	6	ILE6	0.019	
89	   N	2306.921	704.922	-2397.067	N.am	7	LEU7	-0.416	
90	  CA	2306.866	704.886	-2398.526	C.3	7	LEU7	-0.052	
91	   C	2306.794	706.281	-2399.099	C.2	7	LEU7	0.597	
92	   O	2307.515	706.643	-2400.041	O.2	7	LEU7	-0.568	
93	  CB	2305.663	704.026	-2399.006	C.3	7	LEU7	-0.110	
94	  CG	2305.590	702.547	-2398.540	C.3	7	LEU7	0.353	
95	 CD1	2304.400	701.841	-2399.205	C.3	7	LEU7	-0.412	
96	 CD2	2306.883	701.767	-2398.831	C.3	7	LEU7	-0.412	
97	   H	2306.229	704.435	-2396.516	 H	7	LEU7	0.272	
98	  HA	2307.808	704.446	-2398.900	 H	7	LEU7	0.092	
99	 2HB	2305.640	704.042	-2400.114	 H	7	LEU7	0.046	
100	 3HB	2304.723	704.529	-2398.702	 H	7	LEU7	0.046	
101	  HG	2305.420	702.539	-2397.442	 H	7	LEU7	-0.036	
102	1HD1	2303.443	702.350	-2398.982	 H	7	LEU7	0.100	
103	2HD1	2304.499	701.801	-2400.306	 H	7	LEU7	0.100	
104	3HD1	2304.292	700.800	-2398.849	 H	7	LEU7	0.100	
105	1HD2	2307.158	701.797	-2399.901	 H	7	LEU7	0.100	
106	2HD2	2307.737	702.178	-2398.260	 H	7	LEU7	0.100	
107	3HD2	2306.802	700.705	-2398.535	 H	7	LEU7	0.100	
108	   N	2305.958	707.122	-2398.593	N.am	8	ASP8	-0.516	
109	  CA	2305.888	708.472	-2399.147	C.3	8	ASP8	0.038	
110	   C	2307.235	709.151	-2399.090	C.2	8	ASP8	0.537	
111	   O	2307.708	709.755	-2400.065	O.2	8	ASP8	-0.582	
112	  CB	2304.810	709.312	-2398.406	C.3	8	ASP8	-0.030	
113	  CG	2304.592	710.732	-2398.947	C.2	8	ASP8	0.799	
114	 OD1	2304.656	710.930	-2400.178	O.co2	8	ASP8	-0.801	
115	 OD2	2304.401	711.659	-2398.132	O.co2	8	ASP8	-0.801	
116	   H	2305.360	706.852	-2397.825	 H	8	ASP8	0.294	
117	  HA	2305.605	708.393	-2400.214	 H	8	ASP8	0.088	
118	 2HB	2305.067	709.395	-2397.334	 H	8	ASP8	-0.012	
119	 3HB	2303.831	708.807	-2398.438	 H	8	ASP8	-0.012	
120	   N	2307.915	709.101	-2397.995	N.am	9	GLU9	-0.516	
121	  CA	2309.218	709.758	-2397.940	C.3	9	GLU9	0.040	
122	   C	2310.135	709.230	-2399.016	C.2	9	GLU9	0.537	
123	   O	2310.799	709.983	-2399.742	O.2	9	GLU9	-0.582	
124	  CB	2309.852	709.551	-2396.535	C.3	9	GLU9	0.056	
125	  CG	2311.235	710.243	-2396.306	C.3	9	GLU9	0.014	
126	  CD	2311.937	710.030	-2394.978	C.2	9	GLU9	0.805	
127	 OE1	2311.415	709.339	-2394.081	O.co2	9	GLU9	-0.819	
128	 OE2	2313.056	710.567	-2394.847	O.co2	9	GLU9	-0.819	
129	   H	2307.551	708.615	-2397.188	 H	9	GLU9	0.294	
130	  HA	2309.076	710.840	-2398.116	 H	9	GLU9	0.111	
131	 2HB	2309.964	708.466	-2396.331	 H	9	GLU9	-0.017	
132	 3HB	2309.155	709.905	-2395.750	 H	9	GLU9	-0.017	
133	 2HG	2311.163	711.333	-2396.446	 H	9	GLU9	-0.043	
134	 3HG	2311.981	709.897	-2397.040	 H	9	GLU9	-0.043	
135	   N	2310.231	707.954	-2399.185	N.am	10	HIS10	-0.416	
136	  CA	2311.119	707.442	-2400.225	C.3	10	HIS10	-0.058	
137	   C	2310.752	708.006	-2401.577	C.2	10	HIS10	0.597	
138	   O	2311.604	708.470	-2402.349	O.2	10	HIS10	-0.568	
139	  CB	2310.954	705.913	-2400.220	C.3	10	HIS10	-0.007	
140	  CG	2312.240	705.202	-2399.912	C.2	10	HIS10	0.187	
141	 CD2	2312.621	704.868	-2398.619	C.2	10	HIS10	-0.221	
142	 ND1	2313.191	704.796	-2400.844	N.2	10	HIS10	-0.543	
143	 CE1	2314.097	704.238	-2400.021	C.2	10	HIS10	0.163	
144	 NE2	2313.835	704.235	-2398.686	N.pl3	10	HIS10	-0.280	
145	   H	2309.701	707.319	-2398.606	 H	10	HIS10	0.272	
146	  HA	2312.138	707.799	-2400.001	 H	10	HIS10	0.136	
147	 2HB	2310.588	705.546	-2401.199	 H	10	HIS10	0.037	
148	 3HB	2310.198	705.577	-2399.479	 H	10	HIS10	0.037	
149	 2HD	2312.036	705.083	-2397.730	 H	10	HIS10	0.186	
150	 1HE	2314.988	703.816	-2400.468	 H	10	HIS10	0.144	
151	 2HE	2314.402	703.858	-2397.913	 H	10	HIS10	0.334	
152	   N	2309.514	708.006	-2401.939	N.am	11	VAL11	-0.416	
153	  CA	2309.159	708.551	-2403.247	C.3	11	VAL11	-0.087	
154	   C	2309.624	709.981	-2403.380	C.2	11	VAL11	0.597	
155	   O	2310.225	710.386	-2404.383	O.2	11	VAL11	-0.568	
156	  CB	2307.597	708.445	-2403.466	C.3	11	VAL11	0.299	
157	 CG1	2307.029	709.149	-2404.729	C.3	11	VAL11	-0.319	
158	 CG2	2307.072	706.991	-2403.538	C.3	11	VAL11	-0.319	
159	   H	2308.801	707.633	-2401.329	 H	11	VAL11	0.272	
160	  HA	2309.678	707.968	-2404.029	 H	11	VAL11	0.097	
161	  HB	2307.110	708.926	-2402.591	 H	11	VAL11	-0.030	
162	1HG1	2307.467	708.756	-2405.666	 H	11	VAL11	0.079	
163	2HG1	2305.930	709.042	-2404.811	 H	11	VAL11	0.079	
164	3HG1	2307.208	710.241	-2404.720	 H	11	VAL11	0.079	
165	1HG2	2307.362	706.404	-2402.647	 H	11	VAL11	0.079	
166	2HG2	2305.966	706.955	-2403.580	 H	11	VAL11	0.079	
167	3HG2	2307.454	706.450	-2404.424	 H	11	VAL11	0.079	
168	   N	2309.388	710.808	-2402.418	N.am	12	GLN12	-0.416	
169	  CA	2309.837	712.190	-2402.546	C.3	12	GLN12	-0.003	
170	   C	2311.327	712.257	-2402.784	C.2	12	GLN12	0.597	
171	   O	2311.814	712.964	-2403.663	O.2	12	GLN12	-0.568	
172	  CB	2309.447	712.959	-2401.263	C.3	12	GLN12	-0.004	
173	  CG	2309.808	714.480	-2401.233	C.3	12	GLN12	-0.064	
174	  CD	2309.506	715.295	-2399.969	C.2	12	GLN12	0.695	
175	 NE2	2308.939	714.719	-2398.939	N.pl3	12	GLN12	-0.941	
176	 OE1	2309.809	716.475	-2399.892	O.2	12	GLN12	-0.609	
177	   H	2308.899	710.502	-2401.588	 H	12	GLN12	0.272	
178	  HA	2309.337	712.646	-2403.421	 H	12	GLN12	0.085	
179	 2HB	2309.923	712.459	-2400.394	 H	12	GLN12	0.017	
180	 3HB	2308.356	712.852	-2401.100	 H	12	GLN12	0.017	
181	 2HG	2309.331	715.001	-2402.084	 H	12	GLN12	0.035	
182	 3HG	2310.891	714.622	-2401.399	 H	12	GLN12	0.035	
183	1HE2	2308.833	715.314	-2398.116	 H	12	GLN12	0.425	
184	2HE2	2308.775	713.716	-2399.042	 H	12	GLN12	0.425	
185	   N	2312.111	711.550	-2402.043	N.am	13	ARG13	-0.348	
186	  CA	2313.552	711.615	-2402.274	C.3	13	ARG13	-0.264	
187	   C	2313.887	711.243	-2403.699	C.2	13	ARG13	0.734	
188	   O	2314.656	711.914	-2404.384	O.2	13	ARG13	-0.589	
189	  CB	2314.265	710.677	-2401.260	C.3	13	ARG13	-0.001	
190	  CG	2315.810	710.830	-2401.179	C.3	13	ARG13	0.039	
191	  CD	2316.437	709.842	-2400.181	C.3	13	ARG13	0.049	
192	  NE	2317.914	710.049	-2400.131	N.pl3	13	ARG13	-0.530	
193	  CZ	2318.762	709.358	-2399.375	C.cat	13	ARG13	0.808	
194	 NH1	2318.397	708.394	-2398.577	N.pl3	13	ARG13	-0.863	
195	 NH2	2320.022	709.656	-2399.433	N.pl3	13	ARG13	-0.863	
196	   H	2311.735	710.961	-2401.314	 H	13	ARG13	0.275	
197	  HA	2313.876	712.661	-2402.116	 H	13	ARG13	0.156	
198	 2HB	2313.998	709.626	-2401.498	 H	13	ARG13	0.033	
199	 3HB	2313.840	710.844	-2400.249	 H	13	ARG13	0.033	
200	 2HG	2316.058	711.875	-2400.901	 H	13	ARG13	0.029	
201	 3HG	2316.260	710.672	-2402.181	 H	13	ARG13	0.029	
202	 2HD	2316.192	708.802	-2400.489	 H	13	ARG13	0.069	
203	 3HD	2315.981	709.989	-2399.178	 H	13	ARG13	0.069	
204	  HE	2318.365	710.771	-2400.702	 H	13	ARG13	0.346	
205	1HH1	2317.392	708.208	-2398.580	 H	13	ARG13	0.448	
206	2HH1	2319.110	707.911	-2398.028	 H	13	ARG13	0.448	
207	1HH2	2320.290	710.414	-2400.065	 H	13	ARG13	0.448	
208	2HH2	2320.657	709.115	-2398.844	 H	13	ARG13	0.448	
209	   N	2313.351	710.188	-2404.212	N.am	14	ASP14	-0.516	
210	  CA	2313.675	709.828	-2405.590	C.3	14	ASP14	0.038	
211	   C	2313.346	710.957	-2406.537	C.2	14	ASP14	0.537	
212	   O	2314.142	711.337	-2407.409	O.2	14	ASP14	-0.582	
213	  CB	2312.937	708.524	-2406.002	C.3	14	ASP14	-0.030	
214	  CG	2313.255	708.002	-2407.411	C.2	14	ASP14	0.799	
215	 OD1	2314.418	708.107	-2407.850	O.co2	14	ASP14	-0.801	
216	 OD2	2312.325	707.526	-2408.095	O.co2	14	ASP14	-0.801	
217	   H	2312.716	709.620	-2403.670	 H	14	ASP14	0.294	
218	  HA	2314.766	709.654	-2405.654	 H	14	ASP14	0.088	
219	 2HB	2311.844	708.671	-2405.936	 H	14	ASP14	-0.012	
220	 3HB	2313.170	707.705	-2405.302	 H	14	ASP14	-0.012	
221	   N	2312.201	711.544	-2406.436	N.am	15	MET15	-0.416	
222	  CA	2311.882	712.636	-2407.351	C.3	15	MET15	-0.024	
223	   C	2312.913	713.735	-2407.264	C.2	15	MET15	0.597	
224	   O	2313.417	714.244	-2408.277	O.2	15	MET15	-0.568	
225	  CB	2310.461	713.183	-2407.044	C.3	15	MET15	0.034	
226	  CG	2309.298	712.185	-2407.235	C.3	15	MET15	0.002	
227	  SD	2307.725	713.053	-2407.122	S.3	15	MET15	-0.274	
228	  CE	2306.643	711.624	-2406.984	C.3	15	MET15	-0.054	
229	   H	2311.536	711.252	-2405.734	 H	15	MET15	0.272	
230	  HA	2311.908	712.247	-2408.386	 H	15	MET15	0.088	
231	 2HB	2310.260	714.061	-2407.687	 H	15	MET15	0.024	
232	 3HB	2310.426	713.577	-2406.008	 H	15	MET15	0.024	
233	 2HG	2309.341	711.401	-2406.456	 H	15	MET15	0.044	
234	 3HG	2309.361	711.669	-2408.210	 H	15	MET15	0.044	
235	 1HE	2306.786	710.935	-2407.835	 H	15	MET15	0.068	
236	 2HE	2306.851	711.073	-2406.050	 H	15	MET15	0.068	
237	 3HE	2305.585	711.940	-2406.968	 H	15	MET15	0.068	
238	   N	2313.282	714.157	-2406.102	N.am	16	ARG16	-0.348	
239	  CA	2314.279	715.220	-2406.020	C.3	16	ARG16	-0.264	
240	   C	2315.550	714.825	-2406.735	C.2	16	ARG16	0.734	
241	   O	2315.663	713.748	-2407.315	O.2	16	ARG16	-0.589	
242	  CB	2314.548	715.540	-2404.521	C.3	16	ARG16	-0.001	
243	  CG	2315.375	716.828	-2404.250	C.3	16	ARG16	0.039	
244	  CD	2315.624	717.049	-2402.749	C.3	16	ARG16	0.049	
245	  NE	2316.401	718.307	-2402.549	N.pl3	16	ARG16	-0.530	
246	  CZ	2316.792	718.791	-2401.374	C.cat	16	ARG16	0.808	
247	 NH1	2316.544	718.208	-2400.235	N.pl3	16	ARG16	-0.863	
248	 NH2	2317.457	719.903	-2401.357	N.pl3	16	ARG16	-0.863	
249	   H	2312.886	713.758	-2405.263	 H	16	ARG16	0.275	
250	  HA	2313.871	716.112	-2406.531	 H	16	ARG16	0.156	
251	 2HB	2315.044	714.664	-2404.054	 H	16	ARG16	0.033	
252	 3HB	2313.579	715.622	-2403.988	 H	16	ARG16	0.033	
253	 2HG	2314.845	717.699	-2404.688	 H	16	ARG16	0.029	
254	 3HG	2316.348	716.774	-2404.779	 H	16	ARG16	0.029	
255	 2HD	2316.172	716.175	-2402.334	 H	16	ARG16	0.069	
256	 3HD	2314.651	717.093	-2402.214	 H	16	ARG16	0.069	
257	  HE	2316.680	718.888	-2403.347	 H	16	ARG16	0.346	
258	1HH1	2316.017	717.336	-2400.319	 H	16	ARG16	0.448	
259	2HH1	2316.878	718.645	-2399.374	 H	16	ARG16	0.448	
260	1HH2	2317.643	720.345	-2402.259	 H	16	ARG16	0.448	
261	2HH2	2317.748	720.259	-2400.445	 H	16	ARG16	0.448	
@<TRIPOS>BOND
1 1 2 1
2 1 10 1
3 2 3 1
4 2 5 1
5 2 11 1
6 3 4 2
7 3 16 1
8 5 6 1
9 6 7 1
10 7 8 2
11 7 9 1
12 5 12 1
13 5 13 1
14 6 14 1
15 6 15 1
16 16 17 1
17 16 24 1
18 17 18 1
19 17 20 1
20 17 25 1
21 18 19 2
22 18 30 1
23 20 21 1
24 21 22 1
25 21 23 2
26 20 26 1
27 20 27 1
28 22 28 1
29 22 29 1
30 30 31 1
31 30 36 1
32 31 32 1
33 31 34 1
34 31 37 1
35 32 33 2
36 32 44 1
37 34 35 1
38 35 36 1
39 34 38 1
40 34 39 1
41 35 40 1
42 35 41 1
43 36 42 1
44 36 43 1
45 44 45 1
46 44 53 1
47 45 46 1
48 45 48 1
49 45 54 1
50 46 47 2
51 46 59 1
52 48 49 1
53 49 50 1
54 50 51 2
55 50 52 1
56 48 55 1
57 48 56 1
58 49 57 1
59 49 58 1
60 59 60 1
61 59 65 1
62 60 61 1
63 60 63 1
64 60 66 1
65 61 62 2
66 61 70 1
67 63 64 1
68 63 67 1
69 63 68 1
70 64 69 1
71 70 71 1
72 70 78 1
73 71 72 1
74 71 74 1
75 71 79 1
76 72 73 2
77 72 89 1
78 74 75 1
79 74 76 1
80 75 77 1
81 74 80 1
82 75 81 1
83 75 82 1
84 76 83 1
85 76 84 1
86 76 85 1
87 77 86 1
88 77 87 1
89 77 88 1
90 89 90 1
91 89 97 1
92 90 91 1
93 90 93 1
94 90 98 1
95 91 92 2
96 91 108 1
97 93 94 1
98 94 95 1
99 94 96 1
100 93 99 1
101 93 100 1
102 94 101 1
103 95 102 1
104 95 103 1
105 95 104 1
106 96 105 1
107 96 106 1
108 96 107 1
109 108 109 1
110 108 116 1
111 109 110 1
112 109 112 1
113 109 117 1
114 110 111 2
115 110 120 1
116 112 113 1
117 113 114 2
118 113 115 1
119 112 118 1
120 112 119 1
121 120 121 1
122 120 129 1
123 121 122 1
124 121 124 1
125 121 130 1
126 122 123 2
127 122 135 1
128 124 125 1
129 125 126 1
130 126 127 2
131 126 128 1
132 124 131 1
133 124 132 1
134 125 133 1
135 125 134 1
136 135 136 1
137 135 145 1
138 136 137 1
139 136 139 1
140 136 146 1
141 137 138 2
142 137 152 1
143 139 140 1
144 140 141 2
145 141 144 1
146 140 142 1
147 142 143 2
148 143 144 1
149 139 147 1
150 139 148 1
151 141 149 1
152 143 150 1
153 144 151 1
154 152 153 1
155 152 159 1
156 153 154 1
157 153 156 1
158 153 160 1
159 154 155 2
160 154 168 1
161 156 157 1
162 156 158 1
163 156 161 1
164 157 162 1
165 157 163 1
166 157 164 1
167 158 165 1
168 158 166 1
169 158 167 1
170 168 169 1
171 168 177 1
172 169 170 1
173 169 172 1
174 169 178 1
175 170 171 2
176 170 185 1
177 172 173 1
178 173 174 1
179 174 175 1
180 174 176 2
181 172 179 1
182 172 180 1
183 173 181 1
184 173 182 1
185 175 183 1
186 175 184 1
187 185 186 1
188 185 196 1
189 186 187 1
190 186 189 1
191 186 197 1
192 187 188 2
193 187 209 1
194 189 190 1
195 190 191 1
196 191 192 1
197 192 193 1
198 193 194 2
199 193 195 1
200 189 198 1
201 189 199 1
202 190 200 1
203 190 201 1
204 191 202 1
205 191 203 1
206 192 204 1
207 194 205 1
208 194 206 1
209 195 207 1
210 195 208 1
211 209 210 1
212 209 217 1
213 210 211 1
214 210 213 1
215 210 218 1
216 211 212 2
217 211 221 1
218 213 214 1
219 214 215 2
220 214 216 1
221 213 219 1
222 213 220 1
223 221 222 1
224 221 229 1
225 222 223 1
226 222 225 1
227 222 230 1
228 223 224 2
229 223 238 1
230 225 226 1
231 226 227 1
232 227 228 1
233 225 231 1
234 225 232 1
235 226 233 1
236 226 234 1
237 228 235 1
238 228 236 1
239 228 237 1
240 238 239 1
241 238 249 1
242 239 240 1
243 239 242 1
244 239 250 1
245 240 241 2
246 242 243 1
247 243 244 1
248 244 245 1
249 245 246 1
250 246 247 2
251 246 248 1
252 242 251 1
253 242 252 1
254 243 253 1
255 243 254 1
256 244 255 1
257 244 256 1
258 245 257 1
259 247 258 1
260 247 259 1
261 248 260 1
262 248 261 1
@<TRIPOS>SUBSTRUCTURE
1	GLU1	1	RESIDUE	1 ****	GLU
2	ASN2	16	RESIDUE	1 ****	ASN
3	PRO3	30	RESIDUE	1 ****	PRO
4	GLU4	44	RESIDUE	1 ****	GLU
5	SER5	59	RESIDUE	1 ****	SER
6	ILE6	70	RESIDUE	1 ****	ILE
7	LEU7	89	RESIDUE	1 ****	LEU
8	ASP8	108	RESIDUE	1 ****	ASP
9	GLU9	120	RESIDUE	1 ****	GLU
10	HIS10	135	RESIDUE	1 ****	HIS
11	VAL11	152	RESIDUE	1 ****	VAL
12	GLN12	168	RESIDUE	1 ****	GLN
13	ARG13	185	RESIDUE	1 ****	ARG
14	ASP14	209	RESIDUE	1 ****	ASP
15	MET15	221	RESIDUE	1 ****	MET
16	ARG16	238	RESIDUE	1 ****	ARG
