@<TRIPOS>MOLECULE
10-1
258 258 16              
SMALL
USER_CHARGES
@<TRIPOS>ATOM
1	   N	1517.694	448.213	-1537.315	N.3	1	GLU1	-0.516	
2	  CA	1518.253	449.562	-1537.315	C.3	1	GLU1	0.040	
3	   C	1519.762	449.522	-1537.315	C.2	1	GLU1	0.537	
4	   O	1520.438	450.221	-1538.083	O.2	1	GLU1	-0.582	
5	  CB	1517.730	450.347	-1536.078	C.3	1	GLU1	0.056	
6	  CG	1518.205	451.832	-1535.967	C.3	1	GLU1	0.014	
7	  CD	1517.781	452.636	-1534.752	C.2	1	GLU1	0.805	
8	 OE1	1517.053	452.134	-1533.874	O.co2	1	GLU1	-0.819	
9	 OE2	1518.211	453.806	-1534.680	O.co2	1	GLU1	-0.819	
10	   H	1518.321	447.334	-1537.315	 H	1	GLU1	0.294	
11	  HA	1517.927	450.080	-1538.235	 H	1	GLU1	0.111	
12	 2HB	1518.019	449.816	-1535.148	 H	1	GLU1	-0.017	
13	 3HB	1516.623	450.337	-1536.065	 H	1	GLU1	-0.017	
14	 2HG	1517.895	452.417	-1536.848	 H	1	GLU1	-0.043	
15	 3HG	1519.305	451.899	-1535.938	 H	1	GLU1	-0.043	
16	   N	1520.367	448.736	-1536.490	N.am	2	ASN2	-0.416	
17	  CA	1521.826	448.698	-1536.490	C.3	2	ASN2	0.014	
18	   C	1522.357	448.342	-1537.858	C.2	2	ASN2	0.597	
19	   O	1523.272	448.973	-1538.387	O.2	2	ASN2	-0.568	
20	  CB	1522.318	447.675	-1535.425	C.3	2	ASN2	-0.204	
21	  CG	1521.855	447.899	-1533.982	C.2	2	ASN2	0.713	
22	 ND2	1522.449	448.814	-1533.264	N.pl3	2	ASN2	-0.919	
23	 OD1	1520.934	447.265	-1533.488	O.2	2	ASN2	-0.593	
24	   H	1519.838	448.157	-1535.853	 H	2	ASN2	0.272	
25	  HA	1522.203	449.708	-1536.244	 H	2	ASN2	0.105	
26	 2HB	1523.422	447.616	-1535.429	 H	2	ASN2	0.080	
27	 3HB	1521.989	446.657	-1535.711	 H	2	ASN2	0.080	
28	1HD2	1521.969	448.987	-1532.377	 H	2	ASN2	0.420	
29	2HD2	1523.151	449.385	-1533.733	 H	2	ASN2	0.420	
30	   N	1521.836	447.347	-1538.492	N.am	3	PRO3	-0.255	
31	  CA	1522.287	446.938	-1539.814	C.3	3	PRO3	-0.027	
32	   C	1521.889	447.961	-1540.891	C.2	3	PRO3	0.590	
33	   O	1522.712	448.344	-1541.722	O.2	3	PRO3	-0.575	
34	  CB	1521.583	445.583	-1539.983	C.3	3	PRO3	-0.007	
35	  CG	1520.300	445.735	-1539.153	C.3	3	PRO3	0.019	
36	  CD	1520.758	446.554	-1537.943	C.3	3	PRO3	0.019	
37	  HA	1523.373	446.818	-1539.828	 H	3	PRO3	0.064	
38	 2HB	1522.206	444.802	-1539.542	 H	3	PRO3	0.025	
39	 3HB	1521.385	445.335	-1541.028	 H	3	PRO3	0.025	
40	 2HG	1519.872	444.773	-1538.862	 H	3	PRO3	0.021	
41	 3HG	1519.562	446.306	-1539.720	 H	3	PRO3	0.021	
42	 2HD	1521.147	445.905	-1537.156	 H	3	PRO3	0.039	
43	 3HD	1519.961	447.190	-1537.550	 H	3	PRO3	0.039	
44	   N	1520.684	448.421	-1540.923	N.am	4	GLU4	-0.516	
45	  CA	1520.324	449.392	-1541.953	C.3	4	GLU4	0.040	
46	   C	1521.223	450.604	-1541.891	C.2	4	GLU4	0.537	
47	   O	1521.750	451.083	-1542.906	O.2	4	GLU4	-0.582	
48	  CB	1518.836	449.811	-1541.782	C.3	4	GLU4	0.056	
49	  CG	1518.288	450.815	-1542.848	C.3	4	GLU4	0.014	
50	  CD	1516.861	451.311	-1542.704	C.2	4	GLU4	0.805	
51	 OE1	1516.135	450.913	-1541.773	O.co2	4	GLU4	-0.819	
52	 OE2	1516.471	452.140	-1543.552	O.co2	4	GLU4	-0.819	
53	   H	1520.000	448.115	-1540.246	 H	4	GLU4	0.294	
54	  HA	1520.455	448.922	-1542.944	 H	4	GLU4	0.111	
55	 2HB	1518.684	450.251	-1540.775	 H	4	GLU4	-0.017	
56	 3HB	1518.188	448.913	-1541.788	 H	4	GLU4	-0.017	
57	 2HG	1518.369	450.400	-1543.865	 H	4	GLU4	-0.043	
58	 3HG	1518.876	451.747	-1542.859	 H	4	GLU4	-0.043	
59	   N	1521.451	451.156	-1540.748	N.am	5	SER5	-0.416	
60	  CA	1522.320	452.328	-1540.690	C.3	5	SER5	-0.025	
61	   C	1523.679	452.022	-1541.276	C.2	5	SER5	0.597	
62	   O	1524.226	452.776	-1542.080	O.2	5	SER5	-0.568	
63	  CB	1522.432	452.860	-1539.239	C.3	5	SER5	0.212	
64	  OG	1523.164	451.980	-1538.378	O.3	5	SER5	-0.655	
65	   H	1521.034	450.785	-1539.907	 H	5	SER5	0.272	
66	  HA	1521.871	453.118	-1541.319	 H	5	SER5	0.084	
67	 2HB	1521.432	453.053	-1538.806	 H	5	SER5	0.035	
68	 3HB	1522.937	453.845	-1539.241	 H	5	SER5	0.035	
69	  HG	1522.675	451.155	-1538.328	 H	5	SER5	0.428	
70	   N	1524.284	450.939	-1540.922	N.am	6	ILE6	-0.416	
71	  CA	1525.597	450.645	-1541.488	C.3	6	ILE6	-0.060	
72	   C	1525.540	450.607	-1542.996	C.2	6	ILE6	0.597	
73	   O	1526.374	451.195	-1543.700	O.2	6	ILE6	-0.568	
74	  CB	1526.197	449.308	-1540.888	C.3	6	ILE6	0.130	
75	 CG1	1526.216	449.246	-1539.327	C.3	6	ILE6	-0.043	
76	 CG2	1527.638	449.007	-1541.404	C.3	6	ILE6	-0.320	
77	 CD1	1526.486	447.857	-1538.713	C.3	6	ILE6	-0.066	
78	   H	1523.856	450.305	-1540.263	 H	6	ILE6	0.272	
79	  HA	1526.271	451.479	-1541.220	 H	6	ILE6	0.087	
80	  HB	1525.539	448.482	-1541.232	 H	6	ILE6	0.019	
81	2HG1	1525.234	449.566	-1538.931	 H	6	ILE6	0.024	
82	3HG1	1526.932	449.988	-1538.922	 H	6	ILE6	0.024	
83	1HG2	1527.697	448.913	-1542.502	 H	6	ILE6	0.088	
84	2HG2	1528.360	449.789	-1541.102	 H	6	ILE6	0.088	
85	3HG2	1528.028	448.045	-1541.025	 H	6	ILE6	0.088	
86	1HD1	1525.758	447.103	-1539.067	 H	6	ILE6	0.019	
87	2HD1	1527.497	447.478	-1538.948	 H	6	ILE6	0.019	
88	3HD1	1526.410	447.887	-1537.610	 H	6	ILE6	0.019	
89	   N	1524.594	449.944	-1543.569	N.am	7	LEU7	-0.416	
90	  CA	1524.539	449.908	-1545.028	C.3	7	LEU7	-0.052	
91	   C	1524.466	451.303	-1545.600	C.2	7	LEU7	0.597	
92	   O	1525.187	451.666	-1546.542	O.2	7	LEU7	-0.568	
93	  CB	1523.336	449.048	-1545.508	C.3	7	LEU7	-0.110	
94	  CG	1523.263	447.568	-1545.042	C.3	7	LEU7	0.353	
95	 CD1	1522.073	446.862	-1545.708	C.3	7	LEU7	-0.412	
96	 CD2	1524.557	446.789	-1545.334	C.3	7	LEU7	-0.412	
97	   H	1523.902	449.456	-1543.018	 H	7	LEU7	0.272	
98	  HA	1525.480	449.468	-1545.402	 H	7	LEU7	0.092	
99	 2HB	1523.312	449.064	-1546.616	 H	7	LEU7	0.046	
100	 3HB	1522.396	449.550	-1545.204	 H	7	LEU7	0.046	
101	  HG	1523.093	447.560	-1543.945	 H	7	LEU7	-0.036	
102	1HD1	1521.116	447.371	-1545.485	 H	7	LEU7	0.100	
103	2HD1	1522.172	446.822	-1546.809	 H	7	LEU7	0.100	
104	3HD1	1521.966	445.821	-1545.352	 H	7	LEU7	0.100	
105	1HD2	1524.832	446.820	-1546.404	 H	7	LEU7	0.100	
106	2HD2	1525.410	447.201	-1544.763	 H	7	LEU7	0.100	
107	3HD2	1524.475	445.727	-1545.038	 H	7	LEU7	0.100	
108	   N	1523.629	452.144	-1545.094	N.am	8	ASP8	-0.516	
109	  CA	1523.558	453.493	-1545.647	C.3	8	ASP8	0.038	
110	   C	1524.905	454.173	-1545.589	C.2	8	ASP8	0.537	
111	   O	1525.378	454.779	-1546.564	O.2	8	ASP8	-0.582	
112	  CB	1522.480	454.332	-1544.905	C.3	8	ASP8	-0.030	
113	  CG	1522.261	455.753	-1545.445	C.2	8	ASP8	0.799	
114	 OD1	1522.325	455.952	-1546.675	O.co2	8	ASP8	-0.801	
115	 OD2	1522.069	456.679	-1544.629	O.co2	8	ASP8	-0.801	
116	   H	1523.031	451.872	-1544.326	 H	8	ASP8	0.294	
117	  HA	1523.276	453.416	-1546.714	 H	8	ASP8	0.088	
118	 2HB	1522.738	454.415	-1543.833	 H	8	ASP8	-0.012	
119	 3HB	1521.501	453.827	-1544.938	 H	8	ASP8	-0.012	
120	   N	1525.585	454.123	-1544.494	N.am	9	GLU9	-0.516	
121	  CA	1526.887	454.781	-1544.439	C.3	9	GLU9	0.040	
122	   C	1527.806	454.254	-1545.515	C.2	9	GLU9	0.537	
123	   O	1528.469	455.009	-1546.240	O.2	9	GLU9	-0.582	
124	  CB	1527.521	454.573	-1543.033	C.3	9	GLU9	0.056	
125	  CG	1528.904	455.265	-1542.804	C.3	9	GLU9	0.014	
126	  CD	1529.606	455.051	-1541.476	C.2	9	GLU9	0.805	
127	 OE1	1529.084	454.360	-1540.580	O.co2	9	GLU9	-0.819	
128	 OE2	1530.725	455.589	-1541.344	O.co2	9	GLU9	-0.819	
129	   H	1525.222	453.637	-1543.687	 H	9	GLU9	0.294	
130	  HA	1526.745	455.863	-1544.613	 H	9	GLU9	0.111	
131	 2HB	1527.634	453.488	-1542.831	 H	9	GLU9	-0.017	
132	 3HB	1526.824	454.926	-1542.249	 H	9	GLU9	-0.017	
133	 2HG	1528.832	456.356	-1542.943	 H	9	GLU9	-0.043	
134	 3HG	1529.651	454.920	-1543.538	 H	9	GLU9	-0.043	
135	   N	1527.902	452.979	-1545.685	N.am	10	ALA10	-0.416	
136	  CA	1528.790	452.470	-1546.726	C.3	10	ALA10	0.034	
137	   C	1528.421	453.037	-1548.076	C.2	10	ALA10	0.597	
138	   O	1529.269	453.503	-1548.846	O.2	10	ALA10	-0.568	
139	  CB	1528.723	450.933	-1546.687	C.3	10	ALA10	-0.183	
140	   H	1527.372	452.343	-1545.107	 H	10	ALA10	0.272	
141	  HA	1529.822	452.799	-1546.503	 H	10	ALA10	0.082	
142	 1HB	1529.032	450.534	-1545.702	 H	10	ALA10	0.060	
143	 2HB	1527.700	450.556	-1546.881	 H	10	ALA10	0.060	
144	 3HB	1529.388	450.473	-1547.439	 H	10	ALA10	0.060	
145	   N	1527.183	453.035	-1548.438	N.am	11	VAL11	-0.416	
146	  CA	1526.825	453.584	-1549.743	C.3	11	VAL11	-0.087	
147	   C	1527.288	455.015	-1549.873	C.2	11	VAL11	0.597	
148	   O	1527.887	455.423	-1550.875	O.2	11	VAL11	-0.568	
149	  CB	1525.264	453.476	-1549.960	C.3	11	VAL11	0.299	
150	 CG1	1524.693	454.182	-1551.221	C.3	11	VAL11	-0.319	
151	 CG2	1524.741	452.021	-1550.036	C.3	11	VAL11	-0.319	
152	   H	1526.471	452.660	-1547.827	 H	11	VAL11	0.272	
153	  HA	1527.345	453.004	-1550.527	 H	11	VAL11	0.097	
154	  HB	1524.777	453.953	-1549.083	 H	11	VAL11	-0.030	
155	1HG1	1525.131	453.792	-1552.159	 H	11	VAL11	0.079	
156	2HG1	1523.594	454.073	-1551.302	 H	11	VAL11	0.079	
157	3HG1	1524.870	455.274	-1551.209	 H	11	VAL11	0.079	
158	1HG2	1525.033	451.433	-1549.147	 H	11	VAL11	0.079	
159	2HG2	1523.635	451.983	-1550.077	 H	11	VAL11	0.079	
160	3HG2	1525.122	451.483	-1550.924	 H	11	VAL11	0.079	
161	   N	1527.051	455.839	-1548.908	N.am	12	GLN12	-0.416	
162	  CA	1527.498	457.222	-1549.033	C.3	12	GLN12	-0.003	
163	   C	1528.988	457.292	-1549.273	C.2	12	GLN12	0.597	
164	   O	1529.473	458.003	-1550.150	O.2	12	GLN12	-0.568	
165	  CB	1527.108	457.987	-1547.748	C.3	12	GLN12	-0.004	
166	  CG	1527.466	459.509	-1547.714	C.3	12	GLN12	-0.064	
167	  CD	1527.164	460.319	-1546.448	C.2	12	GLN12	0.695	
168	 NE2	1526.599	459.740	-1545.419	N.pl3	12	GLN12	-0.941	
169	 OE1	1527.465	461.500	-1546.368	O.2	12	GLN12	-0.609	
170	   H	1526.564	455.530	-1548.079	 H	12	GLN12	0.272	
171	  HA	1526.997	457.680	-1549.907	 H	12	GLN12	0.085	
172	 2HB	1527.585	457.485	-1546.881	 H	12	GLN12	0.017	
173	 3HB	1526.018	457.878	-1547.584	 H	12	GLN12	0.017	
174	 2HG	1526.987	460.031	-1548.564	 H	12	GLN12	0.035	
175	 3HG	1528.549	459.652	-1547.881	 H	12	GLN12	0.035	
176	1HE2	1526.492	460.333	-1544.594	 H	12	GLN12	0.425	
177	2HE2	1526.437	458.737	-1545.525	 H	12	GLN12	0.425	
178	   N	1529.774	456.585	-1548.534	N.am	13	ARG13	-0.348	
179	  CA	1531.214	456.652	-1548.766	C.3	13	ARG13	-0.264	
180	   C	1531.549	456.284	-1550.193	C.2	13	ARG13	0.734	
181	   O	1532.316	456.958	-1550.876	O.2	13	ARG13	-0.589	
182	  CB	1531.929	455.712	-1547.755	C.3	13	ARG13	-0.001	
183	  CG	1533.474	455.867	-1547.676	C.3	13	ARG13	0.039	
184	  CD	1534.104	454.878	-1546.681	C.3	13	ARG13	0.049	
185	  NE	1535.581	455.087	-1546.632	N.pl3	13	ARG13	-0.530	
186	  CZ	1536.430	454.395	-1545.879	C.cat	13	ARG13	0.808	
187	 NH1	1536.067	453.428	-1545.083	N.pl3	13	ARG13	-0.863	
188	 NH2	1537.689	454.695	-1545.937	N.pl3	13	ARG13	-0.863	
189	   H	1529.399	455.993	-1547.807	 H	13	ARG13	0.275	
190	  HA	1531.537	457.699	-1548.606	 H	13	ARG13	0.156	
191	 2HB	1531.664	454.662	-1547.996	 H	13	ARG13	0.033	
192	 3HB	1531.505	455.876	-1546.744	 H	13	ARG13	0.033	
193	 2HG	1533.721	456.911	-1547.395	 H	13	ARG13	0.029	
194	 3HG	1533.924	455.714	-1548.678	 H	13	ARG13	0.029	
195	 2HD	1533.860	453.838	-1546.992	 H	13	ARG13	0.069	
196	 3HD	1533.648	455.021	-1545.677	 H	13	ARG13	0.069	
197	  HE	1536.030	455.811	-1547.201	 H	13	ARG13	0.346	
198	1HH1	1535.062	453.241	-1545.085	 H	13	ARG13	0.448	
199	2HH1	1536.782	452.945	-1544.536	 H	13	ARG13	0.448	
200	1HH2	1537.955	455.455	-1546.566	 H	13	ARG13	0.448	
201	2HH2	1538.326	454.154	-1545.350	 H	13	ARG13	0.448	
202	   N	1531.013	455.230	-1550.709	N.am	14	VAL14	-0.416	
203	  CA	1531.337	454.874	-1552.087	C.3	14	VAL14	-0.087	
204	   C	1531.005	456.006	-1553.030	C.2	14	VAL14	0.597	
205	   O	1531.797	456.390	-1553.900	O.2	14	VAL14	-0.568	
206	  CB	1530.566	453.557	-1552.496	C.3	14	VAL14	0.299	
207	 CG1	1530.654	453.142	-1553.991	C.3	14	VAL14	-0.319	
208	 CG2	1531.000	452.304	-1551.699	C.3	14	VAL14	-0.319	
209	   H	1530.380	454.660	-1550.167	 H	14	VAL14	0.272	
210	  HA	1532.425	454.699	-1552.164	 H	14	VAL14	0.097	
211	  HB	1529.490	453.726	-1552.278	 H	14	VAL14	-0.030	
212	1HG1	1531.695	452.967	-1554.321	 H	14	VAL14	0.079	
213	2HG1	1530.082	452.219	-1554.204	 H	14	VAL14	0.079	
214	3HG1	1530.223	453.905	-1554.667	 H	14	VAL14	0.079	
215	1HG2	1530.914	452.460	-1550.608	 H	14	VAL14	0.079	
216	2HG2	1530.365	451.427	-1551.932	 H	14	VAL14	0.079	
217	3HG2	1532.048	452.015	-1551.906	 H	14	VAL14	0.079	
218	   N	1529.859	456.590	-1552.926	N.am	15	MET15	-0.416	
219	  CA	1529.536	457.684	-1553.837	C.3	15	MET15	-0.024	
220	   C	1530.566	458.785	-1553.748	C.2	15	MET15	0.597	
221	   O	1531.066	459.299	-1554.760	O.2	15	MET15	-0.568	
222	  CB	1528.115	458.228	-1553.525	C.3	15	MET15	0.034	
223	  CG	1526.954	457.228	-1553.718	C.3	15	MET15	0.002	
224	  SD	1525.379	458.093	-1553.600	S.3	15	MET15	-0.274	
225	  CE	1524.300	456.661	-1553.465	C.3	15	MET15	-0.054	
226	   H	1529.196	456.295	-1552.224	 H	15	MET15	0.272	
227	  HA	1529.562	457.299	-1554.873	 H	15	MET15	0.088	
228	 2HB	1527.911	459.107	-1554.165	 H	15	MET15	0.024	
229	 3HB	1528.080	458.618	-1552.488	 H	15	MET15	0.024	
230	 2HG	1526.999	456.441	-1552.942	 H	15	MET15	0.044	
231	 3HG	1527.016	456.715	-1554.695	 H	15	MET15	0.044	
232	 1HE	1524.443	455.975	-1554.319	 H	15	MET15	0.068	
233	 2HE	1524.510	456.107	-1552.533	 H	15	MET15	0.068	
234	 3HE	1523.242	456.975	-1553.446	 H	15	MET15	0.068	
235	   N	1530.935	459.204	-1552.585	N.am	16	ARG16	-0.348	
236	  CA	1531.931	460.269	-1552.500	C.3	16	ARG16	-0.264	
237	   C	1533.201	459.879	-1553.219	C.2	16	ARG16	0.734	
238	   O	1533.315	458.804	-1553.803	O.2	16	ARG16	-0.589	
239	  CB	1532.201	460.583	-1551.001	C.3	16	ARG16	-0.001	
240	  CG	1533.025	461.873	-1550.727	C.3	16	ARG16	0.039	
241	  CD	1533.276	462.089	-1549.225	C.3	16	ARG16	0.049	
242	  NE	1534.051	463.348	-1549.022	N.pl3	16	ARG16	-0.530	
243	  CZ	1534.443	463.828	-1547.846	C.cat	16	ARG16	0.808	
244	 NH1	1534.198	463.241	-1546.708	N.pl3	16	ARG16	-0.863	
245	 NH2	1535.106	464.942	-1547.826	N.pl3	16	ARG16	-0.863	
246	   H	1530.542	458.802	-1551.746	 H	16	ARG16	0.275	
247	  HA	1531.520	461.162	-1553.007	 H	16	ARG16	0.156	
248	 2HB	1532.700	459.707	-1550.538	 H	16	ARG16	0.033	
249	 3HB	1531.233	460.662	-1550.466	 H	16	ARG16	0.033	
250	 2HG	1532.493	462.744	-1551.161	 H	16	ARG16	0.029	
251	 3HG	1533.998	461.822	-1551.257	 H	16	ARG16	0.029	
252	 2HD	1533.827	461.214	-1548.815	 H	16	ARG16	0.069	
253	 3HD	1532.304	462.129	-1548.688	 H	16	ARG16	0.069	
254	  HE	1534.328	463.931	-1549.818	 H	16	ARG16	0.346	
255	1HH1	1533.673	462.368	-1546.794	 H	16	ARG16	0.448	
256	2HH1	1534.533	463.675	-1545.847	 H	16	ARG16	0.448	
257	1HH2	1535.290	465.387	-1548.727	 H	16	ARG16	0.448	
258	2HH2	1535.397	465.295	-1546.913	 H	16	ARG16	0.448	
@<TRIPOS>BOND
1 1 2 1
2 1 10 1
3 2 3 1
4 2 5 1
5 2 11 1
6 3 4 2
7 3 16 1
8 5 6 1
9 6 7 1
10 7 8 2
11 7 9 1
12 5 12 1
13 5 13 1
14 6 14 1
15 6 15 1
16 16 17 1
17 16 24 1
18 17 18 1
19 17 20 1
20 17 25 1
21 18 19 2
22 18 30 1
23 20 21 1
24 21 22 1
25 21 23 2
26 20 26 1
27 20 27 1
28 22 28 1
29 22 29 1
30 30 31 1
31 30 36 1
32 31 32 1
33 31 34 1
34 31 37 1
35 32 33 2
36 32 44 1
37 34 35 1
38 35 36 1
39 34 38 1
40 34 39 1
41 35 40 1
42 35 41 1
43 36 42 1
44 36 43 1
45 44 45 1
46 44 53 1
47 45 46 1
48 45 48 1
49 45 54 1
50 46 47 2
51 46 59 1
52 48 49 1
53 49 50 1
54 50 51 2
55 50 52 1
56 48 55 1
57 48 56 1
58 49 57 1
59 49 58 1
60 59 60 1
61 59 65 1
62 60 61 1
63 60 63 1
64 60 66 1
65 61 62 2
66 61 70 1
67 63 64 1
68 63 67 1
69 63 68 1
70 64 69 1
71 70 71 1
72 70 78 1
73 71 72 1
74 71 74 1
75 71 79 1
76 72 73 2
77 72 89 1
78 74 75 1
79 74 76 1
80 75 77 1
81 74 80 1
82 75 81 1
83 75 82 1
84 76 83 1
85 76 84 1
86 76 85 1
87 77 86 1
88 77 87 1
89 77 88 1
90 89 90 1
91 89 97 1
92 90 91 1
93 90 93 1
94 90 98 1
95 91 92 2
96 91 108 1
97 93 94 1
98 94 95 1
99 94 96 1
100 93 99 1
101 93 100 1
102 94 101 1
103 95 102 1
104 95 103 1
105 95 104 1
106 96 105 1
107 96 106 1
108 96 107 1
109 108 109 1
110 108 116 1
111 109 110 1
112 109 112 1
113 109 117 1
114 110 111 2
115 110 120 1
116 112 113 1
117 113 114 2
118 113 115 1
119 112 118 1
120 112 119 1
121 120 121 1
122 120 129 1
123 121 122 1
124 121 124 1
125 121 130 1
126 122 123 2
127 122 135 1
128 124 125 1
129 125 126 1
130 126 127 2
131 126 128 1
132 124 131 1
133 124 132 1
134 125 133 1
135 125 134 1
136 135 136 1
137 135 140 1
138 136 137 1
139 136 139 1
140 136 141 1
141 137 138 2
142 137 145 1
143 139 142 1
144 139 143 1
145 139 144 1
146 145 146 1
147 145 152 1
148 146 147 1
149 146 149 1
150 146 153 1
151 147 148 2
152 147 161 1
153 149 150 1
154 149 151 1
155 149 154 1
156 150 155 1
157 150 156 1
158 150 157 1
159 151 158 1
160 151 159 1
161 151 160 1
162 161 162 1
163 161 170 1
164 162 163 1
165 162 165 1
166 162 171 1
167 163 164 2
168 163 178 1
169 165 166 1
170 166 167 1
171 167 168 1
172 167 169 2
173 165 172 1
174 165 173 1
175 166 174 1
176 166 175 1
177 168 176 1
178 168 177 1
179 178 179 1
180 178 189 1
181 179 180 1
182 179 182 1
183 179 190 1
184 180 181 2
185 180 202 1
186 182 183 1
187 183 184 1
188 184 185 1
189 185 186 1
190 186 187 2
191 186 188 1
192 182 191 1
193 182 192 1
194 183 193 1
195 183 194 1
196 184 195 1
197 184 196 1
198 185 197 1
199 187 198 1
200 187 199 1
201 188 200 1
202 188 201 1
203 202 203 1
204 202 209 1
205 203 204 1
206 203 206 1
207 203 210 1
208 204 205 2
209 204 218 1
210 206 207 1
211 206 208 1
212 206 211 1
213 207 212 1
214 207 213 1
215 207 214 1
216 208 215 1
217 208 216 1
218 208 217 1
219 218 219 1
220 218 226 1
221 219 220 1
222 219 222 1
223 219 227 1
224 220 221 2
225 220 235 1
226 222 223 1
227 223 224 1
228 224 225 1
229 222 228 1
230 222 229 1
231 223 230 1
232 223 231 1
233 225 232 1
234 225 233 1
235 225 234 1
236 235 236 1
237 235 246 1
238 236 237 1
239 236 239 1
240 236 247 1
241 237 238 2
242 239 240 1
243 240 241 1
244 241 242 1
245 242 243 1
246 243 244 2
247 243 245 1
248 239 248 1
249 239 249 1
250 240 250 1
251 240 251 1
252 241 252 1
253 241 253 1
254 242 254 1
255 244 255 1
256 244 256 1
257 245 257 1
258 245 258 1
@<TRIPOS>SUBSTRUCTURE
1	GLU1	1	RESIDUE	1 ****	GLU
2	ASN2	16	RESIDUE	1 ****	ASN
3	PRO3	30	RESIDUE	1 ****	PRO
4	GLU4	44	RESIDUE	1 ****	GLU
5	SER5	59	RESIDUE	1 ****	SER
6	ILE6	70	RESIDUE	1 ****	ILE
7	LEU7	89	RESIDUE	1 ****	LEU
8	ASP8	108	RESIDUE	1 ****	ASP
9	GLU9	120	RESIDUE	1 ****	GLU
10	ALA10	135	RESIDUE	1 ****	ALA
11	VAL11	145	RESIDUE	1 ****	VAL
12	GLN12	161	RESIDUE	1 ****	GLN
13	ARG13	178	RESIDUE	1 ****	ARG
14	VAL14	202	RESIDUE	1 ****	VAL
15	MET15	218	RESIDUE	1 ****	MET
16	ARG16	235	RESIDUE	1 ****	ARG
