REMARK WARNING: 32 MAX_TORS EXCEEDED!!!
REMARK  70 active torsions:
REMARK  status: ('A' for Active; 'I' for Inactive)
REMARK    1  A    between atoms: N_1  and  CA_2 
REMARK    2  A    between atoms: CA_2  and  C_3 
REMARK    3  A    between atoms: CA_2  and  CB_5 
REMARK       I    between atoms: C_3  and  N_11 
REMARK    4  A    between atoms: CB_5  and  CG_6 
REMARK    5  A    between atoms: CG_6  and  CD_7 
REMARK    6  A    between atoms: N_11  and  CA_12 
REMARK    7  A    between atoms: CA_12  and  C_13 
REMARK    8  A    between atoms: CA_12  and  CB_15 
REMARK       I    between atoms: C_13  and  N_22 
REMARK    9  A    between atoms: CB_15  and  CG_16 
REMARK       I    between atoms: CG_16  and  ND2_17 
REMARK   10  A    between atoms: CA_23  and  C_24 
REMARK       I    between atoms: C_24  and  N_29 
REMARK   11  A    between atoms: N_29  and  CA_30 
REMARK   12  A    between atoms: CA_30  and  C_31 
REMARK   13  A    between atoms: CA_30  and  CB_33 
REMARK       I    between atoms: C_31  and  N_39 
REMARK   14  A    between atoms: CB_33  and  CG_34 
REMARK   15  A    between atoms: CG_34  and  CD_35 
REMARK   16  A    between atoms: N_39  and  CA_40 
REMARK   17  A    between atoms: CA_40  and  C_41 
REMARK   18  A    between atoms: CA_40  and  CB_43 
REMARK       I    between atoms: C_41  and  N_47 
REMARK   19  A    between atoms: CB_43  and  OG_44 
REMARK   20  A    between atoms: N_47  and  CA_48 
REMARK   21  A    between atoms: CA_48  and  C_49 
REMARK   22  A    between atoms: CA_48  and  CB_51 
REMARK       I    between atoms: C_49  and  N_56 
REMARK   23  A    between atoms: CB_51  and  CG1_52 
REMARK   24  A    between atoms: N_56  and  CA_57 
REMARK   25  A    between atoms: CA_57  and  C_58 
REMARK   26  A    between atoms: CA_57  and  CB_60 
REMARK       I    between atoms: C_58  and  N_65 
REMARK   27  A    between atoms: CB_60  and  CG_61 
REMARK   28  A    between atoms: N_65  and  CA_66 
REMARK   29  A    between atoms: CA_66  and  C_67 
REMARK   30  A    between atoms: CA_66  and  CB_69 
REMARK       I    between atoms: C_67  and  N_74 
REMARK   31  A    between atoms: CB_69  and  CG_70 
REMARK   32  A    between atoms: N_74  and  CA_75 
REMARK   33  A    between atoms: CA_75  and  C_76 
REMARK   34  A    between atoms: CA_75  and  CB_78 
REMARK       I    between atoms: C_76  and  N_84 
REMARK   35  A    between atoms: CB_78  and  CG_79 
REMARK   36  A    between atoms: CG_79  and  CD_80 
REMARK   37  A    between atoms: N_84  and  CA_85 
REMARK   38  A    between atoms: CA_85  and  C_86 
REMARK   39  A    between atoms: CA_85  and  CB_88 
REMARK       I    between atoms: C_86  and  N_96 
REMARK   40  A    between atoms: CB_88  and  CG_89 
REMARK   41  A    between atoms: N_96  and  CA_97 
REMARK   42  A    between atoms: CA_97  and  C_98 
REMARK   43  A    between atoms: CA_97  and  CB_100 
REMARK       I    between atoms: C_98  and  N_104 
REMARK   44  A    between atoms: N_104  and  CA_105 
REMARK   45  A    between atoms: CA_105  and  C_106 
REMARK   46  A    between atoms: CA_105  and  CB_108 
REMARK       I    between atoms: C_106  and  N_116 
REMARK   47  A    between atoms: CB_108  and  CG_109 
REMARK   48  A    between atoms: CG_109  and  CD_110 
REMARK       I    between atoms: CD_110  and  NE2_111 
REMARK   49  A    between atoms: N_116  and  CA_117 
REMARK   50  A    between atoms: CA_117  and  C_118 
REMARK   51  A    between atoms: CA_117  and  CB_120 
REMARK       I    between atoms: C_118  and  N_133 
REMARK   52  A    between atoms: CB_120  and  CG_121 
REMARK   53  A    between atoms: CG_121  and  CD_122 
REMARK   54  A    between atoms: CD_122  and  NE_123 
REMARK       I    between atoms: NE_123  and  CZ_124 
REMARK       I    between atoms: CZ_124  and  NH1_125 
REMARK       I    between atoms: CZ_124  and  NH2_126 
REMARK   55  A    between atoms: N_133  and  CA_134 
REMARK   56  A    between atoms: CA_134  and  C_135 
REMARK   57  A    between atoms: CA_134  and  CB_137 
REMARK       I    between atoms: C_135  and  N_141 
REMARK   58  A    between atoms: N_141  and  CA_142 
REMARK   59  A    between atoms: CA_142  and  C_143 
REMARK   60  A    between atoms: CA_142  and  CB_145 
REMARK       I    between atoms: C_143  and  N_154 
REMARK   61  A    between atoms: CB_145  and  CG_146 
REMARK   62  A    between atoms: CG_146  and  CD_147 
REMARK   63  A    between atoms: CD_147  and  CE_148 
REMARK   64  A    between atoms: CE_148  and  NZ_149 
REMARK   65  A    between atoms: N_154  and  CA_155 
REMARK   66  A    between atoms: CA_155  and  C_156 
REMARK   67  A    between atoms: CA_155  and  CB_158 
REMARK   68  A    between atoms: CB_158  and  CG_159 
REMARK   69  A    between atoms: CG_159  and  CD_160 
REMARK   70  A    between atoms: CD_160  and  NE_161 
REMARK       I    between atoms: NE_161  and  CZ_162 
REMARK       I    between atoms: CZ_162  and  NH1_163 
ROOT
ATOM      1  C   GLU d   9    2492.170 767.727-2594.569  0.00  0.00     0.241 C 
ATOM      2  O   GLU d   9    2492.834 768.481-2595.295  0.00  0.00    -0.271 OA
ATOM      3  N   HIS d  10    2492.266 766.452-2594.738  0.00  0.00    -0.346 N 
ATOM      4  H   HIS d  10    2491.736 765.817-2594.159  0.00  0.00     0.163 HD
ENDROOT
BRANCH   3   5
ATOM      5  CA  HIS d  10    2493.154 765.940-2595.779  0.00  0.00     0.182 C 
BRANCH   5   6
ATOM      6  C   HIS d  10    2492.787 766.504-2597.130  0.00  0.00     0.241 C 
ATOM      7  O   HIS d  10    2493.639 766.968-2597.902  0.00  0.00    -0.271 OA
ATOM      8  N   VAL d  11    2491.549 766.503-2597.493  0.00  0.00    -0.346 N 
ATOM      9  H   VAL d  11    2490.836 766.131-2596.882  0.00  0.00     0.163 HD
BRANCH   8  10
ATOM     10  CA  VAL d  11    2491.194 767.049-2598.800  0.00  0.00     0.180 C 
BRANCH  10  11
ATOM     11  C   VAL d  11    2491.659 768.479-2598.933  0.00  0.00     0.241 C 
ATOM     12  O   VAL d  11    2492.260 768.884-2599.936  0.00  0.00    -0.271 OA
ATOM     13  N   GLN d  12    2491.423 769.305-2597.971  0.00  0.00    -0.346 N 
ATOM     14  H   GLN d  12    2490.934 769.000-2597.142  0.00  0.00     0.163 HD
BRANCH  13  15
ATOM     15  CA  GLN d  12    2491.872 770.688-2598.099  0.00  0.00     0.177 C 
BRANCH  15  16
ATOM     16  C   GLN d  12    2493.362 770.755-2598.337  0.00  0.00     0.241 C 
ATOM     17  O   GLN d  12    2493.849 771.462-2599.216  0.00  0.00    -0.271 OA
ATOM     18  N   ARG d  13    2494.146 770.048-2597.596  0.00  0.00    -0.346 N 
ATOM     19  H   ARG d  13    2493.770 769.459-2596.867  0.00  0.00     0.163 HD
BRANCH  18  20
ATOM     20  CA  ARG d  13    2495.586 770.113-2597.827  0.00  0.00     0.176 C 
BRANCH  20  21
ATOM     21  C   ARG d  13    2495.922 769.741-2599.252  0.00  0.00     0.241 C 
ATOM     22  O   ARG d  13    2496.691 770.412-2599.937  0.00  0.00    -0.271 OA
ATOM     23  N   VAL d  14    2495.385 768.686-2599.766  0.00  0.00    -0.346 N 
ATOM     24  H   VAL d  14    2494.750 768.118-2599.223  0.00  0.00     0.163 HD
BRANCH  23  25
ATOM     25  CA  VAL d  14    2495.710 768.326-2601.143  0.00  0.00     0.180 C 
BRANCH  25  26
ATOM     26  C   VAL d  14    2495.380 769.455-2602.089  0.00  0.00     0.241 C 
ATOM     27  O   VAL d  14    2496.173 769.836-2602.959  0.00  0.00    -0.271 OA
ATOM     28  N   LYS d  15    2494.236 770.042-2601.987  0.00  0.00    -0.346 N 
ATOM     29  H   LYS d  15    2493.571 769.749-2601.286  0.00  0.00     0.163 HD
BRANCH  28  30
ATOM     30  CA  LYS d  15    2493.915 771.134-2602.902  0.00  0.00     0.176 C 
BRANCH  30  31
ATOM     31  C   LYS d  15    2494.947 772.234-2602.814  0.00  0.00     0.241 C 
ATOM     32  O   LYS d  15    2495.451 772.745-2603.825  0.00  0.00    -0.271 OA
ATOM     33  N   ARG d  16    2495.316 772.654-2601.651  0.00  0.00    -0.347 N 
ATOM     34  H   ARG d  16    2494.920 772.254-2600.812  0.00  0.00     0.163 HD
BRANCH  33  35
ATOM     35  CA  ARG d  16    2496.313 773.717-2601.566  0.00  0.00     0.162 C 
BRANCH  35  36
ATOM     36  C   ARG d  16    2497.584 773.324-2602.282  0.00  0.00     0.219 C 
ATOM     37  O   ARG d  16    2497.697 772.247-2602.864  0.00  0.00    -0.287 OA
ENDBRANCH  35  36
BRANCH  35  38
ATOM     38  CB  ARG d  16    2496.582 774.034-2600.068  0.00  0.00     0.035 C 
BRANCH  38  39
ATOM     39  CG  ARG d  16    2497.408 775.322-2599.794  0.00  0.00     0.023 C 
BRANCH  39  40
ATOM     40  CD  ARG d  16    2497.657 775.541-2598.293  0.00  0.00     0.138 C 
BRANCH  40  41
ATOM     41  NE  ARG d  16    2498.434 776.799-2598.091  0.00  0.00    -0.227 N 
ATOM     42  CZ  ARG d  16    2498.825 777.280-2596.915  0.00  0.00     0.665 C 
ATOM     43  NH1 ARG d  16    2498.577 776.696-2595.777  0.00  0.00    -0.235 N 
ATOM     44  NH2 ARG d  16    2499.490 778.392-2596.896  0.00  0.00    -0.235 N 
ATOM     45 11HH ARG d  16    2498.051 775.823-2595.862  0.00  0.00     0.174 HD
ATOM     46 12HH ARG d  16    2498.911 777.131-2594.916  0.00  0.00     0.174 HD
ATOM     47 21HH ARG d  16    2499.677 778.836-2597.797  0.00  0.00     0.174 HD
ATOM     48 22HH ARG d  16    2499.781 778.747-2595.983  0.00  0.00     0.174 HD
ATOM     49  HE  ARG d  16    2498.714 777.380-2598.888  0.00  0.00     0.177 HD
ENDBRANCH  40  41
ENDBRANCH  39  40
ENDBRANCH  38  39
ENDBRANCH  35  38
ENDBRANCH  33  35
ENDBRANCH  30  31
BRANCH  30  50
ATOM     50  CB  LYS d  15    2492.496 771.677-2602.581  0.00  0.00     0.035 C 
BRANCH  50  51
ATOM     51  CG  LYS d  15    2492.030 772.793-2603.549  0.00  0.00     0.004 C 
BRANCH  51  52
ATOM     52  CD  LYS d  15    2490.661 773.398-2603.223  0.00  0.00     0.027 C 
BRANCH  52  53
ATOM     53  CE  LYS d  15    2490.362 774.533-2604.212  0.00  0.00     0.229 C 
BRANCH  53  54
ATOM     54  NZ  LYS d  15    2488.979 775.002-2604.015  0.00  0.00    -0.079 N 
ATOM     55  3HZ LYS d  15    2488.389 774.383-2604.553  0.00  0.00     0.274 HD
ATOM     56  1HZ LYS d  15    2488.731 774.989-2603.018  0.00  0.00     0.274 HD
ATOM     57  2HZ LYS d  15    2488.867 775.973-2604.323  0.00  0.00     0.274 HD
ENDBRANCH  53  54
ENDBRANCH  52  53
ENDBRANCH  51  52
ENDBRANCH  50  51
ENDBRANCH  30  50
ENDBRANCH  28  30
ENDBRANCH  25  26
BRANCH  25  58
ATOM     58  CB  VAL d  14    2494.937 767.009-2601.549  0.00  0.00     0.009 C 
ATOM     59  CG1 VAL d  14    2495.026 766.589-2603.042  0.00  0.00     0.012 C 
ATOM     60  CG2 VAL d  14    2495.369 765.757-2600.748  0.00  0.00     0.012 C 
ENDBRANCH  25  58
ENDBRANCH  23  25
ENDBRANCH  20  21
BRANCH  20  61
ATOM     61  CB  ARG d  13    2496.300 769.175-2596.813  0.00  0.00     0.036 C 
BRANCH  61  62
ATOM     62  CG  ARG d  13    2497.845 769.327-2596.732  0.00  0.00     0.023 C 
BRANCH  62  63
ATOM     63  CD  ARG d  13    2498.472 768.340-2595.734  0.00  0.00     0.138 C 
BRANCH  63  64
ATOM     64  NE  ARG d  13    2499.949 768.547-2595.684  0.00  0.00    -0.227 N 
ATOM     65  CZ  ARG d  13    2500.797 767.856-2594.929  0.00  0.00     0.665 C 
ATOM     66  NH1 ARG d  13    2500.432 766.892-2594.130  0.00  0.00    -0.235 N 
ATOM     67  NH2 ARG d  13    2502.057 768.154-2594.986  0.00  0.00    -0.235 N 
ATOM     68 11HH ARG d  13    2499.427 766.706-2594.133  0.00  0.00     0.174 HD
ATOM     69 12HH ARG d  13    2501.145 766.409-2593.582  0.00  0.00     0.174 HD
ATOM     70 21HH ARG d  13    2502.324 768.912-2595.618  0.00  0.00     0.174 HD
ATOM     71 22HH ARG d  13    2502.692 767.613-2594.397  0.00  0.00     0.174 HD
ATOM     72  HE  ARG d  13    2500.400 769.269-2596.256  0.00  0.00     0.177 HD
ENDBRANCH  63  64
ENDBRANCH  62  63
ENDBRANCH  61  62
ENDBRANCH  20  61
ENDBRANCH  18  20
ENDBRANCH  15  16
BRANCH  15  73
ATOM     73  CB  GLN d  12    2491.481 771.457-2596.817  0.00  0.00     0.044 C 
BRANCH  73  74
ATOM     74  CG  GLN d  12    2491.843 772.978-2596.786  0.00  0.00     0.105 C 
BRANCH  74  75
ATOM     75  CD  GLN d  12    2491.541 773.792-2595.522  0.00  0.00     0.215 C 
ATOM     76  NE2 GLN d  12    2490.974 773.217-2594.493  0.00  0.00    -0.370 N 
ATOM     77 21HE GLN d  12    2490.868 773.812-2593.669  0.00  0.00     0.159 HD
ATOM     78 22HE GLN d  12    2490.810 772.214-2594.595  0.00  0.00     0.159 HD
ATOM     79  OE1 GLN d  12    2491.844 774.973-2595.445  0.00  0.00    -0.274 OA
ENDBRANCH  74  75
ENDBRANCH  73  74
ENDBRANCH  15  73
ENDBRANCH  13  15
ENDBRANCH  10  11
BRANCH  10  80
ATOM     80  CB  VAL d  11    2489.632 766.943-2599.019  0.00  0.00     0.009 C 
ATOM     81  CG1 VAL d  11    2489.064 767.646-2600.282  0.00  0.00     0.012 C 
ATOM     82  CG2 VAL d  11    2489.107 765.489-2599.091  0.00  0.00     0.012 C 
ENDBRANCH  10  80
ENDBRANCH   8  10
ENDBRANCH   5   6
BRANCH   5  83
ATOM     83  CB  HIS d  10    2492.989 764.411-2595.773  0.00  0.00     0.095 C 
BRANCH  83  84
ATOM     84  CG  HIS d  10    2494.274 763.700-2595.465  0.00  0.00     0.053 A 
ATOM     85  CD2 HIS d  10    2494.656 763.366-2594.172  0.00  0.00     0.116 A 
ATOM     86  NE2 HIS d  10    2495.870 762.733-2594.239  0.00  0.00    -0.359 N 
ATOM     87  CE1 HIS d  10    2496.132 762.735-2595.574  0.00  0.00     0.207 A 
ATOM     88  2HE HIS d  10    2496.437 762.356-2593.466  0.00  0.00     0.166 HD
ATOM     89  ND1 HIS d  10    2495.226 763.293-2596.397  0.00  0.00    -0.247 NA
ENDBRANCH  83  84
ENDBRANCH   5  83
ENDBRANCH   3   5
BRANCH   1  90
ATOM     90  CA  GLU d   9    2491.253 768.256-2593.493  0.00  0.00     0.177 C 
BRANCH  90  91
ATOM     91  N   GLU d   9    2489.950 767.599-2593.548  0.00  0.00    -0.346 N 
ATOM     92  C   ASP d   8    2489.270 767.649-2594.643  0.00  0.00     0.241 C 
ATOM     93  O   ASP d   8    2489.743 768.253-2595.618  0.00  0.00    -0.271 OA
ATOM     94  H   GLU d   9    2489.586 767.113-2592.741  0.00  0.00     0.163 HD
BRANCH  92  95
ATOM     95  CA  ASP d   8    2487.923 766.969-2594.700  0.00  0.00     0.186 C 
BRANCH  95  96
ATOM     96  N   ASP d   8    2487.992 765.620-2594.146  0.00  0.00    -0.346 N 
ATOM     97  C   LEU d   7    2488.829 764.779-2594.652  0.00  0.00     0.241 C 
ATOM     98  O   LEU d   7    2489.550 765.141-2595.594  0.00  0.00    -0.271 OA
ATOM     99  H   ASP d   8    2487.395 765.350-2593.378  0.00  0.00     0.163 HD
BRANCH  97 100
ATOM    100  CA  LEU d   7    2488.901 763.384-2594.079  0.00  0.00     0.177 C 
BRANCH 100 101
ATOM    101  N   LEU d   7    2488.956 763.420-2592.620  0.00  0.00    -0.346 N 
ATOM    102  C   ILE d   6    2489.902 764.083-2592.047  0.00  0.00     0.241 C 
ATOM    103  O   ILE d   6    2490.737 764.670-2592.751  0.00  0.00    -0.271 OA
ATOM    104  H   LEU d   7    2488.264 762.933-2592.069  0.00  0.00     0.163 HD
BRANCH 102 105
ATOM    105  CA  ILE d   6    2489.959 764.121-2590.539  0.00  0.00     0.180 C 
BRANCH 105 106
ATOM    106  N   ILE d   6    2488.646 764.416-2589.973  0.00  0.00    -0.346 N 
ATOM    107  C   SER d   5    2488.042 765.499-2590.327  0.00  0.00     0.243 C 
ATOM    108  O   SER d   5    2488.590 766.253-2591.132  0.00  0.00    -0.271 OA
ATOM    109  H   ILE d   6    2488.217 763.782-2589.314  0.00  0.00     0.163 HD
BRANCH 107 110
ATOM    110  CA  SER d   5    2486.683 765.806-2589.742  0.00  0.00     0.200 C 
BRANCH 110 111
ATOM    111  N   SER d   5    2485.813 764.634-2589.801  0.00  0.00    -0.344 N 
ATOM    112  C   GLU d   4    2485.586 764.082-2590.944  0.00  0.00     0.241 C 
ATOM    113  O   GLU d   4    2486.113 764.561-2591.958  0.00  0.00    -0.271 OA
ATOM    114  H   SER d   5    2485.396 764.263-2588.960  0.00  0.00     0.163 HD
BRANCH 112 115
ATOM    115  CA  GLU d   4    2484.687 762.871-2591.006  0.00  0.00     0.177 C 
BRANCH 115 116
ATOM    116  N   GLU d   4    2485.046 761.900-2589.976  0.00  0.00    -0.346 N 
ATOM    117  C   PRO d   3    2486.251 761.440-2589.943  0.00  0.00     0.241 C 
ATOM    118  O   PRO d   3    2487.074 761.823-2590.775  0.00  0.00    -0.271 OA
ATOM    119  H   GLU d   4    2484.362 761.594-2589.300  0.00  0.00     0.163 HD
BRANCH 117 120
ATOM    120  CA  PRO d   3    2486.649 760.416-2588.866  0.00  0.00     0.179 C 
ATOM    121  N   PRO d   3    2486.197 760.826-2587.545  0.00  0.00    -0.337 N 
ATOM    122  C   ASN d   2    2486.718 761.820-2586.911  0.00  0.00     0.243 C 
ATOM    123  CD  PRO d   3    2485.118 760.033-2586.996  0.00  0.00     0.127 C 
ATOM    124  O   ASN d   2    2487.633 762.451-2587.439  0.00  0.00    -0.271 OA
ATOM    125  CG  PRO d   3    2484.661 759.214-2588.206  0.00  0.00     0.022 C 
ATOM    126  CB  PRO d   3    2485.944 759.062-2589.036  0.00  0.00     0.037 C 
BRANCH 122 127
ATOM    127  CA  ASN d   2    2486.187 762.176-2585.542  0.00  0.00     0.185 C 
BRANCH 127 128
ATOM    128  N   ASN d   2    2484.727 762.215-2585.542  0.00  0.00    -0.346 N 
ATOM    129  C   GLU d   1    2484.123 763.001-2586.367  0.00  0.00     0.242 C 
ATOM    130  O   GLU d   1    2484.799 763.700-2587.136  0.00  0.00    -0.271 OA
ATOM    131  H   ASN d   2    2484.199 761.635-2584.906  0.00  0.00     0.163 HD
BRANCH 129 132
ATOM    132  CA  GLU d   1    2482.614 763.041-2586.367  0.00  0.00     0.191 C 
BRANCH 132 133
ATOM    133  N   GLU d   1    2482.055 761.692-2586.367  0.00  0.00    -0.326 NA
ATOM    134  H   GLU d   1    2482.682 760.813-2586.367  0.00  0.00     0.180 HD
ENDBRANCH 132 133
BRANCH 132 135
ATOM    135  CB  GLU d   1    2482.091 763.826-2585.131  0.00  0.00     0.047 C 
BRANCH 135 136
ATOM    136  CG  GLU d   1    2482.566 765.311-2585.020  0.00  0.00     0.116 C 
BRANCH 136 137
ATOM    137  CD  GLU d   1    2482.142 766.115-2583.804  0.00  0.00     0.172 C 
ATOM    138  OE1 GLU d   1    2481.414 765.613-2582.927  0.00  0.00    -0.648 OA
ATOM    139  OE2 GLU d   1    2482.572 767.285-2583.732  0.00  0.00    -0.648 OA
ENDBRANCH 136 137
ENDBRANCH 135 136
ENDBRANCH 132 135
ENDBRANCH 129 132
ENDBRANCH 127 128
BRANCH 127 140
ATOM    140  CB  ASN d   2    2486.678 761.153-2584.478  0.00  0.00     0.137 C 
BRANCH 140 141
ATOM    141  CG  ASN d   2    2486.215 761.377-2583.034  0.00  0.00     0.217 C 
ATOM    142  ND2 ASN d   2    2486.809 762.292-2582.316  0.00  0.00    -0.370 N 
ATOM    143 21HD ASN d   2    2486.328 762.465-2581.430  0.00  0.00     0.159 HD
ATOM    144 22HD ASN d   2    2487.511 762.863-2582.785  0.00  0.00     0.159 HD
ATOM    145  OD1 ASN d   2    2485.294 760.743-2582.540  0.00  0.00    -0.274 OA
ENDBRANCH 140 141
ENDBRANCH 127 140
ENDBRANCH 122 127
ENDBRANCH 117 120
ENDBRANCH 115 116
BRANCH 115 146
ATOM    146  CB  GLU d   4    2483.198 763.290-2590.836  0.00  0.00     0.045 C 
BRANCH 146 147
ATOM    147  CG  GLU d   4    2482.651 764.294-2591.902  0.00  0.00     0.116 C 
BRANCH 147 148
ATOM    148  CD  GLU d   4    2481.225 764.791-2591.759  0.00  0.00     0.172 C 
ATOM    149  OE1 GLU d   4    2480.498 764.393-2590.828  0.00  0.00    -0.648 OA
ATOM    150  OE2 GLU d   4    2480.836 765.620-2592.607  0.00  0.00    -0.648 OA
ENDBRANCH 147 148
ENDBRANCH 146 147
ENDBRANCH 115 146
ENDBRANCH 112 115
ENDBRANCH 110 111
BRANCH 110 151
ATOM    151  CB  SER d   5    2486.794 766.338-2588.292  0.00  0.00     0.199 C 
BRANCH 151 152
ATOM    152  OG  SER d   5    2487.525 765.458-2587.431  0.00  0.00    -0.398 OA
ATOM    153  HG  SER d   5    2487.036 764.633-2587.380  0.00  0.00     0.209 HD
ENDBRANCH 151 152
ENDBRANCH 110 151
ENDBRANCH 107 110
ENDBRANCH 105 106
BRANCH 105 154
ATOM    154  CB  ILE d   6    2490.559 762.784-2589.939  0.00  0.00     0.013 C 
ATOM    155  CG2 ILE d   6    2492.000 762.482-2590.454  0.00  0.00     0.012 C 
BRANCH 154 156
ATOM    156  CG1 ILE d   6    2490.577 762.722-2588.378  0.00  0.00     0.002 C 
ATOM    157  CD1 ILE d   6    2490.847 761.333-2587.763  0.00  0.00     0.005 C 
ENDBRANCH 154 156
ENDBRANCH 105 154
ENDBRANCH 102 105
ENDBRANCH 100 101
BRANCH 100 158
ATOM    158  CB  LEU d   7    2487.698 762.524-2594.559  0.00  0.00     0.038 C 
BRANCH 158 159
ATOM    159  CG  LEU d   7    2487.625 761.044-2594.093  0.00  0.00    -0.020 C 
ATOM    160  CD1 LEU d   7    2486.435 760.339-2594.758  0.00  0.00     0.009 C 
ATOM    161  CD2 LEU d   7    2488.918 760.265-2594.384  0.00  0.00     0.009 C 
ENDBRANCH 158 159
ENDBRANCH 100 158
ENDBRANCH  97 100
ENDBRANCH  95  96
BRANCH  95 162
ATOM    162  CB  ASP d   8    2486.845 767.810-2593.959  0.00  0.00     0.147 C 
BRANCH 162 163
ATOM    163  CG  ASP d   8    2486.627 769.230-2594.500  0.00  0.00     0.175 C 
ATOM    164  OD1 ASP d   8    2486.691 769.428-2595.731  0.00  0.00    -0.648 OA
ATOM    165  OD2 ASP d   8    2486.436 770.156-2593.686  0.00  0.00    -0.648 OA
ENDBRANCH 162 163
ENDBRANCH  95 162
ENDBRANCH  92  95
ENDBRANCH  90  91
BRANCH  90 166
ATOM    166  CB  GLU d   9    2491.886 768.049-2592.088  0.00  0.00     0.045 C 
BRANCH 166 167
ATOM    167  CG  GLU d   9    2493.270 768.741-2591.859  0.00  0.00     0.116 C 
BRANCH 167 168
ATOM    168  CD  GLU d   9    2493.971 768.527-2590.531  0.00  0.00     0.172 C 
ATOM    169  OE1 GLU d   9    2493.450 767.837-2589.634  0.00  0.00    -0.648 OA
ATOM    170  OE2 GLU d   9    2495.091 769.065-2590.400  0.00  0.00    -0.648 OA
ENDBRANCH 167 168
ENDBRANCH 166 167
ENDBRANCH  90 166
ENDBRANCH   1  90
TORSDOF 70
