REMARK WARNING: 32 MAX_TORS EXCEEDED!!!
REMARK  69 active torsions:
REMARK  status: ('A' for Active; 'I' for Inactive)
REMARK    1  A    between atoms: N_1  and  CA_2 
REMARK    2  A    between atoms: CA_2  and  C_3 
REMARK    3  A    between atoms: CA_2  and  CB_5 
REMARK       I    between atoms: C_3  and  N_11 
REMARK    4  A    between atoms: CB_5  and  CG_6 
REMARK    5  A    between atoms: CG_6  and  CD_7 
REMARK    6  A    between atoms: N_11  and  CA_12 
REMARK    7  A    between atoms: CA_12  and  C_13 
REMARK    8  A    between atoms: CA_12  and  CB_15 
REMARK       I    between atoms: C_13  and  N_22 
REMARK    9  A    between atoms: CB_15  and  CG_16 
REMARK       I    between atoms: CG_16  and  ND2_17 
REMARK   10  A    between atoms: CA_23  and  C_24 
REMARK       I    between atoms: C_24  and  N_29 
REMARK   11  A    between atoms: N_29  and  CA_30 
REMARK   12  A    between atoms: CA_30  and  C_31 
REMARK   13  A    between atoms: CA_30  and  CB_33 
REMARK       I    between atoms: C_31  and  N_39 
REMARK   14  A    between atoms: CB_33  and  CG_34 
REMARK   15  A    between atoms: CG_34  and  CD_35 
REMARK   16  A    between atoms: N_39  and  CA_40 
REMARK   17  A    between atoms: CA_40  and  C_41 
REMARK   18  A    between atoms: CA_40  and  CB_43 
REMARK       I    between atoms: C_41  and  N_47 
REMARK   19  A    between atoms: CB_43  and  OG_44 
REMARK   20  A    between atoms: N_47  and  CA_48 
REMARK   21  A    between atoms: CA_48  and  C_49 
REMARK   22  A    between atoms: CA_48  and  CB_51 
REMARK       I    between atoms: C_49  and  N_56 
REMARK   23  A    between atoms: CB_51  and  CG1_52 
REMARK   24  A    between atoms: N_56  and  CA_57 
REMARK   25  A    between atoms: CA_57  and  C_58 
REMARK   26  A    between atoms: CA_57  and  CB_60 
REMARK       I    between atoms: C_58  and  N_65 
REMARK   27  A    between atoms: CB_60  and  CG_61 
REMARK   28  A    between atoms: N_65  and  CA_66 
REMARK   29  A    between atoms: CA_66  and  C_67 
REMARK   30  A    between atoms: CA_66  and  CB_69 
REMARK       I    between atoms: C_67  and  N_74 
REMARK   31  A    between atoms: CB_69  and  CG_70 
REMARK   32  A    between atoms: N_74  and  CA_75 
REMARK   33  A    between atoms: CA_75  and  C_76 
REMARK   34  A    between atoms: CA_75  and  CB_78 
REMARK       I    between atoms: C_76  and  N_84 
REMARK   35  A    between atoms: CB_78  and  CG_79 
REMARK   36  A    between atoms: CG_79  and  CD_80 
REMARK   37  A    between atoms: N_84  and  CA_85 
REMARK   38  A    between atoms: CA_85  and  C_86 
REMARK   39  A    between atoms: CA_85  and  CB_88 
REMARK       I    between atoms: C_86  and  N_96 
REMARK   40  A    between atoms: CB_88  and  CG_89 
REMARK   41  A    between atoms: N_96  and  CA_97 
REMARK   42  A    between atoms: CA_97  and  C_98 
REMARK   43  A    between atoms: CA_97  and  CB_100 
REMARK       I    between atoms: C_98  and  N_104 
REMARK   44  A    between atoms: N_104  and  CA_105 
REMARK   45  A    between atoms: CA_105  and  C_106 
REMARK   46  A    between atoms: CA_105  and  CB_108 
REMARK       I    between atoms: C_106  and  N_116 
REMARK   47  A    between atoms: CB_108  and  CG_109 
REMARK   48  A    between atoms: CG_109  and  CD_110 
REMARK       I    between atoms: CD_110  and  NE2_111 
REMARK   49  A    between atoms: N_116  and  CA_117 
REMARK   50  A    between atoms: CA_117  and  C_118 
REMARK   51  A    between atoms: CA_117  and  CB_120 
REMARK       I    between atoms: C_118  and  N_133 
REMARK   52  A    between atoms: CB_120  and  CG_121 
REMARK   53  A    between atoms: CG_121  and  CD_122 
REMARK   54  A    between atoms: CD_122  and  NE_123 
REMARK       I    between atoms: NE_123  and  CZ_124 
REMARK       I    between atoms: CZ_124  and  NH1_125 
REMARK       I    between atoms: CZ_124  and  NH2_126 
REMARK   55  A    between atoms: N_133  and  CA_134 
REMARK   56  A    between atoms: CA_134  and  C_135 
REMARK   57  A    between atoms: CA_134  and  CB_137 
REMARK       I    between atoms: C_135  and  N_141 
REMARK   58  A    between atoms: N_141  and  CA_142 
REMARK   59  A    between atoms: CA_142  and  C_143 
REMARK   60  A    between atoms: CA_142  and  CB_145 
REMARK       I    between atoms: C_143  and  N_158 
REMARK   61  A    between atoms: CB_145  and  CG_146 
REMARK   62  A    between atoms: CG_146  and  CD_147 
REMARK   63  A    between atoms: CD_147  and  NE_148 
REMARK       I    between atoms: NE_148  and  CZ_149 
REMARK       I    between atoms: CZ_149  and  NH1_150 
REMARK       I    between atoms: CZ_149  and  NH2_151 
REMARK   64  A    between atoms: N_158  and  CA_159 
REMARK   65  A    between atoms: CA_159  and  C_160 
REMARK   66  A    between atoms: CA_159  and  CB_162 
REMARK   67  A    between atoms: CB_162  and  CG_163 
REMARK   68  A    between atoms: CG_163  and  CD_164 
REMARK   69  A    between atoms: CD_164  and  NE_165 
REMARK       I    between atoms: NE_165  and  CZ_166 
REMARK       I    between atoms: CZ_166  and  NH1_167 
ROOT
ATOM      1  CA  HIS d  10    2501.417 768.854-2604.890  0.00  0.00     0.182 C 
ENDROOT
BRANCH   1   2
ATOM      2  N   HIS d  10    2500.530 769.367-2603.850  0.00  0.00    -0.346 N 
ATOM      3  C   GLU d   9    2500.434 770.642-2603.681  0.00  0.00     0.241 C 
ATOM      4  O   GLU d   9    2501.098 771.396-2604.407  0.00  0.00    -0.271 OA
ATOM      5  H   HIS d  10    2499.999 768.732-2603.271  0.00  0.00     0.163 HD
BRANCH   3   6
ATOM      6  CA  GLU d   9    2499.517 771.171-2602.605  0.00  0.00     0.177 C 
BRANCH   6   7
ATOM      7  N   GLU d   9    2498.213 770.514-2602.660  0.00  0.00    -0.346 N 
ATOM      8  C   ASP d   8    2497.533 770.563-2603.755  0.00  0.00     0.241 C 
ATOM      9  O   ASP d   8    2498.006 771.167-2604.730  0.00  0.00    -0.271 OA
ATOM     10  H   GLU d   9    2497.850 770.028-2601.853  0.00  0.00     0.163 HD
BRANCH   8  11
ATOM     11  CA  ASP d   8    2496.186 769.884-2603.812  0.00  0.00     0.186 C 
BRANCH  11  12
ATOM     12  N   ASP d   8    2496.256 768.535-2603.258  0.00  0.00    -0.346 N 
ATOM     13  C   LEU d   7    2497.093 767.694-2603.764  0.00  0.00     0.241 C 
ATOM     14  O   LEU d   7    2497.814 768.055-2604.706  0.00  0.00    -0.271 OA
ATOM     15  H   ASP d   8    2495.658 768.265-2602.490  0.00  0.00     0.163 HD
BRANCH  13  16
ATOM     16  CA  LEU d   7    2497.165 766.298-2603.191  0.00  0.00     0.177 C 
BRANCH  16  17
ATOM     17  N   LEU d   7    2497.220 766.335-2601.732  0.00  0.00    -0.346 N 
ATOM     18  C   ILE d   6    2498.166 766.998-2601.159  0.00  0.00     0.241 C 
ATOM     19  O   ILE d   6    2499.001 767.585-2601.863  0.00  0.00    -0.271 OA
ATOM     20  H   LEU d   7    2496.528 765.848-2601.181  0.00  0.00     0.163 HD
BRANCH  18  21
ATOM     21  CA  ILE d   6    2498.223 767.035-2599.651  0.00  0.00     0.180 C 
BRANCH  21  22
ATOM     22  N   ILE d   6    2496.910 767.331-2599.085  0.00  0.00    -0.346 N 
ATOM     23  C   SER d   5    2496.306 768.414-2599.439  0.00  0.00     0.243 C 
ATOM     24  O   SER d   5    2496.854 769.168-2600.244  0.00  0.00    -0.271 OA
ATOM     25  H   ILE d   6    2496.481 766.697-2598.426  0.00  0.00     0.163 HD
BRANCH  23  26
ATOM     26  CA  SER d   5    2494.947 768.720-2598.854  0.00  0.00     0.200 C 
BRANCH  26  27
ATOM     27  N   SER d   5    2494.077 767.549-2598.913  0.00  0.00    -0.344 N 
ATOM     28  C   GLU d   4    2493.850 766.997-2600.056  0.00  0.00     0.241 C 
ATOM     29  O   GLU d   4    2494.377 767.476-2601.070  0.00  0.00    -0.271 OA
ATOM     30  H   SER d   5    2493.659 767.178-2598.072  0.00  0.00     0.163 HD
BRANCH  28  31
ATOM     31  CA  GLU d   4    2492.951 765.786-2600.118  0.00  0.00     0.177 C 
BRANCH  31  32
ATOM     32  N   GLU d   4    2493.310 764.815-2599.088  0.00  0.00    -0.346 N 
ATOM     33  C   PRO d   3    2494.515 764.355-2599.055  0.00  0.00     0.241 C 
ATOM     34  O   PRO d   3    2495.338 764.738-2599.886  0.00  0.00    -0.271 OA
ATOM     35  H   GLU d   4    2492.625 764.508-2598.411  0.00  0.00     0.163 HD
BRANCH  33  36
ATOM     36  CA  PRO d   3    2494.912 763.331-2597.978  0.00  0.00     0.179 C 
ATOM     37  N   PRO d   3    2494.460 763.740-2596.657  0.00  0.00    -0.337 N 
ATOM     38  C   ASN d   2    2494.982 764.735-2596.022  0.00  0.00     0.243 C 
ATOM     39  CD  PRO d   3    2493.382 762.947-2596.108  0.00  0.00     0.127 C 
ATOM     40  O   ASN d   2    2495.897 765.365-2596.551  0.00  0.00    -0.271 OA
ATOM     41  CG  PRO d   3    2492.924 762.129-2597.318  0.00  0.00     0.022 C 
ATOM     42  CB  PRO d   3    2494.208 761.976-2598.148  0.00  0.00     0.037 C 
BRANCH  38  43
ATOM     43  CA  ASN d   2    2494.450 765.091-2594.654  0.00  0.00     0.185 C 
BRANCH  43  44
ATOM     44  N   ASN d   2    2492.991 765.130-2594.654  0.00  0.00    -0.346 N 
ATOM     45  C   GLU d   1    2492.386 765.916-2595.479  0.00  0.00     0.242 C 
ATOM     46  O   GLU d   1    2493.062 766.615-2596.248  0.00  0.00    -0.271 OA
ATOM     47  H   ASN d   2    2492.463 764.550-2594.018  0.00  0.00     0.163 HD
BRANCH  45  48
ATOM     48  CA  GLU d   1    2490.877 765.956-2595.479  0.00  0.00     0.191 C 
BRANCH  48  49
ATOM     49  N   GLU d   1    2490.318 764.607-2595.479  0.00  0.00    -0.326 NA
ATOM     50  H   GLU d   1    2490.945 763.728-2595.479  0.00  0.00     0.180 HD
ENDBRANCH  48  49
BRANCH  48  51
ATOM     51  CB  GLU d   1    2490.354 766.741-2594.242  0.00  0.00     0.047 C 
BRANCH  51  52
ATOM     52  CG  GLU d   1    2490.829 768.226-2594.131  0.00  0.00     0.116 C 
BRANCH  52  53
ATOM     53  CD  GLU d   1    2490.405 769.030-2592.916  0.00  0.00     0.172 C 
ATOM     54  OE1 GLU d   1    2489.677 768.528-2592.038  0.00  0.00    -0.648 OA
ATOM     55  OE2 GLU d   1    2490.835 770.200-2592.844  0.00  0.00    -0.648 OA
ENDBRANCH  52  53
ENDBRANCH  51  52
ENDBRANCH  48  51
ENDBRANCH  45  48
ENDBRANCH  43  44
BRANCH  43  56
ATOM     56  CB  ASN d   2    2494.942 764.068-2593.589  0.00  0.00     0.137 C 
BRANCH  56  57
ATOM     57  CG  ASN d   2    2494.479 764.292-2592.146  0.00  0.00     0.217 C 
ATOM     58  ND2 ASN d   2    2495.073 765.206-2591.428  0.00  0.00    -0.370 N 
ATOM     59 21HD ASN d   2    2494.592 765.380-2590.541  0.00  0.00     0.159 HD
ATOM     60 22HD ASN d   2    2495.774 765.778-2591.897  0.00  0.00     0.159 HD
ATOM     61  OD1 ASN d   2    2493.557 763.658-2591.652  0.00  0.00    -0.274 OA
ENDBRANCH  56  57
ENDBRANCH  43  56
ENDBRANCH  38  43
ENDBRANCH  33  36
ENDBRANCH  31  32
BRANCH  31  62
ATOM     62  CB  GLU d   4    2491.462 766.205-2599.948  0.00  0.00     0.045 C 
BRANCH  62  63
ATOM     63  CG  GLU d   4    2490.915 767.209-2601.014  0.00  0.00     0.116 C 
BRANCH  63  64
ATOM     64  CD  GLU d   4    2489.488 767.706-2600.871  0.00  0.00     0.172 C 
ATOM     65  OE1 GLU d   4    2488.761 767.307-2599.940  0.00  0.00    -0.648 OA
ATOM     66  OE2 GLU d   4    2489.099 768.535-2601.719  0.00  0.00    -0.648 OA
ENDBRANCH  63  64
ENDBRANCH  62  63
ENDBRANCH  31  62
ENDBRANCH  28  31
ENDBRANCH  26  27
BRANCH  26  67
ATOM     67  CB  SER d   5    2495.058 769.252-2597.404  0.00  0.00     0.199 C 
BRANCH  67  68
ATOM     68  OG  SER d   5    2495.789 768.373-2596.542  0.00  0.00    -0.398 OA
ATOM     69  HG  SER d   5    2495.300 767.548-2596.492  0.00  0.00     0.209 HD
ENDBRANCH  67  68
ENDBRANCH  26  67
ENDBRANCH  23  26
ENDBRANCH  21  22
BRANCH  21  70
ATOM     70  CB  ILE d   6    2498.822 765.699-2599.051  0.00  0.00     0.013 C 
ATOM     71  CG2 ILE d   6    2500.263 765.397-2599.566  0.00  0.00     0.012 C 
BRANCH  70  72
ATOM     72  CG1 ILE d   6    2498.841 765.637-2597.490  0.00  0.00     0.002 C 
ATOM     73  CD1 ILE d   6    2499.111 764.247-2596.875  0.00  0.00     0.005 C 
ENDBRANCH  70  72
ENDBRANCH  21  70
ENDBRANCH  18  21
ENDBRANCH  16  17
BRANCH  16  74
ATOM     74  CB  LEU d   7    2495.962 765.439-2603.671  0.00  0.00     0.038 C 
BRANCH  74  75
ATOM     75  CG  LEU d   7    2495.888 763.959-2603.205  0.00  0.00    -0.020 C 
ATOM     76  CD1 LEU d   7    2494.698 763.254-2603.870  0.00  0.00     0.009 C 
ATOM     77  CD2 LEU d   7    2497.182 763.180-2603.496  0.00  0.00     0.009 C 
ENDBRANCH  74  75
ENDBRANCH  16  74
ENDBRANCH  13  16
ENDBRANCH  11  12
BRANCH  11  78
ATOM     78  CB  ASP d   8    2495.109 770.724-2603.071  0.00  0.00     0.147 C 
BRANCH  78  79
ATOM     79  CG  ASP d   8    2494.891 772.145-2603.612  0.00  0.00     0.175 C 
ATOM     80  OD1 ASP d   8    2494.955 772.343-2604.843  0.00  0.00    -0.648 OA
ATOM     81  OD2 ASP d   8    2494.699 773.071-2602.797  0.00  0.00    -0.648 OA
ENDBRANCH  78  79
ENDBRANCH  11  78
ENDBRANCH   8  11
ENDBRANCH   6   7
BRANCH   6  82
ATOM     82  CB  GLU d   9    2500.150 770.963-2601.200  0.00  0.00     0.045 C 
BRANCH  82  83
ATOM     83  CG  GLU d   9    2501.533 771.655-2600.971  0.00  0.00     0.116 C 
BRANCH  83  84
ATOM     84  CD  GLU d   9    2502.235 771.442-2599.643  0.00  0.00     0.172 C 
ATOM     85  OE1 GLU d   9    2501.713 770.752-2598.746  0.00  0.00    -0.648 OA
ATOM     86  OE2 GLU d   9    2503.354 771.980-2599.512  0.00  0.00    -0.648 OA
ENDBRANCH  83  84
ENDBRANCH  82  83
ENDBRANCH   6  82
ENDBRANCH   3   6
ENDBRANCH   1   2
BRANCH   1  87
ATOM     87  C   HIS d  10    2501.050 769.419-2606.242  0.00  0.00     0.241 C 
ATOM     88  O   HIS d  10    2501.903 769.883-2607.014  0.00  0.00    -0.271 OA
ATOM     89  N   VAL d  11    2499.812 769.418-2606.604  0.00  0.00    -0.346 N 
ATOM     90  H   VAL d  11    2499.099 769.046-2605.994  0.00  0.00     0.163 HD
BRANCH  89  91
ATOM     91  CA  VAL d  11    2499.457 769.964-2607.912  0.00  0.00     0.180 C 
BRANCH  91  92
ATOM     92  C   VAL d  11    2499.923 771.394-2608.045  0.00  0.00     0.241 C 
ATOM     93  O   VAL d  11    2500.524 771.798-2609.048  0.00  0.00    -0.271 OA
ATOM     94  N   GLN d  12    2499.686 772.220-2607.083  0.00  0.00    -0.346 N 
ATOM     95  H   GLN d  12    2499.198 771.915-2606.253  0.00  0.00     0.163 HD
BRANCH  94  96
ATOM     96  CA  GLN d  12    2500.135 773.603-2607.211  0.00  0.00     0.177 C 
BRANCH  96  97
ATOM     97  C   GLN d  12    2501.625 773.669-2607.449  0.00  0.00     0.241 C 
ATOM     98  O   GLN d  12    2502.113 774.377-2608.328  0.00  0.00    -0.271 OA
ATOM     99  N   ARG d  13    2502.410 772.963-2606.708  0.00  0.00    -0.346 N 
ATOM    100  H   ARG d  13    2502.033 772.373-2605.979  0.00  0.00     0.163 HD
BRANCH  99 101
ATOM    101  CA  ARG d  13    2503.850 773.028-2606.939  0.00  0.00     0.176 C 
BRANCH 101 102
ATOM    102  C   ARG d  13    2504.186 772.655-2608.364  0.00  0.00     0.241 C 
ATOM    103  O   ARG d  13    2504.955 773.326-2609.049  0.00  0.00    -0.271 OA
ATOM    104  N   VAL d  14    2503.649 771.601-2608.877  0.00  0.00    -0.346 N 
ATOM    105  H   VAL d  14    2503.014 771.032-2608.335  0.00  0.00     0.163 HD
BRANCH 104 106
ATOM    106  CA  VAL d  14    2503.974 771.240-2610.255  0.00  0.00     0.180 C 
BRANCH 106 107
ATOM    107  C   VAL d  14    2503.644 772.370-2611.201  0.00  0.00     0.241 C 
ATOM    108  O   VAL d  14    2504.437 772.751-2612.071  0.00  0.00    -0.271 OA
ATOM    109  N   ARG d  15    2502.499 772.956-2611.099  0.00  0.00    -0.346 N 
ATOM    110  H   ARG d  15    2501.834 772.664-2610.397  0.00  0.00     0.163 HD
BRANCH 109 111
ATOM    111  CA  ARG d  15    2502.180 774.049-2612.014  0.00  0.00     0.176 C 
BRANCH 111 112
ATOM    112  C   ARG d  15    2503.212 775.147-2611.925  0.00  0.00     0.241 C 
ATOM    113  O   ARG d  15    2503.713 775.653-2612.926  0.00  0.00    -0.271 OA
ATOM    114  N   ARG d  16    2503.580 775.567-2610.761  0.00  0.00    -0.347 N 
ATOM    115  H   ARG d  16    2503.184 775.167-2609.923  0.00  0.00     0.163 HD
BRANCH 114 116
ATOM    116  CA  ARG d  16    2504.579 776.629-2610.676  0.00  0.00     0.162 C 
BRANCH 116 117
ATOM    117  C   ARG d  16    2505.850 776.234-2611.391  0.00  0.00     0.219 C 
ATOM    118  O   ARG d  16    2505.962 775.158-2611.973  0.00  0.00    -0.287 OA
ENDBRANCH 116 117
BRANCH 116 119
ATOM    119  CB  ARG d  16    2504.847 776.945-2609.177  0.00  0.00     0.035 C 
BRANCH 119 120
ATOM    120  CG  ARG d  16    2505.674 778.232-2608.902  0.00  0.00     0.023 C 
BRANCH 120 121
ATOM    121  CD  ARG d  16    2505.923 778.449-2607.400  0.00  0.00     0.138 C 
BRANCH 121 122
ATOM    122  NE  ARG d  16    2506.701 779.707-2607.198  0.00  0.00    -0.227 N 
ATOM    123  CZ  ARG d  16    2507.092 780.187-2606.021  0.00  0.00     0.665 C 
ATOM    124  NH1 ARG d  16    2506.842 779.603-2604.883  0.00  0.00    -0.235 N 
ATOM    125  NH2 ARG d  16    2507.758 781.299-2606.001  0.00  0.00    -0.235 N 
ATOM    126 11HH ARG d  16    2506.315 778.731-2604.969  0.00  0.00     0.174 HD
ATOM    127 12HH ARG d  16    2507.176 780.037-2604.021  0.00  0.00     0.174 HD
ATOM    128 21HH ARG d  16    2507.945 781.742-2606.902  0.00  0.00     0.174 HD
ATOM    129 22HH ARG d  16    2508.048 781.653-2605.088  0.00  0.00     0.174 HD
ATOM    130  HE  ARG d  16    2506.981 780.288-2607.994  0.00  0.00     0.177 HD
ENDBRANCH 121 122
ENDBRANCH 120 121
ENDBRANCH 119 120
ENDBRANCH 116 119
ENDBRANCH 114 116
ENDBRANCH 111 112
BRANCH 111 131
ATOM    131  CB  ARG d  15    2500.756 774.580-2611.681  0.00  0.00     0.036 C 
BRANCH 131 132
ATOM    132  CG  ARG d  15    2500.146 775.555-2612.727  0.00  0.00     0.023 C 
BRANCH 132 133
ATOM    133  CD  ARG d  15    2498.756 776.059-2612.304  0.00  0.00     0.138 C 
BRANCH 133 134
ATOM    134  NE  ARG d  15    2498.212 776.972-2613.353  0.00  0.00    -0.227 N 
ATOM    135  CZ  ARG d  15    2497.035 777.588-2613.301  0.00  0.00     0.665 C 
ATOM    136  NH1 ARG d  15    2496.202 777.470-2612.304  0.00  0.00    -0.235 N 
ATOM    137  NH2 ARG d  15    2496.694 778.348-2614.293  0.00  0.00    -0.235 N 
ATOM    138 11HH ARG d  15    2496.532 776.859-2611.554  0.00  0.00     0.174 HD
ATOM    139 12HH ARG d  15    2495.316 777.976-2612.340  0.00  0.00     0.174 HD
ATOM    140 21HH ARG d  15    2497.359 778.429-2615.064  0.00  0.00     0.174 HD
ATOM    141 22HH ARG d  15    2495.785 778.811-2614.235  0.00  0.00     0.174 HD
ATOM    142  HE  ARG d  15    2498.746 777.174-2614.204  0.00  0.00     0.177 HD
ENDBRANCH 133 134
ENDBRANCH 132 133
ENDBRANCH 131 132
ENDBRANCH 111 131
ENDBRANCH 109 111
ENDBRANCH 106 107
BRANCH 106 143
ATOM    143  CB  VAL d  14    2503.201 769.923-2610.661  0.00  0.00     0.009 C 
ATOM    144  CG1 VAL d  14    2503.289 769.504-2612.154  0.00  0.00     0.012 C 
ATOM    145  CG2 VAL d  14    2503.632 768.671-2609.860  0.00  0.00     0.012 C 
ENDBRANCH 106 143
ENDBRANCH 104 106
ENDBRANCH 101 102
BRANCH 101 146
ATOM    146  CB  ARG d  13    2504.563 772.089-2605.925  0.00  0.00     0.036 C 
BRANCH 146 147
ATOM    147  CG  ARG d  13    2506.108 772.242-2605.844  0.00  0.00     0.023 C 
BRANCH 147 148
ATOM    148  CD  ARG d  13    2506.735 771.255-2604.846  0.00  0.00     0.138 C 
BRANCH 148 149
ATOM    149  NE  ARG d  13    2508.212 771.462-2604.796  0.00  0.00    -0.227 N 
ATOM    150  CZ  ARG d  13    2509.061 770.771-2604.041  0.00  0.00     0.665 C 
ATOM    151  NH1 ARG d  13    2508.696 769.807-2603.242  0.00  0.00    -0.235 N 
ATOM    152  NH2 ARG d  13    2510.320 771.069-2604.098  0.00  0.00    -0.235 N 
ATOM    153 11HH ARG d  13    2507.690 769.621-2603.245  0.00  0.00     0.174 HD
ATOM    154 12HH ARG d  13    2509.409 769.324-2602.693  0.00  0.00     0.174 HD
ATOM    155 21HH ARG d  13    2510.588 771.827-2604.730  0.00  0.00     0.174 HD
ATOM    156 22HH ARG d  13    2510.956 770.528-2603.509  0.00  0.00     0.174 HD
ATOM    157  HE  ARG d  13    2508.664 772.183-2605.367  0.00  0.00     0.177 HD
ENDBRANCH 148 149
ENDBRANCH 147 148
ENDBRANCH 146 147
ENDBRANCH 101 146
ENDBRANCH  99 101
ENDBRANCH  96  97
BRANCH  96 158
ATOM    158  CB  GLN d  12    2499.745 774.371-2605.928  0.00  0.00     0.044 C 
BRANCH 158 159
ATOM    159  CG  GLN d  12    2500.106 775.893-2605.898  0.00  0.00     0.105 C 
BRANCH 159 160
ATOM    160  CD  GLN d  12    2499.805 776.707-2604.634  0.00  0.00     0.215 C 
ATOM    161  NE2 GLN d  12    2499.238 776.132-2603.604  0.00  0.00    -0.370 N 
ATOM    162 21HE GLN d  12    2499.131 776.727-2602.781  0.00  0.00     0.159 HD
ATOM    163 22HE GLN d  12    2499.073 775.128-2603.707  0.00  0.00     0.159 HD
ATOM    164  OE1 GLN d  12    2500.107 777.888-2604.557  0.00  0.00    -0.274 OA
ENDBRANCH 159 160
ENDBRANCH 158 159
ENDBRANCH  96 158
ENDBRANCH  94  96
ENDBRANCH  91  92
BRANCH  91 165
ATOM    165  CB  VAL d  11    2497.896 769.858-2608.131  0.00  0.00     0.009 C 
ATOM    166  CG1 VAL d  11    2497.328 770.561-2609.394  0.00  0.00     0.012 C 
ATOM    167  CG2 VAL d  11    2497.371 768.404-2608.203  0.00  0.00     0.012 C 
ENDBRANCH  91 165
ENDBRANCH  89  91
ENDBRANCH   1  87
BRANCH   1 168
ATOM    168  CB  HIS d  10    2501.253 767.326-2604.885  0.00  0.00     0.095 C 
BRANCH 168 169
ATOM    169  CG  HIS d  10    2502.538 766.615-2604.577  0.00  0.00     0.053 A 
ATOM    170  CD2 HIS d  10    2502.919 766.280-2603.284  0.00  0.00     0.116 A 
ATOM    171  NE2 HIS d  10    2504.134 765.648-2603.351  0.00  0.00    -0.359 N 
ATOM    172  CE1 HIS d  10    2504.396 765.650-2604.686  0.00  0.00     0.207 A 
ATOM    173  2HE HIS d  10    2504.701 765.271-2602.578  0.00  0.00     0.166 HD
ATOM    174  ND1 HIS d  10    2503.490 766.208-2605.509  0.00  0.00    -0.247 NA
ENDBRANCH 168 169
ENDBRANCH   1 168
TORSDOF 69
