REMARK WARNING: 32 MAX_TORS EXCEEDED!!!
REMARK  69 active torsions:
REMARK  status: ('A' for Active; 'I' for Inactive)
REMARK    1  A    between atoms: N_1  and  CA_2 
REMARK    2  A    between atoms: CA_2  and  C_3 
REMARK    3  A    between atoms: CA_2  and  CB_5 
REMARK       I    between atoms: C_3  and  N_11 
REMARK    4  A    between atoms: CB_5  and  CG_6 
REMARK    5  A    between atoms: CG_6  and  CD_7 
REMARK    6  A    between atoms: N_11  and  CA_12 
REMARK    7  A    between atoms: CA_12  and  C_13 
REMARK    8  A    between atoms: CA_12  and  CB_15 
REMARK       I    between atoms: C_13  and  N_22 
REMARK    9  A    between atoms: CB_15  and  CG_16 
REMARK       I    between atoms: CG_16  and  ND2_17 
REMARK   10  A    between atoms: CA_23  and  C_24 
REMARK       I    between atoms: C_24  and  N_29 
REMARK   11  A    between atoms: N_29  and  CA_30 
REMARK   12  A    between atoms: CA_30  and  C_31 
REMARK   13  A    between atoms: CA_30  and  CB_33 
REMARK       I    between atoms: C_31  and  N_39 
REMARK   14  A    between atoms: CB_33  and  CG_34 
REMARK   15  A    between atoms: CG_34  and  CD_35 
REMARK   16  A    between atoms: N_39  and  CA_40 
REMARK   17  A    between atoms: CA_40  and  C_41 
REMARK   18  A    between atoms: CA_40  and  CB_43 
REMARK       I    between atoms: C_41  and  N_47 
REMARK   19  A    between atoms: CB_43  and  OG_44 
REMARK   20  A    between atoms: N_47  and  CA_48 
REMARK   21  A    between atoms: CA_48  and  C_49 
REMARK   22  A    between atoms: CA_48  and  CB_51 
REMARK       I    between atoms: C_49  and  N_56 
REMARK   23  A    between atoms: CB_51  and  CG1_52 
REMARK   24  A    between atoms: N_56  and  CA_57 
REMARK   25  A    between atoms: CA_57  and  C_58 
REMARK   26  A    between atoms: CA_57  and  CB_60 
REMARK       I    between atoms: C_58  and  N_65 
REMARK   27  A    between atoms: CB_60  and  CG_61 
REMARK   28  A    between atoms: N_65  and  CA_66 
REMARK   29  A    between atoms: CA_66  and  C_67 
REMARK   30  A    between atoms: CA_66  and  CB_69 
REMARK       I    between atoms: C_67  and  N_74 
REMARK   31  A    between atoms: CB_69  and  CG_70 
REMARK   32  A    between atoms: N_74  and  CA_75 
REMARK   33  A    between atoms: CA_75  and  C_76 
REMARK   34  A    between atoms: CA_75  and  CB_78 
REMARK       I    between atoms: C_76  and  N_84 
REMARK   35  A    between atoms: CB_78  and  CG_79 
REMARK   36  A    between atoms: CG_79  and  CD_80 
REMARK   37  A    between atoms: N_84  and  CA_85 
REMARK   38  A    between atoms: CA_85  and  C_86 
REMARK   39  A    between atoms: CA_85  and  CB_88 
REMARK       I    between atoms: C_86  and  N_96 
REMARK   40  A    between atoms: CB_88  and  CG_89 
REMARK   41  A    between atoms: N_96  and  CA_97 
REMARK   42  A    between atoms: CA_97  and  C_98 
REMARK   43  A    between atoms: CA_97  and  CB_100 
REMARK       I    between atoms: C_98  and  N_104 
REMARK   44  A    between atoms: N_104  and  CA_105 
REMARK   45  A    between atoms: CA_105  and  C_106 
REMARK   46  A    between atoms: CA_105  and  CB_108 
REMARK       I    between atoms: C_106  and  N_116 
REMARK   47  A    between atoms: CB_108  and  CG_109 
REMARK   48  A    between atoms: CG_109  and  CD_110 
REMARK       I    between atoms: CD_110  and  NE2_111 
REMARK   49  A    between atoms: N_116  and  CA_117 
REMARK   50  A    between atoms: CA_117  and  C_118 
REMARK   51  A    between atoms: CA_117  and  CB_120 
REMARK       I    between atoms: C_118  and  N_133 
REMARK   52  A    between atoms: CB_120  and  CG_121 
REMARK   53  A    between atoms: CG_121  and  CD_122 
REMARK   54  A    between atoms: CD_122  and  NE_123 
REMARK       I    between atoms: NE_123  and  CZ_124 
REMARK       I    between atoms: CZ_124  and  NH1_125 
REMARK       I    between atoms: CZ_124  and  NH2_126 
REMARK   55  A    between atoms: N_133  and  CA_134 
REMARK   56  A    between atoms: CA_134  and  C_135 
REMARK   57  A    between atoms: CA_134  and  CB_137 
REMARK       I    between atoms: C_135  and  N_144 
REMARK   58  A    between atoms: CB_137  and  CG_138 
REMARK       I    between atoms: CG_138  and  ND2_139 
REMARK   59  A    between atoms: N_144  and  CA_145 
REMARK   60  A    between atoms: CA_145  and  C_146 
REMARK   61  A    between atoms: CA_145  and  CB_148 
REMARK       I    between atoms: C_146  and  N_153 
REMARK   62  A    between atoms: CB_148  and  CG_149 
REMARK   63  A    between atoms: CG_149  and  SD_150 
REMARK   64  A    between atoms: N_153  and  CA_154 
REMARK   65  A    between atoms: CA_154  and  C_155 
REMARK   66  A    between atoms: CA_154  and  CB_157 
REMARK   67  A    between atoms: CB_157  and  CG_158 
REMARK   68  A    between atoms: CG_158  and  CD_159 
REMARK   69  A    between atoms: CD_159  and  NE_160 
REMARK       I    between atoms: NE_160  and  CZ_161 
REMARK       I    between atoms: CZ_161  and  NH1_162 
ROOT
ATOM      1  C   GLU d   9    2293.659 703.911-2381.236  0.00  0.00     0.241 C 
ATOM      2  O   GLU d   9    2294.323 704.664-2381.962  0.00  0.00    -0.271 OA
ATOM      3  N   HIS d  10    2293.755 702.635-2381.405  0.00  0.00    -0.346 N 
ATOM      4  H   HIS d  10    2293.225 702.000-2380.826  0.00  0.00     0.163 HD
ENDROOT
BRANCH   3   5
ATOM      5  CA  HIS d  10    2294.643 702.123-2382.445  0.00  0.00     0.182 C 
BRANCH   5   6
ATOM      6  C   HIS d  10    2294.276 702.687-2383.796  0.00  0.00     0.241 C 
ATOM      7  O   HIS d  10    2295.128 703.151-2384.569  0.00  0.00    -0.271 OA
ATOM      8  N   VAL d  11    2293.038 702.687-2384.159  0.00  0.00    -0.346 N 
ATOM      9  H   VAL d  11    2292.325 702.315-2383.548  0.00  0.00     0.163 HD
BRANCH   8  10
ATOM     10  CA  VAL d  11    2292.683 703.232-2385.466  0.00  0.00     0.180 C 
BRANCH  10  11
ATOM     11  C   VAL d  11    2293.148 704.662-2385.600  0.00  0.00     0.241 C 
ATOM     12  O   VAL d  11    2293.749 705.067-2386.603  0.00  0.00    -0.271 OA
ATOM     13  N   GLN d  12    2292.912 705.489-2384.637  0.00  0.00    -0.346 N 
ATOM     14  H   GLN d  12    2292.423 705.183-2383.808  0.00  0.00     0.163 HD
BRANCH  13  15
ATOM     15  CA  GLN d  12    2293.361 706.871-2384.765  0.00  0.00     0.177 C 
BRANCH  15  16
ATOM     16  C   GLN d  12    2294.851 706.938-2385.004  0.00  0.00     0.241 C 
ATOM     17  O   GLN d  12    2295.338 707.645-2385.883  0.00  0.00    -0.271 OA
ATOM     18  N   ARG d  13    2295.635 706.231-2384.262  0.00  0.00    -0.346 N 
ATOM     19  H   ARG d  13    2295.259 705.642-2383.533  0.00  0.00     0.163 HD
BRANCH  18  20
ATOM     20  CA  ARG d  13    2297.075 706.296-2384.494  0.00  0.00     0.176 C 
BRANCH  20  21
ATOM     21  C   ARG d  13    2297.411 705.924-2385.918  0.00  0.00     0.241 C 
ATOM     22  O   ARG d  13    2298.180 706.595-2386.603  0.00  0.00    -0.271 OA
ATOM     23  N   ASN d  14    2296.875 704.869-2386.432  0.00  0.00    -0.346 N 
ATOM     24  H   ASN d  14    2296.240 704.301-2385.890  0.00  0.00     0.163 HD
BRANCH  23  25
ATOM     25  CA  ASN d  14    2297.199 704.509-2387.810  0.00  0.00     0.185 C 
BRANCH  25  26
ATOM     26  C   ASN d  14    2296.869 705.640-2388.755  0.00  0.00     0.241 C 
ATOM     27  O   ASN d  14    2297.658 706.019-2389.620  0.00  0.00    -0.271 OA
ATOM     28  N   MET d  15    2295.725 706.226-2388.654  0.00  0.00    -0.346 N 
ATOM     29  H   MET d  15    2295.060 705.934-2387.952  0.00  0.00     0.163 HD
BRANCH  28  30
ATOM     30  CA  MET d  15    2295.405 707.319-2389.567  0.00  0.00     0.177 C 
BRANCH  30  31
ATOM     31  C   MET d  15    2296.435 708.419-2389.479  0.00  0.00     0.241 C 
ATOM     32  O   MET d  15    2296.938 708.929-2390.492  0.00  0.00    -0.271 OA
ATOM     33  N   ARG d  16    2296.804 708.840-2388.317  0.00  0.00    -0.347 N 
ATOM     34  H   ARG d  16    2296.409 708.440-2387.478  0.00  0.00     0.163 HD
BRANCH  33  35
ATOM     35  CA  ARG d  16    2297.801 709.903-2388.234  0.00  0.00     0.162 C 
BRANCH  35  36
ATOM     36  C   ARG d  16    2299.071 709.510-2388.950  0.00  0.00     0.219 C 
ATOM     37  O   ARG d  16    2299.185 708.433-2389.531  0.00  0.00    -0.287 OA
ENDBRANCH  35  36
BRANCH  35  38
ATOM     38  CB  ARG d  16    2298.070 710.221-2386.735  0.00  0.00     0.035 C 
BRANCH  38  39
ATOM     39  CG  ARG d  16    2298.896 711.510-2386.463  0.00  0.00     0.023 C 
BRANCH  39  40
ATOM     40  CD  ARG d  16    2299.146 711.730-2384.962  0.00  0.00     0.138 C 
BRANCH  40  41
ATOM     41  NE  ARG d  16    2299.922 712.989-2384.761  0.00  0.00    -0.227 N 
ATOM     42  CZ  ARG d  16    2300.314 713.471-2383.586  0.00  0.00     0.665 C 
ATOM     43  NH1 ARG d  16    2300.066 712.887-2382.447  0.00  0.00    -0.235 N 
ATOM     44  NH2 ARG d  16    2300.978 714.584-2383.568  0.00  0.00    -0.235 N 
ATOM     45 11HH ARG d  16    2299.540 712.014-2382.531  0.00  0.00     0.174 HD
ATOM     46 12HH ARG d  16    2300.401 713.323-2381.586  0.00  0.00     0.174 HD
ATOM     47 21HH ARG d  16    2301.163 715.027-2384.469  0.00  0.00     0.174 HD
ATOM     48 22HH ARG d  16    2301.268 714.939-2382.655  0.00  0.00     0.174 HD
ATOM     49  HE  ARG d  16    2300.201 713.569-2385.559  0.00  0.00     0.177 HD
ENDBRANCH  40  41
ENDBRANCH  39  40
ENDBRANCH  38  39
ENDBRANCH  35  38
ENDBRANCH  33  35
ENDBRANCH  30  31
BRANCH  30  50
ATOM     50  CB  MET d  15    2293.983 707.865-2389.258  0.00  0.00     0.045 C 
BRANCH  50  51
ATOM     51  CG  MET d  15    2292.821 706.867-2389.449  0.00  0.00     0.076 C 
BRANCH  51  52
ATOM     52  SD  MET d  15    2291.247 707.734-2389.335  0.00  0.00    -0.173 SA
ATOM     53  CE  MET d  15    2290.166 706.304-2389.199  0.00  0.00     0.089 C 
ENDBRANCH  51  52
ENDBRANCH  50  51
ENDBRANCH  30  50
ENDBRANCH  28  30
ENDBRANCH  25  26
BRANCH  25  54
ATOM     54  CB  ASN d  14    2296.427 703.218-2388.204  0.00  0.00     0.137 C 
BRANCH  54  55
ATOM     55  CG  ASN d  14    2296.653 701.980-2387.330  0.00  0.00     0.217 C 
ATOM     56  ND2 ASN d  14    2297.746 701.283-2387.495  0.00  0.00    -0.370 N 
ATOM     57 21HD ASN d  14    2297.871 700.575-2386.766  0.00  0.00     0.159 HD
ATOM     58 22HD ASN d  14    2298.431 701.648-2388.156  0.00  0.00     0.159 HD
ATOM     59  OD1 ASN d  14    2295.856 701.635-2386.470  0.00  0.00    -0.274 OA
ENDBRANCH  54  55
ENDBRANCH  25  54
ENDBRANCH  23  25
ENDBRANCH  20  21
BRANCH  20  60
ATOM     60  CB  ARG d  13    2297.789 705.358-2383.479  0.00  0.00     0.036 C 
BRANCH  60  61
ATOM     61  CG  ARG d  13    2299.334 705.511-2383.399  0.00  0.00     0.023 C 
BRANCH  61  62
ATOM     62  CD  ARG d  13    2299.961 704.523-2382.401  0.00  0.00     0.138 C 
BRANCH  62  63
ATOM     63  NE  ARG d  13    2301.438 704.730-2382.351  0.00  0.00    -0.227 N 
ATOM     64  CZ  ARG d  13    2302.286 704.039-2381.595  0.00  0.00     0.665 C 
ATOM     65  NH1 ARG d  13    2301.921 703.075-2380.797  0.00  0.00    -0.235 N 
ATOM     66  NH2 ARG d  13    2303.546 704.338-2381.653  0.00  0.00    -0.235 N 
ATOM     67 11HH ARG d  13    2300.916 702.889-2380.800  0.00  0.00     0.174 HD
ATOM     68 12HH ARG d  13    2302.634 702.592-2380.248  0.00  0.00     0.174 HD
ATOM     69 21HH ARG d  13    2303.813 705.095-2382.284  0.00  0.00     0.174 HD
ATOM     70 22HH ARG d  13    2304.181 703.796-2381.064  0.00  0.00     0.174 HD
ATOM     71  HE  ARG d  13    2301.889 705.452-2382.922  0.00  0.00     0.177 HD
ENDBRANCH  62  63
ENDBRANCH  61  62
ENDBRANCH  60  61
ENDBRANCH  20  60
ENDBRANCH  18  20
ENDBRANCH  15  16
BRANCH  15  72
ATOM     72  CB  GLN d  12    2292.970 707.640-2383.483  0.00  0.00     0.044 C 
BRANCH  72  73
ATOM     73  CG  GLN d  12    2293.332 709.161-2383.453  0.00  0.00     0.105 C 
BRANCH  73  74
ATOM     74  CD  GLN d  12    2293.030 709.976-2382.188  0.00  0.00     0.215 C 
ATOM     75  NE2 GLN d  12    2292.463 709.400-2381.159  0.00  0.00    -0.370 N 
ATOM     76 21HE GLN d  12    2292.357 709.995-2380.336  0.00  0.00     0.159 HD
ATOM     77 22HE GLN d  12    2292.299 708.397-2381.262  0.00  0.00     0.159 HD
ATOM     78  OE1 GLN d  12    2293.333 711.157-2382.112  0.00  0.00    -0.274 OA
ENDBRANCH  73  74
ENDBRANCH  72  73
ENDBRANCH  15  72
ENDBRANCH  13  15
ENDBRANCH  10  11
BRANCH  10  79
ATOM     79  CB  VAL d  11    2291.121 703.126-2385.685  0.00  0.00     0.009 C 
ATOM     80  CG1 VAL d  11    2290.553 703.830-2386.948  0.00  0.00     0.012 C 
ATOM     81  CG2 VAL d  11    2290.596 701.672-2385.757  0.00  0.00     0.012 C 
ENDBRANCH  10  79
ENDBRANCH   8  10
ENDBRANCH   5   6
BRANCH   5  82
ATOM     82  CB  HIS d  10    2294.478 700.594-2382.439  0.00  0.00     0.095 C 
BRANCH  82  83
ATOM     83  CG  HIS d  10    2295.763 699.883-2382.131  0.00  0.00     0.053 A 
ATOM     84  CD2 HIS d  10    2296.145 699.549-2380.839  0.00  0.00     0.116 A 
ATOM     85  NE2 HIS d  10    2297.359 698.916-2380.906  0.00  0.00    -0.359 N 
ATOM     86  CE1 HIS d  10    2297.621 698.919-2382.241  0.00  0.00     0.207 A 
ATOM     87  2HE HIS d  10    2297.926 698.539-2380.132  0.00  0.00     0.166 HD
ATOM     88  ND1 HIS d  10    2296.715 699.477-2383.064  0.00  0.00    -0.247 NA
ENDBRANCH  82  83
ENDBRANCH   5  82
ENDBRANCH   3   5
BRANCH   1  89
ATOM     89  CA  GLU d   9    2292.742 704.439-2380.160  0.00  0.00     0.177 C 
BRANCH  89  90
ATOM     90  N   GLU d   9    2291.439 703.782-2380.215  0.00  0.00    -0.346 N 
ATOM     91  C   ASP d   8    2290.759 703.832-2381.310  0.00  0.00     0.241 C 
ATOM     92  O   ASP d   8    2291.232 704.436-2382.285  0.00  0.00    -0.271 OA
ATOM     93  H   GLU d   9    2291.075 703.297-2379.407  0.00  0.00     0.163 HD
BRANCH  91  94
ATOM     94  CA  ASP d   8    2289.412 703.153-2381.366  0.00  0.00     0.186 C 
BRANCH  94  95
ATOM     95  N   ASP d   8    2289.481 701.804-2380.812  0.00  0.00    -0.346 N 
ATOM     96  C   LEU d   7    2290.318 700.962-2381.318  0.00  0.00     0.241 C 
ATOM     97  O   LEU d   7    2291.039 701.324-2382.261  0.00  0.00    -0.271 OA
ATOM     98  H   ASP d   8    2288.884 701.533-2380.045  0.00  0.00     0.163 HD
BRANCH  96  99
ATOM     99  CA  LEU d   7    2290.390 699.567-2380.745  0.00  0.00     0.177 C 
BRANCH  99 100
ATOM    100  N   LEU d   7    2290.445 699.603-2379.287  0.00  0.00    -0.346 N 
ATOM    101  C   ILE d   6    2291.391 700.266-2378.713  0.00  0.00     0.241 C 
ATOM    102  O   ILE d   6    2292.226 700.854-2379.417  0.00  0.00    -0.271 OA
ATOM    103  H   LEU d   7    2289.753 699.116-2378.736  0.00  0.00     0.163 HD
BRANCH 101 104
ATOM    104  CA  ILE d   6    2291.448 700.304-2377.206  0.00  0.00     0.180 C 
BRANCH 104 105
ATOM    105  N   ILE d   6    2290.135 700.599-2376.640  0.00  0.00    -0.346 N 
ATOM    106  C   SER d   5    2289.531 701.683-2376.994  0.00  0.00     0.243 C 
ATOM    107  O   SER d   5    2290.079 702.436-2377.799  0.00  0.00    -0.271 OA
ATOM    108  H   ILE d   6    2289.706 699.965-2375.981  0.00  0.00     0.163 HD
BRANCH 106 109
ATOM    109  CA  SER d   5    2288.172 701.989-2376.409  0.00  0.00     0.200 C 
BRANCH 109 110
ATOM    110  N   SER d   5    2287.302 700.818-2376.468  0.00  0.00    -0.344 N 
ATOM    111  C   GLU d   4    2287.075 700.265-2377.611  0.00  0.00     0.241 C 
ATOM    112  O   GLU d   4    2287.602 700.745-2378.625  0.00  0.00    -0.271 OA
ATOM    113  H   SER d   5    2286.885 700.446-2375.626  0.00  0.00     0.163 HD
BRANCH 111 114
ATOM    114  CA  GLU d   4    2286.176 699.054-2377.672  0.00  0.00     0.177 C 
BRANCH 114 115
ATOM    115  N   GLU d   4    2286.535 698.083-2376.643  0.00  0.00    -0.346 N 
ATOM    116  C   PRO d   3    2287.740 697.623-2376.610  0.00  0.00     0.241 C 
ATOM    117  O   PRO d   3    2288.563 698.006-2377.441  0.00  0.00    -0.271 OA
ATOM    118  H   GLU d   4    2285.851 697.777-2375.966  0.00  0.00     0.163 HD
BRANCH 116 119
ATOM    119  CA  PRO d   3    2288.138 696.599-2375.533  0.00  0.00     0.179 C 
ATOM    120  N   PRO d   3    2287.686 697.009-2374.211  0.00  0.00    -0.337 N 
ATOM    121  C   ASN d   2    2288.207 698.004-2373.577  0.00  0.00     0.243 C 
ATOM    122  CD  PRO d   3    2286.607 696.216-2373.663  0.00  0.00     0.127 C 
ATOM    123  O   ASN d   2    2289.122 698.634-2374.105  0.00  0.00    -0.271 OA
ATOM    124  CG  PRO d   3    2286.150 695.397-2374.873  0.00  0.00     0.022 C 
ATOM    125  CB  PRO d   3    2287.433 695.245-2375.702  0.00  0.00     0.037 C 
BRANCH 121 126
ATOM    126  CA  ASN d   2    2287.676 698.359-2372.208  0.00  0.00     0.185 C 
BRANCH 126 127
ATOM    127  N   ASN d   2    2286.216 698.398-2372.209  0.00  0.00    -0.346 N 
ATOM    128  C   GLU d   1    2285.612 699.184-2373.034  0.00  0.00     0.242 C 
ATOM    129  O   GLU d   1    2286.288 699.883-2373.802  0.00  0.00    -0.271 OA
ATOM    130  H   ASN d   2    2285.688 697.819-2371.572  0.00  0.00     0.163 HD
BRANCH 128 131
ATOM    131  CA  GLU d   1    2284.103 699.224-2373.034  0.00  0.00     0.191 C 
BRANCH 131 132
ATOM    132  N   GLU d   1    2283.544 697.875-2373.034  0.00  0.00    -0.326 NA
ATOM    133  H   GLU d   1    2284.171 696.996-2373.034  0.00  0.00     0.180 HD
ENDBRANCH 131 132
BRANCH 131 134
ATOM    134  CB  GLU d   1    2283.580 700.009-2371.797  0.00  0.00     0.047 C 
BRANCH 134 135
ATOM    135  CG  GLU d   1    2284.055 701.494-2371.686  0.00  0.00     0.116 C 
BRANCH 135 136
ATOM    136  CD  GLU d   1    2283.631 702.298-2370.471  0.00  0.00     0.172 C 
ATOM    137  OE1 GLU d   1    2282.903 701.796-2369.593  0.00  0.00    -0.648 OA
ATOM    138  OE2 GLU d   1    2284.061 703.468-2370.399  0.00  0.00    -0.648 OA
ENDBRANCH 135 136
ENDBRANCH 134 135
ENDBRANCH 131 134
ENDBRANCH 128 131
ENDBRANCH 126 127
BRANCH 126 139
ATOM    139  CB  ASN d   2    2288.167 697.336-2371.144  0.00  0.00     0.137 C 
BRANCH 139 140
ATOM    140  CG  ASN d   2    2287.704 697.560-2369.701  0.00  0.00     0.217 C 
ATOM    141  ND2 ASN d   2    2288.298 698.475-2368.982  0.00  0.00    -0.370 N 
ATOM    142 21HD ASN d   2    2287.817 698.648-2368.096  0.00  0.00     0.159 HD
ATOM    143 22HD ASN d   2    2289.000 699.047-2369.451  0.00  0.00     0.159 HD
ATOM    144  OD1 ASN d   2    2286.783 696.927-2369.207  0.00  0.00    -0.274 OA
ENDBRANCH 139 140
ENDBRANCH 126 139
ENDBRANCH 121 126
ENDBRANCH 116 119
ENDBRANCH 114 115
BRANCH 114 145
ATOM    145  CB  GLU d   4    2284.688 699.474-2377.503  0.00  0.00     0.045 C 
BRANCH 145 146
ATOM    146  CG  GLU d   4    2284.140 700.477-2378.568  0.00  0.00     0.116 C 
BRANCH 146 147
ATOM    147  CD  GLU d   4    2282.714 700.974-2378.425  0.00  0.00     0.172 C 
ATOM    148  OE1 GLU d   4    2281.987 700.576-2377.495  0.00  0.00    -0.648 OA
ATOM    149  OE2 GLU d   4    2282.325 701.803-2379.274  0.00  0.00    -0.648 OA
ENDBRANCH 146 147
ENDBRANCH 145 146
ENDBRANCH 114 145
ENDBRANCH 111 114
ENDBRANCH 109 110
BRANCH 109 150
ATOM    150  CB  SER d   5    2288.283 702.521-2374.958  0.00  0.00     0.199 C 
BRANCH 150 151
ATOM    151  OG  SER d   5    2289.014 701.641-2374.097  0.00  0.00    -0.398 OA
ATOM    152  HG  SER d   5    2288.525 700.817-2374.046  0.00  0.00     0.209 HD
ENDBRANCH 150 151
ENDBRANCH 109 150
ENDBRANCH 106 109
ENDBRANCH 104 105
BRANCH 104 153
ATOM    153  CB  ILE d   6    2292.048 698.968-2376.605  0.00  0.00     0.013 C 
ATOM    154  CG2 ILE d   6    2293.489 698.665-2377.120  0.00  0.00     0.012 C 
BRANCH 153 155
ATOM    155  CG1 ILE d   6    2292.066 698.905-2375.044  0.00  0.00     0.002 C 
ATOM    156  CD1 ILE d   6    2292.336 697.516-2374.429  0.00  0.00     0.005 C 
ENDBRANCH 153 155
ENDBRANCH 104 153
ENDBRANCH 101 104
ENDBRANCH  99 100
BRANCH  99 157
ATOM    157  CB  LEU d   7    2289.187 698.707-2381.226  0.00  0.00     0.038 C 
BRANCH 157 158
ATOM    158  CG  LEU d   7    2289.114 697.228-2380.759  0.00  0.00    -0.020 C 
ATOM    159  CD1 LEU d   7    2287.924 696.522-2381.425  0.00  0.00     0.009 C 
ATOM    160  CD2 LEU d   7    2290.407 696.448-2381.051  0.00  0.00     0.009 C 
ENDBRANCH 157 158
ENDBRANCH  99 157
ENDBRANCH  96  99
ENDBRANCH  94  95
BRANCH  94 161
ATOM    161  CB  ASP d   8    2288.334 703.993-2380.625  0.00  0.00     0.147 C 
BRANCH 161 162
ATOM    162  CG  ASP d   8    2288.116 705.413-2381.167  0.00  0.00     0.175 C 
ATOM    163  OD1 ASP d   8    2288.180 705.612-2382.398  0.00  0.00    -0.648 OA
ATOM    164  OD2 ASP d   8    2287.925 706.340-2380.352  0.00  0.00    -0.648 OA
ENDBRANCH 161 162
ENDBRANCH  94 161
ENDBRANCH  91  94
ENDBRANCH  89  90
BRANCH  89 165
ATOM    165  CB  GLU d   9    2293.375 704.232-2378.755  0.00  0.00     0.045 C 
BRANCH 165 166
ATOM    166  CG  GLU d   9    2294.759 704.924-2378.526  0.00  0.00     0.116 C 
BRANCH 166 167
ATOM    167  CD  GLU d   9    2295.460 704.711-2377.198  0.00  0.00     0.172 C 
ATOM    168  OE1 GLU d   9    2294.939 704.021-2376.301  0.00  0.00    -0.648 OA
ATOM    169  OE2 GLU d   9    2296.580 705.248-2377.066  0.00  0.00    -0.648 OA
ENDBRANCH 166 167
ENDBRANCH 165 166
ENDBRANCH  89 165
ENDBRANCH   1  89
TORSDOF 69
