REMARK WARNING: 32 MAX_TORS EXCEEDED!!!
REMARK  70 active torsions:
REMARK  status: ('A' for Active; 'I' for Inactive)
REMARK    1  A    between atoms: N_1  and  CA_2 
REMARK    2  A    between atoms: CA_2  and  C_3 
REMARK    3  A    between atoms: CA_2  and  CB_5 
REMARK       I    between atoms: C_3  and  N_11 
REMARK    4  A    between atoms: CB_5  and  CG_6 
REMARK    5  A    between atoms: CG_6  and  CD_7 
REMARK    6  A    between atoms: N_11  and  CA_12 
REMARK    7  A    between atoms: CA_12  and  C_13 
REMARK    8  A    between atoms: CA_12  and  CB_15 
REMARK       I    between atoms: C_13  and  N_22 
REMARK    9  A    between atoms: CB_15  and  CG_16 
REMARK       I    between atoms: CG_16  and  ND2_17 
REMARK   10  A    between atoms: CA_23  and  C_24 
REMARK       I    between atoms: C_24  and  N_29 
REMARK   11  A    between atoms: N_29  and  CA_30 
REMARK   12  A    between atoms: CA_30  and  C_31 
REMARK   13  A    between atoms: CA_30  and  CB_33 
REMARK       I    between atoms: C_31  and  N_39 
REMARK   14  A    between atoms: CB_33  and  CG_34 
REMARK   15  A    between atoms: CG_34  and  CD_35 
REMARK   16  A    between atoms: N_39  and  CA_40 
REMARK   17  A    between atoms: CA_40  and  C_41 
REMARK   18  A    between atoms: CA_40  and  CB_43 
REMARK       I    between atoms: C_41  and  N_47 
REMARK   19  A    between atoms: CB_43  and  OG_44 
REMARK   20  A    between atoms: N_47  and  CA_48 
REMARK   21  A    between atoms: CA_48  and  C_49 
REMARK   22  A    between atoms: CA_48  and  CB_51 
REMARK       I    between atoms: C_49  and  N_56 
REMARK   23  A    between atoms: CB_51  and  CG1_52 
REMARK   24  A    between atoms: N_56  and  CA_57 
REMARK   25  A    between atoms: CA_57  and  C_58 
REMARK   26  A    between atoms: CA_57  and  CB_60 
REMARK       I    between atoms: C_58  and  N_65 
REMARK   27  A    between atoms: CB_60  and  CG_61 
REMARK   28  A    between atoms: N_65  and  CA_66 
REMARK   29  A    between atoms: CA_66  and  C_67 
REMARK   30  A    between atoms: CA_66  and  CB_69 
REMARK       I    between atoms: C_67  and  N_74 
REMARK   31  A    between atoms: CB_69  and  CG_70 
REMARK   32  A    between atoms: N_74  and  CA_75 
REMARK   33  A    between atoms: CA_75  and  C_76 
REMARK   34  A    between atoms: CA_75  and  CB_78 
REMARK       I    between atoms: C_76  and  N_84 
REMARK   35  A    between atoms: CB_78  and  CG_79 
REMARK   36  A    between atoms: CG_79  and  CD_80 
REMARK   37  A    between atoms: N_84  and  CA_85 
REMARK   38  A    between atoms: CA_85  and  C_86 
REMARK   39  A    between atoms: CA_85  and  CB_88 
REMARK       I    between atoms: C_86  and  N_96 
REMARK   40  A    between atoms: CB_88  and  CG_89 
REMARK   41  A    between atoms: N_96  and  CA_97 
REMARK   42  A    between atoms: CA_97  and  C_98 
REMARK   43  A    between atoms: CA_97  and  CB_100 
REMARK       I    between atoms: C_98  and  N_104 
REMARK   44  A    between atoms: N_104  and  CA_105 
REMARK   45  A    between atoms: CA_105  and  C_106 
REMARK   46  A    between atoms: CA_105  and  CB_108 
REMARK       I    between atoms: C_106  and  N_116 
REMARK   47  A    between atoms: CB_108  and  CG_109 
REMARK   48  A    between atoms: CG_109  and  CD_110 
REMARK       I    between atoms: CD_110  and  NE2_111 
REMARK   49  A    between atoms: N_116  and  CA_117 
REMARK   50  A    between atoms: CA_117  and  C_118 
REMARK   51  A    between atoms: CA_117  and  CB_120 
REMARK       I    between atoms: C_118  and  N_133 
REMARK   52  A    between atoms: CB_120  and  CG_121 
REMARK   53  A    between atoms: CG_121  and  CD_122 
REMARK   54  A    between atoms: CD_122  and  NE_123 
REMARK       I    between atoms: NE_123  and  CZ_124 
REMARK       I    between atoms: CZ_124  and  NH1_125 
REMARK       I    between atoms: CZ_124  and  NH2_126 
REMARK   55  A    between atoms: N_133  and  CA_134 
REMARK   56  A    between atoms: CA_134  and  C_135 
REMARK   57  A    between atoms: CA_134  and  CB_137 
REMARK       I    between atoms: C_135  and  N_147 
REMARK   58  A    between atoms: CB_137  and  CG_138 
REMARK   59  A    between atoms: CZ_143  and  OH_144 
REMARK   60  A    between atoms: N_147  and  CA_148 
REMARK   61  A    between atoms: CA_148  and  C_149 
REMARK   62  A    between atoms: CA_148  and  CB_151 
REMARK       I    between atoms: C_149  and  N_156 
REMARK   63  A    between atoms: CB_151  and  CG_152 
REMARK   64  A    between atoms: CG_152  and  SD_153 
REMARK   65  A    between atoms: N_156  and  CA_157 
REMARK   66  A    between atoms: CA_157  and  C_158 
REMARK   67  A    between atoms: CA_157  and  CB_160 
REMARK   68  A    between atoms: CB_160  and  CG_161 
REMARK   69  A    between atoms: CG_161  and  CD_162 
REMARK   70  A    between atoms: CD_162  and  NE_163 
REMARK       I    between atoms: NE_163  and  CZ_164 
REMARK       I    between atoms: CZ_164  and  NH1_165 
ROOT
ATOM      1  CA  HIS d  10    2244.984 686.293-2329.147  0.00  0.00     0.182 C 
ENDROOT
BRANCH   1   2
ATOM      2  N   HIS d  10    2244.097 686.805-2328.107  0.00  0.00    -0.346 N 
ATOM      3  C   GLU d   9    2244.001 688.081-2327.938  0.00  0.00     0.241 C 
ATOM      4  O   GLU d   9    2244.665 688.834-2328.664  0.00  0.00    -0.271 OA
ATOM      5  H   HIS d  10    2243.566 686.170-2327.528  0.00  0.00     0.163 HD
BRANCH   3   6
ATOM      6  CA  GLU d   9    2243.084 688.609-2326.862  0.00  0.00     0.177 C 
BRANCH   6   7
ATOM      7  N   GLU d   9    2241.781 687.952-2326.917  0.00  0.00    -0.346 N 
ATOM      8  C   ASP d   8    2241.101 688.002-2328.012  0.00  0.00     0.241 C 
ATOM      9  O   ASP d   8    2241.573 688.606-2328.987  0.00  0.00    -0.271 OA
ATOM     10  H   GLU d   9    2241.417 687.466-2326.110  0.00  0.00     0.163 HD
BRANCH   8  11
ATOM     11  CA  ASP d   8    2239.753 687.323-2328.069  0.00  0.00     0.186 C 
BRANCH  11  12
ATOM     12  N   ASP d   8    2239.823 685.974-2327.515  0.00  0.00    -0.346 N 
ATOM     13  C   LEU d   7    2240.660 685.132-2328.021  0.00  0.00     0.241 C 
ATOM     14  O   LEU d   7    2241.381 685.494-2328.963  0.00  0.00    -0.271 OA
ATOM     15  H   ASP d   8    2239.225 685.703-2326.747  0.00  0.00     0.163 HD
BRANCH  13  16
ATOM     16  CA  LEU d   7    2240.732 683.737-2327.448  0.00  0.00     0.177 C 
BRANCH  16  17
ATOM     17  N   LEU d   7    2240.787 683.773-2325.989  0.00  0.00    -0.346 N 
ATOM     18  C   ILE d   6    2241.733 684.436-2325.416  0.00  0.00     0.241 C 
ATOM     19  O   ILE d   6    2242.568 685.024-2326.120  0.00  0.00    -0.271 OA
ATOM     20  H   LEU d   7    2240.095 683.286-2325.438  0.00  0.00     0.163 HD
BRANCH  18  21
ATOM     21  CA  ILE d   6    2241.790 684.474-2323.908  0.00  0.00     0.180 C 
BRANCH  21  22
ATOM     22  N   ILE d   6    2240.477 684.769-2323.342  0.00  0.00    -0.346 N 
ATOM     23  C   SER d   5    2239.873 685.853-2323.696  0.00  0.00     0.243 C 
ATOM     24  O   SER d   5    2240.421 686.606-2324.501  0.00  0.00    -0.271 OA
ATOM     25  H   ILE d   6    2240.048 684.135-2322.683  0.00  0.00     0.163 HD
BRANCH  23  26
ATOM     26  CA  SER d   5    2238.514 686.159-2323.111  0.00  0.00     0.200 C 
BRANCH  26  27
ATOM     27  N   SER d   5    2237.644 684.988-2323.170  0.00  0.00    -0.344 N 
ATOM     28  C   GLU d   4    2237.417 684.435-2324.313  0.00  0.00     0.241 C 
ATOM     29  O   GLU d   4    2237.944 684.914-2325.327  0.00  0.00    -0.271 OA
ATOM     30  H   SER d   5    2237.227 684.616-2322.329  0.00  0.00     0.163 HD
BRANCH  28  31
ATOM     31  CA  GLU d   4    2236.518 683.224-2324.375  0.00  0.00     0.177 C 
BRANCH  31  32
ATOM     32  N   GLU d   4    2236.877 682.253-2323.345  0.00  0.00    -0.346 N 
ATOM     33  C   PRO d   3    2238.082 681.793-2323.312  0.00  0.00     0.241 C 
ATOM     34  O   PRO d   3    2238.905 682.176-2324.144  0.00  0.00    -0.271 OA
ATOM     35  H   GLU d   4    2236.192 681.947-2322.668  0.00  0.00     0.163 HD
BRANCH  33  36
ATOM     36  CA  PRO d   3    2238.479 680.769-2322.235  0.00  0.00     0.179 C 
ATOM     37  N   PRO d   3    2238.027 681.179-2320.914  0.00  0.00    -0.337 N 
ATOM     38  C   ASN d   2    2238.549 682.174-2320.280  0.00  0.00     0.243 C 
ATOM     39  CD  PRO d   3    2236.949 680.386-2320.365  0.00  0.00     0.127 C 
ATOM     40  O   ASN d   2    2239.464 682.804-2320.808  0.00  0.00    -0.271 OA
ATOM     41  CG  PRO d   3    2236.491 679.567-2321.575  0.00  0.00     0.022 C 
ATOM     42  CB  PRO d   3    2237.775 679.415-2322.405  0.00  0.00     0.037 C 
BRANCH  38  43
ATOM     43  CA  ASN d   2    2238.017 682.529-2318.911  0.00  0.00     0.185 C 
BRANCH  43  44
ATOM     44  N   ASN d   2    2236.558 682.568-2318.911  0.00  0.00    -0.346 N 
ATOM     45  C   GLU d   1    2235.954 683.354-2319.736  0.00  0.00     0.242 C 
ATOM     46  O   GLU d   1    2236.629 684.053-2320.505  0.00  0.00    -0.271 OA
ATOM     47  H   ASN d   2    2236.030 681.989-2318.275  0.00  0.00     0.163 HD
BRANCH  45  48
ATOM     48  CA  GLU d   1    2234.445 683.394-2319.736  0.00  0.00     0.191 C 
BRANCH  48  49
ATOM     49  N   GLU d   1    2233.885 682.045-2319.736  0.00  0.00    -0.326 NA
ATOM     50  H   GLU d   1    2234.512 681.166-2319.736  0.00  0.00     0.180 HD
ENDBRANCH  48  49
BRANCH  48  51
ATOM     51  CB  GLU d   1    2233.921 684.179-2318.500  0.00  0.00     0.047 C 
BRANCH  51  52
ATOM     52  CG  GLU d   1    2234.396 685.664-2318.388  0.00  0.00     0.116 C 
BRANCH  52  53
ATOM     53  CD  GLU d   1    2233.972 686.468-2317.173  0.00  0.00     0.172 C 
ATOM     54  OE1 GLU d   1    2233.244 685.966-2316.295  0.00  0.00    -0.648 OA
ATOM     55  OE2 GLU d   1    2234.403 687.638-2317.101  0.00  0.00    -0.648 OA
ENDBRANCH  52  53
ENDBRANCH  51  52
ENDBRANCH  48  51
ENDBRANCH  45  48
ENDBRANCH  43  44
BRANCH  43  56
ATOM     56  CB  ASN d   2    2238.509 681.506-2317.846  0.00  0.00     0.137 C 
BRANCH  56  57
ATOM     57  CG  ASN d   2    2238.046 681.730-2316.403  0.00  0.00     0.217 C 
ATOM     58  ND2 ASN d   2    2238.640 682.645-2315.685  0.00  0.00    -0.370 N 
ATOM     59 21HD ASN d   2    2238.159 682.818-2314.798  0.00  0.00     0.159 HD
ATOM     60 22HD ASN d   2    2239.342 683.216-2316.154  0.00  0.00     0.159 HD
ATOM     61  OD1 ASN d   2    2237.125 681.097-2315.909  0.00  0.00    -0.274 OA
ENDBRANCH  56  57
ENDBRANCH  43  56
ENDBRANCH  38  43
ENDBRANCH  33  36
ENDBRANCH  31  32
BRANCH  31  62
ATOM     62  CB  GLU d   4    2235.029 683.643-2324.205  0.00  0.00     0.045 C 
BRANCH  62  63
ATOM     63  CG  GLU d   4    2234.482 684.647-2325.271  0.00  0.00     0.116 C 
BRANCH  63  64
ATOM     64  CD  GLU d   4    2233.055 685.144-2325.128  0.00  0.00     0.172 C 
ATOM     65  OE1 GLU d   4    2232.329 684.746-2324.197  0.00  0.00    -0.648 OA
ATOM     66  OE2 GLU d   4    2232.667 685.973-2325.976  0.00  0.00    -0.648 OA
ENDBRANCH  63  64
ENDBRANCH  62  63
ENDBRANCH  31  62
ENDBRANCH  28  31
ENDBRANCH  26  27
BRANCH  26  67
ATOM     67  CB  SER d   5    2238.625 686.691-2321.661  0.00  0.00     0.199 C 
BRANCH  67  68
ATOM     68  OG  SER d   5    2239.356 685.811-2320.800  0.00  0.00    -0.398 OA
ATOM     69  HG  SER d   5    2238.867 684.987-2320.749  0.00  0.00     0.209 HD
ENDBRANCH  67  68
ENDBRANCH  26  67
ENDBRANCH  23  26
ENDBRANCH  21  22
BRANCH  21  70
ATOM     70  CB  ILE d   6    2242.389 683.138-2323.308  0.00  0.00     0.013 C 
ATOM     71  CG2 ILE d   6    2243.831 682.835-2323.823  0.00  0.00     0.012 C 
BRANCH  70  72
ATOM     72  CG1 ILE d   6    2242.408 683.075-2321.747  0.00  0.00     0.002 C 
ATOM     73  CD1 ILE d   6    2242.678 681.686-2321.132  0.00  0.00     0.005 C 
ENDBRANCH  70  72
ENDBRANCH  21  70
ENDBRANCH  18  21
ENDBRANCH  16  17
BRANCH  16  74
ATOM     74  CB  LEU d   7    2239.529 682.877-2327.928  0.00  0.00     0.038 C 
BRANCH  74  75
ATOM     75  CG  LEU d   7    2239.456 681.398-2327.462  0.00  0.00    -0.020 C 
ATOM     76  CD1 LEU d   7    2238.266 680.692-2328.127  0.00  0.00     0.009 C 
ATOM     77  CD2 LEU d   7    2240.749 680.618-2327.753  0.00  0.00     0.009 C 
ENDBRANCH  74  75
ENDBRANCH  16  74
ENDBRANCH  13  16
ENDBRANCH  11  12
BRANCH  11  78
ATOM     78  CB  ASP d   8    2238.676 688.163-2327.328  0.00  0.00     0.147 C 
BRANCH  78  79
ATOM     79  CG  ASP d   8    2238.458 689.583-2327.869  0.00  0.00     0.175 C 
ATOM     80  OD1 ASP d   8    2238.522 689.781-2329.100  0.00  0.00    -0.648 OA
ATOM     81  OD2 ASP d   8    2238.266 690.510-2327.054  0.00  0.00    -0.648 OA
ENDBRANCH  78  79
ENDBRANCH  11  78
ENDBRANCH   8  11
ENDBRANCH   6   7
BRANCH   6  82
ATOM     82  CB  GLU d   9    2243.717 688.402-2325.457  0.00  0.00     0.045 C 
BRANCH  82  83
ATOM     83  CG  GLU d   9    2245.100 689.094-2325.228  0.00  0.00     0.116 C 
BRANCH  83  84
ATOM     84  CD  GLU d   9    2245.802 688.881-2323.900  0.00  0.00     0.172 C 
ATOM     85  OE1 GLU d   9    2245.281 688.190-2323.003  0.00  0.00    -0.648 OA
ATOM     86  OE2 GLU d   9    2246.922 689.418-2323.769  0.00  0.00    -0.648 OA
ENDBRANCH  83  84
ENDBRANCH  82  83
ENDBRANCH   6  82
ENDBRANCH   3   6
ENDBRANCH   1   2
BRANCH   1  87
ATOM     87  C   HIS d  10    2244.617 686.857-2330.499  0.00  0.00     0.241 C 
ATOM     88  O   HIS d  10    2245.470 687.321-2331.271  0.00  0.00    -0.271 OA
ATOM     89  N   VAL d  11    2243.380 686.857-2330.862  0.00  0.00    -0.346 N 
ATOM     90  H   VAL d  11    2242.667 686.485-2330.251  0.00  0.00     0.163 HD
BRANCH  89  91
ATOM     91  CA  VAL d  11    2243.024 687.402-2332.169  0.00  0.00     0.180 C 
BRANCH  91  92
ATOM     92  C   VAL d  11    2243.490 688.832-2332.302  0.00  0.00     0.241 C 
ATOM     93  O   VAL d  11    2244.091 689.237-2333.305  0.00  0.00    -0.271 OA
ATOM     94  N   GLN d  12    2243.253 689.659-2331.340  0.00  0.00    -0.346 N 
ATOM     95  H   GLN d  12    2242.765 689.353-2330.510  0.00  0.00     0.163 HD
BRANCH  94  96
ATOM     96  CA  GLN d  12    2243.703 691.041-2331.468  0.00  0.00     0.177 C 
BRANCH  96  97
ATOM     97  C   GLN d  12    2245.192 691.108-2331.706  0.00  0.00     0.241 C 
ATOM     98  O   GLN d  12    2245.680 691.815-2332.585  0.00  0.00    -0.271 OA
ATOM     99  N   ARG d  13    2245.977 690.401-2330.965  0.00  0.00    -0.346 N 
ATOM    100  H   ARG d  13    2245.601 689.812-2330.236  0.00  0.00     0.163 HD
BRANCH  99 101
ATOM    101  CA  ARG d  13    2247.417 690.466-2331.196  0.00  0.00     0.176 C 
BRANCH 101 102
ATOM    102  C   ARG d  13    2247.753 690.094-2332.621  0.00  0.00     0.241 C 
ATOM    103  O   ARG d  13    2248.522 690.765-2333.306  0.00  0.00    -0.271 OA
ATOM    104  N   TYR d  14    2247.216 689.039-2333.135  0.00  0.00    -0.346 N 
ATOM    105  H   TYR d  14    2246.581 688.471-2332.592  0.00  0.00     0.163 HD
BRANCH 104 106
ATOM    106  CA  TYR d  14    2247.541 688.679-2334.512  0.00  0.00     0.180 C 
BRANCH 106 107
ATOM    107  C   TYR d  14    2247.211 689.808-2335.458  0.00  0.00     0.241 C 
ATOM    108  O   TYR d  14    2248.004 690.187-2336.325  0.00  0.00    -0.271 OA
ATOM    109  N   MET d  15    2246.067 690.396-2335.357  0.00  0.00    -0.346 N 
ATOM    110  H   MET d  15    2245.402 690.104-2334.656  0.00  0.00     0.163 HD
BRANCH 109 111
ATOM    111  CA  MET d  15    2245.748 691.488-2336.272  0.00  0.00     0.177 C 
BRANCH 111 112
ATOM    112  C   MET d  15    2246.780 692.587-2336.185  0.00  0.00     0.241 C 
ATOM    113  O   MET d  15    2247.283 693.096-2337.198  0.00  0.00    -0.271 OA
ATOM    114  N   ARG d  16    2247.148 693.008-2335.023  0.00  0.00    -0.347 N 
ATOM    115  H   ARG d  16    2246.753 692.609-2334.183  0.00  0.00     0.163 HD
BRANCH 114 116
ATOM    116  CA  ARG d  16    2248.146 694.071-2334.940  0.00  0.00     0.162 C 
BRANCH 116 117
ATOM    117  C   ARG d  16    2249.417 693.676-2335.655  0.00  0.00     0.219 C 
ATOM    118  O   ARG d  16    2249.529 692.599-2336.236  0.00  0.00    -0.287 OA
ENDBRANCH 116 117
BRANCH 116 119
ATOM    119  CB  ARG d  16    2248.415 694.389-2333.441  0.00  0.00     0.035 C 
BRANCH 119 120
ATOM    120  CG  ARG d  16    2249.242 695.677-2333.168  0.00  0.00     0.023 C 
BRANCH 120 121
ATOM    121  CD  ARG d  16    2249.491 695.897-2331.667  0.00  0.00     0.138 C 
BRANCH 121 122
ATOM    122  NE  ARG d  16    2250.269 697.155-2331.467  0.00  0.00    -0.227 N 
ATOM    123  CZ  ARG d  16    2250.660 697.637-2330.291  0.00  0.00     0.665 C 
ATOM    124  NH1 ARG d  16    2250.412 697.054-2329.153  0.00  0.00    -0.235 N 
ATOM    125  NH2 ARG d  16    2251.326 698.749-2330.273  0.00  0.00    -0.235 N 
ATOM    126 11HH ARG d  16    2249.885 696.181-2329.237  0.00  0.00     0.174 HD
ATOM    127 12HH ARG d  16    2250.746 697.489-2328.291  0.00  0.00     0.174 HD
ATOM    128 21HH ARG d  16    2251.512 699.191-2331.175  0.00  0.00     0.174 HD
ATOM    129 22HH ARG d  16    2251.616 699.104-2329.361  0.00  0.00     0.174 HD
ATOM    130  HE  ARG d  16    2250.548 697.735-2332.264  0.00  0.00     0.177 HD
ENDBRANCH 121 122
ENDBRANCH 120 121
ENDBRANCH 119 120
ENDBRANCH 116 119
ENDBRANCH 114 116
ENDBRANCH 111 112
BRANCH 111 131
ATOM    131  CB  MET d  15    2244.327 692.035-2335.964  0.00  0.00     0.045 C 
BRANCH 131 132
ATOM    132  CG  MET d  15    2243.164 691.038-2336.155  0.00  0.00     0.076 C 
BRANCH 132 133
ATOM    133  SD  MET d  15    2241.591 691.906-2336.043  0.00  0.00    -0.173 SA
ATOM    134  CE  MET d  15    2240.508 690.478-2335.905  0.00  0.00     0.089 C 
ENDBRANCH 132 133
ENDBRANCH 131 132
ENDBRANCH 111 131
ENDBRANCH 109 111
ENDBRANCH 106 107
BRANCH 106 135
ATOM    135  CB  TYR d  14    2246.736 687.425-2334.963  0.00  0.00     0.073 C 
BRANCH 135 136
ATOM    136  CG  TYR d  14    2246.987 686.129-2334.183  0.00  0.00    -0.056 A 
ATOM    137  CD1 TYR d  14    2248.130 685.361-2334.427  0.00  0.00     0.010 A 
ATOM    138  CE1 TYR d  14    2248.354 684.194-2333.702  0.00  0.00     0.037 A 
ATOM    139  CZ  TYR d  14    2247.439 683.787-2332.734  0.00  0.00     0.065 A 
ATOM    140  CE2 TYR d  14    2246.298 684.547-2332.488  0.00  0.00     0.037 A 
ATOM    141  CD2 TYR d  14    2246.072 685.714-2333.211  0.00  0.00     0.010 A 
BRANCH 139 142
ATOM    142  OH  TYR d  14    2247.665 682.643-2332.023  0.00  0.00    -0.361 OA
ATOM    143  HH  TYR d  14    2246.941 682.521-2331.406  0.00  0.00     0.217 HD
ENDBRANCH 139 142
ENDBRANCH 135 136
ENDBRANCH 106 135
ENDBRANCH 104 106
ENDBRANCH 101 102
BRANCH 101 144
ATOM    144  CB  ARG d  13    2248.130 689.528-2330.182  0.00  0.00     0.036 C 
BRANCH 144 145
ATOM    145  CG  ARG d  13    2249.676 689.681-2330.101  0.00  0.00     0.023 C 
BRANCH 145 146
ATOM    146  CD  ARG d  13    2250.302 688.693-2329.103  0.00  0.00     0.138 C 
BRANCH 146 147
ATOM    147  NE  ARG d  13    2251.780 688.900-2329.053  0.00  0.00    -0.227 N 
ATOM    148  CZ  ARG d  13    2252.628 688.209-2328.298  0.00  0.00     0.665 C 
ATOM    149  NH1 ARG d  13    2252.263 687.245-2327.499  0.00  0.00    -0.235 N 
ATOM    150  NH2 ARG d  13    2253.887 688.508-2328.355  0.00  0.00    -0.235 N 
ATOM    151 11HH ARG d  13    2251.257 687.059-2327.502  0.00  0.00     0.174 HD
ATOM    152 12HH ARG d  13    2252.976 686.762-2326.950  0.00  0.00     0.174 HD
ATOM    153 21HH ARG d  13    2254.155 689.265-2328.987  0.00  0.00     0.174 HD
ATOM    154 22HH ARG d  13    2254.523 687.966-2327.766  0.00  0.00     0.174 HD
ATOM    155  HE  ARG d  13    2252.231 689.622-2329.625  0.00  0.00     0.177 HD
ENDBRANCH 146 147
ENDBRANCH 145 146
ENDBRANCH 144 145
ENDBRANCH 101 144
ENDBRANCH  99 101
ENDBRANCH  96  97
BRANCH  96 156
ATOM    156  CB  GLN d  12    2243.312 691.810-2330.186  0.00  0.00     0.044 C 
BRANCH 156 157
ATOM    157  CG  GLN d  12    2243.674 693.331-2330.155  0.00  0.00     0.105 C 
BRANCH 157 158
ATOM    158  CD  GLN d  12    2243.372 694.146-2328.891  0.00  0.00     0.215 C 
ATOM    159  NE2 GLN d  12    2242.805 693.570-2327.862  0.00  0.00    -0.370 N 
ATOM    160 21HE GLN d  12    2242.698 694.165-2327.038  0.00  0.00     0.159 HD
ATOM    161 22HE GLN d  12    2242.641 692.567-2327.964  0.00  0.00     0.159 HD
ATOM    162  OE1 GLN d  12    2243.675 695.327-2328.814  0.00  0.00    -0.274 OA
ENDBRANCH 157 158
ENDBRANCH 156 157
ENDBRANCH  96 156
ENDBRANCH  94  96
ENDBRANCH  91  92
BRANCH  91 163
ATOM    163  CB  VAL d  11    2241.463 687.296-2332.388  0.00  0.00     0.009 C 
ATOM    164  CG1 VAL d  11    2240.895 688.000-2333.651  0.00  0.00     0.012 C 
ATOM    165  CG2 VAL d  11    2240.938 685.842-2332.460  0.00  0.00     0.012 C 
ENDBRANCH  91 163
ENDBRANCH  89  91
ENDBRANCH   1  87
BRANCH   1 166
ATOM    166  CB  HIS d  10    2244.820 684.764-2329.142  0.00  0.00     0.095 C 
BRANCH 166 167
ATOM    167  CG  HIS d  10    2246.105 684.053-2328.834  0.00  0.00     0.053 A 
ATOM    168  CD2 HIS d  10    2246.487 683.719-2327.541  0.00  0.00     0.116 A 
ATOM    169  NE2 HIS d  10    2247.701 683.086-2327.608  0.00  0.00    -0.359 N 
ATOM    170  CE1 HIS d  10    2247.963 683.089-2328.943  0.00  0.00     0.207 A 
ATOM    171  2HE HIS d  10    2248.268 682.709-2326.835  0.00  0.00     0.166 HD
ATOM    172  ND1 HIS d  10    2247.057 683.647-2329.766  0.00  0.00    -0.247 NA
ENDBRANCH 166 167
ENDBRANCH   1 166
TORSDOF 70
