@<TRIPOS>MOLECULE
12-14
262 263 16              
SMALL
USER_CHARGES
@<TRIPOS>ATOM
1	   N	1952.159	589.103	-2009.352	N.3	1	GLU1	-0.516	
2	  CA	1952.718	590.452	-2009.352	C.3	1	GLU1	0.040	
3	   C	1954.227	590.412	-2009.352	C.2	1	GLU1	0.537	
4	   O	1954.903	591.111	-2010.120	O.2	1	GLU1	-0.582	
5	  CB	1952.195	591.237	-2008.115	C.3	1	GLU1	0.056	
6	  CG	1952.670	592.722	-2008.004	C.3	1	GLU1	0.014	
7	  CD	1952.246	593.526	-2006.788	C.2	1	GLU1	0.805	
8	 OE1	1951.518	593.024	-2005.911	O.co2	1	GLU1	-0.819	
9	 OE2	1952.676	594.696	-2006.717	O.co2	1	GLU1	-0.819	
10	   H	1952.786	588.224	-2009.352	 H	1	GLU1	0.294	
11	  HA	1952.392	590.970	-2010.271	 H	1	GLU1	0.111	
12	 2HB	1952.484	590.706	-2007.185	 H	1	GLU1	-0.017	
13	 3HB	1951.088	591.227	-2008.102	 H	1	GLU1	-0.017	
14	 2HG	1952.360	593.307	-2008.885	 H	1	GLU1	-0.043	
15	 3HG	1953.770	592.789	-2007.974	 H	1	GLU1	-0.043	
16	   N	1954.832	589.626	-2008.526	N.am	2	ASN2	-0.416	
17	  CA	1956.291	589.587	-2008.526	C.3	2	ASN2	0.014	
18	   C	1956.822	589.232	-2009.895	C.2	2	ASN2	0.597	
19	   O	1957.737	589.862	-2010.424	O.2	2	ASN2	-0.568	
20	  CB	1956.783	588.564	-2007.462	C.3	2	ASN2	-0.204	
21	  CG	1956.320	588.788	-2006.019	C.2	2	ASN2	0.713	
22	 ND2	1956.914	589.703	-2005.301	N.pl3	2	ASN2	-0.919	
23	 OD1	1955.399	588.154	-2005.525	O.2	2	ASN2	-0.593	
24	   H	1954.303	589.046	-2007.890	 H	2	ASN2	0.272	
25	  HA	1956.668	590.597	-2008.281	 H	2	ASN2	0.105	
26	 2HB	1957.887	588.505	-2007.466	 H	2	ASN2	0.080	
27	 3HB	1956.454	587.546	-2007.748	 H	2	ASN2	0.080	
28	1HD2	1956.433	589.876	-2004.414	 H	2	ASN2	0.420	
29	2HD2	1957.616	590.275	-2005.770	 H	2	ASN2	0.420	
30	   N	1956.301	588.237	-2010.529	N.am	3	PRO3	-0.255	
31	  CA	1956.752	587.827	-2011.851	C.3	3	PRO3	-0.027	
32	   C	1956.354	588.851	-2012.927	C.2	3	PRO3	0.590	
33	   O	1957.178	589.234	-2013.759	O.2	3	PRO3	-0.575	
34	  CB	1956.048	586.473	-2012.020	C.3	3	PRO3	-0.007	
35	  CG	1954.765	586.625	-2011.190	C.3	3	PRO3	0.019	
36	  CD	1955.223	587.444	-2009.980	C.3	3	PRO3	0.019	
37	  HA	1957.838	587.708	-2011.864	 H	3	PRO3	0.064	
38	 2HB	1956.671	585.691	-2011.579	 H	3	PRO3	0.025	
39	 3HB	1955.850	586.224	-2013.065	 H	3	PRO3	0.025	
40	 2HG	1954.337	585.663	-2010.899	 H	3	PRO3	0.021	
41	 3HG	1954.027	587.196	-2011.757	 H	3	PRO3	0.021	
42	 2HD	1955.612	586.794	-2009.192	 H	3	PRO3	0.039	
43	 3HD	1954.426	588.080	-2009.587	 H	3	PRO3	0.039	
44	   N	1955.150	589.311	-2012.960	N.am	4	GLU4	-0.516	
45	  CA	1954.790	590.282	-2013.989	C.3	4	GLU4	0.040	
46	   C	1955.689	591.493	-2013.928	C.2	4	GLU4	0.537	
47	   O	1956.215	591.972	-2014.943	O.2	4	GLU4	-0.582	
48	  CB	1953.301	590.701	-2013.819	C.3	4	GLU4	0.056	
49	  CG	1952.753	591.704	-2014.885	C.3	4	GLU4	0.014	
50	  CD	1951.327	592.201	-2014.741	C.2	4	GLU4	0.805	
51	 OE1	1950.600	591.803	-2013.810	O.co2	4	GLU4	-0.819	
52	 OE2	1950.937	593.030	-2015.589	O.co2	4	GLU4	-0.819	
53	   H	1954.465	589.004	-2012.283	 H	4	GLU4	0.294	
54	  HA	1954.921	589.811	-2014.981	 H	4	GLU4	0.111	
55	 2HB	1953.149	591.141	-2012.812	 H	4	GLU4	-0.017	
56	 3HB	1952.653	589.803	-2013.825	 H	4	GLU4	-0.017	
57	 2HG	1952.835	591.290	-2015.902	 H	4	GLU4	-0.043	
58	 3HG	1953.341	592.637	-2014.896	 H	4	GLU4	-0.043	
59	   N	1955.916	592.046	-2012.785	N.am	5	SER5	-0.416	
60	  CA	1956.786	593.217	-2012.727	C.3	5	SER5	-0.025	
61	   C	1958.145	592.911	-2013.312	C.2	5	SER5	0.597	
62	   O	1958.692	593.665	-2014.117	O.2	5	SER5	-0.568	
63	  CB	1956.897	593.749	-2011.276	C.3	5	SER5	0.212	
64	  OG	1957.629	592.870	-2010.415	O.3	5	SER5	-0.655	
65	   H	1955.499	591.674	-2011.944	 H	5	SER5	0.272	
66	  HA	1956.336	594.007	-2013.356	 H	5	SER5	0.084	
67	 2HB	1955.897	593.943	-2010.843	 H	5	SER5	0.035	
68	 3HB	1957.402	594.735	-2011.279	 H	5	SER5	0.035	
69	  HG	1957.140	592.045	-2010.365	 H	5	SER5	0.428	
70	   N	1958.750	591.828	-2012.958	N.am	6	ILE6	-0.416	
71	  CA	1960.063	591.534	-2013.524	C.3	6	ILE6	-0.060	
72	   C	1960.005	591.496	-2015.032	C.2	6	ILE6	0.597	
73	   O	1960.840	592.084	-2015.736	O.2	6	ILE6	-0.568	
74	  CB	1960.662	590.197	-2012.924	C.3	6	ILE6	0.130	
75	 CG1	1960.682	590.135	-2011.363	C.3	6	ILE6	-0.043	
76	 CG2	1962.104	589.896	-2013.440	C.3	6	ILE6	-0.320	
77	 CD1	1960.952	588.746	-2010.748	C.3	6	ILE6	-0.066	
78	   H	1958.321	591.194	-2012.299	 H	6	ILE6	0.272	
79	  HA	1960.737	592.368	-2013.256	 H	6	ILE6	0.087	
80	  HB	1960.005	589.372	-2013.268	 H	6	ILE6	0.019	
81	2HG1	1959.700	590.455	-2010.967	 H	6	ILE6	0.024	
82	3HG1	1961.398	590.878	-2010.959	 H	6	ILE6	0.024	
83	1HG2	1962.163	589.802	-2014.538	 H	6	ILE6	0.088	
84	2HG2	1962.826	590.678	-2013.137	 H	6	ILE6	0.088	
85	3HG2	1962.494	588.934	-2013.061	 H	6	ILE6	0.088	
86	1HD1	1960.224	587.992	-2011.103	 H	6	ILE6	0.019	
87	2HD1	1961.963	588.368	-2010.984	 H	6	ILE6	0.019	
88	3HD1	1960.876	588.776	-2009.646	 H	6	ILE6	0.019	
89	   N	1959.060	590.833	-2015.606	N.am	7	LEU7	-0.416	
90	  CA	1959.005	590.797	-2017.064	C.3	7	LEU7	-0.052	
91	   C	1958.932	592.192	-2017.637	C.2	7	LEU7	0.597	
92	   O	1959.653	592.555	-2018.579	O.2	7	LEU7	-0.568	
93	  CB	1957.802	589.936	-2017.545	C.3	7	LEU7	-0.110	
94	  CG	1957.729	588.457	-2017.078	C.3	7	LEU7	0.353	
95	 CD1	1956.540	587.751	-2017.744	C.3	7	LEU7	-0.412	
96	 CD2	1959.023	587.678	-2017.370	C.3	7	LEU7	-0.412	
97	   H	1958.368	590.345	-2015.054	 H	7	LEU7	0.272	
98	  HA	1959.947	590.357	-2017.438	 H	7	LEU7	0.092	
99	 2HB	1957.779	589.952	-2018.652	 H	7	LEU7	0.046	
100	 3HB	1956.862	590.439	-2017.240	 H	7	LEU7	0.046	
101	  HG	1957.559	588.449	-2015.981	 H	7	LEU7	-0.036	
102	1HD1	1955.582	588.260	-2017.521	 H	7	LEU7	0.100	
103	2HD1	1956.639	587.710	-2018.845	 H	7	LEU7	0.100	
104	3HD1	1956.433	586.710	-2017.388	 H	7	LEU7	0.100	
105	1HD2	1959.298	587.708	-2018.440	 H	7	LEU7	0.100	
106	2HD2	1959.876	588.089	-2016.799	 H	7	LEU7	0.100	
107	3HD2	1958.942	586.615	-2017.074	 H	7	LEU7	0.100	
108	   N	1958.095	593.032	-2017.130	N.am	8	ASP8	-0.516	
109	  CA	1958.024	594.382	-2017.684	C.3	8	ASP8	0.038	
110	   C	1959.370	595.062	-2017.626	C.2	8	ASP8	0.537	
111	   O	1959.843	595.667	-2018.601	O.2	8	ASP8	-0.582	
112	  CB	1956.946	595.220	-2016.942	C.3	8	ASP8	-0.030	
113	  CG	1956.727	596.641	-2017.482	C.2	8	ASP8	0.799	
114	 OD1	1956.791	596.840	-2018.713	O.co2	8	ASP8	-0.801	
115	 OD2	1956.534	597.567	-2016.666	O.co2	8	ASP8	-0.801	
116	   H	1957.497	592.761	-2016.363	 H	8	ASP8	0.294	
117	  HA	1957.741	594.304	-2018.751	 H	8	ASP8	0.088	
118	 2HB	1957.203	595.304	-2015.870	 H	8	ASP8	-0.012	
119	 3HB	1955.967	594.715	-2016.975	 H	8	ASP8	-0.012	
120	   N	1960.050	595.012	-2016.531	N.am	9	GLU9	-0.516	
121	  CA	1961.353	595.670	-2016.475	C.3	9	GLU9	0.040	
122	   C	1962.271	595.143	-2017.551	C.2	9	GLU9	0.537	
123	   O	1962.935	595.898	-2018.276	O.2	9	GLU9	-0.582	
124	  CB	1961.986	595.462	-2015.070	C.3	9	GLU9	0.056	
125	  CG	1963.368	596.155	-2014.840	C.3	9	GLU9	0.014	
126	  CD	1964.070	595.941	-2013.512	C.2	9	GLU9	0.805	
127	 OE1	1963.549	595.250	-2012.616	O.co2	9	GLU9	-0.819	
128	 OE2	1965.189	596.479	-2013.380	O.co2	9	GLU9	-0.819	
129	   H	1959.687	594.525	-2015.724	 H	9	GLU9	0.294	
130	  HA	1961.210	596.752	-2016.651	 H	9	GLU9	0.111	
131	 2HB	1962.099	594.377	-2014.867	 H	9	GLU9	-0.017	
132	 3HB	1961.289	595.815	-2014.286	 H	9	GLU9	-0.017	
133	 2HG	1963.296	597.245	-2014.980	 H	9	GLU9	-0.043	
134	 3HG	1964.115	595.810	-2015.574	 H	9	GLU9	-0.043	
135	   N	1962.368	593.868	-2017.721	N.am	10	HIS10	-0.416	
136	  CA	1963.256	593.357	-2018.761	C.3	10	HIS10	-0.058	
137	   C	1962.890	593.922	-2020.113	C.2	10	HIS10	0.597	
138	   O	1963.742	594.387	-2020.884	O.2	10	HIS10	-0.568	
139	  CB	1963.093	591.828	-2018.757	C.3	10	HIS10	-0.007	
140	  CG	1964.378	591.118	-2018.449	C.2	10	HIS10	0.187	
141	 CD2	1964.759	590.782	-2017.156	C.2	10	HIS10	-0.221	
142	 ND1	1965.331	590.713	-2019.381	N.2	10	HIS10	-0.543	
143	 CE1	1966.237	590.154	-2018.558	C.2	10	HIS10	0.163	
144	 NE2	1965.974	590.151	-2017.223	N.pl3	10	HIS10	-0.280	
145	   H	1961.837	593.232	-2017.143	 H	10	HIS10	0.272	
146	  HA	1964.275	593.714	-2018.536	 H	10	HIS10	0.136	
147	 2HB	1962.728	591.461	-2019.737	 H	10	HIS10	0.037	
148	 3HB	1962.337	591.491	-2018.017	 H	10	HIS10	0.037	
149	 2HD	1964.173	590.997	-2016.267	 H	10	HIS10	0.186	
150	 1HE	1967.128	589.734	-2019.005	 H	10	HIS10	0.144	
151	 2HE	1966.541	589.774	-2016.450	 H	10	HIS10	0.334	
152	   N	1961.652	593.920	-2020.476	N.am	11	VAL11	-0.416	
153	  CA	1961.297	594.467	-2021.783	C.3	11	VAL11	-0.087	
154	   C	1961.761	595.898	-2021.914	C.2	11	VAL11	0.597	
155	   O	1962.362	596.303	-2022.917	O.2	11	VAL11	-0.568	
156	  CB	1959.736	594.360	-2022.002	C.3	11	VAL11	0.299	
157	 CG1	1959.167	595.064	-2023.265	C.3	11	VAL11	-0.319	
158	 CG2	1959.212	592.905	-2022.076	C.3	11	VAL11	-0.319	
159	   H	1960.939	593.547	-2019.865	 H	11	VAL11	0.272	
160	  HA	1961.817	593.885	-2022.565	 H	11	VAL11	0.097	
161	  HB	1959.248	594.839	-2021.127	 H	11	VAL11	-0.030	
162	1HG1	1959.606	594.673	-2024.202	 H	11	VAL11	0.079	
163	2HG1	1958.068	594.956	-2023.347	 H	11	VAL11	0.079	
164	3HG1	1959.345	596.156	-2023.255	 H	11	VAL11	0.079	
165	1HG2	1959.501	592.318	-2021.185	 H	11	VAL11	0.079	
166	2HG2	1958.106	592.868	-2022.119	 H	11	VAL11	0.079	
167	3HG2	1959.594	592.365	-2022.963	 H	11	VAL11	0.079	
168	   N	1961.523	596.723	-2020.952	N.am	12	THR12	-0.416	
169	  CA	1961.971	598.106	-2021.079	C.3	12	THR12	-0.039	
170	   C	1963.461	598.173	-2021.317	C.2	12	THR12	0.597	
171	   O	1963.942	598.872	-2022.185	O.2	12	THR12	-0.568	
172	  CB	1961.576	598.931	-2019.808	C.3	12	THR12	0.365	
173	 CG2	1961.997	600.417	-2019.799	C.3	12	THR12	-0.244	
174	 OG1	1960.163	598.961	-2019.651	O.3	12	THR12	-0.676	
175	   H	1961.034	596.417	-2020.123	 H	12	THR12	0.272	
176	  HA	1961.476	598.553	-2021.960	 H	12	THR12	0.101	
177	  HB	1962.021	598.436	-2018.918	 H	12	THR12	0.004	
178	 1HG	1959.996	599.417	-2018.822	 H	12	THR12	0.410	
179	1HG2	1961.664	600.938	-2018.882	 H	12	THR12	0.064	
180	2HG2	1963.095	600.546	-2019.834	 H	12	THR12	0.064	
181	3HG2	1961.576	600.968	-2020.661	 H	12	THR12	0.064	
182	   N	1964.245	597.466	-2020.576	N.am	13	ARG13	-0.348	
183	  CA	1965.686	597.531	-2020.806	C.3	13	ARG13	-0.264	
184	   C	1966.022	597.159	-2022.231	C.2	13	ARG13	0.734	
185	   O	1966.790	597.831	-2022.915	O.2	13	ARG13	-0.589	
186	  CB	1966.399	596.593	-2019.792	C.3	13	ARG13	-0.001	
187	  CG	1967.944	596.745	-2019.711	C.3	13	ARG13	0.039	
188	  CD	1968.571	595.758	-2018.713	C.3	13	ARG13	0.049	
189	  NE	1970.048	595.965	-2018.663	N.pl3	13	ARG13	-0.530	
190	  CZ	1970.896	595.273	-2017.907	C.cat	13	ARG13	0.808	
191	 NH1	1970.531	594.309	-2017.110	N.pl3	13	ARG13	-0.863	
192	 NH2	1972.155	595.572	-2017.964	N.pl3	13	ARG13	-0.863	
193	   H	1963.869	596.876	-2019.847	 H	13	ARG13	0.275	
194	  HA	1966.010	598.577	-2020.648	 H	13	ARG13	0.156	
195	 2HB	1966.132	595.542	-2020.031	 H	13	ARG13	0.033	
196	 3HB	1965.974	596.759	-2018.782	 H	13	ARG13	0.033	
197	 2HG	1968.192	597.790	-2019.432	 H	13	ARG13	0.029	
198	 3HG	1968.394	596.589	-2020.713	 H	13	ARG13	0.029	
199	 2HD	1968.326	594.718	-2019.022	 H	13	ARG13	0.069	
200	 3HD	1968.114	595.904	-2017.711	 H	13	ARG13	0.069	
201	  HE	1970.499	596.687	-2019.234	 H	13	ARG13	0.346	
202	1HH1	1969.525	594.123	-2017.113	 H	13	ARG13	0.448	
203	2HH1	1971.244	593.826	-2016.561	 H	13	ARG13	0.448	
204	1HH2	1972.423	596.330	-2018.596	 H	13	ARG13	0.448	
205	2HH2	1972.790	595.031	-2017.376	 H	13	ARG13	0.448	
206	   N	1965.485	596.105	-2022.745	N.am	14	VAL14	-0.416	
207	  CA	1965.810	595.745	-2024.123	C.3	14	VAL14	-0.087	
208	   C	1965.480	596.875	-2025.069	C.2	14	VAL14	0.597	
209	   O	1966.274	597.256	-2025.938	O.2	14	VAL14	-0.568	
210	  CB	1965.037	594.428	-2024.529	C.3	14	VAL14	0.299	
211	 CG1	1965.126	594.009	-2026.022	C.3	14	VAL14	-0.319	
212	 CG2	1965.469	593.176	-2023.729	C.3	14	VAL14	-0.319	
213	   H	1964.850	595.537	-2022.203	 H	14	VAL14	0.272	
214	  HA	1966.898	595.568	-2024.197	 H	14	VAL14	0.097	
215	  HB	1963.961	594.600	-2024.313	 H	14	VAL14	-0.030	
216	1HG1	1966.167	593.832	-2026.351	 H	14	VAL14	0.079	
217	2HG1	1964.553	593.086	-2026.235	 H	14	VAL14	0.079	
218	3HG1	1964.697	594.771	-2026.701	 H	14	VAL14	0.079	
219	1HG2	1965.382	593.335	-2022.638	 H	14	VAL14	0.079	
220	2HG2	1964.833	592.300	-2023.960	 H	14	VAL14	0.079	
221	3HG2	1966.517	592.886	-2023.934	 H	14	VAL14	0.079	
222	   N	1964.336	597.461	-2024.967	N.am	15	MET15	-0.416	
223	  CA	1964.016	598.554	-2025.881	C.3	15	MET15	-0.024	
224	   C	1965.046	599.653	-2025.794	C.2	15	MET15	0.597	
225	   O	1965.548	600.164	-2026.807	O.2	15	MET15	-0.568	
226	  CB	1962.594	599.100	-2025.572	C.3	15	MET15	0.034	
227	  CG	1961.432	598.102	-2025.764	C.3	15	MET15	0.002	
228	  SD	1959.858	598.968	-2025.649	S.3	15	MET15	-0.274	
229	  CE	1958.777	597.539	-2025.512	C.3	15	MET15	-0.054	
230	   H	1963.671	597.169	-2024.266	 H	15	MET15	0.272	
231	  HA	1964.041	598.166	-2026.917	 H	15	MET15	0.088	
232	 2HB	1962.392	599.978	-2026.215	 H	15	MET15	0.024	
233	 3HB	1962.559	599.493	-2024.536	 H	15	MET15	0.024	
234	 2HG	1961.475	597.316	-2024.986	 H	15	MET15	0.044	
235	 3HG	1961.495	597.586	-2026.740	 H	15	MET15	0.044	
236	 1HE	1958.920	596.850	-2026.364	 H	15	MET15	0.068	
237	 2HE	1958.986	596.987	-2024.579	 H	15	MET15	0.068	
238	 3HE	1957.719	597.855	-2025.495	 H	15	MET15	0.068	
239	   N	1965.415	600.075	-2024.632	N.am	16	ARG16	-0.348	
240	  CA	1966.412	601.138	-2024.549	C.3	16	ARG16	-0.264	
241	   C	1967.682	600.745	-2025.265	C.2	16	ARG16	0.734	
242	   O	1967.796	599.668	-2025.846	O.2	16	ARG16	-0.589	
243	  CB	1966.681	601.457	-2023.050	C.3	16	ARG16	-0.001	
244	  CG	1967.507	602.745	-2022.778	C.3	16	ARG16	0.039	
245	  CD	1967.757	602.965	-2021.277	C.3	16	ARG16	0.049	
246	  NE	1968.533	604.224	-2021.077	N.pl3	16	ARG16	-0.530	
247	  CZ	1968.925	604.707	-2019.901	C.cat	16	ARG16	0.808	
248	 NH1	1968.677	604.122	-2018.762	N.pl3	16	ARG16	-0.863	
249	 NH2	1969.589	605.819	-2019.883	N.pl3	16	ARG16	-0.863	
250	   H	1965.020	599.675	-2023.792	 H	16	ARG16	0.275	
251	  HA	1966.003	602.031	-2025.059	 H	16	ARG16	0.156	
252	 2HB	1967.178	600.581	-2022.584	 H	16	ARG16	0.033	
253	 3HB	1965.713	601.538	-2022.516	 H	16	ARG16	0.033	
254	 2HG	1966.976	603.616	-2023.215	 H	16	ARG16	0.029	
255	 3HG	1968.480	602.692	-2023.307	 H	16	ARG16	0.029	
256	 2HD	1968.305	602.090	-2020.864	 H	16	ARG16	0.069	
257	 3HD	1966.784	603.008	-2020.742	 H	16	ARG16	0.069	
258	  HE	1968.812	604.805	-2021.874	 H	16	ARG16	0.346	
259	1HH1	1968.151	603.250	-2018.847	 H	16	ARG16	0.448	
260	2HH1	1969.012	604.558	-2017.901	 H	16	ARG16	0.448	
261	1HH2	1969.774	606.262	-2020.785	 H	16	ARG16	0.448	
262	2HH2	1969.880	606.174	-2018.971	 H	16	ARG16	0.448	
@<TRIPOS>BOND
1 1 2 1
2 1 10 1
3 2 3 1
4 2 5 1
5 2 11 1
6 3 4 2
7 3 16 1
8 5 6 1
9 6 7 1
10 7 8 2
11 7 9 1
12 5 12 1
13 5 13 1
14 6 14 1
15 6 15 1
16 16 17 1
17 16 24 1
18 17 18 1
19 17 20 1
20 17 25 1
21 18 19 2
22 18 30 1
23 20 21 1
24 21 22 1
25 21 23 2
26 20 26 1
27 20 27 1
28 22 28 1
29 22 29 1
30 30 31 1
31 30 36 1
32 31 32 1
33 31 34 1
34 31 37 1
35 32 33 2
36 32 44 1
37 34 35 1
38 35 36 1
39 34 38 1
40 34 39 1
41 35 40 1
42 35 41 1
43 36 42 1
44 36 43 1
45 44 45 1
46 44 53 1
47 45 46 1
48 45 48 1
49 45 54 1
50 46 47 2
51 46 59 1
52 48 49 1
53 49 50 1
54 50 51 2
55 50 52 1
56 48 55 1
57 48 56 1
58 49 57 1
59 49 58 1
60 59 60 1
61 59 65 1
62 60 61 1
63 60 63 1
64 60 66 1
65 61 62 2
66 61 70 1
67 63 64 1
68 63 67 1
69 63 68 1
70 64 69 1
71 70 71 1
72 70 78 1
73 71 72 1
74 71 74 1
75 71 79 1
76 72 73 2
77 72 89 1
78 74 75 1
79 74 76 1
80 75 77 1
81 74 80 1
82 75 81 1
83 75 82 1
84 76 83 1
85 76 84 1
86 76 85 1
87 77 86 1
88 77 87 1
89 77 88 1
90 89 90 1
91 89 97 1
92 90 91 1
93 90 93 1
94 90 98 1
95 91 92 2
96 91 108 1
97 93 94 1
98 94 95 1
99 94 96 1
100 93 99 1
101 93 100 1
102 94 101 1
103 95 102 1
104 95 103 1
105 95 104 1
106 96 105 1
107 96 106 1
108 96 107 1
109 108 109 1
110 108 116 1
111 109 110 1
112 109 112 1
113 109 117 1
114 110 111 2
115 110 120 1
116 112 113 1
117 113 114 2
118 113 115 1
119 112 118 1
120 112 119 1
121 120 121 1
122 120 129 1
123 121 122 1
124 121 124 1
125 121 130 1
126 122 123 2
127 122 135 1
128 124 125 1
129 125 126 1
130 126 127 2
131 126 128 1
132 124 131 1
133 124 132 1
134 125 133 1
135 125 134 1
136 135 136 1
137 135 145 1
138 136 137 1
139 136 139 1
140 136 146 1
141 137 138 2
142 137 152 1
143 139 140 1
144 140 141 2
145 141 144 1
146 140 142 1
147 142 143 2
148 143 144 1
149 139 147 1
150 139 148 1
151 141 149 1
152 143 150 1
153 144 151 1
154 152 153 1
155 152 159 1
156 153 154 1
157 153 156 1
158 153 160 1
159 154 155 2
160 154 168 1
161 156 157 1
162 156 158 1
163 156 161 1
164 157 162 1
165 157 163 1
166 157 164 1
167 158 165 1
168 158 166 1
169 158 167 1
170 168 169 1
171 168 175 1
172 169 170 1
173 169 172 1
174 169 176 1
175 170 171 2
176 170 182 1
177 172 173 1
178 172 174 1
179 172 177 1
180 174 178 1
181 173 179 1
182 173 180 1
183 173 181 1
184 182 183 1
185 182 193 1
186 183 184 1
187 183 186 1
188 183 194 1
189 184 185 2
190 184 206 1
191 186 187 1
192 187 188 1
193 188 189 1
194 189 190 1
195 190 191 2
196 190 192 1
197 186 195 1
198 186 196 1
199 187 197 1
200 187 198 1
201 188 199 1
202 188 200 1
203 189 201 1
204 191 202 1
205 191 203 1
206 192 204 1
207 192 205 1
208 206 207 1
209 206 213 1
210 207 208 1
211 207 210 1
212 207 214 1
213 208 209 2
214 208 222 1
215 210 211 1
216 210 212 1
217 210 215 1
218 211 216 1
219 211 217 1
220 211 218 1
221 212 219 1
222 212 220 1
223 212 221 1
224 222 223 1
225 222 230 1
226 223 224 1
227 223 226 1
228 223 231 1
229 224 225 2
230 224 239 1
231 226 227 1
232 227 228 1
233 228 229 1
234 226 232 1
235 226 233 1
236 227 234 1
237 227 235 1
238 229 236 1
239 229 237 1
240 229 238 1
241 239 240 1
242 239 250 1
243 240 241 1
244 240 243 1
245 240 251 1
246 241 242 2
247 243 244 1
248 244 245 1
249 245 246 1
250 246 247 1
251 247 248 2
252 247 249 1
253 243 252 1
254 243 253 1
255 244 254 1
256 244 255 1
257 245 256 1
258 245 257 1
259 246 258 1
260 248 259 1
261 248 260 1
262 249 261 1
263 249 262 1
@<TRIPOS>SUBSTRUCTURE
1	GLU1	1	RESIDUE	1 ****	GLU
2	ASN2	16	RESIDUE	1 ****	ASN
3	PRO3	30	RESIDUE	1 ****	PRO
4	GLU4	44	RESIDUE	1 ****	GLU
5	SER5	59	RESIDUE	1 ****	SER
6	ILE6	70	RESIDUE	1 ****	ILE
7	LEU7	89	RESIDUE	1 ****	LEU
8	ASP8	108	RESIDUE	1 ****	ASP
9	GLU9	120	RESIDUE	1 ****	GLU
10	HIS10	135	RESIDUE	1 ****	HIS
11	VAL11	152	RESIDUE	1 ****	VAL
12	THR12	168	RESIDUE	1 ****	THR
13	ARG13	182	RESIDUE	1 ****	ARG
14	VAL14	206	RESIDUE	1 ****	VAL
15	MET15	222	RESIDUE	1 ****	MET
16	ARG16	239	RESIDUE	1 ****	ARG
