@<TRIPOS>MOLECULE
9-17
262 263 16              
SMALL
USER_CHARGES
@<TRIPOS>ATOM
1	   N	1484.458	437.367	-1501.967	N.3	1	GLU1	-0.516	
2	  CA	1485.017	438.716	-1501.967	C.3	1	GLU1	0.040	
3	   C	1486.526	438.676	-1501.967	C.2	1	GLU1	0.537	
4	   O	1487.202	439.375	-1502.735	O.2	1	GLU1	-0.582	
5	  CB	1484.494	439.501	-1500.730	C.3	1	GLU1	0.056	
6	  CG	1484.969	440.986	-1500.619	C.3	1	GLU1	0.014	
7	  CD	1484.545	441.790	-1499.404	C.2	1	GLU1	0.805	
8	 OE1	1483.817	441.288	-1498.526	O.co2	1	GLU1	-0.819	
9	 OE2	1484.975	442.960	-1499.332	O.co2	1	GLU1	-0.819	
10	   H	1485.085	436.488	-1501.967	 H	1	GLU1	0.294	
11	  HA	1484.691	439.234	-1502.887	 H	1	GLU1	0.111	
12	 2HB	1484.783	438.970	-1499.800	 H	1	GLU1	-0.017	
13	 3HB	1483.387	439.491	-1500.717	 H	1	GLU1	-0.017	
14	 2HG	1484.659	441.571	-1501.500	 H	1	GLU1	-0.043	
15	 3HG	1486.069	441.053	-1500.590	 H	1	GLU1	-0.043	
16	   N	1487.131	437.890	-1501.141	N.am	2	ASN2	-0.416	
17	  CA	1488.590	437.852	-1501.141	C.3	2	ASN2	0.014	
18	   C	1489.121	437.496	-1502.510	C.2	2	ASN2	0.597	
19	   O	1490.036	438.126	-1503.039	O.2	2	ASN2	-0.568	
20	  CB	1489.082	436.829	-1500.077	C.3	2	ASN2	-0.204	
21	  CG	1488.619	437.052	-1498.634	C.2	2	ASN2	0.713	
22	 ND2	1489.213	437.967	-1497.916	N.pl3	2	ASN2	-0.919	
23	 OD1	1487.698	436.419	-1498.140	O.2	2	ASN2	-0.593	
24	   H	1486.603	437.311	-1500.505	 H	2	ASN2	0.272	
25	  HA	1488.967	438.862	-1500.896	 H	2	ASN2	0.105	
26	 2HB	1490.187	436.770	-1500.081	 H	2	ASN2	0.080	
27	 3HB	1488.753	435.810	-1500.363	 H	2	ASN2	0.080	
28	1HD2	1488.733	438.140	-1497.029	 H	2	ASN2	0.420	
29	2HD2	1489.915	438.539	-1498.385	 H	2	ASN2	0.420	
30	   N	1488.600	436.501	-1503.144	N.am	3	PRO3	-0.255	
31	  CA	1489.052	436.092	-1504.466	C.3	3	PRO3	-0.027	
32	   C	1488.653	437.115	-1505.543	C.2	3	PRO3	0.590	
33	   O	1489.477	437.498	-1506.374	O.2	3	PRO3	-0.575	
34	  CB	1488.347	434.737	-1504.635	C.3	3	PRO3	-0.007	
35	  CG	1487.064	434.889	-1503.805	C.3	3	PRO3	0.019	
36	  CD	1487.522	435.708	-1502.595	C.3	3	PRO3	0.019	
37	  HA	1490.137	435.972	-1504.480	 H	3	PRO3	0.064	
38	 2HB	1488.970	433.956	-1504.194	 H	3	PRO3	0.025	
39	 3HB	1488.149	434.488	-1505.680	 H	3	PRO3	0.025	
40	 2HG	1486.637	433.927	-1503.514	 H	3	PRO3	0.021	
41	 3HG	1486.327	435.460	-1504.372	 H	3	PRO3	0.021	
42	 2HD	1487.911	435.058	-1501.807	 H	3	PRO3	0.039	
43	 3HD	1486.725	436.344	-1502.202	 H	3	PRO3	0.039	
44	   N	1487.449	437.575	-1505.575	N.am	4	GLU4	-0.516	
45	  CA	1487.089	438.546	-1506.604	C.3	4	GLU4	0.040	
46	   C	1487.988	439.757	-1506.543	C.2	4	GLU4	0.537	
47	   O	1488.514	440.237	-1507.558	O.2	4	GLU4	-0.582	
48	  CB	1485.600	438.965	-1506.434	C.3	4	GLU4	0.056	
49	  CG	1485.052	439.968	-1507.500	C.3	4	GLU4	0.014	
50	  CD	1483.625	440.465	-1507.356	C.2	4	GLU4	0.805	
51	 OE1	1482.899	440.067	-1506.425	O.co2	4	GLU4	-0.819	
52	 OE2	1483.236	441.294	-1508.204	O.co2	4	GLU4	-0.819	
53	   H	1486.765	437.268	-1504.898	 H	4	GLU4	0.294	
54	  HA	1487.220	438.076	-1507.596	 H	4	GLU4	0.111	
55	 2HB	1485.448	439.405	-1505.427	 H	4	GLU4	-0.017	
56	 3HB	1484.953	438.067	-1506.440	 H	4	GLU4	-0.017	
57	 2HG	1485.133	439.554	-1508.517	 H	4	GLU4	-0.043	
58	 3HG	1485.640	440.901	-1507.511	 H	4	GLU4	-0.043	
59	   N	1488.215	440.310	-1505.400	N.am	5	SER5	-0.416	
60	  CA	1489.085	441.481	-1505.342	C.3	5	SER5	-0.025	
61	   C	1490.443	441.176	-1505.928	C.2	5	SER5	0.597	
62	   O	1490.990	441.930	-1506.732	O.2	5	SER5	-0.568	
63	  CB	1489.196	442.014	-1503.891	C.3	5	SER5	0.212	
64	  OG	1489.928	441.134	-1503.030	O.3	5	SER5	-0.655	
65	   H	1487.798	439.938	-1504.559	 H	5	SER5	0.272	
66	  HA	1488.635	442.272	-1505.971	 H	5	SER5	0.084	
67	 2HB	1488.197	442.207	-1503.458	 H	5	SER5	0.035	
68	 3HB	1489.702	442.999	-1503.893	 H	5	SER5	0.035	
69	  HG	1489.439	440.309	-1502.980	 H	5	SER5	0.428	
70	   N	1491.048	440.093	-1505.574	N.am	6	ILE6	-0.416	
71	  CA	1492.361	439.798	-1506.140	C.3	6	ILE6	-0.060	
72	   C	1492.304	439.761	-1507.648	C.2	6	ILE6	0.597	
73	   O	1493.139	440.349	-1508.352	O.2	6	ILE6	-0.568	
74	  CB	1492.961	438.462	-1505.540	C.3	6	ILE6	0.130	
75	 CG1	1492.981	438.400	-1503.979	C.3	6	ILE6	-0.043	
76	 CG2	1494.402	438.161	-1506.056	C.3	6	ILE6	-0.320	
77	 CD1	1493.251	437.011	-1503.365	C.3	6	ILE6	-0.066	
78	   H	1490.620	439.459	-1504.915	 H	6	ILE6	0.272	
79	  HA	1493.035	440.633	-1505.872	 H	6	ILE6	0.087	
80	  HB	1492.303	437.636	-1505.884	 H	6	ILE6	0.019	
81	2HG1	1491.999	438.719	-1503.583	 H	6	ILE6	0.024	
82	3HG1	1493.697	439.142	-1503.574	 H	6	ILE6	0.024	
83	1HG2	1494.461	438.067	-1507.154	 H	6	ILE6	0.088	
84	2HG2	1495.125	438.943	-1505.754	 H	6	ILE6	0.088	
85	3HG2	1494.793	437.198	-1505.677	 H	6	ILE6	0.088	
86	1HD1	1492.523	436.256	-1503.719	 H	6	ILE6	0.019	
87	2HD1	1494.261	436.632	-1503.600	 H	6	ILE6	0.019	
88	3HD1	1493.175	437.040	-1502.262	 H	6	ILE6	0.019	
89	   N	1491.358	439.097	-1508.221	N.am	7	LEU7	-0.416	
90	  CA	1491.303	439.062	-1509.680	C.3	7	LEU7	-0.052	
91	   C	1491.230	440.457	-1510.252	C.2	7	LEU7	0.597	
92	   O	1491.951	440.820	-1511.194	O.2	7	LEU7	-0.568	
93	  CB	1490.100	438.201	-1510.160	C.3	7	LEU7	-0.110	
94	  CG	1490.027	436.722	-1509.694	C.3	7	LEU7	0.353	
95	 CD1	1488.837	436.016	-1510.360	C.3	7	LEU7	-0.412	
96	 CD2	1491.321	435.943	-1509.986	C.3	7	LEU7	-0.412	
97	   H	1490.666	438.610	-1507.670	 H	7	LEU7	0.272	
98	  HA	1492.245	438.622	-1510.054	 H	7	LEU7	0.092	
99	 2HB	1490.077	438.218	-1511.268	 H	7	LEU7	0.046	
100	 3HB	1489.160	438.704	-1509.856	 H	7	LEU7	0.046	
101	  HG	1489.858	436.714	-1508.597	 H	7	LEU7	-0.036	
102	1HD1	1487.880	436.525	-1510.137	 H	7	LEU7	0.100	
103	2HD1	1488.937	435.976	-1511.461	 H	7	LEU7	0.100	
104	3HD1	1488.731	434.975	-1510.004	 H	7	LEU7	0.100	
105	1HD2	1491.596	435.973	-1511.056	 H	7	LEU7	0.100	
106	2HD2	1492.174	436.354	-1509.415	 H	7	LEU7	0.100	
107	3HD2	1491.240	434.880	-1509.690	 H	7	LEU7	0.100	
108	   N	1490.393	441.298	-1509.746	N.am	8	ASP8	-0.516	
109	  CA	1490.323	442.647	-1510.299	C.3	8	ASP8	0.038	
110	   C	1491.669	443.327	-1510.241	C.2	8	ASP8	0.537	
111	   O	1492.142	443.932	-1511.216	O.2	8	ASP8	-0.582	
112	  CB	1489.245	443.486	-1509.557	C.3	8	ASP8	-0.030	
113	  CG	1489.026	444.907	-1510.097	C.2	8	ASP8	0.799	
114	 OD1	1489.090	445.106	-1511.327	O.co2	8	ASP8	-0.801	
115	 OD2	1488.833	445.832	-1509.281	O.co2	8	ASP8	-0.801	
116	   H	1489.795	441.026	-1508.978	 H	8	ASP8	0.294	
117	  HA	1490.040	442.570	-1511.366	 H	8	ASP8	0.088	
118	 2HB	1489.502	443.569	-1508.485	 H	8	ASP8	-0.012	
119	 3HB	1488.266	442.981	-1509.590	 H	8	ASP8	-0.012	
120	   N	1492.349	443.277	-1509.146	N.am	9	ASP9	-0.516	
121	  CA	1493.652	443.935	-1509.091	C.3	9	ASP9	0.038	
122	   C	1494.571	443.408	-1510.166	C.2	9	ASP9	0.537	
123	   O	1495.235	444.165	-1510.891	O.2	9	ASP9	-0.582	
124	  CB	1494.289	443.766	-1507.683	C.3	9	ASP9	-0.030	
125	  CG	1495.635	444.478	-1507.477	C.2	9	ASP9	0.799	
126	 OD1	1495.819	445.593	-1508.006	O.co2	9	ASP9	-0.801	
127	 OD2	1496.523	443.896	-1506.821	O.co2	9	ASP9	-0.801	
128	   H	1491.986	442.790	-1508.339	 H	9	ASP9	0.294	
129	  HA	1493.503	445.014	-1509.286	 H	9	ASP9	0.088	
130	 2HB	1494.438	442.693	-1507.462	 H	9	ASP9	-0.012	
131	 3HB	1493.611	444.140	-1506.899	 H	9	ASP9	-0.012	
132	   N	1494.668	442.133	-1510.336	N.am	10	HIS10	-0.416	
133	  CA	1495.557	441.623	-1511.377	C.3	10	HIS10	-0.058	
134	   C	1495.191	442.188	-1512.728	C.2	10	HIS10	0.597	
135	   O	1496.043	442.654	-1513.498	O.2	10	HIS10	-0.568	
136	  CB	1495.395	440.094	-1511.373	C.3	10	HIS10	-0.007	
137	  CG	1496.681	439.385	-1511.064	C.2	10	HIS10	0.187	
138	 CD2	1497.061	439.049	-1509.771	C.2	10	HIS10	-0.221	
139	 ND1	1497.634	438.980	-1511.996	N.2	10	HIS10	-0.543	
140	 CE1	1498.540	438.423	-1511.173	C.2	10	HIS10	0.163	
141	 NE2	1498.277	438.419	-1509.838	N.pl3	10	HIS10	-0.280	
142	   H	1494.138	441.497	-1509.759	 H	10	HIS10	0.272	
143	  HA	1496.576	441.981	-1511.151	 H	10	HIS10	0.136	
144	 2HB	1495.031	439.727	-1512.353	 H	10	HIS10	0.037	
145	 3HB	1494.639	439.756	-1510.633	 H	10	HIS10	0.037	
146	 2HD	1496.475	439.263	-1508.883	 H	10	HIS10	0.186	
147	 1HE	1499.432	438.003	-1511.619	 H	10	HIS10	0.144	
148	 2HE	1498.844	438.041	-1509.064	 H	10	HIS10	0.334	
149	   N	1493.953	442.187	-1513.091	N.am	11	VAL11	-0.416	
150	  CA	1493.599	442.733	-1514.398	C.3	11	VAL11	-0.087	
151	   C	1494.062	444.164	-1514.529	C.2	11	VAL11	0.597	
152	   O	1494.663	444.571	-1515.532	O.2	11	VAL11	-0.568	
153	  CB	1492.038	442.626	-1514.619	C.3	11	VAL11	0.299	
154	 CG1	1491.469	443.330	-1515.881	C.3	11	VAL11	-0.319	
155	 CG2	1491.515	441.171	-1514.693	C.3	11	VAL11	-0.319	
156	   H	1493.240	441.813	-1512.481	 H	11	VAL11	0.272	
157	  HA	1494.119	442.152	-1515.180	 H	11	VAL11	0.097	
158	  HB	1491.549	443.105	-1513.743	 H	11	VAL11	-0.030	
159	1HG1	1491.909	442.939	-1516.818	 H	11	VAL11	0.079	
160	2HG1	1490.371	443.222	-1515.964	 H	11	VAL11	0.079	
161	3HG1	1491.647	444.422	-1515.871	 H	11	VAL11	0.079	
162	1HG2	1491.804	440.583	-1513.803	 H	11	VAL11	0.079	
163	2HG2	1490.409	441.133	-1514.737	 H	11	VAL11	0.079	
164	3HG2	1491.897	440.631	-1515.580	 H	11	VAL11	0.079	
165	   N	1493.823	444.989	-1513.567	N.am	12	GLN12	-0.416	
166	  CA	1494.271	446.373	-1513.693	C.3	12	GLN12	-0.003	
167	   C	1495.761	446.442	-1513.929	C.2	12	GLN12	0.597	
168	   O	1496.248	447.151	-1514.807	O.2	12	GLN12	-0.568	
169	  CB	1493.878	447.139	-1512.410	C.3	12	GLN12	-0.004	
170	  CG	1494.237	448.661	-1512.377	C.3	12	GLN12	-0.064	
171	  CD	1493.933	449.474	-1511.112	C.2	12	GLN12	0.695	
172	 NE2	1493.366	448.896	-1510.084	N.pl3	12	GLN12	-0.941	
173	 OE1	1494.234	450.655	-1511.034	O.2	12	GLN12	-0.609	
174	   H	1493.334	444.682	-1512.738	 H	12	GLN12	0.272	
175	  HA	1493.772	446.829	-1514.568	 H	12	GLN12	0.085	
176	 2HB	1494.354	446.639	-1511.540	 H	12	GLN12	0.017	
177	 3HB	1492.788	447.031	-1512.247	 H	12	GLN12	0.017	
178	 2HG	1493.760	449.182	-1513.228	 H	12	GLN12	0.035	
179	 3HG	1495.321	448.804	-1512.542	 H	12	GLN12	0.035	
180	1HE2	1493.258	449.490	-1509.260	 H	12	GLN12	0.425	
181	2HE2	1493.203	447.892	-1510.188	 H	12	GLN12	0.425	
182	   N	1496.546	445.735	-1513.188	N.am	13	ARG13	-0.348	
183	  CA	1497.986	445.802	-1513.418	C.3	13	ARG13	-0.264	
184	   C	1498.323	445.432	-1514.843	C.2	13	ARG13	0.734	
185	   O	1499.092	446.104	-1515.526	O.2	13	ARG13	-0.589	
186	  CB	1498.700	444.864	-1512.404	C.3	13	ARG13	-0.001	
187	  CG	1500.244	445.018	-1512.322	C.3	13	ARG13	0.039	
188	  CD	1500.872	444.031	-1511.324	C.3	13	ARG13	0.049	
189	  NE	1502.349	444.239	-1511.273	N.pl3	13	ARG13	-0.530	
190	  CZ	1503.197	443.548	-1510.517	C.cat	13	ARG13	0.808	
191	 NH1	1502.832	442.583	-1509.720	N.pl3	13	ARG13	-0.863	
192	 NH2	1504.456	443.848	-1510.573	N.pl3	13	ARG13	-0.863	
193	   H	1496.170	445.145	-1512.460	 H	13	ARG13	0.275	
194	  HA	1498.309	446.849	-1513.259	 H	13	ARG13	0.156	
195	 2HB	1498.434	443.813	-1512.644	 H	13	ARG13	0.033	
196	 3HB	1498.273	445.029	-1511.394	 H	13	ARG13	0.033	
197	 2HG	1500.491	446.063	-1512.042	 H	13	ARG13	0.029	
198	 3HG	1500.696	444.863	-1513.323	 H	13	ARG13	0.029	
199	 2HD	1500.628	442.990	-1511.634	 H	13	ARG13	0.069	
200	 3HD	1500.414	444.176	-1510.322	 H	13	ARG13	0.069	
201	  HE	1502.799	444.962	-1511.843	 H	13	ARG13	0.346	
202	1HH1	1501.827	442.396	-1509.724	 H	13	ARG13	0.448	
203	2HH1	1503.545	442.100	-1509.172	 H	13	ARG13	0.448	
204	1HH2	1504.723	444.607	-1511.204	 H	13	ARG13	0.448	
205	2HH2	1505.091	443.307	-1509.984	 H	13	ARG13	0.448	
206	   N	1497.789	444.377	-1515.358	N.am	14	VAL14	-0.416	
207	  CA	1498.115	444.019	-1516.736	C.3	14	VAL14	-0.087	
208	   C	1497.784	445.149	-1517.681	C.2	14	VAL14	0.597	
209	   O	1498.578	445.531	-1518.550	O.2	14	VAL14	-0.568	
210	  CB	1497.344	442.701	-1517.144	C.3	14	VAL14	0.299	
211	 CG1	1497.435	442.284	-1518.637	C.3	14	VAL14	-0.319	
212	 CG2	1497.776	441.449	-1516.344	C.3	14	VAL14	-0.319	
213	   H	1497.154	443.808	-1514.817	 H	14	VAL14	0.272	
214	  HA	1499.203	443.843	-1516.810	 H	14	VAL14	0.097	
215	  HB	1496.267	442.871	-1516.929	 H	14	VAL14	-0.030	
216	1HG1	1498.476	442.108	-1518.966	 H	14	VAL14	0.079	
217	2HG1	1496.863	441.360	-1518.851	 H	14	VAL14	0.079	
218	3HG1	1497.005	443.046	-1519.316	 H	14	VAL14	0.079	
219	1HG2	1497.688	441.607	-1515.253	 H	14	VAL14	0.079	
220	2HG2	1497.142	440.572	-1516.577	 H	14	VAL14	0.079	
221	3HG2	1498.825	441.160	-1516.549	 H	14	VAL14	0.079	
222	   N	1496.639	445.734	-1517.580	N.am	15	MET15	-0.416	
223	  CA	1496.318	446.827	-1518.493	C.3	15	MET15	-0.024	
224	   C	1497.348	447.927	-1518.404	C.2	15	MET15	0.597	
225	   O	1497.851	448.439	-1519.416	O.2	15	MET15	-0.568	
226	  CB	1494.896	447.371	-1518.185	C.3	15	MET15	0.034	
227	  CG	1493.735	446.372	-1518.378	C.3	15	MET15	0.002	
228	  SD	1492.161	447.237	-1518.265	S.3	15	MET15	-0.274	
229	  CE	1491.080	445.807	-1518.130	C.3	15	MET15	-0.054	
230	   H	1495.974	445.440	-1516.879	 H	15	MET15	0.272	
231	  HA	1496.345	446.440	-1519.529	 H	15	MET15	0.088	
232	 2HB	1494.694	448.250	-1518.827	 H	15	MET15	0.024	
233	 3HB	1494.860	447.763	-1517.149	 H	15	MET15	0.024	
234	 2HG	1493.778	445.586	-1517.601	 H	15	MET15	0.044	
235	 3HG	1493.799	445.857	-1519.354	 H	15	MET15	0.044	
236	 1HE	1491.225	445.119	-1518.982	 H	15	MET15	0.068	
237	 2HE	1491.289	445.254	-1517.197	 H	15	MET15	0.068	
238	 3HE	1490.023	446.121	-1518.113	 H	15	MET15	0.068	
239	   N	1497.715	448.348	-1517.242	N.am	16	ARG16	-0.348	
240	  CA	1498.711	449.413	-1517.157	C.3	16	ARG16	-0.264	
241	   C	1499.982	449.022	-1517.872	C.2	16	ARG16	0.734	
242	   O	1500.098	447.945	-1518.454	O.2	16	ARG16	-0.589	
243	  CB	1498.979	449.730	-1515.658	C.3	16	ARG16	-0.001	
244	  CG	1499.802	451.020	-1515.384	C.3	16	ARG16	0.039	
245	  CD	1500.051	451.238	-1513.882	C.3	16	ARG16	0.049	
246	  NE	1500.826	452.498	-1513.680	N.pl3	16	ARG16	-0.530	
247	  CZ	1501.216	452.980	-1512.504	C.cat	16	ARG16	0.808	
248	 NH1	1500.968	452.394	-1511.366	N.pl3	16	ARG16	-0.863	
249	 NH2	1501.879	454.093	-1512.484	N.pl3	16	ARG16	-0.863	
250	   H	1497.320	447.947	-1516.403	 H	16	ARG16	0.275	
251	  HA	1498.301	450.305	-1517.666	 H	16	ARG16	0.156	
252	 2HB	1499.476	448.854	-1515.192	 H	16	ARG16	0.033	
253	 3HB	1498.010	449.810	-1515.125	 H	16	ARG16	0.033	
254	 2HG	1499.272	451.890	-1515.821	 H	16	ARG16	0.029	
255	 3HG	1500.777	450.968	-1515.912	 H	16	ARG16	0.029	
256	 2HD	1500.600	450.364	-1513.469	 H	16	ARG16	0.069	
257	 3HD	1499.078	451.280	-1513.348	 H	16	ARG16	0.069	
258	  HE	1501.105	453.079	-1514.477	 H	16	ARG16	0.346	
259	1HH1	1500.443	451.521	-1511.451	 H	16	ARG16	0.448	
260	2HH1	1501.302	452.830	-1510.504	 H	16	ARG16	0.448	
261	1HH2	1502.065	454.537	-1513.386	 H	16	ARG16	0.448	
262	2HH2	1502.169	454.448	-1511.571	 H	16	ARG16	0.448	
@<TRIPOS>BOND
1 1 2 1
2 1 10 1
3 2 3 1
4 2 5 1
5 2 11 1
6 3 4 2
7 3 16 1
8 5 6 1
9 6 7 1
10 7 8 2
11 7 9 1
12 5 12 1
13 5 13 1
14 6 14 1
15 6 15 1
16 16 17 1
17 16 24 1
18 17 18 1
19 17 20 1
20 17 25 1
21 18 19 2
22 18 30 1
23 20 21 1
24 21 22 1
25 21 23 2
26 20 26 1
27 20 27 1
28 22 28 1
29 22 29 1
30 30 31 1
31 30 36 1
32 31 32 1
33 31 34 1
34 31 37 1
35 32 33 2
36 32 44 1
37 34 35 1
38 35 36 1
39 34 38 1
40 34 39 1
41 35 40 1
42 35 41 1
43 36 42 1
44 36 43 1
45 44 45 1
46 44 53 1
47 45 46 1
48 45 48 1
49 45 54 1
50 46 47 2
51 46 59 1
52 48 49 1
53 49 50 1
54 50 51 2
55 50 52 1
56 48 55 1
57 48 56 1
58 49 57 1
59 49 58 1
60 59 60 1
61 59 65 1
62 60 61 1
63 60 63 1
64 60 66 1
65 61 62 2
66 61 70 1
67 63 64 1
68 63 67 1
69 63 68 1
70 64 69 1
71 70 71 1
72 70 78 1
73 71 72 1
74 71 74 1
75 71 79 1
76 72 73 2
77 72 89 1
78 74 75 1
79 74 76 1
80 75 77 1
81 74 80 1
82 75 81 1
83 75 82 1
84 76 83 1
85 76 84 1
86 76 85 1
87 77 86 1
88 77 87 1
89 77 88 1
90 89 90 1
91 89 97 1
92 90 91 1
93 90 93 1
94 90 98 1
95 91 92 2
96 91 108 1
97 93 94 1
98 94 95 1
99 94 96 1
100 93 99 1
101 93 100 1
102 94 101 1
103 95 102 1
104 95 103 1
105 95 104 1
106 96 105 1
107 96 106 1
108 96 107 1
109 108 109 1
110 108 116 1
111 109 110 1
112 109 112 1
113 109 117 1
114 110 111 2
115 110 120 1
116 112 113 1
117 113 114 2
118 113 115 1
119 112 118 1
120 112 119 1
121 120 121 1
122 120 128 1
123 121 122 1
124 121 124 1
125 121 129 1
126 122 123 2
127 122 132 1
128 124 125 1
129 125 126 2
130 125 127 1
131 124 130 1
132 124 131 1
133 132 133 1
134 132 142 1
135 133 134 1
136 133 136 1
137 133 143 1
138 134 135 2
139 134 149 1
140 136 137 1
141 137 138 2
142 138 141 1
143 137 139 1
144 139 140 2
145 140 141 1
146 136 144 1
147 136 145 1
148 138 146 1
149 140 147 1
150 141 148 1
151 149 150 1
152 149 156 1
153 150 151 1
154 150 153 1
155 150 157 1
156 151 152 2
157 151 165 1
158 153 154 1
159 153 155 1
160 153 158 1
161 154 159 1
162 154 160 1
163 154 161 1
164 155 162 1
165 155 163 1
166 155 164 1
167 165 166 1
168 165 174 1
169 166 167 1
170 166 169 1
171 166 175 1
172 167 168 2
173 167 182 1
174 169 170 1
175 170 171 1
176 171 172 1
177 171 173 2
178 169 176 1
179 169 177 1
180 170 178 1
181 170 179 1
182 172 180 1
183 172 181 1
184 182 183 1
185 182 193 1
186 183 184 1
187 183 186 1
188 183 194 1
189 184 185 2
190 184 206 1
191 186 187 1
192 187 188 1
193 188 189 1
194 189 190 1
195 190 191 2
196 190 192 1
197 186 195 1
198 186 196 1
199 187 197 1
200 187 198 1
201 188 199 1
202 188 200 1
203 189 201 1
204 191 202 1
205 191 203 1
206 192 204 1
207 192 205 1
208 206 207 1
209 206 213 1
210 207 208 1
211 207 210 1
212 207 214 1
213 208 209 2
214 208 222 1
215 210 211 1
216 210 212 1
217 210 215 1
218 211 216 1
219 211 217 1
220 211 218 1
221 212 219 1
222 212 220 1
223 212 221 1
224 222 223 1
225 222 230 1
226 223 224 1
227 223 226 1
228 223 231 1
229 224 225 2
230 224 239 1
231 226 227 1
232 227 228 1
233 228 229 1
234 226 232 1
235 226 233 1
236 227 234 1
237 227 235 1
238 229 236 1
239 229 237 1
240 229 238 1
241 239 240 1
242 239 250 1
243 240 241 1
244 240 243 1
245 240 251 1
246 241 242 2
247 243 244 1
248 244 245 1
249 245 246 1
250 246 247 1
251 247 248 2
252 247 249 1
253 243 252 1
254 243 253 1
255 244 254 1
256 244 255 1
257 245 256 1
258 245 257 1
259 246 258 1
260 248 259 1
261 248 260 1
262 249 261 1
263 249 262 1
@<TRIPOS>SUBSTRUCTURE
1	GLU1	1	RESIDUE	1 ****	GLU
2	ASN2	16	RESIDUE	1 ****	ASN
3	PRO3	30	RESIDUE	1 ****	PRO
4	GLU4	44	RESIDUE	1 ****	GLU
5	SER5	59	RESIDUE	1 ****	SER
6	ILE6	70	RESIDUE	1 ****	ILE
7	LEU7	89	RESIDUE	1 ****	LEU
8	ASP8	108	RESIDUE	1 ****	ASP
9	ASP9	120	RESIDUE	1 ****	ASP
10	HIS10	132	RESIDUE	1 ****	HIS
11	VAL11	149	RESIDUE	1 ****	VAL
12	GLN12	165	RESIDUE	1 ****	GLN
13	ARG13	182	RESIDUE	1 ****	ARG
14	VAL14	206	RESIDUE	1 ****	VAL
15	MET15	222	RESIDUE	1 ****	MET
16	ARG16	239	RESIDUE	1 ****	ARG
