@<TRIPOS>MOLECULE
1-15
264 265 16              
SMALL
USER_CHARGES
@<TRIPOS>ATOM
1	   N	123.603	20.979	-92.321	N.3	1	ASN1	-0.416	
2	  CA	124.187	22.317	-92.321	C.3	1	ASN1	0.014	
3	   C	125.696	22.248	-92.321	C.2	1	ASN1	0.597	
4	   O	126.381	22.929	-93.084	O.2	1	ASN1	-0.568	
5	  CB	123.672	23.108	-91.084	C.3	1	ASN1	-0.204	
6	  CG	122.154	23.259	-90.940	C.2	1	ASN1	0.713	
7	 ND2	121.537	24.150	-91.669	N.pl3	1	ASN1	-0.919	
8	 OD1	121.499	22.559	-90.182	O.2	1	ASN1	-0.593	
9	   H	124.213	20.088	-92.321	 H	1	ASN1	0.272	
10	  HA	123.883	22.832	-93.251	 H	1	ASN1	0.105	
11	 2HB	124.124	24.117	-91.056	 H	1	ASN1	0.080	
12	 3HB	124.033	22.621	-90.157	 H	1	ASN1	0.080	
13	1HD2	120.519	24.065	-91.610	 H	1	ASN1	0.420	
14	2HD2	122.098	24.654	-92.355	 H	1	ASN1	0.420	
15	   N	126.286	21.451	-91.496	N.am	2	ASN2	-0.416	
16	  CA	127.744	21.385	-91.496	C.3	2	ASN2	0.014	
17	   C	128.268	21.019	-92.864	C.2	2	ASN2	0.597	
18	   O	129.195	21.632	-93.393	O.2	2	ASN2	-0.568	
19	  CB	128.217	20.352	-90.432	C.3	2	ASN2	-0.204	
20	  CG	127.758	20.585	-88.988	C.2	2	ASN2	0.713	
21	 ND2	128.370	21.488	-88.270	N.pl3	2	ASN2	-0.919	
22	 OD1	126.825	19.969	-88.494	O.2	2	ASN2	-0.593	
23	   H	125.747	20.882	-90.859	 H	2	ASN2	0.272	
24	  HA	128.141	22.387	-91.251	 H	2	ASN2	0.105	
25	 2HB	129.320	20.272	-90.435	 H	2	ASN2	0.080	
26	 3HB	127.868	19.341	-90.717	 H	2	ASN2	0.080	
27	1HD2	127.892	21.671	-87.383	 H	2	ASN2	0.420	
28	2HD2	129.082	22.047	-88.739	 H	2	ASN2	0.420	
29	   N	127.728	20.034	-93.498	N.am	3	PRO3	-0.255	
30	  CA	128.172	19.616	-94.820	C.3	3	PRO3	-0.027	
31	   C	127.793	20.647	-95.897	C.2	3	PRO3	0.590	
32	   O	128.624	21.015	-96.728	O.2	3	PRO3	-0.575	
33	  CB	127.442	18.275	-94.989	C.3	3	PRO3	-0.007	
34	  CG	126.162	18.452	-94.159	C.3	3	PRO3	0.019	
35	  CD	126.635	19.262	-92.949	C.3	3	PRO3	0.019	
36	  HA	129.255	19.476	-94.834	 H	3	PRO3	0.064	
37	 2HB	128.050	17.482	-94.549	 H	3	PRO3	0.025	
38	 3HB	127.239	18.031	-96.035	 H	3	PRO3	0.025	
39	 2HG	125.716	17.498	-93.868	 H	3	PRO3	0.021	
40	 3HG	125.435	19.037	-94.726	 H	3	PRO3	0.021	
41	 2HD	127.012	18.605	-92.162	 H	3	PRO3	0.039	
42	 3HD	125.851	19.913	-92.556	 H	3	PRO3	0.039	
43	   N	126.597	21.130	-95.929	N.am	4	GLU4	-0.516	
44	  CA	126.256	22.108	-96.959	C.3	4	GLU4	0.040	
45	   C	127.178	23.301	-96.898	C.2	4	GLU4	0.537	
46	   O	127.713	23.771	-97.912	O.2	4	GLU4	-0.582	
47	  CB	124.776	22.555	-96.788	C.3	4	GLU4	0.056	
48	  CG	124.247	23.568	-97.854	C.3	4	GLU4	0.014	
49	  CD	122.830	24.092	-97.710	C.2	4	GLU4	0.805	
50	 OE1	122.096	23.708	-96.779	O.co2	4	GLU4	-0.819	
51	 OE2	122.456	24.929	-98.559	O.co2	4	GLU4	-0.819	
52	   H	125.908	20.836	-95.252	 H	4	GLU4	0.294	
53	  HA	126.378	21.635	-97.950	 H	4	GLU4	0.111	
54	 2HB	124.632	22.997	-95.782	 H	4	GLU4	-0.017	
55	 3HB	124.111	21.669	-96.795	 H	4	GLU4	-0.017	
56	 2HG	124.321	23.152	-98.872	 H	4	GLU4	-0.043	
57	 3HG	124.853	24.489	-97.865	 H	4	GLU4	-0.043	
58	   N	127.416	23.850	-95.754	N.am	5	SER5	-0.416	
59	  CA	128.308	25.004	-95.696	C.3	5	SER5	-0.025	
60	   C	129.660	24.673	-96.282	C.2	5	SER5	0.597	
61	   O	130.222	25.416	-97.087	O.2	5	SER5	-0.568	
62	  CB	128.429	25.534	-94.246	C.3	5	SER5	0.212	
63	  OG	129.144	24.641	-93.385	O.3	5	SER5	-0.655	
64	   H	126.992	23.486	-94.913	 H	5	SER5	0.272	
65	  HA	127.873	25.803	-96.325	 H	5	SER5	0.084	
66	 2HB	127.433	25.747	-93.812	 H	5	SER5	0.035	
67	 3HB	128.953	26.510	-94.248	 H	5	SER5	0.035	
68	  HG	128.640	23.826	-93.334	 H	5	SER5	0.428	
69	   N	130.244	23.579	-95.928	N.am	6	ILE6	-0.416	
70	  CA	131.552	23.259	-96.494	C.3	6	ILE6	-0.060	
71	   C	131.494	23.223	-98.002	C.2	6	ILE6	0.597	
72	   O	132.339	23.794	-98.706	O.2	6	ILE6	-0.568	
73	  CB	132.126	21.912	-95.894	C.3	6	ILE6	0.130	
74	 CG1	132.145	21.849	-94.333	C.3	6	ILE6	-0.043	
75	 CG2	133.561	21.583	-96.410	C.3	6	ILE6	-0.320	
76	 CD1	132.388	20.455	-93.718	C.3	6	ILE6	-0.066	
77	   H	129.804	22.953	-95.269	 H	6	ILE6	0.272	
78	  HA	132.242	24.080	-96.226	 H	6	ILE6	0.087	
79	  HB	131.453	21.098	-96.238	 H	6	ILE6	0.019	
80	2HG1	131.169	22.187	-93.937	 H	6	ILE6	0.024	
81	3HG1	132.874	22.578	-93.929	 H	6	ILE6	0.024	
82	1HG2	133.618	21.488	-97.508	 H	6	ILE6	0.088	
83	2HG2	134.298	22.351	-96.107	 H	6	ILE6	0.088	
84	3HG2	133.933	20.613	-96.031	 H	6	ILE6	0.088	
85	1HD1	131.646	19.715	-94.073	 H	6	ILE6	0.019	
86	2HD1	133.391	20.057	-93.954	 H	6	ILE6	0.019	
87	3HD1	132.313	20.486	-92.615	 H	6	ILE6	0.019	
88	   N	130.535	22.577	-98.576	N.am	7	LEU7	-0.416	
89	  CA	130.480	22.542	-100.034	C.3	7	LEU7	-0.052	
90	   C	130.434	23.938	-100.606	C.2	7	LEU7	0.597	
91	   O	131.161	24.288	-101.548	O.2	7	LEU7	-0.568	
92	  CB	129.261	21.705	-100.514	C.3	7	LEU7	-0.110	
93	  CG	129.160	20.227	-100.048	C.3	7	LEU7	0.353	
94	 CD1	127.957	19.544	-100.713	C.3	7	LEU7	-0.412	
95	 CD2	130.438	19.424	-100.340	C.3	7	LEU7	-0.412	
96	   H	129.834	22.103	-98.024	 H	7	LEU7	0.272	
97	  HA	131.413	22.084	-100.408	 H	7	LEU7	0.092	
98	 2HB	129.238	21.721	-101.622	 H	7	LEU7	0.046	
99	 3HB	128.331	22.225	-100.210	 H	7	LEU7	0.046	
100	  HG	128.990	20.222	-98.951	 H	7	LEU7	-0.036	
101	1HD1	127.009	20.071	-100.491	 H	7	LEU7	0.100	
102	2HD1	128.055	19.502	-101.815	 H	7	LEU7	0.100	
103	3HD1	127.830	18.505	-100.357	 H	7	LEU7	0.100	
104	1HD2	130.714	19.449	-101.410	 H	7	LEU7	0.100	
105	2HD2	131.299	19.819	-99.768	 H	7	LEU7	0.100	
106	3HD2	130.337	18.363	-100.044	 H	7	LEU7	0.100	
107	   N	129.613	24.795	-100.100	N.am	8	ASP8	-0.516	
108	  CA	129.568	26.145	-100.653	C.3	8	ASP8	0.038	
109	   C	130.927	26.800	-100.596	C.2	8	ASP8	0.537	
110	   O	131.411	27.396	-101.571	O.2	8	ASP8	-0.582	
111	  CB	128.506	27.004	-99.911	C.3	8	ASP8	-0.030	
112	  CG	128.313	28.429	-100.452	C.2	8	ASP8	0.799	
113	 OD1	128.381	28.627	-101.682	O.co2	8	ASP8	-0.801	
114	 OD2	128.139	29.358	-99.636	O.co2	8	ASP8	-0.801	
115	   H	129.010	24.535	-99.332	 H	8	ASP8	0.294	
116	  HA	129.283	26.073	-101.720	 H	8	ASP8	0.088	
117	 2HB	128.764	27.083	-98.839	 H	8	ASP8	-0.012	
118	 3HB	127.517	26.518	-99.944	 H	8	ASP8	-0.012	
119	   N	131.606	26.737	-99.501	N.am	9	GLU9	-0.516	
120	  CA	132.920	27.370	-99.446	C.3	9	GLU9	0.040	
121	   C	133.828	26.825	-100.521	C.2	9	GLU9	0.537	
122	   O	134.506	27.567	-101.247	O.2	9	GLU9	-0.582	
123	  CB	133.550	27.150	-98.040	C.3	9	GLU9	0.056	
124	  CG	134.945	27.816	-97.811	C.3	9	GLU9	0.014	
125	  CD	135.643	27.590	-96.483	C.2	9	GLU9	0.805	
126	 OE1	135.109	26.908	-95.586	O.co2	9	GLU9	-0.819	
127	 OE2	136.772	28.106	-96.351	O.co2	9	GLU9	-0.819	
128	   H	131.233	26.257	-98.694	 H	9	GLU9	0.294	
129	  HA	132.799	28.454	-99.621	 H	9	GLU9	0.111	
130	 2HB	133.643	26.064	-97.837	 H	9	GLU9	-0.017	
131	 3HB	132.860	27.516	-97.256	 H	9	GLU9	-0.017	
132	 2HG	134.894	28.908	-97.950	 H	9	GLU9	-0.043	
133	 3HG	135.685	27.457	-98.545	 H	9	GLU9	-0.043	
134	   N	133.901	25.548	-100.691	N.am	10	HIS10	-0.416	
135	  CA	134.779	25.020	-101.732	C.3	10	HIS10	-0.058	
136	   C	134.423	25.592	-103.083	C.2	10	HIS10	0.597	
137	   O	135.284	26.041	-103.854	O.2	10	HIS10	-0.568	
138	  CB	134.586	23.495	-101.727	C.3	10	HIS10	-0.007	
139	  CG	135.858	22.761	-101.419	C.2	10	HIS10	0.187	
140	 CD2	136.233	22.418	-100.126	C.2	10	HIS10	-0.221	
141	 ND1	136.803	22.337	-102.352	N.2	10	HIS10	-0.543	
142	 CE1	137.698	21.762	-101.528	C.2	10	HIS10	0.163	
143	 NE2	137.436	21.764	-100.193	N.pl3	10	HIS10	-0.280	
144	   H	133.358	24.923	-100.113	 H	10	HIS10	0.272	
145	  HA	135.805	25.359	-101.506	 H	10	HIS10	0.136	
146	 2HB	134.214	23.135	-102.707	 H	10	HIS10	0.037	
147	 3HB	133.824	23.172	-100.987	 H	10	HIS10	0.037	
148	 2HD	135.652	22.644	-99.237	 H	10	HIS10	0.186	
149	 1HE	138.581	21.324	-101.975	 H	10	HIS10	0.144	
150	 2HE	137.995	21.376	-99.420	 H	10	HIS10	0.334	
151	   N	133.185	25.614	-103.446	N.am	11	VAL11	-0.416	
152	  CA	132.840	26.167	-104.752	C.3	11	VAL11	-0.087	
153	   C	133.331	27.589	-104.885	C.2	11	VAL11	0.597	
154	   O	133.940	27.983	-105.887	O.2	11	VAL11	-0.568	
155	  CB	131.277	26.090	-104.972	C.3	11	VAL11	0.299	
156	 CG1	130.722	26.804	-106.234	C.3	11	VAL11	-0.319	
157	 CG2	130.725	24.646	-105.045	C.3	11	VAL11	-0.319	
158	   H	132.465	25.255	-102.835	 H	11	VAL11	0.272	
159	  HA	133.349	25.575	-105.535	 H	11	VAL11	0.097	
160	  HB	130.799	26.579	-104.096	 H	11	VAL11	-0.030	
161	1HG1	131.153	26.405	-107.171	 H	11	VAL11	0.079	
162	2HG1	129.621	26.718	-106.316	 H	11	VAL11	0.079	
163	3HG1	130.920	27.893	-106.225	 H	11	VAL11	0.079	
164	1HG2	131.004	24.053	-104.154	 H	11	VAL11	0.079	
165	2HG2	129.619	24.630	-105.088	 H	11	VAL11	0.079	
166	3HG2	131.097	24.098	-105.932	 H	11	VAL11	0.079	
167	   N	133.110	28.419	-103.922	N.am	12	GLN12	-0.416	
168	  CA	133.584	29.793	-104.049	C.3	12	GLN12	-0.003	
169	   C	135.075	29.833	-104.287	C.2	12	GLN12	0.597	
170	   O	135.575	30.532	-105.165	O.2	12	GLN12	-0.568	
171	  CB	133.208	30.568	-102.766	C.3	12	GLN12	-0.004	
172	  CG	133.596	32.082	-102.735	C.3	12	GLN12	-0.064	
173	  CD	133.309	32.901	-101.470	C.2	12	GLN12	0.695	
174	 NE2	132.731	32.335	-100.441	N.pl3	12	GLN12	-0.941	
175	 OE1	133.633	34.076	-101.392	O.2	12	GLN12	-0.609	
176	   H	132.615	28.122	-103.093	 H	12	GLN12	0.272	
177	  HA	133.093	30.259	-104.924	 H	12	GLN12	0.085	
178	 2HB	133.674	30.058	-101.897	 H	12	GLN12	0.017	
179	 3HB	132.115	30.480	-102.603	 H	12	GLN12	0.017	
180	 2HG	133.129	32.612	-103.585	 H	12	GLN12	0.035	
181	 3HG	134.682	32.204	-102.900	 H	12	GLN12	0.035	
182	1HE2	132.635	32.931	-99.617	 H	12	GLN12	0.425	
183	2HE2	132.549	31.335	-100.545	 H	12	GLN12	0.425	
184	   N	135.846	29.111	-103.546	N.am	13	ARG13	-0.348	
185	  CA	137.287	29.150	-103.777	C.3	13	ARG13	-0.264	
186	   C	137.617	28.773	-105.202	C.2	13	ARG13	0.734	
187	   O	138.398	29.430	-105.886	O.2	13	ARG13	-0.589	
188	  CB	137.983	28.198	-102.763	C.3	13	ARG13	-0.001	
189	  CG	139.531	28.322	-102.682	C.3	13	ARG13	0.039	
190	  CD	140.139	27.322	-101.684	C.3	13	ARG13	0.049	
191	  NE	141.620	27.502	-101.634	N.pl3	13	ARG13	-0.530	
192	  CZ	142.455	26.794	-100.879	C.cat	13	ARG13	0.808	
193	 NH1	142.072	25.837	-100.082	N.pl3	13	ARG13	-0.863	
194	 NH2	143.720	27.070	-100.936	N.pl3	13	ARG13	-0.863	
195	   H	135.459	28.528	-102.818	 H	13	ARG13	0.275	
196	  HA	137.631	30.190	-103.618	 H	13	ARG13	0.156	
197	 2HB	137.697	27.152	-103.002	 H	13	ARG13	0.033	
198	 3HB	137.561	28.372	-101.752	 H	13	ARG13	0.033	
199	 2HG	139.798	29.362	-102.402	 H	13	ARG13	0.029	
200	 3HG	139.978	28.157	-103.684	 H	13	ARG13	0.029	
201	 2HD	139.875	26.287	-101.994	 H	13	ARG13	0.069	
202	 3HD	139.685	27.476	-100.682	 H	13	ARG13	0.069	
203	  HE	142.084	28.216	-102.205	 H	13	ARG13	0.346	
204	1HH1	141.063	25.670	-100.085	 H	13	ARG13	0.448	
205	2HH1	142.776	25.340	-99.533	 H	13	ARG13	0.448	
206	1HH2	144.001	27.823	-101.567	 H	13	ARG13	0.448	
207	2HH2	144.345	26.517	-100.347	 H	13	ARG13	0.448	
208	   N	137.061	27.728	-105.716	N.am	14	VAL14	-0.416	
209	  CA	137.379	27.363	-107.094	C.3	14	VAL14	-0.087	
210	   C	137.070	28.499	-108.039	C.2	14	VAL14	0.597	
211	   O	137.870	28.866	-108.909	O.2	14	VAL14	-0.568	
212	  CB	136.582	26.061	-107.501	C.3	14	VAL14	0.299	
213	 CG1	136.663	25.641	-108.995	C.3	14	VAL14	-0.319	
214	 CG2	136.990	24.801	-106.701	C.3	14	VAL14	-0.319	
215	   H	136.415	27.172	-105.175	 H	14	VAL14	0.272	
216	  HA	138.464	27.166	-107.169	 H	14	VAL14	0.097	
217	  HB	135.509	26.252	-107.285	 H	14	VAL14	-0.030	
218	1HG1	137.701	25.445	-109.324	 H	14	VAL14	0.079	
219	2HG1	136.073	24.729	-109.208	 H	14	VAL14	0.079	
220	3HG1	136.248	26.412	-109.673	 H	14	VAL14	0.079	
221	1HG2	136.906	24.961	-105.611	 H	14	VAL14	0.079	
222	2HG2	136.338	23.936	-106.933	 H	14	VAL14	0.079	
223	3HG2	138.032	24.491	-106.907	 H	14	VAL14	0.079	
224	   N	135.936	29.107	-107.938	N.am	15	MET15	-0.416	
225	  CA	135.636	30.205	-108.851	C.3	15	MET15	-0.024	
226	   C	136.687	31.286	-108.763	C.2	15	MET15	0.597	
227	   O	137.199	31.787	-109.776	O.2	15	MET15	-0.568	
228	  CB	134.226	30.777	-108.542	C.3	15	MET15	0.034	
229	  CG	133.045	29.801	-108.734	C.3	15	MET15	0.002	
230	  SD	131.488	30.697	-108.619	S.3	15	MET15	-0.274	
231	  CE	130.380	29.287	-108.483	C.3	15	MET15	-0.054	
232	   H	135.266	28.826	-107.236	 H	15	MET15	0.272	
233	  HA	135.655	29.818	-109.887	 H	15	MET15	0.088	
234	 2HB	134.040	31.660	-109.184	 H	15	MET15	0.024	
235	 3HB	134.197	31.170	-107.506	 H	15	MET15	0.024	
236	 2HG	133.073	29.015	-107.956	 H	15	MET15	0.044	
237	 3HG	133.098	29.285	-109.710	 H	15	MET15	0.044	
238	 1HE	130.511	28.597	-109.335	 H	15	MET15	0.068	
239	 2HE	130.579	28.731	-107.550	 H	15	MET15	0.068	
240	 3HE	129.328	29.622	-108.466	 H	15	MET15	0.068	
241	   N	137.064	31.699	-107.601	N.am	16	ARG16	-0.348	
242	  CA	138.080	32.744	-107.517	C.3	16	ARG16	-0.264	
243	   C	139.343	32.328	-108.233	C.2	16	ARG16	0.734	
244	   O	139.437	31.250	-108.815	O.2	16	ARG16	-0.589	
245	  CB	138.355	33.057	-106.018	C.3	16	ARG16	-0.001	
246	  CG	139.204	34.330	-105.745	C.3	16	ARG16	0.039	
247	  CD	139.458	34.545	-104.244	C.3	16	ARG16	0.049	
248	  NE	140.257	35.789	-104.043	N.pl3	16	ARG16	-0.530	
249	  CZ	140.658	36.264	-102.867	C.cat	16	ARG16	0.808	
250	 NH1	140.399	35.684	-101.729	N.pl3	16	ARG16	-0.863	
251	 NH2	141.342	37.363	-102.849	N.pl3	16	ARG16	-0.863	
252	   H	136.661	31.307	-106.762	 H	16	ARG16	0.275	
253	  HA	137.688	33.645	-108.027	 H	16	ARG16	0.156	
254	 2HB	138.835	32.172	-105.552	 H	16	ARG16	0.033	
255	 3HB	137.388	33.156	-105.485	 H	16	ARG16	0.033	
256	 2HG	138.690	35.211	-106.182	 H	16	ARG16	0.029	
257	 3HG	140.176	34.259	-106.274	 H	16	ARG16	0.029	
258	 2HD	139.990	33.660	-103.831	 H	16	ARG16	0.069	
259	 3HD	138.486	34.605	-103.709	 H	16	ARG16	0.069	
260	  HE	140.547	36.365	-104.840	 H	16	ARG16	0.346	
261	1HH1	139.857	34.821	-101.813	 H	16	ARG16	0.448	
262	2HH1	140.742	36.113	-100.868	 H	16	ARG16	0.448	
263	1HH2	141.536	37.803	-103.750	 H	16	ARG16	0.448	
264	2HH2	141.639	37.713	-101.936	 H	16	ARG16	0.448	
@<TRIPOS>BOND
1 1 2 1
2 1 9 1
3 2 3 1
4 2 5 1
5 2 10 1
6 3 4 2
7 3 15 1
8 5 6 1
9 6 7 1
10 6 8 2
11 5 11 1
12 5 12 1
13 7 13 1
14 7 14 1
15 15 16 1
16 15 23 1
17 16 17 1
18 16 19 1
19 16 24 1
20 17 18 2
21 17 29 1
22 19 20 1
23 20 21 1
24 20 22 2
25 19 25 1
26 19 26 1
27 21 27 1
28 21 28 1
29 29 30 1
30 29 35 1
31 30 31 1
32 30 33 1
33 30 36 1
34 31 32 2
35 31 43 1
36 33 34 1
37 34 35 1
38 33 37 1
39 33 38 1
40 34 39 1
41 34 40 1
42 35 41 1
43 35 42 1
44 43 44 1
45 43 52 1
46 44 45 1
47 44 47 1
48 44 53 1
49 45 46 2
50 45 58 1
51 47 48 1
52 48 49 1
53 49 50 2
54 49 51 1
55 47 54 1
56 47 55 1
57 48 56 1
58 48 57 1
59 58 59 1
60 58 64 1
61 59 60 1
62 59 62 1
63 59 65 1
64 60 61 2
65 60 69 1
66 62 63 1
67 62 66 1
68 62 67 1
69 63 68 1
70 69 70 1
71 69 77 1
72 70 71 1
73 70 73 1
74 70 78 1
75 71 72 2
76 71 88 1
77 73 74 1
78 73 75 1
79 74 76 1
80 73 79 1
81 74 80 1
82 74 81 1
83 75 82 1
84 75 83 1
85 75 84 1
86 76 85 1
87 76 86 1
88 76 87 1
89 88 89 1
90 88 96 1
91 89 90 1
92 89 92 1
93 89 97 1
94 90 91 2
95 90 107 1
96 92 93 1
97 93 94 1
98 93 95 1
99 92 98 1
100 92 99 1
101 93 100 1
102 94 101 1
103 94 102 1
104 94 103 1
105 95 104 1
106 95 105 1
107 95 106 1
108 107 108 1
109 107 115 1
110 108 109 1
111 108 111 1
112 108 116 1
113 109 110 2
114 109 119 1
115 111 112 1
116 112 113 2
117 112 114 1
118 111 117 1
119 111 118 1
120 119 120 1
121 119 128 1
122 120 121 1
123 120 123 1
124 120 129 1
125 121 122 2
126 121 134 1
127 123 124 1
128 124 125 1
129 125 126 2
130 125 127 1
131 123 130 1
132 123 131 1
133 124 132 1
134 124 133 1
135 134 135 1
136 134 144 1
137 135 136 1
138 135 138 1
139 135 145 1
140 136 137 2
141 136 151 1
142 138 139 1
143 139 140 2
144 140 143 1
145 139 141 1
146 141 142 2
147 142 143 1
148 138 146 1
149 138 147 1
150 140 148 1
151 142 149 1
152 143 150 1
153 151 152 1
154 151 158 1
155 152 153 1
156 152 155 1
157 152 159 1
158 153 154 2
159 153 167 1
160 155 156 1
161 155 157 1
162 155 160 1
163 156 161 1
164 156 162 1
165 156 163 1
166 157 164 1
167 157 165 1
168 157 166 1
169 167 168 1
170 167 176 1
171 168 169 1
172 168 171 1
173 168 177 1
174 169 170 2
175 169 184 1
176 171 172 1
177 172 173 1
178 173 174 1
179 173 175 2
180 171 178 1
181 171 179 1
182 172 180 1
183 172 181 1
184 174 182 1
185 174 183 1
186 184 185 1
187 184 195 1
188 185 186 1
189 185 188 1
190 185 196 1
191 186 187 2
192 186 208 1
193 188 189 1
194 189 190 1
195 190 191 1
196 191 192 1
197 192 193 2
198 192 194 1
199 188 197 1
200 188 198 1
201 189 199 1
202 189 200 1
203 190 201 1
204 190 202 1
205 191 203 1
206 193 204 1
207 193 205 1
208 194 206 1
209 194 207 1
210 208 209 1
211 208 215 1
212 209 210 1
213 209 212 1
214 209 216 1
215 210 211 2
216 210 224 1
217 212 213 1
218 212 214 1
219 212 217 1
220 213 218 1
221 213 219 1
222 213 220 1
223 214 221 1
224 214 222 1
225 214 223 1
226 224 225 1
227 224 232 1
228 225 226 1
229 225 228 1
230 225 233 1
231 226 227 2
232 226 241 1
233 228 229 1
234 229 230 1
235 230 231 1
236 228 234 1
237 228 235 1
238 229 236 1
239 229 237 1
240 231 238 1
241 231 239 1
242 231 240 1
243 241 242 1
244 241 252 1
245 242 243 1
246 242 245 1
247 242 253 1
248 243 244 2
249 245 246 1
250 246 247 1
251 247 248 1
252 248 249 1
253 249 250 2
254 249 251 1
255 245 254 1
256 245 255 1
257 246 256 1
258 246 257 1
259 247 258 1
260 247 259 1
261 248 260 1
262 250 261 1
263 250 262 1
264 251 263 1
265 251 264 1
@<TRIPOS>SUBSTRUCTURE
1	ASN1	1	RESIDUE	1 ****	ASN
2	ASN2	15	RESIDUE	1 ****	ASN
3	PRO3	29	RESIDUE	1 ****	PRO
4	GLU4	43	RESIDUE	1 ****	GLU
5	SER5	58	RESIDUE	1 ****	SER
6	ILE6	69	RESIDUE	1 ****	ILE
7	LEU7	88	RESIDUE	1 ****	LEU
8	ASP8	107	RESIDUE	1 ****	ASP
9	GLU9	119	RESIDUE	1 ****	GLU
10	HIS10	134	RESIDUE	1 ****	HIS
11	VAL11	151	RESIDUE	1 ****	VAL
12	GLN12	167	RESIDUE	1 ****	GLN
13	ARG13	184	RESIDUE	1 ****	ARG
14	VAL14	208	RESIDUE	1 ****	VAL
15	MET15	224	RESIDUE	1 ****	MET
16	ARG16	241	RESIDUE	1 ****	ARG
