REMARK WARNING: 32 MAX_TORS EXCEEDED!!!
REMARK  66 active torsions:
REMARK  status: ('A' for Active; 'I' for Inactive)
REMARK    1  A    between atoms: N_1  and  CA_2 
REMARK    2  A    between atoms: CA_2  and  C_3 
REMARK    3  A    between atoms: CA_2  and  CB_5 
REMARK       I    between atoms: C_3  and  N_11 
REMARK    4  A    between atoms: CB_5  and  CG_6 
REMARK    5  A    between atoms: CG_6  and  CD_7 
REMARK    6  A    between atoms: N_11  and  CA_12 
REMARK    7  A    between atoms: CA_12  and  C_13 
REMARK    8  A    between atoms: CA_12  and  CB_15 
REMARK       I    between atoms: C_13  and  N_22 
REMARK    9  A    between atoms: CB_15  and  CG_16 
REMARK       I    between atoms: CG_16  and  ND2_17 
REMARK   10  A    between atoms: CA_23  and  C_24 
REMARK       I    between atoms: C_24  and  N_29 
REMARK   11  A    between atoms: N_29  and  CA_30 
REMARK   12  A    between atoms: CA_30  and  C_31 
REMARK   13  A    between atoms: CA_30  and  CB_33 
REMARK       I    between atoms: C_31  and  N_39 
REMARK   14  A    between atoms: CB_33  and  CG_34 
REMARK   15  A    between atoms: CG_34  and  CD_35 
REMARK   16  A    between atoms: N_39  and  CA_40 
REMARK   17  A    between atoms: CA_40  and  C_41 
REMARK   18  A    between atoms: CA_40  and  CB_43 
REMARK       I    between atoms: C_41  and  N_47 
REMARK   19  A    between atoms: CB_43  and  OG_44 
REMARK   20  A    between atoms: N_47  and  CA_48 
REMARK   21  A    between atoms: CA_48  and  C_49 
REMARK   22  A    between atoms: CA_48  and  CB_51 
REMARK       I    between atoms: C_49  and  N_56 
REMARK   23  A    between atoms: CB_51  and  CG1_52 
REMARK   24  A    between atoms: N_56  and  CA_57 
REMARK   25  A    between atoms: CA_57  and  C_58 
REMARK   26  A    between atoms: CA_57  and  CB_60 
REMARK       I    between atoms: C_58  and  N_65 
REMARK   27  A    between atoms: CB_60  and  CG_61 
REMARK   28  A    between atoms: N_65  and  CA_66 
REMARK   29  A    between atoms: CA_66  and  C_67 
REMARK   30  A    between atoms: CA_66  and  CB_69 
REMARK       I    between atoms: C_67  and  N_74 
REMARK   31  A    between atoms: CB_69  and  CG_70 
REMARK   32  A    between atoms: N_74  and  CA_75 
REMARK   33  A    between atoms: CA_75  and  C_76 
REMARK   34  A    between atoms: CA_75  and  CB_78 
REMARK       I    between atoms: C_76  and  N_84 
REMARK   35  A    between atoms: CB_78  and  CG_79 
REMARK   36  A    between atoms: CG_79  and  CD_80 
REMARK   37  A    between atoms: N_84  and  CA_85 
REMARK   38  A    between atoms: CA_85  and  C_86 
REMARK   39  A    between atoms: CA_85  and  CB_88 
REMARK       I    between atoms: C_86  and  N_96 
REMARK   40  A    between atoms: CB_88  and  CG_89 
REMARK   41  A    between atoms: N_96  and  CA_97 
REMARK   42  A    between atoms: CA_97  and  C_98 
REMARK   43  A    between atoms: CA_97  and  CB_100 
REMARK       I    between atoms: C_98  and  N_104 
REMARK   44  A    between atoms: N_104  and  CA_105 
REMARK   45  A    between atoms: CA_105  and  C_106 
REMARK   46  A    between atoms: CA_105  and  CB_108 
REMARK       I    between atoms: C_106  and  N_116 
REMARK   47  A    between atoms: CB_108  and  CG_109 
REMARK   48  A    between atoms: CG_109  and  CD_110 
REMARK       I    between atoms: CD_110  and  NE2_111 
REMARK   49  A    between atoms: N_116  and  CA_117 
REMARK   50  A    between atoms: CA_117  and  C_118 
REMARK   51  A    between atoms: CA_117  and  CB_120 
REMARK       I    between atoms: C_118  and  N_125 
REMARK   52  A    between atoms: CB_120  and  CG1_121 
REMARK   53  A    between atoms: N_125  and  CA_126 
REMARK   54  A    between atoms: CA_126  and  C_127 
REMARK   55  A    between atoms: CA_126  and  CB_129 
REMARK       I    between atoms: C_127  and  N_133 
REMARK   56  A    between atoms: N_133  and  CA_134 
REMARK   57  A    between atoms: CA_134  and  C_135 
REMARK   58  A    between atoms: CA_134  and  CB_137 
REMARK       I    between atoms: C_135  and  N_142 
REMARK   59  A    between atoms: CB_137  and  CG_138 
REMARK   60  A    between atoms: CG_138  and  SD_139 
REMARK   61  A    between atoms: N_142  and  CA_143 
REMARK   62  A    between atoms: CA_143  and  C_144 
REMARK   63  A    between atoms: CA_143  and  CB_146 
REMARK   64  A    between atoms: CB_146  and  CG_147 
REMARK   65  A    between atoms: CG_147  and  CD_148 
REMARK   66  A    between atoms: CD_148  and  NE_149 
REMARK       I    between atoms: NE_149  and  CZ_150 
REMARK       I    between atoms: CZ_150  and  NH1_151 
ROOT
ATOM      1  CA  GLU d   9    2058.131 627.406-2123.083  0.00  0.00     0.177 C 
ENDROOT
BRANCH   1   2
ATOM      2  N   GLU d   9    2056.827 626.749-2123.138  0.00  0.00    -0.346 N 
ATOM      3  C   ASP d   8    2056.147 626.799-2124.233  0.00  0.00     0.241 C 
ATOM      4  O   ASP d   8    2056.620 627.403-2125.208  0.00  0.00    -0.271 OA
ATOM      5  H   GLU d   9    2056.464 626.263-2122.331  0.00  0.00     0.163 HD
BRANCH   3   6
ATOM      6  CA  ASP d   8    2054.800 626.120-2124.290  0.00  0.00     0.186 C 
BRANCH   6   7
ATOM      7  N   ASP d   8    2054.870 624.770-2123.736  0.00  0.00    -0.346 N 
ATOM      8  C   LEU d   7    2055.707 623.929-2124.242  0.00  0.00     0.241 C 
ATOM      9  O   LEU d   7    2056.428 624.291-2125.184  0.00  0.00    -0.271 OA
ATOM     10  H   ASP d   8    2054.272 624.500-2122.968  0.00  0.00     0.163 HD
BRANCH   8  11
ATOM     11  CA  LEU d   7    2055.779 622.534-2123.669  0.00  0.00     0.177 C 
BRANCH  11  12
ATOM     12  N   LEU d   7    2055.834 622.570-2122.210  0.00  0.00    -0.346 N 
ATOM     13  C   ILE d   6    2056.780 623.233-2121.637  0.00  0.00     0.241 C 
ATOM     14  O   ILE d   6    2057.615 623.820-2122.341  0.00  0.00    -0.271 OA
ATOM     15  H   LEU d   7    2055.142 622.083-2121.659  0.00  0.00     0.163 HD
BRANCH  13  16
ATOM     16  CA  ILE d   6    2056.837 623.271-2120.129  0.00  0.00     0.180 C 
BRANCH  16  17
ATOM     17  N   ILE d   6    2055.524 623.566-2119.563  0.00  0.00    -0.346 N 
ATOM     18  C   SER d   5    2054.920 624.650-2119.917  0.00  0.00     0.243 C 
ATOM     19  O   SER d   5    2055.468 625.403-2120.722  0.00  0.00    -0.271 OA
ATOM     20  H   ILE d   6    2055.095 622.932-2118.904  0.00  0.00     0.163 HD
BRANCH  18  21
ATOM     21  CA  SER d   5    2053.561 624.956-2119.332  0.00  0.00     0.200 C 
BRANCH  21  22
ATOM     22  N   SER d   5    2052.691 623.785-2119.391  0.00  0.00    -0.344 N 
ATOM     23  C   GLU d   4    2052.464 623.232-2120.534  0.00  0.00     0.241 C 
ATOM     24  O   GLU d   4    2052.991 623.711-2121.548  0.00  0.00    -0.271 OA
ATOM     25  H   SER d   5    2052.273 623.413-2118.550  0.00  0.00     0.163 HD
BRANCH  23  26
ATOM     26  CA  GLU d   4    2051.565 622.021-2120.596  0.00  0.00     0.177 C 
BRANCH  26  27
ATOM     27  N   GLU d   4    2051.924 621.050-2119.566  0.00  0.00    -0.346 N 
ATOM     28  C   PRO d   3    2053.129 620.590-2119.533  0.00  0.00     0.241 C 
ATOM     29  O   PRO d   3    2053.952 620.973-2120.365  0.00  0.00    -0.271 OA
ATOM     30  H   GLU d   4    2051.239 620.744-2118.889  0.00  0.00     0.163 HD
BRANCH  28  31
ATOM     31  CA  PRO d   3    2053.526 619.566-2118.456  0.00  0.00     0.179 C 
ATOM     32  N   PRO d   3    2053.074 619.976-2117.135  0.00  0.00    -0.337 N 
ATOM     33  C   ASN d   2    2053.596 620.971-2116.500  0.00  0.00     0.243 C 
ATOM     34  CD  PRO d   3    2051.996 619.183-2116.586  0.00  0.00     0.127 C 
ATOM     35  O   ASN d   2    2054.511 621.601-2117.029  0.00  0.00    -0.271 OA
ATOM     36  CG  PRO d   3    2051.538 618.364-2117.796  0.00  0.00     0.022 C 
ATOM     37  CB  PRO d   3    2052.822 618.212-2118.626  0.00  0.00     0.037 C 
BRANCH  33  38
ATOM     38  CA  ASN d   2    2053.064 621.326-2115.132  0.00  0.00     0.185 C 
BRANCH  38  39
ATOM     39  N   ASN d   2    2051.605 621.365-2115.132  0.00  0.00    -0.346 N 
ATOM     40  C   GLU d   1    2051.000 622.151-2115.957  0.00  0.00     0.242 C 
ATOM     41  O   GLU d   1    2051.676 622.850-2116.726  0.00  0.00    -0.271 OA
ATOM     42  H   ASN d   2    2051.077 620.786-2114.496  0.00  0.00     0.163 HD
BRANCH  40  43
ATOM     43  CA  GLU d   1    2049.491 622.191-2115.957  0.00  0.00     0.191 C 
BRANCH  43  44
ATOM     44  N   GLU d   1    2048.932 620.842-2115.957  0.00  0.00    -0.326 NA
ATOM     45  H   GLU d   1    2049.559 619.963-2115.957  0.00  0.00     0.180 HD
ENDBRANCH  43  44
BRANCH  43  46
ATOM     46  CB  GLU d   1    2048.968 622.976-2114.720  0.00  0.00     0.047 C 
BRANCH  46  47
ATOM     47  CG  GLU d   1    2049.443 624.461-2114.609  0.00  0.00     0.116 C 
BRANCH  47  48
ATOM     48  CD  GLU d   1    2049.019 625.265-2113.394  0.00  0.00     0.172 C 
ATOM     49  OE1 GLU d   1    2048.291 624.763-2112.516  0.00  0.00    -0.648 OA
ATOM     50  OE2 GLU d   1    2049.449 626.435-2113.322  0.00  0.00    -0.648 OA
ENDBRANCH  47  48
ENDBRANCH  46  47
ENDBRANCH  43  46
ENDBRANCH  40  43
ENDBRANCH  38  39
BRANCH  38  51
ATOM     51  CB  ASN d   2    2053.556 620.303-2114.067  0.00  0.00     0.137 C 
BRANCH  51  52
ATOM     52  CG  ASN d   2    2053.093 620.527-2112.624  0.00  0.00     0.217 C 
ATOM     53  ND2 ASN d   2    2053.687 621.442-2111.906  0.00  0.00    -0.370 N 
ATOM     54 21HD ASN d   2    2053.206 621.615-2111.020  0.00  0.00     0.159 HD
ATOM     55 22HD ASN d   2    2054.388 622.013-2112.375  0.00  0.00     0.159 HD
ATOM     56  OD1 ASN d   2    2052.171 619.894-2112.130  0.00  0.00    -0.274 OA
ENDBRANCH  51  52
ENDBRANCH  38  51
ENDBRANCH  33  38
ENDBRANCH  28  31
ENDBRANCH  26  27
BRANCH  26  57
ATOM     57  CB  GLU d   4    2050.076 622.440-2120.426  0.00  0.00     0.045 C 
BRANCH  57  58
ATOM     58  CG  GLU d   4    2049.529 623.444-2121.492  0.00  0.00     0.116 C 
BRANCH  58  59
ATOM     59  CD  GLU d   4    2048.102 623.941-2121.349  0.00  0.00     0.172 C 
ATOM     60  OE1 GLU d   4    2047.375 623.543-2120.418  0.00  0.00    -0.648 OA
ATOM     61  OE2 GLU d   4    2047.713 624.770-2122.197  0.00  0.00    -0.648 OA
ENDBRANCH  58  59
ENDBRANCH  57  58
ENDBRANCH  26  57
ENDBRANCH  23  26
ENDBRANCH  21  22
BRANCH  21  62
ATOM     62  CB  SER d   5    2053.672 625.488-2117.882  0.00  0.00     0.199 C 
BRANCH  62  63
ATOM     63  OG  SER d   5    2054.403 624.608-2117.021  0.00  0.00    -0.398 OA
ATOM     64  HG  SER d   5    2053.914 623.783-2116.970  0.00  0.00     0.209 HD
ENDBRANCH  62  63
ENDBRANCH  21  62
ENDBRANCH  18  21
ENDBRANCH  16  17
BRANCH  16  65
ATOM     65  CB  ILE d   6    2057.436 621.935-2119.529  0.00  0.00     0.013 C 
ATOM     66  CG2 ILE d   6    2058.877 621.632-2120.044  0.00  0.00     0.012 C 
BRANCH  65  67
ATOM     67  CG1 ILE d   6    2057.455 621.872-2117.968  0.00  0.00     0.002 C 
ATOM     68  CD1 ILE d   6    2057.725 620.483-2117.353  0.00  0.00     0.005 C 
ENDBRANCH  65  67
ENDBRANCH  16  65
ENDBRANCH  13  16
ENDBRANCH  11  12
BRANCH  11  69
ATOM     69  CB  LEU d   7    2054.576 621.674-2124.149  0.00  0.00     0.038 C 
BRANCH  69  70
ATOM     70  CG  LEU d   7    2054.502 620.195-2123.683  0.00  0.00    -0.020 C 
ATOM     71  CD1 LEU d   7    2053.312 619.489-2124.348  0.00  0.00     0.009 C 
ATOM     72  CD2 LEU d   7    2055.796 619.415-2123.974  0.00  0.00     0.009 C 
ENDBRANCH  69  70
ENDBRANCH  11  69
ENDBRANCH   8  11
ENDBRANCH   6   7
BRANCH   6  73
ATOM     73  CB  ASP d   8    2053.723 626.960-2123.549  0.00  0.00     0.147 C 
BRANCH  73  74
ATOM     74  CG  ASP d   8    2053.505 628.380-2124.090  0.00  0.00     0.175 C 
ATOM     75  OD1 ASP d   8    2053.569 628.578-2125.321  0.00  0.00    -0.648 OA
ATOM     76  OD2 ASP d   8    2053.313 629.307-2123.275  0.00  0.00    -0.648 OA
ENDBRANCH  73  74
ENDBRANCH   6  73
ENDBRANCH   3   6
ENDBRANCH   1   2
BRANCH   1  77
ATOM     77  C   GLU d   9    2059.048 626.878-2124.159  0.00  0.00     0.241 C 
ATOM     78  O   GLU d   9    2059.712 627.631-2124.885  0.00  0.00    -0.271 OA
ATOM     79  N   HIS d  10    2059.144 625.602-2124.328  0.00  0.00    -0.346 N 
ATOM     80  H   HIS d  10    2058.613 624.967-2123.749  0.00  0.00     0.163 HD
BRANCH  79  81
ATOM     81  CA  HIS d  10    2060.031 625.090-2125.368  0.00  0.00     0.182 C 
BRANCH  81  82
ATOM     82  C   HIS d  10    2059.664 625.654-2126.720  0.00  0.00     0.241 C 
ATOM     83  O   HIS d  10    2060.517 626.118-2127.492  0.00  0.00    -0.271 OA
ATOM     84  N   VAL d  11    2058.427 625.654-2127.083  0.00  0.00    -0.346 N 
ATOM     85  H   VAL d  11    2057.713 625.281-2126.472  0.00  0.00     0.163 HD
BRANCH  84  86
ATOM     86  CA  VAL d  11    2058.071 626.199-2128.390  0.00  0.00     0.180 C 
BRANCH  86  87
ATOM     87  C   VAL d  11    2058.537 627.629-2128.523  0.00  0.00     0.241 C 
ATOM     88  O   VAL d  11    2059.138 628.034-2129.526  0.00  0.00    -0.271 OA
ATOM     89  N   GLN d  12    2058.300 628.456-2127.561  0.00  0.00    -0.346 N 
ATOM     90  H   GLN d  12    2057.812 628.150-2126.731  0.00  0.00     0.163 HD
BRANCH  89  91
ATOM     91  CA  GLN d  12    2058.750 629.838-2127.689  0.00  0.00     0.177 C 
BRANCH  91  92
ATOM     92  C   GLN d  12    2060.239 629.905-2127.927  0.00  0.00     0.241 C 
ATOM     93  O   GLN d  12    2060.727 630.612-2128.806  0.00  0.00    -0.271 OA
ATOM     94  N   ILE d  13    2061.024 629.198-2127.186  0.00  0.00    -0.346 N 
ATOM     95  H   ILE d  13    2060.647 628.608-2126.457  0.00  0.00     0.163 HD
BRANCH  94  96
ATOM     96  CA  ILE d  13    2062.464 629.263-2127.417  0.00  0.00     0.180 C 
BRANCH  96  97
ATOM     97  C   ILE d  13    2062.801 628.891-2128.841  0.00  0.00     0.241 C 
ATOM     98  O   ILE d  13    2063.577 629.569-2129.530  0.00  0.00    -0.271 OA
ATOM     99  N   VAL d  14    2062.265 627.837-2129.355  0.00  0.00    -0.346 N 
ATOM    100  H   VAL d  14    2061.629 627.268-2128.814  0.00  0.00     0.163 HD
BRANCH  99 101
ATOM    101  CA  VAL d  14    2062.590 627.477-2130.733  0.00  0.00     0.180 C 
BRANCH 101 102
ATOM    102  C   VAL d  14    2062.261 628.607-2131.678  0.00  0.00     0.241 C 
ATOM    103  O   VAL d  14    2063.055 628.989-2132.547  0.00  0.00    -0.271 OA
ATOM    104  N   MET d  15    2061.117 629.193-2131.577  0.00  0.00    -0.346 N 
ATOM    105  H   MET d  15    2060.451 628.901-2130.876  0.00  0.00     0.163 HD
BRANCH 104 106
ATOM    106  CA  MET d  15    2060.797 630.286-2132.491  0.00  0.00     0.177 C 
BRANCH 106 107
ATOM    107  C   MET d  15    2061.827 631.386-2132.403  0.00  0.00     0.241 C 
ATOM    108  O   MET d  15    2062.331 631.896-2133.415  0.00  0.00    -0.271 OA
ATOM    109  N   ARG d  16    2062.195 631.807-2131.241  0.00  0.00    -0.347 N 
ATOM    110  H   ARG d  16    2061.800 631.407-2130.402  0.00  0.00     0.163 HD
BRANCH 109 111
ATOM    111  CA  ARG d  16    2063.192 632.870-2131.156  0.00  0.00     0.162 C 
BRANCH 111 112
ATOM    112  C   ARG d  16    2064.463 632.477-2131.872  0.00  0.00     0.219 C 
ATOM    113  O   ARG d  16    2064.577 631.400-2132.453  0.00  0.00    -0.287 OA
ENDBRANCH 111 112
BRANCH 111 114
ATOM    114  CB  ARG d  16    2063.461 633.188-2129.658  0.00  0.00     0.035 C 
BRANCH 114 115
ATOM    115  CG  ARG d  16    2064.286 634.476-2129.384  0.00  0.00     0.023 C 
BRANCH 115 116
ATOM    116  CD  ARG d  16    2064.535 634.695-2127.883  0.00  0.00     0.138 C 
BRANCH 116 117
ATOM    117  NE  ARG d  16    2065.312 635.954-2127.681  0.00  0.00    -0.227 N 
ATOM    118  CZ  ARG d  16    2065.703 636.436-2126.506  0.00  0.00     0.665 C 
ATOM    119  NH1 ARG d  16    2065.454 635.852-2125.367  0.00  0.00    -0.235 N 
ATOM    120  NH2 ARG d  16    2066.367 637.548-2126.487  0.00  0.00    -0.235 N 
ATOM    121 11HH ARG d  16    2064.928 634.979-2125.452  0.00  0.00     0.174 HD
ATOM    122 12HH ARG d  16    2065.788 636.287-2124.506  0.00  0.00     0.174 HD
ATOM    123 21HH ARG d  16    2066.553 637.991-2127.388  0.00  0.00     0.174 HD
ATOM    124 22HH ARG d  16    2066.657 637.903-2125.574  0.00  0.00     0.174 HD
ATOM    125  HE  ARG d  16    2065.591 636.535-2128.478  0.00  0.00     0.177 HD
ENDBRANCH 116 117
ENDBRANCH 115 116
ENDBRANCH 114 115
ENDBRANCH 111 114
ENDBRANCH 109 111
ENDBRANCH 106 107
BRANCH 106 126
ATOM    126  CB  MET d  15    2059.375 630.832-2132.184  0.00  0.00     0.045 C 
BRANCH 126 127
ATOM    127  CG  MET d  15    2058.214 629.833-2132.376  0.00  0.00     0.076 C 
BRANCH 127 128
ATOM    128  SD  MET d  15    2056.640 630.700-2132.263  0.00  0.00    -0.173 SA
ATOM    129  CE  MET d  15    2055.558 629.270-2132.127  0.00  0.00     0.089 C 
ENDBRANCH 127 128
ENDBRANCH 126 127
ENDBRANCH 106 126
ENDBRANCH 104 106
ENDBRANCH 101 102
BRANCH 101 130
ATOM    130  CB  VAL d  14    2061.818 626.160-2131.140  0.00  0.00     0.009 C 
ATOM    131  CG1 VAL d  14    2061.908 625.742-2132.633  0.00  0.00     0.012 C 
ATOM    132  CG2 VAL d  14    2062.249 624.908-2130.339  0.00  0.00     0.012 C 
ENDBRANCH 101 130
ENDBRANCH  99 101
ENDBRANCH  96  97
BRANCH  96 133
ATOM    133  CB  ILE d  13    2063.256 628.375-2126.373  0.00  0.00     0.013 C 
ATOM    134  CG2 ILE d  13    2064.804 628.488-2126.533  0.00  0.00     0.012 C 
BRANCH 133 135
ATOM    135  CG1 ILE d  13    2062.900 628.653-2124.878  0.00  0.00     0.002 C 
ATOM    136  CD1 ILE d  13    2063.399 627.605-2123.861  0.00  0.00     0.005 C 
ENDBRANCH 133 135
ENDBRANCH  96 133
ENDBRANCH  94  96
ENDBRANCH  91  92
BRANCH  91 137
ATOM    137  CB  GLN d  12    2058.359 630.607-2126.406  0.00  0.00     0.044 C 
BRANCH 137 138
ATOM    138  CG  GLN d  12    2058.720 632.128-2126.376  0.00  0.00     0.105 C 
BRANCH 138 139
ATOM    139  CD  GLN d  12    2058.419 632.943-2125.112  0.00  0.00     0.215 C 
ATOM    140  NE2 GLN d  12    2057.852 632.367-2124.083  0.00  0.00    -0.370 N 
ATOM    141 21HE GLN d  12    2057.745 632.962-2123.259  0.00  0.00     0.159 HD
ATOM    142 22HE GLN d  12    2057.688 631.364-2124.185  0.00  0.00     0.159 HD
ATOM    143  OE1 GLN d  12    2058.721 634.123-2125.035  0.00  0.00    -0.274 OA
ENDBRANCH 138 139
ENDBRANCH 137 138
ENDBRANCH  91 137
ENDBRANCH  89  91
ENDBRANCH  86  87
BRANCH  86 144
ATOM    144  CB  VAL d  11    2056.510 626.093-2128.609  0.00  0.00     0.009 C 
ATOM    145  CG1 VAL d  11    2055.942 626.797-2129.872  0.00  0.00     0.012 C 
ATOM    146  CG2 VAL d  11    2055.985 624.639-2128.681  0.00  0.00     0.012 C 
ENDBRANCH  86 144
ENDBRANCH  84  86
ENDBRANCH  81  82
BRANCH  81 147
ATOM    147  CB  HIS d  10    2059.867 623.561-2125.363  0.00  0.00     0.095 C 
BRANCH 147 148
ATOM    148  CG  HIS d  10    2061.152 622.850-2125.055  0.00  0.00     0.053 A 
ATOM    149  CD2 HIS d  10    2061.533 622.516-2123.762  0.00  0.00     0.116 A 
ATOM    150  NE2 HIS d  10    2062.748 621.883-2123.829  0.00  0.00    -0.359 N 
ATOM    151  CE1 HIS d  10    2063.010 621.886-2125.164  0.00  0.00     0.207 A 
ATOM    152  2HE HIS d  10    2063.315 621.506-2123.056  0.00  0.00     0.166 HD
ATOM    153  ND1 HIS d  10    2062.104 622.444-2125.987  0.00  0.00    -0.247 NA
ENDBRANCH 147 148
ENDBRANCH  81 147
ENDBRANCH  79  81
ENDBRANCH   1  77
BRANCH   1 154
ATOM    154  CB  GLU d   9    2058.764 627.199-2121.678  0.00  0.00     0.045 C 
BRANCH 154 155
ATOM    155  CG  GLU d   9    2060.147 627.891-2121.449  0.00  0.00     0.116 C 
BRANCH 155 156
ATOM    156  CD  GLU d   9    2060.849 627.678-2120.121  0.00  0.00     0.172 C 
ATOM    157  OE1 GLU d   9    2060.327 626.987-2119.224  0.00  0.00    -0.648 OA
ATOM    158  OE2 GLU d   9    2061.969 628.215-2119.990  0.00  0.00    -0.648 OA
ENDBRANCH 155 156
ENDBRANCH 154 155
ENDBRANCH   1 154
TORSDOF 66
