@<TRIPOS>MOLECULE
9-5
267 268 16              
SMALL
USER_CHARGES
@<TRIPOS>ATOM
1	   N	1386.022	404.872	-1395.776	N.3	1	GLU1	-0.516	
2	  CA	1386.581	406.221	-1395.776	C.3	1	GLU1	0.040	
3	   C	1388.090	406.181	-1395.776	C.2	1	GLU1	0.537	
4	   O	1388.766	406.881	-1396.544	O.2	1	GLU1	-0.582	
5	  CB	1386.058	407.006	-1394.539	C.3	1	GLU1	0.056	
6	  CG	1386.533	408.491	-1394.428	C.3	1	GLU1	0.014	
7	  CD	1386.109	409.295	-1393.213	C.2	1	GLU1	0.805	
8	 OE1	1385.381	408.793	-1392.335	O.co2	1	GLU1	-0.819	
9	 OE2	1386.539	410.465	-1393.141	O.co2	1	GLU1	-0.819	
10	   H	1386.649	403.993	-1395.776	 H	1	GLU1	0.294	
11	  HA	1386.255	406.739	-1396.696	 H	1	GLU1	0.111	
12	 2HB	1386.347	406.475	-1393.609	 H	1	GLU1	-0.017	
13	 3HB	1384.951	406.996	-1394.526	 H	1	GLU1	-0.017	
14	 2HG	1386.223	409.076	-1395.309	 H	1	GLU1	-0.043	
15	 3HG	1387.633	408.558	-1394.399	 H	1	GLU1	-0.043	
16	   N	1388.694	405.396	-1394.950	N.am	2	ASN2	-0.416	
17	  CA	1390.154	405.357	-1394.950	C.3	2	ASN2	0.014	
18	   C	1390.685	405.001	-1396.319	C.2	2	ASN2	0.597	
19	   O	1391.599	405.632	-1396.848	O.2	2	ASN2	-0.568	
20	  CB	1390.646	404.334	-1393.886	C.3	2	ASN2	-0.204	
21	  CG	1390.183	404.558	-1392.443	C.2	2	ASN2	0.713	
22	 ND2	1390.777	405.473	-1391.725	N.pl3	2	ASN2	-0.919	
23	 OD1	1389.262	403.924	-1391.949	O.2	2	ASN2	-0.593	
24	   H	1388.166	404.816	-1394.314	 H	2	ASN2	0.272	
25	  HA	1390.531	406.367	-1394.705	 H	2	ASN2	0.105	
26	 2HB	1391.750	404.275	-1393.890	 H	2	ASN2	0.080	
27	 3HB	1390.317	403.316	-1394.172	 H	2	ASN2	0.080	
28	1HD2	1390.296	405.646	-1390.838	 H	2	ASN2	0.420	
29	2HD2	1391.479	406.044	-1392.194	 H	2	ASN2	0.420	
30	   N	1390.163	404.006	-1396.953	N.am	3	PRO3	-0.255	
31	  CA	1390.615	403.597	-1398.275	C.3	3	PRO3	-0.027	
32	   C	1390.217	404.621	-1399.352	C.2	3	PRO3	0.590	
33	   O	1391.040	405.004	-1400.183	O.2	3	PRO3	-0.575	
34	  CB	1389.911	402.242	-1398.444	C.3	3	PRO3	-0.007	
35	  CG	1388.628	402.395	-1397.614	C.3	3	PRO3	0.019	
36	  CD	1389.085	403.213	-1396.404	C.3	3	PRO3	0.019	
37	  HA	1391.701	403.477	-1398.289	 H	3	PRO3	0.064	
38	 2HB	1390.534	401.461	-1398.003	 H	3	PRO3	0.025	
39	 3HB	1389.713	401.994	-1399.489	 H	3	PRO3	0.025	
40	 2HG	1388.200	401.432	-1397.323	 H	3	PRO3	0.021	
41	 3HG	1387.890	402.965	-1398.181	 H	3	PRO3	0.021	
42	 2HD	1389.475	402.564	-1395.616	 H	3	PRO3	0.039	
43	 3HD	1388.289	403.849	-1396.011	 H	3	PRO3	0.039	
44	   N	1389.012	405.081	-1399.384	N.am	4	GLU4	-0.516	
45	  CA	1388.652	406.052	-1400.413	C.3	4	GLU4	0.040	
46	   C	1389.551	407.263	-1400.352	C.2	4	GLU4	0.537	
47	   O	1390.077	407.742	-1401.367	O.2	4	GLU4	-0.582	
48	  CB	1387.164	406.470	-1400.243	C.3	4	GLU4	0.056	
49	  CG	1386.615	407.474	-1401.308	C.3	4	GLU4	0.014	
50	  CD	1385.189	407.971	-1401.165	C.2	4	GLU4	0.805	
51	 OE1	1384.463	407.572	-1400.234	O.co2	4	GLU4	-0.819	
52	 OE2	1384.799	408.800	-1402.013	O.co2	4	GLU4	-0.819	
53	   H	1388.328	404.774	-1398.707	 H	4	GLU4	0.294	
54	  HA	1388.783	405.581	-1401.405	 H	4	GLU4	0.111	
55	 2HB	1387.011	406.910	-1399.236	 H	4	GLU4	-0.017	
56	 3HB	1386.516	405.572	-1400.249	 H	4	GLU4	-0.017	
57	 2HG	1386.697	407.059	-1402.326	 H	4	GLU4	-0.043	
58	 3HG	1387.203	408.406	-1401.320	 H	4	GLU4	-0.043	
59	   N	1389.779	407.816	-1399.209	N.am	5	SER5	-0.416	
60	  CA	1390.648	408.987	-1399.151	C.3	5	SER5	-0.025	
61	   C	1392.007	408.681	-1399.737	C.2	5	SER5	0.597	
62	   O	1392.554	409.435	-1400.541	O.2	5	SER5	-0.568	
63	  CB	1390.760	409.519	-1397.700	C.3	5	SER5	0.212	
64	  OG	1391.492	408.640	-1396.839	O.3	5	SER5	-0.655	
65	   H	1389.362	407.444	-1398.368	 H	5	SER5	0.272	
66	  HA	1390.199	409.777	-1399.780	 H	5	SER5	0.084	
67	 2HB	1389.760	409.713	-1397.267	 H	5	SER5	0.035	
68	 3HB	1391.265	410.505	-1397.702	 H	5	SER5	0.035	
69	  HG	1391.003	407.815	-1396.789	 H	5	SER5	0.428	
70	   N	1392.612	407.598	-1399.383	N.am	6	ILE6	-0.416	
71	  CA	1393.925	407.304	-1399.949	C.3	6	ILE6	-0.060	
72	   C	1393.867	407.266	-1401.457	C.2	6	ILE6	0.597	
73	   O	1394.702	407.854	-1402.161	O.2	6	ILE6	-0.568	
74	  CB	1394.525	405.968	-1399.349	C.3	6	ILE6	0.130	
75	 CG1	1394.544	405.905	-1397.788	C.3	6	ILE6	-0.043	
76	 CG2	1395.966	405.666	-1399.865	C.3	6	ILE6	-0.320	
77	 CD1	1394.814	404.516	-1397.173	C.3	6	ILE6	-0.066	
78	   H	1392.183	406.964	-1398.724	 H	6	ILE6	0.272	
79	  HA	1394.599	408.138	-1399.681	 H	6	ILE6	0.087	
80	  HB	1393.867	405.142	-1399.693	 H	6	ILE6	0.019	
81	2HG1	1393.562	406.225	-1397.392	 H	6	ILE6	0.024	
82	3HG1	1395.260	406.647	-1397.383	 H	6	ILE6	0.024	
83	1HG2	1396.025	405.573	-1400.963	 H	6	ILE6	0.088	
84	2HG2	1396.688	406.448	-1399.562	 H	6	ILE6	0.088	
85	3HG2	1396.356	404.704	-1399.486	 H	6	ILE6	0.088	
86	1HD1	1394.086	403.762	-1397.528	 H	6	ILE6	0.019	
87	2HD1	1395.825	404.137	-1397.409	 H	6	ILE6	0.019	
88	3HD1	1394.738	404.546	-1396.071	 H	6	ILE6	0.019	
89	   N	1392.922	406.603	-1402.030	N.am	7	LEU7	-0.416	
90	  CA	1392.866	406.567	-1403.489	C.3	7	LEU7	-0.052	
91	   C	1392.794	407.962	-1404.061	C.2	7	LEU7	0.597	
92	   O	1393.514	408.326	-1405.003	O.2	7	LEU7	-0.568	
93	  CB	1391.663	405.707	-1403.969	C.3	7	LEU7	-0.110	
94	  CG	1391.591	404.227	-1403.503	C.3	7	LEU7	0.353	
95	 CD1	1390.401	403.522	-1404.169	C.3	7	LEU7	-0.412	
96	 CD2	1392.884	403.448	-1403.795	C.3	7	LEU7	-0.412	
97	   H	1392.230	406.116	-1401.479	 H	7	LEU7	0.272	
98	  HA	1393.808	406.127	-1403.863	 H	7	LEU7	0.092	
99	 2HB	1391.640	405.723	-1405.077	 H	7	LEU7	0.046	
100	 3HB	1390.724	406.210	-1403.665	 H	7	LEU7	0.046	
101	  HG	1391.421	404.219	-1402.406	 H	7	LEU7	-0.036	
102	1HD1	1389.444	404.031	-1403.946	 H	7	LEU7	0.100	
103	2HD1	1390.500	403.481	-1405.270	 H	7	LEU7	0.100	
104	3HD1	1390.294	402.480	-1403.813	 H	7	LEU7	0.100	
105	1HD2	1393.159	403.479	-1404.865	 H	7	LEU7	0.100	
106	2HD2	1393.738	403.860	-1403.224	 H	7	LEU7	0.100	
107	3HD2	1392.803	402.386	-1403.499	 H	7	LEU7	0.100	
108	   N	1391.957	408.803	-1403.555	N.am	8	ASP8	-0.516	
109	  CA	1391.886	410.153	-1404.108	C.3	8	ASP8	0.038	
110	   C	1393.233	410.833	-1404.050	C.2	8	ASP8	0.537	
111	   O	1393.705	411.438	-1405.025	O.2	8	ASP8	-0.582	
112	  CB	1390.808	410.991	-1403.365	C.3	8	ASP8	-0.030	
113	  CG	1390.589	412.412	-1403.906	C.2	8	ASP8	0.799	
114	 OD1	1390.653	412.612	-1405.136	O.co2	8	ASP8	-0.801	
115	 OD2	1390.397	413.338	-1403.090	O.co2	8	ASP8	-0.801	
116	   H	1391.359	408.532	-1402.787	 H	8	ASP8	0.294	
117	  HA	1391.603	410.075	-1405.175	 H	8	ASP8	0.088	
118	 2HB	1391.065	411.074	-1402.294	 H	8	ASP8	-0.012	
119	 3HB	1389.829	410.486	-1403.399	 H	8	ASP8	-0.012	
120	   N	1393.913	410.782	-1402.955	N.am	9	MET9	-0.416	
121	  CA	1395.215	411.440	-1402.899	C.3	9	MET9	-0.024	
122	   C	1396.135	410.914	-1403.974	C.2	9	MET9	0.597	
123	   O	1396.799	411.671	-1404.697	O.2	9	MET9	-0.568	
124	  CB	1395.841	411.248	-1401.490	C.3	9	MET9	0.034	
125	  CG	1395.059	411.870	-1400.313	C.3	9	MET9	0.002	
126	  SD	1396.058	411.810	-1398.817	S.3	9	MET9	-0.274	
127	  CE	1394.774	412.212	-1397.624	C.3	9	MET9	-0.054	
128	   H	1393.549	410.296	-1402.148	 H	9	MET9	0.272	
129	  HA	1395.074	412.520	-1403.092	 H	9	MET9	0.088	
130	 2HB	1396.861	411.679	-1401.481	 H	9	MET9	0.024	
131	 3HB	1395.989	410.168	-1401.288	 H	9	MET9	0.024	
132	 2HG	1394.118	411.313	-1400.148	 H	9	MET9	0.044	
133	 3HG	1394.776	412.918	-1400.522	 H	9	MET9	0.044	
134	 1HE	1394.286	413.171	-1397.875	 H	9	MET9	0.068	
135	 2HE	1394.003	411.422	-1397.609	 H	9	MET9	0.068	
136	 3HE	1395.202	412.295	-1396.610	 H	9	MET9	0.068	
137	   N	1396.233	409.639	-1404.145	N.am	10	HIS10	-0.416	
138	  CA	1397.123	409.130	-1405.185	C.3	10	HIS10	-0.058	
139	   C	1396.757	409.697	-1406.536	C.2	10	HIS10	0.597	
140	   O	1397.610	410.164	-1407.306	O.2	10	HIS10	-0.568	
141	  CB	1396.960	407.601	-1405.183	C.3	10	HIS10	-0.007	
142	  CG	1398.246	406.892	-1404.874	C.2	10	HIS10	0.187	
143	 CD2	1398.625	406.555	-1403.582	C.2	10	HIS10	-0.221	
144	 ND1	1399.200	406.488	-1405.806	N.2	10	HIS10	-0.543	
145	 CE1	1400.106	405.929	-1404.983	C.2	10	HIS10	0.163	
146	 NE2	1399.841	405.924	-1403.648	N.pl3	10	HIS10	-0.280	
147	   H	1395.702	409.002	-1403.568	 H	10	HIS10	0.272	
148	  HA	1398.141	409.488	-1404.958	 H	10	HIS10	0.136	
149	 2HB	1396.597	407.235	-1406.164	 H	10	HIS10	0.037	
150	 3HB	1396.204	407.262	-1404.445	 H	10	HIS10	0.037	
151	 2HD	1398.038	406.768	-1402.693	 H	10	HIS10	0.186	
152	 1HE	1400.998	405.510	-1405.429	 H	10	HIS10	0.144	
153	 2HE	1400.407	405.546	-1402.874	 H	10	HIS10	0.334	
154	   N	1395.520	409.695	-1406.901	N.am	11	VAL11	-0.416	
155	  CA	1395.166	410.243	-1408.207	C.3	11	VAL11	-0.087	
156	   C	1395.629	411.674	-1408.337	C.2	11	VAL11	0.597	
157	   O	1396.230	412.081	-1409.338	O.2	11	VAL11	-0.568	
158	  CB	1393.605	410.135	-1408.428	C.3	11	VAL11	0.299	
159	 CG1	1393.037	410.840	-1409.691	C.3	11	VAL11	-0.319	
160	 CG2	1393.082	408.680	-1408.505	C.3	11	VAL11	-0.319	
161	   H	1394.806	409.320	-1406.292	 H	11	VAL11	0.272	
162	  HA	1395.687	409.662	-1408.990	 H	11	VAL11	0.097	
163	  HB	1393.116	410.613	-1407.553	 H	11	VAL11	-0.030	
164	1HG1	1393.477	410.450	-1410.628	 H	11	VAL11	0.079	
165	2HG1	1391.938	410.732	-1409.774	 H	11	VAL11	0.079	
166	3HG1	1393.214	411.932	-1409.679	 H	11	VAL11	0.079	
167	1HG2	1393.371	408.092	-1407.615	 H	11	VAL11	0.079	
168	2HG2	1391.976	408.642	-1408.549	 H	11	VAL11	0.079	
169	3HG2	1393.466	408.141	-1409.392	 H	11	VAL11	0.079	
170	   N	1395.389	412.498	-1407.373	N.am	12	GLN12	-0.416	
171	  CA	1395.836	413.882	-1407.498	C.3	12	GLN12	-0.003	
172	   C	1397.326	413.951	-1407.734	C.2	12	GLN12	0.597	
173	   O	1397.814	414.661	-1408.611	O.2	12	GLN12	-0.568	
174	  CB	1395.443	414.647	-1406.214	C.3	12	GLN12	-0.004	
175	  CG	1395.801	416.169	-1406.180	C.3	12	GLN12	-0.064	
176	  CD	1395.496	416.980	-1404.915	C.2	12	GLN12	0.695	
177	 NE2	1394.929	416.401	-1403.887	N.pl3	12	GLN12	-0.941	
178	 OE1	1395.797	418.161	-1404.835	O.2	12	GLN12	-0.609	
179	   H	1394.900	412.190	-1406.545	 H	12	GLN12	0.272	
180	  HA	1395.337	414.339	-1408.373	 H	12	GLN12	0.085	
181	 2HB	1395.919	414.146	-1405.345	 H	12	GLN12	0.017	
182	 3HB	1394.353	414.538	-1406.052	 H	12	GLN12	0.017	
183	 2HG	1395.324	416.691	-1407.031	 H	12	GLN12	0.035	
184	 3HG	1396.885	416.313	-1406.344	 H	12	GLN12	0.035	
185	1HE2	1394.820	416.995	-1403.063	 H	12	GLN12	0.425	
186	2HE2	1394.766	415.398	-1403.993	 H	12	GLN12	0.425	
187	   N	1398.111	413.244	-1406.993	N.am	13	ARG13	-0.348	
188	  CA	1399.551	413.312	-1407.221	C.3	13	ARG13	-0.264	
189	   C	1399.890	412.943	-1408.646	C.2	13	ARG13	0.734	
190	   O	1400.659	413.616	-1409.329	O.2	13	ARG13	-0.589	
191	  CB	1400.264	412.373	-1406.208	C.3	13	ARG13	-0.001	
192	  CG	1401.809	412.528	-1406.124	C.3	13	ARG13	0.039	
193	  CD	1402.436	411.539	-1405.127	C.3	13	ARG13	0.049	
194	  NE	1403.913	411.748	-1405.074	N.pl3	13	ARG13	-0.530	
195	  CZ	1404.760	411.057	-1404.319	C.cat	13	ARG13	0.808	
196	 NH1	1404.395	410.091	-1403.523	N.pl3	13	ARG13	-0.863	
197	 NH2	1406.020	411.357	-1404.374	N.pl3	13	ARG13	-0.863	
198	   H	1397.734	412.653	-1406.266	 H	13	ARG13	0.275	
199	  HA	1399.874	414.358	-1407.061	 H	13	ARG13	0.156	
200	 2HB	1400.000	411.322	-1406.449	 H	13	ARG13	0.033	
201	 3HB	1399.838	412.537	-1405.198	 H	13	ARG13	0.033	
202	 2HG	1402.055	413.572	-1405.843	 H	13	ARG13	0.029	
203	 3HG	1402.261	412.373	-1407.125	 H	13	ARG13	0.029	
204	 2HD	1402.193	410.499	-1405.438	 H	13	ARG13	0.069	
205	 3HD	1401.978	411.683	-1404.125	 H	13	ARG13	0.069	
206	  HE	1404.364	412.472	-1405.643	 H	13	ARG13	0.346	
207	1HH1	1403.390	409.903	-1403.528	 H	13	ARG13	0.448	
208	2HH1	1405.108	409.608	-1402.974	 H	13	ARG13	0.448	
209	1HH2	1406.287	412.116	-1405.003	 H	13	ARG13	0.448	
210	2HH2	1406.655	410.816	-1403.785	 H	13	ARG13	0.448	
211	   N	1399.355	411.888	-1409.163	N.am	14	VAL14	-0.416	
212	  CA	1399.682	411.531	-1410.541	C.3	14	VAL14	-0.087	
213	   C	1399.353	412.662	-1411.485	C.2	14	VAL14	0.597	
214	   O	1400.147	413.046	-1412.353	O.2	14	VAL14	-0.568	
215	  CB	1398.912	410.214	-1410.950	C.3	14	VAL14	0.299	
216	 CG1	1399.004	409.798	-1412.444	C.3	14	VAL14	-0.319	
217	 CG2	1399.344	408.961	-1410.151	C.3	14	VAL14	-0.319	
218	   H	1398.720	411.319	-1408.623	 H	14	VAL14	0.272	
219	  HA	1400.771	411.356	-1410.614	 H	14	VAL14	0.097	
220	  HB	1397.835	410.384	-1410.736	 H	14	VAL14	-0.030	
221	1HG1	1400.046	409.623	-1412.772	 H	14	VAL14	0.079	
222	2HG1	1398.432	408.875	-1412.659	 H	14	VAL14	0.079	
223	3HG1	1398.575	410.561	-1413.122	 H	14	VAL14	0.079	
224	1HG2	1399.255	409.118	-1409.061	 H	14	VAL14	0.079	
225	2HG2	1398.710	408.084	-1410.385	 H	14	VAL14	0.079	
226	3HG2	1400.393	408.673	-1410.356	 H	14	VAL14	0.079	
227	   N	1398.207	413.247	-1411.384	N.am	15	MET15	-0.416	
228	  CA	1397.887	414.340	-1412.296	C.3	15	MET15	-0.024	
229	   C	1398.916	415.441	-1412.205	C.2	15	MET15	0.597	
230	   O	1399.419	415.954	-1413.217	O.2	15	MET15	-0.568	
231	  CB	1396.464	414.884	-1411.988	C.3	15	MET15	0.034	
232	  CG	1395.304	413.885	-1412.183	C.3	15	MET15	0.002	
233	  SD	1393.729	414.750	-1412.070	S.3	15	MET15	-0.274	
234	  CE	1392.649	413.319	-1411.937	C.3	15	MET15	-0.054	
235	   H	1397.542	412.952	-1410.684	 H	15	MET15	0.272	
236	  HA	1397.914	413.955	-1413.333	 H	15	MET15	0.088	
237	 2HB	1396.262	415.764	-1412.630	 H	15	MET15	0.024	
238	 3HB	1396.427	415.275	-1410.952	 H	15	MET15	0.024	
239	 2HG	1395.346	413.098	-1411.407	 H	15	MET15	0.044	
240	 3HG	1395.368	413.372	-1413.160	 H	15	MET15	0.044	
241	 1HE	1392.794	412.632	-1412.790	 H	15	MET15	0.068	
242	 2HE	1392.857	412.765	-1411.004	 H	15	MET15	0.068	
243	 3HE	1391.591	413.633	-1411.921	 H	15	MET15	0.068	
244	   N	1399.282	415.861	-1411.042	N.am	16	ARG16	-0.348	
245	  CA	1400.278	416.926	-1410.956	C.3	16	ARG16	-0.264	
246	   C	1401.550	416.535	-1411.671	C.2	16	ARG16	0.734	
247	   O	1401.666	415.460	-1412.254	O.2	16	ARG16	-0.589	
248	  CB	1400.545	417.242	-1409.456	C.3	16	ARG16	-0.001	
249	  CG	1401.368	418.531	-1409.180	C.3	16	ARG16	0.039	
250	  CD	1401.616	418.748	-1407.679	C.3	16	ARG16	0.049	
251	  NE	1402.390	420.008	-1407.475	N.pl3	16	ARG16	-0.530	
252	  CZ	1402.780	420.489	-1406.298	C.cat	16	ARG16	0.808	
253	 NH1	1402.531	419.902	-1405.161	N.pl3	16	ARG16	-0.863	
254	 NH2	1403.442	421.602	-1406.277	N.pl3	16	ARG16	-0.863	
255	   H	1398.887	415.459	-1410.204	 H	16	ARG16	0.275	
256	  HA	1399.869	417.819	-1411.464	 H	16	ARG16	0.156	
257	 2HB	1401.042	416.365	-1408.991	 H	16	ARG16	0.033	
258	 3HB	1399.575	417.321	-1408.924	 H	16	ARG16	0.033	
259	 2HG	1400.838	419.402	-1409.617	 H	16	ARG16	0.029	
260	 3HG	1402.343	418.480	-1409.708	 H	16	ARG16	0.029	
261	 2HD	1402.165	417.874	-1407.266	 H	16	ARG16	0.069	
262	 3HD	1400.642	418.789	-1407.144	 H	16	ARG16	0.069	
263	  HE	1402.669	420.590	-1408.271	 H	16	ARG16	0.346	
264	1HH1	1402.006	419.029	-1405.247	 H	16	ARG16	0.448	
265	2HH1	1402.864	420.337	-1404.298	 H	16	ARG16	0.448	
266	1HH2	1403.629	422.047	-1407.178	 H	16	ARG16	0.448	
267	2HH2	1403.731	421.956	-1405.363	 H	16	ARG16	0.448	
@<TRIPOS>BOND
1 1 2 1
2 1 10 1
3 2 3 1
4 2 5 1
5 2 11 1
6 3 4 2
7 3 16 1
8 5 6 1
9 6 7 1
10 7 8 2
11 7 9 1
12 5 12 1
13 5 13 1
14 6 14 1
15 6 15 1
16 16 17 1
17 16 24 1
18 17 18 1
19 17 20 1
20 17 25 1
21 18 19 2
22 18 30 1
23 20 21 1
24 21 22 1
25 21 23 2
26 20 26 1
27 20 27 1
28 22 28 1
29 22 29 1
30 30 31 1
31 30 36 1
32 31 32 1
33 31 34 1
34 31 37 1
35 32 33 2
36 32 44 1
37 34 35 1
38 35 36 1
39 34 38 1
40 34 39 1
41 35 40 1
42 35 41 1
43 36 42 1
44 36 43 1
45 44 45 1
46 44 53 1
47 45 46 1
48 45 48 1
49 45 54 1
50 46 47 2
51 46 59 1
52 48 49 1
53 49 50 1
54 50 51 2
55 50 52 1
56 48 55 1
57 48 56 1
58 49 57 1
59 49 58 1
60 59 60 1
61 59 65 1
62 60 61 1
63 60 63 1
64 60 66 1
65 61 62 2
66 61 70 1
67 63 64 1
68 63 67 1
69 63 68 1
70 64 69 1
71 70 71 1
72 70 78 1
73 71 72 1
74 71 74 1
75 71 79 1
76 72 73 2
77 72 89 1
78 74 75 1
79 74 76 1
80 75 77 1
81 74 80 1
82 75 81 1
83 75 82 1
84 76 83 1
85 76 84 1
86 76 85 1
87 77 86 1
88 77 87 1
89 77 88 1
90 89 90 1
91 89 97 1
92 90 91 1
93 90 93 1
94 90 98 1
95 91 92 2
96 91 108 1
97 93 94 1
98 94 95 1
99 94 96 1
100 93 99 1
101 93 100 1
102 94 101 1
103 95 102 1
104 95 103 1
105 95 104 1
106 96 105 1
107 96 106 1
108 96 107 1
109 108 109 1
110 108 116 1
111 109 110 1
112 109 112 1
113 109 117 1
114 110 111 2
115 110 120 1
116 112 113 1
117 113 114 2
118 113 115 1
119 112 118 1
120 112 119 1
121 120 121 1
122 120 128 1
123 121 122 1
124 121 124 1
125 121 129 1
126 122 123 2
127 122 137 1
128 124 125 1
129 125 126 1
130 126 127 1
131 124 130 1
132 124 131 1
133 125 132 1
134 125 133 1
135 127 134 1
136 127 135 1
137 127 136 1
138 137 138 1
139 137 147 1
140 138 139 1
141 138 141 1
142 138 148 1
143 139 140 2
144 139 154 1
145 141 142 1
146 142 143 2
147 143 146 1
148 142 144 1
149 144 145 2
150 145 146 1
151 141 149 1
152 141 150 1
153 143 151 1
154 145 152 1
155 146 153 1
156 154 155 1
157 154 161 1
158 155 156 1
159 155 158 1
160 155 162 1
161 156 157 2
162 156 170 1
163 158 159 1
164 158 160 1
165 158 163 1
166 159 164 1
167 159 165 1
168 159 166 1
169 160 167 1
170 160 168 1
171 160 169 1
172 170 171 1
173 170 179 1
174 171 172 1
175 171 174 1
176 171 180 1
177 172 173 2
178 172 187 1
179 174 175 1
180 175 176 1
181 176 177 1
182 176 178 2
183 174 181 1
184 174 182 1
185 175 183 1
186 175 184 1
187 177 185 1
188 177 186 1
189 187 188 1
190 187 198 1
191 188 189 1
192 188 191 1
193 188 199 1
194 189 190 2
195 189 211 1
196 191 192 1
197 192 193 1
198 193 194 1
199 194 195 1
200 195 196 2
201 195 197 1
202 191 200 1
203 191 201 1
204 192 202 1
205 192 203 1
206 193 204 1
207 193 205 1
208 194 206 1
209 196 207 1
210 196 208 1
211 197 209 1
212 197 210 1
213 211 212 1
214 211 218 1
215 212 213 1
216 212 215 1
217 212 219 1
218 213 214 2
219 213 227 1
220 215 216 1
221 215 217 1
222 215 220 1
223 216 221 1
224 216 222 1
225 216 223 1
226 217 224 1
227 217 225 1
228 217 226 1
229 227 228 1
230 227 235 1
231 228 229 1
232 228 231 1
233 228 236 1
234 229 230 2
235 229 244 1
236 231 232 1
237 232 233 1
238 233 234 1
239 231 237 1
240 231 238 1
241 232 239 1
242 232 240 1
243 234 241 1
244 234 242 1
245 234 243 1
246 244 245 1
247 244 255 1
248 245 246 1
249 245 248 1
250 245 256 1
251 246 247 2
252 248 249 1
253 249 250 1
254 250 251 1
255 251 252 1
256 252 253 2
257 252 254 1
258 248 257 1
259 248 258 1
260 249 259 1
261 249 260 1
262 250 261 1
263 250 262 1
264 251 263 1
265 253 264 1
266 253 265 1
267 254 266 1
268 254 267 1
@<TRIPOS>SUBSTRUCTURE
1	GLU1	1	RESIDUE	1 ****	GLU
2	ASN2	16	RESIDUE	1 ****	ASN
3	PRO3	30	RESIDUE	1 ****	PRO
4	GLU4	44	RESIDUE	1 ****	GLU
5	SER5	59	RESIDUE	1 ****	SER
6	ILE6	70	RESIDUE	1 ****	ILE
7	LEU7	89	RESIDUE	1 ****	LEU
8	ASP8	108	RESIDUE	1 ****	ASP
9	MET9	120	RESIDUE	1 ****	MET
10	HIS10	137	RESIDUE	1 ****	HIS
11	VAL11	154	RESIDUE	1 ****	VAL
12	GLN12	170	RESIDUE	1 ****	GLN
13	ARG13	187	RESIDUE	1 ****	ARG
14	VAL14	211	RESIDUE	1 ****	VAL
15	MET15	227	RESIDUE	1 ****	MET
16	ARG16	244	RESIDUE	1 ****	ARG
