REMARK WARNING: 32 MAX_TORS EXCEEDED!!!
REMARK  68 active torsions:
REMARK  status: ('A' for Active; 'I' for Inactive)
REMARK    1  A    between atoms: N_1  and  CA_2 
REMARK    2  A    between atoms: CA_2  and  C_3 
REMARK    3  A    between atoms: CA_2  and  CB_5 
REMARK       I    between atoms: C_3  and  N_11 
REMARK    4  A    between atoms: CB_5  and  CG_6 
REMARK    5  A    between atoms: CG_6  and  CD_7 
REMARK    6  A    between atoms: N_11  and  CA_12 
REMARK    7  A    between atoms: CA_12  and  C_13 
REMARK    8  A    between atoms: CA_12  and  CB_15 
REMARK       I    between atoms: C_13  and  N_22 
REMARK    9  A    between atoms: CB_15  and  CG_16 
REMARK       I    between atoms: CG_16  and  ND2_17 
REMARK   10  A    between atoms: CA_23  and  C_24 
REMARK       I    between atoms: C_24  and  N_29 
REMARK   11  A    between atoms: N_29  and  CA_30 
REMARK   12  A    between atoms: CA_30  and  C_31 
REMARK   13  A    between atoms: CA_30  and  CB_33 
REMARK       I    between atoms: C_31  and  N_39 
REMARK   14  A    between atoms: CB_33  and  CG_34 
REMARK   15  A    between atoms: CG_34  and  CD_35 
REMARK   16  A    between atoms: N_39  and  CA_40 
REMARK   17  A    between atoms: CA_40  and  C_41 
REMARK   18  A    between atoms: CA_40  and  CB_43 
REMARK       I    between atoms: C_41  and  N_47 
REMARK   19  A    between atoms: CB_43  and  OG_44 
REMARK   20  A    between atoms: N_47  and  CA_48 
REMARK   21  A    between atoms: CA_48  and  C_49 
REMARK   22  A    between atoms: CA_48  and  CB_51 
REMARK       I    between atoms: C_49  and  N_56 
REMARK   23  A    between atoms: CB_51  and  CG1_52 
REMARK   24  A    between atoms: N_56  and  CA_57 
REMARK   25  A    between atoms: CA_57  and  C_58 
REMARK   26  A    between atoms: CA_57  and  CB_60 
REMARK       I    between atoms: C_58  and  N_65 
REMARK   27  A    between atoms: CB_60  and  CG_61 
REMARK   28  A    between atoms: N_65  and  CA_66 
REMARK   29  A    between atoms: CA_66  and  C_67 
REMARK   30  A    between atoms: CA_66  and  CB_69 
REMARK       I    between atoms: C_67  and  N_77 
REMARK   31  A    between atoms: CB_69  and  CG_70 
REMARK   32  A    between atoms: N_77  and  CA_78 
REMARK   33  A    between atoms: CA_78  and  C_79 
REMARK   34  A    between atoms: CA_78  and  CB_81 
REMARK       I    between atoms: C_79  and  N_87 
REMARK   35  A    between atoms: CB_81  and  CG_82 
REMARK   36  A    between atoms: CG_82  and  CD_83 
REMARK   37  A    between atoms: N_87  and  CA_88 
REMARK   38  A    between atoms: CA_88  and  C_89 
REMARK   39  A    between atoms: CA_88  and  CB_91 
REMARK       I    between atoms: C_89  and  N_99 
REMARK   40  A    between atoms: CB_91  and  CG_92 
REMARK   41  A    between atoms: N_99  and  CA_100 
REMARK   42  A    between atoms: CA_100  and  C_101 
REMARK   43  A    between atoms: CA_100  and  CB_103 
REMARK       I    between atoms: C_101  and  N_107 
REMARK   44  A    between atoms: N_107  and  CA_108 
REMARK   45  A    between atoms: CA_108  and  C_109 
REMARK   46  A    between atoms: CA_108  and  CB_111 
REMARK       I    between atoms: C_109  and  N_119 
REMARK   47  A    between atoms: CB_111  and  CG_112 
REMARK   48  A    between atoms: CG_112  and  CD_113 
REMARK       I    between atoms: CD_113  and  NE2_114 
REMARK   49  A    between atoms: N_119  and  CA_120 
REMARK   50  A    between atoms: CA_120  and  C_121 
REMARK   51  A    between atoms: CA_120  and  CB_123 
REMARK       I    between atoms: C_121  and  N_136 
REMARK   52  A    between atoms: CB_123  and  CG_124 
REMARK   53  A    between atoms: CG_124  and  CD_125 
REMARK   54  A    between atoms: CD_125  and  NE_126 
REMARK       I    between atoms: NE_126  and  CZ_127 
REMARK       I    between atoms: CZ_127  and  NH1_128 
REMARK       I    between atoms: CZ_127  and  NH2_129 
REMARK   55  A    between atoms: N_136  and  CA_137 
REMARK   56  A    between atoms: CA_137  and  C_138 
REMARK   57  A    between atoms: CA_137  and  CB_140 
REMARK       I    between atoms: C_138  and  N_144 
REMARK   58  A    between atoms: N_144  and  CA_145 
REMARK   59  A    between atoms: CA_145  and  C_146 
REMARK   60  A    between atoms: CA_145  and  CB_148 
REMARK       I    between atoms: C_146  and  N_153 
REMARK   61  A    between atoms: CB_148  and  CG_149 
REMARK   62  A    between atoms: CG_149  and  SD_150 
REMARK   63  A    between atoms: N_153  and  CA_154 
REMARK   64  A    between atoms: CA_154  and  C_155 
REMARK   65  A    between atoms: CA_154  and  CB_157 
REMARK   66  A    between atoms: CB_157  and  CG_158 
REMARK   67  A    between atoms: CG_158  and  CD_159 
REMARK   68  A    between atoms: CD_159  and  NE_160 
REMARK       I    between atoms: NE_160  and  CZ_161 
REMARK       I    between atoms: CZ_161  and  NH1_162 
ROOT
ATOM      1  C   GLU d   9    1257.384 365.625-1252.817  0.00  0.00     0.241 C 
ATOM      2  O   GLU d   9    1258.047 366.380-1253.543  0.00  0.00    -0.271 OA
ATOM      3  N   HIS d  10    1257.481 364.350-1252.987  0.00  0.00    -0.346 N 
ATOM      4  H   HIS d  10    1256.951 363.714-1252.408  0.00  0.00     0.163 HD
ENDROOT
BRANCH   1   5
ATOM      5  CA  GLU d   9    1256.466 366.152-1251.741  0.00  0.00     0.177 C 
BRANCH   5   6
ATOM      6  N   GLU d   9    1255.164 365.493-1251.796  0.00  0.00    -0.346 N 
ATOM      7  C   PHE d   8    1254.483 365.543-1252.890  0.00  0.00     0.241 C 
ATOM      8  O   PHE d   8    1254.963 366.159-1253.883  0.00  0.00    -0.271 OA
ATOM      9  H   GLU d   9    1254.801 365.007-1250.988  0.00  0.00     0.163 HD
BRANCH   7  10
ATOM     10  CA  PHE d   8    1253.136 364.862-1252.947  0.00  0.00     0.180 C 
BRANCH  10  11
ATOM     11  N   PHE d   8    1253.207 363.513-1252.395  0.00  0.00    -0.346 N 
ATOM     12  C   LEU d   7    1254.044 362.672-1252.901  0.00  0.00     0.241 C 
ATOM     13  O   LEU d   7    1254.765 363.035-1253.843  0.00  0.00    -0.271 OA
ATOM     14  H   PHE d   8    1252.609 363.241-1251.627  0.00  0.00     0.163 HD
BRANCH  12  15
ATOM     15  CA  LEU d   7    1254.117 361.277-1252.329  0.00  0.00     0.177 C 
BRANCH  15  16
ATOM     16  N   LEU d   7    1254.172 361.313-1250.870  0.00  0.00    -0.346 N 
ATOM     17  C   ILE d   6    1255.118 361.976-1250.297  0.00  0.00     0.241 C 
ATOM     18  O   ILE d   6    1255.953 362.564-1251.001  0.00  0.00    -0.271 OA
ATOM     19  H   LEU d   7    1253.480 360.826-1250.319  0.00  0.00     0.163 HD
BRANCH  17  20
ATOM     20  CA  ILE d   6    1255.175 362.014-1248.789  0.00  0.00     0.180 C 
BRANCH  20  21
ATOM     21  N   ILE d   6    1253.862 362.308-1248.223  0.00  0.00    -0.346 N 
ATOM     22  C   SER d   5    1253.257 363.391-1248.577  0.00  0.00     0.243 C 
ATOM     23  O   SER d   5    1253.804 364.145-1249.381  0.00  0.00    -0.271 OA
ATOM     24  H   ILE d   6    1253.434 361.674-1247.564  0.00  0.00     0.163 HD
BRANCH  22  25
ATOM     25  CA  SER d   5    1251.899 363.697-1247.991  0.00  0.00     0.200 C 
BRANCH  25  26
ATOM     26  N   SER d   5    1251.029 362.526-1248.049  0.00  0.00    -0.344 N 
ATOM     27  C   GLU d   4    1250.802 361.973-1249.192  0.00  0.00     0.241 C 
ATOM     28  O   GLU d   4    1251.328 362.452-1250.207  0.00  0.00    -0.271 OA
ATOM     29  H   SER d   5    1250.612 362.154-1247.208  0.00  0.00     0.163 HD
BRANCH  27  30
ATOM     30  CA  GLU d   4    1249.903 360.762-1249.253  0.00  0.00     0.177 C 
BRANCH  30  31
ATOM     31  N   GLU d   4    1250.263 359.790-1248.224  0.00  0.00    -0.346 N 
ATOM     32  C   PRO d   3    1251.467 359.330-1248.192  0.00  0.00     0.241 C 
ATOM     33  O   PRO d   3    1252.291 359.714-1249.023  0.00  0.00    -0.271 OA
ATOM     34  H   GLU d   4    1249.578 359.484-1247.547  0.00  0.00     0.163 HD
BRANCH  32  35
ATOM     35  CA  PRO d   3    1251.865 358.307-1247.115  0.00  0.00     0.179 C 
ATOM     36  N   PRO d   3    1251.414 358.716-1245.793  0.00  0.00    -0.337 N 
ATOM     37  C   ASN d   2    1251.935 359.711-1245.159  0.00  0.00     0.243 C 
ATOM     38  CD  PRO d   3    1250.336 357.923-1245.244  0.00  0.00     0.127 C 
ATOM     39  O   ASN d   2    1252.850 360.342-1245.688  0.00  0.00    -0.271 OA
ATOM     40  CG  PRO d   3    1249.878 357.104-1246.454  0.00  0.00     0.022 C 
ATOM     41  CB  PRO d   3    1251.161 356.952-1247.284  0.00  0.00     0.037 C 
BRANCH  37  42
ATOM     42  CA  ASN d   2    1251.404 360.067-1243.790  0.00  0.00     0.185 C 
BRANCH  42  43
ATOM     43  N   ASN d   2    1249.945 360.106-1243.790  0.00  0.00    -0.346 N 
ATOM     44  C   GLU d   1    1249.340 360.891-1244.616  0.00  0.00     0.242 C 
ATOM     45  O   GLU d   1    1250.016 361.590-1245.384  0.00  0.00    -0.271 OA
ATOM     46  H   ASN d   2    1249.417 359.526-1243.154  0.00  0.00     0.163 HD
BRANCH  44  47
ATOM     47  CA  GLU d   1    1247.831 360.931-1244.616  0.00  0.00     0.191 C 
BRANCH  47  48
ATOM     48  N   GLU d   1    1247.272 359.582-1244.616  0.00  0.00    -0.326 NA
ATOM     49  H   GLU d   1    1247.899 358.703-1244.616  0.00  0.00     0.180 HD
ENDBRANCH  47  48
BRANCH  47  50
ATOM     50  CB  GLU d   1    1247.308 361.716-1243.379  0.00  0.00     0.047 C 
BRANCH  50  51
ATOM     51  CG  GLU d   1    1247.783 363.201-1243.268  0.00  0.00     0.116 C 
BRANCH  51  52
ATOM     52  CD  GLU d   1    1247.359 364.005-1242.052  0.00  0.00     0.172 C 
ATOM     53  OE1 GLU d   1    1246.631 363.503-1241.175  0.00  0.00    -0.648 OA
ATOM     54  OE2 GLU d   1    1247.789 365.175-1241.981  0.00  0.00    -0.648 OA
ENDBRANCH  51  52
ENDBRANCH  50  51
ENDBRANCH  47  50
ENDBRANCH  44  47
ENDBRANCH  42  43
BRANCH  42  55
ATOM     55  CB  ASN d   2    1251.896 359.044-1242.726  0.00  0.00     0.137 C 
BRANCH  55  56
ATOM     56  CG  ASN d   2    1251.433 359.268-1241.283  0.00  0.00     0.217 C 
ATOM     57  ND2 ASN d   2    1252.027 360.183-1240.565  0.00  0.00    -0.370 N 
ATOM     58 21HD ASN d   2    1251.547 360.356-1239.678  0.00  0.00     0.159 HD
ATOM     59 22HD ASN d   2    1252.729 360.754-1241.034  0.00  0.00     0.159 HD
ATOM     60  OD1 ASN d   2    1250.512 358.634-1240.789  0.00  0.00    -0.274 OA
ENDBRANCH  55  56
ENDBRANCH  42  55
ENDBRANCH  37  42
ENDBRANCH  32  35
ENDBRANCH  30  31
BRANCH  30  61
ATOM     61  CB  GLU d   4    1248.414 361.180-1249.083  0.00  0.00     0.045 C 
BRANCH  61  62
ATOM     62  CG  GLU d   4    1247.866 362.184-1250.148  0.00  0.00     0.116 C 
BRANCH  62  63
ATOM     63  CD  GLU d   4    1246.439 362.680-1250.005  0.00  0.00     0.172 C 
ATOM     64  OE1 GLU d   4    1245.713 362.282-1249.074  0.00  0.00    -0.648 OA
ATOM     65  OE2 GLU d   4    1246.050 363.510-1250.853  0.00  0.00    -0.648 OA
ENDBRANCH  62  63
ENDBRANCH  61  62
ENDBRANCH  30  61
ENDBRANCH  27  30
ENDBRANCH  25  26
BRANCH  25  66
ATOM     66  CB  SER d   5    1252.010 364.229-1246.540  0.00  0.00     0.199 C 
BRANCH  66  67
ATOM     67  OG  SER d   5    1252.742 363.350-1245.679  0.00  0.00    -0.398 OA
ATOM     68  HG  SER d   5    1252.253 362.525-1245.629  0.00  0.00     0.209 HD
ENDBRANCH  66  67
ENDBRANCH  25  66
ENDBRANCH  22  25
ENDBRANCH  20  21
BRANCH  20  69
ATOM     69  CB  ILE d   6    1255.775 360.677-1248.189  0.00  0.00     0.013 C 
ATOM     70  CG2 ILE d   6    1257.216 360.376-1248.705  0.00  0.00     0.012 C 
BRANCH  69  71
ATOM     71  CG1 ILE d   6    1255.795 360.615-1246.628  0.00  0.00     0.002 C 
ATOM     72  CD1 ILE d   6    1256.065 359.226-1246.013  0.00  0.00     0.005 C 
ENDBRANCH  69  71
ENDBRANCH  20  69
ENDBRANCH  17  20
ENDBRANCH  15  16
BRANCH  15  73
ATOM     73  CB  LEU d   7    1252.914 360.417-1252.809  0.00  0.00     0.038 C 
BRANCH  73  74
ATOM     74  CG  LEU d   7    1252.841 358.937-1252.343  0.00  0.00    -0.020 C 
ATOM     75  CD1 LEU d   7    1251.651 358.232-1253.009  0.00  0.00     0.009 C 
ATOM     76  CD2 LEU d   7    1254.135 358.158-1252.635  0.00  0.00     0.009 C 
ENDBRANCH  73  74
ENDBRANCH  15  73
ENDBRANCH  12  15
ENDBRANCH  10  11
BRANCH  10  77
ATOM     77  CB  PHE d   8    1252.107 365.715-1252.145  0.00  0.00     0.073 C 
BRANCH  77  78
ATOM     78  CG  PHE d   8    1250.669 365.177-1252.088  0.00  0.00    -0.056 A 
ATOM     79  CD1 PHE d   8    1250.304 364.287-1251.072  0.00  0.00     0.007 A 
ATOM     80  CE1 PHE d   8    1249.030 363.729-1251.053  0.00  0.00     0.001 A 
ATOM     81  CZ  PHE d   8    1248.107 364.070-1252.039  0.00  0.00     0.000 A 
ATOM     82  CE2 PHE d   8    1248.460 364.966-1253.047  0.00  0.00     0.001 A 
ATOM     83  CD2 PHE d   8    1249.738 365.517-1253.073  0.00  0.00     0.007 A 
ENDBRANCH  77  78
ENDBRANCH  10  77
ENDBRANCH   7  10
ENDBRANCH   5   6
BRANCH   5  84
ATOM     84  CB  GLU d   9    1257.101 365.945-1250.336  0.00  0.00     0.045 C 
BRANCH  84  85
ATOM     85  CG  GLU d   9    1258.483 366.638-1250.108  0.00  0.00     0.116 C 
BRANCH  85  86
ATOM     86  CD  GLU d   9    1259.186 366.425-1248.780  0.00  0.00     0.172 C 
ATOM     87  OE1 GLU d   9    1258.665 365.734-1247.883  0.00  0.00    -0.648 OA
ATOM     88  OE2 GLU d   9    1260.304 366.964-1248.649  0.00  0.00    -0.648 OA
ENDBRANCH  85  86
ENDBRANCH  84  85
ENDBRANCH   5  84
ENDBRANCH   1   5
BRANCH   3  89
ATOM     89  CA  HIS d  10    1258.369 363.839-1254.028  0.00  0.00     0.182 C 
BRANCH  89  90
ATOM     90  C   HIS d  10    1258.000 364.404-1255.379  0.00  0.00     0.241 C 
ATOM     91  O   HIS d  10    1258.852 364.869-1256.151  0.00  0.00    -0.271 OA
ATOM     92  N   VAL d  11    1256.762 364.402-1255.741  0.00  0.00    -0.346 N 
ATOM     93  H   VAL d  11    1256.050 364.028-1255.130  0.00  0.00     0.163 HD
BRANCH  92  94
ATOM     94  CA  VAL d  11    1256.406 364.948-1257.047  0.00  0.00     0.180 C 
BRANCH  94  95
ATOM     95  C   VAL d  11    1256.869 366.379-1257.180  0.00  0.00     0.241 C 
ATOM     96  O   VAL d  11    1257.469 366.784-1258.183  0.00  0.00    -0.271 OA
ATOM     97  N   GLN d  12    1256.632 367.204-1256.217  0.00  0.00    -0.346 N 
ATOM     98  H   GLN d  12    1256.144 366.897-1255.388  0.00  0.00     0.163 HD
BRANCH  97  99
ATOM     99  CA  GLN d  12    1257.079 368.587-1256.344  0.00  0.00     0.177 C 
BRANCH  99 100
ATOM    100  C   GLN d  12    1258.569 368.656-1256.583  0.00  0.00     0.241 C 
ATOM    101  O   GLN d  12    1259.055 369.365-1257.462  0.00  0.00    -0.271 OA
ATOM    102  N   ARG d  13    1259.355 367.950-1255.844  0.00  0.00    -0.346 N 
ATOM    103  H   ARG d  13    1258.980 367.359-1255.115  0.00  0.00     0.163 HD
BRANCH 102 104
ATOM    104  CA  ARG d  13    1260.795 368.017-1256.076  0.00  0.00     0.176 C 
BRANCH 104 105
ATOM    105  C   ARG d  13    1261.130 367.646-1257.501  0.00  0.00     0.241 C 
ATOM    106  O   ARG d  13    1261.897 368.319-1258.185  0.00  0.00    -0.271 OA
ATOM    107  N   VAL d  14    1260.595 366.592-1258.016  0.00  0.00    -0.346 N 
ATOM    108  H   VAL d  14    1259.961 366.022-1257.473  0.00  0.00     0.163 HD
BRANCH 107 109
ATOM    109  CA  VAL d  14    1260.919 366.233-1259.393  0.00  0.00     0.180 C 
BRANCH 109 110
ATOM    110  C   VAL d  14    1260.587 367.363-1260.338  0.00  0.00     0.241 C 
ATOM    111  O   VAL d  14    1261.379 367.746-1261.208  0.00  0.00    -0.271 OA
ATOM    112  N   MET d  15    1259.441 367.948-1260.235  0.00  0.00    -0.346 N 
ATOM    113  H   MET d  15    1258.777 367.654-1259.533  0.00  0.00     0.163 HD
BRANCH 112 114
ATOM    114  CA  MET d  15    1259.119 369.041-1261.148  0.00  0.00     0.177 C 
BRANCH 114 115
ATOM    115  C   MET d  15    1260.148 370.142-1261.061  0.00  0.00     0.241 C 
ATOM    116  O   MET d  15    1260.650 370.654-1262.073  0.00  0.00    -0.271 OA
ATOM    117  N   ARG d  16    1260.518 370.562-1259.898  0.00  0.00    -0.347 N 
ATOM    118  H   ARG d  16    1260.124 370.161-1259.059  0.00  0.00     0.163 HD
BRANCH 117 119
ATOM    119  CA  ARG d  16    1261.513 371.627-1259.814  0.00  0.00     0.162 C 
BRANCH 119 120
ATOM    120  C   ARG d  16    1262.784 371.236-1260.532  0.00  0.00     0.219 C 
ATOM    121  O   ARG d  16    1262.898 370.160-1261.114  0.00  0.00    -0.287 OA
ENDBRANCH 119 120
BRANCH 119 122
ATOM    122  CB  ARG d  16    1261.783 371.944-1258.316  0.00  0.00     0.035 C 
BRANCH 122 123
ATOM    123  CG  ARG d  16    1262.607 373.234-1258.043  0.00  0.00     0.023 C 
BRANCH 123 124
ATOM    124  CD  ARG d  16    1262.858 373.452-1256.542  0.00  0.00     0.138 C 
BRANCH 124 125
ATOM    125  NE  ARG d  16    1263.633 374.712-1256.341  0.00  0.00    -0.227 N 
ATOM    126  CZ  ARG d  16    1264.025 375.194-1255.165  0.00  0.00     0.665 C 
ATOM    127  NH1 ARG d  16    1263.779 374.608-1254.027  0.00  0.00    -0.235 N 
ATOM    128  NH2 ARG d  16    1264.688 376.307-1255.146  0.00  0.00    -0.235 N 
ATOM    129 11HH ARG d  16    1263.254 373.735-1254.111  0.00  0.00     0.174 HD
ATOM    130 12HH ARG d  16    1264.113 375.043-1253.165  0.00  0.00     0.174 HD
ATOM    131 21HH ARG d  16    1264.872 376.751-1256.048  0.00  0.00     0.174 HD
ATOM    132 22HH ARG d  16    1264.978 376.661-1254.234  0.00  0.00     0.174 HD
ATOM    133  HE  ARG d  16    1263.910 375.294-1257.137  0.00  0.00     0.177 HD
ENDBRANCH 124 125
ENDBRANCH 123 124
ENDBRANCH 122 123
ENDBRANCH 119 122
ENDBRANCH 117 119
ENDBRANCH 114 115
BRANCH 114 134
ATOM    134  CB  MET d  15    1257.698 369.585-1260.838  0.00  0.00     0.045 C 
BRANCH 134 135
ATOM    135  CG  MET d  15    1256.536 368.586-1261.029  0.00  0.00     0.076 C 
BRANCH 135 136
ATOM    136  SD  MET d  15    1254.962 369.450-1260.913  0.00  0.00    -0.173 SA
ATOM    137  CE  MET d  15    1253.882 368.020-1260.777  0.00  0.00     0.089 C 
ENDBRANCH 135 136
ENDBRANCH 134 135
ENDBRANCH 114 134
ENDBRANCH 112 114
ENDBRANCH 109 110
BRANCH 109 138
ATOM    138  CB  VAL d  14    1260.147 364.916-1259.800  0.00  0.00     0.009 C 
ATOM    139  CG1 VAL d  14    1260.236 364.498-1261.294  0.00  0.00     0.012 C 
ATOM    140  CG2 VAL d  14    1260.581 363.663-1259.001  0.00  0.00     0.012 C 
ENDBRANCH 109 138
ENDBRANCH 107 109
ENDBRANCH 104 105
BRANCH 104 141
ATOM    141  CB  ARG d  13    1261.510 367.078-1255.063  0.00  0.00     0.036 C 
BRANCH 141 142
ATOM    142  CG  ARG d  13    1263.055 367.233-1254.983  0.00  0.00     0.023 C 
BRANCH 142 143
ATOM    143  CD  ARG d  13    1263.684 366.246-1253.986  0.00  0.00     0.138 C 
BRANCH 143 144
ATOM    144  NE  ARG d  13    1265.161 366.454-1253.937  0.00  0.00    -0.227 N 
ATOM    145  CZ  ARG d  13    1266.010 365.763-1253.183  0.00  0.00     0.665 C 
ATOM    146  NH1 ARG d  13    1265.647 364.798-1252.386  0.00  0.00    -0.235 N 
ATOM    147  NH2 ARG d  13    1267.269 366.064-1253.241  0.00  0.00    -0.235 N 
ATOM    148 11HH ARG d  13    1264.642 364.611-1252.388  0.00  0.00     0.174 HD
ATOM    149 12HH ARG d  13    1266.361 364.316-1251.838  0.00  0.00     0.174 HD
ATOM    150 21HH ARG d  13    1267.536 366.822-1253.872  0.00  0.00     0.174 HD
ATOM    151 22HH ARG d  13    1267.906 365.523-1252.653  0.00  0.00     0.174 HD
ATOM    152  HE  ARG d  13    1265.611 367.177-1254.508  0.00  0.00     0.177 HD
ENDBRANCH 143 144
ENDBRANCH 142 143
ENDBRANCH 141 142
ENDBRANCH 104 141
ENDBRANCH 102 104
ENDBRANCH  99 100
BRANCH  99 153
ATOM    153  CB  GLN d  12    1256.689 369.354-1255.061  0.00  0.00     0.044 C 
BRANCH 153 154
ATOM    154  CG  GLN d  12    1257.048 370.876-1255.030  0.00  0.00     0.105 C 
BRANCH 154 155
ATOM    155  CD  GLN d  12    1256.746 371.689-1253.765  0.00  0.00     0.215 C 
ATOM    156  NE2 GLN d  12    1256.180 371.112-1252.735  0.00  0.00    -0.370 N 
ATOM    157 21HE GLN d  12    1256.073 371.706-1251.912  0.00  0.00     0.159 HD
ATOM    158 22HE GLN d  12    1256.017 370.108-1252.839  0.00  0.00     0.159 HD
ATOM    159  OE1 GLN d  12    1257.047 372.870-1253.687  0.00  0.00    -0.274 OA
ENDBRANCH 154 155
ENDBRANCH 153 154
ENDBRANCH  99 153
ENDBRANCH  97  99
ENDBRANCH  94  95
BRANCH  94 160
ATOM    160  CB  VAL d  11    1254.844 364.840-1257.266  0.00  0.00     0.009 C 
ATOM    161  CG1 VAL d  11    1254.274 365.543-1258.528  0.00  0.00     0.012 C 
ATOM    162  CG2 VAL d  11    1254.321 363.385-1257.338  0.00  0.00     0.012 C 
ENDBRANCH  94 160
ENDBRANCH  92  94
ENDBRANCH  89  90
BRANCH  89 163
ATOM    163  CB  HIS d  10    1258.206 362.310-1254.023  0.00  0.00     0.095 C 
BRANCH 163 164
ATOM    164  CG  HIS d  10    1259.492 361.601-1253.716  0.00  0.00     0.053 A 
ATOM    165  CD2 HIS d  10    1259.874 361.266-1252.423  0.00  0.00     0.116 A 
ATOM    166  NE2 HIS d  10    1261.089 360.635-1252.491  0.00  0.00    -0.359 N 
ATOM    167  CE1 HIS d  10    1261.351 360.638-1253.826  0.00  0.00     0.207 A 
ATOM    168  2HE HIS d  10    1261.657 360.258-1251.718  0.00  0.00     0.166 HD
ATOM    169  ND1 HIS d  10    1260.444 361.196-1254.649  0.00  0.00    -0.247 NA
ENDBRANCH 163 164
ENDBRANCH  89 163
ENDBRANCH   3  89
TORSDOF 68
