@<TRIPOS>MOLECULE
6-15
260 261 16              
SMALL
USER_CHARGES
@<TRIPOS>ATOM
1	   N	975.836	268.863	-950.696	N.3	1	GLU1	-0.516	
2	  CA	976.395	270.212	-950.696	C.3	1	GLU1	0.040	
3	   C	977.904	270.172	-950.696	C.2	1	GLU1	0.537	
4	   O	978.580	270.871	-951.464	O.2	1	GLU1	-0.582	
5	  CB	975.872	270.997	-949.459	C.3	1	GLU1	0.056	
6	  CG	976.347	272.482	-949.348	C.3	1	GLU1	0.014	
7	  CD	975.923	273.286	-948.133	C.2	1	GLU1	0.805	
8	 OE1	975.195	272.784	-947.255	O.co2	1	GLU1	-0.819	
9	 OE2	976.353	274.456	-948.061	O.co2	1	GLU1	-0.819	
10	   H	976.463	267.984	-950.696	 H	1	GLU1	0.294	
11	  HA	976.069	270.730	-951.616	 H	1	GLU1	0.111	
12	 2HB	976.161	270.466	-948.529	 H	1	GLU1	-0.017	
13	 3HB	974.765	270.987	-949.446	 H	1	GLU1	-0.017	
14	 2HG	976.037	273.067	-950.229	 H	1	GLU1	-0.043	
15	 3HG	977.447	272.549	-949.319	 H	1	GLU1	-0.043	
16	   N	978.508	269.386	-949.871	N.am	2	ASN2	-0.416	
17	  CA	979.968	269.347	-949.871	C.3	2	ASN2	0.014	
18	   C	980.499	268.992	-951.239	C.2	2	ASN2	0.597	
19	   O	981.414	269.622	-951.768	O.2	2	ASN2	-0.568	
20	  CB	980.460	268.324	-948.806	C.3	2	ASN2	-0.204	
21	  CG	979.997	268.548	-947.363	C.2	2	ASN2	0.713	
22	 ND2	980.591	269.463	-946.645	N.pl3	2	ASN2	-0.919	
23	 OD1	979.076	267.914	-946.869	O.2	2	ASN2	-0.593	
24	   H	977.980	268.806	-949.234	 H	2	ASN2	0.272	
25	  HA	980.345	270.357	-949.625	 H	2	ASN2	0.105	
26	 2HB	981.564	268.265	-948.810	 H	2	ASN2	0.080	
27	 3HB	980.131	267.306	-949.092	 H	2	ASN2	0.080	
28	1HD2	980.110	269.636	-945.758	 H	2	ASN2	0.420	
29	2HD2	981.293	270.035	-947.114	 H	2	ASN2	0.420	
30	   N	979.977	267.997	-951.873	N.am	3	PRO3	-0.255	
31	  CA	980.429	267.588	-953.195	C.3	3	PRO3	-0.027	
32	   C	980.031	268.611	-954.272	C.2	3	PRO3	0.590	
33	   O	980.854	268.994	-955.103	O.2	3	PRO3	-0.575	
34	  CB	979.725	266.233	-953.364	C.3	3	PRO3	-0.007	
35	  CG	978.442	266.385	-952.534	C.3	3	PRO3	0.019	
36	  CD	978.899	267.204	-951.324	C.3	3	PRO3	0.019	
37	  HA	981.515	267.468	-953.209	 H	3	PRO3	0.064	
38	 2HB	980.348	265.452	-952.924	 H	3	PRO3	0.025	
39	 3HB	979.527	265.984	-954.410	 H	3	PRO3	0.025	
40	 2HG	978.014	265.423	-952.243	 H	3	PRO3	0.021	
41	 3HG	977.704	266.956	-953.102	 H	3	PRO3	0.021	
42	 2HD	979.289	266.554	-950.537	 H	3	PRO3	0.039	
43	 3HD	978.103	267.839	-950.931	 H	3	PRO3	0.039	
44	   N	978.826	269.071	-954.304	N.am	4	GLU4	-0.516	
45	  CA	978.467	270.042	-955.334	C.3	4	GLU4	0.040	
46	   C	979.365	271.253	-955.273	C.2	4	GLU4	0.537	
47	   O	979.892	271.733	-956.287	O.2	4	GLU4	-0.582	
48	  CB	976.978	270.460	-955.164	C.3	4	GLU4	0.056	
49	  CG	976.430	271.464	-956.229	C.3	4	GLU4	0.014	
50	  CD	975.003	271.960	-956.086	C.2	4	GLU4	0.805	
51	 OE1	974.277	271.562	-955.155	O.co2	4	GLU4	-0.819	
52	 OE2	974.614	272.790	-956.934	O.co2	4	GLU4	-0.819	
53	   H	978.142	268.764	-953.628	 H	4	GLU4	0.294	
54	  HA	978.598	269.571	-956.325	 H	4	GLU4	0.111	
55	 2HB	976.826	270.900	-954.157	 H	4	GLU4	-0.017	
56	 3HB	976.330	269.562	-955.170	 H	4	GLU4	-0.017	
57	 2HG	976.511	271.049	-957.247	 H	4	GLU4	-0.043	
58	 3HG	977.018	272.396	-956.240	 H	4	GLU4	-0.043	
59	   N	979.593	271.806	-954.129	N.am	5	SER5	-0.416	
60	  CA	980.462	272.977	-954.071	C.3	5	SER5	-0.025	
61	   C	981.821	272.672	-954.656	C.2	5	SER5	0.597	
62	   O	982.368	273.425	-955.461	O.2	5	SER5	-0.568	
63	  CB	980.573	273.509	-952.620	C.3	5	SER5	0.212	
64	  OG	981.305	272.630	-951.759	O.3	5	SER5	-0.655	
65	   H	979.176	271.434	-953.288	 H	5	SER5	0.272	
66	  HA	980.013	273.767	-954.700	 H	5	SER5	0.084	
67	 2HB	979.574	273.703	-952.187	 H	5	SER5	0.035	
68	 3HB	981.079	274.495	-952.623	 H	5	SER5	0.035	
69	  HG	980.816	271.805	-951.709	 H	5	SER5	0.428	
70	   N	982.426	271.589	-954.302	N.am	6	ASN6	-0.416	
71	  CA	983.739	271.294	-954.868	C.3	6	ASN6	0.014	
72	   C	983.681	271.257	-956.377	C.2	6	ASN6	0.597	
73	   O	984.508	271.840	-957.077	O.2	6	ASN6	-0.568	
74	  CB	984.256	269.940	-954.303	C.3	6	ASN6	-0.204	
75	  CG	984.365	269.820	-952.780	C.2	6	ASN6	0.713	
76	 ND2	985.382	270.371	-952.175	N.pl3	6	ASN6	-0.919	
77	 OD1	983.520	269.244	-952.110	O.2	6	ASN6	-0.593	
78	   H	981.998	270.954	-953.643	 H	6	ASN6	0.272	
79	  HA	984.432	272.109	-954.588	 H	6	ASN6	0.105	
80	 2HB	985.240	269.690	-954.741	 H	6	ASN6	0.080	
81	 3HB	983.591	269.120	-954.641	 H	6	ASN6	0.080	
82	1HD2	985.281	270.366	-951.157	 H	6	ASN6	0.420	
83	2HD2	986.020	270.920	-952.751	 H	6	ASN6	0.420	
84	   N	982.735	270.593	-956.950	N.am	7	LEU7	-0.416	
85	  CA	982.679	270.557	-958.409	C.3	7	LEU7	-0.052	
86	   C	982.606	271.952	-958.981	C.2	7	LEU7	0.597	
87	   O	983.325	272.315	-959.924	O.2	7	LEU7	-0.568	
88	  CB	981.475	269.696	-958.888	C.3	7	LEU7	-0.110	
89	  CG	981.403	268.217	-958.421	C.3	7	LEU7	0.353	
90	 CD1	980.213	267.511	-959.086	C.3	7	LEU7	-0.412	
91	 CD2	982.697	267.438	-958.714	C.3	7	LEU7	-0.412	
92	   H	982.043	270.106	-956.398	 H	7	LEU7	0.272	
93	  HA	983.620	270.117	-958.784	 H	7	LEU7	0.092	
94	 2HB	981.451	269.712	-959.995	 H	7	LEU7	0.046	
95	 3HB	980.536	270.199	-958.583	 H	7	LEU7	0.046	
96	  HG	981.234	268.209	-957.324	 H	7	LEU7	-0.036	
97	1HD1	979.256	268.020	-958.862	 H	7	LEU7	0.100	
98	2HD1	980.311	267.470	-960.187	 H	7	LEU7	0.100	
99	3HD1	980.107	266.469	-958.729	 H	7	LEU7	0.100	
100	1HD2	982.971	267.468	-959.784	 H	7	LEU7	0.100	
101	2HD2	983.550	267.850	-958.143	 H	7	LEU7	0.100	
102	3HD2	982.616	266.376	-958.417	 H	7	LEU7	0.100	
103	   N	981.768	272.792	-958.474	N.am	8	ASP8	-0.516	
104	  CA	981.697	274.142	-959.027	C.3	8	ASP8	0.038	
105	   C	983.044	274.822	-958.971	C.2	8	ASP8	0.537	
106	   O	983.516	275.427	-959.946	O.2	8	ASP8	-0.582	
107	  CB	980.620	274.981	-958.285	C.3	8	ASP8	-0.030	
108	  CG	980.400	276.401	-958.825	C.2	8	ASP8	0.799	
109	 OD1	980.463	276.600	-960.056	O.co2	8	ASP8	-0.801	
110	 OD2	980.208	277.327	-958.009	O.co2	8	ASP8	-0.801	
111	   H	981.171	272.521	-957.706	 H	8	ASP8	0.294	
112	  HA	981.414	274.064	-960.094	 H	8	ASP8	0.088	
113	 2HB	980.878	275.064	-957.213	 H	8	ASP8	-0.012	
114	 3HB	979.641	274.475	-958.317	 H	8	ASP8	-0.012	
115	   N	983.724	274.772	-957.876	N.am	9	GLU9	-0.516	
116	  CA	985.027	275.430	-957.822	C.3	9	GLU9	0.040	
117	   C	985.944	274.903	-958.898	C.2	9	GLU9	0.537	
118	   O	986.608	275.657	-959.624	O.2	9	GLU9	-0.582	
119	  CB	985.662	275.222	-956.417	C.3	9	GLU9	0.056	
120	  CG	987.044	275.915	-956.189	C.3	9	GLU9	0.014	
121	  CD	987.747	275.702	-954.861	C.2	9	GLU9	0.805	
122	 OE1	987.226	275.011	-953.964	O.co2	9	GLU9	-0.819	
123	 OE2	988.866	276.240	-954.730	O.co2	9	GLU9	-0.819	
124	   H	983.362	274.286	-957.069	 H	9	GLU9	0.294	
125	  HA	984.885	276.512	-957.997	 H	9	GLU9	0.111	
126	 2HB	985.775	274.138	-956.214	 H	9	GLU9	-0.017	
127	 3HB	984.965	275.575	-955.632	 H	9	GLU9	-0.017	
128	 2HG	986.972	277.006	-956.328	 H	9	GLU9	-0.043	
129	 3HG	987.790	275.570	-956.923	 H	9	GLU9	-0.043	
130	   N	986.041	273.628	-959.068	N.am	10	HIS10	-0.416	
131	  CA	986.928	273.116	-960.109	C.3	10	HIS10	-0.058	
132	   C	986.560	273.681	-961.460	C.2	10	HIS10	0.597	
133	   O	987.412	274.146	-962.232	O.2	10	HIS10	-0.568	
134	  CB	986.765	271.588	-960.104	C.3	10	HIS10	-0.007	
135	  CG	988.051	270.878	-959.797	C.2	10	HIS10	0.187	
136	 CD2	988.432	270.542	-958.505	C.2	10	HIS10	-0.221	
137	 ND1	989.002	270.472	-960.730	N.2	10	HIS10	-0.543	
138	 CE1	989.909	269.914	-959.908	C.2	10	HIS10	0.163	
139	 NE2	989.647	269.911	-958.572	N.pl3	10	HIS10	-0.280	
140	   H	985.511	272.992	-958.489	 H	10	HIS10	0.272	
141	  HA	987.947	273.474	-959.885	 H	10	HIS10	0.136	
142	 2HB	986.399	271.221	-961.084	 H	10	HIS10	0.037	
143	 3HB	986.010	271.250	-959.364	 H	10	HIS10	0.037	
144	 2HD	987.847	270.757	-957.615	 H	10	HIS10	0.186	
145	 1HE	990.800	269.493	-960.355	 H	10	HIS10	0.144	
146	 2HE	990.215	269.534	-957.799	 H	10	HIS10	0.334	
147	   N	985.322	273.680	-961.822	N.am	11	VAL11	-0.416	
148	  CA	984.966	274.226	-963.129	C.3	11	VAL11	-0.087	
149	   C	985.430	275.657	-963.261	C.2	11	VAL11	0.597	
150	   O	986.030	276.062	-964.265	O.2	11	VAL11	-0.568	
151	  CB	983.405	274.119	-963.347	C.3	11	VAL11	0.299	
152	 CG1	982.835	274.823	-964.609	C.3	11	VAL11	-0.319	
153	 CG2	982.881	272.665	-963.420	C.3	11	VAL11	-0.319	
154	   H	984.610	273.307	-961.211	 H	11	VAL11	0.272	
155	  HA	985.485	273.644	-963.911	 H	11	VAL11	0.097	
156	  HB	982.918	274.599	-962.471	 H	11	VAL11	-0.030	
157	1HG1	983.273	274.431	-965.547	 H	11	VAL11	0.079	
158	2HG1	981.736	274.715	-964.690	 H	11	VAL11	0.079	
159	3HG1	983.013	275.915	-964.600	 H	11	VAL11	0.079	
160	1HG2	983.171	272.077	-962.529	 H	11	VAL11	0.079	
161	2HG2	981.775	272.627	-963.462	 H	11	VAL11	0.079	
162	3HG2	983.262	272.124	-964.307	 H	11	VAL11	0.079	
163	   N	985.193	276.482	-962.299	N.am	12	GLN12	-0.416	
164	  CA	985.642	277.865	-962.426	C.3	12	GLN12	-0.003	
165	   C	987.131	277.933	-962.665	C.2	12	GLN12	0.597	
166	   O	987.617	278.642	-963.544	O.2	12	GLN12	-0.568	
167	  CB	985.251	278.633	-961.143	C.3	12	GLN12	-0.004	
168	  CG	985.611	280.155	-961.112	C.3	12	GLN12	-0.064	
169	  CD	985.310	280.968	-959.847	C.2	12	GLN12	0.695	
170	 NE2	984.743	280.391	-958.818	N.pl3	12	GLN12	-0.941	
171	 OE1	985.611	282.149	-959.770	O.2	12	GLN12	-0.609	
172	   H	984.705	276.176	-961.469	 H	12	GLN12	0.272	
173	  HA	985.141	278.322	-963.301	 H	12	GLN12	0.085	
174	 2HB	985.728	278.132	-960.274	 H	12	GLN12	0.017	
175	 3HB	984.161	278.525	-960.979	 H	12	GLN12	0.017	
176	 2HG	985.133	280.675	-961.963	 H	12	GLN12	0.035	
177	 3HG	986.695	280.297	-961.279	 H	12	GLN12	0.035	
178	1HE2	984.637	280.986	-957.994	 H	12	GLN12	0.425	
179	2HE2	984.580	279.388	-958.921	 H	12	GLN12	0.425	
180	   N	987.917	277.227	-961.925	N.am	13	ARG13	-0.348	
181	  CA	989.357	277.293	-962.157	C.3	13	ARG13	-0.264	
182	   C	989.692	276.921	-963.582	C.2	13	ARG13	0.734	
183	   O	990.460	277.593	-964.267	O.2	13	ARG13	-0.589	
184	  CB	990.071	276.354	-961.143	C.3	13	ARG13	-0.001	
185	  CG	991.616	276.508	-961.064	C.3	13	ARG13	0.039	
186	  CD	992.244	275.520	-960.066	C.3	13	ARG13	0.049	
187	  NE	993.721	275.728	-960.017	N.pl3	13	ARG13	-0.530	
188	  CZ	994.570	275.036	-959.262	C.cat	13	ARG13	0.808	
189	 NH1	994.206	274.072	-958.465	N.pl3	13	ARG13	-0.863	
190	 NH2	995.829	275.335	-959.320	N.pl3	13	ARG13	-0.863	
191	   H	987.541	276.637	-961.196	 H	13	ARG13	0.275	
192	  HA	989.681	278.339	-961.999	 H	13	ARG13	0.156	
193	 2HB	989.805	275.303	-961.382	 H	13	ARG13	0.033	
194	 3HB	989.647	276.520	-960.132	 H	13	ARG13	0.033	
195	 2HG	991.864	277.552	-960.784	 H	13	ARG13	0.029	
196	 3HG	992.066	276.352	-962.065	 H	13	ARG13	0.029	
197	 2HD	992.000	274.480	-960.375	 H	13	ARG13	0.069	
198	 3HD	991.788	275.666	-959.063	 H	13	ARG13	0.069	
199	  HE	994.172	276.450	-960.588	 H	13	ARG13	0.346	
200	1HH1	993.201	273.885	-958.467	 H	13	ARG13	0.448	
201	2HH1	994.920	273.589	-957.917	 H	13	ARG13	0.448	
202	1HH2	996.096	276.093	-959.951	 H	13	ARG13	0.448	
203	2HH2	996.465	274.794	-958.732	 H	13	ARG13	0.448	
204	   N	989.156	275.867	-964.096	N.am	14	VAL14	-0.416	
205	  CA	989.479	275.507	-965.474	C.3	14	VAL14	-0.087	
206	   C	989.148	276.637	-966.419	C.2	14	VAL14	0.597	
207	   O	989.941	277.019	-967.289	O.2	14	VAL14	-0.568	
208	  CB	988.707	274.190	-965.880	C.3	14	VAL14	0.299	
209	 CG1	988.795	273.772	-967.373	C.3	14	VAL14	-0.319	
210	 CG2	989.140	272.938	-965.080	C.3	14	VAL14	-0.319	
211	   H	988.521	275.298	-963.554	 H	14	VAL14	0.272	
212	  HA	990.568	275.331	-965.549	 H	14	VAL14	0.097	
213	  HB	987.631	274.361	-965.663	 H	14	VAL14	-0.030	
214	1HG1	989.836	273.595	-967.703	 H	14	VAL14	0.079	
215	2HG1	988.222	272.848	-967.586	 H	14	VAL14	0.079	
216	3HG1	988.365	274.534	-968.051	 H	14	VAL14	0.079	
217	1HG2	989.054	273.097	-963.989	 H	14	VAL14	0.079	
218	2HG2	988.504	272.062	-965.311	 H	14	VAL14	0.079	
219	3HG2	990.188	272.648	-965.286	 H	14	VAL14	0.079	
220	   N	988.003	277.223	-966.316	N.am	15	MET15	-0.416	
221	  CA	987.682	278.316	-967.230	C.3	15	MET15	-0.024	
222	   C	988.712	279.415	-967.143	C.2	15	MET15	0.597	
223	   O	989.214	279.926	-968.156	O.2	15	MET15	-0.568	
224	  CB	986.261	278.861	-966.920	C.3	15	MET15	0.034	
225	  CG	985.099	277.863	-967.111	C.3	15	MET15	0.002	
226	  SD	983.525	278.728	-966.995	S.3	15	MET15	-0.274	
227	  CE	982.444	277.299	-966.858	C.3	15	MET15	-0.054	
228	   H	987.339	276.930	-965.614	 H	15	MET15	0.272	
229	  HA	987.707	277.928	-968.266	 H	15	MET15	0.088	
230	 2HB	986.058	279.740	-967.562	 H	15	MET15	0.024	
231	 3HB	986.226	279.254	-965.884	 H	15	MET15	0.024	
232	 2HG	985.143	277.077	-966.333	 H	15	MET15	0.044	
233	 3HG	985.161	277.347	-968.087	 H	15	MET15	0.044	
234	 1HE	982.587	276.610	-967.710	 H	15	MET15	0.068	
235	 2HE	982.654	276.746	-965.925	 H	15	MET15	0.068	
236	 3HE	981.386	277.614	-966.840	 H	15	MET15	0.068	
237	   N	989.082	279.837	-965.981	N.am	16	ARG16	-0.348	
238	  CA	990.078	280.901	-965.898	C.3	16	ARG16	-0.264	
239	   C	991.348	280.508	-966.616	C.2	16	ARG16	0.734	
240	   O	991.462	279.432	-967.197	O.2	16	ARG16	-0.589	
241	  CB	990.348	281.219	-964.400	C.3	16	ARG16	-0.001	
242	  CG	991.174	282.508	-964.128	C.3	16	ARG16	0.039	
243	  CD	991.424	282.728	-962.627	C.3	16	ARG16	0.049	
244	  NE	992.201	283.987	-962.427	N.pl3	16	ARG16	-0.530	
245	  CZ	992.593	284.469	-961.252	C.cat	16	ARG16	0.808	
246	 NH1	992.346	283.885	-960.113	N.pl3	16	ARG16	-0.863	
247	 NH2	993.256	285.582	-961.234	N.pl3	16	ARG16	-0.863	
248	   H	988.688	279.437	-965.142	 H	16	ARG16	0.275	
249	  HA	989.669	281.793	-966.408	 H	16	ARG16	0.156	
250	 2HB	990.846	280.343	-963.934	 H	16	ARG16	0.033	
251	 3HB	989.380	281.300	-963.866	 H	16	ARG16	0.033	
252	 2HG	990.643	283.379	-964.565	 H	16	ARG16	0.029	
253	 3HG	992.147	282.455	-964.658	 H	16	ARG16	0.029	
254	 2HD	991.974	281.853	-962.214	 H	16	ARG16	0.069	
255	 3HD	990.452	282.770	-962.091	 H	16	ARG16	0.069	
256	  HE	992.478	284.568	-963.224	 H	16	ARG16	0.346	
257	1HH1	991.820	283.012	-960.197	 H	16	ARG16	0.448	
258	2HH1	992.681	284.321	-959.252	 H	16	ARG16	0.448	
259	1HH2	993.441	286.025	-962.136	 H	16	ARG16	0.448	
260	2HH2	993.547	285.937	-960.322	 H	16	ARG16	0.448	
@<TRIPOS>BOND
1 1 2 1
2 1 10 1
3 2 3 1
4 2 5 1
5 2 11 1
6 3 4 2
7 3 16 1
8 5 6 1
9 6 7 1
10 7 8 2
11 7 9 1
12 5 12 1
13 5 13 1
14 6 14 1
15 6 15 1
16 16 17 1
17 16 24 1
18 17 18 1
19 17 20 1
20 17 25 1
21 18 19 2
22 18 30 1
23 20 21 1
24 21 22 1
25 21 23 2
26 20 26 1
27 20 27 1
28 22 28 1
29 22 29 1
30 30 31 1
31 30 36 1
32 31 32 1
33 31 34 1
34 31 37 1
35 32 33 2
36 32 44 1
37 34 35 1
38 35 36 1
39 34 38 1
40 34 39 1
41 35 40 1
42 35 41 1
43 36 42 1
44 36 43 1
45 44 45 1
46 44 53 1
47 45 46 1
48 45 48 1
49 45 54 1
50 46 47 2
51 46 59 1
52 48 49 1
53 49 50 1
54 50 51 2
55 50 52 1
56 48 55 1
57 48 56 1
58 49 57 1
59 49 58 1
60 59 60 1
61 59 65 1
62 60 61 1
63 60 63 1
64 60 66 1
65 61 62 2
66 61 70 1
67 63 64 1
68 63 67 1
69 63 68 1
70 64 69 1
71 70 71 1
72 70 78 1
73 71 72 1
74 71 74 1
75 71 79 1
76 72 73 2
77 72 84 1
78 74 75 1
79 75 76 1
80 75 77 2
81 74 80 1
82 74 81 1
83 76 82 1
84 76 83 1
85 84 85 1
86 84 92 1
87 85 86 1
88 85 88 1
89 85 93 1
90 86 87 2
91 86 103 1
92 88 89 1
93 89 90 1
94 89 91 1
95 88 94 1
96 88 95 1
97 89 96 1
98 90 97 1
99 90 98 1
100 90 99 1
101 91 100 1
102 91 101 1
103 91 102 1
104 103 104 1
105 103 111 1
106 104 105 1
107 104 107 1
108 104 112 1
109 105 106 2
110 105 115 1
111 107 108 1
112 108 109 2
113 108 110 1
114 107 113 1
115 107 114 1
116 115 116 1
117 115 124 1
118 116 117 1
119 116 119 1
120 116 125 1
121 117 118 2
122 117 130 1
123 119 120 1
124 120 121 1
125 121 122 2
126 121 123 1
127 119 126 1
128 119 127 1
129 120 128 1
130 120 129 1
131 130 131 1
132 130 140 1
133 131 132 1
134 131 134 1
135 131 141 1
136 132 133 2
137 132 147 1
138 134 135 1
139 135 136 2
140 136 139 1
141 135 137 1
142 137 138 2
143 138 139 1
144 134 142 1
145 134 143 1
146 136 144 1
147 138 145 1
148 139 146 1
149 147 148 1
150 147 154 1
151 148 149 1
152 148 151 1
153 148 155 1
154 149 150 2
155 149 163 1
156 151 152 1
157 151 153 1
158 151 156 1
159 152 157 1
160 152 158 1
161 152 159 1
162 153 160 1
163 153 161 1
164 153 162 1
165 163 164 1
166 163 172 1
167 164 165 1
168 164 167 1
169 164 173 1
170 165 166 2
171 165 180 1
172 167 168 1
173 168 169 1
174 169 170 1
175 169 171 2
176 167 174 1
177 167 175 1
178 168 176 1
179 168 177 1
180 170 178 1
181 170 179 1
182 180 181 1
183 180 191 1
184 181 182 1
185 181 184 1
186 181 192 1
187 182 183 2
188 182 204 1
189 184 185 1
190 185 186 1
191 186 187 1
192 187 188 1
193 188 189 2
194 188 190 1
195 184 193 1
196 184 194 1
197 185 195 1
198 185 196 1
199 186 197 1
200 186 198 1
201 187 199 1
202 189 200 1
203 189 201 1
204 190 202 1
205 190 203 1
206 204 205 1
207 204 211 1
208 205 206 1
209 205 208 1
210 205 212 1
211 206 207 2
212 206 220 1
213 208 209 1
214 208 210 1
215 208 213 1
216 209 214 1
217 209 215 1
218 209 216 1
219 210 217 1
220 210 218 1
221 210 219 1
222 220 221 1
223 220 228 1
224 221 222 1
225 221 224 1
226 221 229 1
227 222 223 2
228 222 237 1
229 224 225 1
230 225 226 1
231 226 227 1
232 224 230 1
233 224 231 1
234 225 232 1
235 225 233 1
236 227 234 1
237 227 235 1
238 227 236 1
239 237 238 1
240 237 248 1
241 238 239 1
242 238 241 1
243 238 249 1
244 239 240 2
245 241 242 1
246 242 243 1
247 243 244 1
248 244 245 1
249 245 246 2
250 245 247 1
251 241 250 1
252 241 251 1
253 242 252 1
254 242 253 1
255 243 254 1
256 243 255 1
257 244 256 1
258 246 257 1
259 246 258 1
260 247 259 1
261 247 260 1
@<TRIPOS>SUBSTRUCTURE
1	GLU1	1	RESIDUE	1 ****	GLU
2	ASN2	16	RESIDUE	1 ****	ASN
3	PRO3	30	RESIDUE	1 ****	PRO
4	GLU4	44	RESIDUE	1 ****	GLU
5	SER5	59	RESIDUE	1 ****	SER
6	ASN6	70	RESIDUE	1 ****	ASN
7	LEU7	84	RESIDUE	1 ****	LEU
8	ASP8	103	RESIDUE	1 ****	ASP
9	GLU9	115	RESIDUE	1 ****	GLU
10	HIS10	130	RESIDUE	1 ****	HIS
11	VAL11	147	RESIDUE	1 ****	VAL
12	GLN12	163	RESIDUE	1 ****	GLN
13	ARG13	180	RESIDUE	1 ****	ARG
14	VAL14	204	RESIDUE	1 ****	VAL
15	MET15	220	RESIDUE	1 ****	MET
16	ARG16	237	RESIDUE	1 ****	ARG
