REMARK WARNING: 32 MAX_TORS EXCEEDED!!!
REMARK  68 active torsions:
REMARK  status: ('A' for Active; 'I' for Inactive)
REMARK    1  A    between atoms: N_1  and  CA_2 
REMARK    2  A    between atoms: CA_2  and  C_3 
REMARK    3  A    between atoms: CA_2  and  CB_5 
REMARK       I    between atoms: C_3  and  N_11 
REMARK    4  A    between atoms: CB_5  and  CG_6 
REMARK    5  A    between atoms: CG_6  and  CD_7 
REMARK    6  A    between atoms: N_11  and  CA_12 
REMARK    7  A    between atoms: CA_12  and  C_13 
REMARK    8  A    between atoms: CA_12  and  CB_15 
REMARK       I    between atoms: C_13  and  N_19 
REMARK    9  A    between atoms: CB_15  and  SG_16 
REMARK   10  A    between atoms: CA_20  and  C_21 
REMARK       I    between atoms: C_21  and  N_26 
REMARK   11  A    between atoms: N_26  and  CA_27 
REMARK   12  A    between atoms: CA_27  and  C_28 
REMARK   13  A    between atoms: CA_27  and  CB_30 
REMARK       I    between atoms: C_28  and  N_36 
REMARK   14  A    between atoms: CB_30  and  CG_31 
REMARK   15  A    between atoms: CG_31  and  CD_32 
REMARK   16  A    between atoms: N_36  and  CA_37 
REMARK   17  A    between atoms: CA_37  and  C_38 
REMARK   18  A    between atoms: CA_37  and  CB_40 
REMARK       I    between atoms: C_38  and  N_44 
REMARK   19  A    between atoms: CB_40  and  OG_41 
REMARK   20  A    between atoms: N_44  and  CA_45 
REMARK   21  A    between atoms: CA_45  and  C_46 
REMARK   22  A    between atoms: CA_45  and  CB_48 
REMARK       I    between atoms: C_46  and  N_53 
REMARK   23  A    between atoms: CB_48  and  CG1_49 
REMARK   24  A    between atoms: N_53  and  CA_54 
REMARK   25  A    between atoms: CA_54  and  C_55 
REMARK   26  A    between atoms: CA_54  and  CB_57 
REMARK       I    between atoms: C_55  and  N_62 
REMARK   27  A    between atoms: CB_57  and  CG_58 
REMARK   28  A    between atoms: N_62  and  CA_63 
REMARK   29  A    between atoms: CA_63  and  C_64 
REMARK   30  A    between atoms: CA_63  and  CB_66 
REMARK       I    between atoms: C_64  and  N_71 
REMARK   31  A    between atoms: CB_66  and  CG_67 
REMARK   32  A    between atoms: N_71  and  CA_72 
REMARK   33  A    between atoms: CA_72  and  C_73 
REMARK   34  A    between atoms: CA_72  and  CB_75 
REMARK       I    between atoms: C_73  and  N_81 
REMARK   35  A    between atoms: CB_75  and  CG_76 
REMARK   36  A    between atoms: CG_76  and  CD_77 
REMARK   37  A    between atoms: N_81  and  CA_82 
REMARK   38  A    between atoms: CA_82  and  C_83 
REMARK   39  A    between atoms: CA_82  and  CB_85 
REMARK       I    between atoms: C_83  and  N_93 
REMARK   40  A    between atoms: CB_85  and  CG_86 
REMARK   41  A    between atoms: N_93  and  CA_94 
REMARK   42  A    between atoms: CA_94  and  C_95 
REMARK   43  A    between atoms: CA_94  and  CB_97 
REMARK       I    between atoms: C_95  and  N_101 
REMARK   44  A    between atoms: N_101  and  CA_102 
REMARK   45  A    between atoms: CA_102  and  C_103 
REMARK   46  A    between atoms: CA_102  and  CB_105 
REMARK       I    between atoms: C_103  and  N_113 
REMARK   47  A    between atoms: CB_105  and  CG_106 
REMARK   48  A    between atoms: CG_106  and  CD_107 
REMARK       I    between atoms: CD_107  and  NE2_108 
REMARK   49  A    between atoms: N_113  and  CA_114 
REMARK   50  A    between atoms: CA_114  and  C_115 
REMARK   51  A    between atoms: CA_114  and  CB_117 
REMARK       I    between atoms: C_115  and  N_130 
REMARK   52  A    between atoms: CB_117  and  CG_118 
REMARK   53  A    between atoms: CG_118  and  CD_119 
REMARK   54  A    between atoms: CD_119  and  NE_120 
REMARK       I    between atoms: NE_120  and  CZ_121 
REMARK       I    between atoms: CZ_121  and  NH1_122 
REMARK       I    between atoms: CZ_121  and  NH2_123 
REMARK   55  A    between atoms: N_130  and  CA_131 
REMARK   56  A    between atoms: CA_131  and  C_132 
REMARK   57  A    between atoms: CA_131  and  CB_134 
REMARK       I    between atoms: C_132  and  N_138 
REMARK   58  A    between atoms: N_138  and  CA_139 
REMARK   59  A    between atoms: CA_139  and  C_140 
REMARK   60  A    between atoms: CA_139  and  CB_142 
REMARK       I    between atoms: C_140  and  N_147 
REMARK   61  A    between atoms: CB_142  and  CG_143 
REMARK   62  A    between atoms: CG_143  and  SD_144 
REMARK   63  A    between atoms: N_147  and  CA_148 
REMARK   64  A    between atoms: CA_148  and  C_149 
REMARK   65  A    between atoms: CA_148  and  CB_151 
REMARK   66  A    between atoms: CB_151  and  CG_152 
REMARK   67  A    between atoms: CG_152  and  CD_153 
REMARK   68  A    between atoms: CD_153  and  NE_154 
REMARK       I    between atoms: NE_154  and  CZ_155 
REMARK       I    between atoms: CZ_155  and  NH1_156 
ROOT
ATOM      1  C   GLU d   9     274.471  58.524-247.877  0.00  0.00     0.241 C 
ATOM      2  O   GLU d   9     275.136  59.279-248.602  0.00  0.00    -0.271 OA
ATOM      3  N   HIS d  10     274.568  57.249-248.047  0.00  0.00    -0.346 N 
ATOM      4  H   HIS d  10     274.037  56.614-247.469  0.00  0.00     0.163 HD
ENDROOT
BRANCH   3   5
ATOM      5  CA  HIS d  10     275.457  56.738-249.087  0.00  0.00     0.182 C 
BRANCH   5   6
ATOM      6  C   HIS d  10     275.091  57.302-250.438  0.00  0.00     0.241 C 
ATOM      7  O   HIS d  10     275.944  57.767-251.209  0.00  0.00    -0.271 OA
ATOM      8  N   VAL d  11     273.854  57.301-250.802  0.00  0.00    -0.346 N 
ATOM      9  H   VAL d  11     273.140  56.928-250.192  0.00  0.00     0.163 HD
BRANCH   8  10
ATOM     10  CA  VAL d  11     273.500  57.847-252.109  0.00  0.00     0.180 C 
BRANCH  10  11
ATOM     11  C   VAL d  11     273.964  59.278-252.241  0.00  0.00     0.241 C 
ATOM     12  O   VAL d  11     274.566  59.683-253.244  0.00  0.00    -0.271 OA
ATOM     13  N   GLN d  12     273.726  60.104-251.279  0.00  0.00    -0.346 N 
ATOM     14  H   GLN d  12     273.237  59.798-250.450  0.00  0.00     0.163 HD
BRANCH  13  15
ATOM     15  CA  GLN d  12     274.175  61.487-251.406  0.00  0.00     0.177 C 
BRANCH  15  16
ATOM     16  C   GLN d  12     275.665  61.554-251.642  0.00  0.00     0.241 C 
ATOM     17  O   GLN d  12     276.153  62.263-252.520  0.00  0.00    -0.271 OA
ATOM     18  N   ARG d  13     276.449  60.847-250.900  0.00  0.00    -0.346 N 
ATOM     19  H   ARG d  13     276.072  60.257-250.172  0.00  0.00     0.163 HD
BRANCH  18  20
ATOM     20  CA  ARG d  13     277.889  60.913-251.130  0.00  0.00     0.176 C 
BRANCH  20  21
ATOM     21  C   ARG d  13     278.227  60.542-252.554  0.00  0.00     0.241 C 
ATOM     22  O   ARG d  13     278.996  61.214-253.238  0.00  0.00    -0.271 OA
ATOM     23  N   VAL d  14     277.691  59.487-253.069  0.00  0.00    -0.346 N 
ATOM     24  H   VAL d  14     277.056  58.919-252.528  0.00  0.00     0.163 HD
BRANCH  23  25
ATOM     25  CA  VAL d  14     278.018  59.128-254.447  0.00  0.00     0.180 C 
BRANCH  25  26
ATOM     26  C   VAL d  14     277.688  60.258-255.393  0.00  0.00     0.241 C 
ATOM     27  O   VAL d  14     278.483  60.640-256.261  0.00  0.00    -0.271 OA
ATOM     28  N   MET d  15     276.543  60.844-255.292  0.00  0.00    -0.346 N 
ATOM     29  H   MET d  15     275.878  60.551-254.591  0.00  0.00     0.163 HD
BRANCH  28  30
ATOM     30  CA  MET d  15     276.224  61.937-256.206  0.00  0.00     0.177 C 
BRANCH  30  31
ATOM     31  C   MET d  15     277.254  63.037-256.117  0.00  0.00     0.241 C 
ATOM     32  O   MET d  15     277.758  63.548-257.129  0.00  0.00    -0.271 OA
ATOM     33  N   ARG d  16     277.621  63.458-254.954  0.00  0.00    -0.347 N 
ATOM     34  H   ARG d  16     277.226  63.058-254.115  0.00  0.00     0.163 HD
BRANCH  33  35
ATOM     35  CA  ARG d  16     278.618  64.522-254.870  0.00  0.00     0.162 C 
BRANCH  35  36
ATOM     36  C   ARG d  16     279.889  64.129-255.585  0.00  0.00     0.219 C 
ATOM     37  O   ARG d  16     280.004  63.053-256.166  0.00  0.00    -0.287 OA
ENDBRANCH  35  36
BRANCH  35  38
ATOM     38  CB  ARG d  16     278.885  64.840-253.371  0.00  0.00     0.035 C 
BRANCH  38  39
ATOM     39  CG  ARG d  16     279.710  66.129-253.097  0.00  0.00     0.023 C 
BRANCH  39  40
ATOM     40  CD  ARG d  16     279.959  66.348-251.596  0.00  0.00     0.138 C 
BRANCH  40  41
ATOM     41  NE  ARG d  16     280.734  67.607-251.394  0.00  0.00    -0.227 N 
ATOM     42  CZ  ARG d  16     281.125  68.089-250.218  0.00  0.00     0.665 C 
ATOM     43  NH1 ARG d  16     280.876  67.505-249.080  0.00  0.00    -0.235 N 
ATOM     44  NH2 ARG d  16     281.789  69.202-250.199  0.00  0.00    -0.235 N 
ATOM     45 11HH ARG d  16     280.350  66.632-249.165  0.00  0.00     0.174 HD
ATOM     46 12HH ARG d  16     281.210  67.940-248.218  0.00  0.00     0.174 HD
ATOM     47 21HH ARG d  16     281.975  69.645-251.100  0.00  0.00     0.174 HD
ATOM     48 22HH ARG d  16     282.078  69.557-249.286  0.00  0.00     0.174 HD
ATOM     49  HE  ARG d  16     281.014  68.188-252.191  0.00  0.00     0.177 HD
ENDBRANCH  40  41
ENDBRANCH  39  40
ENDBRANCH  38  39
ENDBRANCH  35  38
ENDBRANCH  33  35
ENDBRANCH  30  31
BRANCH  30  50
ATOM     50  CB  MET d  15     274.802  62.483-255.898  0.00  0.00     0.045 C 
BRANCH  50  51
ATOM     51  CG  MET d  15     273.640  61.484-256.091  0.00  0.00     0.076 C 
BRANCH  51  52
ATOM     52  SD  MET d  15     272.066  62.350-255.978  0.00  0.00    -0.173 SA
ATOM     53  CE  MET d  15     270.985  60.921-255.843  0.00  0.00     0.089 C 
ENDBRANCH  51  52
ENDBRANCH  50  51
ENDBRANCH  30  50
ENDBRANCH  28  30
ENDBRANCH  25  26
BRANCH  25  54
ATOM     54  CB  VAL d  14     277.246  57.811-254.854  0.00  0.00     0.009 C 
ATOM     55  CG1 VAL d  14     277.336  57.393-256.348  0.00  0.00     0.012 C 
ATOM     56  CG2 VAL d  14     277.677  56.559-254.054  0.00  0.00     0.012 C 
ENDBRANCH  25  54
ENDBRANCH  23  25
ENDBRANCH  20  21
BRANCH  20  57
ATOM     57  CB  ARG d  13     278.602  59.974-250.115  0.00  0.00     0.036 C 
BRANCH  57  58
ATOM     58  CG  ARG d  13     280.147  60.128-250.033  0.00  0.00     0.023 C 
BRANCH  58  59
ATOM     59  CD  ARG d  13     280.773  59.140-249.034  0.00  0.00     0.138 C 
BRANCH  59  60
ATOM     60  NE  ARG d  13     282.250  59.347-248.982  0.00  0.00    -0.227 N 
ATOM     61  CZ  ARG d  13     283.097  58.655-248.227  0.00  0.00     0.665 C 
ATOM     62  NH1 ARG d  13     282.731  57.691-247.430  0.00  0.00    -0.235 N 
ATOM     63  NH2 ARG d  13     284.357  58.955-248.282  0.00  0.00    -0.235 N 
ATOM     64 11HH ARG d  13     281.726  57.505-247.434  0.00  0.00     0.174 HD
ATOM     65 12HH ARG d  13     283.444  57.208-246.880  0.00  0.00     0.174 HD
ATOM     66 21HH ARG d  13     284.625  59.712-248.913  0.00  0.00     0.174 HD
ATOM     67 22HH ARG d  13     284.991  58.413-247.693  0.00  0.00     0.174 HD
ATOM     68  HE  ARG d  13     282.702  60.069-249.553  0.00  0.00     0.177 HD
ENDBRANCH  59  60
ENDBRANCH  58  59
ENDBRANCH  57  58
ENDBRANCH  20  57
ENDBRANCH  18  20
ENDBRANCH  15  16
BRANCH  15  69
ATOM     69  CB  GLN d  12     273.783  62.254-250.123  0.00  0.00     0.044 C 
BRANCH  69  70
ATOM     70  CG  GLN d  12     274.143  63.776-250.092  0.00  0.00     0.105 C 
BRANCH  70  71
ATOM     71  CD  GLN d  12     273.839  64.589-248.827  0.00  0.00     0.215 C 
ATOM     72  NE2 GLN d  12     273.271  64.013-247.799  0.00  0.00    -0.370 N 
ATOM     73 21HE GLN d  12     273.163  64.607-246.975  0.00  0.00     0.159 HD
ATOM     74 22HE GLN d  12     273.108  63.009-247.902  0.00  0.00     0.159 HD
ATOM     75  OE1 GLN d  12     274.141  65.770-248.749  0.00  0.00    -0.274 OA
ENDBRANCH  70  71
ENDBRANCH  69  70
ENDBRANCH  15  69
ENDBRANCH  13  15
ENDBRANCH  10  11
BRANCH  10  76
ATOM     76  CB  VAL d  11     271.939  57.741-252.330  0.00  0.00     0.009 C 
ATOM     77  CG1 VAL d  11     271.371  58.445-253.593  0.00  0.00     0.012 C 
ATOM     78  CG2 VAL d  11     271.414  56.287-252.404  0.00  0.00     0.012 C 
ENDBRANCH  10  76
ENDBRANCH   8  10
ENDBRANCH   5   6
BRANCH   5  79
ATOM     79  CB  HIS d  10     275.293  55.209-249.082  0.00  0.00     0.095 C 
BRANCH  79  80
ATOM     80  CG  HIS d  10     276.578  54.499-248.773  0.00  0.00     0.053 A 
ATOM     81  CD2 HIS d  10     276.958  54.163-247.480  0.00  0.00     0.116 A 
ATOM     82  NE2 HIS d  10     278.173  53.532-247.545  0.00  0.00    -0.359 N 
ATOM     83  CE1 HIS d  10     278.437  53.535-248.880  0.00  0.00     0.207 A 
ATOM     84  2HE HIS d  10     278.739  53.154-246.771  0.00  0.00     0.166 HD
ATOM     85  ND1 HIS d  10     277.531  54.093-249.704  0.00  0.00    -0.247 NA
ENDBRANCH  79  80
ENDBRANCH   5  79
ENDBRANCH   3   5
BRANCH   1  86
ATOM     86  CA  GLU d   9     273.552  59.052-246.803  0.00  0.00     0.177 C 
BRANCH  86  87
ATOM     87  N   GLU d   9     272.250  58.394-246.859  0.00  0.00    -0.346 N 
ATOM     88  C   ASP d   8     271.571  58.444-247.955  0.00  0.00     0.241 C 
ATOM     89  O   ASP d   8     272.044  59.049-248.929  0.00  0.00    -0.271 OA
ATOM     90  H   GLU d   9     271.885  57.908-246.052  0.00  0.00     0.163 HD
BRANCH  88  91
ATOM     91  CA  ASP d   8     270.224  57.764-248.013  0.00  0.00     0.186 C 
BRANCH  91  92
ATOM     92  N   ASP d   8     270.294  56.415-247.460  0.00  0.00    -0.346 N 
ATOM     93  C   LEU d   7     271.132  55.574-247.966  0.00  0.00     0.241 C 
ATOM     94  O   LEU d   7     271.853  55.937-248.907  0.00  0.00    -0.271 OA
ATOM     95  H   ASP d   8     269.695  56.144-246.693  0.00  0.00     0.163 HD
BRANCH  93  96
ATOM     96  CA  LEU d   7     271.204  54.179-247.393  0.00  0.00     0.177 C 
BRANCH  96  97
ATOM     97  N   LEU d   7     271.257  54.215-245.935  0.00  0.00    -0.346 N 
ATOM     98  C   ILE d   6     272.203  54.878-245.360  0.00  0.00     0.241 C 
ATOM     99  O   ILE d   6     273.038  55.466-246.063  0.00  0.00    -0.271 OA
ATOM    100  H   LEU d   7     270.565  53.728-245.384  0.00  0.00     0.163 HD
BRANCH  98 101
ATOM    101  CA  ILE d   6     272.258  54.916-243.852  0.00  0.00     0.180 C 
BRANCH 101 102
ATOM    102  N   ILE d   6     270.945  55.211-243.287  0.00  0.00    -0.346 N 
ATOM    103  C   SER d   5     270.340  56.294-243.642  0.00  0.00     0.243 C 
ATOM    104  O   SER d   5     270.888  57.048-244.446  0.00  0.00    -0.271 OA
ATOM    105  H   ILE d   6     270.516  54.577-242.628  0.00  0.00     0.163 HD
BRANCH 103 106
ATOM    106  CA  SER d   5     268.981  56.600-243.057  0.00  0.00     0.200 C 
BRANCH 106 107
ATOM    107  N   SER d   5     268.112  55.429-243.117  0.00  0.00    -0.344 N 
ATOM    108  C   GLU d   4     267.885  54.876-244.260  0.00  0.00     0.241 C 
ATOM    109  O   GLU d   4     268.412  55.355-245.274  0.00  0.00    -0.271 OA
ATOM    110  H   SER d   5     267.694  55.057-242.275  0.00  0.00     0.163 HD
BRANCH 108 111
ATOM    111  CA  GLU d   4     266.986  53.665-244.322  0.00  0.00     0.177 C 
BRANCH 111 112
ATOM    112  N   GLU d   4     267.345  52.694-243.292  0.00  0.00    -0.346 N 
ATOM    113  C   PRO d   3     268.549  52.234-243.259  0.00  0.00     0.241 C 
ATOM    114  O   PRO d   3     269.373  52.617-244.089  0.00  0.00    -0.271 OA
ATOM    115  H   GLU d   4     266.660  52.387-242.616  0.00  0.00     0.163 HD
BRANCH 113 116
ATOM    116  CA  PRO d   3     268.946  51.210-242.181  0.00  0.00     0.179 C 
ATOM    117  N   PRO d   3     268.493  51.620-240.860  0.00  0.00    -0.337 N 
ATOM    118  C   CYS d   2     269.015  52.615-240.226  0.00  0.00     0.244 C 
ATOM    119  CD  PRO d   3     267.415  50.827-240.312  0.00  0.00     0.127 C 
ATOM    120  O   CYS d   2     269.937  53.249-240.757  0.00  0.00    -0.271 OA
ATOM    121  CG  PRO d   3     266.958  50.008-241.522  0.00  0.00     0.022 C 
ATOM    122  CB  PRO d   3     268.242  49.856-242.351  0.00  0.00     0.037 C 
BRANCH 118 123
ATOM    123  CA  CYS d   2     268.482  52.970-238.858  0.00  0.00     0.186 C 
BRANCH 123 124
ATOM    124  N   CYS d   2     267.023  53.009-238.858  0.00  0.00    -0.345 N 
ATOM    125  C   GLU d   1     266.418  53.795-239.683  0.00  0.00     0.242 C 
ATOM    126  O   GLU d   1     267.094  54.494-240.452  0.00  0.00    -0.271 OA
ATOM    127  H   CYS d   2     266.494  52.430-238.222  0.00  0.00     0.163 HD
BRANCH 125 128
ATOM    128  CA  GLU d   1     264.909  53.835-239.683  0.00  0.00     0.191 C 
BRANCH 128 129
ATOM    129  N   GLU d   1     264.350  52.486-239.683  0.00  0.00    -0.326 NA
ATOM    130  H   GLU d   1     264.977  51.607-239.683  0.00  0.00     0.180 HD
ENDBRANCH 128 129
BRANCH 128 131
ATOM    131  CB  GLU d   1     264.386  54.620-238.446  0.00  0.00     0.047 C 
BRANCH 131 132
ATOM    132  CG  GLU d   1     264.861  56.105-238.335  0.00  0.00     0.116 C 
BRANCH 132 133
ATOM    133  CD  GLU d   1     264.437  56.909-237.120  0.00  0.00     0.172 C 
ATOM    134  OE1 GLU d   1     263.709  56.407-236.242  0.00  0.00    -0.648 OA
ATOM    135  OE2 GLU d   1     264.867  58.079-237.048  0.00  0.00    -0.648 OA
ENDBRANCH 132 133
ENDBRANCH 131 132
ENDBRANCH 128 131
ENDBRANCH 125 128
ENDBRANCH 123 124
BRANCH 123 136
ATOM    136  CB  CYS d   2     268.945  51.981-237.770  0.00  0.00     0.105 C 
BRANCH 136 137
ATOM    137  SG  CYS d   2     270.744  52.020-237.594  0.00  0.00    -0.180 SA
ATOM    138  HG  CYS d   2     270.989  50.865-238.207  0.00  0.00     0.101 HD
ENDBRANCH 136 137
ENDBRANCH 123 136
ENDBRANCH 118 123
ENDBRANCH 113 116
ENDBRANCH 111 112
BRANCH 111 139
ATOM    139  CB  GLU d   4     265.497  54.084-244.153  0.00  0.00     0.045 C 
BRANCH 139 140
ATOM    140  CG  GLU d   4     264.950  55.087-245.219  0.00  0.00     0.116 C 
BRANCH 140 141
ATOM    141  CD  GLU d   4     263.524  55.584-245.077  0.00  0.00     0.172 C 
ATOM    142  OE1 GLU d   4     262.797  55.186-244.146  0.00  0.00    -0.648 OA
ATOM    143  OE2 GLU d   4     263.135  56.414-245.925  0.00  0.00    -0.648 OA
ENDBRANCH 140 141
ENDBRANCH 139 140
ENDBRANCH 111 139
ENDBRANCH 108 111
ENDBRANCH 106 107
BRANCH 106 144
ATOM    144  CB  SER d   5     269.091  57.132-241.607  0.00  0.00     0.199 C 
BRANCH 144 145
ATOM    145  OG  SER d   5     269.822  56.253-240.745  0.00  0.00    -0.398 OA
ATOM    146  HG  SER d   5     269.333  55.428-240.695  0.00  0.00     0.209 HD
ENDBRANCH 144 145
ENDBRANCH 106 144
ENDBRANCH 103 106
ENDBRANCH 101 102
BRANCH 101 147
ATOM    147  CB  ILE d   6     272.858  53.580-243.252  0.00  0.00     0.013 C 
ATOM    148  CG2 ILE d   6     274.299  53.278-243.766  0.00  0.00     0.012 C 
BRANCH 147 149
ATOM    149  CG1 ILE d   6     272.876  53.518-241.691  0.00  0.00     0.002 C 
ATOM    150  CD1 ILE d   6     273.145  52.129-241.075  0.00  0.00     0.005 C 
ENDBRANCH 147 149
ENDBRANCH 101 147
ENDBRANCH  98 101
ENDBRANCH  96  97
BRANCH  96 151
ATOM    151  CB  LEU d   7     270.001  53.319-247.875  0.00  0.00     0.038 C 
BRANCH 151 152
ATOM    152  CG  LEU d   7     269.928  51.839-247.408  0.00  0.00    -0.020 C 
ATOM    153  CD1 LEU d   7     268.738  51.133-248.075  0.00  0.00     0.009 C 
ATOM    154  CD2 LEU d   7     271.221  51.060-247.698  0.00  0.00     0.009 C 
ENDBRANCH 151 152
ENDBRANCH  96 151
ENDBRANCH  93  96
ENDBRANCH  91  92
BRANCH  91 155
ATOM    155  CB  ASP d   8     269.145  58.603-247.273  0.00  0.00     0.147 C 
BRANCH 155 156
ATOM    156  CG  ASP d   8     268.927  60.024-247.813  0.00  0.00     0.175 C 
ATOM    157  OD1 ASP d   8     268.992  60.223-249.044  0.00  0.00    -0.648 OA
ATOM    158  OD2 ASP d   8     268.734  60.950-246.998  0.00  0.00    -0.648 OA
ENDBRANCH 155 156
ENDBRANCH  91 155
ENDBRANCH  88  91
ENDBRANCH  86  87
BRANCH  86 159
ATOM    159  CB  GLU d   9     274.184  58.844-245.396  0.00  0.00     0.045 C 
BRANCH 159 160
ATOM    160  CG  GLU d   9     275.567  59.536-245.166  0.00  0.00     0.116 C 
BRANCH 160 161
ATOM    161  CD  GLU d   9     276.267  59.323-243.837  0.00  0.00     0.172 C 
ATOM    162  OE1 GLU d   9     275.745  58.632-242.941  0.00  0.00    -0.648 OA
ATOM    163  OE2 GLU d   9     277.386  59.861-243.704  0.00  0.00    -0.648 OA
ENDBRANCH 160 161
ENDBRANCH 159 160
ENDBRANCH  86 159
ENDBRANCH   1  86
TORSDOF 68
