REMARK WARNING: 32 MAX_TORS EXCEEDED!!!
REMARK  64 active torsions:
REMARK  status: ('A' for Active; 'I' for Inactive)
REMARK    1  A    between atoms: N_1  and  CA_2 
REMARK    2  A    between atoms: CA_2  and  C_3 
REMARK    3  A    between atoms: CA_2  and  CB_5 
REMARK       I    between atoms: C_3  and  N_11 
REMARK    4  A    between atoms: CB_5  and  CG_6 
REMARK    5  A    between atoms: CG_6  and  CD_7 
REMARK    6  A    between atoms: N_11  and  CA_12 
REMARK    7  A    between atoms: CA_12  and  C_13 
REMARK    8  A    between atoms: CA_12  and  CB_15 
REMARK       I    between atoms: C_13  and  N_22 
REMARK    9  A    between atoms: CB_15  and  CG_16 
REMARK       I    between atoms: CG_16  and  ND2_17 
REMARK   10  A    between atoms: CA_23  and  C_24 
REMARK       I    between atoms: C_24  and  N_29 
REMARK   11  A    between atoms: N_29  and  CA_30 
REMARK   12  A    between atoms: CA_30  and  C_31 
REMARK   13  A    between atoms: CA_30  and  CB_33 
REMARK       I    between atoms: C_31  and  N_39 
REMARK   14  A    between atoms: CB_33  and  CG_34 
REMARK   15  A    between atoms: CG_34  and  CD_35 
REMARK   16  A    between atoms: N_39  and  CA_40 
REMARK   17  A    between atoms: CA_40  and  C_41 
REMARK   18  A    between atoms: CA_40  and  CB_43 
REMARK       I    between atoms: C_41  and  N_47 
REMARK   19  A    between atoms: CB_43  and  OG_44 
REMARK   20  A    between atoms: N_47  and  CA_48 
REMARK   21  A    between atoms: CA_48  and  C_49 
REMARK   22  A    between atoms: CA_48  and  CB_51 
REMARK       I    between atoms: C_49  and  N_56 
REMARK   23  A    between atoms: CB_51  and  CG1_52 
REMARK   24  A    between atoms: N_56  and  CA_57 
REMARK   25  A    between atoms: CA_57  and  C_58 
REMARK   26  A    between atoms: CA_57  and  CB_60 
REMARK       I    between atoms: C_58  and  N_65 
REMARK   27  A    between atoms: CB_60  and  CG_61 
REMARK   28  A    between atoms: N_65  and  CA_66 
REMARK   29  A    between atoms: CA_66  and  C_67 
REMARK   30  A    between atoms: CA_66  and  CB_69 
REMARK       I    between atoms: C_67  and  N_74 
REMARK   31  A    between atoms: CB_69  and  CG_70 
REMARK   32  A    between atoms: N_74  and  CA_75 
REMARK   33  A    between atoms: CA_75  and  C_76 
REMARK   34  A    between atoms: CA_75  and  CB_78 
REMARK       I    between atoms: C_76  and  N_84 
REMARK   35  A    between atoms: CB_78  and  CG_79 
REMARK   36  A    between atoms: CG_79  and  CD_80 
REMARK   37  A    between atoms: N_84  and  CA_85 
REMARK   38  A    between atoms: CA_85  and  C_86 
REMARK   39  A    between atoms: CA_85  and  CB_88 
REMARK       I    between atoms: C_86  and  N_96 
REMARK   40  A    between atoms: CB_88  and  CG_89 
REMARK   41  A    between atoms: N_96  and  CA_97 
REMARK   42  A    between atoms: CA_97  and  C_98 
REMARK   43  A    between atoms: CA_97  and  CB_100 
REMARK       I    between atoms: C_98  and  N_104 
REMARK   44  A    between atoms: N_104  and  CA_105 
REMARK   45  A    between atoms: CA_105  and  C_106 
REMARK   46  A    between atoms: CA_105  and  CB_108 
REMARK       I    between atoms: C_106  and  N_116 
REMARK   47  A    between atoms: CB_108  and  CG_109 
REMARK   48  A    between atoms: CG_109  and  CD_110 
REMARK       I    between atoms: CD_110  and  NE2_111 
REMARK   49  A    between atoms: N_116  and  CA_117 
REMARK   50  A    between atoms: CA_117  and  C_118 
REMARK       I    between atoms: C_118  and  N_121 
REMARK   51  A    between atoms: N_121  and  CA_122 
REMARK   52  A    between atoms: CA_122  and  C_123 
REMARK   53  A    between atoms: CA_122  and  CB_125 
REMARK       I    between atoms: C_123  and  N_129 
REMARK   54  A    between atoms: N_129  and  CA_130 
REMARK   55  A    between atoms: CA_130  and  C_131 
REMARK   56  A    between atoms: CA_130  and  CB_133 
REMARK       I    between atoms: C_131  and  N_138 
REMARK   57  A    between atoms: CB_133  and  CG_134 
REMARK   58  A    between atoms: CG_134  and  SD_135 
REMARK   59  A    between atoms: N_138  and  CA_139 
REMARK   60  A    between atoms: CA_139  and  C_140 
REMARK   61  A    between atoms: CA_139  and  CB_142 
REMARK   62  A    between atoms: CB_142  and  CG_143 
REMARK   63  A    between atoms: CG_143  and  CD_144 
REMARK   64  A    between atoms: CD_144  and  NE_145 
REMARK       I    between atoms: NE_145  and  CZ_146 
REMARK       I    between atoms: CZ_146  and  NH1_147 
ROOT
ATOM      1  CA  GLU d   9    2034.656 619.517-2096.571  0.00  0.00     0.177 C 
ENDROOT
BRANCH   1   2
ATOM      2  N   GLU d   9    2033.353 618.860-2096.627  0.00  0.00    -0.346 N 
ATOM      3  C   ASP d   8    2032.673 618.911-2097.723  0.00  0.00     0.241 C 
ATOM      4  O   ASP d   8    2033.147 619.517-2098.697  0.00  0.00    -0.271 OA
ATOM      5  H   GLU d   9    2032.989 618.373-2095.821  0.00  0.00     0.163 HD
BRANCH   3   6
ATOM      6  CA  ASP d   8    2031.327 618.231-2097.781  0.00  0.00     0.186 C 
BRANCH   6   7
ATOM      7  N   ASP d   8    2031.396 616.882-2097.228  0.00  0.00    -0.346 N 
ATOM      8  C   LEU d   7    2032.234 616.041-2097.735  0.00  0.00     0.241 C 
ATOM      9  O   LEU d   7    2032.955 616.404-2098.676  0.00  0.00    -0.271 OA
ATOM     10  H   ASP d   8    2030.798 616.610-2096.461  0.00  0.00     0.163 HD
BRANCH   8  11
ATOM     11  CA  LEU d   7    2032.305 614.646-2097.163  0.00  0.00     0.177 C 
BRANCH  11  12
ATOM     12  N   LEU d   7    2032.360 614.681-2095.704  0.00  0.00    -0.346 N 
ATOM     13  C   ILE d   6    2033.306 615.344-2095.130  0.00  0.00     0.241 C 
ATOM     14  O   ILE d   6    2034.141 615.932-2095.833  0.00  0.00    -0.271 OA
ATOM     15  H   LEU d   7    2031.668 614.194-2095.153  0.00  0.00     0.163 HD
BRANCH  13  16
ATOM     16  CA  ILE d   6    2033.363 615.381-2093.622  0.00  0.00     0.180 C 
BRANCH  16  17
ATOM     17  N   ILE d   6    2032.050 615.676-2093.056  0.00  0.00    -0.346 N 
ATOM     18  C   SER d   5    2031.445 616.760-2093.410  0.00  0.00     0.243 C 
ATOM     19  O   SER d   5    2031.993 617.513-2094.215  0.00  0.00    -0.271 OA
ATOM     20  H   ILE d   6    2031.621 615.042-2092.397  0.00  0.00     0.163 HD
BRANCH  18  21
ATOM     21  CA  SER d   5    2030.086 617.065-2092.824  0.00  0.00     0.200 C 
BRANCH  21  22
ATOM     22  N   SER d   5    2029.217 615.894-2092.883  0.00  0.00    -0.344 N 
ATOM     23  C   GLU d   4    2028.989 615.342-2094.026  0.00  0.00     0.241 C 
ATOM     24  O   GLU d   4    2029.516 615.821-2095.040  0.00  0.00    -0.271 OA
ATOM     25  H   SER d   5    2028.800 615.523-2092.041  0.00  0.00     0.163 HD
BRANCH  23  26
ATOM     26  CA  GLU d   4    2028.090 614.131-2094.087  0.00  0.00     0.177 C 
BRANCH  26  27
ATOM     27  N   GLU d   4    2028.450 613.160-2093.057  0.00  0.00    -0.346 N 
ATOM     28  C   PRO d   3    2029.655 612.700-2093.024  0.00  0.00     0.241 C 
ATOM     29  O   PRO d   3    2030.479 613.083-2093.856  0.00  0.00    -0.271 OA
ATOM     30  H   GLU d   4    2027.766 612.853-2092.380  0.00  0.00     0.163 HD
BRANCH  28  31
ATOM     31  CA  PRO d   3    2030.053 611.677-2091.947  0.00  0.00     0.179 C 
ATOM     32  N   PRO d   3    2029.601 612.086-2090.626  0.00  0.00    -0.337 N 
ATOM     33  C   ASN d   2    2030.123 613.081-2089.992  0.00  0.00     0.243 C 
ATOM     34  CD  PRO d   3    2028.523 611.293-2090.077  0.00  0.00     0.127 C 
ATOM     35  O   ASN d   2    2031.038 613.711-2090.521  0.00  0.00    -0.271 OA
ATOM     36  CG  PRO d   3    2028.066 610.474-2091.287  0.00  0.00     0.022 C 
ATOM     37  CB  PRO d   3    2029.349 610.322-2092.117  0.00  0.00     0.037 C 
BRANCH  33  38
ATOM     38  CA  ASN d   2    2029.592 613.436-2088.623  0.00  0.00     0.185 C 
BRANCH  38  39
ATOM     39  N   ASN d   2    2028.132 613.475-2088.623  0.00  0.00    -0.346 N 
ATOM     40  C   GLU d   1    2027.528 614.261-2089.448  0.00  0.00     0.242 C 
ATOM     41  O   GLU d   1    2028.204 614.960-2090.217  0.00  0.00    -0.271 OA
ATOM     42  H   ASN d   2    2027.604 612.896-2087.987  0.00  0.00     0.163 HD
BRANCH  40  43
ATOM     43  CA  GLU d   1    2026.019 614.301-2089.448  0.00  0.00     0.191 C 
BRANCH  43  44
ATOM     44  N   GLU d   1    2025.460 612.952-2089.448  0.00  0.00    -0.326 NA
ATOM     45  H   GLU d   1    2026.087 612.073-2089.448  0.00  0.00     0.180 HD
ENDBRANCH  43  44
BRANCH  43  46
ATOM     46  CB  GLU d   1    2025.496 615.086-2088.212  0.00  0.00     0.047 C 
BRANCH  46  47
ATOM     47  CG  GLU d   1    2025.971 616.571-2088.101  0.00  0.00     0.116 C 
BRANCH  47  48
ATOM     48  CD  GLU d   1    2025.547 617.375-2086.885  0.00  0.00     0.172 C 
ATOM     49  OE1 GLU d   1    2024.819 616.873-2086.008  0.00  0.00    -0.648 OA
ATOM     50  OE2 GLU d   1    2025.977 618.545-2086.813  0.00  0.00    -0.648 OA
ENDBRANCH  47  48
ENDBRANCH  46  47
ENDBRANCH  43  46
ENDBRANCH  40  43
ENDBRANCH  38  39
BRANCH  38  51
ATOM     51  CB  ASN d   2    2030.084 612.414-2087.559  0.00  0.00     0.137 C 
BRANCH  51  52
ATOM     52  CG  ASN d   2    2029.620 612.637-2086.115  0.00  0.00     0.217 C 
ATOM     53  ND2 ASN d   2    2030.215 613.552-2085.397  0.00  0.00    -0.370 N 
ATOM     54 21HD ASN d   2    2029.734 613.725-2084.511  0.00  0.00     0.159 HD
ATOM     55 22HD ASN d   2    2030.917 614.124-2085.867  0.00  0.00     0.159 HD
ATOM     56  OD1 ASN d   2    2028.700 612.004-2085.622  0.00  0.00    -0.274 OA
ENDBRANCH  51  52
ENDBRANCH  38  51
ENDBRANCH  33  38
ENDBRANCH  28  31
ENDBRANCH  26  27
BRANCH  26  57
ATOM     57  CB  GLU d   4    2026.602 614.549-2093.917  0.00  0.00     0.045 C 
BRANCH  57  58
ATOM     58  CG  GLU d   4    2026.054 615.552-2094.983  0.00  0.00     0.116 C 
BRANCH  58  59
ATOM     59  CD  GLU d   4    2024.627 616.049-2094.839  0.00  0.00     0.172 C 
ATOM     60  OE1 GLU d   4    2023.901 615.651-2093.908  0.00  0.00    -0.648 OA
ATOM     61  OE2 GLU d   4    2024.238 616.878-2095.688  0.00  0.00    -0.648 OA
ENDBRANCH  58  59
ENDBRANCH  57  58
ENDBRANCH  26  57
ENDBRANCH  23  26
ENDBRANCH  21  22
BRANCH  21  62
ATOM     62  CB  SER d   5    2030.198 617.598-2091.374  0.00  0.00     0.199 C 
BRANCH  62  63
ATOM     63  OG  SER d   5    2030.930 616.718-2090.513  0.00  0.00    -0.398 OA
ATOM     64  HG  SER d   5    2030.441 615.893-2090.462  0.00  0.00     0.209 HD
ENDBRANCH  62  63
ENDBRANCH  21  62
ENDBRANCH  18  21
ENDBRANCH  16  17
BRANCH  16  65
ATOM     65  CB  ILE d   6    2033.962 614.044-2093.022  0.00  0.00     0.013 C 
ATOM     66  CG2 ILE d   6    2035.403 613.742-2093.537  0.00  0.00     0.012 C 
BRANCH  65  67
ATOM     67  CG1 ILE d   6    2033.981 613.982-2091.461  0.00  0.00     0.002 C 
ATOM     68  CD1 ILE d   6    2034.250 612.593-2090.846  0.00  0.00     0.005 C 
ENDBRANCH  65  67
ENDBRANCH  16  65
ENDBRANCH  13  16
ENDBRANCH  11  12
BRANCH  11  69
ATOM     69  CB  LEU d   7    2031.102 613.786-2097.644  0.00  0.00     0.038 C 
BRANCH  69  70
ATOM     70  CG  LEU d   7    2031.029 612.306-2097.177  0.00  0.00    -0.020 C 
ATOM     71  CD1 LEU d   7    2029.839 611.601-2097.844  0.00  0.00     0.009 C 
ATOM     72  CD2 LEU d   7    2032.322 611.527-2097.469  0.00  0.00     0.009 C 
ENDBRANCH  69  70
ENDBRANCH  11  69
ENDBRANCH   8  11
ENDBRANCH   6   7
BRANCH   6  73
ATOM     73  CB  ASP d   8    2030.248 619.070-2097.039  0.00  0.00     0.147 C 
BRANCH  73  74
ATOM     74  CG  ASP d   8    2030.030 620.491-2097.579  0.00  0.00     0.175 C 
ATOM     75  OD1 ASP d   8    2030.095 620.691-2098.809  0.00  0.00    -0.648 OA
ATOM     76  OD2 ASP d   8    2029.838 621.417-2096.763  0.00  0.00    -0.648 OA
ENDBRANCH  73  74
ENDBRANCH   6  73
ENDBRANCH   3   6
ENDBRANCH   1   2
BRANCH   1  77
ATOM     77  C   GLU d   9    2035.574 618.990-2097.647  0.00  0.00     0.241 C 
ATOM     78  O   GLU d   9    2036.238 619.745-2098.371  0.00  0.00    -0.271 OA
ATOM     79  N   HIS d  10    2035.670 617.715-2097.817  0.00  0.00    -0.346 N 
ATOM     80  H   HIS d  10    2035.139 617.079-2097.239  0.00  0.00     0.163 HD
BRANCH  79  81
ATOM     81  CA  HIS d  10    2036.558 617.204-2098.858  0.00  0.00     0.182 C 
BRANCH  81  82
ATOM     82  C   HIS d  10    2036.192 617.770-2100.208  0.00  0.00     0.241 C 
ATOM     83  O   HIS d  10    2037.045 618.235-2100.980  0.00  0.00    -0.271 OA
ATOM     84  N   VAL d  11    2034.954 617.770-2100.572  0.00  0.00    -0.346 N 
ATOM     85  H   VAL d  11    2034.241 617.396-2099.962  0.00  0.00     0.163 HD
BRANCH  84  86
ATOM     86  CA  VAL d  11    2034.600 618.317-2101.878  0.00  0.00     0.180 C 
BRANCH  86  87
ATOM     87  C   VAL d  11    2035.064 619.747-2102.010  0.00  0.00     0.241 C 
ATOM     88  O   VAL d  11    2035.666 620.153-2103.012  0.00  0.00    -0.271 OA
ATOM     89  N   GLN d  12    2034.827 620.572-2101.046  0.00  0.00    -0.346 N 
ATOM     90  H   GLN d  12    2034.338 620.265-2100.218  0.00  0.00     0.163 HD
BRANCH  89  91
ATOM     91  CA  GLN d  12    2035.276 621.955-2101.172  0.00  0.00     0.177 C 
BRANCH  91  92
ATOM     92  C   GLN d  12    2036.766 622.022-2101.410  0.00  0.00     0.240 C 
ATOM     93  O   GLN d  12    2037.254 622.731-2102.287  0.00  0.00    -0.271 OA
ATOM     94  N   GLY d  13    2037.550 621.315-2100.669  0.00  0.00    -0.351 N 
ATOM     95  H   GLY d  13    2037.173 620.724-2099.941  0.00  0.00     0.163 HD
BRANCH  94  96
ATOM     96  CA  GLY d  13    2038.990 621.380-2100.899  0.00  0.00     0.225 C 
BRANCH  96  97
ATOM     97  C   GLY d  13    2039.328 621.010-2102.323  0.00  0.00     0.236 C 
ATOM     98  O   GLY d  13    2040.101 621.685-2103.008  0.00  0.00    -0.272 OA
ATOM     99  N   VAL d  14    2038.792 619.957-2102.840  0.00  0.00    -0.346 N 
ATOM    100  H   VAL d  14    2038.156 619.388-2102.299  0.00  0.00     0.163 HD
BRANCH  99 101
ATOM    101  CA  VAL d  14    2039.119 619.599-2104.217  0.00  0.00     0.180 C 
BRANCH 101 102
ATOM    102  C   VAL d  14    2038.791 620.730-2105.162  0.00  0.00     0.241 C 
ATOM    103  O   VAL d  14    2039.586 621.112-2106.030  0.00  0.00    -0.271 OA
ATOM    104  N   MET d  15    2037.646 621.316-2105.061  0.00  0.00    -0.346 N 
ATOM    105  H   MET d  15    2036.980 621.023-2104.361  0.00  0.00     0.163 HD
BRANCH 104 106
ATOM    106  CA  MET d  15    2037.327 622.410-2105.974  0.00  0.00     0.177 C 
BRANCH 106 107
ATOM    107  C   MET d  15    2038.358 623.509-2105.884  0.00  0.00     0.241 C 
ATOM    108  O   MET d  15    2038.862 624.021-2106.896  0.00  0.00    -0.271 OA
ATOM    109  N   ARG d  16    2038.725 623.929-2104.721  0.00  0.00    -0.347 N 
ATOM    110  H   ARG d  16    2038.329 623.529-2103.883  0.00  0.00     0.163 HD
BRANCH 109 111
ATOM    111  CA  ARG d  16    2039.722 624.993-2104.635  0.00  0.00     0.162 C 
BRANCH 111 112
ATOM    112  C   ARG d  16    2040.993 624.600-2105.350  0.00  0.00     0.219 C 
ATOM    113  O   ARG d  16    2041.107 623.524-2105.932  0.00  0.00    -0.287 OA
ENDBRANCH 111 112
BRANCH 111 114
ATOM    114  CB  ARG d  16    2039.989 625.310-2103.136  0.00  0.00     0.035 C 
BRANCH 114 115
ATOM    115  CG  ARG d  16    2040.815 626.598-2102.862  0.00  0.00     0.023 C 
BRANCH 115 116
ATOM    116  CD  ARG d  16    2041.062 626.816-2101.360  0.00  0.00     0.138 C 
BRANCH 116 117
ATOM    117  NE  ARG d  16    2041.838 628.075-2101.157  0.00  0.00    -0.227 N 
ATOM    118  CZ  ARG d  16    2042.228 628.556-2099.980  0.00  0.00     0.665 C 
ATOM    119  NH1 ARG d  16    2041.979 627.971-2098.843  0.00  0.00    -0.235 N 
ATOM    120  NH2 ARG d  16    2042.893 629.668-2099.960  0.00  0.00    -0.235 N 
ATOM    121 11HH ARG d  16    2041.453 627.098-2098.928  0.00  0.00     0.174 HD
ATOM    122 12HH ARG d  16    2042.312 628.406-2097.980  0.00  0.00     0.174 HD
ATOM    123 21HH ARG d  16    2043.080 630.112-2100.861  0.00  0.00     0.174 HD
ATOM    124 22HH ARG d  16    2043.182 630.023-2099.047  0.00  0.00     0.174 HD
ATOM    125  HE  ARG d  16    2042.118 628.656-2101.953  0.00  0.00     0.177 HD
ENDBRANCH 116 117
ENDBRANCH 115 116
ENDBRANCH 114 115
ENDBRANCH 111 114
ENDBRANCH 109 111
ENDBRANCH 106 107
BRANCH 106 126
ATOM    126  CB  MET d  15    2035.906 622.956-2105.667  0.00  0.00     0.045 C 
BRANCH 126 127
ATOM    127  CG  MET d  15    2034.743 621.958-2105.861  0.00  0.00     0.076 C 
BRANCH 127 128
ATOM    128  SD  MET d  15    2033.170 622.825-2105.748  0.00  0.00    -0.173 SA
ATOM    129  CE  MET d  15    2032.088 621.395-2105.614  0.00  0.00     0.089 C 
ENDBRANCH 127 128
ENDBRANCH 126 127
ENDBRANCH 106 126
ENDBRANCH 104 106
ENDBRANCH 101 102
BRANCH 101 130
ATOM    130  CB  VAL d  14    2038.347 618.282-2104.626  0.00  0.00     0.009 C 
ATOM    131  CG1 VAL d  14    2038.438 617.866-2106.120  0.00  0.00     0.012 C 
ATOM    132  CG2 VAL d  14    2038.777 617.029-2103.827  0.00  0.00     0.012 C 
ENDBRANCH 101 130
ENDBRANCH  99 101
ENDBRANCH  96  97
ENDBRANCH  94  96
ENDBRANCH  91  92
BRANCH  91 133
ATOM    133  CB  GLN d  12    2034.885 622.722-2099.889  0.00  0.00     0.044 C 
BRANCH 133 134
ATOM    134  CG  GLN d  12    2035.245 624.243-2099.857  0.00  0.00     0.105 C 
BRANCH 134 135
ATOM    135  CD  GLN d  12    2034.943 625.056-2098.591  0.00  0.00     0.215 C 
ATOM    136  NE2 GLN d  12    2034.375 624.478-2097.563  0.00  0.00    -0.370 N 
ATOM    137 21HE GLN d  12    2034.268 625.072-2096.739  0.00  0.00     0.159 HD
ATOM    138 22HE GLN d  12    2034.211 623.475-2097.667  0.00  0.00     0.159 HD
ATOM    139  OE1 GLN d  12    2035.245 626.237-2098.512  0.00  0.00    -0.274 OA
ENDBRANCH 134 135
ENDBRANCH 133 134
ENDBRANCH  91 133
ENDBRANCH  89  91
ENDBRANCH  86  87
BRANCH  86 140
ATOM    140  CB  VAL d  11    2033.038 618.210-2102.098  0.00  0.00     0.009 C 
ATOM    141  CG1 VAL d  11    2032.470 618.916-2103.361  0.00  0.00     0.012 C 
ATOM    142  CG2 VAL d  11    2032.514 616.756-2102.173  0.00  0.00     0.012 C 
ENDBRANCH  86 140
ENDBRANCH  84  86
ENDBRANCH  81  82
BRANCH  81 143
ATOM    143  CB  HIS d  10    2036.394 615.675-2098.854  0.00  0.00     0.095 C 
BRANCH 143 144
ATOM    144  CG  HIS d  10    2037.680 614.965-2098.546  0.00  0.00     0.053 A 
ATOM    145  CD2 HIS d  10    2038.060 614.629-2097.253  0.00  0.00     0.116 A 
ATOM    146  NE2 HIS d  10    2039.275 613.997-2097.320  0.00  0.00    -0.359 N 
ATOM    147  CE1 HIS d  10    2039.538 614.000-2098.655  0.00  0.00     0.207 A 
ATOM    148  2HE HIS d  10    2039.841 613.619-2096.546  0.00  0.00     0.166 HD
ATOM    149  ND1 HIS d  10    2038.632 614.559-2099.478  0.00  0.00    -0.247 NA
ENDBRANCH 143 144
ENDBRANCH  81 143
ENDBRANCH  79  81
ENDBRANCH   1  77
BRANCH   1 150
ATOM    150  CB  GLU d   9    2035.288 619.309-2095.165  0.00  0.00     0.045 C 
BRANCH 150 151
ATOM    151  CG  GLU d   9    2036.671 620.000-2094.935  0.00  0.00     0.116 C 
BRANCH 151 152
ATOM    152  CD  GLU d   9    2037.372 619.786-2093.606  0.00  0.00     0.172 C 
ATOM    153  OE1 GLU d   9    2036.850 619.094-2092.711  0.00  0.00    -0.648 OA
ATOM    154  OE2 GLU d   9    2038.491 620.323-2093.474  0.00  0.00    -0.648 OA
ENDBRANCH 151 152
ENDBRANCH 150 151
ENDBRANCH   1 150
TORSDOF 64
