REMARK WARNING: 32 MAX_TORS EXCEEDED!!!
REMARK  68 active torsions:
REMARK  status: ('A' for Active; 'I' for Inactive)
REMARK    1  A    between atoms: N_1  and  CA_2 
REMARK    2  A    between atoms: CA_2  and  C_3 
REMARK    3  A    between atoms: CA_2  and  CB_5 
REMARK       I    between atoms: C_3  and  N_11 
REMARK    4  A    between atoms: CB_5  and  CG_6 
REMARK    5  A    between atoms: CG_6  and  CD_7 
REMARK    6  A    between atoms: N_11  and  CA_12 
REMARK    7  A    between atoms: CA_12  and  C_13 
REMARK    8  A    between atoms: CA_12  and  CB_15 
REMARK       I    between atoms: C_13  and  N_22 
REMARK    9  A    between atoms: CB_15  and  CG_16 
REMARK       I    between atoms: CG_16  and  ND2_17 
REMARK   10  A    between atoms: CA_23  and  C_24 
REMARK       I    between atoms: C_24  and  N_29 
REMARK   11  A    between atoms: N_29  and  CA_30 
REMARK   12  A    between atoms: CA_30  and  C_31 
REMARK   13  A    between atoms: CA_30  and  CB_33 
REMARK       I    between atoms: C_31  and  N_39 
REMARK   14  A    between atoms: CB_33  and  CG_34 
REMARK   15  A    between atoms: CG_34  and  CD_35 
REMARK   16  A    between atoms: N_39  and  CA_40 
REMARK   17  A    between atoms: CA_40  and  C_41 
REMARK   18  A    between atoms: CA_40  and  CB_43 
REMARK       I    between atoms: C_41  and  N_47 
REMARK   19  A    between atoms: CB_43  and  OG_44 
REMARK   20  A    between atoms: N_47  and  CA_48 
REMARK   21  A    between atoms: CA_48  and  C_49 
REMARK   22  A    between atoms: CA_48  and  CB_51 
REMARK       I    between atoms: C_49  and  N_56 
REMARK   23  A    between atoms: CB_51  and  CG1_52 
REMARK   24  A    between atoms: N_56  and  CA_57 
REMARK   25  A    between atoms: CA_57  and  C_58 
REMARK   26  A    between atoms: CA_57  and  CB_60 
REMARK       I    between atoms: C_58  and  N_65 
REMARK   27  A    between atoms: CB_60  and  CG_61 
REMARK   28  A    between atoms: N_65  and  CA_66 
REMARK   29  A    between atoms: CA_66  and  C_67 
REMARK   30  A    between atoms: CA_66  and  CB_69 
REMARK       I    between atoms: C_67  and  N_74 
REMARK   31  A    between atoms: CB_69  and  CG_70 
REMARK   32  A    between atoms: N_74  and  CA_75 
REMARK   33  A    between atoms: CA_75  and  C_76 
REMARK   34  A    between atoms: CA_75  and  CB_78 
REMARK       I    between atoms: C_76  and  N_84 
REMARK   35  A    between atoms: CB_78  and  CG_79 
REMARK   36  A    between atoms: CG_79  and  CD_80 
REMARK   37  A    between atoms: N_84  and  CA_85 
REMARK   38  A    between atoms: CA_85  and  C_86 
REMARK   39  A    between atoms: CA_85  and  CB_88 
REMARK       I    between atoms: C_86  and  N_93 
REMARK   40  A    between atoms: CB_88  and  OG1_90 
REMARK   41  A    between atoms: N_93  and  CA_94 
REMARK   42  A    between atoms: CA_94  and  C_95 
REMARK   43  A    between atoms: CA_94  and  CB_97 
REMARK       I    between atoms: C_95  and  N_101 
REMARK   44  A    between atoms: N_101  and  CA_102 
REMARK   45  A    between atoms: CA_102  and  C_103 
REMARK   46  A    between atoms: CA_102  and  CB_105 
REMARK       I    between atoms: C_103  and  N_113 
REMARK   47  A    between atoms: CB_105  and  CG_106 
REMARK   48  A    between atoms: CG_106  and  CD_107 
REMARK       I    between atoms: CD_107  and  NE2_108 
REMARK   49  A    between atoms: N_113  and  CA_114 
REMARK   50  A    between atoms: CA_114  and  C_115 
REMARK   51  A    between atoms: CA_114  and  CB_117 
REMARK       I    between atoms: C_115  and  N_130 
REMARK   52  A    between atoms: CB_117  and  CG_118 
REMARK   53  A    between atoms: CG_118  and  CD_119 
REMARK   54  A    between atoms: CD_119  and  NE_120 
REMARK       I    between atoms: NE_120  and  CZ_121 
REMARK       I    between atoms: CZ_121  and  NH1_122 
REMARK       I    between atoms: CZ_121  and  NH2_123 
REMARK   55  A    between atoms: N_130  and  CA_131 
REMARK   56  A    between atoms: CA_131  and  C_132 
REMARK   57  A    between atoms: CA_131  and  CB_134 
REMARK       I    between atoms: C_132  and  N_138 
REMARK   58  A    between atoms: N_138  and  CA_139 
REMARK   59  A    between atoms: CA_139  and  C_140 
REMARK   60  A    between atoms: CA_139  and  CB_142 
REMARK       I    between atoms: C_140  and  N_147 
REMARK   61  A    between atoms: CB_142  and  CG_143 
REMARK   62  A    between atoms: CG_143  and  SD_144 
REMARK   63  A    between atoms: N_147  and  CA_148 
REMARK   64  A    between atoms: CA_148  and  C_149 
REMARK   65  A    between atoms: CA_148  and  CB_151 
REMARK   66  A    between atoms: CB_151  and  CG_152 
REMARK   67  A    between atoms: CG_152  and  CD_153 
REMARK   68  A    between atoms: CD_153  and  NE_154 
REMARK       I    between atoms: NE_154  and  CZ_155 
REMARK       I    between atoms: CZ_155  and  NH1_156 
ROOT
ATOM      1  C   GLU d   9    1633.991 489.024-1661.312  0.00  0.00     0.241 C 
ATOM      2  O   GLU d   9    1634.655 489.779-1662.037  0.00  0.00    -0.271 OA
ATOM      3  N   THR d  10    1634.088 487.749-1661.483  0.00  0.00    -0.344 N 
ATOM      4  H   THR d  10    1633.557 487.113-1660.905  0.00  0.00     0.163 HD
ENDROOT
BRANCH   1   5
ATOM      5  CA  GLU d   9    1633.073 489.551-1660.236  0.00  0.00     0.177 C 
BRANCH   5   6
ATOM      6  N   GLU d   9    1631.770 488.893-1660.292  0.00  0.00    -0.346 N 
ATOM      7  C   ASP d   8    1631.090 488.943-1661.387  0.00  0.00     0.241 C 
ATOM      8  O   ASP d   8    1631.563 489.549-1662.361  0.00  0.00    -0.271 OA
ATOM      9  H   GLU d   9    1631.407 488.407-1659.484  0.00  0.00     0.163 HD
BRANCH   7  10
ATOM     10  CA  ASP d   8    1629.744 488.264-1661.444  0.00  0.00     0.186 C 
BRANCH  10  11
ATOM     11  N   ASP d   8    1629.814 486.914-1660.891  0.00  0.00    -0.346 N 
ATOM     12  C   LEU d   7    1630.652 486.073-1661.398  0.00  0.00     0.241 C 
ATOM     13  O   LEU d   7    1631.372 486.436-1662.339  0.00  0.00    -0.271 OA
ATOM     14  H   ASP d   8    1629.217 486.643-1660.123  0.00  0.00     0.163 HD
BRANCH  12  15
ATOM     15  CA  LEU d   7    1630.724 484.678-1660.825  0.00  0.00     0.177 C 
BRANCH  15  16
ATOM     16  N   LEU d   7    1630.779 484.714-1659.367  0.00  0.00    -0.346 N 
ATOM     17  C   ILE d   6    1631.725 485.377-1658.793  0.00  0.00     0.241 C 
ATOM     18  O   ILE d   6    1632.560 485.965-1659.497  0.00  0.00    -0.271 OA
ATOM     19  H   LEU d   7    1630.087 484.227-1658.815  0.00  0.00     0.163 HD
BRANCH  17  20
ATOM     20  CA  ILE d   6    1631.782 485.415-1657.285  0.00  0.00     0.180 C 
BRANCH  20  21
ATOM     21  N   ILE d   6    1630.469 485.709-1656.719  0.00  0.00    -0.346 N 
ATOM     22  C   SER d   5    1629.865 486.792-1657.073  0.00  0.00     0.243 C 
ATOM     23  O   SER d   5    1630.411 487.546-1657.878  0.00  0.00    -0.271 OA
ATOM     24  H   ILE d   6    1630.041 485.075-1656.060  0.00  0.00     0.163 HD
BRANCH  22  25
ATOM     25  CA  SER d   5    1628.506 487.098-1656.487  0.00  0.00     0.200 C 
BRANCH  25  26
ATOM     26  N   SER d   5    1627.636 485.926-1656.546  0.00  0.00    -0.344 N 
ATOM     27  C   GLU d   4    1627.409 485.374-1657.689  0.00  0.00     0.241 C 
ATOM     28  O   GLU d   4    1627.935 485.853-1658.703  0.00  0.00    -0.271 OA
ATOM     29  H   SER d   5    1627.219 485.555-1655.704  0.00  0.00     0.163 HD
BRANCH  27  30
ATOM     30  CA  GLU d   4    1626.510 484.162-1657.750  0.00  0.00     0.177 C 
BRANCH  30  31
ATOM     31  N   GLU d   4    1626.870 483.191-1656.720  0.00  0.00    -0.346 N 
ATOM     32  C   PRO d   3    1628.074 482.731-1656.688  0.00  0.00     0.241 C 
ATOM     33  O   PRO d   3    1628.898 483.115-1657.520  0.00  0.00    -0.271 OA
ATOM     34  H   GLU d   4    1626.186 482.885-1656.044  0.00  0.00     0.163 HD
BRANCH  32  35
ATOM     35  CA  PRO d   3    1628.473 481.708-1655.611  0.00  0.00     0.179 C 
ATOM     36  N   PRO d   3    1628.021 482.117-1654.290  0.00  0.00    -0.337 N 
ATOM     37  C   ASN d   2    1628.542 483.112-1653.656  0.00  0.00     0.243 C 
ATOM     38  CD  PRO d   3    1626.943 481.324-1653.741  0.00  0.00     0.127 C 
ATOM     39  O   ASN d   2    1629.457 483.743-1654.184  0.00  0.00    -0.271 OA
ATOM     40  CG  PRO d   3    1626.485 480.505-1654.950  0.00  0.00     0.022 C 
ATOM     41  CB  PRO d   3    1627.769 480.353-1655.781  0.00  0.00     0.037 C 
BRANCH  37  42
ATOM     42  CA  ASN d   2    1628.011 483.468-1652.287  0.00  0.00     0.185 C 
BRANCH  42  43
ATOM     43  N   ASN d   2    1626.552 483.506-1652.287  0.00  0.00    -0.346 N 
ATOM     44  C   GLU d   1    1625.947 484.292-1653.112  0.00  0.00     0.242 C 
ATOM     45  O   GLU d   1    1626.623 484.991-1653.881  0.00  0.00    -0.271 OA
ATOM     46  H   ASN d   2    1626.024 482.927-1651.650  0.00  0.00     0.163 HD
BRANCH  44  47
ATOM     47  CA  GLU d   1    1624.438 484.332-1653.112  0.00  0.00     0.191 C 
BRANCH  47  48
ATOM     48  N   GLU d   1    1623.879 482.983-1653.112  0.00  0.00    -0.326 NA
ATOM     49  H   GLU d   1    1624.506 482.104-1653.112  0.00  0.00     0.180 HD
ENDBRANCH  47  48
BRANCH  47  50
ATOM     50  CB  GLU d   1    1623.915 485.117-1651.875  0.00  0.00     0.047 C 
BRANCH  50  51
ATOM     51  CG  GLU d   1    1624.390 486.602-1651.764  0.00  0.00     0.116 C 
BRANCH  51  52
ATOM     52  CD  GLU d   1    1623.966 487.406-1650.549  0.00  0.00     0.172 C 
ATOM     53  OE1 GLU d   1    1623.238 486.904-1649.671  0.00  0.00    -0.648 OA
ATOM     54  OE2 GLU d   1    1624.396 488.576-1650.477  0.00  0.00    -0.648 OA
ENDBRANCH  51  52
ENDBRANCH  50  51
ENDBRANCH  47  50
ENDBRANCH  44  47
ENDBRANCH  42  43
BRANCH  42  55
ATOM     55  CB  ASN d   2    1628.503 482.445-1651.223  0.00  0.00     0.137 C 
BRANCH  55  56
ATOM     56  CG  ASN d   2    1628.040 482.669-1649.779  0.00  0.00     0.217 C 
ATOM     57  ND2 ASN d   2    1628.635 483.584-1649.061  0.00  0.00    -0.370 N 
ATOM     58 21HD ASN d   2    1628.154 483.757-1648.175  0.00  0.00     0.159 HD
ATOM     59 22HD ASN d   2    1629.336 484.155-1649.530  0.00  0.00     0.159 HD
ATOM     60  OD1 ASN d   2    1627.120 482.035-1649.285  0.00  0.00    -0.274 OA
ENDBRANCH  55  56
ENDBRANCH  42  55
ENDBRANCH  37  42
ENDBRANCH  32  35
ENDBRANCH  30  31
BRANCH  30  61
ATOM     61  CB  GLU d   4    1625.021 484.581-1657.579  0.00  0.00     0.045 C 
BRANCH  61  62
ATOM     62  CG  GLU d   4    1624.473 485.585-1658.645  0.00  0.00     0.116 C 
BRANCH  62  63
ATOM     63  CD  GLU d   4    1623.047 486.081-1658.501  0.00  0.00     0.172 C 
ATOM     64  OE1 GLU d   4    1622.320 485.683-1657.570  0.00  0.00    -0.648 OA
ATOM     65  OE2 GLU d   4    1622.657 486.911-1659.349  0.00  0.00    -0.648 OA
ENDBRANCH  62  63
ENDBRANCH  61  62
ENDBRANCH  30  61
ENDBRANCH  27  30
ENDBRANCH  25  26
BRANCH  25  66
ATOM     66  CB  SER d   5    1628.617 487.630-1655.036  0.00  0.00     0.199 C 
BRANCH  66  67
ATOM     67  OG  SER d   5    1629.349 486.750-1654.176  0.00  0.00    -0.398 OA
ATOM     68  HG  SER d   5    1628.861 485.925-1654.125  0.00  0.00     0.209 HD
ENDBRANCH  66  67
ENDBRANCH  25  66
ENDBRANCH  22  25
ENDBRANCH  20  21
BRANCH  20  69
ATOM     69  CB  ILE d   6    1632.382 484.078-1656.686  0.00  0.00     0.013 C 
ATOM     70  CG2 ILE d   6    1633.824 483.777-1657.201  0.00  0.00     0.012 C 
BRANCH  69  71
ATOM     71  CG1 ILE d   6    1632.402 484.016-1655.125  0.00  0.00     0.002 C 
ATOM     72  CD1 ILE d   6    1632.672 482.627-1654.510  0.00  0.00     0.005 C 
ENDBRANCH  69  71
ENDBRANCH  20  69
ENDBRANCH  17  20
ENDBRANCH  15  16
BRANCH  15  73
ATOM     73  CB  LEU d   7    1629.521 483.818-1661.306  0.00  0.00     0.038 C 
BRANCH  73  74
ATOM     74  CG  LEU d   7    1629.448 482.338-1660.839  0.00  0.00    -0.020 C 
ATOM     75  CD1 LEU d   7    1628.259 481.632-1661.505  0.00  0.00     0.009 C 
ATOM     76  CD2 LEU d   7    1630.742 481.559-1661.131  0.00  0.00     0.009 C 
ENDBRANCH  73  74
ENDBRANCH  15  73
ENDBRANCH  12  15
ENDBRANCH  10  11
BRANCH  10  77
ATOM     77  CB  ASP d   8    1628.666 489.102-1660.702  0.00  0.00     0.147 C 
BRANCH  77  78
ATOM     78  CG  ASP d   8    1628.447 490.523-1661.242  0.00  0.00     0.175 C 
ATOM     79  OD1 ASP d   8    1628.511 490.723-1662.473  0.00  0.00    -0.648 OA
ATOM     80  OD2 ASP d   8    1628.255 491.449-1660.426  0.00  0.00    -0.648 OA
ENDBRANCH  77  78
ENDBRANCH  10  77
ENDBRANCH   7  10
ENDBRANCH   5   6
BRANCH   5  81
ATOM     81  CB  GLU d   9    1633.707 489.343-1658.831  0.00  0.00     0.045 C 
BRANCH  81  82
ATOM     82  CG  GLU d   9    1635.089 490.035-1658.601  0.00  0.00     0.116 C 
BRANCH  82  83
ATOM     83  CD  GLU d   9    1635.791 489.821-1657.273  0.00  0.00     0.172 C 
ATOM     84  OE1 GLU d   9    1635.270 489.130-1656.377  0.00  0.00    -0.648 OA
ATOM     85  OE2 GLU d   9    1636.910 490.359-1657.141  0.00  0.00    -0.648 OA
ENDBRANCH  82  83
ENDBRANCH  81  82
ENDBRANCH   5  81
ENDBRANCH   1   5
BRANCH   3  86
ATOM     86  CA  THR d  10    1634.975 487.240-1662.523  0.00  0.00     0.205 C 
BRANCH  86  87
ATOM     87  C   THR d  10    1634.608 487.806-1663.873  0.00  0.00     0.243 C 
ATOM     88  O   THR d  10    1635.443 488.262-1664.628  0.00  0.00    -0.271 OA
ATOM     89  N   VAL d  11    1633.370 487.804-1664.237  0.00  0.00    -0.346 N 
ATOM     90  H   VAL d  11    1632.657 487.430-1663.627  0.00  0.00     0.163 HD
BRANCH  89  91
ATOM     91  CA  VAL d  11    1633.015 488.352-1665.543  0.00  0.00     0.180 C 
BRANCH  91  92
ATOM     92  C   VAL d  11    1633.479 489.783-1665.673  0.00  0.00     0.241 C 
ATOM     93  O   VAL d  11    1634.080 490.190-1666.676  0.00  0.00    -0.271 OA
ATOM     94  N   GLN d  12    1633.240 490.607-1664.710  0.00  0.00    -0.346 N 
ATOM     95  H   GLN d  12    1632.751 490.300-1663.882  0.00  0.00     0.163 HD
BRANCH  94  96
ATOM     96  CA  GLN d  12    1633.688 491.991-1664.835  0.00  0.00     0.177 C 
BRANCH  96  97
ATOM     97  C   GLN d  12    1635.178 492.060-1665.072  0.00  0.00     0.241 C 
ATOM     98  O   GLN d  12    1635.665 492.769-1665.950  0.00  0.00    -0.271 OA
ATOM     99  N   ARG d  13    1635.963 491.352-1664.332  0.00  0.00    -0.346 N 
ATOM    100  H   ARG d  13    1635.587 490.761-1663.604  0.00  0.00     0.163 HD
BRANCH  99 101
ATOM    101  CA  ARG d  13    1637.403 491.419-1664.562  0.00  0.00     0.176 C 
BRANCH 101 102
ATOM    102  C   ARG d  13    1637.740 491.050-1665.987  0.00  0.00     0.241 C 
ATOM    103  O   ARG d  13    1638.509 491.723-1666.670  0.00  0.00    -0.271 OA
ATOM    104  N   VAL d  14    1637.205 489.996-1666.503  0.00  0.00    -0.346 N 
ATOM    105  H   VAL d  14    1636.570 489.426-1665.962  0.00  0.00     0.163 HD
BRANCH 104 106
ATOM    106  CA  VAL d  14    1637.531 489.638-1667.881  0.00  0.00     0.180 C 
BRANCH 106 107
ATOM    107  C   VAL d  14    1637.201 490.769-1668.825  0.00  0.00     0.241 C 
ATOM    108  O   VAL d  14    1637.995 491.152-1669.694  0.00  0.00    -0.271 OA
ATOM    109  N   MET d  15    1636.056 491.354-1668.724  0.00  0.00    -0.346 N 
ATOM    110  H   MET d  15    1635.390 491.060-1668.023  0.00  0.00     0.163 HD
BRANCH 109 111
ATOM    111  CA  MET d  15    1635.735 492.447-1669.636  0.00  0.00     0.177 C 
BRANCH 111 112
ATOM    112  C   MET d  15    1636.765 493.548-1669.547  0.00  0.00     0.241 C 
ATOM    113  O   MET d  15    1637.268 494.060-1670.558  0.00  0.00    -0.271 OA
ATOM    114  N   ARG d  16    1637.132 493.968-1668.384  0.00  0.00    -0.347 N 
ATOM    115  H   ARG d  16    1636.737 493.567-1667.545  0.00  0.00     0.163 HD
BRANCH 114 116
ATOM    116  CA  ARG d  16    1638.128 495.032-1668.298  0.00  0.00     0.162 C 
BRANCH 116 117
ATOM    117  C   ARG d  16    1639.399 494.641-1669.014  0.00  0.00     0.219 C 
ATOM    118  O   ARG d  16    1639.515 493.565-1669.596  0.00  0.00    -0.287 OA
ENDBRANCH 116 117
BRANCH 116 119
ATOM    119  CB  ARG d  16    1638.396 495.349-1666.800  0.00  0.00     0.035 C 
BRANCH 119 120
ATOM    120  CG  ARG d  16    1639.220 496.638-1666.525  0.00  0.00     0.023 C 
BRANCH 120 121
ATOM    121  CD  ARG d  16    1639.469 496.856-1665.023  0.00  0.00     0.138 C 
BRANCH 121 122
ATOM    122  NE  ARG d  16    1640.244 498.116-1664.821  0.00  0.00    -0.227 N 
ATOM    123  CZ  ARG d  16    1640.634 498.597-1663.645  0.00  0.00     0.665 C 
ATOM    124  NH1 ARG d  16    1640.386 498.012-1662.507  0.00  0.00    -0.235 N 
ATOM    125  NH2 ARG d  16    1641.297 499.710-1663.625  0.00  0.00    -0.235 N 
ATOM    126 11HH ARG d  16    1639.861 497.138-1662.592  0.00  0.00     0.174 HD
ATOM    127 12HH ARG d  16    1640.719 498.447-1661.645  0.00  0.00     0.174 HD
ATOM    128 21HH ARG d  16    1641.483 500.154-1664.526  0.00  0.00     0.174 HD
ATOM    129 22HH ARG d  16    1641.587 500.064-1662.711  0.00  0.00     0.174 HD
ATOM    130  HE  ARG d  16    1640.523 498.697-1665.617  0.00  0.00     0.177 HD
ENDBRANCH 121 122
ENDBRANCH 120 121
ENDBRANCH 119 120
ENDBRANCH 116 119
ENDBRANCH 114 116
ENDBRANCH 111 112
BRANCH 111 131
ATOM    131  CB  MET d  15    1634.313 492.992-1669.328  0.00  0.00     0.045 C 
BRANCH 131 132
ATOM    132  CG  MET d  15    1633.152 491.993-1669.521  0.00  0.00     0.076 C 
BRANCH 132 133
ATOM    133  SD  MET d  15    1631.578 492.858-1669.407  0.00  0.00    -0.173 SA
ATOM    134  CE  MET d  15    1630.497 491.428-1669.273  0.00  0.00     0.089 C 
ENDBRANCH 132 133
ENDBRANCH 131 132
ENDBRANCH 111 131
ENDBRANCH 109 111
ENDBRANCH 106 107
BRANCH 106 135
ATOM    135  CB  VAL d  14    1636.760 488.321-1668.289  0.00  0.00     0.009 C 
ATOM    136  CG1 VAL d  14    1636.850 487.904-1669.783  0.00  0.00     0.012 C 
ATOM    137  CG2 VAL d  14    1637.192 487.068-1667.490  0.00  0.00     0.012 C 
ENDBRANCH 106 135
ENDBRANCH 104 106
ENDBRANCH 101 102
BRANCH 101 138
ATOM    138  CB  ARG d  13    1638.116 490.480-1663.549  0.00  0.00     0.036 C 
BRANCH 138 139
ATOM    139  CG  ARG d  13    1639.661 490.634-1663.466  0.00  0.00     0.023 C 
BRANCH 139 140
ATOM    140  CD  ARG d  13    1640.288 489.645-1662.469  0.00  0.00     0.138 C 
BRANCH 140 141
ATOM    141  NE  ARG d  13    1641.765 489.853-1662.418  0.00  0.00    -0.227 N 
ATOM    142  CZ  ARG d  13    1642.613 489.161-1661.663  0.00  0.00     0.665 C 
ATOM    143  NH1 ARG d  13    1642.249 488.196-1660.867  0.00  0.00    -0.235 N 
ATOM    144  NH2 ARG d  13    1643.873 489.461-1661.719  0.00  0.00    -0.235 N 
ATOM    145 11HH ARG d  13    1641.243 488.009-1660.871  0.00  0.00     0.174 HD
ATOM    146 12HH ARG d  13    1642.962 487.712-1660.319  0.00  0.00     0.174 HD
ATOM    147 21HH ARG d  13    1644.140 490.220-1662.349  0.00  0.00     0.174 HD
ATOM    148 22HH ARG d  13    1644.508 488.920-1661.130  0.00  0.00     0.174 HD
ATOM    149  HE  ARG d  13    1642.216 490.577-1662.988  0.00  0.00     0.177 HD
ENDBRANCH 140 141
ENDBRANCH 139 140
ENDBRANCH 138 139
ENDBRANCH 101 138
ENDBRANCH  99 101
ENDBRANCH  96  97
BRANCH  96 150
ATOM    150  CB  GLN d  12    1633.296 492.756-1663.552  0.00  0.00     0.044 C 
BRANCH 150 151
ATOM    151  CG  GLN d  12    1633.655 494.278-1663.519  0.00  0.00     0.105 C 
BRANCH 151 152
ATOM    152  CD  GLN d  12    1633.351 495.090-1662.253  0.00  0.00     0.215 C 
ATOM    153  NE2 GLN d  12    1632.784 494.512-1661.225  0.00  0.00    -0.370 N 
ATOM    154 21HE GLN d  12    1632.676 495.105-1660.401  0.00  0.00     0.159 HD
ATOM    155 22HE GLN d  12    1632.621 493.509-1661.330  0.00  0.00     0.159 HD
ATOM    156  OE1 GLN d  12    1633.652 496.271-1662.174  0.00  0.00    -0.274 OA
ENDBRANCH 151 152
ENDBRANCH 150 151
ENDBRANCH  96 150
ENDBRANCH  94  96
ENDBRANCH  91  92
BRANCH  91 157
ATOM    157  CB  VAL d  11    1631.454 488.245-1665.763  0.00  0.00     0.009 C 
ATOM    158  CG1 VAL d  11    1630.885 488.950-1667.025  0.00  0.00     0.012 C 
ATOM    159  CG2 VAL d  11    1630.930 486.790-1665.838  0.00  0.00     0.012 C 
ENDBRANCH  91 157
ENDBRANCH  89  91
ENDBRANCH  86  87
BRANCH  86 160
ATOM    160  CB  THR d  10    1634.947 485.674-1662.552  0.00  0.00     0.146 C 
ATOM    161  CG2 THR d  10    1635.835 484.993-1663.616  0.00  0.00     0.042 C 
BRANCH 160 162
ATOM    162  OG1 THR d  10    1635.402 485.143-1661.315  0.00  0.00    -0.393 OA
ATOM    163  1HG THR d  10    1635.291 484.190-1661.376  0.00  0.00     0.210 HD
ENDBRANCH 160 162
ENDBRANCH  86 160
ENDBRANCH   3  86
TORSDOF 68
