@<TRIPOS>MOLECULE
14-15
263 264 16              
SMALL
USER_CHARGES
@<TRIPOS>ATOM
1	   N	2283.544	697.875	-2373.034	N.3	1	GLU1	-0.516	
2	  CA	2284.103	699.224	-2373.034	C.3	1	GLU1	0.040	
3	   C	2285.612	699.184	-2373.034	C.2	1	GLU1	0.537	
4	   O	2286.288	699.883	-2373.802	O.2	1	GLU1	-0.582	
5	  CB	2283.580	700.009	-2371.797	C.3	1	GLU1	0.056	
6	  CG	2284.055	701.494	-2371.686	C.3	1	GLU1	0.014	
7	  CD	2283.631	702.298	-2370.471	C.2	1	GLU1	0.805	
8	 OE1	2282.903	701.796	-2369.593	O.co2	1	GLU1	-0.819	
9	 OE2	2284.061	703.468	-2370.399	O.co2	1	GLU1	-0.819	
10	   H	2284.171	696.996	-2373.034	 H	1	GLU1	0.294	
11	  HA	2283.777	699.742	-2373.954	 H	1	GLU1	0.111	
12	 2HB	2283.869	699.478	-2370.867	 H	1	GLU1	-0.017	
13	 3HB	2282.473	699.999	-2371.784	 H	1	GLU1	-0.017	
14	 2HG	2283.745	702.079	-2372.567	 H	1	GLU1	-0.043	
15	 3HG	2285.155	701.561	-2371.657	 H	1	GLU1	-0.043	
16	   N	2286.216	698.398	-2372.209	N.am	2	ASN2	-0.416	
17	  CA	2287.676	698.359	-2372.208	C.3	2	ASN2	0.014	
18	   C	2288.207	698.004	-2373.577	C.2	2	ASN2	0.597	
19	   O	2289.122	698.634	-2374.105	O.2	2	ASN2	-0.568	
20	  CB	2288.167	697.336	-2371.144	C.3	2	ASN2	-0.204	
21	  CG	2287.704	697.560	-2369.701	C.2	2	ASN2	0.713	
22	 ND2	2288.298	698.475	-2368.982	N.pl3	2	ASN2	-0.919	
23	 OD1	2286.783	696.927	-2369.207	O.2	2	ASN2	-0.593	
24	   H	2285.688	697.819	-2371.572	 H	2	ASN2	0.272	
25	  HA	2288.053	699.369	-2371.963	 H	2	ASN2	0.105	
26	 2HB	2289.271	697.277	-2371.147	 H	2	ASN2	0.080	
27	 3HB	2287.838	696.318	-2371.430	 H	2	ASN2	0.080	
28	1HD2	2287.817	698.648	-2368.096	 H	2	ASN2	0.420	
29	2HD2	2289.000	699.047	-2369.451	 H	2	ASN2	0.420	
30	   N	2287.686	697.009	-2374.211	N.am	3	PRO3	-0.255	
31	  CA	2288.138	696.599	-2375.533	C.3	3	PRO3	-0.027	
32	   C	2287.740	697.623	-2376.610	C.2	3	PRO3	0.590	
33	   O	2288.563	698.006	-2377.441	O.2	3	PRO3	-0.575	
34	  CB	2287.433	695.245	-2375.702	C.3	3	PRO3	-0.007	
35	  CG	2286.150	695.397	-2374.873	C.3	3	PRO3	0.019	
36	  CD	2286.607	696.216	-2373.663	C.3	3	PRO3	0.019	
37	  HA	2289.224	696.479	-2375.546	 H	3	PRO3	0.064	
38	 2HB	2288.056	694.464	-2375.261	 H	3	PRO3	0.025	
39	 3HB	2287.235	694.997	-2376.748	 H	3	PRO3	0.025	
40	 2HG	2285.722	694.435	-2374.582	 H	3	PRO3	0.021	
41	 3HG	2285.413	695.968	-2375.440	 H	3	PRO3	0.021	
42	 2HD	2286.996	695.566	-2372.875	 H	3	PRO3	0.039	
43	 3HD	2285.811	696.852	-2373.270	 H	3	PRO3	0.039	
44	   N	2286.535	698.083	-2376.643	N.am	4	GLU4	-0.516	
45	  CA	2286.176	699.054	-2377.672	C.3	4	GLU4	0.040	
46	   C	2287.075	700.265	-2377.611	C.2	4	GLU4	0.537	
47	   O	2287.602	700.745	-2378.625	O.2	4	GLU4	-0.582	
48	  CB	2284.688	699.474	-2377.503	C.3	4	GLU4	0.056	
49	  CG	2284.140	700.477	-2378.568	C.3	4	GLU4	0.014	
50	  CD	2282.714	700.974	-2378.425	C.2	4	GLU4	0.805	
51	 OE1	2281.987	700.576	-2377.495	O.co2	4	GLU4	-0.819	
52	 OE2	2282.325	701.803	-2379.274	O.co2	4	GLU4	-0.819	
53	   H	2285.851	697.777	-2375.966	 H	4	GLU4	0.294	
54	  HA	2286.308	698.584	-2378.664	 H	4	GLU4	0.111	
55	 2HB	2284.535	699.913	-2376.496	 H	4	GLU4	-0.017	
56	 3HB	2284.040	698.576	-2377.509	 H	4	GLU4	-0.017	
57	 2HG	2284.222	700.062	-2379.586	 H	4	GLU4	-0.043	
58	 3HG	2284.729	701.409	-2378.579	 H	4	GLU4	-0.043	
59	   N	2287.302	700.818	-2376.468	N.am	5	SER5	-0.416	
60	  CA	2288.172	701.989	-2376.409	C.3	5	SER5	-0.025	
61	   C	2289.531	701.683	-2376.994	C.2	5	SER5	0.597	
62	   O	2290.079	702.436	-2377.799	O.2	5	SER5	-0.568	
63	  CB	2288.283	702.521	-2374.958	C.3	5	SER5	0.212	
64	  OG	2289.014	701.641	-2374.097	O.3	5	SER5	-0.655	
65	   H	2286.885	700.446	-2375.626	 H	5	SER5	0.272	
66	  HA	2287.723	702.779	-2377.038	 H	5	SER5	0.084	
67	 2HB	2287.283	702.715	-2374.525	 H	5	SER5	0.035	
68	 3HB	2288.789	703.506	-2374.960	 H	5	SER5	0.035	
69	  HG	2288.525	700.817	-2374.046	 H	5	SER5	0.428	
70	   N	2290.135	700.599	-2376.640	N.am	6	ILE6	-0.416	
71	  CA	2291.448	700.304	-2377.206	C.3	6	ILE6	-0.060	
72	   C	2291.391	700.266	-2378.713	C.2	6	ILE6	0.597	
73	   O	2292.226	700.854	-2379.417	O.2	6	ILE6	-0.568	
74	  CB	2292.048	698.968	-2376.605	C.3	6	ILE6	0.130	
75	 CG1	2292.066	698.905	-2375.044	C.3	6	ILE6	-0.043	
76	 CG2	2293.489	698.665	-2377.120	C.3	6	ILE6	-0.320	
77	 CD1	2292.336	697.516	-2374.429	C.3	6	ILE6	-0.066	
78	   H	2289.706	699.965	-2375.981	 H	6	ILE6	0.272	
79	  HA	2292.123	701.138	-2376.938	 H	6	ILE6	0.087	
80	  HB	2291.389	698.142	-2376.950	 H	6	ILE6	0.019	
81	2HG1	2291.084	699.225	-2374.649	 H	6	ILE6	0.024	
82	3HG1	2292.782	699.647	-2374.639	 H	6	ILE6	0.024	
83	1HG2	2293.548	698.572	-2378.219	 H	6	ILE6	0.088	
84	2HG2	2294.211	699.447	-2376.818	 H	6	ILE6	0.088	
85	3HG2	2293.878	697.703	-2376.741	 H	6	ILE6	0.088	
86	1HD1	2291.607	696.762	-2374.784	 H	6	ILE6	0.019	
87	2HD1	2293.346	697.137	-2374.665	 H	6	ILE6	0.019	
88	3HD1	2292.259	697.546	-2373.327	 H	6	ILE6	0.019	
89	   N	2290.445	699.603	-2379.287	N.am	7	LEU7	-0.416	
90	  CA	2290.390	699.567	-2380.745	C.3	7	LEU7	-0.052	
91	   C	2290.318	700.962	-2381.318	C.2	7	LEU7	0.597	
92	   O	2291.039	701.324	-2382.261	O.2	7	LEU7	-0.568	
93	  CB	2289.187	698.707	-2381.226	C.3	7	LEU7	-0.110	
94	  CG	2289.114	697.228	-2380.759	C.3	7	LEU7	0.353	
95	 CD1	2287.924	696.522	-2381.425	C.3	7	LEU7	-0.412	
96	 CD2	2290.407	696.448	-2381.051	C.3	7	LEU7	-0.412	
97	   H	2289.753	699.116	-2378.736	 H	7	LEU7	0.272	
98	  HA	2291.332	699.127	-2381.120	 H	7	LEU7	0.092	
99	 2HB	2289.164	698.723	-2382.333	 H	7	LEU7	0.046	
100	 3HB	2288.247	699.210	-2380.922	 H	7	LEU7	0.046	
101	  HG	2288.944	697.220	-2379.662	 H	7	LEU7	-0.036	
102	1HD1	2286.967	697.031	-2381.202	 H	7	LEU7	0.100	
103	2HD1	2288.023	696.482	-2382.526	 H	7	LEU7	0.100	
104	3HD1	2287.816	695.481	-2381.069	 H	7	LEU7	0.100	
105	1HD2	2290.682	696.478	-2382.121	 H	7	LEU7	0.100	
106	2HD2	2291.260	696.859	-2380.479	 H	7	LEU7	0.100	
107	3HD2	2290.325	695.386	-2380.755	 H	7	LEU7	0.100	
108	   N	2289.481	701.804	-2380.812	N.am	8	ASP8	-0.516	
109	  CA	2289.412	703.153	-2381.366	C.3	8	ASP8	0.038	
110	   C	2290.759	703.832	-2381.310	C.2	8	ASP8	0.537	
111	   O	2291.232	704.436	-2382.285	O.2	8	ASP8	-0.582	
112	  CB	2288.334	703.993	-2380.625	C.3	8	ASP8	-0.030	
113	  CG	2288.116	705.413	-2381.167	C.2	8	ASP8	0.799	
114	 OD1	2288.180	705.612	-2382.398	O.co2	8	ASP8	-0.801	
115	 OD2	2287.925	706.340	-2380.352	O.co2	8	ASP8	-0.801	
116	   H	2288.884	701.533	-2380.045	 H	8	ASP8	0.294	
117	  HA	2289.129	703.074	-2382.434	 H	8	ASP8	0.088	
118	 2HB	2288.591	704.076	-2379.554	 H	8	ASP8	-0.012	
119	 3HB	2287.355	703.488	-2380.658	 H	8	ASP8	-0.012	
120	   N	2291.439	703.782	-2380.215	N.am	9	GLU9	-0.516	
121	  CA	2292.742	704.439	-2380.160	C.3	9	GLU9	0.040	
122	   C	2293.659	703.911	-2381.236	C.2	9	GLU9	0.537	
123	   O	2294.323	704.664	-2381.962	O.2	9	GLU9	-0.582	
124	  CB	2293.375	704.232	-2378.755	C.3	9	GLU9	0.056	
125	  CG	2294.759	704.924	-2378.526	C.3	9	GLU9	0.014	
126	  CD	2295.460	704.711	-2377.198	C.2	9	GLU9	0.805	
127	 OE1	2294.939	704.021	-2376.301	O.co2	9	GLU9	-0.819	
128	 OE2	2296.580	705.248	-2377.066	O.co2	9	GLU9	-0.819	
129	   H	2291.075	703.297	-2379.407	 H	9	GLU9	0.294	
130	  HA	2292.600	705.521	-2380.336	 H	9	GLU9	0.111	
131	 2HB	2293.488	703.147	-2378.551	 H	9	GLU9	-0.017	
132	 3HB	2292.679	704.586	-2377.970	 H	9	GLU9	-0.017	
133	 2HG	2294.687	706.014	-2378.666	 H	9	GLU9	-0.043	
134	 3HG	2295.505	704.578	-2379.260	 H	9	GLU9	-0.043	
135	   N	2293.755	702.635	-2381.405	N.am	10	HIS10	-0.416	
136	  CA	2294.643	702.123	-2382.445	C.3	10	HIS10	-0.058	
137	   C	2294.276	702.687	-2383.796	C.2	10	HIS10	0.597	
138	   O	2295.128	703.151	-2384.569	O.2	10	HIS10	-0.568	
139	  CB	2294.478	700.594	-2382.439	C.3	10	HIS10	-0.007	
140	  CG	2295.763	699.883	-2382.131	C.2	10	HIS10	0.187	
141	 CD2	2296.145	699.549	-2380.839	C.2	10	HIS10	-0.221	
142	 ND1	2296.715	699.477	-2383.064	N.2	10	HIS10	-0.543	
143	 CE1	2297.621	698.919	-2382.241	C.2	10	HIS10	0.163	
144	 NE2	2297.359	698.916	-2380.906	N.pl3	10	HIS10	-0.280	
145	   H	2293.225	702.000	-2380.826	 H	10	HIS10	0.272	
146	  HA	2295.662	702.480	-2382.221	 H	10	HIS10	0.136	
147	 2HB	2294.112	700.227	-2383.419	 H	10	HIS10	0.037	
148	 3HB	2293.722	700.258	-2381.699	 H	10	HIS10	0.037	
149	 2HD	2295.560	699.765	-2379.950	 H	10	HIS10	0.186	
150	 1HE	2298.512	698.497	-2382.688	 H	10	HIS10	0.144	
151	 2HE	2297.926	698.539	-2380.132	 H	10	HIS10	0.334	
152	   N	2293.038	702.687	-2384.159	N.am	11	VAL11	-0.416	
153	  CA	2292.683	703.232	-2385.466	C.3	11	VAL11	-0.087	
154	   C	2293.148	704.662	-2385.600	C.2	11	VAL11	0.597	
155	   O	2293.749	705.067	-2386.603	O.2	11	VAL11	-0.568	
156	  CB	2291.121	703.126	-2385.685	C.3	11	VAL11	0.299	
157	 CG1	2290.553	703.830	-2386.948	C.3	11	VAL11	-0.319	
158	 CG2	2290.596	701.672	-2385.757	C.3	11	VAL11	-0.319	
159	   H	2292.325	702.315	-2383.548	 H	11	VAL11	0.272	
160	  HA	2293.202	702.649	-2386.249	 H	11	VAL11	0.097	
161	  HB	2290.634	703.607	-2384.810	 H	11	VAL11	-0.030	
162	1HG1	2290.991	703.437	-2387.885	 H	11	VAL11	0.079	
163	2HG1	2289.454	703.723	-2387.030	 H	11	VAL11	0.079	
164	3HG1	2290.732	704.922	-2386.940	 H	11	VAL11	0.079	
165	1HG2	2290.886	701.086	-2384.866	 H	11	VAL11	0.079	
166	2HG2	2289.490	701.636	-2385.800	 H	11	VAL11	0.079	
167	3HG2	2290.978	701.131	-2386.644	 H	11	VAL11	0.079	
168	   N	2292.912	705.489	-2384.637	N.am	12	GLN12	-0.416	
169	  CA	2293.361	706.871	-2384.765	C.3	12	GLN12	-0.003	
170	   C	2294.851	706.938	-2385.004	C.2	12	GLN12	0.597	
171	   O	2295.338	707.645	-2385.883	O.2	12	GLN12	-0.568	
172	  CB	2292.970	707.640	-2383.483	C.3	12	GLN12	-0.004	
173	  CG	2293.332	709.161	-2383.453	C.3	12	GLN12	-0.064	
174	  CD	2293.030	709.976	-2382.188	C.2	12	GLN12	0.695	
175	 NE2	2292.463	709.400	-2381.159	N.pl3	12	GLN12	-0.941	
176	 OE1	2293.333	711.157	-2382.112	O.2	12	GLN12	-0.609	
177	   H	2292.423	705.183	-2383.808	 H	12	GLN12	0.272	
178	  HA	2292.861	707.327	-2385.641	 H	12	GLN12	0.085	
179	 2HB	2293.447	707.140	-2382.614	 H	12	GLN12	0.017	
180	 3HB	2291.880	707.533	-2383.320	 H	12	GLN12	0.017	
181	 2HG	2292.854	709.682	-2384.304	 H	12	GLN12	0.035	
182	 3HG	2294.415	709.303	-2383.619	 H	12	GLN12	0.035	
183	1HE2	2292.357	709.995	-2380.336	 H	12	GLN12	0.425	
184	2HE2	2292.299	708.397	-2381.262	 H	12	GLN12	0.425	
185	   N	2295.635	706.231	-2384.262	N.am	13	ARG13	-0.348	
186	  CA	2297.075	706.296	-2384.494	C.3	13	ARG13	-0.264	
187	   C	2297.411	705.924	-2385.918	C.2	13	ARG13	0.734	
188	   O	2298.180	706.595	-2386.603	O.2	13	ARG13	-0.589	
189	  CB	2297.789	705.358	-2383.479	C.3	13	ARG13	-0.001	
190	  CG	2299.334	705.511	-2383.399	C.3	13	ARG13	0.039	
191	  CD	2299.961	704.523	-2382.401	C.3	13	ARG13	0.049	
192	  NE	2301.438	704.730	-2382.351	N.pl3	13	ARG13	-0.530	
193	  CZ	2302.286	704.039	-2381.595	C.cat	13	ARG13	0.808	
194	 NH1	2301.921	703.075	-2380.797	N.pl3	13	ARG13	-0.863	
195	 NH2	2303.546	704.338	-2381.653	N.pl3	13	ARG13	-0.863	
196	   H	2295.259	705.642	-2383.533	 H	13	ARG13	0.275	
197	  HA	2297.400	707.342	-2384.336	 H	13	ARG13	0.156	
198	 2HB	2297.522	704.307	-2383.718	 H	13	ARG13	0.033	
199	 3HB	2297.364	705.525	-2382.469	 H	13	ARG13	0.033	
200	 2HG	2299.582	706.556	-2383.120	 H	13	ARG13	0.029	
201	 3HG	2299.784	705.354	-2384.400	 H	13	ARG13	0.029	
202	 2HD	2299.716	703.483	-2382.709	 H	13	ARG13	0.069	
203	 3HD	2299.505	704.670	-2381.398	 H	13	ARG13	0.069	
204	  HE	2301.889	705.452	-2382.922	 H	13	ARG13	0.346	
205	1HH1	2300.916	702.889	-2380.800	 H	13	ARG13	0.448	
206	2HH1	2302.634	702.592	-2380.248	 H	13	ARG13	0.448	
207	1HH2	2303.813	705.095	-2382.284	 H	13	ARG13	0.448	
208	2HH2	2304.181	703.796	-2381.064	 H	13	ARG13	0.448	
209	   N	2296.875	704.869	-2386.432	N.am	14	ASN14	-0.416	
210	  CA	2297.199	704.509	-2387.810	C.3	14	ASN14	0.014	
211	   C	2296.869	705.640	-2388.755	C.2	14	ASN14	0.597	
212	   O	2297.658	706.019	-2389.620	O.2	14	ASN14	-0.568	
213	  CB	2296.427	703.218	-2388.204	C.3	14	ASN14	-0.204	
214	  CG	2296.653	701.980	-2387.330	C.2	14	ASN14	0.713	
215	 ND2	2297.746	701.283	-2387.495	N.pl3	14	ASN14	-0.919	
216	 OD1	2295.856	701.635	-2386.470	O.2	14	ASN14	-0.593	
217	   H	2296.240	704.301	-2385.890	 H	14	ASN14	0.272	
218	  HA	2298.289	704.333	-2387.878	 H	14	ASN14	0.105	
219	 2HB	2296.643	702.945	-2389.254	 H	14	ASN14	0.080	
220	 3HB	2295.338	703.420	-2388.193	 H	14	ASN14	0.080	
221	1HD2	2297.871	700.575	-2386.766	 H	14	ASN14	0.420	
222	2HD2	2298.431	701.648	-2388.156	 H	14	ASN14	0.420	
223	   N	2295.725	706.226	-2388.654	N.am	15	MET15	-0.416	
224	  CA	2295.405	707.319	-2389.567	C.3	15	MET15	-0.024	
225	   C	2296.435	708.419	-2389.479	C.2	15	MET15	0.597	
226	   O	2296.938	708.929	-2390.492	O.2	15	MET15	-0.568	
227	  CB	2293.983	707.865	-2389.258	C.3	15	MET15	0.034	
228	  CG	2292.821	706.867	-2389.449	C.3	15	MET15	0.002	
229	  SD	2291.247	707.734	-2389.335	S.3	15	MET15	-0.274	
230	  CE	2290.166	706.304	-2389.199	C.3	15	MET15	-0.054	
231	   H	2295.060	705.934	-2387.952	 H	15	MET15	0.272	
232	  HA	2295.430	706.932	-2390.603	 H	15	MET15	0.088	
233	 2HB	2293.781	708.744	-2389.900	 H	15	MET15	0.024	
234	 3HB	2293.948	708.258	-2388.221	 H	15	MET15	0.024	
235	 2HG	2292.864	706.081	-2388.672	 H	15	MET15	0.044	
236	 3HG	2292.884	706.352	-2390.426	 H	15	MET15	0.044	
237	 1HE	2290.309	705.616	-2390.051	 H	15	MET15	0.068	
238	 2HE	2290.375	705.752	-2388.266	 H	15	MET15	0.068	
239	 3HE	2289.108	706.620	-2389.182	 H	15	MET15	0.068	
240	   N	2296.804	708.840	-2388.317	N.am	16	ARG16	-0.348	
241	  CA	2297.801	709.903	-2388.234	C.3	16	ARG16	-0.264	
242	   C	2299.071	709.510	-2388.950	C.2	16	ARG16	0.734	
243	   O	2299.185	708.433	-2389.531	O.2	16	ARG16	-0.589	
244	  CB	2298.070	710.221	-2386.735	C.3	16	ARG16	-0.001	
245	  CG	2298.896	711.510	-2386.463	C.3	16	ARG16	0.039	
246	  CD	2299.146	711.730	-2384.962	C.3	16	ARG16	0.049	
247	  NE	2299.922	712.989	-2384.761	N.pl3	16	ARG16	-0.530	
248	  CZ	2300.314	713.471	-2383.586	C.cat	16	ARG16	0.808	
249	 NH1	2300.066	712.887	-2382.447	N.pl3	16	ARG16	-0.863	
250	 NH2	2300.978	714.584	-2383.568	N.pl3	16	ARG16	-0.863	
251	   H	2296.409	708.440	-2387.478	 H	16	ARG16	0.275	
252	  HA	2297.392	710.796	-2388.744	 H	16	ARG16	0.156	
253	 2HB	2298.567	709.345	-2386.269	 H	16	ARG16	0.033	
254	 3HB	2297.102	710.303	-2386.201	 H	16	ARG16	0.033	
255	 2HG	2298.365	712.381	-2386.900	 H	16	ARG16	0.029	
256	 3HG	2299.869	711.457	-2386.992	 H	16	ARG16	0.029	
257	 2HD	2299.694	710.855	-2384.549	 H	16	ARG16	0.069	
258	 3HD	2298.173	711.773	-2384.427	 H	16	ARG16	0.069	
259	  HE	2300.201	713.569	-2385.559	 H	16	ARG16	0.346	
260	1HH1	2299.540	712.014	-2382.531	 H	16	ARG16	0.448	
261	2HH1	2300.401	713.323	-2381.586	 H	16	ARG16	0.448	
262	1HH2	2301.163	715.027	-2384.469	 H	16	ARG16	0.448	
263	2HH2	2301.268	714.939	-2382.655	 H	16	ARG16	0.448	
@<TRIPOS>BOND
1 1 2 1
2 1 10 1
3 2 3 1
4 2 5 1
5 2 11 1
6 3 4 2
7 3 16 1
8 5 6 1
9 6 7 1
10 7 8 2
11 7 9 1
12 5 12 1
13 5 13 1
14 6 14 1
15 6 15 1
16 16 17 1
17 16 24 1
18 17 18 1
19 17 20 1
20 17 25 1
21 18 19 2
22 18 30 1
23 20 21 1
24 21 22 1
25 21 23 2
26 20 26 1
27 20 27 1
28 22 28 1
29 22 29 1
30 30 31 1
31 30 36 1
32 31 32 1
33 31 34 1
34 31 37 1
35 32 33 2
36 32 44 1
37 34 35 1
38 35 36 1
39 34 38 1
40 34 39 1
41 35 40 1
42 35 41 1
43 36 42 1
44 36 43 1
45 44 45 1
46 44 53 1
47 45 46 1
48 45 48 1
49 45 54 1
50 46 47 2
51 46 59 1
52 48 49 1
53 49 50 1
54 50 51 2
55 50 52 1
56 48 55 1
57 48 56 1
58 49 57 1
59 49 58 1
60 59 60 1
61 59 65 1
62 60 61 1
63 60 63 1
64 60 66 1
65 61 62 2
66 61 70 1
67 63 64 1
68 63 67 1
69 63 68 1
70 64 69 1
71 70 71 1
72 70 78 1
73 71 72 1
74 71 74 1
75 71 79 1
76 72 73 2
77 72 89 1
78 74 75 1
79 74 76 1
80 75 77 1
81 74 80 1
82 75 81 1
83 75 82 1
84 76 83 1
85 76 84 1
86 76 85 1
87 77 86 1
88 77 87 1
89 77 88 1
90 89 90 1
91 89 97 1
92 90 91 1
93 90 93 1
94 90 98 1
95 91 92 2
96 91 108 1
97 93 94 1
98 94 95 1
99 94 96 1
100 93 99 1
101 93 100 1
102 94 101 1
103 95 102 1
104 95 103 1
105 95 104 1
106 96 105 1
107 96 106 1
108 96 107 1
109 108 109 1
110 108 116 1
111 109 110 1
112 109 112 1
113 109 117 1
114 110 111 2
115 110 120 1
116 112 113 1
117 113 114 2
118 113 115 1
119 112 118 1
120 112 119 1
121 120 121 1
122 120 129 1
123 121 122 1
124 121 124 1
125 121 130 1
126 122 123 2
127 122 135 1
128 124 125 1
129 125 126 1
130 126 127 2
131 126 128 1
132 124 131 1
133 124 132 1
134 125 133 1
135 125 134 1
136 135 136 1
137 135 145 1
138 136 137 1
139 136 139 1
140 136 146 1
141 137 138 2
142 137 152 1
143 139 140 1
144 140 141 2
145 141 144 1
146 140 142 1
147 142 143 2
148 143 144 1
149 139 147 1
150 139 148 1
151 141 149 1
152 143 150 1
153 144 151 1
154 152 153 1
155 152 159 1
156 153 154 1
157 153 156 1
158 153 160 1
159 154 155 2
160 154 168 1
161 156 157 1
162 156 158 1
163 156 161 1
164 157 162 1
165 157 163 1
166 157 164 1
167 158 165 1
168 158 166 1
169 158 167 1
170 168 169 1
171 168 177 1
172 169 170 1
173 169 172 1
174 169 178 1
175 170 171 2
176 170 185 1
177 172 173 1
178 173 174 1
179 174 175 1
180 174 176 2
181 172 179 1
182 172 180 1
183 173 181 1
184 173 182 1
185 175 183 1
186 175 184 1
187 185 186 1
188 185 196 1
189 186 187 1
190 186 189 1
191 186 197 1
192 187 188 2
193 187 209 1
194 189 190 1
195 190 191 1
196 191 192 1
197 192 193 1
198 193 194 2
199 193 195 1
200 189 198 1
201 189 199 1
202 190 200 1
203 190 201 1
204 191 202 1
205 191 203 1
206 192 204 1
207 194 205 1
208 194 206 1
209 195 207 1
210 195 208 1
211 209 210 1
212 209 217 1
213 210 211 1
214 210 213 1
215 210 218 1
216 211 212 2
217 211 223 1
218 213 214 1
219 214 215 1
220 214 216 2
221 213 219 1
222 213 220 1
223 215 221 1
224 215 222 1
225 223 224 1
226 223 231 1
227 224 225 1
228 224 227 1
229 224 232 1
230 225 226 2
231 225 240 1
232 227 228 1
233 228 229 1
234 229 230 1
235 227 233 1
236 227 234 1
237 228 235 1
238 228 236 1
239 230 237 1
240 230 238 1
241 230 239 1
242 240 241 1
243 240 251 1
244 241 242 1
245 241 244 1
246 241 252 1
247 242 243 2
248 244 245 1
249 245 246 1
250 246 247 1
251 247 248 1
252 248 249 2
253 248 250 1
254 244 253 1
255 244 254 1
256 245 255 1
257 245 256 1
258 246 257 1
259 246 258 1
260 247 259 1
261 249 260 1
262 249 261 1
263 250 262 1
264 250 263 1
@<TRIPOS>SUBSTRUCTURE
1	GLU1	1	RESIDUE	1 ****	GLU
2	ASN2	16	RESIDUE	1 ****	ASN
3	PRO3	30	RESIDUE	1 ****	PRO
4	GLU4	44	RESIDUE	1 ****	GLU
5	SER5	59	RESIDUE	1 ****	SER
6	ILE6	70	RESIDUE	1 ****	ILE
7	LEU7	89	RESIDUE	1 ****	LEU
8	ASP8	108	RESIDUE	1 ****	ASP
9	GLU9	120	RESIDUE	1 ****	GLU
10	HIS10	135	RESIDUE	1 ****	HIS
11	VAL11	152	RESIDUE	1 ****	VAL
12	GLN12	168	RESIDUE	1 ****	GLN
13	ARG13	185	RESIDUE	1 ****	ARG
14	ASN14	209	RESIDUE	1 ****	ASN
15	MET15	223	RESIDUE	1 ****	MET
16	ARG16	240	RESIDUE	1 ****	ARG
