@<TRIPOS>MOLECULE
5-7
273 274 16              
SMALL
USER_CHARGES
@<TRIPOS>ATOM
1	   N	746.587	193.350	-702.670	N.3	1	GLU1	-0.516	
2	  CA	747.146	194.699	-702.670	C.3	1	GLU1	0.040	
3	   C	748.655	194.659	-702.670	C.2	1	GLU1	0.537	
4	   O	749.331	195.359	-703.439	O.2	1	GLU1	-0.582	
5	  CB	746.623	195.484	-701.433	C.3	1	GLU1	0.056	
6	  CG	747.098	196.969	-701.322	C.3	1	GLU1	0.014	
7	  CD	746.674	197.773	-700.107	C.2	1	GLU1	0.805	
8	 OE1	745.946	197.271	-699.229	O.co2	1	GLU1	-0.819	
9	 OE2	747.104	198.943	-700.035	O.co2	1	GLU1	-0.819	
10	   H	747.214	192.471	-702.670	 H	1	GLU1	0.294	
11	  HA	746.820	195.217	-703.590	 H	1	GLU1	0.111	
12	 2HB	746.912	194.953	-700.503	 H	1	GLU1	-0.017	
13	 3HB	745.516	195.474	-701.420	 H	1	GLU1	-0.017	
14	 2HG	746.788	197.554	-702.203	 H	1	GLU1	-0.043	
15	 3HG	748.198	197.036	-701.293	 H	1	GLU1	-0.043	
16	   N	749.259	193.874	-701.845	N.am	2	ASN2	-0.416	
17	  CA	750.719	193.835	-701.845	C.3	2	ASN2	0.014	
18	   C	751.250	193.480	-703.214	C.2	2	ASN2	0.597	
19	   O	752.165	194.110	-703.743	O.2	2	ASN2	-0.568	
20	  CB	751.211	192.812	-700.781	C.3	2	ASN2	-0.204	
21	  CG	750.748	193.036	-699.338	C.2	2	ASN2	0.713	
22	 ND2	751.342	193.951	-698.620	N.pl3	2	ASN2	-0.919	
23	 OD1	749.827	192.402	-698.844	O.2	2	ASN2	-0.593	
24	   H	748.731	193.294	-701.209	 H	2	ASN2	0.272	
25	  HA	751.096	194.845	-701.600	 H	2	ASN2	0.105	
26	 2HB	752.315	192.753	-700.785	 H	2	ASN2	0.080	
27	 3HB	750.882	191.794	-701.067	 H	2	ASN2	0.080	
28	1HD2	750.861	194.124	-697.733	 H	2	ASN2	0.420	
29	2HD2	752.044	194.522	-699.089	 H	2	ASN2	0.420	
30	   N	750.729	192.484	-703.848	N.am	3	PRO3	-0.255	
31	  CA	751.181	192.075	-705.170	C.3	3	PRO3	-0.027	
32	   C	750.782	193.099	-706.247	C.2	3	PRO3	0.590	
33	   O	751.606	193.482	-707.078	O.2	3	PRO3	-0.575	
34	  CB	750.477	190.720	-705.339	C.3	3	PRO3	-0.007	
35	  CG	749.193	190.872	-704.509	C.3	3	PRO3	0.019	
36	  CD	749.651	191.691	-703.299	C.3	3	PRO3	0.019	
37	  HA	752.266	191.955	-705.183	 H	3	PRO3	0.064	
38	 2HB	751.100	189.939	-704.898	 H	3	PRO3	0.025	
39	 3HB	750.279	190.472	-706.384	 H	3	PRO3	0.025	
40	 2HG	748.766	189.910	-704.218	 H	3	PRO3	0.021	
41	 3HG	748.456	191.443	-705.076	 H	3	PRO3	0.021	
42	 2HD	750.040	191.042	-702.512	 H	3	PRO3	0.039	
43	 3HD	748.854	192.327	-702.906	 H	3	PRO3	0.039	
44	   N	749.578	193.559	-706.279	N.am	4	GLU4	-0.516	
45	  CA	749.218	194.529	-707.309	C.3	4	GLU4	0.040	
46	   C	750.117	195.741	-707.247	C.2	4	GLU4	0.537	
47	   O	750.643	196.220	-708.262	O.2	4	GLU4	-0.582	
48	  CB	747.729	194.948	-707.138	C.3	4	GLU4	0.056	
49	  CG	747.181	195.951	-708.204	C.3	4	GLU4	0.014	
50	  CD	745.754	196.448	-708.061	C.2	4	GLU4	0.805	
51	 OE1	745.028	196.049	-707.130	O.co2	4	GLU4	-0.819	
52	 OE2	745.365	197.277	-708.909	O.co2	4	GLU4	-0.819	
53	   H	748.893	193.252	-705.602	 H	4	GLU4	0.294	
54	  HA	749.349	194.059	-708.300	 H	4	GLU4	0.111	
55	 2HB	747.577	195.388	-706.132	 H	4	GLU4	-0.017	
56	 3HB	747.082	194.050	-707.145	 H	4	GLU4	-0.017	
57	 2HG	747.263	195.537	-709.222	 H	4	GLU4	-0.043	
58	 3HG	747.769	196.884	-708.215	 H	4	GLU4	-0.043	
59	   N	750.344	196.294	-706.104	N.am	5	LEU5	-0.416	
60	  CA	751.213	197.465	-706.045	C.3	5	LEU5	-0.052	
61	   C	752.571	197.160	-706.630	C.2	5	LEU5	0.597	
62	   O	753.124	197.918	-707.441	O.2	5	LEU5	-0.568	
63	  CB	751.341	197.977	-704.583	C.3	5	LEU5	-0.110	
64	  CG	750.041	198.372	-703.831	C.3	5	LEU5	0.353	
65	 CD1	750.385	198.954	-702.452	C.3	5	LEU5	-0.412	
66	 CD2	749.182	199.376	-704.617	C.3	5	LEU5	-0.412	
67	   H	749.927	195.922	-705.263	 H	5	LEU5	0.272	
68	  HA	750.774	198.258	-706.678	 H	5	LEU5	0.092	
69	 2HB	752.025	198.849	-704.574	 H	5	LEU5	0.046	
70	 3HB	751.866	197.208	-703.982	 H	5	LEU5	0.046	
71	  HG	749.441	197.452	-703.672	 H	5	LEU5	-0.036	
72	1HD1	750.969	198.242	-701.839	 H	5	LEU5	0.100	
73	2HD1	750.979	199.885	-702.526	 H	5	LEU5	0.100	
74	3HD1	749.474	199.195	-701.873	 H	5	LEU5	0.100	
75	1HD2	749.742	200.292	-704.880	 H	5	LEU5	0.100	
76	2HD2	748.812	198.934	-705.561	 H	5	LEU5	0.100	
77	3HD2	748.282	199.683	-704.051	 H	5	LEU5	0.100	
78	   N	753.175	196.077	-706.276	N.am	6	ILE6	-0.416	
79	  CA	754.489	195.781	-706.842	C.3	6	ILE6	-0.060	
80	   C	754.432	195.744	-708.349	C.2	6	ILE6	0.597	
81	   O	755.267	196.331	-709.053	O.2	6	ILE6	-0.568	
82	  CB	755.088	194.445	-706.241	C.3	6	ILE6	0.130	
83	 CG1	755.106	194.383	-704.680	C.3	6	ILE6	-0.043	
84	 CG2	756.529	194.143	-706.756	C.3	6	ILE6	-0.320	
85	 CD1	755.376	192.994	-704.065	C.3	6	ILE6	-0.066	
86	   H	752.746	195.443	-705.617	 H	6	ILE6	0.272	
87	  HA	755.163	196.615	-706.574	 H	6	ILE6	0.087	
88	  HB	754.430	193.619	-706.585	 H	6	ILE6	0.019	
89	2HG1	754.124	194.703	-704.285	 H	6	ILE6	0.024	
90	3HG1	755.822	195.125	-704.275	 H	6	ILE6	0.024	
91	1HG2	756.588	194.049	-707.854	 H	6	ILE6	0.088	
92	2HG2	757.251	194.925	-706.453	 H	6	ILE6	0.088	
93	3HG2	756.919	193.181	-706.377	 H	6	ILE6	0.088	
94	1HD1	754.647	192.240	-704.420	 H	6	ILE6	0.019	
95	2HD1	756.386	192.615	-704.300	 H	6	ILE6	0.019	
96	3HD1	755.299	193.024	-702.962	 H	6	ILE6	0.019	
97	   N	753.486	195.080	-708.923	N.am	7	LEU7	-0.416	
98	  CA	753.432	195.044	-710.382	C.3	7	LEU7	-0.052	
99	   C	753.360	196.439	-710.954	C.2	7	LEU7	0.597	
100	   O	754.081	196.802	-711.896	O.2	7	LEU7	-0.568	
101	  CB	752.229	194.184	-710.863	C.3	7	LEU7	-0.110	
102	  CG	752.156	192.705	-710.396	C.3	7	LEU7	0.353	
103	 CD1	750.966	191.999	-711.062	C.3	7	LEU7	-0.412	
104	 CD2	753.449	191.925	-710.687	C.3	7	LEU7	-0.412	
105	   H	752.794	194.593	-708.372	 H	7	LEU7	0.272	
106	  HA	754.374	194.604	-710.756	 H	7	LEU7	0.092	
107	 2HB	752.206	194.200	-711.970	 H	7	LEU7	0.046	
108	 3HB	751.289	194.687	-710.559	 H	7	LEU7	0.046	
109	  HG	751.985	192.697	-709.299	 H	7	LEU7	-0.036	
110	1HD1	750.009	192.508	-710.840	 H	7	LEU7	0.100	
111	2HD1	751.066	191.959	-712.163	 H	7	LEU7	0.100	
112	3HD1	750.859	190.958	-710.706	 H	7	LEU7	0.100	
113	1HD2	753.725	191.955	-711.757	 H	7	LEU7	0.100	
114	2HD2	754.302	192.337	-710.116	 H	7	LEU7	0.100	
115	3HD2	753.367	190.863	-710.391	 H	7	LEU7	0.100	
116	   N	752.523	197.280	-710.449	N.am	8	ASP8	-0.516	
117	  CA	752.453	198.630	-711.002	C.3	8	ASP8	0.038	
118	   C	753.800	199.309	-710.944	C.2	8	ASP8	0.537	
119	   O	754.274	199.914	-711.918	O.2	8	ASP8	-0.582	
120	  CB	751.375	199.469	-710.261	C.3	8	ASP8	-0.030	
121	  CG	751.157	200.890	-710.802	C.2	8	ASP8	0.799	
122	 OD1	751.221	201.089	-712.032	O.co2	8	ASP8	-0.801	
123	 OD2	750.964	201.816	-709.986	O.co2	8	ASP8	-0.801	
124	   H	751.925	197.009	-709.681	 H	8	ASP8	0.294	
125	  HA	752.171	198.552	-712.069	 H	8	ASP8	0.088	
126	 2HB	751.632	199.552	-709.189	 H	8	ASP8	-0.012	
127	 3HB	750.396	198.964	-710.294	 H	8	ASP8	-0.012	
128	   N	754.479	199.259	-709.849	N.am	9	GLU9	-0.516	
129	  CA	755.782	199.916	-709.792	C.3	9	GLU9	0.040	
130	   C	756.701	199.388	-710.868	C.2	9	GLU9	0.537	
131	   O	757.365	200.143	-711.593	O.2	9	GLU9	-0.582	
132	  CB	756.415	199.709	-708.387	C.3	9	GLU9	0.056	
133	  CG	757.797	200.400	-708.156	C.3	9	GLU9	0.014	
134	  CD	758.498	200.187	-706.828	C.2	9	GLU9	0.805	
135	 OE1	757.976	199.496	-705.932	O.co2	9	GLU9	-0.819	
136	 OE2	759.617	200.725	-706.695	O.co2	9	GLU9	-0.819	
137	   H	754.115	198.773	-709.042	 H	9	GLU9	0.294	
138	  HA	755.640	200.998	-709.968	 H	9	GLU9	0.111	
139	 2HB	756.527	198.624	-708.183	 H	9	GLU9	-0.017	
140	 3HB	755.717	200.062	-707.603	 H	9	GLU9	-0.017	
141	 2HG	757.726	201.491	-708.296	 H	9	GLU9	-0.043	
142	 3HG	758.544	200.055	-708.890	 H	9	GLU9	-0.043	
143	   N	756.797	198.113	-711.037	N.am	10	HIS10	-0.416	
144	  CA	757.685	197.602	-712.077	C.3	10	HIS10	-0.058	
145	   C	757.319	198.166	-713.428	C.2	10	HIS10	0.597	
146	   O	758.172	198.631	-714.200	O.2	10	HIS10	-0.568	
147	  CB	757.521	196.073	-712.072	C.3	10	HIS10	-0.007	
148	  CG	758.806	195.362	-711.763	C.2	10	HIS10	0.187	
149	 CD2	759.186	195.027	-710.470	C.2	10	HIS10	-0.221	
150	 ND1	759.759	194.956	-712.695	N.2	10	HIS10	-0.543	
151	 CE1	760.665	194.398	-711.871	C.2	10	HIS10	0.163	
152	 NE2	760.401	194.395	-710.536	N.pl3	10	HIS10	-0.280	
153	   H	756.266	197.478	-710.459	 H	10	HIS10	0.272	
154	  HA	758.704	197.959	-711.851	 H	10	HIS10	0.136	
155	 2HB	757.156	195.706	-713.052	 H	10	HIS10	0.037	
156	 3HB	756.765	195.736	-711.333	 H	10	HIS10	0.037	
157	 2HD	758.600	195.242	-709.582	 H	10	HIS10	0.186	
158	 1HE	761.556	193.977	-712.318	 H	10	HIS10	0.144	
159	 2HE	760.967	194.018	-709.763	 H	10	HIS10	0.334	
160	   N	756.082	198.165	-713.792	N.am	11	VAL11	-0.416	
161	  CA	755.727	198.712	-715.099	C.3	11	VAL11	-0.087	
162	   C	756.192	200.142	-715.231	C.2	11	VAL11	0.597	
163	   O	756.794	200.547	-716.234	O.2	11	VAL11	-0.568	
164	  CB	754.166	198.605	-715.319	C.3	11	VAL11	0.299	
165	 CG1	753.598	199.309	-716.582	C.3	11	VAL11	-0.319	
166	 CG2	753.642	197.151	-715.393	C.3	11	VAL11	-0.319	
167	   H	755.368	197.793	-713.182	 H	11	VAL11	0.272	
168	  HA	756.247	198.129	-715.881	 H	11	VAL11	0.097	
169	  HB	753.678	199.085	-714.444	 H	11	VAL11	-0.030	
170	1HG1	754.038	198.917	-717.519	 H	11	VAL11	0.079	
171	2HG1	752.500	199.202	-716.665	 H	11	VAL11	0.079	
172	3HG1	753.777	200.402	-716.573	 H	11	VAL11	0.079	
173	1HG2	753.931	196.564	-714.502	 H	11	VAL11	0.079	
174	2HG2	752.536	197.114	-715.436	 H	11	VAL11	0.079	
175	3HG2	754.024	196.610	-716.279	 H	11	VAL11	0.079	
176	   N	755.955	200.968	-714.269	N.am	12	GLN12	-0.416	
177	  CA	756.403	202.351	-714.396	C.3	12	GLN12	-0.003	
178	   C	757.893	202.418	-714.633	C.2	12	GLN12	0.597	
179	   O	758.381	203.126	-715.511	O.2	12	GLN12	-0.568	
180	  CB	756.012	203.118	-713.113	C.3	12	GLN12	-0.004	
181	  CG	756.372	204.640	-713.082	C.3	12	GLN12	-0.064	
182	  CD	756.069	205.453	-711.817	C.2	12	GLN12	0.695	
183	 NE2	755.501	204.877	-710.789	N.pl3	12	GLN12	-0.941	
184	 OE1	756.371	206.634	-711.739	O.2	12	GLN12	-0.609	
185	   H	755.465	200.662	-713.440	 H	12	GLN12	0.272	
186	  HA	755.905	202.807	-715.271	 H	12	GLN12	0.085	
187	 2HB	756.487	202.618	-712.244	 H	12	GLN12	0.017	
188	 3HB	754.921	203.011	-712.951	 H	12	GLN12	0.017	
189	 2HG	755.895	205.161	-713.933	 H	12	GLN12	0.035	
190	 3HG	757.456	204.782	-713.247	 H	12	GLN12	0.035	
191	1HE2	755.394	205.471	-709.965	 H	12	GLN12	0.425	
192	2HE2	755.338	203.873	-710.892	 H	12	GLN12	0.425	
193	   N	758.678	201.711	-713.892	N.am	13	ARG13	-0.348	
194	  CA	760.118	201.777	-714.121	C.3	13	ARG13	-0.264	
195	   C	760.455	201.406	-715.546	C.2	13	ARG13	0.734	
196	   O	761.224	202.077	-716.230	O.2	13	ARG13	-0.589	
197	  CB	760.831	200.838	-713.107	C.3	13	ARG13	-0.001	
198	  CG	762.375	200.990	-713.025	C.3	13	ARG13	0.039	
199	  CD	763.002	200.003	-712.027	C.3	13	ARG13	0.049	
200	  NE	764.479	200.210	-711.976	N.pl3	13	ARG13	-0.530	
201	  CZ	765.326	199.518	-711.220	C.cat	13	ARG13	0.808	
202	 NH1	764.961	198.553	-710.423	N.pl3	13	ARG13	-0.863	
203	 NH2	766.586	199.816	-711.276	N.pl3	13	ARG13	-0.863	
204	   H	758.301	201.121	-713.163	 H	13	ARG13	0.275	
205	  HA	760.442	202.823	-713.963	 H	13	ARG13	0.156	
206	 2HB	760.564	199.787	-713.347	 H	13	ARG13	0.033	
207	 3HB	760.405	201.004	-712.097	 H	13	ARG13	0.033	
208	 2HG	762.623	202.035	-712.746	 H	13	ARG13	0.029	
209	 3HG	762.827	200.835	-714.026	 H	13	ARG13	0.029	
210	 2HD	762.758	198.963	-712.337	 H	13	ARG13	0.069	
211	 3HD	762.545	200.148	-711.025	 H	13	ARG13	0.069	
212	  HE	764.931	200.932	-712.546	 H	13	ARG13	0.346	
213	1HH1	763.955	198.367	-710.427	 H	13	ARG13	0.448	
214	2HH1	765.673	198.070	-709.874	 H	13	ARG13	0.448	
215	1HH2	766.854	200.574	-711.907	 H	13	ARG13	0.448	
216	2HH2	767.221	199.275	-710.687	 H	13	ARG13	0.448	
217	   N	759.919	200.351	-716.061	N.am	14	VAL14	-0.416	
218	  CA	760.245	199.992	-717.439	C.3	14	VAL14	-0.087	
219	   C	759.915	201.122	-718.384	C.2	14	VAL14	0.597	
220	   O	760.709	201.504	-719.253	O.2	14	VAL14	-0.568	
221	  CB	759.473	198.675	-717.846	C.3	14	VAL14	0.299	
222	 CG1	759.563	198.257	-719.340	C.3	14	VAL14	-0.319	
223	 CG2	759.904	197.423	-717.046	C.3	14	VAL14	-0.319	
224	   H	759.284	199.783	-715.520	 H	14	VAL14	0.272	
225	  HA	761.333	199.815	-717.513	 H	14	VAL14	0.097	
226	  HB	758.396	198.846	-717.631	 H	14	VAL14	-0.030	
227	1HG1	760.604	198.080	-719.668	 H	14	VAL14	0.079	
228	2HG1	758.990	197.334	-719.553	 H	14	VAL14	0.079	
229	3HG1	759.134	199.020	-720.018	 H	14	VAL14	0.079	
230	1HG2	759.816	197.581	-715.955	 H	14	VAL14	0.079	
231	2HG2	759.268	196.546	-717.279	 H	14	VAL14	0.079	
232	3HG2	760.952	197.133	-717.251	 H	14	VAL14	0.079	
233	   N	758.771	201.708	-718.283	N.am	15	MET15	-0.416	
234	  CA	758.451	202.801	-719.197	C.3	15	MET15	-0.024	
235	   C	759.481	203.901	-719.108	C.2	15	MET15	0.597	
236	   O	759.985	204.412	-720.120	O.2	15	MET15	-0.568	
237	  CB	757.029	203.347	-718.889	C.3	15	MET15	0.034	
238	  CG	755.867	202.349	-719.081	C.3	15	MET15	0.002	
239	  SD	754.294	203.215	-718.968	S.3	15	MET15	-0.274	
240	  CE	753.212	201.786	-718.832	C.3	15	MET15	-0.054	
241	   H	758.105	201.415	-717.582	 H	15	MET15	0.272	
242	  HA	758.477	202.414	-720.232	 H	15	MET15	0.088	
243	 2HB	756.828	204.226	-719.531	 H	15	MET15	0.024	
244	 3HB	756.993	203.739	-717.852	 H	15	MET15	0.024	
245	 2HG	755.910	201.563	-718.304	 H	15	MET15	0.044	
246	 3HG	755.931	201.834	-720.058	 H	15	MET15	0.044	
247	 1HE	753.356	201.098	-719.685	 H	15	MET15	0.068	
248	 2HE	753.421	201.233	-717.899	 H	15	MET15	0.068	
249	 3HE	752.154	202.101	-718.816	 H	15	MET15	0.068	
250	   N	759.849	204.322	-717.945	N.am	16	ARG16	-0.348	
251	  CA	760.846	205.386	-717.861	C.3	16	ARG16	-0.264	
252	   C	762.117	204.993	-718.576	C.2	16	ARG16	0.734	
253	   O	762.231	203.916	-719.158	O.2	16	ARG16	-0.589	
254	  CB	761.114	205.703	-716.362	C.3	16	ARG16	-0.001	
255	  CG	761.939	206.992	-716.089	C.3	16	ARG16	0.039	
256	  CD	762.188	207.211	-714.587	C.3	16	ARG16	0.049	
257	  NE	762.964	208.470	-714.386	N.pl3	16	ARG16	-0.530	
258	  CZ	763.355	208.952	-713.210	C.cat	16	ARG16	0.808	
259	 NH1	763.106	208.367	-712.071	N.pl3	16	ARG16	-0.863	
260	 NH2	764.019	210.064	-713.191	N.pl3	16	ARG16	-0.863	
261	   H	759.454	203.922	-717.107	 H	16	ARG16	0.275	
262	  HA	760.437	206.279	-718.371	 H	16	ARG16	0.156	
263	 2HB	761.610	204.827	-715.896	 H	16	ARG16	0.033	
264	 3HB	760.145	205.784	-715.829	 H	16	ARG16	0.033	
265	 2HG	761.409	207.863	-716.526	 H	16	ARG16	0.029	
266	 3HG	762.913	206.939	-716.617	 H	16	ARG16	0.029	
267	 2HD	762.736	206.336	-714.174	 H	16	ARG16	0.069	
268	 3HD	761.215	207.254	-714.053	 H	16	ARG16	0.069	
269	  HE	763.244	209.051	-715.183	 H	16	ARG16	0.346	
270	1HH1	762.581	207.495	-712.156	 H	16	ARG16	0.448	
271	2HH1	763.440	208.803	-711.210	 H	16	ARG16	0.448	
272	1HH2	764.205	210.508	-714.092	 H	16	ARG16	0.448	
273	2HH2	764.309	210.419	-712.278	 H	16	ARG16	0.448	
@<TRIPOS>BOND
1 1 2 1
2 1 10 1
3 2 3 1
4 2 5 1
5 2 11 1
6 3 4 2
7 3 16 1
8 5 6 1
9 6 7 1
10 7 8 2
11 7 9 1
12 5 12 1
13 5 13 1
14 6 14 1
15 6 15 1
16 16 17 1
17 16 24 1
18 17 18 1
19 17 20 1
20 17 25 1
21 18 19 2
22 18 30 1
23 20 21 1
24 21 22 1
25 21 23 2
26 20 26 1
27 20 27 1
28 22 28 1
29 22 29 1
30 30 31 1
31 30 36 1
32 31 32 1
33 31 34 1
34 31 37 1
35 32 33 2
36 32 44 1
37 34 35 1
38 35 36 1
39 34 38 1
40 34 39 1
41 35 40 1
42 35 41 1
43 36 42 1
44 36 43 1
45 44 45 1
46 44 53 1
47 45 46 1
48 45 48 1
49 45 54 1
50 46 47 2
51 46 59 1
52 48 49 1
53 49 50 1
54 50 51 2
55 50 52 1
56 48 55 1
57 48 56 1
58 49 57 1
59 49 58 1
60 59 60 1
61 59 67 1
62 60 61 1
63 60 63 1
64 60 68 1
65 61 62 2
66 61 78 1
67 63 64 1
68 64 65 1
69 64 66 1
70 63 69 1
71 63 70 1
72 64 71 1
73 65 72 1
74 65 73 1
75 65 74 1
76 66 75 1
77 66 76 1
78 66 77 1
79 78 79 1
80 78 86 1
81 79 80 1
82 79 82 1
83 79 87 1
84 80 81 2
85 80 97 1
86 82 83 1
87 82 84 1
88 83 85 1
89 82 88 1
90 83 89 1
91 83 90 1
92 84 91 1
93 84 92 1
94 84 93 1
95 85 94 1
96 85 95 1
97 85 96 1
98 97 98 1
99 97 105 1
100 98 99 1
101 98 101 1
102 98 106 1
103 99 100 2
104 99 116 1
105 101 102 1
106 102 103 1
107 102 104 1
108 101 107 1
109 101 108 1
110 102 109 1
111 103 110 1
112 103 111 1
113 103 112 1
114 104 113 1
115 104 114 1
116 104 115 1
117 116 117 1
118 116 124 1
119 117 118 1
120 117 120 1
121 117 125 1
122 118 119 2
123 118 128 1
124 120 121 1
125 121 122 2
126 121 123 1
127 120 126 1
128 120 127 1
129 128 129 1
130 128 137 1
131 129 130 1
132 129 132 1
133 129 138 1
134 130 131 2
135 130 143 1
136 132 133 1
137 133 134 1
138 134 135 2
139 134 136 1
140 132 139 1
141 132 140 1
142 133 141 1
143 133 142 1
144 143 144 1
145 143 153 1
146 144 145 1
147 144 147 1
148 144 154 1
149 145 146 2
150 145 160 1
151 147 148 1
152 148 149 2
153 149 152 1
154 148 150 1
155 150 151 2
156 151 152 1
157 147 155 1
158 147 156 1
159 149 157 1
160 151 158 1
161 152 159 1
162 160 161 1
163 160 167 1
164 161 162 1
165 161 164 1
166 161 168 1
167 162 163 2
168 162 176 1
169 164 165 1
170 164 166 1
171 164 169 1
172 165 170 1
173 165 171 1
174 165 172 1
175 166 173 1
176 166 174 1
177 166 175 1
178 176 177 1
179 176 185 1
180 177 178 1
181 177 180 1
182 177 186 1
183 178 179 2
184 178 193 1
185 180 181 1
186 181 182 1
187 182 183 1
188 182 184 2
189 180 187 1
190 180 188 1
191 181 189 1
192 181 190 1
193 183 191 1
194 183 192 1
195 193 194 1
196 193 204 1
197 194 195 1
198 194 197 1
199 194 205 1
200 195 196 2
201 195 217 1
202 197 198 1
203 198 199 1
204 199 200 1
205 200 201 1
206 201 202 2
207 201 203 1
208 197 206 1
209 197 207 1
210 198 208 1
211 198 209 1
212 199 210 1
213 199 211 1
214 200 212 1
215 202 213 1
216 202 214 1
217 203 215 1
218 203 216 1
219 217 218 1
220 217 224 1
221 218 219 1
222 218 221 1
223 218 225 1
224 219 220 2
225 219 233 1
226 221 222 1
227 221 223 1
228 221 226 1
229 222 227 1
230 222 228 1
231 222 229 1
232 223 230 1
233 223 231 1
234 223 232 1
235 233 234 1
236 233 241 1
237 234 235 1
238 234 237 1
239 234 242 1
240 235 236 2
241 235 250 1
242 237 238 1
243 238 239 1
244 239 240 1
245 237 243 1
246 237 244 1
247 238 245 1
248 238 246 1
249 240 247 1
250 240 248 1
251 240 249 1
252 250 251 1
253 250 261 1
254 251 252 1
255 251 254 1
256 251 262 1
257 252 253 2
258 254 255 1
259 255 256 1
260 256 257 1
261 257 258 1
262 258 259 2
263 258 260 1
264 254 263 1
265 254 264 1
266 255 265 1
267 255 266 1
268 256 267 1
269 256 268 1
270 257 269 1
271 259 270 1
272 259 271 1
273 260 272 1
274 260 273 1
@<TRIPOS>SUBSTRUCTURE
1	GLU1	1	RESIDUE	1 ****	GLU
2	ASN2	16	RESIDUE	1 ****	ASN
3	PRO3	30	RESIDUE	1 ****	PRO
4	GLU4	44	RESIDUE	1 ****	GLU
5	LEU5	59	RESIDUE	1 ****	LEU
6	ILE6	78	RESIDUE	1 ****	ILE
7	LEU7	97	RESIDUE	1 ****	LEU
8	ASP8	116	RESIDUE	1 ****	ASP
9	GLU9	128	RESIDUE	1 ****	GLU
10	HIS10	143	RESIDUE	1 ****	HIS
11	VAL11	160	RESIDUE	1 ****	VAL
12	GLN12	176	RESIDUE	1 ****	GLN
13	ARG13	193	RESIDUE	1 ****	ARG
14	VAL14	217	RESIDUE	1 ****	VAL
15	MET15	233	RESIDUE	1 ****	MET
16	ARG16	250	RESIDUE	1 ****	ARG
