@<TRIPOS>MOLECULE
13-13
252 253 16              
SMALL
USER_CHARGES
@<TRIPOS>ATOM
1	   N	2104.604	639.754	-2177.841	N.3	1	GLU1	-0.516	
2	  CA	2105.163	641.103	-2177.841	C.3	1	GLU1	0.040	
3	   C	2106.672	641.063	-2177.841	C.2	1	GLU1	0.537	
4	   O	2107.348	641.762	-2178.610	O.2	1	GLU1	-0.582	
5	  CB	2104.640	641.888	-2176.604	C.3	1	GLU1	0.056	
6	  CG	2105.115	643.373	-2176.493	C.3	1	GLU1	0.014	
7	  CD	2104.691	644.177	-2175.278	C.2	1	GLU1	0.805	
8	 OE1	2103.963	643.675	-2174.400	O.co2	1	GLU1	-0.819	
9	 OE2	2105.121	645.347	-2175.206	O.co2	1	GLU1	-0.819	
10	   H	2105.231	638.875	-2177.841	 H	1	GLU1	0.294	
11	  HA	2104.837	641.621	-2178.761	 H	1	GLU1	0.111	
12	 2HB	2104.929	641.357	-2175.674	 H	1	GLU1	-0.017	
13	 3HB	2103.533	641.878	-2176.591	 H	1	GLU1	-0.017	
14	 2HG	2104.805	643.958	-2177.374	 H	1	GLU1	-0.043	
15	 3HG	2106.215	643.440	-2176.464	 H	1	GLU1	-0.043	
16	   N	2107.276	640.278	-2177.016	N.am	2	ASN2	-0.416	
17	  CA	2108.736	640.239	-2177.016	C.3	2	ASN2	0.014	
18	   C	2109.267	639.883	-2178.384	C.2	2	ASN2	0.597	
19	   O	2110.182	640.513	-2178.912	O.2	2	ASN2	-0.568	
20	  CB	2109.227	639.216	-2175.951	C.3	2	ASN2	-0.204	
21	  CG	2108.764	639.439	-2174.508	C.2	2	ASN2	0.713	
22	 ND2	2109.358	640.354	-2173.790	N.pl3	2	ASN2	-0.919	
23	 OD1	2107.843	638.806	-2174.014	O.2	2	ASN2	-0.593	
24	   H	2106.748	639.698	-2176.379	 H	2	ASN2	0.272	
25	  HA	2109.113	641.248	-2176.770	 H	2	ASN2	0.105	
26	 2HB	2110.332	639.156	-2175.954	 H	2	ASN2	0.080	
27	 3HB	2108.898	638.197	-2176.237	 H	2	ASN2	0.080	
28	1HD2	2108.877	640.528	-2172.903	 H	2	ASN2	0.420	
29	2HD2	2110.060	640.926	-2174.259	 H	2	ASN2	0.420	
30	   N	2108.746	638.888	-2179.019	N.am	3	PRO3	-0.255	
31	  CA	2109.198	638.479	-2180.340	C.3	3	PRO3	-0.027	
32	   C	2108.800	639.502	-2181.417	C.2	3	PRO3	0.590	
33	   O	2109.624	639.885	-2182.248	O.2	3	PRO3	-0.575	
34	  CB	2108.493	637.124	-2180.510	C.3	3	PRO3	-0.007	
35	  CG	2107.210	637.277	-2179.680	C.3	3	PRO3	0.019	
36	  CD	2107.667	638.095	-2178.470	C.3	3	PRO3	0.019	
37	  HA	2110.284	638.359	-2180.353	 H	3	PRO3	0.064	
38	 2HB	2109.116	636.343	-2180.069	 H	3	PRO3	0.025	
39	 3HB	2108.295	636.876	-2181.555	 H	3	PRO3	0.025	
40	 2HG	2106.782	636.315	-2179.389	 H	3	PRO3	0.021	
41	 3HG	2106.473	637.848	-2180.247	 H	3	PRO3	0.021	
42	 2HD	2108.056	637.445	-2177.682	 H	3	PRO3	0.039	
43	 3HD	2106.871	638.731	-2178.077	 H	3	PRO3	0.039	
44	   N	2107.595	639.963	-2181.450	N.am	4	GLU4	-0.516	
45	  CA	2107.236	640.934	-2182.479	C.3	4	GLU4	0.040	
46	   C	2108.135	642.144	-2182.418	C.2	4	GLU4	0.537	
47	   O	2108.662	642.624	-2183.432	O.2	4	GLU4	-0.582	
48	  CB	2105.748	641.353	-2182.310	C.3	4	GLU4	0.056	
49	  CG	2105.200	642.356	-2183.375	C.3	4	GLU4	0.014	
50	  CD	2103.774	642.853	-2183.232	C.2	4	GLU4	0.805	
51	 OE1	2103.047	642.455	-2182.302	O.co2	4	GLU4	-0.819	
52	 OE2	2103.385	643.683	-2184.081	O.co2	4	GLU4	-0.819	
53	   H	2106.911	639.656	-2180.773	 H	4	GLU4	0.294	
54	  HA	2107.368	640.463	-2183.471	 H	4	GLU4	0.111	
55	 2HB	2105.595	641.792	-2181.303	 H	4	GLU4	-0.017	
56	 3HB	2105.100	640.455	-2182.316	 H	4	GLU4	-0.017	
57	 2HG	2105.282	641.942	-2184.394	 H	4	GLU4	-0.043	
58	 3HG	2105.789	643.289	-2183.386	 H	4	GLU4	-0.043	
59	   N	2108.362	642.697	-2181.275	N.am	5	SER5	-0.416	
60	  CA	2109.232	643.868	-2181.216	C.3	5	SER5	-0.025	
61	   C	2110.591	643.562	-2181.801	C.2	5	SER5	0.597	
62	   O	2111.139	644.315	-2182.606	O.2	5	SER5	-0.568	
63	  CB	2109.344	644.400	-2179.765	C.3	5	SER5	0.212	
64	  OG	2110.074	643.521	-2178.904	O.3	5	SER5	-0.655	
65	   H	2107.945	642.325	-2180.433	 H	5	SER5	0.272	
66	  HA	2108.783	644.659	-2181.845	 H	5	SER5	0.084	
67	 2HB	2108.344	644.594	-2179.332	 H	5	SER5	0.035	
68	 3HB	2109.849	645.386	-2179.767	 H	5	SER5	0.035	
69	  HG	2109.585	642.696	-2178.854	 H	5	SER5	0.428	
70	   N	2111.195	642.479	-2181.447	N.am	6	ILE6	-0.416	
71	  CA	2112.509	642.183	-2182.013	C.3	6	ILE6	-0.060	
72	   C	2112.451	642.146	-2183.521	C.2	6	ILE6	0.597	
73	   O	2113.286	642.733	-2184.224	O.2	6	ILE6	-0.568	
74	  CB	2113.108	640.847	-2181.412	C.3	6	ILE6	0.130	
75	 CG1	2113.126	640.785	-2179.852	C.3	6	ILE6	-0.043	
76	 CG2	2114.549	640.545	-2181.927	C.3	6	ILE6	-0.320	
77	 CD1	2113.396	639.395	-2179.236	C.3	6	ILE6	-0.066	
78	   H	2110.766	641.844	-2180.788	 H	6	ILE6	0.272	
79	  HA	2113.183	643.017	-2181.745	 H	6	ILE6	0.087	
80	  HB	2112.449	640.021	-2181.757	 H	6	ILE6	0.019	
81	2HG1	2112.145	641.105	-2179.456	 H	6	ILE6	0.024	
82	3HG1	2113.843	641.526	-2179.447	 H	6	ILE6	0.024	
83	1HG2	2114.608	640.451	-2183.026	 H	6	ILE6	0.088	
84	2HG2	2115.271	641.327	-2181.625	 H	6	ILE6	0.088	
85	3HG2	2114.938	639.582	-2181.549	 H	6	ILE6	0.088	
86	1HD1	2112.667	638.641	-2179.591	 H	6	ILE6	0.019	
87	2HD1	2114.406	639.016	-2179.472	 H	6	ILE6	0.019	
88	3HD1	2113.319	639.425	-2178.134	 H	6	ILE6	0.019	
89	   N	2111.505	641.482	-2184.094	N.am	7	LEU7	-0.416	
90	  CA	2111.450	641.446	-2185.552	C.3	7	LEU7	-0.052	
91	   C	2111.378	642.842	-2186.125	C.2	7	LEU7	0.597	
92	   O	2112.099	643.203	-2187.068	O.2	7	LEU7	-0.568	
93	  CB	2110.247	640.586	-2186.033	C.3	7	LEU7	-0.110	
94	  CG	2110.174	639.107	-2185.566	C.3	7	LEU7	0.353	
95	 CD1	2108.984	638.402	-2186.232	C.3	7	LEU7	-0.412	
96	 CD2	2111.467	638.327	-2185.858	C.3	7	LEU7	-0.412	
97	   H	2110.813	640.996	-2183.543	 H	7	LEU7	0.272	
98	  HA	2112.392	641.006	-2185.927	 H	7	LEU7	0.092	
99	 2HB	2110.224	640.602	-2187.141	 H	7	LEU7	0.046	
100	 3HB	2109.307	641.089	-2185.729	 H	7	LEU7	0.046	
101	  HG	2110.004	639.099	-2184.469	 H	7	LEU7	-0.036	
102	1HD1	2108.027	638.911	-2186.009	 H	7	LEU7	0.100	
103	2HD1	2109.083	638.361	-2187.333	 H	7	LEU7	0.100	
104	3HD1	2108.876	637.360	-2185.876	 H	7	LEU7	0.100	
105	1HD2	2111.742	638.358	-2186.928	 H	7	LEU7	0.100	
106	2HD2	2112.321	638.739	-2185.286	 H	7	LEU7	0.100	
107	3HD2	2111.385	637.265	-2185.562	 H	7	LEU7	0.100	
108	   N	2110.542	643.683	-2185.620	N.am	8	ASP8	-0.516	
109	  CA	2110.472	645.032	-2186.174	C.3	8	ASP8	0.038	
110	   C	2111.819	645.711	-2186.117	C.2	8	ASP8	0.537	
111	   O	2112.292	646.315	-2187.092	O.2	8	ASP8	-0.582	
112	  CB	2109.394	645.872	-2185.433	C.3	8	ASP8	-0.030	
113	  CG	2109.176	647.293	-2185.974	C.2	8	ASP8	0.799	
114	 OD1	2109.240	647.491	-2187.205	O.co2	8	ASP8	-0.801	
115	 OD2	2108.985	648.219	-2185.159	O.co2	8	ASP8	-0.801	
116	   H	2109.944	643.412	-2184.852	 H	8	ASP8	0.294	
117	  HA	2110.189	644.954	-2187.241	 H	8	ASP8	0.088	
118	 2HB	2109.651	645.956	-2184.361	 H	8	ASP8	-0.012	
119	 3HB	2108.415	645.367	-2185.465	 H	8	ASP8	-0.012	
120	   N	2112.499	645.662	-2185.022	N.am	9	GLU9	-0.516	
121	  CA	2113.802	646.319	-2184.967	C.3	9	GLU9	0.040	
122	   C	2114.719	645.790	-2186.043	C.2	9	GLU9	0.537	
123	   O	2115.383	646.544	-2186.769	O.2	9	GLU9	-0.582	
124	  CB	2114.436	646.111	-2183.562	C.3	9	GLU9	0.056	
125	  CG	2115.819	646.803	-2183.333	C.3	9	GLU9	0.014	
126	  CD	2116.521	646.590	-2182.005	C.2	9	GLU9	0.805	
127	 OE1	2115.999	645.900	-2181.108	O.co2	9	GLU9	-0.819	
128	 OE2	2117.640	647.127	-2181.874	O.co2	9	GLU9	-0.819	
129	   H	2112.135	645.176	-2184.214	 H	9	GLU9	0.294	
130	  HA	2113.660	647.400	-2185.143	 H	9	GLU9	0.111	
131	 2HB	2114.548	645.027	-2183.358	 H	9	GLU9	-0.017	
132	 3HB	2113.739	646.465	-2182.777	 H	9	GLU9	-0.017	
133	 2HG	2115.747	647.894	-2183.473	 H	9	GLU9	-0.043	
134	 3HG	2116.565	646.457	-2184.067	 H	9	GLU9	-0.043	
135	   N	2114.815	644.515	-2186.212	N.am	10	HIS10	-0.416	
136	  CA	2115.703	644.002	-2187.252	C.3	10	HIS10	-0.058	
137	   C	2115.336	644.566	-2188.604	C.2	10	HIS10	0.597	
138	   O	2116.188	645.030	-2189.376	O.2	10	HIS10	-0.568	
139	  CB	2115.538	642.473	-2187.247	C.3	10	HIS10	-0.007	
140	  CG	2116.823	641.763	-2186.938	C.2	10	HIS10	0.187	
141	 CD2	2117.205	641.428	-2185.646	C.2	10	HIS10	-0.221	
142	 ND1	2117.775	641.356	-2187.871	N.2	10	HIS10	-0.543	
143	 CE1	2118.681	640.798	-2187.048	C.2	10	HIS10	0.163	
144	 NE2	2118.419	640.796	-2185.713	N.pl3	10	HIS10	-0.280	
145	   H	2114.285	643.880	-2185.633	 H	10	HIS10	0.272	
146	  HA	2116.722	644.359	-2187.028	 H	10	HIS10	0.136	
147	 2HB	2115.172	642.106	-2188.226	 H	10	HIS10	0.037	
148	 3HB	2114.782	642.137	-2186.506	 H	10	HIS10	0.037	
149	 2HD	2116.620	641.644	-2184.757	 H	10	HIS10	0.186	
150	 1HE	2119.572	640.376	-2187.495	 H	10	HIS10	0.144	
151	 2HE	2118.986	640.419	-2184.939	 H	10	HIS10	0.334	
152	   N	2114.098	644.566	-2188.966	N.am	11	VAL11	-0.416	
153	  CA	2113.743	645.112	-2190.273	C.3	11	VAL11	-0.087	
154	   C	2114.208	646.542	-2190.407	C.2	11	VAL11	0.597	
155	   O	2114.809	646.946	-2191.410	O.2	11	VAL11	-0.568	
156	  CB	2112.181	645.005	-2190.492	C.3	11	VAL11	0.299	
157	 CG1	2111.613	645.709	-2191.755	C.3	11	VAL11	-0.319	
158	 CG2	2111.656	643.552	-2190.564	C.3	11	VAL11	-0.319	
159	   H	2113.385	644.194	-2188.355	 H	11	VAL11	0.272	
160	  HA	2114.262	644.528	-2191.056	 H	11	VAL11	0.097	
161	  HB	2111.694	645.487	-2189.617	 H	11	VAL11	-0.030	
162	1HG1	2112.051	645.316	-2192.692	 H	11	VAL11	0.079	
163	2HG1	2110.514	645.602	-2191.837	 H	11	VAL11	0.079	
164	3HG1	2111.792	646.801	-2191.747	 H	11	VAL11	0.079	
165	1HG2	2111.946	642.965	-2189.674	 H	11	VAL11	0.079	
166	2HG2	2110.550	643.515	-2190.607	 H	11	VAL11	0.079	
167	3HG2	2112.038	643.010	-2191.451	 H	11	VAL11	0.079	
168	   N	2113.972	647.368	-2189.445	N.am	12	GLN12	-0.416	
169	  CA	2114.421	648.751	-2189.573	C.3	12	GLN12	-0.003	
170	   C	2115.911	648.817	-2189.811	C.2	12	GLN12	0.597	
171	   O	2116.398	649.525	-2190.690	O.2	12	GLN12	-0.568	
172	  CB	2114.031	649.519	-2188.290	C.3	12	GLN12	-0.004	
173	  CG	2114.392	651.041	-2188.260	C.3	12	GLN12	-0.064	
174	  CD	2114.090	651.855	-2186.996	C.2	12	GLN12	0.695	
175	 NE2	2113.523	651.279	-2185.966	N.pl3	12	GLN12	-0.941	
176	 OE1	2114.393	653.036	-2186.919	O.2	12	GLN12	-0.609	
177	   H	2113.483	647.063	-2188.615	 H	12	GLN12	0.272	
178	  HA	2113.921	649.207	-2190.448	 H	12	GLN12	0.085	
179	 2HB	2114.507	649.019	-2187.421	 H	12	GLN12	0.017	
180	 3HB	2112.940	649.412	-2188.127	 H	12	GLN12	0.017	
181	 2HG	2113.915	651.561	-2189.111	 H	12	GLN12	0.035	
182	 3HG	2115.475	651.182	-2188.426	 H	12	GLN12	0.035	
183	1HE2	2113.417	651.874	-2185.143	 H	12	GLN12	0.425	
184	2HE2	2113.359	650.276	-2186.069	 H	12	GLN12	0.425	
185	   N	2116.695	648.110	-2189.070	N.am	13	SER13	-0.416	
186	  CA	2118.135	648.176	-2189.302	C.3	13	SER13	-0.025	
187	   C	2118.471	647.803	-2190.727	C.2	13	SER13	0.597	
188	   O	2119.240	648.475	-2191.412	O.2	13	SER13	-0.568	
189	  CB	2118.898	647.289	-2188.286	C.3	13	SER13	0.212	
190	  OG	2118.688	645.889	-2188.501	O.3	13	SER13	-0.655	
191	   H	2116.319	647.521	-2188.341	 H	13	SER13	0.272	
192	  HA	2118.456	649.224	-2189.161	 H	13	SER13	0.084	
193	 2HB	2118.625	647.547	-2187.245	 H	13	SER13	0.035	
194	 3HB	2119.984	647.493	-2188.355	 H	13	SER13	0.035	
195	  HG	2117.754	645.714	-2188.366	 H	13	SER13	0.428	
196	   N	2117.934	646.748	-2191.240	N.am	14	VAL14	-0.416	
197	  CA	2118.259	646.388	-2192.617	C.3	14	VAL14	-0.087	
198	   C	2117.928	647.517	-2193.564	C.2	14	VAL14	0.597	
199	   O	2118.721	647.898	-2194.434	O.2	14	VAL14	-0.568	
200	  CB	2117.486	645.070	-2193.023	C.3	14	VAL14	0.299	
201	 CG1	2117.574	644.651	-2194.516	C.3	14	VAL14	-0.319	
202	 CG2	2117.918	643.819	-2192.222	C.3	14	VAL14	-0.319	
203	   H	2117.300	646.180	-2190.697	 H	14	VAL14	0.272	
204	  HA	2119.347	646.211	-2192.692	 H	14	VAL14	0.097	
205	  HB	2116.410	645.242	-2192.807	 H	14	VAL14	-0.030	
206	1HG1	2118.616	644.474	-2194.845	 H	14	VAL14	0.079	
207	2HG1	2117.001	643.728	-2194.728	 H	14	VAL14	0.079	
208	3HG1	2117.145	645.412	-2195.195	 H	14	VAL14	0.079	
209	1HG2	2117.832	643.978	-2191.131	 H	14	VAL14	0.079	
210	2HG2	2117.282	642.942	-2192.453	 H	14	VAL14	0.079	
211	3HG2	2118.966	643.529	-2192.427	 H	14	VAL14	0.079	
212	   N	2116.783	648.103	-2193.462	N.am	15	MET15	-0.416	
213	  CA	2116.463	649.195	-2194.377	C.3	15	MET15	-0.024	
214	   C	2117.493	650.295	-2194.290	C.2	15	MET15	0.597	
215	   O	2117.996	650.805	-2195.303	O.2	15	MET15	-0.568	
216	  CB	2115.042	649.741	-2194.068	C.3	15	MET15	0.034	
217	  CG	2113.880	648.743	-2194.258	C.3	15	MET15	0.002	
218	  SD	2112.306	649.609	-2194.144	S.3	15	MET15	-0.274	
219	  CE	2111.224	648.179	-2194.006	C.3	15	MET15	-0.054	
220	   H	2116.119	647.810	-2192.760	 H	15	MET15	0.272	
221	  HA	2116.488	648.807	-2195.412	 H	15	MET15	0.088	
222	 2HB	2114.839	650.619	-2194.710	 H	15	MET15	0.024	
223	 3HB	2115.007	650.134	-2193.031	 H	15	MET15	0.024	
224	 2HG	2113.923	647.958	-2193.480	 H	15	MET15	0.044	
225	 3HG	2113.942	648.227	-2195.234	 H	15	MET15	0.044	
226	 1HE	2111.368	647.491	-2194.858	 H	15	MET15	0.068	
227	 2HE	2111.434	647.627	-2193.073	 H	15	MET15	0.068	
228	 3HE	2110.167	648.495	-2193.990	 H	15	MET15	0.068	
229	   N	2117.862	650.717	-2193.128	N.am	16	ARG16	-0.348	
230	  CA	2118.859	651.780	-2193.045	C.3	16	ARG16	-0.264	
231	   C	2120.129	651.387	-2193.762	C.2	16	ARG16	0.734	
232	   O	2120.243	650.310	-2194.342	O.2	16	ARG16	-0.589	
233	  CB	2119.128	652.099	-2191.548	C.3	16	ARG16	-0.001	
234	  CG	2119.954	653.388	-2191.276	C.3	16	ARG16	0.039	
235	  CD	2120.204	653.609	-2189.775	C.3	16	ARG16	0.049	
236	  NE	2120.980	654.868	-2189.575	N.pl3	16	ARG16	-0.530	
237	  CZ	2121.372	655.351	-2188.400	C.cat	16	ARG16	0.808	
238	 NH1	2121.125	654.768	-2187.261	N.pl3	16	ARG16	-0.863	
239	 NH2	2122.036	656.463	-2188.382	N.pl3	16	ARG16	-0.863	
240	   H	2117.467	650.317	-2192.289	 H	16	ARG16	0.275	
241	  HA	2118.450	652.673	-2193.556	 H	16	ARG16	0.156	
242	 2HB	2119.625	651.223	-2191.081	 H	16	ARG16	0.033	
243	 3HB	2118.160	652.181	-2191.014	 H	16	ARG16	0.033	
244	 2HG	2119.424	654.259	-2191.714	 H	16	ARG16	0.029	
245	 3HG	2120.927	653.335	-2191.805	 H	16	ARG16	0.029	
246	 2HD	2120.753	652.734	-2189.361	 H	16	ARG16	0.069	
247	 3HD	2119.231	653.652	-2189.240	 H	16	ARG16	0.069	
248	  HE	2121.259	655.448	-2190.373	 H	16	ARG16	0.346	
249	1HH1	2120.599	653.894	-2187.345	 H	16	ARG16	0.448	
250	2HH1	2121.459	655.204	-2186.400	 H	16	ARG16	0.448	
251	1HH2	2122.221	656.906	-2189.285	 H	16	ARG16	0.448	
252	2HH2	2122.327	656.819	-2187.470	 H	16	ARG16	0.448	
@<TRIPOS>BOND
1 1 2 1
2 1 10 1
3 2 3 1
4 2 5 1
5 2 11 1
6 3 4 2
7 3 16 1
8 5 6 1
9 6 7 1
10 7 8 2
11 7 9 1
12 5 12 1
13 5 13 1
14 6 14 1
15 6 15 1
16 16 17 1
17 16 24 1
18 17 18 1
19 17 20 1
20 17 25 1
21 18 19 2
22 18 30 1
23 20 21 1
24 21 22 1
25 21 23 2
26 20 26 1
27 20 27 1
28 22 28 1
29 22 29 1
30 30 31 1
31 30 36 1
32 31 32 1
33 31 34 1
34 31 37 1
35 32 33 2
36 32 44 1
37 34 35 1
38 35 36 1
39 34 38 1
40 34 39 1
41 35 40 1
42 35 41 1
43 36 42 1
44 36 43 1
45 44 45 1
46 44 53 1
47 45 46 1
48 45 48 1
49 45 54 1
50 46 47 2
51 46 59 1
52 48 49 1
53 49 50 1
54 50 51 2
55 50 52 1
56 48 55 1
57 48 56 1
58 49 57 1
59 49 58 1
60 59 60 1
61 59 65 1
62 60 61 1
63 60 63 1
64 60 66 1
65 61 62 2
66 61 70 1
67 63 64 1
68 63 67 1
69 63 68 1
70 64 69 1
71 70 71 1
72 70 78 1
73 71 72 1
74 71 74 1
75 71 79 1
76 72 73 2
77 72 89 1
78 74 75 1
79 74 76 1
80 75 77 1
81 74 80 1
82 75 81 1
83 75 82 1
84 76 83 1
85 76 84 1
86 76 85 1
87 77 86 1
88 77 87 1
89 77 88 1
90 89 90 1
91 89 97 1
92 90 91 1
93 90 93 1
94 90 98 1
95 91 92 2
96 91 108 1
97 93 94 1
98 94 95 1
99 94 96 1
100 93 99 1
101 93 100 1
102 94 101 1
103 95 102 1
104 95 103 1
105 95 104 1
106 96 105 1
107 96 106 1
108 96 107 1
109 108 109 1
110 108 116 1
111 109 110 1
112 109 112 1
113 109 117 1
114 110 111 2
115 110 120 1
116 112 113 1
117 113 114 2
118 113 115 1
119 112 118 1
120 112 119 1
121 120 121 1
122 120 129 1
123 121 122 1
124 121 124 1
125 121 130 1
126 122 123 2
127 122 135 1
128 124 125 1
129 125 126 1
130 126 127 2
131 126 128 1
132 124 131 1
133 124 132 1
134 125 133 1
135 125 134 1
136 135 136 1
137 135 145 1
138 136 137 1
139 136 139 1
140 136 146 1
141 137 138 2
142 137 152 1
143 139 140 1
144 140 141 2
145 141 144 1
146 140 142 1
147 142 143 2
148 143 144 1
149 139 147 1
150 139 148 1
151 141 149 1
152 143 150 1
153 144 151 1
154 152 153 1
155 152 159 1
156 153 154 1
157 153 156 1
158 153 160 1
159 154 155 2
160 154 168 1
161 156 157 1
162 156 158 1
163 156 161 1
164 157 162 1
165 157 163 1
166 157 164 1
167 158 165 1
168 158 166 1
169 158 167 1
170 168 169 1
171 168 177 1
172 169 170 1
173 169 172 1
174 169 178 1
175 170 171 2
176 170 185 1
177 172 173 1
178 173 174 1
179 174 175 1
180 174 176 2
181 172 179 1
182 172 180 1
183 173 181 1
184 173 182 1
185 175 183 1
186 175 184 1
187 185 186 1
188 185 191 1
189 186 187 1
190 186 189 1
191 186 192 1
192 187 188 2
193 187 196 1
194 189 190 1
195 189 193 1
196 189 194 1
197 190 195 1
198 196 197 1
199 196 203 1
200 197 198 1
201 197 200 1
202 197 204 1
203 198 199 2
204 198 212 1
205 200 201 1
206 200 202 1
207 200 205 1
208 201 206 1
209 201 207 1
210 201 208 1
211 202 209 1
212 202 210 1
213 202 211 1
214 212 213 1
215 212 220 1
216 213 214 1
217 213 216 1
218 213 221 1
219 214 215 2
220 214 229 1
221 216 217 1
222 217 218 1
223 218 219 1
224 216 222 1
225 216 223 1
226 217 224 1
227 217 225 1
228 219 226 1
229 219 227 1
230 219 228 1
231 229 230 1
232 229 240 1
233 230 231 1
234 230 233 1
235 230 241 1
236 231 232 2
237 233 234 1
238 234 235 1
239 235 236 1
240 236 237 1
241 237 238 2
242 237 239 1
243 233 242 1
244 233 243 1
245 234 244 1
246 234 245 1
247 235 246 1
248 235 247 1
249 236 248 1
250 238 249 1
251 238 250 1
252 239 251 1
253 239 252 1
@<TRIPOS>SUBSTRUCTURE
1	GLU1	1	RESIDUE	1 ****	GLU
2	ASN2	16	RESIDUE	1 ****	ASN
3	PRO3	30	RESIDUE	1 ****	PRO
4	GLU4	44	RESIDUE	1 ****	GLU
5	SER5	59	RESIDUE	1 ****	SER
6	ILE6	70	RESIDUE	1 ****	ILE
7	LEU7	89	RESIDUE	1 ****	LEU
8	ASP8	108	RESIDUE	1 ****	ASP
9	GLU9	120	RESIDUE	1 ****	GLU
10	HIS10	135	RESIDUE	1 ****	HIS
11	VAL11	152	RESIDUE	1 ****	VAL
12	GLN12	168	RESIDUE	1 ****	GLN
13	SER13	185	RESIDUE	1 ****	SER
14	VAL14	196	RESIDUE	1 ****	VAL
15	MET15	212	RESIDUE	1 ****	MET
16	ARG16	229	RESIDUE	1 ****	ARG
