@<TRIPOS>MOLECULE
12-15
262 263 16              
SMALL
USER_CHARGES
@<TRIPOS>ATOM
1	   N	1960.401	591.694	-2018.254	N.3	1	GLU1	-0.516	
2	  CA	1960.960	593.043	-2018.254	C.3	1	GLU1	0.040	
3	   C	1962.469	593.003	-2018.254	C.2	1	GLU1	0.537	
4	   O	1963.145	593.702	-2019.023	O.2	1	GLU1	-0.582	
5	  CB	1960.438	593.828	-2017.017	C.3	1	GLU1	0.056	
6	  CG	1960.912	595.313	-2016.906	C.3	1	GLU1	0.014	
7	  CD	1960.489	596.117	-2015.691	C.2	1	GLU1	0.805	
8	 OE1	1959.760	595.615	-2014.813	O.co2	1	GLU1	-0.819	
9	 OE2	1960.918	597.287	-2015.619	O.co2	1	GLU1	-0.819	
10	   H	1961.028	590.815	-2018.254	 H	1	GLU1	0.294	
11	  HA	1960.635	593.561	-2019.174	 H	1	GLU1	0.111	
12	 2HB	1960.726	593.297	-2016.087	 H	1	GLU1	-0.017	
13	 3HB	1959.330	593.818	-2017.004	 H	1	GLU1	-0.017	
14	 2HG	1960.603	595.898	-2017.787	 H	1	GLU1	-0.043	
15	 3HG	1962.012	595.380	-2016.877	 H	1	GLU1	-0.043	
16	   N	1963.074	592.217	-2017.429	N.am	2	ASN2	-0.416	
17	  CA	1964.533	592.179	-2017.429	C.3	2	ASN2	0.014	
18	   C	1965.065	591.823	-2018.797	C.2	2	ASN2	0.597	
19	   O	1965.979	592.453	-2019.326	O.2	2	ASN2	-0.568	
20	  CB	1965.025	591.156	-2016.365	C.3	2	ASN2	-0.204	
21	  CG	1964.562	591.380	-2014.921	C.2	2	ASN2	0.713	
22	 ND2	1965.156	592.294	-2014.203	N.pl3	2	ASN2	-0.919	
23	 OD1	1963.641	590.746	-2014.427	O.2	2	ASN2	-0.593	
24	   H	1962.546	591.638	-2016.792	 H	2	ASN2	0.272	
25	  HA	1964.911	593.189	-2017.184	 H	2	ASN2	0.105	
26	 2HB	1966.130	591.096	-2016.368	 H	2	ASN2	0.080	
27	 3HB	1964.696	590.137	-2016.650	 H	2	ASN2	0.080	
28	1HD2	1964.676	592.467	-2013.316	 H	2	ASN2	0.420	
29	2HD2	1965.858	592.866	-2014.672	 H	2	ASN2	0.420	
30	   N	1964.543	590.828	-2019.432	N.am	3	PRO3	-0.255	
31	  CA	1964.995	590.419	-2020.753	C.3	3	PRO3	-0.027	
32	   C	1964.597	591.442	-2021.830	C.2	3	PRO3	0.590	
33	   O	1965.420	591.825	-2022.661	O.2	3	PRO3	-0.575	
34	  CB	1964.291	589.064	-2020.922	C.3	3	PRO3	-0.007	
35	  CG	1963.007	589.216	-2020.092	C.3	3	PRO3	0.019	
36	  CD	1963.465	590.035	-2018.882	C.3	3	PRO3	0.019	
37	  HA	1966.081	590.299	-2020.767	 H	3	PRO3	0.064	
38	 2HB	1964.913	588.283	-2020.482	 H	3	PRO3	0.025	
39	 3HB	1964.092	588.815	-2021.968	 H	3	PRO3	0.025	
40	 2HG	1962.580	588.254	-2019.801	 H	3	PRO3	0.021	
41	 3HG	1962.270	589.787	-2020.659	 H	3	PRO3	0.021	
42	 2HD	1963.854	589.385	-2018.095	 H	3	PRO3	0.039	
43	 3HD	1962.669	590.671	-2018.489	 H	3	PRO3	0.039	
44	   N	1963.392	591.902	-2021.862	N.am	4	GLU4	-0.516	
45	  CA	1963.032	592.873	-2022.892	C.3	4	GLU4	0.040	
46	   C	1963.931	594.084	-2022.831	C.2	4	GLU4	0.537	
47	   O	1964.458	594.564	-2023.845	O.2	4	GLU4	-0.582	
48	  CB	1961.544	593.292	-2022.722	C.3	4	GLU4	0.056	
49	  CG	1960.996	594.296	-2023.787	C.3	4	GLU4	0.014	
50	  CD	1959.569	594.793	-2023.644	C.2	4	GLU4	0.805	
51	 OE1	1958.843	594.394	-2022.713	O.co2	4	GLU4	-0.819	
52	 OE2	1959.180	595.622	-2024.492	O.co2	4	GLU4	-0.819	
53	   H	1962.708	591.595	-2021.186	 H	4	GLU4	0.294	
54	  HA	1963.163	592.403	-2023.883	 H	4	GLU4	0.111	
55	 2HB	1961.391	593.732	-2021.715	 H	4	GLU4	-0.017	
56	 3HB	1960.896	592.394	-2022.728	 H	4	GLU4	-0.017	
57	 2HG	1961.077	593.881	-2024.805	 H	4	GLU4	-0.043	
58	 3HG	1961.584	595.228	-2023.798	 H	4	GLU4	-0.043	
59	   N	1964.159	594.637	-2021.688	N.am	5	SER5	-0.416	
60	  CA	1965.028	595.808	-2021.629	C.3	5	SER5	-0.025	
61	   C	1966.387	595.503	-2022.215	C.2	5	SER5	0.597	
62	   O	1966.934	596.256	-2023.020	O.2	5	SER5	-0.568	
63	  CB	1965.140	596.341	-2020.179	C.3	5	SER5	0.212	
64	  OG	1965.871	595.461	-2019.318	O.3	5	SER5	-0.655	
65	   H	1963.742	594.265	-2020.846	 H	5	SER5	0.272	
66	  HA	1964.579	596.598	-2022.258	 H	5	SER5	0.084	
67	 2HB	1964.140	596.534	-2019.745	 H	5	SER5	0.035	
68	 3HB	1965.645	597.326	-2020.181	 H	5	SER5	0.035	
69	  HG	1965.383	594.636	-2019.267	 H	5	SER5	0.428	
70	   N	1966.992	594.420	-2021.860	N.am	6	ILE6	-0.416	
71	  CA	1968.305	594.125	-2022.427	C.3	6	ILE6	-0.060	
72	   C	1968.248	594.087	-2023.934	C.2	6	ILE6	0.597	
73	   O	1969.083	594.675	-2024.638	O.2	6	ILE6	-0.568	
74	  CB	1968.905	592.789	-2021.827	C.3	6	ILE6	0.130	
75	 CG1	1968.925	592.727	-2020.266	C.3	6	ILE6	-0.043	
76	 CG2	1970.346	592.487	-2022.342	C.3	6	ILE6	-0.320	
77	 CD1	1969.194	591.338	-2019.651	C.3	6	ILE6	-0.066	
78	   H	1966.564	593.785	-2021.201	 H	6	ILE6	0.272	
79	  HA	1968.979	594.959	-2022.159	 H	6	ILE6	0.087	
80	  HB	1968.247	591.963	-2022.171	 H	6	ILE6	0.019	
81	2HG1	1967.942	593.046	-2019.870	 H	6	ILE6	0.024	
82	3HG1	1969.640	593.469	-2019.861	 H	6	ILE6	0.024	
83	1HG2	1970.405	592.394	-2023.441	 H	6	ILE6	0.088	
84	2HG2	1971.068	593.270	-2022.040	 H	6	ILE6	0.088	
85	3HG2	1970.736	591.525	-2021.963	 H	6	ILE6	0.088	
86	1HD1	1968.466	590.583	-2020.005	 H	6	ILE6	0.019	
87	2HD1	1970.205	590.959	-2019.887	 H	6	ILE6	0.019	
88	3HD1	1969.118	591.367	-2018.548	 H	6	ILE6	0.019	
89	   N	1967.302	593.424	-2024.508	N.am	7	LEU7	-0.416	
90	  CA	1967.247	593.388	-2025.967	C.3	7	LEU7	-0.052	
91	   C	1967.175	594.783	-2026.539	C.2	7	LEU7	0.597	
92	   O	1967.895	595.146	-2027.481	O.2	7	LEU7	-0.568	
93	  CB	1966.044	592.527	-2026.447	C.3	7	LEU7	-0.110	
94	  CG	1965.972	591.048	-2025.981	C.3	7	LEU7	0.353	
95	 CD1	1964.782	590.342	-2026.646	C.3	7	LEU7	-0.412	
96	 CD2	1967.266	590.269	-2026.272	C.3	7	LEU7	-0.412	
97	   H	1966.610	592.937	-2023.957	 H	7	LEU7	0.272	
98	  HA	1968.189	592.948	-2026.341	 H	7	LEU7	0.092	
99	 2HB	1966.021	592.543	-2027.555	 H	7	LEU7	0.046	
100	 3HB	1965.104	593.030	-2026.143	 H	7	LEU7	0.046	
101	  HG	1965.802	591.040	-2024.884	 H	7	LEU7	-0.036	
102	1HD1	1963.825	590.851	-2026.424	 H	7	LEU7	0.100	
103	2HD1	1964.881	590.302	-2027.747	 H	7	LEU7	0.100	
104	3HD1	1964.675	589.301	-2026.290	 H	7	LEU7	0.100	
105	1HD2	1967.541	590.299	-2027.342	 H	7	LEU7	0.100	
106	2HD2	1968.119	590.681	-2025.701	 H	7	LEU7	0.100	
107	3HD2	1967.184	589.207	-2025.976	 H	7	LEU7	0.100	
108	   N	1966.337	595.623	-2026.033	N.am	8	ASP8	-0.516	
109	  CA	1966.266	596.973	-2026.586	C.3	8	ASP8	0.038	
110	   C	1967.613	597.653	-2026.529	C.2	8	ASP8	0.537	
111	   O	1968.085	598.258	-2027.503	O.2	8	ASP8	-0.582	
112	  CB	1965.188	597.812	-2025.844	C.3	8	ASP8	-0.030	
113	  CG	1964.969	599.232	-2026.385	C.2	8	ASP8	0.799	
114	 OD1	1965.033	599.432	-2027.615	O.co2	8	ASP8	-0.801	
115	 OD2	1964.777	600.158	-2025.569	O.co2	8	ASP8	-0.801	
116	   H	1965.739	595.352	-2025.266	 H	8	ASP8	0.294	
117	  HA	1965.984	596.895	-2027.653	 H	8	ASP8	0.088	
118	 2HB	1965.445	597.895	-2024.772	 H	8	ASP8	-0.012	
119	 3HB	1964.209	597.306	-2025.877	 H	8	ASP8	-0.012	
120	   N	1968.293	597.603	-2025.433	N.am	9	GLU9	-0.516	
121	  CA	1969.595	598.261	-2025.378	C.3	9	GLU9	0.040	
122	   C	1970.514	597.734	-2026.454	C.2	9	GLU9	0.537	
123	   O	1971.177	598.489	-2027.179	O.2	9	GLU9	-0.582	
124	  CB	1970.229	598.053	-2023.972	C.3	9	GLU9	0.056	
125	  CG	1971.611	598.746	-2023.743	C.3	9	GLU9	0.014	
126	  CD	1972.313	598.533	-2022.414	C.2	9	GLU9	0.805	
127	 OE1	1971.791	597.841	-2021.518	O.co2	9	GLU9	-0.819	
128	 OE2	1973.432	599.071	-2022.282	O.co2	9	GLU9	-0.819	
129	   H	1967.929	597.116	-2024.627	 H	9	GLU9	0.294	
130	  HA	1969.453	599.343	-2025.553	 H	9	GLU9	0.111	
131	 2HB	1970.342	596.969	-2023.770	 H	9	GLU9	-0.017	
132	 3HB	1969.531	598.406	-2023.188	 H	9	GLU9	-0.017	
133	 2HG	1971.539	599.837	-2023.882	 H	9	GLU9	-0.043	
134	 3HG	1972.358	598.401	-2024.477	 H	9	GLU9	-0.043	
135	   N	1970.611	596.459	-2026.624	N.am	10	HIS10	-0.416	
136	  CA	1971.499	595.948	-2027.664	C.3	10	HIS10	-0.058	
137	   C	1971.132	596.513	-2029.015	C.2	10	HIS10	0.597	
138	   O	1971.984	596.979	-2029.786	O.2	10	HIS10	-0.568	
139	  CB	1971.336	594.419	-2027.660	C.3	10	HIS10	-0.007	
140	  CG	1972.622	593.710	-2027.352	C.2	10	HIS10	0.187	
141	 CD2	1973.002	593.374	-2026.059	C.2	10	HIS10	-0.221	
142	 ND1	1973.574	593.305	-2028.284	N.2	10	HIS10	-0.543	
143	 CE1	1974.481	592.747	-2027.461	C.2	10	HIS10	0.163	
144	 NE2	1974.218	592.743	-2026.126	N.pl3	10	HIS10	-0.280	
145	   H	1970.080	595.823	-2026.045	 H	10	HIS10	0.272	
146	  HA	1972.518	596.306	-2027.438	 H	10	HIS10	0.136	
147	 2HB	1970.971	594.053	-2028.640	 H	10	HIS10	0.037	
148	 3HB	1970.580	594.082	-2026.920	 H	10	HIS10	0.037	
149	 2HD	1972.417	593.589	-2025.170	 H	10	HIS10	0.186	
150	 1HE	1975.372	592.326	-2027.908	 H	10	HIS10	0.144	
151	 2HE	1974.785	592.366	-2025.352	 H	10	HIS10	0.334	
152	   N	1969.894	596.512	-2029.378	N.am	11	VAL11	-0.416	
153	  CA	1969.539	597.058	-2030.685	C.3	11	VAL11	-0.087	
154	   C	1970.003	598.489	-2030.817	C.2	11	VAL11	0.597	
155	   O	1970.604	598.895	-2031.819	O.2	11	VAL11	-0.568	
156	  CB	1967.978	596.951	-2030.905	C.3	11	VAL11	0.299	
157	 CG1	1967.409	597.655	-2032.167	C.3	11	VAL11	-0.319	
158	 CG2	1967.454	595.497	-2030.978	C.3	11	VAL11	-0.319	
159	   H	1969.181	596.138	-2028.768	 H	11	VAL11	0.272	
160	  HA	1970.059	596.477	-2031.467	 H	11	VAL11	0.097	
161	  HB	1967.490	597.430	-2030.029	 H	11	VAL11	-0.030	
162	1HG1	1967.848	597.264	-2033.104	 H	11	VAL11	0.079	
163	2HG1	1966.310	597.547	-2032.249	 H	11	VAL11	0.079	
164	3HG1	1967.587	598.748	-2032.157	 H	11	VAL11	0.079	
165	1HG2	1967.744	594.909	-2030.088	 H	11	VAL11	0.079	
166	2HG2	1966.348	595.459	-2031.021	 H	11	VAL11	0.079	
167	3HG2	1967.836	594.956	-2031.865	 H	11	VAL11	0.079	
168	   N	1969.765	599.314	-2029.854	N.am	12	ASN12	-0.416	
169	  CA	1970.213	600.698	-2029.981	C.3	12	ASN12	0.014	
170	   C	1971.704	600.763	-2030.219	C.2	12	ASN12	0.597	
171	   O	1972.193	601.471	-2031.098	O.2	12	ASN12	-0.568	
172	  CB	1969.825	601.489	-2028.699	C.3	12	ASN12	-0.204	
173	  CG	1968.340	601.510	-2028.319	C.2	12	ASN12	0.713	
174	 ND2	1967.536	602.312	-2028.964	N.pl3	12	ASN12	-0.919	
175	 OD1	1967.880	600.785	-2027.449	O.2	12	ASN12	-0.593	
176	   H	1969.276	599.008	-2029.025	 H	12	ASN12	0.272	
177	  HA	1969.721	601.146	-2030.864	 H	12	ASN12	0.105	
178	 2HB	1970.179	602.534	-2028.769	 H	12	ASN12	0.080	
179	 3HB	1970.370	601.074	-2027.828	 H	12	ASN12	0.080	
180	1HD2	1966.552	602.139	-2028.742	 H	12	ASN12	0.420	
181	2HD2	1967.934	602.836	-2029.743	 H	12	ASN12	0.420	
182	   N	1972.487	600.056	-2029.477	N.am	13	ARG13	-0.348	
183	  CA	1973.927	600.119	-2029.707	C.3	13	ARG13	-0.264	
184	   C	1974.264	599.747	-2031.132	C.2	13	ARG13	0.734	
185	   O	1975.034	600.417	-2031.816	O.2	13	ARG13	-0.589	
186	  CB	1974.639	599.180	-2028.693	C.3	13	ARG13	-0.001	
187	  CG	1976.184	599.331	-2028.611	C.3	13	ARG13	0.039	
188	  CD	1976.809	598.342	-2027.612	C.3	13	ARG13	0.049	
189	  NE	1978.286	598.547	-2027.561	N.pl3	13	ARG13	-0.530	
190	  CZ	1979.133	597.855	-2026.805	C.cat	13	ARG13	0.808	
191	 NH1	1978.766	596.891	-2026.008	N.pl3	13	ARG13	-0.863	
192	 NH2	1980.393	598.152	-2026.861	N.pl3	13	ARG13	-0.863	
193	   H	1972.109	599.466	-2028.749	 H	13	ARG13	0.275	
194	  HA	1974.253	601.165	-2029.549	 H	13	ARG13	0.156	
195	 2HB	1974.371	598.130	-2028.932	 H	13	ARG13	0.033	
196	 3HB	1974.213	599.347	-2027.682	 H	13	ARG13	0.033	
197	 2HG	1976.433	600.375	-2028.331	 H	13	ARG13	0.029	
198	 3HG	1976.635	599.174	-2029.612	 H	13	ARG13	0.029	
199	 2HD	1976.563	597.302	-2027.921	 H	13	ARG13	0.069	
200	 3HD	1976.352	598.489	-2026.610	 H	13	ARG13	0.069	
201	  HE	1978.739	599.269	-2028.132	 H	13	ARG13	0.346	
202	1HH1	1977.760	596.706	-2026.012	 H	13	ARG13	0.448	
203	2HH1	1979.478	596.407	-2025.458	 H	13	ARG13	0.448	
204	1HH2	1980.662	598.909	-2027.493	 H	13	ARG13	0.448	
205	2HH2	1981.027	597.610	-2026.272	 H	13	ARG13	0.448	
206	   N	1973.726	598.693	-2031.646	N.am	14	VAL14	-0.416	
207	  CA	1974.051	598.333	-2033.023	C.3	14	VAL14	-0.087	
208	   C	1973.724	599.463	-2033.970	C.2	14	VAL14	0.597	
209	   O	1974.518	599.843	-2034.839	O.2	14	VAL14	-0.568	
210	  CB	1973.277	597.017	-2033.430	C.3	14	VAL14	0.299	
211	 CG1	1973.366	596.598	-2034.924	C.3	14	VAL14	-0.319	
212	 CG2	1973.707	595.764	-2032.629	C.3	14	VAL14	-0.319	
213	   H	1973.090	598.126	-2031.104	 H	14	VAL14	0.272	
214	  HA	1975.139	598.155	-2033.098	 H	14	VAL14	0.097	
215	  HB	1972.201	597.190	-2033.215	 H	14	VAL14	-0.030	
216	1HG1	1974.408	596.419	-2035.252	 H	14	VAL14	0.079	
217	2HG1	1972.792	595.676	-2035.136	 H	14	VAL14	0.079	
218	3HG1	1972.939	597.361	-2035.602	 H	14	VAL14	0.079	
219	1HG2	1973.619	595.923	-2031.539	 H	14	VAL14	0.079	
220	2HG2	1973.070	594.889	-2032.862	 H	14	VAL14	0.079	
221	3HG2	1974.754	595.473	-2032.834	 H	14	VAL14	0.079	
222	   N	1972.580	600.051	-2033.869	N.am	15	MET15	-0.416	
223	  CA	1972.261	601.144	-2034.783	C.3	15	MET15	-0.024	
224	   C	1973.293	602.242	-2034.695	C.2	15	MET15	0.597	
225	   O	1973.797	602.751	-2035.708	O.2	15	MET15	-0.568	
226	  CB	1970.841	601.691	-2034.476	C.3	15	MET15	0.034	
227	  CG	1969.677	600.695	-2034.667	C.3	15	MET15	0.002	
228	  SD	1968.104	601.563	-2034.555	S.3	15	MET15	-0.274	
229	  CE	1967.021	600.135	-2034.418	C.3	15	MET15	-0.054	
230	   H	1971.914	599.759	-2033.168	 H	15	MET15	0.272	
231	  HA	1972.287	600.756	-2035.819	 H	15	MET15	0.088	
232	 2HB	1970.640	602.570	-2035.118	 H	15	MET15	0.024	
233	 3HB	1970.805	602.084	-2033.439	 H	15	MET15	0.024	
234	 2HG	1969.719	599.909	-2033.890	 H	15	MET15	0.044	
235	 3HG	1969.740	600.179	-2035.644	 H	15	MET15	0.044	
236	 1HE	1967.165	599.446	-2035.270	 H	15	MET15	0.068	
237	 2HE	1967.229	599.583	-2033.485	 H	15	MET15	0.068	
238	 3HE	1965.964	600.452	-2034.402	 H	15	MET15	0.068	
239	   N	1973.662	602.663	-2033.533	N.am	16	ARG16	-0.348	
240	  CA	1974.660	603.725	-2033.449	C.3	16	ARG16	-0.264	
241	   C	1975.930	603.331	-2034.164	C.2	16	ARG16	0.734	
242	   O	1976.043	602.254	-2034.745	O.2	16	ARG16	-0.589	
243	  CB	1974.928	604.044	-2031.951	C.3	16	ARG16	-0.001	
244	  CG	1975.755	605.332	-2031.678	C.3	16	ARG16	0.039	
245	  CD	1976.004	605.551	-2030.177	C.3	16	ARG16	0.049	
246	  NE	1976.781	606.810	-2029.975	N.pl3	16	ARG16	-0.530	
247	  CZ	1977.172	607.292	-2028.800	C.cat	16	ARG16	0.808	
248	 NH1	1976.923	606.708	-2027.661	N.pl3	16	ARG16	-0.863	
249	 NH2	1977.838	608.403	-2028.781	N.pl3	16	ARG16	-0.863	
250	   H	1973.266	602.264	-2032.694	 H	16	ARG16	0.275	
251	  HA	1974.252	604.619	-2033.960	 H	16	ARG16	0.156	
252	 2HB	1975.423	603.167	-2031.484	 H	16	ARG16	0.033	
253	 3HB	1973.959	604.126	-2031.418	 H	16	ARG16	0.033	
254	 2HG	1975.226	606.203	-2032.116	 H	16	ARG16	0.029	
255	 3HG	1976.729	605.277	-2032.206	 H	16	ARG16	0.029	
256	 2HD	1976.551	604.676	-2029.762	 H	16	ARG16	0.069	
257	 3HD	1975.030	605.596	-2029.642	 H	16	ARG16	0.069	
258	  HE	1977.061	607.390	-2030.773	 H	16	ARG16	0.346	
259	1HH1	1976.396	605.836	-2027.746	 H	16	ARG16	0.448	
260	2HH1	1977.257	607.144	-2026.800	 H	16	ARG16	0.448	
261	1HH2	1978.025	608.846	-2029.683	 H	16	ARG16	0.448	
262	2HH2	1978.128	608.758	-2027.869	 H	16	ARG16	0.448	
@<TRIPOS>BOND
1 1 2 1
2 1 10 1
3 2 3 1
4 2 5 1
5 2 11 1
6 3 4 2
7 3 16 1
8 5 6 1
9 6 7 1
10 7 8 2
11 7 9 1
12 5 12 1
13 5 13 1
14 6 14 1
15 6 15 1
16 16 17 1
17 16 24 1
18 17 18 1
19 17 20 1
20 17 25 1
21 18 19 2
22 18 30 1
23 20 21 1
24 21 22 1
25 21 23 2
26 20 26 1
27 20 27 1
28 22 28 1
29 22 29 1
30 30 31 1
31 30 36 1
32 31 32 1
33 31 34 1
34 31 37 1
35 32 33 2
36 32 44 1
37 34 35 1
38 35 36 1
39 34 38 1
40 34 39 1
41 35 40 1
42 35 41 1
43 36 42 1
44 36 43 1
45 44 45 1
46 44 53 1
47 45 46 1
48 45 48 1
49 45 54 1
50 46 47 2
51 46 59 1
52 48 49 1
53 49 50 1
54 50 51 2
55 50 52 1
56 48 55 1
57 48 56 1
58 49 57 1
59 49 58 1
60 59 60 1
61 59 65 1
62 60 61 1
63 60 63 1
64 60 66 1
65 61 62 2
66 61 70 1
67 63 64 1
68 63 67 1
69 63 68 1
70 64 69 1
71 70 71 1
72 70 78 1
73 71 72 1
74 71 74 1
75 71 79 1
76 72 73 2
77 72 89 1
78 74 75 1
79 74 76 1
80 75 77 1
81 74 80 1
82 75 81 1
83 75 82 1
84 76 83 1
85 76 84 1
86 76 85 1
87 77 86 1
88 77 87 1
89 77 88 1
90 89 90 1
91 89 97 1
92 90 91 1
93 90 93 1
94 90 98 1
95 91 92 2
96 91 108 1
97 93 94 1
98 94 95 1
99 94 96 1
100 93 99 1
101 93 100 1
102 94 101 1
103 95 102 1
104 95 103 1
105 95 104 1
106 96 105 1
107 96 106 1
108 96 107 1
109 108 109 1
110 108 116 1
111 109 110 1
112 109 112 1
113 109 117 1
114 110 111 2
115 110 120 1
116 112 113 1
117 113 114 2
118 113 115 1
119 112 118 1
120 112 119 1
121 120 121 1
122 120 129 1
123 121 122 1
124 121 124 1
125 121 130 1
126 122 123 2
127 122 135 1
128 124 125 1
129 125 126 1
130 126 127 2
131 126 128 1
132 124 131 1
133 124 132 1
134 125 133 1
135 125 134 1
136 135 136 1
137 135 145 1
138 136 137 1
139 136 139 1
140 136 146 1
141 137 138 2
142 137 152 1
143 139 140 1
144 140 141 2
145 141 144 1
146 140 142 1
147 142 143 2
148 143 144 1
149 139 147 1
150 139 148 1
151 141 149 1
152 143 150 1
153 144 151 1
154 152 153 1
155 152 159 1
156 153 154 1
157 153 156 1
158 153 160 1
159 154 155 2
160 154 168 1
161 156 157 1
162 156 158 1
163 156 161 1
164 157 162 1
165 157 163 1
166 157 164 1
167 158 165 1
168 158 166 1
169 158 167 1
170 168 169 1
171 168 176 1
172 169 170 1
173 169 172 1
174 169 177 1
175 170 171 2
176 170 182 1
177 172 173 1
178 173 174 1
179 173 175 2
180 172 178 1
181 172 179 1
182 174 180 1
183 174 181 1
184 182 183 1
185 182 193 1
186 183 184 1
187 183 186 1
188 183 194 1
189 184 185 2
190 184 206 1
191 186 187 1
192 187 188 1
193 188 189 1
194 189 190 1
195 190 191 2
196 190 192 1
197 186 195 1
198 186 196 1
199 187 197 1
200 187 198 1
201 188 199 1
202 188 200 1
203 189 201 1
204 191 202 1
205 191 203 1
206 192 204 1
207 192 205 1
208 206 207 1
209 206 213 1
210 207 208 1
211 207 210 1
212 207 214 1
213 208 209 2
214 208 222 1
215 210 211 1
216 210 212 1
217 210 215 1
218 211 216 1
219 211 217 1
220 211 218 1
221 212 219 1
222 212 220 1
223 212 221 1
224 222 223 1
225 222 230 1
226 223 224 1
227 223 226 1
228 223 231 1
229 224 225 2
230 224 239 1
231 226 227 1
232 227 228 1
233 228 229 1
234 226 232 1
235 226 233 1
236 227 234 1
237 227 235 1
238 229 236 1
239 229 237 1
240 229 238 1
241 239 240 1
242 239 250 1
243 240 241 1
244 240 243 1
245 240 251 1
246 241 242 2
247 243 244 1
248 244 245 1
249 245 246 1
250 246 247 1
251 247 248 2
252 247 249 1
253 243 252 1
254 243 253 1
255 244 254 1
256 244 255 1
257 245 256 1
258 245 257 1
259 246 258 1
260 248 259 1
261 248 260 1
262 249 261 1
263 249 262 1
@<TRIPOS>SUBSTRUCTURE
1	GLU1	1	RESIDUE	1 ****	GLU
2	ASN2	16	RESIDUE	1 ****	ASN
3	PRO3	30	RESIDUE	1 ****	PRO
4	GLU4	44	RESIDUE	1 ****	GLU
5	SER5	59	RESIDUE	1 ****	SER
6	ILE6	70	RESIDUE	1 ****	ILE
7	LEU7	89	RESIDUE	1 ****	LEU
8	ASP8	108	RESIDUE	1 ****	ASP
9	GLU9	120	RESIDUE	1 ****	GLU
10	HIS10	135	RESIDUE	1 ****	HIS
11	VAL11	152	RESIDUE	1 ****	VAL
12	ASN12	168	RESIDUE	1 ****	ASN
13	ARG13	182	RESIDUE	1 ****	ARG
14	VAL14	206	RESIDUE	1 ****	VAL
15	MET15	222	RESIDUE	1 ****	MET
16	ARG16	239	RESIDUE	1 ****	ARG
