@<TRIPOS>MOLECULE
8-8
273 275 16              
SMALL
USER_CHARGES
@<TRIPOS>ATOM
1	   N	1247.272	359.582	-1244.616	N.3	1	GLU1	-0.516	
2	  CA	1247.831	360.931	-1244.616	C.3	1	GLU1	0.040	
3	   C	1249.340	360.891	-1244.616	C.2	1	GLU1	0.537	
4	   O	1250.016	361.590	-1245.384	O.2	1	GLU1	-0.582	
5	  CB	1247.308	361.716	-1243.379	C.3	1	GLU1	0.056	
6	  CG	1247.783	363.201	-1243.268	C.3	1	GLU1	0.014	
7	  CD	1247.359	364.005	-1242.052	C.2	1	GLU1	0.805	
8	 OE1	1246.631	363.503	-1241.175	O.co2	1	GLU1	-0.819	
9	 OE2	1247.789	365.175	-1241.981	O.co2	1	GLU1	-0.819	
10	   H	1247.899	358.703	-1244.616	 H	1	GLU1	0.294	
11	  HA	1247.505	361.449	-1245.536	 H	1	GLU1	0.111	
12	 2HB	1247.597	361.185	-1242.449	 H	1	GLU1	-0.017	
13	 3HB	1246.201	361.706	-1243.366	 H	1	GLU1	-0.017	
14	 2HG	1247.473	363.786	-1244.149	 H	1	GLU1	-0.043	
15	 3HG	1248.883	363.268	-1243.239	 H	1	GLU1	-0.043	
16	   N	1249.945	360.106	-1243.790	N.am	2	ASN2	-0.416	
17	  CA	1251.404	360.067	-1243.790	C.3	2	ASN2	0.014	
18	   C	1251.935	359.711	-1245.159	C.2	2	ASN2	0.597	
19	   O	1252.850	360.342	-1245.688	O.2	2	ASN2	-0.568	
20	  CB	1251.896	359.044	-1242.726	C.3	2	ASN2	-0.204	
21	  CG	1251.433	359.268	-1241.283	C.2	2	ASN2	0.713	
22	 ND2	1252.027	360.183	-1240.565	N.pl3	2	ASN2	-0.919	
23	 OD1	1250.512	358.634	-1240.789	O.2	2	ASN2	-0.593	
24	   H	1249.417	359.526	-1243.154	 H	2	ASN2	0.272	
25	  HA	1251.781	361.077	-1243.545	 H	2	ASN2	0.105	
26	 2HB	1253.001	358.985	-1242.730	 H	2	ASN2	0.080	
27	 3HB	1251.567	358.026	-1243.012	 H	2	ASN2	0.080	
28	1HD2	1251.547	360.356	-1239.678	 H	2	ASN2	0.420	
29	2HD2	1252.729	360.754	-1241.034	 H	2	ASN2	0.420	
30	   N	1251.414	358.716	-1245.793	N.am	3	PRO3	-0.255	
31	  CA	1251.865	358.307	-1247.115	C.3	3	PRO3	-0.027	
32	   C	1251.467	359.330	-1248.192	C.2	3	PRO3	0.590	
33	   O	1252.291	359.714	-1249.023	O.2	3	PRO3	-0.575	
34	  CB	1251.161	356.952	-1247.284	C.3	3	PRO3	-0.007	
35	  CG	1249.878	357.104	-1246.454	C.3	3	PRO3	0.019	
36	  CD	1250.336	357.923	-1245.244	C.3	3	PRO3	0.019	
37	  HA	1252.951	358.187	-1247.129	 H	3	PRO3	0.064	
38	 2HB	1251.784	356.171	-1246.843	 H	3	PRO3	0.025	
39	 3HB	1250.963	356.704	-1248.329	 H	3	PRO3	0.025	
40	 2HG	1249.451	356.142	-1246.163	 H	3	PRO3	0.021	
41	 3HG	1249.141	357.675	-1247.021	 H	3	PRO3	0.021	
42	 2HD	1250.725	357.274	-1244.456	 H	3	PRO3	0.039	
43	 3HD	1249.539	358.559	-1244.851	 H	3	PRO3	0.039	
44	   N	1250.263	359.790	-1248.224	N.am	4	GLU4	-0.516	
45	  CA	1249.903	360.762	-1249.253	C.3	4	GLU4	0.040	
46	   C	1250.802	361.973	-1249.192	C.2	4	GLU4	0.537	
47	   O	1251.328	362.452	-1250.207	O.2	4	GLU4	-0.582	
48	  CB	1248.414	361.180	-1249.083	C.3	4	GLU4	0.056	
49	  CG	1247.866	362.184	-1250.148	C.3	4	GLU4	0.014	
50	  CD	1246.439	362.680	-1250.005	C.2	4	GLU4	0.805	
51	 OE1	1245.713	362.282	-1249.074	O.co2	4	GLU4	-0.819	
52	 OE2	1246.050	363.510	-1250.853	O.co2	4	GLU4	-0.819	
53	   H	1249.578	359.484	-1247.547	 H	4	GLU4	0.294	
54	  HA	1250.034	360.291	-1250.245	 H	4	GLU4	0.111	
55	 2HB	1248.262	361.620	-1248.076	 H	4	GLU4	-0.017	
56	 3HB	1247.766	360.282	-1249.089	 H	4	GLU4	-0.017	
57	 2HG	1247.947	361.769	-1251.166	 H	4	GLU4	-0.043	
58	 3HG	1248.454	363.116	-1250.160	 H	4	GLU4	-0.043	
59	   N	1251.029	362.526	-1248.049	N.am	5	SER5	-0.416	
60	  CA	1251.899	363.697	-1247.991	C.3	5	SER5	-0.025	
61	   C	1253.257	363.391	-1248.577	C.2	5	SER5	0.597	
62	   O	1253.804	364.145	-1249.381	O.2	5	SER5	-0.568	
63	  CB	1252.010	364.229	-1246.540	C.3	5	SER5	0.212	
64	  OG	1252.742	363.350	-1245.679	O.3	5	SER5	-0.655	
65	   H	1250.612	362.154	-1247.208	 H	5	SER5	0.272	
66	  HA	1251.449	364.487	-1248.620	 H	5	SER5	0.084	
67	 2HB	1251.010	364.423	-1246.107	 H	5	SER5	0.035	
68	 3HB	1252.516	365.215	-1246.542	 H	5	SER5	0.035	
69	  HG	1252.253	362.525	-1245.629	 H	5	SER5	0.428	
70	   N	1253.862	362.308	-1248.223	N.am	6	ILE6	-0.416	
71	  CA	1255.175	362.014	-1248.789	C.3	6	ILE6	-0.060	
72	   C	1255.118	361.976	-1250.297	C.2	6	ILE6	0.597	
73	   O	1255.953	362.564	-1251.001	O.2	6	ILE6	-0.568	
74	  CB	1255.775	360.677	-1248.189	C.3	6	ILE6	0.130	
75	 CG1	1255.795	360.615	-1246.628	C.3	6	ILE6	-0.043	
76	 CG2	1257.216	360.376	-1248.705	C.3	6	ILE6	-0.320	
77	 CD1	1256.065	359.226	-1246.013	C.3	6	ILE6	-0.066	
78	   H	1253.434	361.674	-1247.564	 H	6	ILE6	0.272	
79	  HA	1255.849	362.848	-1248.521	 H	6	ILE6	0.087	
80	  HB	1255.117	359.851	-1248.533	 H	6	ILE6	0.019	
81	2HG1	1254.812	360.935	-1246.232	 H	6	ILE6	0.024	
82	3HG1	1256.510	361.357	-1246.223	 H	6	ILE6	0.024	
83	1HG2	1257.275	360.283	-1249.803	 H	6	ILE6	0.088	
84	2HG2	1257.938	361.158	-1248.402	 H	6	ILE6	0.088	
85	3HG2	1257.607	359.414	-1248.326	 H	6	ILE6	0.088	
86	1HD1	1255.337	358.472	-1246.368	 H	6	ILE6	0.019	
87	2HD1	1257.075	358.847	-1246.249	 H	6	ILE6	0.019	
88	3HD1	1255.989	359.256	-1244.911	 H	6	ILE6	0.019	
89	   N	1254.172	361.313	-1250.870	N.am	7	LEU7	-0.416	
90	  CA	1254.117	361.277	-1252.329	C.3	7	LEU7	-0.052	
91	   C	1254.044	362.672	-1252.901	C.2	7	LEU7	0.597	
92	   O	1254.765	363.035	-1253.843	O.2	7	LEU7	-0.568	
93	  CB	1252.914	360.417	-1252.809	C.3	7	LEU7	-0.110	
94	  CG	1252.841	358.937	-1252.343	C.3	7	LEU7	0.353	
95	 CD1	1251.651	358.232	-1253.009	C.3	7	LEU7	-0.412	
96	 CD2	1254.135	358.158	-1252.635	C.3	7	LEU7	-0.412	
97	   H	1253.480	360.826	-1250.319	 H	7	LEU7	0.272	
98	  HA	1255.059	360.837	-1252.703	 H	7	LEU7	0.092	
99	 2HB	1252.891	360.433	-1253.917	 H	7	LEU7	0.046	
100	 3HB	1251.974	360.920	-1252.505	 H	7	LEU7	0.046	
101	  HG	1252.672	358.929	-1251.246	 H	7	LEU7	-0.036	
102	1HD1	1250.694	358.741	-1252.786	 H	7	LEU7	0.100	
103	2HD1	1251.750	358.191	-1254.110	 H	7	LEU7	0.100	
104	3HD1	1251.545	357.190	-1252.653	 H	7	LEU7	0.100	
105	1HD2	1254.410	358.189	-1253.705	 H	7	LEU7	0.100	
106	2HD2	1254.988	358.570	-1252.064	 H	7	LEU7	0.100	
107	3HD2	1254.053	357.096	-1252.339	 H	7	LEU7	0.100	
108	   N	1253.207	363.513	-1252.395	N.am	8	PHE8	-0.416	
109	  CA	1253.136	364.862	-1252.947	C.3	8	PHE8	-0.002	
110	   C	1254.483	365.543	-1252.890	C.2	8	PHE8	0.597	
111	   O	1254.963	366.159	-1253.883	O.2	8	PHE8	-0.568	
112	  CB	1252.107	365.715	-1252.145	C.3	8	PHE8	-0.034	
113	  CG	1250.669	365.177	-1252.088	C.2	8	PHE8	0.012	
114	 CD1	1250.304	364.287	-1251.072	C.2	8	PHE8	-0.126	
115	 CD2	1249.738	365.517	-1253.073	C.2	8	PHE8	-0.126	
116	 CE1	1249.030	363.729	-1251.053	C.2	8	PHE8	-0.170	
117	 CE2	1248.460	364.966	-1253.047	C.2	8	PHE8	-0.170	
118	  CZ	1248.107	364.070	-1252.039	C.2	8	PHE8	-0.107	
119	   H	1252.609	363.241	-1251.627	 H	8	PHE8	0.272	
120	  HA	1252.829	364.799	-1254.009	 H	8	PHE8	0.098	
121	 2HB	1252.080	366.743	-1252.559	 H	8	PHE8	0.030	
122	 3HB	1252.475	365.864	-1251.109	 H	8	PHE8	0.030	
123	 1HD	1251.025	363.993	-1250.322	 H	8	PHE8	0.133	
124	 2HD	1250.012	366.195	-1253.870	 H	8	PHE8	0.133	
125	 1HE	1248.768	363.018	-1250.283	 H	8	PHE8	0.143	
126	 2HE	1247.746	365.226	-1253.816	 H	8	PHE8	0.143	
127	  HZ	1247.121	363.631	-1252.026	 H	8	PHE8	0.130	
128	   N	1255.164	365.493	-1251.796	N.am	9	GLU9	-0.516	
129	  CA	1256.466	366.152	-1251.741	C.3	9	GLU9	0.040	
130	   C	1257.384	365.625	-1252.817	C.2	9	GLU9	0.537	
131	   O	1258.047	366.380	-1253.543	O.2	9	GLU9	-0.582	
132	  CB	1257.101	365.945	-1250.336	C.3	9	GLU9	0.056	
133	  CG	1258.483	366.638	-1250.108	C.3	9	GLU9	0.014	
134	  CD	1259.186	366.425	-1248.780	C.2	9	GLU9	0.805	
135	 OE1	1258.665	365.734	-1247.883	O.co2	9	GLU9	-0.819	
136	 OE2	1260.304	366.964	-1248.649	O.co2	9	GLU9	-0.819	
137	   H	1254.801	365.007	-1250.988	 H	9	GLU9	0.294	
138	  HA	1256.323	367.234	-1251.916	 H	9	GLU9	0.111	
139	 2HB	1257.215	364.860	-1250.133	 H	9	GLU9	-0.017	
140	 3HB	1256.404	366.297	-1249.551	 H	9	GLU9	-0.017	
141	 2HG	1258.410	367.729	-1250.247	 H	9	GLU9	-0.043	
142	 3HG	1259.229	366.294	-1250.842	 H	9	GLU9	-0.043	
143	   N	1257.481	364.350	-1252.987	N.am	10	HIS10	-0.416	
144	  CA	1258.369	363.839	-1254.028	C.3	10	HIS10	-0.058	
145	   C	1258.000	364.404	-1255.379	C.2	10	HIS10	0.597	
146	   O	1258.852	364.869	-1256.151	O.2	10	HIS10	-0.568	
147	  CB	1258.206	362.310	-1254.023	C.3	10	HIS10	-0.007	
148	  CG	1259.492	361.601	-1253.716	C.2	10	HIS10	0.187	
149	 CD2	1259.874	361.266	-1252.423	C.2	10	HIS10	-0.221	
150	 ND1	1260.444	361.196	-1254.649	N.2	10	HIS10	-0.543	
151	 CE1	1261.351	360.638	-1253.826	C.2	10	HIS10	0.163	
152	 NE2	1261.089	360.635	-1252.491	N.pl3	10	HIS10	-0.280	
153	   H	1256.951	363.714	-1252.408	 H	10	HIS10	0.272	
154	  HA	1259.387	364.197	-1253.803	 H	10	HIS10	0.136	
155	 2HB	1257.840	361.943	-1255.003	 H	10	HIS10	0.037	
156	 3HB	1257.451	361.973	-1253.282	 H	10	HIS10	0.037	
157	 2HD	1259.289	361.481	-1251.534	 H	10	HIS10	0.186	
158	 1HE	1262.242	360.218	-1254.274	 H	10	HIS10	0.144	
159	 2HE	1261.657	360.258	-1251.718	 H	10	HIS10	0.334	
160	   N	1256.762	364.402	-1255.741	N.am	11	VAL11	-0.416	
161	  CA	1256.406	364.948	-1257.047	C.3	11	VAL11	-0.087	
162	   C	1256.869	366.379	-1257.180	C.2	11	VAL11	0.597	
163	   O	1257.469	366.784	-1258.183	O.2	11	VAL11	-0.568	
164	  CB	1254.844	364.840	-1257.266	C.3	11	VAL11	0.299	
165	 CG1	1254.274	365.543	-1258.528	C.3	11	VAL11	-0.319	
166	 CG2	1254.321	363.385	-1257.338	C.3	11	VAL11	-0.319	
167	   H	1256.050	364.028	-1255.130	 H	11	VAL11	0.272	
168	  HA	1256.925	364.366	-1257.830	 H	11	VAL11	0.097	
169	  HB	1254.357	365.319	-1256.390	 H	11	VAL11	-0.030	
170	1HG1	1254.712	365.152	-1259.465	 H	11	VAL11	0.079	
171	2HG1	1253.175	365.435	-1258.609	 H	11	VAL11	0.079	
172	3HG1	1254.451	366.636	-1258.518	 H	11	VAL11	0.079	
173	1HG2	1254.612	362.798	-1256.448	 H	11	VAL11	0.079	
174	2HG2	1253.215	363.347	-1257.380	 H	11	VAL11	0.079	
175	3HG2	1254.703	362.845	-1258.225	 H	11	VAL11	0.079	
176	   N	1256.632	367.204	-1256.217	N.am	12	GLN12	-0.416	
177	  CA	1257.079	368.587	-1256.344	C.3	12	GLN12	-0.003	
178	   C	1258.569	368.656	-1256.583	C.2	12	GLN12	0.597	
179	   O	1259.055	369.365	-1257.462	O.2	12	GLN12	-0.568	
180	  CB	1256.689	369.354	-1255.061	C.3	12	GLN12	-0.004	
181	  CG	1257.048	370.876	-1255.030	C.3	12	GLN12	-0.064	
182	  CD	1256.746	371.689	-1253.765	C.2	12	GLN12	0.695	
183	 NE2	1256.180	371.112	-1252.735	N.pl3	12	GLN12	-0.941	
184	 OE1	1257.047	372.870	-1253.687	O.2	12	GLN12	-0.609	
185	   H	1256.144	366.897	-1255.388	 H	12	GLN12	0.272	
186	  HA	1256.579	369.043	-1257.219	 H	12	GLN12	0.085	
187	 2HB	1257.166	368.854	-1254.192	 H	12	GLN12	0.017	
188	 3HB	1255.599	369.246	-1254.897	 H	12	GLN12	0.017	
189	 2HG	1256.569	371.397	-1255.880	 H	12	GLN12	0.035	
190	 3HG	1258.131	371.019	-1255.196	 H	12	GLN12	0.035	
191	1HE2	1256.073	371.706	-1251.912	 H	12	GLN12	0.425	
192	2HE2	1256.017	370.108	-1252.839	 H	12	GLN12	0.425	
193	   N	1259.355	367.950	-1255.844	N.am	13	ARG13	-0.348	
194	  CA	1260.795	368.017	-1256.076	C.3	13	ARG13	-0.264	
195	   C	1261.130	367.646	-1257.501	C.2	13	ARG13	0.734	
196	   O	1261.897	368.319	-1258.185	O.2	13	ARG13	-0.589	
197	  CB	1261.510	367.078	-1255.063	C.3	13	ARG13	-0.001	
198	  CG	1263.055	367.233	-1254.983	C.3	13	ARG13	0.039	
199	  CD	1263.684	366.246	-1253.986	C.3	13	ARG13	0.049	
200	  NE	1265.161	366.454	-1253.937	N.pl3	13	ARG13	-0.530	
201	  CZ	1266.010	365.763	-1253.183	C.cat	13	ARG13	0.808	
202	 NH1	1265.647	364.798	-1252.386	N.pl3	13	ARG13	-0.863	
203	 NH2	1267.269	366.064	-1253.241	N.pl3	13	ARG13	-0.863	
204	   H	1258.980	367.359	-1255.115	 H	13	ARG13	0.275	
205	  HA	1261.118	369.063	-1255.917	 H	13	ARG13	0.156	
206	 2HB	1261.245	366.028	-1255.302	 H	13	ARG13	0.033	
207	 3HB	1261.086	367.244	-1254.052	 H	13	ARG13	0.033	
208	 2HG	1263.302	368.278	-1254.703	 H	13	ARG13	0.029	
209	 3HG	1263.505	367.078	-1255.985	 H	13	ARG13	0.029	
210	 2HD	1263.440	365.205	-1254.296	 H	13	ARG13	0.069	
211	 3HD	1263.228	366.390	-1252.983	 H	13	ARG13	0.069	
212	  HE	1265.611	367.177	-1254.508	 H	13	ARG13	0.346	
213	1HH1	1264.642	364.611	-1252.388	 H	13	ARG13	0.448	
214	2HH1	1266.361	364.316	-1251.838	 H	13	ARG13	0.448	
215	1HH2	1267.536	366.822	-1253.872	 H	13	ARG13	0.448	
216	2HH2	1267.906	365.523	-1252.653	 H	13	ARG13	0.448	
217	   N	1260.595	366.592	-1258.016	N.am	14	VAL14	-0.416	
218	  CA	1260.919	366.233	-1259.393	C.3	14	VAL14	-0.087	
219	   C	1260.587	367.363	-1260.338	C.2	14	VAL14	0.597	
220	   O	1261.379	367.746	-1261.208	O.2	14	VAL14	-0.568	
221	  CB	1260.147	364.916	-1259.800	C.3	14	VAL14	0.299	
222	 CG1	1260.236	364.498	-1261.294	C.3	14	VAL14	-0.319	
223	 CG2	1260.581	363.663	-1259.001	C.3	14	VAL14	-0.319	
224	   H	1259.961	366.022	-1257.473	 H	14	VAL14	0.272	
225	  HA	1262.007	366.058	-1259.469	 H	14	VAL14	0.097	
226	  HB	1259.071	365.086	-1259.583	 H	14	VAL14	-0.030	
227	1HG1	1261.277	364.322	-1261.624	 H	14	VAL14	0.079	
228	2HG1	1259.664	363.574	-1261.507	 H	14	VAL14	0.079	
229	3HG1	1259.805	365.260	-1261.972	 H	14	VAL14	0.079	
230	1HG2	1260.495	363.821	-1257.910	 H	14	VAL14	0.079	
231	2HG2	1259.946	362.787	-1259.233	 H	14	VAL14	0.079	
232	3HG2	1261.629	363.375	-1259.208	 H	14	VAL14	0.079	
233	   N	1259.441	367.948	-1260.235	N.am	15	MET15	-0.416	
234	  CA	1259.119	369.041	-1261.148	C.3	15	MET15	-0.024	
235	   C	1260.148	370.142	-1261.061	C.2	15	MET15	0.597	
236	   O	1260.650	370.654	-1262.073	O.2	15	MET15	-0.568	
237	  CB	1257.698	369.585	-1260.838	C.3	15	MET15	0.034	
238	  CG	1256.536	368.586	-1261.029	C.3	15	MET15	0.002	
239	  SD	1254.962	369.450	-1260.913	S.3	15	MET15	-0.274	
240	  CE	1253.882	368.020	-1260.777	C.3	15	MET15	-0.054	
241	   H	1258.777	367.654	-1259.533	 H	15	MET15	0.272	
242	  HA	1259.145	368.654	-1262.184	 H	15	MET15	0.088	
243	 2HB	1257.494	370.464	-1261.479	 H	15	MET15	0.024	
244	 3HB	1257.662	369.977	-1259.801	 H	15	MET15	0.024	
245	 2HG	1256.581	367.800	-1260.252	 H	15	MET15	0.044	
246	 3HG	1256.599	368.071	-1262.006	 H	15	MET15	0.044	
247	 1HE	1254.026	367.332	-1261.630	 H	15	MET15	0.068	
248	 2HE	1254.093	367.467	-1259.844	 H	15	MET15	0.068	
249	 3HE	1252.824	368.334	-1260.759	 H	15	MET15	0.068	
250	   N	1260.518	370.562	-1259.898	N.am	16	ARG16	-0.348	
251	  CA	1261.513	371.627	-1259.814	C.3	16	ARG16	-0.264	
252	   C	1262.784	371.236	-1260.532	C.2	16	ARG16	0.734	
253	   O	1262.898	370.160	-1261.114	O.2	16	ARG16	-0.589	
254	  CB	1261.783	371.944	-1258.316	C.3	16	ARG16	-0.001	
255	  CG	1262.607	373.234	-1258.043	C.3	16	ARG16	0.039	
256	  CD	1262.858	373.452	-1256.542	C.3	16	ARG16	0.049	
257	  NE	1263.633	374.712	-1256.341	N.pl3	16	ARG16	-0.530	
258	  CZ	1264.025	375.194	-1255.165	C.cat	16	ARG16	0.808	
259	 NH1	1263.779	374.608	-1254.027	N.pl3	16	ARG16	-0.863	
260	 NH2	1264.688	376.307	-1255.146	N.pl3	16	ARG16	-0.863	
261	   H	1260.124	370.161	-1259.059	 H	16	ARG16	0.275	
262	  HA	1261.103	372.520	-1260.323	 H	16	ARG16	0.156	
263	 2HB	1262.281	371.068	-1257.851	 H	16	ARG16	0.033	
264	 3HB	1260.815	372.024	-1257.781	 H	16	ARG16	0.033	
265	 2HG	1262.076	374.104	-1258.479	 H	16	ARG16	0.029	
266	 3HG	1263.580	373.182	-1258.573	 H	16	ARG16	0.029	
267	 2HD	1263.408	372.578	-1256.130	 H	16	ARG16	0.069	
268	 3HD	1261.885	373.493	-1256.006	 H	16	ARG16	0.069	
269	  HE	1263.910	375.294	-1257.137	 H	16	ARG16	0.346	
270	1HH1	1263.254	373.735	-1254.111	 H	16	ARG16	0.448	
271	2HH1	1264.113	375.043	-1253.165	 H	16	ARG16	0.448	
272	1HH2	1264.872	376.751	-1256.048	 H	16	ARG16	0.448	
273	2HH2	1264.978	376.661	-1254.234	 H	16	ARG16	0.448	
@<TRIPOS>BOND
1 1 2 1
2 1 10 1
3 2 3 1
4 2 5 1
5 2 11 1
6 3 4 2
7 3 16 1
8 5 6 1
9 6 7 1
10 7 8 2
11 7 9 1
12 5 12 1
13 5 13 1
14 6 14 1
15 6 15 1
16 16 17 1
17 16 24 1
18 17 18 1
19 17 20 1
20 17 25 1
21 18 19 2
22 18 30 1
23 20 21 1
24 21 22 1
25 21 23 2
26 20 26 1
27 20 27 1
28 22 28 1
29 22 29 1
30 30 31 1
31 30 36 1
32 31 32 1
33 31 34 1
34 31 37 1
35 32 33 2
36 32 44 1
37 34 35 1
38 35 36 1
39 34 38 1
40 34 39 1
41 35 40 1
42 35 41 1
43 36 42 1
44 36 43 1
45 44 45 1
46 44 53 1
47 45 46 1
48 45 48 1
49 45 54 1
50 46 47 2
51 46 59 1
52 48 49 1
53 49 50 1
54 50 51 2
55 50 52 1
56 48 55 1
57 48 56 1
58 49 57 1
59 49 58 1
60 59 60 1
61 59 65 1
62 60 61 1
63 60 63 1
64 60 66 1
65 61 62 2
66 61 70 1
67 63 64 1
68 63 67 1
69 63 68 1
70 64 69 1
71 70 71 1
72 70 78 1
73 71 72 1
74 71 74 1
75 71 79 1
76 72 73 2
77 72 89 1
78 74 75 1
79 74 76 1
80 75 77 1
81 74 80 1
82 75 81 1
83 75 82 1
84 76 83 1
85 76 84 1
86 76 85 1
87 77 86 1
88 77 87 1
89 77 88 1
90 89 90 1
91 89 97 1
92 90 91 1
93 90 93 1
94 90 98 1
95 91 92 2
96 91 108 1
97 93 94 1
98 94 95 1
99 94 96 1
100 93 99 1
101 93 100 1
102 94 101 1
103 95 102 1
104 95 103 1
105 95 104 1
106 96 105 1
107 96 106 1
108 96 107 1
109 108 109 1
110 108 119 1
111 109 110 1
112 109 112 1
113 109 120 1
114 110 111 2
115 110 128 1
116 112 113 1
117 113 114 2
118 113 115 1
119 115 117 2
120 114 116 1
121 117 118 1
122 116 118 2
123 112 121 1
124 112 122 1
125 114 123 1
126 115 124 1
127 116 125 1
128 117 126 1
129 118 127 1
130 128 129 1
131 128 137 1
132 129 130 1
133 129 132 1
134 129 138 1
135 130 131 2
136 130 143 1
137 132 133 1
138 133 134 1
139 134 135 2
140 134 136 1
141 132 139 1
142 132 140 1
143 133 141 1
144 133 142 1
145 143 144 1
146 143 153 1
147 144 145 1
148 144 147 1
149 144 154 1
150 145 146 2
151 145 160 1
152 147 148 1
153 148 149 2
154 149 152 1
155 148 150 1
156 150 151 2
157 151 152 1
158 147 155 1
159 147 156 1
160 149 157 1
161 151 158 1
162 152 159 1
163 160 161 1
164 160 167 1
165 161 162 1
166 161 164 1
167 161 168 1
168 162 163 2
169 162 176 1
170 164 165 1
171 164 166 1
172 164 169 1
173 165 170 1
174 165 171 1
175 165 172 1
176 166 173 1
177 166 174 1
178 166 175 1
179 176 177 1
180 176 185 1
181 177 178 1
182 177 180 1
183 177 186 1
184 178 179 2
185 178 193 1
186 180 181 1
187 181 182 1
188 182 183 1
189 182 184 2
190 180 187 1
191 180 188 1
192 181 189 1
193 181 190 1
194 183 191 1
195 183 192 1
196 193 194 1
197 193 204 1
198 194 195 1
199 194 197 1
200 194 205 1
201 195 196 2
202 195 217 1
203 197 198 1
204 198 199 1
205 199 200 1
206 200 201 1
207 201 202 2
208 201 203 1
209 197 206 1
210 197 207 1
211 198 208 1
212 198 209 1
213 199 210 1
214 199 211 1
215 200 212 1
216 202 213 1
217 202 214 1
218 203 215 1
219 203 216 1
220 217 218 1
221 217 224 1
222 218 219 1
223 218 221 1
224 218 225 1
225 219 220 2
226 219 233 1
227 221 222 1
228 221 223 1
229 221 226 1
230 222 227 1
231 222 228 1
232 222 229 1
233 223 230 1
234 223 231 1
235 223 232 1
236 233 234 1
237 233 241 1
238 234 235 1
239 234 237 1
240 234 242 1
241 235 236 2
242 235 250 1
243 237 238 1
244 238 239 1
245 239 240 1
246 237 243 1
247 237 244 1
248 238 245 1
249 238 246 1
250 240 247 1
251 240 248 1
252 240 249 1
253 250 251 1
254 250 261 1
255 251 252 1
256 251 254 1
257 251 262 1
258 252 253 2
259 254 255 1
260 255 256 1
261 256 257 1
262 257 258 1
263 258 259 2
264 258 260 1
265 254 263 1
266 254 264 1
267 255 265 1
268 255 266 1
269 256 267 1
270 256 268 1
271 257 269 1
272 259 270 1
273 259 271 1
274 260 272 1
275 260 273 1
@<TRIPOS>SUBSTRUCTURE
1	GLU1	1	RESIDUE	1 ****	GLU
2	ASN2	16	RESIDUE	1 ****	ASN
3	PRO3	30	RESIDUE	1 ****	PRO
4	GLU4	44	RESIDUE	1 ****	GLU
5	SER5	59	RESIDUE	1 ****	SER
6	ILE6	70	RESIDUE	1 ****	ILE
7	LEU7	89	RESIDUE	1 ****	LEU
8	PHE8	108	RESIDUE	1 ****	PHE
9	GLU9	128	RESIDUE	1 ****	GLU
10	HIS10	143	RESIDUE	1 ****	HIS
11	VAL11	160	RESIDUE	1 ****	VAL
12	GLN12	176	RESIDUE	1 ****	GLN
13	ARG13	193	RESIDUE	1 ****	ARG
14	VAL14	217	RESIDUE	1 ****	VAL
15	MET15	233	RESIDUE	1 ****	MET
16	ARG16	250	RESIDUE	1 ****	ARG
