REMARK WARNING: 32 MAX_TORS EXCEEDED!!!
REMARK  66 active torsions:
REMARK  status: ('A' for Active; 'I' for Inactive)
REMARK    1  A    between atoms: N_1  and  CA_2 
REMARK    2  A    between atoms: CA_2  and  C_3 
REMARK    3  A    between atoms: CA_2  and  CB_5 
REMARK       I    between atoms: C_3  and  N_11 
REMARK    4  A    between atoms: CB_5  and  CG_6 
REMARK    5  A    between atoms: CG_6  and  CD_7 
REMARK    6  A    between atoms: N_11  and  CA_12 
REMARK    7  A    between atoms: CA_12  and  C_13 
REMARK    8  A    between atoms: CA_12  and  CB_15 
REMARK       I    between atoms: C_13  and  N_22 
REMARK    9  A    between atoms: CB_15  and  CG_16 
REMARK       I    between atoms: CG_16  and  ND2_17 
REMARK   10  A    between atoms: CA_23  and  C_24 
REMARK       I    between atoms: C_24  and  N_29 
REMARK   11  A    between atoms: N_29  and  CA_30 
REMARK   12  A    between atoms: CA_30  and  C_31 
REMARK   13  A    between atoms: CA_30  and  CB_33 
REMARK       I    between atoms: C_31  and  N_39 
REMARK   14  A    between atoms: CB_33  and  CG_34 
REMARK   15  A    between atoms: CG_34  and  CD_35 
REMARK   16  A    between atoms: N_39  and  CA_40 
REMARK   17  A    between atoms: CA_40  and  C_41 
REMARK   18  A    between atoms: CA_40  and  CB_43 
REMARK       I    between atoms: C_41  and  N_47 
REMARK   19  A    between atoms: CB_43  and  OG_44 
REMARK   20  A    between atoms: N_47  and  CA_48 
REMARK   21  A    between atoms: CA_48  and  C_49 
REMARK   22  A    between atoms: CA_48  and  CB_51 
REMARK       I    between atoms: C_49  and  N_56 
REMARK   23  A    between atoms: CB_51  and  CG1_52 
REMARK   24  A    between atoms: N_56  and  CA_57 
REMARK   25  A    between atoms: CA_57  and  C_58 
REMARK   26  A    between atoms: CA_57  and  CB_60 
REMARK       I    between atoms: C_58  and  N_65 
REMARK   27  A    between atoms: CB_60  and  CG_61 
REMARK   28  A    between atoms: N_65  and  CA_66 
REMARK   29  A    between atoms: CA_66  and  C_67 
REMARK   30  A    between atoms: CA_66  and  CB_69 
REMARK       I    between atoms: C_67  and  N_74 
REMARK   31  A    between atoms: CB_69  and  CG_70 
REMARK   32  A    between atoms: N_74  and  CA_75 
REMARK   33  A    between atoms: CA_75  and  C_76 
REMARK   34  A    between atoms: CA_75  and  CB_78 
REMARK       I    between atoms: C_76  and  N_84 
REMARK   35  A    between atoms: CB_78  and  CG_79 
REMARK   36  A    between atoms: CG_79  and  CD_80 
REMARK   37  A    between atoms: N_84  and  CA_85 
REMARK   38  A    between atoms: CA_85  and  C_86 
REMARK   39  A    between atoms: CA_85  and  CB_88 
REMARK       I    between atoms: C_86  and  N_96 
REMARK   40  A    between atoms: CB_88  and  CG_89 
REMARK   41  A    between atoms: N_96  and  CA_97 
REMARK   42  A    between atoms: CA_97  and  C_98 
REMARK   43  A    between atoms: CA_97  and  CB_100 
REMARK       I    between atoms: C_98  and  N_104 
REMARK   44  A    between atoms: N_104  and  CA_105 
REMARK   45  A    between atoms: CA_105  and  C_106 
REMARK   46  A    between atoms: CA_105  and  CB_108 
REMARK       I    between atoms: C_106  and  N_112 
REMARK   47  A    between atoms: N_112  and  CA_113 
REMARK   48  A    between atoms: CA_113  and  C_114 
REMARK   49  A    between atoms: CA_113  and  CB_116 
REMARK       I    between atoms: C_114  and  N_129 
REMARK   50  A    between atoms: CB_116  and  CG_117 
REMARK   51  A    between atoms: CG_117  and  CD_118 
REMARK   52  A    between atoms: CD_118  and  NE_119 
REMARK       I    between atoms: NE_119  and  CZ_120 
REMARK       I    between atoms: CZ_120  and  NH1_121 
REMARK       I    between atoms: CZ_120  and  NH2_122 
REMARK   53  A    between atoms: N_129  and  CA_130 
REMARK   54  A    between atoms: CA_130  and  C_131 
REMARK   55  A    between atoms: CA_130  and  CB_133 
REMARK       I    between atoms: C_131  and  N_137 
REMARK   56  A    between atoms: N_137  and  CA_138 
REMARK   57  A    between atoms: CA_138  and  C_139 
REMARK   58  A    between atoms: CA_138  and  CB_141 
REMARK       I    between atoms: C_139  and  N_146 
REMARK   59  A    between atoms: CB_141  and  CG_142 
REMARK   60  A    between atoms: CG_142  and  SD_143 
REMARK   61  A    between atoms: N_146  and  CA_147 
REMARK   62  A    between atoms: CA_147  and  C_148 
REMARK   63  A    between atoms: CA_147  and  CB_150 
REMARK   64  A    between atoms: CB_150  and  CG_151 
REMARK   65  A    between atoms: CG_151  and  CD_152 
REMARK   66  A    between atoms: CD_152  and  NE_153 
REMARK       I    between atoms: NE_153  and  CZ_154 
REMARK       I    between atoms: CZ_154  and  NH1_155 
ROOT
ATOM      1  CA  GLU d   9    1879.537 569.147-1927.216  0.00  0.00     0.177 C 
ENDROOT
BRANCH   1   2
ATOM      2  N   GLU d   9    1878.235 568.489-1927.271  0.00  0.00    -0.346 N 
ATOM      3  C   ASP d   8    1877.555 568.539-1928.366  0.00  0.00     0.241 C 
ATOM      4  O   ASP d   8    1878.028 569.145-1929.341  0.00  0.00    -0.271 OA
ATOM      5  H   GLU d   9    1877.872 568.003-1926.464  0.00  0.00     0.163 HD
BRANCH   3   6
ATOM      6  CA  ASP d   8    1876.209 567.859-1928.423  0.00  0.00     0.186 C 
BRANCH   6   7
ATOM      7  N   ASP d   8    1876.279 566.510-1927.870  0.00  0.00    -0.346 N 
ATOM      8  C   LEU d   7    1877.117 565.669-1928.377  0.00  0.00     0.241 C 
ATOM      9  O   LEU d   7    1877.838 566.032-1929.318  0.00  0.00    -0.271 OA
ATOM     10  H   ASP d   8    1875.681 566.238-1927.103  0.00  0.00     0.163 HD
BRANCH   8  11
ATOM     11  CA  LEU d   7    1877.189 564.274-1927.804  0.00  0.00     0.177 C 
BRANCH  11  12
ATOM     12  N   LEU d   7    1877.244 564.310-1926.346  0.00  0.00    -0.346 N 
ATOM     13  C   ILE d   6    1878.190 564.974-1925.772  0.00  0.00     0.241 C 
ATOM     14  O   ILE d   6    1879.025 565.562-1926.476  0.00  0.00    -0.271 OA
ATOM     15  H   LEU d   7    1876.552 563.823-1925.794  0.00  0.00     0.163 HD
BRANCH  13  16
ATOM     16  CA  ILE d   6    1878.247 565.011-1924.264  0.00  0.00     0.180 C 
BRANCH  16  17
ATOM     17  N   ILE d   6    1876.934 565.306-1923.698  0.00  0.00    -0.346 N 
ATOM     18  C   SER d   5    1876.329 566.389-1924.052  0.00  0.00     0.243 C 
ATOM     19  O   SER d   5    1876.877 567.142-1924.857  0.00  0.00    -0.271 OA
ATOM     20  H   ILE d   6    1876.506 564.672-1923.039  0.00  0.00     0.163 HD
BRANCH  18  21
ATOM     21  CA  SER d   5    1874.970 566.695-1923.467  0.00  0.00     0.200 C 
BRANCH  21  22
ATOM     22  N   SER d   5    1874.101 565.523-1923.525  0.00  0.00    -0.344 N 
ATOM     23  C   GLU d   4    1873.874 564.970-1924.668  0.00  0.00     0.241 C 
ATOM     24  O   GLU d   4    1874.400 565.450-1925.683  0.00  0.00    -0.271 OA
ATOM     25  H   SER d   5    1873.684 565.152-1922.683  0.00  0.00     0.163 HD
BRANCH  23  26
ATOM     26  CA  GLU d   4    1872.975 563.759-1924.729  0.00  0.00     0.177 C 
BRANCH  26  27
ATOM     27  N   GLU d   4    1873.334 562.788-1923.700  0.00  0.00    -0.346 N 
ATOM     28  C   PRO d   3    1874.539 562.328-1923.667  0.00  0.00     0.241 C 
ATOM     29  O   PRO d   3    1875.362 562.711-1924.499  0.00  0.00    -0.271 OA
ATOM     30  H   GLU d   4    1872.650 562.482-1923.023  0.00  0.00     0.163 HD
BRANCH  28  31
ATOM     31  CA  PRO d   3    1874.937 561.305-1922.590  0.00  0.00     0.179 C 
ATOM     32  N   PRO d   3    1874.485 561.714-1921.269  0.00  0.00    -0.337 N 
ATOM     33  C   ASN d   2    1875.007 562.709-1920.635  0.00  0.00     0.243 C 
ATOM     34  CD  PRO d   3    1873.407 560.921-1920.720  0.00  0.00     0.127 C 
ATOM     35  O   ASN d   2    1875.922 563.340-1921.164  0.00  0.00    -0.271 OA
ATOM     36  CG  PRO d   3    1872.950 560.102-1921.930  0.00  0.00     0.022 C 
ATOM     37  CB  PRO d   3    1874.233 559.950-1922.760  0.00  0.00     0.037 C 
BRANCH  33  38
ATOM     38  CA  ASN d   2    1874.476 563.065-1919.266  0.00  0.00     0.185 C 
BRANCH  38  39
ATOM     39  N   ASN d   2    1873.016 563.104-1919.266  0.00  0.00    -0.346 N 
ATOM     40  C   GLU d   1    1872.412 563.889-1920.091  0.00  0.00     0.242 C 
ATOM     41  O   GLU d   1    1873.088 564.588-1920.860  0.00  0.00    -0.271 OA
ATOM     42  H   ASN d   2    1872.488 562.524-1918.630  0.00  0.00     0.163 HD
BRANCH  40  43
ATOM     43  CA  GLU d   1    1870.903 563.929-1920.091  0.00  0.00     0.191 C 
BRANCH  43  44
ATOM     44  N   GLU d   1    1870.344 562.580-1920.091  0.00  0.00    -0.326 NA
ATOM     45  H   GLU d   1    1870.971 561.701-1920.091  0.00  0.00     0.180 HD
ENDBRANCH  43  44
BRANCH  43  46
ATOM     46  CB  GLU d   1    1870.380 564.714-1918.854  0.00  0.00     0.047 C 
BRANCH  46  47
ATOM     47  CG  GLU d   1    1870.855 566.199-1918.743  0.00  0.00     0.116 C 
BRANCH  47  48
ATOM     48  CD  GLU d   1    1870.431 567.003-1917.528  0.00  0.00     0.172 C 
ATOM     49  OE1 GLU d   1    1869.703 566.501-1916.650  0.00  0.00    -0.648 OA
ATOM     50  OE2 GLU d   1    1870.861 568.173-1917.456  0.00  0.00    -0.648 OA
ENDBRANCH  47  48
ENDBRANCH  46  47
ENDBRANCH  43  46
ENDBRANCH  40  43
ENDBRANCH  38  39
BRANCH  38  51
ATOM     51  CB  ASN d   2    1874.968 562.042-1918.202  0.00  0.00     0.137 C 
BRANCH  51  52
ATOM     52  CG  ASN d   2    1874.504 562.266-1916.759  0.00  0.00     0.217 C 
ATOM     53  ND2 ASN d   2    1875.099 563.181-1916.040  0.00  0.00    -0.370 N 
ATOM     54 21HD ASN d   2    1874.618 563.354-1915.154  0.00  0.00     0.159 HD
ATOM     55 22HD ASN d   2    1875.801 563.752-1916.510  0.00  0.00     0.159 HD
ATOM     56  OD1 ASN d   2    1873.584 561.632-1916.264  0.00  0.00    -0.274 OA
ENDBRANCH  51  52
ENDBRANCH  38  51
ENDBRANCH  33  38
ENDBRANCH  28  31
ENDBRANCH  26  27
BRANCH  26  57
ATOM     57  CB  GLU d   4    1871.486 564.178-1924.559  0.00  0.00     0.045 C 
BRANCH  57  58
ATOM     58  CG  GLU d   4    1870.938 565.182-1925.625  0.00  0.00     0.116 C 
BRANCH  58  59
ATOM     59  CD  GLU d   4    1869.512 565.679-1925.481  0.00  0.00     0.172 C 
ATOM     60  OE1 GLU d   4    1868.785 565.280-1924.550  0.00  0.00    -0.648 OA
ATOM     61  OE2 GLU d   4    1869.122 566.508-1926.329  0.00  0.00    -0.648 OA
ENDBRANCH  58  59
ENDBRANCH  57  58
ENDBRANCH  26  57
ENDBRANCH  23  26
ENDBRANCH  21  22
BRANCH  21  62
ATOM     62  CB  SER d   5    1875.082 567.227-1922.016  0.00  0.00     0.199 C 
BRANCH  62  63
ATOM     63  OG  SER d   5    1875.814 566.348-1921.155  0.00  0.00    -0.398 OA
ATOM     64  HG  SER d   5    1875.325 565.523-1921.104  0.00  0.00     0.209 HD
ENDBRANCH  62  63
ENDBRANCH  21  62
ENDBRANCH  18  21
ENDBRANCH  16  17
BRANCH  16  65
ATOM     65  CB  ILE d   6    1878.847 563.675-1923.664  0.00  0.00     0.013 C 
ATOM     66  CG2 ILE d   6    1880.289 563.373-1924.179  0.00  0.00     0.012 C 
BRANCH  65  67
ATOM     67  CG1 ILE d   6    1878.867 563.613-1922.103  0.00  0.00     0.002 C 
ATOM     68  CD1 ILE d   6    1879.137 562.224-1921.488  0.00  0.00     0.005 C 
ENDBRANCH  65  67
ENDBRANCH  16  65
ENDBRANCH  13  16
ENDBRANCH  11  12
BRANCH  11  69
ATOM     69  CB  LEU d   7    1875.986 563.413-1928.284  0.00  0.00     0.038 C 
BRANCH  69  70
ATOM     70  CG  LEU d   7    1875.914 561.934-1927.818  0.00  0.00    -0.020 C 
ATOM     71  CD1 LEU d   7    1874.724 561.228-1928.484  0.00  0.00     0.009 C 
ATOM     72  CD2 LEU d   7    1877.208 561.155-1928.109  0.00  0.00     0.009 C 
ENDBRANCH  69  70
ENDBRANCH  11  69
ENDBRANCH   8  11
ENDBRANCH   6   7
BRANCH   6  73
ATOM     73  CB  ASP d   8    1875.130 568.698-1927.682  0.00  0.00     0.147 C 
BRANCH  73  74
ATOM     74  CG  ASP d   8    1874.911 570.119-1928.222  0.00  0.00     0.175 C 
ATOM     75  OD1 ASP d   8    1874.975 570.318-1929.453  0.00  0.00    -0.648 OA
ATOM     76  OD2 ASP d   8    1874.719 571.044-1927.406  0.00  0.00    -0.648 OA
ENDBRANCH  73  74
ENDBRANCH   6  73
ENDBRANCH   3   6
ENDBRANCH   1   2
BRANCH   1  77
ATOM     77  C   GLU d   9    1880.456 568.620-1928.292  0.00  0.00     0.241 C 
ATOM     78  O   GLU d   9    1881.119 569.375-1929.017  0.00  0.00    -0.271 OA
ATOM     79  N   HIS d  10    1880.553 567.345-1928.461  0.00  0.00    -0.346 N 
ATOM     80  H   HIS d  10    1880.023 566.709-1927.883  0.00  0.00     0.163 HD
BRANCH  79  81
ATOM     81  CA  HIS d  10    1881.441 566.835-1929.502  0.00  0.00     0.182 C 
BRANCH  81  82
ATOM     82  C   HIS d  10    1881.073 567.399-1930.853  0.00  0.00     0.241 C 
ATOM     83  O   HIS d  10    1881.926 567.865-1931.625  0.00  0.00    -0.271 OA
ATOM     84  N   VAL d  11    1879.836 567.398-1931.216  0.00  0.00    -0.346 N 
ATOM     85  H   VAL d  11    1879.123 567.024-1930.605  0.00  0.00     0.163 HD
BRANCH  84  86
ATOM     86  CA  VAL d  11    1879.480 567.944-1932.522  0.00  0.00     0.180 C 
BRANCH  86  87
ATOM     87  C   VAL d  11    1879.943 569.375-1932.655  0.00  0.00     0.241 C 
ATOM     88  O   VAL d  11    1880.544 569.781-1933.658  0.00  0.00    -0.271 OA
ATOM     89  N   VAL d  12    1879.706 570.200-1931.692  0.00  0.00    -0.346 N 
ATOM     90  H   VAL d  12    1879.218 569.894-1930.863  0.00  0.00     0.163 HD
BRANCH  89  91
ATOM     91  CA  VAL d  12    1880.154 571.584-1931.819  0.00  0.00     0.180 C 
BRANCH  91  92
ATOM     92  C   VAL d  12    1881.643 571.651-1932.058  0.00  0.00     0.241 C 
ATOM     93  O   VAL d  12    1882.136 572.363-1932.942  0.00  0.00    -0.271 OA
ATOM     94  N   ARG d  13    1882.427 570.943-1931.317  0.00  0.00    -0.346 N 
ATOM     95  H   ARG d  13    1882.050 570.354-1930.588  0.00  0.00     0.163 HD
BRANCH  94  96
ATOM     96  CA  ARG d  13    1883.868 571.008-1931.547  0.00  0.00     0.176 C 
BRANCH  96  97
ATOM     97  C   ARG d  13    1884.204 570.636-1932.972  0.00  0.00     0.241 C 
ATOM     98  O   ARG d  13    1884.973 571.307-1933.656  0.00  0.00    -0.271 OA
ATOM     99  N   VAL d  14    1883.667 569.582-1933.486  0.00  0.00    -0.346 N 
ATOM    100  H   VAL d  14    1883.031 569.014-1932.944  0.00  0.00     0.163 HD
BRANCH  99 101
ATOM    101  CA  VAL d  14    1883.991 569.222-1934.864  0.00  0.00     0.180 C 
BRANCH 101 102
ATOM    102  C   VAL d  14    1883.662 570.352-1935.809  0.00  0.00     0.241 C 
ATOM    103  O   VAL d  14    1884.456 570.733-1936.679  0.00  0.00    -0.271 OA
ATOM    104  N   MET d  15    1882.518 570.939-1935.708  0.00  0.00    -0.346 N 
ATOM    105  H   MET d  15    1881.853 570.646-1935.006  0.00  0.00     0.163 HD
BRANCH 104 106
ATOM    106  CA  MET d  15    1882.199 572.032-1936.622  0.00  0.00     0.177 C 
BRANCH 106 107
ATOM    107  C   MET d  15    1883.229 573.131-1936.534  0.00  0.00     0.241 C 
ATOM    108  O   MET d  15    1883.733 573.641-1937.546  0.00  0.00    -0.271 OA
ATOM    109  N   ARG d  16    1883.598 573.551-1935.371  0.00  0.00    -0.347 N 
ATOM    110  H   ARG d  16    1883.203 573.152-1934.532  0.00  0.00     0.163 HD
BRANCH 109 111
ATOM    111  CA  ARG d  16    1884.596 574.615-1935.287  0.00  0.00     0.162 C 
BRANCH 111 112
ATOM    112  C   ARG d  16    1885.866 574.221-1936.003  0.00  0.00     0.219 C 
ATOM    113  O   ARG d  16    1885.979 573.145-1936.585  0.00  0.00    -0.287 OA
ENDBRANCH 111 112
BRANCH 111 114
ATOM    114  CB  ARG d  16    1884.865 574.932-1933.789  0.00  0.00     0.035 C 
BRANCH 114 115
ATOM    115  CG  ARG d  16    1885.691 576.220-1933.516  0.00  0.00     0.023 C 
BRANCH 115 116
ATOM    116  CD  ARG d  16    1885.940 576.439-1932.014  0.00  0.00     0.138 C 
BRANCH 116 117
ATOM    117  NE  ARG d  16    1886.717 577.698-1931.813  0.00  0.00    -0.227 N 
ATOM    118  CZ  ARG d  16    1887.109 578.180-1930.637  0.00  0.00     0.665 C 
ATOM    119  NH1 ARG d  16    1886.860 577.595-1929.499  0.00  0.00    -0.235 N 
ATOM    120  NH2 ARG d  16    1887.773 579.292-1930.618  0.00  0.00    -0.235 N 
ATOM    121 11HH ARG d  16    1886.334 576.722-1929.583  0.00  0.00     0.174 HD
ATOM    122 12HH ARG d  16    1887.195 578.030-1928.638  0.00  0.00     0.174 HD
ATOM    123 21HH ARG d  16    1887.959 579.735-1931.520  0.00  0.00     0.174 HD
ATOM    124 22HH ARG d  16    1888.064 579.646-1929.706  0.00  0.00     0.174 HD
ATOM    125  HE  ARG d  16    1886.996 578.279-1932.610  0.00  0.00     0.177 HD
ENDBRANCH 116 117
ENDBRANCH 115 116
ENDBRANCH 114 115
ENDBRANCH 111 114
ENDBRANCH 109 111
ENDBRANCH 106 107
BRANCH 106 126
ATOM    126  CB  MET d  15    1880.778 572.578-1936.313  0.00  0.00     0.045 C 
BRANCH 126 127
ATOM    127  CG  MET d  15    1879.615 571.581-1936.505  0.00  0.00     0.076 C 
BRANCH 127 128
ATOM    128  SD  MET d  15    1878.041 572.448-1936.391  0.00  0.00    -0.173 SA
ATOM    129  CE  MET d  15    1876.959 571.019-1936.254  0.00  0.00     0.089 C 
ENDBRANCH 127 128
ENDBRANCH 126 127
ENDBRANCH 106 126
ENDBRANCH 104 106
ENDBRANCH 101 102
BRANCH 101 130
ATOM    130  CB  VAL d  14    1883.218 567.905-1935.270  0.00  0.00     0.009 C 
ATOM    131  CG1 VAL d  14    1883.307 567.487-1936.764  0.00  0.00     0.012 C 
ATOM    132  CG2 VAL d  14    1883.648 566.653-1934.470  0.00  0.00     0.012 C 
ENDBRANCH 101 130
ENDBRANCH  99 101
ENDBRANCH  96  97
BRANCH  96 133
ATOM    133  CB  ARG d  13    1884.580 570.069-1930.533  0.00  0.00     0.036 C 
BRANCH 133 134
ATOM    134  CG  ARG d  13    1886.125 570.221-1930.452  0.00  0.00     0.023 C 
BRANCH 134 135
ATOM    135  CD  ARG d  13    1886.751 569.233-1929.453  0.00  0.00     0.138 C 
BRANCH 135 136
ATOM    136  NE  ARG d  13    1888.229 569.439-1929.403  0.00  0.00    -0.227 N 
ATOM    137  CZ  ARG d  13    1889.076 568.747-1928.647  0.00  0.00     0.665 C 
ATOM    138  NH1 ARG d  13    1888.710 567.783-1927.850  0.00  0.00    -0.235 N 
ATOM    139  NH2 ARG d  13    1890.336 569.045-1928.704  0.00  0.00    -0.235 N 
ATOM    140 11HH ARG d  13    1887.704 567.598-1927.853  0.00  0.00     0.174 HD
ATOM    141 12HH ARG d  13    1889.423 567.299-1927.301  0.00  0.00     0.174 HD
ATOM    142 21HH ARG d  13    1890.604 569.802-1929.335  0.00  0.00     0.174 HD
ATOM    143 22HH ARG d  13    1890.970 568.503-1928.115  0.00  0.00     0.174 HD
ATOM    144  HE  ARG d  13    1888.680 570.161-1929.974  0.00  0.00     0.177 HD
ENDBRANCH 135 136
ENDBRANCH 134 135
ENDBRANCH 133 134
ENDBRANCH  96 133
ENDBRANCH  94  96
ENDBRANCH  91  92
BRANCH  91 145
ATOM    145  CB  VAL d  12    1879.755 572.398-1930.525  0.00  0.00     0.009 C 
ATOM    146  CG1 VAL d  12    1880.319 573.841-1930.417  0.00  0.00     0.012 C 
ATOM    147  CG2 VAL d  12    1878.227 572.541-1930.321  0.00  0.00     0.012 C 
ENDBRANCH  91 145
ENDBRANCH  89  91
ENDBRANCH  86  87
BRANCH  86 148
ATOM    148  CB  VAL d  11    1877.919 567.837-1932.741  0.00  0.00     0.009 C 
ATOM    149  CG1 VAL d  11    1877.349 568.540-1934.004  0.00  0.00     0.012 C 
ATOM    150  CG2 VAL d  11    1877.395 566.382-1932.815  0.00  0.00     0.012 C 
ENDBRANCH  86 148
ENDBRANCH  84  86
ENDBRANCH  81  82
BRANCH  81 151
ATOM    151  CB  HIS d  10    1881.278 565.306-1929.498  0.00  0.00     0.095 C 
BRANCH 151 152
ATOM    152  CG  HIS d  10    1882.564 564.596-1929.190  0.00  0.00     0.053 A 
ATOM    153  CD2 HIS d  10    1882.945 564.260-1927.897  0.00  0.00     0.116 A 
ATOM    154  NE2 HIS d  10    1884.160 563.629-1927.964  0.00  0.00    -0.359 N 
ATOM    155  CE1 HIS d  10    1884.423 563.633-1929.300  0.00  0.00     0.207 A 
ATOM    156  2HE HIS d  10    1884.727 563.252-1927.191  0.00  0.00     0.166 HD
ATOM    157  ND1 HIS d  10    1883.516 564.191-1930.123  0.00  0.00    -0.247 NA
ENDBRANCH 151 152
ENDBRANCH  81 151
ENDBRANCH  79  81
ENDBRANCH   1  77
BRANCH   1 158
ATOM    158  CB  GLU d   9    1880.171 568.940-1925.810  0.00  0.00     0.045 C 
BRANCH 158 159
ATOM    159  CG  GLU d   9    1881.554 569.633-1925.581  0.00  0.00     0.116 C 
BRANCH 159 160
ATOM    160  CD  GLU d   9    1882.256 569.420-1924.253  0.00  0.00     0.172 C 
ATOM    161  OE1 GLU d   9    1881.735 568.728-1923.357  0.00  0.00    -0.648 OA
ATOM    162  OE2 GLU d   9    1883.375 569.958-1924.121  0.00  0.00    -0.648 OA
ENDBRANCH 159 160
ENDBRANCH 158 159
ENDBRANCH   1 158
TORSDOF 66
