@<TRIPOS>MOLECULE
16-6
260 261 16              
SMALL
USER_CHARGES
@<TRIPOS>ATOM
1	   N	2537.920	778.571	-2648.480	N.3	1	GLU1	-0.516	
2	  CA	2538.479	779.920	-2648.480	C.3	1	GLU1	0.040	
3	   C	2539.988	779.880	-2648.480	C.2	1	GLU1	0.537	
4	   O	2540.664	780.579	-2649.249	O.2	1	GLU1	-0.582	
5	  CB	2537.956	780.705	-2647.243	C.3	1	GLU1	0.056	
6	  CG	2538.431	782.190	-2647.132	C.3	1	GLU1	0.014	
7	  CD	2538.007	782.994	-2645.917	C.2	1	GLU1	0.805	
8	 OE1	2537.279	782.492	-2645.039	O.co2	1	GLU1	-0.819	
9	 OE2	2538.437	784.164	-2645.845	O.co2	1	GLU1	-0.819	
10	   H	2538.547	777.692	-2648.480	 H	1	GLU1	0.294	
11	  HA	2538.153	780.438	-2649.400	 H	1	GLU1	0.111	
12	 2HB	2538.245	780.174	-2646.313	 H	1	GLU1	-0.017	
13	 3HB	2536.849	780.695	-2647.230	 H	1	GLU1	-0.017	
14	 2HG	2538.121	782.775	-2648.013	 H	1	GLU1	-0.043	
15	 3HG	2539.531	782.257	-2647.103	 H	1	GLU1	-0.043	
16	   N	2540.593	779.094	-2647.655	N.am	2	ASN2	-0.416	
17	  CA	2542.052	779.055	-2647.655	C.3	2	ASN2	0.014	
18	   C	2542.583	778.700	-2649.023	C.2	2	ASN2	0.597	
19	   O	2543.499	779.330	-2649.551	O.2	2	ASN2	-0.568	
20	  CB	2542.544	778.032	-2646.590	C.3	2	ASN2	-0.204	
21	  CG	2542.080	778.256	-2645.147	C.2	2	ASN2	0.713	
22	 ND2	2542.674	779.171	-2644.428	N.pl3	2	ASN2	-0.919	
23	 OD1	2541.159	777.623	-2644.653	O.2	2	ASN2	-0.593	
24	   H	2540.064	778.515	-2647.018	 H	2	ASN2	0.272	
25	  HA	2542.430	780.065	-2647.409	 H	2	ASN2	0.105	
26	 2HB	2543.648	777.973	-2646.593	 H	2	ASN2	0.080	
27	 3HB	2542.215	777.014	-2646.876	 H	2	ASN2	0.080	
28	1HD2	2542.193	779.344	-2643.542	 H	2	ASN2	0.420	
29	2HD2	2543.376	779.743	-2644.897	 H	2	ASN2	0.420	
30	   N	2542.062	777.705	-2649.657	N.am	3	PRO3	-0.255	
31	  CA	2542.514	777.296	-2650.979	C.3	3	PRO3	-0.027	
32	   C	2542.116	778.319	-2652.056	C.2	3	PRO3	0.590	
33	   O	2542.940	778.702	-2652.887	O.2	3	PRO3	-0.575	
34	  CB	2541.810	775.941	-2651.148	C.3	3	PRO3	-0.007	
35	  CG	2540.526	776.093	-2650.319	C.3	3	PRO3	0.019	
36	  CD	2540.984	776.912	-2649.109	C.3	3	PRO3	0.019	
37	  HA	2543.600	777.175	-2650.992	 H	3	PRO3	0.064	
38	 2HB	2542.433	775.160	-2650.708	 H	3	PRO3	0.025	
39	 3HB	2541.612	775.693	-2652.194	 H	3	PRO3	0.025	
40	 2HG	2540.098	775.131	-2650.028	 H	3	PRO3	0.021	
41	 3HG	2539.789	776.665	-2650.886	 H	3	PRO3	0.021	
42	 2HD	2541.373	776.262	-2648.321	 H	3	PRO3	0.039	
43	 3HD	2540.187	777.548	-2648.716	 H	3	PRO3	0.039	
44	   N	2540.912	778.779	-2652.089	N.am	4	GLU4	-0.516	
45	  CA	2540.552	779.750	-2653.118	C.3	4	GLU4	0.040	
46	   C	2541.452	780.961	-2653.057	C.2	4	GLU4	0.537	
47	   O	2541.979	781.441	-2654.071	O.2	4	GLU4	-0.582	
48	  CB	2539.064	780.170	-2652.949	C.3	4	GLU4	0.056	
49	  CG	2538.517	781.173	-2654.014	C.3	4	GLU4	0.014	
50	  CD	2537.090	781.670	-2653.871	C.2	4	GLU4	0.805	
51	 OE1	2536.363	781.272	-2652.941	O.co2	4	GLU4	-0.819	
52	 OE2	2536.701	782.500	-2654.720	O.co2	4	GLU4	-0.819	
53	   H	2540.227	778.473	-2651.412	 H	4	GLU4	0.294	
54	  HA	2540.684	779.280	-2654.110	 H	4	GLU4	0.111	
55	 2HB	2538.911	780.609	-2651.942	 H	4	GLU4	-0.017	
56	 3HB	2538.416	779.272	-2652.955	 H	4	GLU4	-0.017	
57	 2HG	2538.598	780.758	-2655.032	 H	4	GLU4	-0.043	
58	 3HG	2539.105	782.105	-2654.025	 H	4	GLU4	-0.043	
59	   N	2541.679	781.514	-2651.914	N.am	5	SER5	-0.416	
60	  CA	2542.549	782.685	-2651.855	C.3	5	SER5	-0.025	
61	   C	2543.907	782.379	-2652.440	C.2	5	SER5	0.597	
62	   O	2544.455	783.132	-2653.245	O.2	5	SER5	-0.568	
63	  CB	2542.660	783.217	-2650.404	C.3	5	SER5	0.212	
64	  OG	2543.391	782.337	-2649.543	O.3	5	SER5	-0.655	
65	   H	2541.261	781.142	-2651.072	 H	5	SER5	0.272	
66	  HA	2542.100	783.475	-2652.484	 H	5	SER5	0.084	
67	 2HB	2541.660	783.411	-2649.971	 H	5	SER5	0.035	
68	 3HB	2543.165	784.203	-2650.406	 H	5	SER5	0.035	
69	  HG	2542.902	781.513	-2649.492	 H	5	SER5	0.428	
70	   N	2544.512	781.295	-2652.086	N.am	6	ILE6	-0.416	
71	  CA	2545.825	781.000	-2652.652	C.3	6	ILE6	-0.060	
72	   C	2545.768	780.962	-2654.159	C.2	6	ILE6	0.597	
73	   O	2546.603	781.550	-2654.863	O.2	6	ILE6	-0.568	
74	  CB	2546.424	779.664	-2652.051	C.3	6	ILE6	0.130	
75	 CG1	2546.443	779.601	-2650.490	C.3	6	ILE6	-0.043	
76	 CG2	2547.865	779.361	-2652.566	C.3	6	ILE6	-0.320	
77	 CD1	2546.712	778.212	-2649.875	C.3	6	ILE6	-0.066	
78	   H	2544.083	780.661	-2651.427	 H	6	ILE6	0.272	
79	  HA	2546.499	781.834	-2652.384	 H	6	ILE6	0.087	
80	  HB	2545.766	778.838	-2652.396	 H	6	ILE6	0.019	
81	2HG1	2545.461	779.921	-2650.095	 H	6	ILE6	0.024	
82	3HG1	2547.159	780.343	-2650.085	 H	6	ILE6	0.024	
83	1HG2	2547.924	779.268	-2653.665	 H	6	ILE6	0.088	
84	2HG2	2548.588	780.143	-2652.264	 H	6	ILE6	0.088	
85	3HG2	2548.255	778.399	-2652.188	 H	6	ILE6	0.088	
86	1HD1	2545.984	777.458	-2650.230	 H	6	ILE6	0.019	
87	2HD1	2547.723	777.833	-2650.111	 H	6	ILE6	0.019	
88	3HD1	2546.636	778.242	-2648.773	 H	6	ILE6	0.019	
89	   N	2544.822	780.299	-2654.733	N.am	7	LEU7	-0.416	
90	  CA	2544.767	780.263	-2656.191	C.3	7	LEU7	-0.052	
91	   C	2544.695	781.658	-2656.764	C.2	7	LEU7	0.597	
92	   O	2545.416	782.020	-2657.707	O.2	7	LEU7	-0.568	
93	  CB	2543.563	779.403	-2656.672	C.3	7	LEU7	-0.110	
94	  CG	2543.490	777.924	-2656.205	C.3	7	LEU7	0.353	
95	 CD1	2542.300	777.218	-2656.871	C.3	7	LEU7	-0.412	
96	 CD2	2544.784	777.144	-2656.497	C.3	7	LEU7	-0.412	
97	   H	2544.130	779.812	-2654.182	 H	7	LEU7	0.272	
98	  HA	2545.708	779.823	-2656.566	 H	7	LEU7	0.092	
99	 2HB	2543.540	779.419	-2657.780	 H	7	LEU7	0.046	
100	 3HB	2542.624	779.906	-2656.368	 H	7	LEU7	0.046	
101	  HG	2543.320	777.916	-2655.108	 H	7	LEU7	-0.036	
102	1HD1	2541.343	777.728	-2656.648	 H	7	LEU7	0.100	
103	2HD1	2542.399	777.178	-2657.972	 H	7	LEU7	0.100	
104	3HD1	2542.193	776.177	-2656.515	 H	7	LEU7	0.100	
105	1HD2	2545.059	777.174	-2657.567	 H	7	LEU7	0.100	
106	2HD2	2545.637	777.555	-2655.925	 H	7	LEU7	0.100	
107	3HD2	2544.702	776.082	-2656.201	 H	7	LEU7	0.100	
108	   N	2543.858	782.500	-2656.259	N.am	8	ASP8	-0.516	
109	  CA	2543.788	783.849	-2656.812	C.3	8	ASP8	0.038	
110	   C	2545.135	784.528	-2656.756	C.2	8	ASP8	0.537	
111	   O	2545.608	785.132	-2657.731	O.2	8	ASP8	-0.582	
112	  CB	2542.710	784.689	-2656.072	C.3	8	ASP8	-0.030	
113	  CG	2542.492	786.109	-2656.613	C.2	8	ASP8	0.799	
114	 OD1	2542.557	786.308	-2657.844	O.co2	8	ASP8	-0.801	
115	 OD2	2542.301	787.036	-2655.798	O.co2	8	ASP8	-0.801	
116	   H	2543.260	782.229	-2655.491	 H	8	ASP8	0.294	
117	  HA	2543.505	783.770	-2657.880	 H	8	ASP8	0.088	
118	 2HB	2542.968	784.773	-2655.000	 H	8	ASP8	-0.012	
119	 3HB	2541.731	784.184	-2656.104	 H	8	ASP8	-0.012	
120	   N	2545.815	784.478	-2655.661	N.am	9	GLU9	-0.516	
121	  CA	2547.118	785.135	-2655.606	C.3	9	GLU9	0.040	
122	   C	2548.036	784.607	-2656.682	C.2	9	GLU9	0.537	
123	   O	2548.700	785.360	-2657.408	O.2	9	GLU9	-0.582	
124	  CB	2547.752	784.928	-2654.201	C.3	9	GLU9	0.056	
125	  CG	2549.135	785.620	-2653.972	C.3	9	GLU9	0.014	
126	  CD	2549.837	785.407	-2652.644	C.2	9	GLU9	0.805	
127	 OE1	2549.315	784.717	-2651.747	O.co2	9	GLU9	-0.819	
128	 OE2	2550.956	785.944	-2652.512	O.co2	9	GLU9	-0.819	
129	   H	2545.452	783.993	-2654.853	 H	9	GLU9	0.294	
130	  HA	2546.977	786.217	-2655.782	 H	9	GLU9	0.111	
131	 2HB	2547.864	783.844	-2653.997	 H	9	GLU9	-0.017	
132	 3HB	2547.055	785.282	-2653.416	 H	9	GLU9	-0.017	
133	 2HG	2549.063	786.710	-2654.112	 H	9	GLU9	-0.043	
134	 3HG	2549.881	785.274	-2654.706	 H	9	GLU9	-0.043	
135	   N	2548.132	783.331	-2656.851	N.am	10	HIS10	-0.416	
136	  CA	2549.019	782.819	-2657.891	C.3	10	HIS10	-0.058	
137	   C	2548.652	783.383	-2659.242	C.2	10	HIS10	0.597	
138	   O	2549.505	783.847	-2660.015	O.2	10	HIS10	-0.568	
139	  CB	2548.854	781.290	-2657.885	C.3	10	HIS10	-0.007	
140	  CG	2550.140	780.579	-2657.577	C.2	10	HIS10	0.187	
141	 CD2	2550.521	780.245	-2656.285	C.2	10	HIS10	-0.221	
142	 ND1	2551.091	780.173	-2658.510	N.2	10	HIS10	-0.543	
143	 CE1	2551.998	779.615	-2657.687	C.2	10	HIS10	0.163	
144	 NE2	2551.736	779.613	-2656.352	N.pl3	10	HIS10	-0.280	
145	   H	2547.601	782.696	-2656.272	 H	10	HIS10	0.272	
146	  HA	2550.039	783.176	-2657.667	 H	10	HIS10	0.136	
147	 2HB	2548.489	780.923	-2658.865	 H	10	HIS10	0.037	
148	 3HB	2548.099	780.954	-2657.145	 H	10	HIS10	0.037	
149	 2HD	2549.936	780.461	-2655.396	 H	10	HIS10	0.186	
150	 1HE	2552.888	779.193	-2658.134	 H	10	HIS10	0.144	
151	 2HE	2552.302	779.236	-2655.578	 H	10	HIS10	0.334	
152	   N	2547.414	783.383	-2659.605	N.am	11	VAL11	-0.416	
153	  CA	2547.059	783.928	-2660.912	C.3	11	VAL11	-0.087	
154	   C	2547.524	785.359	-2661.046	C.2	11	VAL11	0.597	
155	   O	2548.125	785.763	-2662.049	O.2	11	VAL11	-0.568	
156	  CB	2545.498	783.822	-2661.131	C.3	11	VAL11	0.299	
157	 CG1	2544.929	784.526	-2662.394	C.3	11	VAL11	-0.319	
158	 CG2	2544.973	782.368	-2661.203	C.3	11	VAL11	-0.319	
159	   H	2546.701	783.011	-2658.994	 H	11	VAL11	0.272	
160	  HA	2547.578	783.345	-2661.695	 H	11	VAL11	0.097	
161	  HB	2545.011	784.303	-2660.256	 H	11	VAL11	-0.030	
162	1HG1	2545.368	784.133	-2663.331	 H	11	VAL11	0.079	
163	2HG1	2543.830	784.419	-2662.476	 H	11	VAL11	0.079	
164	3HG1	2545.108	785.618	-2662.386	 H	11	VAL11	0.079	
165	1HG2	2545.262	781.782	-2660.312	 H	11	VAL11	0.079	
166	2HG2	2543.867	782.332	-2661.246	 H	11	VAL11	0.079	
167	3HG2	2545.354	781.827	-2662.090	 H	11	VAL11	0.079	
168	   N	2547.288	786.185	-2660.083	N.am	12	GLN12	-0.416	
169	  CA	2547.737	787.568	-2660.211	C.3	12	GLN12	-0.003	
170	   C	2549.227	787.634	-2660.450	C.2	12	GLN12	0.597	
171	   O	2549.714	788.341	-2661.329	O.2	12	GLN12	-0.568	
172	  CB	2547.347	788.336	-2658.929	C.3	12	GLN12	-0.004	
173	  CG	2547.708	789.857	-2658.899	C.3	12	GLN12	-0.064	
174	  CD	2547.407	790.672	-2657.635	C.2	12	GLN12	0.695	
175	 NE2	2546.840	790.096	-2656.605	N.pl3	12	GLN12	-0.941	
176	 OE1	2547.709	791.853	-2657.558	O.2	12	GLN12	-0.609	
177	   H	2546.799	785.879	-2659.254	 H	12	GLN12	0.272	
178	  HA	2547.238	788.024	-2661.087	 H	12	GLN12	0.085	
179	 2HB	2547.823	787.836	-2658.060	 H	12	GLN12	0.017	
180	 3HB	2546.257	788.229	-2658.766	 H	12	GLN12	0.017	
181	 2HG	2547.231	790.378	-2659.750	 H	12	GLN12	0.035	
182	 3HG	2548.792	789.999	-2659.065	 H	12	GLN12	0.035	
183	1HE2	2546.733	790.691	-2655.782	 H	12	GLN12	0.425	
184	2HE2	2546.675	789.093	-2656.708	 H	12	GLN12	0.425	
185	   N	2550.012	786.927	-2659.708	N.am	13	ARG13	-0.348	
186	  CA	2551.452	786.992	-2659.940	C.3	13	ARG13	-0.264	
187	   C	2551.788	786.620	-2661.365	C.2	13	ARG13	0.734	
188	   O	2552.556	787.291	-2662.049	O.2	13	ARG13	-0.589	
189	  CB	2552.165	786.054	-2658.925	C.3	13	ARG13	-0.001	
190	  CG	2553.710	786.207	-2658.845	C.3	13	ARG13	0.039	
191	  CD	2554.337	785.220	-2657.847	C.3	13	ARG13	0.049	
192	  NE	2555.814	785.426	-2657.797	N.pl3	13	ARG13	-0.530	
193	  CZ	2556.663	784.735	-2657.041	C.cat	13	ARG13	0.808	
194	 NH1	2556.298	783.772	-2656.243	N.pl3	13	ARG13	-0.863	
195	 NH2	2557.922	785.034	-2657.099	N.pl3	13	ARG13	-0.863	
196	   H	2549.635	786.338	-2658.979	 H	13	ARG13	0.275	
197	  HA	2551.777	788.038	-2659.782	 H	13	ARG13	0.156	
198	 2HB	2551.899	785.003	-2659.164	 H	13	ARG13	0.033	
199	 3HB	2551.740	786.221	-2657.915	 H	13	ARG13	0.033	
200	 2HG	2553.959	787.252	-2658.566	 H	13	ARG13	0.029	
201	 3HG	2554.161	786.050	-2659.846	 H	13	ARG13	0.029	
202	 2HD	2554.092	784.179	-2658.155	 H	13	ARG13	0.069	
203	 3HD	2553.881	785.366	-2656.844	 H	13	ARG13	0.069	
204	  HE	2556.266	786.148	-2658.368	 H	13	ARG13	0.346	
205	1HH1	2555.292	783.586	-2656.246	 H	13	ARG13	0.448	
206	2HH1	2557.011	783.289	-2655.694	 H	13	ARG13	0.448	
207	1HH2	2558.190	785.791	-2657.730	 H	13	ARG13	0.448	
208	2HH2	2558.558	784.492	-2656.510	 H	13	ARG13	0.448	
209	   N	2551.251	785.565	-2661.878	N.am	14	VAL14	-0.416	
210	  CA	2551.575	785.205	-2663.256	C.3	14	VAL14	-0.087	
211	   C	2551.246	786.335	-2664.202	C.2	14	VAL14	0.597	
212	   O	2552.039	786.716	-2665.071	O.2	14	VAL14	-0.568	
213	  CB	2550.802	783.888	-2663.662	C.3	14	VAL14	0.299	
214	 CG1	2550.891	783.469	-2665.155	C.3	14	VAL14	-0.319	
215	 CG2	2551.234	782.636	-2662.861	C.3	14	VAL14	-0.319	
216	   H	2550.616	784.997	-2661.336	 H	14	VAL14	0.272	
217	  HA	2552.664	785.028	-2663.331	 H	14	VAL14	0.097	
218	  HB	2549.726	784.060	-2663.445	 H	14	VAL14	-0.030	
219	1HG1	2551.932	783.291	-2665.484	 H	14	VAL14	0.079	
220	2HG1	2550.318	782.546	-2665.367	 H	14	VAL14	0.079	
221	3HG1	2550.462	784.231	-2665.833	 H	14	VAL14	0.079	
222	1HG2	2551.147	782.795	-2661.770	 H	14	VAL14	0.079	
223	2HG2	2550.598	781.760	-2663.092	 H	14	VAL14	0.079	
224	3HG2	2552.282	782.345	-2663.066	 H	14	VAL14	0.079	
225	   N	2550.101	786.921	-2664.100	N.am	15	MET15	-0.416	
226	  CA	2549.781	788.013	-2665.014	C.3	15	MET15	-0.024	
227	   C	2550.811	789.113	-2664.927	C.2	15	MET15	0.597	
228	   O	2551.313	789.623	-2665.939	O.2	15	MET15	-0.568	
229	  CB	2548.359	788.559	-2664.705	C.3	15	MET15	0.034	
230	  CG	2547.197	787.561	-2664.896	C.3	15	MET15	0.002	
231	  SD	2545.623	788.427	-2664.781	S.3	15	MET15	-0.274	
232	  CE	2544.542	786.998	-2664.644	C.3	15	MET15	-0.054	
233	   H	2549.436	786.628	-2663.398	 H	15	MET15	0.272	
234	  HA	2549.806	787.626	-2666.049	 H	15	MET15	0.088	
235	 2HB	2548.157	789.438	-2665.347	 H	15	MET15	0.024	
236	 3HB	2548.324	788.952	-2663.668	 H	15	MET15	0.024	
237	 2HG	2547.240	786.776	-2664.118	 H	15	MET15	0.044	
238	 3HG	2547.260	787.046	-2665.872	 H	15	MET15	0.044	
239	 1HE	2544.685	786.309	-2665.496	 H	15	MET15	0.068	
240	 2HE	2544.751	786.446	-2663.711	 H	15	MET15	0.068	
241	 3HE	2543.485	787.313	-2664.627	 H	15	MET15	0.068	
242	   N	2551.180	789.535	-2663.764	N.am	16	ILE16	-0.416	
243	  CA	2552.177	790.599	-2663.681	C.3	16	ILE16	-0.060	
244	   C	2553.447	790.207	-2664.397	C.2	16	ILE16	0.597	
245	   O	2553.570	789.111	-2664.964	O.2	16	ILE16	-0.568	
246	  CB	2552.451	791.015	-2662.179	C.3	16	ILE16	0.130	
247	 CG1	2551.170	791.361	-2661.354	C.3	16	ILE16	-0.043	
248	 CG2	2553.446	792.210	-2662.054	C.3	16	ILE16	-0.320	
249	 CD1	2551.359	791.455	-2659.826	C.3	16	ILE16	-0.066	
250	   H	2550.785	789.135	-2662.925	 H	16	ILE16	0.272	
251	  HA	2551.773	791.477	-2664.217	 H	16	ILE16	0.087	
252	  HB	2552.920	790.137	-2661.687	 H	16	ILE16	0.019	
253	2HG1	2550.404	790.580	-2661.516	 H	16	ILE16	0.024	
254	3HG1	2550.705	792.289	-2661.739	 H	16	ILE16	0.024	
255	1HG2	2554.431	792.007	-2662.510	 H	16	ILE16	0.088	
256	2HG2	2553.051	793.131	-2662.524	 H	16	ILE16	0.088	
257	3HG2	2553.677	792.458	-2661.002	 H	16	ILE16	0.088	
258	1HD1	2551.784	790.523	-2659.406	 H	16	ILE16	0.019	
259	2HD1	2552.027	792.285	-2659.531	 H	16	ILE16	0.019	
260	3HD1	2550.395	791.629	-2659.314	 H	16	ILE16	0.019	
@<TRIPOS>BOND
1 1 2 1
2 1 10 1
3 2 3 1
4 2 5 1
5 2 11 1
6 3 4 2
7 3 16 1
8 5 6 1
9 6 7 1
10 7 8 2
11 7 9 1
12 5 12 1
13 5 13 1
14 6 14 1
15 6 15 1
16 16 17 1
17 16 24 1
18 17 18 1
19 17 20 1
20 17 25 1
21 18 19 2
22 18 30 1
23 20 21 1
24 21 22 1
25 21 23 2
26 20 26 1
27 20 27 1
28 22 28 1
29 22 29 1
30 30 31 1
31 30 36 1
32 31 32 1
33 31 34 1
34 31 37 1
35 32 33 2
36 32 44 1
37 34 35 1
38 35 36 1
39 34 38 1
40 34 39 1
41 35 40 1
42 35 41 1
43 36 42 1
44 36 43 1
45 44 45 1
46 44 53 1
47 45 46 1
48 45 48 1
49 45 54 1
50 46 47 2
51 46 59 1
52 48 49 1
53 49 50 1
54 50 51 2
55 50 52 1
56 48 55 1
57 48 56 1
58 49 57 1
59 49 58 1
60 59 60 1
61 59 65 1
62 60 61 1
63 60 63 1
64 60 66 1
65 61 62 2
66 61 70 1
67 63 64 1
68 63 67 1
69 63 68 1
70 64 69 1
71 70 71 1
72 70 78 1
73 71 72 1
74 71 74 1
75 71 79 1
76 72 73 2
77 72 89 1
78 74 75 1
79 74 76 1
80 75 77 1
81 74 80 1
82 75 81 1
83 75 82 1
84 76 83 1
85 76 84 1
86 76 85 1
87 77 86 1
88 77 87 1
89 77 88 1
90 89 90 1
91 89 97 1
92 90 91 1
93 90 93 1
94 90 98 1
95 91 92 2
96 91 108 1
97 93 94 1
98 94 95 1
99 94 96 1
100 93 99 1
101 93 100 1
102 94 101 1
103 95 102 1
104 95 103 1
105 95 104 1
106 96 105 1
107 96 106 1
108 96 107 1
109 108 109 1
110 108 116 1
111 109 110 1
112 109 112 1
113 109 117 1
114 110 111 2
115 110 120 1
116 112 113 1
117 113 114 2
118 113 115 1
119 112 118 1
120 112 119 1
121 120 121 1
122 120 129 1
123 121 122 1
124 121 124 1
125 121 130 1
126 122 123 2
127 122 135 1
128 124 125 1
129 125 126 1
130 126 127 2
131 126 128 1
132 124 131 1
133 124 132 1
134 125 133 1
135 125 134 1
136 135 136 1
137 135 145 1
138 136 137 1
139 136 139 1
140 136 146 1
141 137 138 2
142 137 152 1
143 139 140 1
144 140 141 2
145 141 144 1
146 140 142 1
147 142 143 2
148 143 144 1
149 139 147 1
150 139 148 1
151 141 149 1
152 143 150 1
153 144 151 1
154 152 153 1
155 152 159 1
156 153 154 1
157 153 156 1
158 153 160 1
159 154 155 2
160 154 168 1
161 156 157 1
162 156 158 1
163 156 161 1
164 157 162 1
165 157 163 1
166 157 164 1
167 158 165 1
168 158 166 1
169 158 167 1
170 168 169 1
171 168 177 1
172 169 170 1
173 169 172 1
174 169 178 1
175 170 171 2
176 170 185 1
177 172 173 1
178 173 174 1
179 174 175 1
180 174 176 2
181 172 179 1
182 172 180 1
183 173 181 1
184 173 182 1
185 175 183 1
186 175 184 1
187 185 186 1
188 185 196 1
189 186 187 1
190 186 189 1
191 186 197 1
192 187 188 2
193 187 209 1
194 189 190 1
195 190 191 1
196 191 192 1
197 192 193 1
198 193 194 2
199 193 195 1
200 189 198 1
201 189 199 1
202 190 200 1
203 190 201 1
204 191 202 1
205 191 203 1
206 192 204 1
207 194 205 1
208 194 206 1
209 195 207 1
210 195 208 1
211 209 210 1
212 209 216 1
213 210 211 1
214 210 213 1
215 210 217 1
216 211 212 2
217 211 225 1
218 213 214 1
219 213 215 1
220 213 218 1
221 214 219 1
222 214 220 1
223 214 221 1
224 215 222 1
225 215 223 1
226 215 224 1
227 225 226 1
228 225 233 1
229 226 227 1
230 226 229 1
231 226 234 1
232 227 228 2
233 227 242 1
234 229 230 1
235 230 231 1
236 231 232 1
237 229 235 1
238 229 236 1
239 230 237 1
240 230 238 1
241 232 239 1
242 232 240 1
243 232 241 1
244 242 243 1
245 242 250 1
246 243 244 1
247 243 246 1
248 243 251 1
249 244 245 2
250 246 247 1
251 246 248 1
252 247 249 1
253 246 252 1
254 247 253 1
255 247 254 1
256 248 255 1
257 248 256 1
258 248 257 1
259 249 258 1
260 249 259 1
261 249 260 1
@<TRIPOS>SUBSTRUCTURE
1	GLU1	1	RESIDUE	1 ****	GLU
2	ASN2	16	RESIDUE	1 ****	ASN
3	PRO3	30	RESIDUE	1 ****	PRO
4	GLU4	44	RESIDUE	1 ****	GLU
5	SER5	59	RESIDUE	1 ****	SER
6	ILE6	70	RESIDUE	1 ****	ILE
7	LEU7	89	RESIDUE	1 ****	LEU
8	ASP8	108	RESIDUE	1 ****	ASP
9	GLU9	120	RESIDUE	1 ****	GLU
10	HIS10	135	RESIDUE	1 ****	HIS
11	VAL11	152	RESIDUE	1 ****	VAL
12	GLN12	168	RESIDUE	1 ****	GLN
13	ARG13	185	RESIDUE	1 ****	ARG
14	VAL14	209	RESIDUE	1 ****	VAL
15	MET15	225	RESIDUE	1 ****	MET
16	ILE16	242	RESIDUE	1 ****	ILE
