@<TRIPOS>MOLECULE
10-6
267 267 16              
SMALL
USER_CHARGES
@<TRIPOS>ATOM
1	   N	1558.064	461.634	-1582.106	N.3	1	GLU1	-0.516	
2	  CA	1558.623	462.983	-1582.106	C.3	1	GLU1	0.040	
3	   C	1560.132	462.943	-1582.106	C.2	1	GLU1	0.537	
4	   O	1560.807	463.642	-1582.874	O.2	1	GLU1	-0.582	
5	  CB	1558.100	463.768	-1580.869	C.3	1	GLU1	0.056	
6	  CG	1558.575	465.253	-1580.758	C.3	1	GLU1	0.014	
7	  CD	1558.151	466.057	-1579.542	C.2	1	GLU1	0.805	
8	 OE1	1557.423	465.555	-1578.665	O.co2	1	GLU1	-0.819	
9	 OE2	1558.581	467.227	-1579.471	O.co2	1	GLU1	-0.819	
10	   H	1558.691	460.755	-1582.106	 H	1	GLU1	0.294	
11	  HA	1558.297	463.501	-1583.026	 H	1	GLU1	0.111	
12	 2HB	1558.389	463.237	-1579.939	 H	1	GLU1	-0.017	
13	 3HB	1556.993	463.758	-1580.856	 H	1	GLU1	-0.017	
14	 2HG	1558.265	465.838	-1581.639	 H	1	GLU1	-0.043	
15	 3HG	1559.675	465.320	-1580.729	 H	1	GLU1	-0.043	
16	   N	1560.736	462.158	-1581.280	N.am	2	ASN2	-0.416	
17	  CA	1562.196	462.119	-1581.280	C.3	2	ASN2	0.014	
18	   C	1562.727	461.763	-1582.649	C.2	2	ASN2	0.597	
19	   O	1563.641	462.394	-1583.178	O.2	2	ASN2	-0.568	
20	  CB	1562.688	461.096	-1580.216	C.3	2	ASN2	-0.204	
21	  CG	1562.225	461.320	-1578.773	C.2	2	ASN2	0.713	
22	 ND2	1562.819	462.235	-1578.055	N.pl3	2	ASN2	-0.919	
23	 OD1	1561.304	460.686	-1578.279	O.2	2	ASN2	-0.593	
24	   H	1560.208	461.578	-1580.644	 H	2	ASN2	0.272	
25	  HA	1562.573	463.129	-1581.035	 H	2	ASN2	0.105	
26	 2HB	1563.792	461.037	-1580.220	 H	2	ASN2	0.080	
27	 3HB	1562.359	460.078	-1580.502	 H	2	ASN2	0.080	
28	1HD2	1562.338	462.408	-1577.168	 H	2	ASN2	0.420	
29	2HD2	1563.520	462.806	-1578.524	 H	2	ASN2	0.420	
30	   N	1562.205	460.768	-1583.283	N.am	3	PRO3	-0.255	
31	  CA	1562.657	460.359	-1584.605	C.3	3	PRO3	-0.027	
32	   C	1562.259	461.382	-1585.682	C.2	3	PRO3	0.590	
33	   O	1563.082	461.766	-1586.513	O.2	3	PRO3	-0.575	
34	  CB	1561.953	459.004	-1584.774	C.3	3	PRO3	-0.007	
35	  CG	1560.670	459.156	-1583.944	C.3	3	PRO3	0.019	
36	  CD	1561.127	459.975	-1582.734	C.3	3	PRO3	0.019	
37	  HA	1563.743	460.239	-1584.619	 H	3	PRO3	0.064	
38	 2HB	1562.576	458.223	-1584.333	 H	3	PRO3	0.025	
39	 3HB	1561.755	458.756	-1585.819	 H	3	PRO3	0.025	
40	 2HG	1560.242	458.194	-1583.653	 H	3	PRO3	0.021	
41	 3HG	1559.932	459.727	-1584.511	 H	3	PRO3	0.021	
42	 2HD	1561.517	459.326	-1581.946	 H	3	PRO3	0.039	
43	 3HD	1560.331	460.611	-1582.341	 H	3	PRO3	0.039	
44	   N	1561.054	461.842	-1585.714	N.am	4	GLU4	-0.516	
45	  CA	1560.694	462.814	-1586.743	C.3	4	GLU4	0.040	
46	   C	1561.593	464.025	-1586.682	C.2	4	GLU4	0.537	
47	   O	1562.119	464.504	-1587.697	O.2	4	GLU4	-0.582	
48	  CB	1559.206	463.232	-1586.573	C.3	4	GLU4	0.056	
49	  CG	1558.657	464.236	-1587.638	C.3	4	GLU4	0.014	
50	  CD	1557.231	464.732	-1587.495	C.2	4	GLU4	0.805	
51	 OE1	1556.505	464.334	-1586.564	O.co2	4	GLU4	-0.819	
52	 OE2	1556.841	465.562	-1588.343	O.co2	4	GLU4	-0.819	
53	   H	1560.370	461.536	-1585.037	 H	4	GLU4	0.294	
54	  HA	1560.825	462.343	-1587.735	 H	4	GLU4	0.111	
55	 2HB	1559.053	463.672	-1585.566	 H	4	GLU4	-0.017	
56	 3HB	1558.558	462.334	-1586.579	 H	4	GLU4	-0.017	
57	 2HG	1558.739	463.821	-1588.656	 H	4	GLU4	-0.043	
58	 3HG	1559.245	465.168	-1587.650	 H	4	GLU4	-0.043	
59	   N	1561.821	464.578	-1585.539	N.am	5	SER5	-0.416	
60	  CA	1562.690	465.749	-1585.481	C.3	5	SER5	-0.025	
61	   C	1564.049	465.443	-1586.067	C.2	5	SER5	0.597	
62	   O	1564.596	466.197	-1586.871	O.2	5	SER5	-0.568	
63	  CB	1562.802	466.281	-1584.030	C.3	5	SER5	0.212	
64	  OG	1563.534	465.402	-1583.169	O.3	5	SER5	-0.655	
65	   H	1561.404	464.206	-1584.698	 H	5	SER5	0.272	
66	  HA	1562.240	466.539	-1586.110	 H	5	SER5	0.084	
67	 2HB	1561.802	466.475	-1583.597	 H	5	SER5	0.035	
68	 3HB	1563.307	467.267	-1584.032	 H	5	SER5	0.035	
69	  HG	1563.045	464.577	-1583.119	 H	5	SER5	0.428	
70	   N	1564.654	464.360	-1585.713	N.am	6	ILE6	-0.416	
71	  CA	1565.967	464.066	-1586.279	C.3	6	ILE6	-0.060	
72	   C	1565.909	464.028	-1587.787	C.2	6	ILE6	0.597	
73	   O	1566.744	464.616	-1588.491	O.2	6	ILE6	-0.568	
74	  CB	1566.566	462.729	-1585.679	C.3	6	ILE6	0.130	
75	 CG1	1566.586	462.667	-1584.118	C.3	6	ILE6	-0.043	
76	 CG2	1568.008	462.428	-1586.195	C.3	6	ILE6	-0.320	
77	 CD1	1566.856	461.278	-1583.503	C.3	6	ILE6	-0.066	
78	   H	1564.225	463.726	-1585.054	 H	6	ILE6	0.272	
79	  HA	1566.641	464.900	-1586.011	 H	6	ILE6	0.087	
80	  HB	1565.909	461.903	-1586.023	 H	6	ILE6	0.019	
81	2HG1	1565.604	462.987	-1583.722	 H	6	ILE6	0.024	
82	3HG1	1567.302	463.409	-1583.713	 H	6	ILE6	0.024	
83	1HG2	1568.067	462.335	-1587.293	 H	6	ILE6	0.088	
84	2HG2	1568.730	463.210	-1585.892	 H	6	ILE6	0.088	
85	3HG2	1568.398	461.466	-1585.816	 H	6	ILE6	0.088	
86	1HD1	1566.128	460.524	-1583.858	 H	6	ILE6	0.019	
87	2HD1	1567.867	460.899	-1583.739	 H	6	ILE6	0.019	
88	3HD1	1566.780	461.308	-1582.401	 H	6	ILE6	0.019	
89	   N	1564.963	463.365	-1588.360	N.am	7	LEU7	-0.416	
90	  CA	1564.908	463.329	-1589.819	C.3	7	LEU7	-0.052	
91	   C	1564.836	464.724	-1590.391	C.2	7	LEU7	0.597	
92	   O	1565.556	465.087	-1591.333	O.2	7	LEU7	-0.568	
93	  CB	1563.705	462.469	-1590.299	C.3	7	LEU7	-0.110	
94	  CG	1563.633	460.989	-1589.833	C.3	7	LEU7	0.353	
95	 CD1	1562.443	460.284	-1590.499	C.3	7	LEU7	-0.412	
96	 CD2	1564.926	460.210	-1590.125	C.3	7	LEU7	-0.412	
97	   H	1564.271	462.878	-1587.809	 H	7	LEU7	0.272	
98	  HA	1565.850	462.889	-1590.193	 H	7	LEU7	0.092	
99	 2HB	1563.682	462.485	-1591.407	 H	7	LEU7	0.046	
100	 3HB	1562.766	462.971	-1589.995	 H	7	LEU7	0.046	
101	  HG	1563.463	460.981	-1588.736	 H	7	LEU7	-0.036	
102	1HD1	1561.485	460.793	-1590.276	 H	7	LEU7	0.100	
103	2HD1	1562.542	460.243	-1591.600	 H	7	LEU7	0.100	
104	3HD1	1562.336	459.242	-1590.143	 H	7	LEU7	0.100	
105	1HD2	1565.201	460.241	-1591.195	 H	7	LEU7	0.100	
106	2HD2	1565.780	460.622	-1589.554	 H	7	LEU7	0.100	
107	3HD2	1564.845	459.148	-1589.829	 H	7	LEU7	0.100	
108	   N	1563.999	465.565	-1589.885	N.am	8	ASP8	-0.516	
109	  CA	1563.928	466.915	-1590.438	C.3	8	ASP8	0.038	
110	   C	1565.275	467.594	-1590.380	C.2	8	ASP8	0.537	
111	   O	1565.747	468.200	-1591.354	O.2	8	ASP8	-0.582	
112	  CB	1562.850	467.753	-1589.695	C.3	8	ASP8	-0.030	
113	  CG	1562.631	469.174	-1590.236	C.2	8	ASP8	0.799	
114	 OD1	1562.695	469.374	-1591.466	O.co2	8	ASP8	-0.801	
115	 OD2	1562.439	470.100	-1589.420	O.co2	8	ASP8	-0.801	
116	   H	1563.401	465.294	-1589.117	 H	8	ASP8	0.294	
117	  HA	1563.645	466.837	-1591.505	 H	8	ASP8	0.088	
118	 2HB	1563.107	467.836	-1588.624	 H	8	ASP8	-0.012	
119	 3HB	1561.871	467.248	-1589.729	 H	8	ASP8	-0.012	
120	   N	1565.954	467.544	-1589.285	N.am	9	GLU9	-0.516	
121	  CA	1567.257	468.202	-1589.229	C.3	9	GLU9	0.040	
122	   C	1568.175	467.675	-1590.306	C.2	9	GLU9	0.537	
123	   O	1568.839	468.430	-1591.031	O.2	9	GLU9	-0.582	
124	  CB	1567.891	467.994	-1587.824	C.3	9	GLU9	0.056	
125	  CG	1569.273	468.686	-1587.595	C.3	9	GLU9	0.014	
126	  CD	1569.975	468.473	-1586.267	C.2	9	GLU9	0.805	
127	 OE1	1569.454	467.781	-1585.371	O.co2	9	GLU9	-0.819	
128	 OE2	1571.094	469.010	-1586.135	O.co2	9	GLU9	-0.819	
129	   H	1565.591	467.058	-1588.478	 H	9	GLU9	0.294	
130	  HA	1567.115	469.284	-1589.404	 H	9	GLU9	0.111	
131	 2HB	1568.004	466.909	-1587.621	 H	9	GLU9	-0.017	
132	 3HB	1567.194	468.347	-1587.040	 H	9	GLU9	-0.017	
133	 2HG	1569.201	469.777	-1587.734	 H	9	GLU9	-0.043	
134	 3HG	1570.020	468.341	-1588.329	 H	9	GLU9	-0.043	
135	   N	1568.272	466.400	-1590.476	N.am	10	ILE10	-0.416	
136	  CA	1569.160	465.890	-1591.517	C.3	10	ILE10	-0.060	
137	   C	1568.792	466.456	-1592.867	C.2	10	ILE10	0.597	
138	   O	1569.644	466.923	-1593.638	O.2	10	ILE10	-0.568	
139	  CB	1569.185	464.308	-1591.529	C.3	10	ILE10	0.130	
140	 CG1	1569.485	463.650	-1590.144	C.3	10	ILE10	-0.043	
141	 CG2	1570.191	463.726	-1592.571	C.3	10	ILE10	-0.320	
142	 CD1	1569.203	462.136	-1590.043	C.3	10	ILE10	-0.066	
143	   H	1567.741	465.764	-1589.898	 H	10	ILE10	0.272	
144	  HA	1570.180	466.252	-1591.293	 H	10	ILE10	0.087	
145	  HB	1568.167	463.976	-1591.826	 H	10	ILE10	0.019	
146	2HG1	1568.861	464.126	-1589.365	 H	10	ILE10	0.024	
147	3HG1	1570.526	463.866	-1589.835	 H	10	ILE10	0.024	
148	1HG2	1569.979	464.046	-1593.606	 H	10	ILE10	0.088	
149	2HG2	1571.236	464.013	-1592.345	 H	10	ILE10	0.088	
150	3HG2	1570.162	462.622	-1592.613	 H	10	ILE10	0.088	
151	1HD1	1568.156	461.895	-1590.306	 H	10	ILE10	0.019	
152	2HD1	1569.857	461.538	-1590.703	 H	10	ILE10	0.019	
153	3HD1	1569.372	461.767	-1589.014	 H	10	ILE10	0.019	
154	   N	1567.554	466.455	-1593.229	N.am	11	VAL11	-0.416	
155	  CA	1567.198	467.003	-1594.535	C.3	11	VAL11	-0.087	
156	   C	1567.661	468.434	-1594.666	C.2	11	VAL11	0.597	
157	   O	1568.261	468.841	-1595.669	O.2	11	VAL11	-0.568	
158	  CB	1565.636	466.895	-1594.754	C.3	11	VAL11	0.299	
159	 CG1	1565.067	467.601	-1596.016	C.3	11	VAL11	-0.319	
160	 CG2	1565.113	465.441	-1594.829	C.3	11	VAL11	-0.319	
161	   H	1566.842	466.081	-1592.619	 H	11	VAL11	0.272	
162	  HA	1567.717	466.422	-1595.319	 H	11	VAL11	0.097	
163	  HB	1565.149	467.374	-1593.878	 H	11	VAL11	-0.030	
164	1HG1	1565.505	467.210	-1596.953	 H	11	VAL11	0.079	
165	2HG1	1563.968	467.493	-1596.097	 H	11	VAL11	0.079	
166	3HG1	1565.244	468.693	-1596.005	 H	11	VAL11	0.079	
167	1HG2	1565.404	464.853	-1593.939	 H	11	VAL11	0.079	
168	2HG2	1564.007	465.403	-1594.871	 H	11	VAL11	0.079	
169	3HG2	1565.495	464.902	-1595.716	 H	11	VAL11	0.079	
170	   N	1567.424	469.258	-1593.702	N.am	12	GLN12	-0.416	
171	  CA	1567.871	470.642	-1593.828	C.3	12	GLN12	-0.003	
172	   C	1569.361	470.710	-1594.066	C.2	12	GLN12	0.597	
173	   O	1569.847	471.420	-1594.944	O.2	12	GLN12	-0.568	
174	  CB	1567.481	471.407	-1592.544	C.3	12	GLN12	-0.004	
175	  CG	1567.840	472.929	-1592.511	C.3	12	GLN12	-0.064	
176	  CD	1567.537	473.741	-1591.245	C.2	12	GLN12	0.695	
177	 NE2	1566.971	473.162	-1590.216	N.pl3	12	GLN12	-0.941	
178	 OE1	1567.839	474.922	-1591.166	O.2	12	GLN12	-0.609	
179	   H	1566.936	468.951	-1592.873	 H	12	GLN12	0.272	
180	  HA	1567.371	471.099	-1594.702	 H	12	GLN12	0.085	
181	 2HB	1567.958	470.906	-1591.675	 H	12	GLN12	0.017	
182	 3HB	1566.391	471.299	-1592.380	 H	12	GLN12	0.017	
183	 2HG	1567.362	473.451	-1593.360	 H	12	GLN12	0.035	
184	 3HG	1568.923	473.072	-1592.677	 H	12	GLN12	0.035	
185	1HE2	1566.864	473.756	-1589.392	 H	12	GLN12	0.425	
186	2HE2	1566.808	472.159	-1590.321	 H	12	GLN12	0.425	
187	   N	1570.146	470.003	-1593.327	N.am	13	ARG13	-0.348	
188	  CA	1571.587	470.070	-1593.558	C.3	13	ARG13	-0.264	
189	   C	1571.922	469.701	-1594.984	C.2	13	ARG13	0.734	
190	   O	1572.690	470.374	-1595.667	O.2	13	ARG13	-0.589	
191	  CB	1572.301	469.130	-1592.546	C.3	13	ARG13	-0.001	
192	  CG	1573.845	469.283	-1592.465	C.3	13	ARG13	0.039	
193	  CD	1574.473	468.295	-1591.469	C.3	13	ARG13	0.049	
194	  NE	1575.951	468.503	-1591.419	N.pl3	13	ARG13	-0.530	
195	  CZ	1576.799	467.810	-1590.665	C.cat	13	ARG13	0.808	
196	 NH1	1576.435	466.844	-1589.869	N.pl3	13	ARG13	-0.863	
197	 NH2	1578.058	468.110	-1590.722	N.pl3	13	ARG13	-0.863	
198	   H	1569.771	469.412	-1592.599	 H	13	ARG13	0.275	
199	  HA	1571.910	471.116	-1593.398	 H	13	ARG13	0.156	
200	 2HB	1572.035	468.079	-1592.787	 H	13	ARG13	0.033	
201	 3HB	1571.876	469.294	-1591.535	 H	13	ARG13	0.033	
202	 2HG	1574.093	470.328	-1592.184	 H	13	ARG13	0.029	
203	 3HG	1574.296	469.129	-1593.467	 H	13	ARG13	0.029	
204	 2HD	1574.230	467.255	-1591.780	 H	13	ARG13	0.069	
205	 3HD	1574.017	468.438	-1590.466	 H	13	ARG13	0.069	
206	  HE	1576.401	469.226	-1591.989	 H	13	ARG13	0.346	
207	1HH1	1575.429	466.657	-1589.872	 H	13	ARG13	0.448	
208	2HH1	1577.148	466.361	-1589.321	 H	13	ARG13	0.448	
209	1HH2	1578.325	468.869	-1591.352	 H	13	ARG13	0.448	
210	2HH2	1578.694	467.568	-1590.134	 H	13	ARG13	0.448	
211	   N	1571.387	468.647	-1595.500	N.am	14	VAL14	-0.416	
212	  CA	1571.711	468.290	-1596.878	C.3	14	VAL14	-0.087	
213	   C	1571.380	469.421	-1597.821	C.2	14	VAL14	0.597	
214	   O	1572.173	469.804	-1598.691	O.2	14	VAL14	-0.568	
215	  CB	1570.939	466.973	-1597.287	C.3	14	VAL14	0.299	
216	 CG1	1571.028	466.557	-1598.781	C.3	14	VAL14	-0.319	
217	 CG2	1571.372	465.720	-1596.488	C.3	14	VAL14	-0.319	
218	   H	1570.752	468.077	-1594.958	 H	14	VAL14	0.272	
219	  HA	1572.799	468.114	-1596.953	 H	14	VAL14	0.097	
220	  HB	1569.863	467.143	-1597.070	 H	14	VAL14	-0.030	
221	1HG1	1572.069	466.381	-1599.110	 H	14	VAL14	0.079	
222	2HG1	1570.456	465.634	-1598.995	 H	14	VAL14	0.079	
223	3HG1	1570.598	467.320	-1599.457	 H	14	VAL14	0.079	
224	1HG2	1571.285	465.876	-1595.398	 H	14	VAL14	0.079	
225	2HG2	1570.737	464.843	-1596.722	 H	14	VAL14	0.079	
226	3HG2	1572.420	465.431	-1596.695	 H	14	VAL14	0.079	
227	   N	1570.235	470.006	-1597.718	N.am	15	MET15	-0.416	
228	  CA	1569.914	471.100	-1598.630	C.3	15	MET15	-0.024	
229	   C	1570.943	472.200	-1598.541	C.2	15	MET15	0.597	
230	   O	1571.446	472.713	-1599.553	O.2	15	MET15	-0.568	
231	  CB	1568.492	471.645	-1598.320	C.3	15	MET15	0.034	
232	  CG	1567.331	470.646	-1598.513	C.3	15	MET15	0.002	
233	  SD	1565.756	471.511	-1598.397	S.3	15	MET15	-0.274	
234	  CE	1564.676	470.081	-1598.262	C.3	15	MET15	-0.054	
235	   H	1569.570	469.712	-1597.017	 H	15	MET15	0.272	
236	  HA	1569.939	470.714	-1599.667	 H	15	MET15	0.088	
237	 2HB	1568.289	472.524	-1598.961	 H	15	MET15	0.024	
238	 3HB	1568.457	472.035	-1597.283	 H	15	MET15	0.024	
239	 2HG	1567.374	469.859	-1597.736	 H	15	MET15	0.044	
240	 3HG	1567.393	470.132	-1599.490	 H	15	MET15	0.044	
241	 1HE	1564.820	469.394	-1599.115	 H	15	MET15	0.068	
242	 2HE	1564.886	469.527	-1597.330	 H	15	MET15	0.068	
243	 3HE	1563.618	470.395	-1598.244	 H	15	MET15	0.068	
244	   N	1571.312	472.620	-1597.378	N.am	16	ARG16	-0.348	
245	  CA	1572.308	473.684	-1597.293	C.3	16	ARG16	-0.264	
246	   C	1573.579	473.293	-1598.010	C.2	16	ARG16	0.734	
247	   O	1573.693	472.217	-1598.593	O.2	16	ARG16	-0.589	
248	  CB	1572.577	474.000	-1595.794	C.3	16	ARG16	-0.001	
249	  CG	1573.402	475.289	-1595.519	C.3	16	ARG16	0.039	
250	  CD	1573.651	475.506	-1594.018	C.3	16	ARG16	0.049	
251	  NE	1574.427	476.765	-1593.815	N.pl3	16	ARG16	-0.530	
252	  CZ	1574.818	477.246	-1592.639	C.cat	16	ARG16	0.808	
253	 NH1	1574.571	476.659	-1591.501	N.pl3	16	ARG16	-0.863	
254	 NH2	1575.482	478.358	-1592.619	N.pl3	16	ARG16	-0.863	
255	   H	1570.918	472.218	-1596.539	 H	16	ARG16	0.275	
256	  HA	1571.899	474.577	-1597.801	 H	16	ARG16	0.156	
257	 2HB	1573.074	473.123	-1595.329	 H	16	ARG16	0.033	
258	 3HB	1571.608	474.079	-1595.260	 H	16	ARG16	0.033	
259	 2HG	1572.871	476.160	-1595.955	 H	16	ARG16	0.029	
260	 3HG	1574.375	475.237	-1596.049	 H	16	ARG16	0.029	
261	 2HD	1574.201	474.631	-1593.606	 H	16	ARG16	0.069	
262	 3HD	1572.679	475.547	-1593.482	 H	16	ARG16	0.069	
263	  HE	1574.705	477.347	-1594.611	 H	16	ARG16	0.346	
264	1HH1	1574.046	475.786	-1591.587	 H	16	ARG16	0.448	
265	2HH1	1574.905	477.094	-1590.639	 H	16	ARG16	0.448	
266	1HH2	1575.667	478.803	-1593.520	 H	16	ARG16	0.448	
267	2HH2	1575.772	478.712	-1591.705	 H	16	ARG16	0.448	
@<TRIPOS>BOND
1 1 2 1
2 1 10 1
3 2 3 1
4 2 5 1
5 2 11 1
6 3 4 2
7 3 16 1
8 5 6 1
9 6 7 1
10 7 8 2
11 7 9 1
12 5 12 1
13 5 13 1
14 6 14 1
15 6 15 1
16 16 17 1
17 16 24 1
18 17 18 1
19 17 20 1
20 17 25 1
21 18 19 2
22 18 30 1
23 20 21 1
24 21 22 1
25 21 23 2
26 20 26 1
27 20 27 1
28 22 28 1
29 22 29 1
30 30 31 1
31 30 36 1
32 31 32 1
33 31 34 1
34 31 37 1
35 32 33 2
36 32 44 1
37 34 35 1
38 35 36 1
39 34 38 1
40 34 39 1
41 35 40 1
42 35 41 1
43 36 42 1
44 36 43 1
45 44 45 1
46 44 53 1
47 45 46 1
48 45 48 1
49 45 54 1
50 46 47 2
51 46 59 1
52 48 49 1
53 49 50 1
54 50 51 2
55 50 52 1
56 48 55 1
57 48 56 1
58 49 57 1
59 49 58 1
60 59 60 1
61 59 65 1
62 60 61 1
63 60 63 1
64 60 66 1
65 61 62 2
66 61 70 1
67 63 64 1
68 63 67 1
69 63 68 1
70 64 69 1
71 70 71 1
72 70 78 1
73 71 72 1
74 71 74 1
75 71 79 1
76 72 73 2
77 72 89 1
78 74 75 1
79 74 76 1
80 75 77 1
81 74 80 1
82 75 81 1
83 75 82 1
84 76 83 1
85 76 84 1
86 76 85 1
87 77 86 1
88 77 87 1
89 77 88 1
90 89 90 1
91 89 97 1
92 90 91 1
93 90 93 1
94 90 98 1
95 91 92 2
96 91 108 1
97 93 94 1
98 94 95 1
99 94 96 1
100 93 99 1
101 93 100 1
102 94 101 1
103 95 102 1
104 95 103 1
105 95 104 1
106 96 105 1
107 96 106 1
108 96 107 1
109 108 109 1
110 108 116 1
111 109 110 1
112 109 112 1
113 109 117 1
114 110 111 2
115 110 120 1
116 112 113 1
117 113 114 2
118 113 115 1
119 112 118 1
120 112 119 1
121 120 121 1
122 120 129 1
123 121 122 1
124 121 124 1
125 121 130 1
126 122 123 2
127 122 135 1
128 124 125 1
129 125 126 1
130 126 127 2
131 126 128 1
132 124 131 1
133 124 132 1
134 125 133 1
135 125 134 1
136 135 136 1
137 135 143 1
138 136 137 1
139 136 139 1
140 136 144 1
141 137 138 2
142 137 154 1
143 139 140 1
144 139 141 1
145 140 142 1
146 139 145 1
147 140 146 1
148 140 147 1
149 141 148 1
150 141 149 1
151 141 150 1
152 142 151 1
153 142 152 1
154 142 153 1
155 154 155 1
156 154 161 1
157 155 156 1
158 155 158 1
159 155 162 1
160 156 157 2
161 156 170 1
162 158 159 1
163 158 160 1
164 158 163 1
165 159 164 1
166 159 165 1
167 159 166 1
168 160 167 1
169 160 168 1
170 160 169 1
171 170 171 1
172 170 179 1
173 171 172 1
174 171 174 1
175 171 180 1
176 172 173 2
177 172 187 1
178 174 175 1
179 175 176 1
180 176 177 1
181 176 178 2
182 174 181 1
183 174 182 1
184 175 183 1
185 175 184 1
186 177 185 1
187 177 186 1
188 187 188 1
189 187 198 1
190 188 189 1
191 188 191 1
192 188 199 1
193 189 190 2
194 189 211 1
195 191 192 1
196 192 193 1
197 193 194 1
198 194 195 1
199 195 196 2
200 195 197 1
201 191 200 1
202 191 201 1
203 192 202 1
204 192 203 1
205 193 204 1
206 193 205 1
207 194 206 1
208 196 207 1
209 196 208 1
210 197 209 1
211 197 210 1
212 211 212 1
213 211 218 1
214 212 213 1
215 212 215 1
216 212 219 1
217 213 214 2
218 213 227 1
219 215 216 1
220 215 217 1
221 215 220 1
222 216 221 1
223 216 222 1
224 216 223 1
225 217 224 1
226 217 225 1
227 217 226 1
228 227 228 1
229 227 235 1
230 228 229 1
231 228 231 1
232 228 236 1
233 229 230 2
234 229 244 1
235 231 232 1
236 232 233 1
237 233 234 1
238 231 237 1
239 231 238 1
240 232 239 1
241 232 240 1
242 234 241 1
243 234 242 1
244 234 243 1
245 244 245 1
246 244 255 1
247 245 246 1
248 245 248 1
249 245 256 1
250 246 247 2
251 248 249 1
252 249 250 1
253 250 251 1
254 251 252 1
255 252 253 2
256 252 254 1
257 248 257 1
258 248 258 1
259 249 259 1
260 249 260 1
261 250 261 1
262 250 262 1
263 251 263 1
264 253 264 1
265 253 265 1
266 254 266 1
267 254 267 1
@<TRIPOS>SUBSTRUCTURE
1	GLU1	1	RESIDUE	1 ****	GLU
2	ASN2	16	RESIDUE	1 ****	ASN
3	PRO3	30	RESIDUE	1 ****	PRO
4	GLU4	44	RESIDUE	1 ****	GLU
5	SER5	59	RESIDUE	1 ****	SER
6	ILE6	70	RESIDUE	1 ****	ILE
7	LEU7	89	RESIDUE	1 ****	LEU
8	ASP8	108	RESIDUE	1 ****	ASP
9	GLU9	120	RESIDUE	1 ****	GLU
10	ILE10	135	RESIDUE	1 ****	ILE
11	VAL11	154	RESIDUE	1 ****	VAL
12	GLN12	170	RESIDUE	1 ****	GLN
13	ARG13	187	RESIDUE	1 ****	ARG
14	VAL14	211	RESIDUE	1 ****	VAL
15	MET15	227	RESIDUE	1 ****	MET
16	ARG16	244	RESIDUE	1 ****	ARG
