REMARK WARNING: 32 MAX_TORS EXCEEDED!!!
REMARK  67 active torsions:
REMARK  status: ('A' for Active; 'I' for Inactive)
REMARK    1  A    between atoms: N_1  and  CA_2 
REMARK    2  A    between atoms: CA_2  and  C_3 
REMARK    3  A    between atoms: CA_2  and  CB_5 
REMARK       I    between atoms: C_3  and  N_11 
REMARK    4  A    between atoms: CB_5  and  CG_6 
REMARK    5  A    between atoms: CG_6  and  CD_7 
REMARK    6  A    between atoms: N_11  and  CA_12 
REMARK    7  A    between atoms: CA_12  and  C_13 
REMARK    8  A    between atoms: CA_12  and  CB_15 
REMARK       I    between atoms: C_13  and  N_22 
REMARK    9  A    between atoms: CB_15  and  CG_16 
REMARK       I    between atoms: CG_16  and  ND2_17 
REMARK   10  A    between atoms: CA_23  and  C_24 
REMARK       I    between atoms: C_24  and  N_29 
REMARK   11  A    between atoms: N_29  and  CA_30 
REMARK   12  A    between atoms: CA_30  and  C_31 
REMARK   13  A    between atoms: CA_30  and  CB_33 
REMARK       I    between atoms: C_31  and  N_39 
REMARK   14  A    between atoms: CB_33  and  CG_34 
REMARK   15  A    between atoms: CG_34  and  CD_35 
REMARK   16  A    between atoms: N_39  and  CA_40 
REMARK   17  A    between atoms: CA_40  and  C_41 
REMARK   18  A    between atoms: CA_40  and  CB_43 
REMARK       I    between atoms: C_41  and  N_47 
REMARK   19  A    between atoms: CB_43  and  OG_44 
REMARK   20  A    between atoms: N_47  and  CA_48 
REMARK   21  A    between atoms: CA_48  and  C_49 
REMARK   22  A    between atoms: CA_48  and  CB_51 
REMARK       I    between atoms: C_49  and  N_56 
REMARK   23  A    between atoms: CB_51  and  CG1_52 
REMARK   24  A    between atoms: N_56  and  CA_57 
REMARK   25  A    between atoms: CA_57  and  C_58 
REMARK   26  A    between atoms: CA_57  and  CB_60 
REMARK       I    between atoms: C_58  and  N_65 
REMARK   27  A    between atoms: CB_60  and  CG_61 
REMARK   28  A    between atoms: N_65  and  CA_66 
REMARK   29  A    between atoms: CA_66  and  C_67 
REMARK   30  A    between atoms: CA_66  and  CB_69 
REMARK       I    between atoms: C_67  and  N_74 
REMARK   31  A    between atoms: CB_69  and  CG_70 
REMARK   32  A    between atoms: N_74  and  CA_75 
REMARK   33  A    between atoms: CA_75  and  C_76 
REMARK   34  A    between atoms: CA_75  and  CB_78 
REMARK       I    between atoms: C_76  and  N_84 
REMARK   35  A    between atoms: CB_78  and  CG_79 
REMARK   36  A    between atoms: CG_79  and  CD_80 
REMARK   37  A    between atoms: N_84  and  CA_85 
REMARK   38  A    between atoms: CA_85  and  C_86 
REMARK   39  A    between atoms: CA_85  and  CB_88 
REMARK       I    between atoms: C_86  and  N_96 
REMARK   40  A    between atoms: CB_88  and  CG_89 
REMARK   41  A    between atoms: N_96  and  CA_97 
REMARK   42  A    between atoms: CA_97  and  C_98 
REMARK   43  A    between atoms: CA_97  and  CB_100 
REMARK       I    between atoms: C_98  and  N_104 
REMARK   44  A    between atoms: N_104  and  CA_105 
REMARK   45  A    between atoms: CA_105  and  C_106 
REMARK   46  A    between atoms: CA_105  and  CB_108 
REMARK       I    between atoms: C_106  and  N_116 
REMARK   47  A    between atoms: CB_108  and  CG_109 
REMARK   48  A    between atoms: CG_109  and  CD_110 
REMARK       I    between atoms: CD_110  and  NE2_111 
REMARK   49  A    between atoms: N_116  and  CA_117 
REMARK   50  A    between atoms: CA_117  and  C_118 
REMARK   51  A    between atoms: CA_117  and  CB_120 
REMARK       I    between atoms: C_118  and  N_133 
REMARK   52  A    between atoms: CB_120  and  CG_121 
REMARK   53  A    between atoms: CG_121  and  CD_122 
REMARK   54  A    between atoms: CD_122  and  NE_123 
REMARK       I    between atoms: NE_123  and  CZ_124 
REMARK       I    between atoms: CZ_124  and  NH1_125 
REMARK       I    between atoms: CZ_124  and  NH2_126 
REMARK   55  A    between atoms: N_133  and  CA_134 
REMARK   56  A    between atoms: CA_134  and  C_135 
REMARK   57  A    between atoms: CA_134  and  CB_137 
REMARK       I    between atoms: C_135  and  N_141 
REMARK   58  A    between atoms: N_141  and  CA_142 
REMARK   59  A    between atoms: CA_142  and  C_143 
REMARK   60  A    between atoms: CA_142  and  CB_145 
REMARK       I    between atoms: C_143  and  N_152 
REMARK   61  A    between atoms: CB_145  and  CG_146 
REMARK       I    between atoms: CG_146  and  ND2_147 
REMARK   62  A    between atoms: N_152  and  CA_153 
REMARK   63  A    between atoms: CA_153  and  C_154 
REMARK   64  A    between atoms: CA_153  and  CB_156 
REMARK   65  A    between atoms: CB_156  and  CG_157 
REMARK   66  A    between atoms: CG_157  and  CD_158 
REMARK   67  A    between atoms: CD_158  and  NE_159 
REMARK       I    between atoms: NE_159  and  CZ_160 
REMARK       I    between atoms: CZ_160  and  NH1_161 
ROOT
ATOM      1  C   GLU d   9    2459.006 757.005-2559.241  0.00  0.00     0.241 C 
ATOM      2  O   GLU d   9    2459.670 757.758-2559.967  0.00  0.00    -0.271 OA
ATOM      3  N   HIS d  10    2459.102 755.729-2559.410  0.00  0.00    -0.346 N 
ATOM      4  H   HIS d  10    2458.571 755.095-2558.831  0.00  0.00     0.163 HD
ENDROOT
BRANCH   3   5
ATOM      5  CA  HIS d  10    2459.989 755.217-2560.450  0.00  0.00     0.182 C 
BRANCH   5   6
ATOM      6  C   HIS d  10    2459.622 755.781-2561.802  0.00  0.00     0.241 C 
ATOM      7  O   HIS d  10    2460.475 756.245-2562.574  0.00  0.00    -0.271 OA
ATOM      8  N   VAL d  11    2458.385 755.781-2562.164  0.00  0.00    -0.346 N 
ATOM      9  H   VAL d  11    2457.671 755.409-2561.553  0.00  0.00     0.163 HD
BRANCH   8  10
ATOM     10  CA  VAL d  11    2458.029 756.326-2563.471  0.00  0.00     0.180 C 
BRANCH  10  11
ATOM     11  C   VAL d  11    2458.495 757.757-2563.605  0.00  0.00     0.241 C 
ATOM     12  O   VAL d  11    2459.096 758.161-2564.608  0.00  0.00    -0.271 OA
ATOM     13  N   GLN d  12    2458.258 758.583-2562.643  0.00  0.00    -0.346 N 
ATOM     14  H   GLN d  12    2457.770 758.277-2561.813  0.00  0.00     0.163 HD
BRANCH  13  15
ATOM     15  CA  GLN d  12    2458.708 759.966-2562.771  0.00  0.00     0.177 C 
BRANCH  15  16
ATOM     16  C   GLN d  12    2460.197 760.032-2563.009  0.00  0.00     0.241 C 
ATOM     17  O   GLN d  12    2460.685 760.740-2563.888  0.00  0.00    -0.271 OA
ATOM     18  N   ARG d  13    2460.982 759.325-2562.268  0.00  0.00    -0.346 N 
ATOM     19  H   ARG d  13    2460.605 758.736-2561.539  0.00  0.00     0.163 HD
BRANCH  18  20
ATOM     20  CA  ARG d  13    2462.422 759.390-2562.499  0.00  0.00     0.176 C 
BRANCH  20  21
ATOM     21  C   ARG d  13    2462.758 759.018-2563.924  0.00  0.00     0.241 C 
ATOM     22  O   ARG d  13    2463.527 759.689-2564.608  0.00  0.00    -0.271 OA
ATOM     23  N   VAL d  14    2462.221 757.963-2564.437  0.00  0.00    -0.346 N 
ATOM     24  H   VAL d  14    2461.586 757.395-2563.895  0.00  0.00     0.163 HD
BRANCH  23  25
ATOM     25  CA  VAL d  14    2462.546 757.603-2565.815  0.00  0.00     0.180 C 
BRANCH  25  26
ATOM     26  C   VAL d  14    2462.216 758.733-2566.761  0.00  0.00     0.241 C 
ATOM     27  O   VAL d  14    2463.009 759.114-2567.631  0.00  0.00    -0.271 OA
ATOM     28  N   ASN d  15    2461.071 759.319-2566.659  0.00  0.00    -0.346 N 
ATOM     29  H   ASN d  15    2460.406 759.027-2565.957  0.00  0.00     0.163 HD
BRANCH  28  30
ATOM     30  CA  ASN d  15    2460.752 760.411-2567.573  0.00  0.00     0.185 C 
BRANCH  30  31
ATOM     31  C   ASN d  15    2461.785 761.510-2567.484  0.00  0.00     0.241 C 
ATOM     32  O   ASN d  15    2462.286 762.017-2568.487  0.00  0.00    -0.271 OA
ATOM     33  N   ARG d  16    2462.153 761.930-2566.321  0.00  0.00    -0.347 N 
ATOM     34  H   ARG d  16    2461.756 761.530-2565.483  0.00  0.00     0.163 HD
BRANCH  33  35
ATOM     35  CA  ARG d  16    2463.152 762.991-2566.236  0.00  0.00     0.162 C 
BRANCH  35  36
ATOM     36  C   ARG d  16    2464.422 762.596-2566.950  0.00  0.00     0.219 C 
ATOM     37  O   ARG d  16    2464.534 761.520-2567.533  0.00  0.00    -0.287 OA
ENDBRANCH  35  36
BRANCH  35  38
ATOM     38  CB  ARG d  16    2463.420 763.307-2564.737  0.00  0.00     0.035 C 
BRANCH  38  39
ATOM     39  CG  ARG d  16    2464.247 764.594-2564.462  0.00  0.00     0.023 C 
BRANCH  39  40
ATOM     40  CD  ARG d  16    2464.496 764.812-2562.960  0.00  0.00     0.138 C 
BRANCH  40  41
ATOM     41  NE  ARG d  16    2465.274 766.069-2562.757  0.00  0.00    -0.227 N 
ATOM     42  CZ  ARG d  16    2465.666 766.549-2561.581  0.00  0.00     0.665 C 
ATOM     43  NH1 ARG d  16    2465.415 765.965-2560.443  0.00  0.00    -0.235 N 
ATOM     44  NH2 ARG d  16    2466.332 767.660-2561.561  0.00  0.00    -0.235 N 
ATOM     45 11HH ARG d  16    2464.888 765.093-2560.529  0.00  0.00     0.174 HD
ATOM     46 12HH ARG d  16    2465.750 766.399-2559.581  0.00  0.00     0.174 HD
ATOM     47 21HH ARG d  16    2466.519 768.104-2562.462  0.00  0.00     0.174 HD
ATOM     48 22HH ARG d  16    2466.622 768.014-2560.647  0.00  0.00     0.174 HD
ATOM     49  HE  ARG d  16    2465.555 766.650-2563.553  0.00  0.00     0.177 HD
ENDBRANCH  40  41
ENDBRANCH  39  40
ENDBRANCH  38  39
ENDBRANCH  35  38
ENDBRANCH  33  35
ENDBRANCH  30  31
BRANCH  30  50
ATOM     50  CB  ASN d  15    2459.333 760.962-2567.248  0.00  0.00     0.137 C 
BRANCH  50  51
ATOM     51  CG  ASN d  15    2458.174 759.961-2567.291  0.00  0.00     0.217 C 
ATOM     52  ND2 ASN d  15    2457.687 759.610-2568.451  0.00  0.00    -0.370 N 
ATOM     53 21HD ASN d  15    2457.028 758.830-2568.377  0.00  0.00     0.159 HD
ATOM     54 22HD ASN d  15    2458.159 759.972-2569.279  0.00  0.00     0.159 HD
ATOM     55  OD1 ASN d  15    2457.705 759.465-2566.278  0.00  0.00    -0.274 OA
ENDBRANCH  50  51
ENDBRANCH  30  50
ENDBRANCH  28  30
ENDBRANCH  25  26
BRANCH  25  56
ATOM     56  CB  VAL d  14    2461.773 756.286-2566.221  0.00  0.00     0.009 C 
ATOM     57  CG1 VAL d  14    2461.861 755.867-2567.714  0.00  0.00     0.012 C 
ATOM     58  CG2 VAL d  14    2462.204 755.034-2565.420  0.00  0.00     0.012 C 
ENDBRANCH  25  56
ENDBRANCH  23  25
ENDBRANCH  20  21
BRANCH  20  59
ATOM     59  CB  ARG d  13    2463.135 758.452-2561.484  0.00  0.00     0.036 C 
BRANCH  59  60
ATOM     60  CG  ARG d  13    2464.680 758.605-2561.404  0.00  0.00     0.023 C 
BRANCH  60  61
ATOM     61  CD  ARG d  13    2465.307 757.618-2560.406  0.00  0.00     0.138 C 
BRANCH  61  62
ATOM     62  NE  ARG d  13    2466.784 757.824-2560.356  0.00  0.00    -0.227 N 
ATOM     63  CZ  ARG d  13    2467.633 757.133-2559.600  0.00  0.00     0.665 C 
ATOM     64  NH1 ARG d  13    2467.268 756.170-2558.802  0.00  0.00    -0.235 N 
ATOM     65  NH2 ARG d  13    2468.892 757.432-2559.658  0.00  0.00    -0.235 N 
ATOM     66 11HH ARG d  13    2466.262 755.984-2558.805  0.00  0.00     0.174 HD
ATOM     67 12HH ARG d  13    2467.981 755.687-2558.253  0.00  0.00     0.174 HD
ATOM     68 21HH ARG d  13    2469.160 758.189-2560.290  0.00  0.00     0.174 HD
ATOM     69 22HH ARG d  13    2469.528 756.891-2559.069  0.00  0.00     0.174 HD
ATOM     70  HE  ARG d  13    2467.236 758.546-2560.927  0.00  0.00     0.177 HD
ENDBRANCH  61  62
ENDBRANCH  60  61
ENDBRANCH  59  60
ENDBRANCH  20  59
ENDBRANCH  18  20
ENDBRANCH  15  16
BRANCH  15  71
ATOM     71  CB  GLN d  12    2458.317 760.734-2561.488  0.00  0.00     0.044 C 
BRANCH  71  72
ATOM     72  CG  GLN d  12    2458.678 762.255-2561.458  0.00  0.00     0.105 C 
BRANCH  72  73
ATOM     73  CD  GLN d  12    2458.377 763.070-2560.194  0.00  0.00     0.215 C 
ATOM     74  NE2 GLN d  12    2457.810 762.494-2559.164  0.00  0.00    -0.370 N 
ATOM     75 21HE GLN d  12    2457.703 763.089-2558.341  0.00  0.00     0.159 HD
ATOM     76 22HE GLN d  12    2457.646 761.491-2559.267  0.00  0.00     0.159 HD
ATOM     77  OE1 GLN d  12    2458.679 764.251-2560.117  0.00  0.00    -0.274 OA
ENDBRANCH  72  73
ENDBRANCH  71  72
ENDBRANCH  15  71
ENDBRANCH  13  15
ENDBRANCH  10  11
BRANCH  10  78
ATOM     78  CB  VAL d  11    2456.468 756.220-2563.690  0.00  0.00     0.009 C 
ATOM     79  CG1 VAL d  11    2455.900 756.924-2564.953  0.00  0.00     0.012 C 
ATOM     80  CG2 VAL d  11    2455.943 754.766-2563.762  0.00  0.00     0.012 C 
ENDBRANCH  10  78
ENDBRANCH   8  10
ENDBRANCH   5   6
BRANCH   5  81
ATOM     81  CB  HIS d  10    2459.825 753.688-2560.445  0.00  0.00     0.095 C 
BRANCH  81  82
ATOM     82  CG  HIS d  10    2461.110 752.977-2560.136  0.00  0.00     0.053 A 
ATOM     83  CD2 HIS d  10    2461.491 752.643-2558.844  0.00  0.00     0.116 A 
ATOM     84  NE2 HIS d  10    2462.706 752.011-2558.911  0.00  0.00    -0.359 N 
ATOM     85  CE1 HIS d  10    2462.968 752.013-2560.246  0.00  0.00     0.207 A 
ATOM     86  2HE HIS d  10    2463.273 751.634-2558.137  0.00  0.00     0.166 HD
ATOM     87  ND1 HIS d  10    2462.062 752.571-2561.069  0.00  0.00    -0.247 NA
ENDBRANCH  81  82
ENDBRANCH   5  81
ENDBRANCH   3   5
BRANCH   1  88
ATOM     88  CA  GLU d   9    2458.089 757.533-2558.165  0.00  0.00     0.177 C 
BRANCH  88  89
ATOM     89  N   GLU d   9    2456.785 756.876-2558.220  0.00  0.00    -0.346 N 
ATOM     90  C   ASP d   8    2456.105 756.926-2559.315  0.00  0.00     0.241 C 
ATOM     91  O   ASP d   8    2456.578 757.530-2560.290  0.00  0.00    -0.271 OA
ATOM     92  H   GLU d   9    2456.422 756.391-2557.412  0.00  0.00     0.163 HD
BRANCH  90  93
ATOM     93  CA  ASP d   8    2454.758 756.247-2559.372  0.00  0.00     0.186 C 
BRANCH  93  94
ATOM     94  N   ASP d   8    2454.828 754.898-2558.818  0.00  0.00    -0.346 N 
ATOM     95  C   LEU d   7    2455.665 754.056-2559.323  0.00  0.00     0.241 C 
ATOM     96  O   LEU d   7    2456.386 754.418-2560.266  0.00  0.00    -0.271 OA
ATOM     97  H   ASP d   8    2454.230 754.627-2558.050  0.00  0.00     0.163 HD
BRANCH  95  98
ATOM     98  CA  LEU d   7    2455.737 752.661-2558.750  0.00  0.00     0.177 C 
BRANCH  98  99
ATOM     99  N   LEU d   7    2455.792 752.697-2557.292  0.00  0.00    -0.346 N 
ATOM    100  C   ILE d   6    2456.738 753.361-2556.719  0.00  0.00     0.241 C 
ATOM    101  O   ILE d   6    2457.573 753.948-2557.422  0.00  0.00    -0.271 OA
ATOM    102  H   LEU d   7    2455.100 752.210-2556.741  0.00  0.00     0.163 HD
BRANCH 100 103
ATOM    103  CA  ILE d   6    2456.795 753.398-2555.211  0.00  0.00     0.180 C 
BRANCH 103 104
ATOM    104  N   ILE d   6    2455.482 753.694-2554.645  0.00  0.00    -0.346 N 
ATOM    105  C   SER d   5    2454.878 754.777-2554.999  0.00  0.00     0.243 C 
ATOM    106  O   SER d   5    2455.426 755.530-2555.804  0.00  0.00    -0.271 OA
ATOM    107  H   ILE d   6    2455.053 753.059-2553.986  0.00  0.00     0.163 HD
BRANCH 105 108
ATOM    108  CA  SER d   5    2453.519 755.083-2554.414  0.00  0.00     0.200 C 
BRANCH 108 109
ATOM    109  N   SER d   5    2452.649 753.912-2554.473  0.00  0.00    -0.344 N 
ATOM    110  C   GLU d   4    2452.422 753.359-2555.616  0.00  0.00     0.241 C 
ATOM    111  O   GLU d   4    2452.949 753.839-2556.630  0.00  0.00    -0.271 OA
ATOM    112  H   SER d   5    2452.231 753.540-2553.631  0.00  0.00     0.163 HD
BRANCH 110 113
ATOM    113  CA  GLU d   4    2451.523 752.148-2555.677  0.00  0.00     0.177 C 
BRANCH 113 114
ATOM    114  N   GLU d   4    2451.882 751.177-2554.648  0.00  0.00    -0.346 N 
ATOM    115  C   PRO d   3    2453.087 750.717-2554.615  0.00  0.00     0.241 C 
ATOM    116  O   PRO d   3    2453.910 751.100-2555.446  0.00  0.00    -0.271 OA
ATOM    117  H   GLU d   4    2451.197 750.871-2553.971  0.00  0.00     0.163 HD
BRANCH 115 118
ATOM    118  CA  PRO d   3    2453.484 749.694-2553.538  0.00  0.00     0.179 C 
ATOM    119  N   PRO d   3    2453.032 750.103-2552.217  0.00  0.00    -0.337 N 
ATOM    120  C   ASN d   2    2453.554 751.098-2551.582  0.00  0.00     0.243 C 
ATOM    121  CD  PRO d   3    2451.954 749.310-2551.668  0.00  0.00     0.127 C 
ATOM    122  O   ASN d   2    2454.469 751.728-2552.110  0.00  0.00    -0.271 OA
ATOM    123  CG  PRO d   3    2451.496 748.491-2552.878  0.00  0.00     0.022 C 
ATOM    124  CB  PRO d   3    2452.780 748.339-2553.708  0.00  0.00     0.037 C 
BRANCH 120 125
ATOM    125  CA  ASN d   2    2453.022 751.453-2550.214  0.00  0.00     0.185 C 
BRANCH 125 126
ATOM    126  N   ASN d   2    2451.563 751.492-2550.214  0.00  0.00    -0.346 N 
ATOM    127  C   GLU d   1    2450.958 752.278-2551.039  0.00  0.00     0.242 C 
ATOM    128  O   GLU d   1    2451.634 752.977-2551.808  0.00  0.00    -0.271 OA
ATOM    129  H   ASN d   2    2451.035 750.913-2549.577  0.00  0.00     0.163 HD
BRANCH 127 130
ATOM    130  CA  GLU d   1    2449.449 752.318-2551.039  0.00  0.00     0.191 C 
BRANCH 130 131
ATOM    131  N   GLU d   1    2448.890 750.969-2551.039  0.00  0.00    -0.326 NA
ATOM    132  H   GLU d   1    2449.517 750.090-2551.039  0.00  0.00     0.180 HD
ENDBRANCH 130 131
BRANCH 130 133
ATOM    133  CB  GLU d   1    2448.926 753.103-2549.802  0.00  0.00     0.047 C 
BRANCH 133 134
ATOM    134  CG  GLU d   1    2449.401 754.588-2549.691  0.00  0.00     0.116 C 
BRANCH 134 135
ATOM    135  CD  GLU d   1    2448.977 755.392-2548.476  0.00  0.00     0.172 C 
ATOM    136  OE1 GLU d   1    2448.249 754.890-2547.598  0.00  0.00    -0.648 OA
ATOM    137  OE2 GLU d   1    2449.407 756.562-2548.404  0.00  0.00    -0.648 OA
ENDBRANCH 134 135
ENDBRANCH 133 134
ENDBRANCH 130 133
ENDBRANCH 127 130
ENDBRANCH 125 126
BRANCH 125 138
ATOM    138  CB  ASN d   2    2453.514 750.430-2549.149  0.00  0.00     0.137 C 
BRANCH 138 139
ATOM    139  CG  ASN d   2    2453.051 750.654-2547.706  0.00  0.00     0.217 C 
ATOM    140  ND2 ASN d   2    2453.645 751.569-2546.988  0.00  0.00    -0.370 N 
ATOM    141 21HD ASN d   2    2453.164 751.742-2546.101  0.00  0.00     0.159 HD
ATOM    142 22HD ASN d   2    2454.346 752.141-2547.457  0.00  0.00     0.159 HD
ATOM    143  OD1 ASN d   2    2452.129 750.021-2547.212  0.00  0.00    -0.274 OA
ENDBRANCH 138 139
ENDBRANCH 125 138
ENDBRANCH 120 125
ENDBRANCH 115 118
ENDBRANCH 113 114
BRANCH 113 144
ATOM    144  CB  GLU d   4    2450.034 752.568-2555.508  0.00  0.00     0.045 C 
BRANCH 144 145
ATOM    145  CG  GLU d   4    2449.487 753.571-2556.573  0.00  0.00     0.116 C 
BRANCH 145 146
ATOM    146  CD  GLU d   4    2448.060 754.068-2556.430  0.00  0.00     0.172 C 
ATOM    147  OE1 GLU d   4    2447.333 753.670-2555.500  0.00  0.00    -0.648 OA
ATOM    148  OE2 GLU d   4    2447.671 754.898-2557.279  0.00  0.00    -0.648 OA
ENDBRANCH 145 146
ENDBRANCH 144 145
ENDBRANCH 113 144
ENDBRANCH 110 113
ENDBRANCH 108 109
BRANCH 108 149
ATOM    149  CB  SER d   5    2453.630 755.615-2552.963  0.00  0.00     0.199 C 
BRANCH 149 150
ATOM    150  OG  SER d   5    2454.361 754.735-2552.102  0.00  0.00    -0.398 OA
ATOM    151  HG  SER d   5    2453.872 753.911-2552.052  0.00  0.00     0.209 HD
ENDBRANCH 149 150
ENDBRANCH 108 149
ENDBRANCH 105 108
ENDBRANCH 103 104
BRANCH 103 152
ATOM    152  CB  ILE d   6    2457.394 752.062-2554.610  0.00  0.00     0.013 C 
ATOM    153  CG2 ILE d   6    2458.835 751.759-2555.125  0.00  0.00     0.012 C 
BRANCH 152 154
ATOM    154  CG1 ILE d   6    2457.413 751.999-2553.050  0.00  0.00     0.002 C 
ATOM    155  CD1 ILE d   6    2457.683 750.610-2552.434  0.00  0.00     0.005 C 
ENDBRANCH 152 154
ENDBRANCH 103 152
ENDBRANCH 100 103
ENDBRANCH  98  99
BRANCH  98 156
ATOM    156  CB  LEU d   7    2454.534 751.801-2559.231  0.00  0.00     0.038 C 
BRANCH 156 157
ATOM    157  CG  LEU d   7    2454.460 750.322-2558.764  0.00  0.00    -0.020 C 
ATOM    158  CD1 LEU d   7    2453.271 749.616-2559.430  0.00  0.00     0.009 C 
ATOM    159  CD2 LEU d   7    2455.754 749.542-2559.056  0.00  0.00     0.009 C 
ENDBRANCH 156 157
ENDBRANCH  98 156
ENDBRANCH  95  98
ENDBRANCH  93  94
BRANCH  93 160
ATOM    160  CB  ASP d   8    2453.681 757.087-2558.631  0.00  0.00     0.147 C 
BRANCH 160 161
ATOM    161  CG  ASP d   8    2453.463 758.507-2559.172  0.00  0.00     0.175 C 
ATOM    162  OD1 ASP d   8    2453.527 758.706-2560.403  0.00  0.00    -0.648 OA
ATOM    163  OD2 ASP d   8    2453.271 759.434-2558.357  0.00  0.00    -0.648 OA
ENDBRANCH 160 161
ENDBRANCH  93 160
ENDBRANCH  90  93
ENDBRANCH  88  89
BRANCH  88 164
ATOM    164  CB  GLU d   9    2458.722 757.326-2556.760  0.00  0.00     0.045 C 
BRANCH 164 165
ATOM    165  CG  GLU d   9    2460.105 758.018-2556.531  0.00  0.00     0.116 C 
BRANCH 165 166
ATOM    166  CD  GLU d   9    2460.807 757.805-2555.203  0.00  0.00     0.172 C 
ATOM    167  OE1 GLU d   9    2460.285 757.115-2554.306  0.00  0.00    -0.648 OA
ATOM    168  OE2 GLU d   9    2461.927 758.342-2555.072  0.00  0.00    -0.648 OA
ENDBRANCH 165 166
ENDBRANCH 164 165
ENDBRANCH  88 164
ENDBRANCH   1  88
TORSDOF 67
