REMARK WARNING: 32 MAX_TORS EXCEEDED!!!
REMARK  70 active torsions:
REMARK  status: ('A' for Active; 'I' for Inactive)
REMARK    1  A    between atoms: N_1  and  CA_2 
REMARK    2  A    between atoms: CA_2  and  C_3 
REMARK    3  A    between atoms: CA_2  and  CB_5 
REMARK       I    between atoms: C_3  and  N_11 
REMARK    4  A    between atoms: CB_5  and  CG_6 
REMARK    5  A    between atoms: CG_6  and  CD_7 
REMARK    6  A    between atoms: N_11  and  CA_12 
REMARK    7  A    between atoms: CA_12  and  C_13 
REMARK    8  A    between atoms: CA_12  and  CB_15 
REMARK       I    between atoms: C_13  and  N_22 
REMARK    9  A    between atoms: CB_15  and  CG_16 
REMARK       I    between atoms: CG_16  and  ND2_17 
REMARK   10  A    between atoms: CA_23  and  C_24 
REMARK       I    between atoms: C_24  and  N_29 
REMARK   11  A    between atoms: N_29  and  CA_30 
REMARK   12  A    between atoms: CA_30  and  C_31 
REMARK   13  A    between atoms: CA_30  and  CB_33 
REMARK       I    between atoms: C_31  and  N_39 
REMARK   14  A    between atoms: CB_33  and  CG_34 
REMARK   15  A    between atoms: CG_34  and  CD_35 
REMARK   16  A    between atoms: N_39  and  CA_40 
REMARK   17  A    between atoms: CA_40  and  C_41 
REMARK   18  A    between atoms: CA_40  and  CB_43 
REMARK       I    between atoms: C_41  and  N_47 
REMARK   19  A    between atoms: CB_43  and  OG_44 
REMARK   20  A    between atoms: N_47  and  CA_48 
REMARK   21  A    between atoms: CA_48  and  C_49 
REMARK   22  A    between atoms: CA_48  and  CB_51 
REMARK       I    between atoms: C_49  and  N_56 
REMARK   23  A    between atoms: CB_51  and  CG1_52 
REMARK   24  A    between atoms: N_56  and  CA_57 
REMARK   25  A    between atoms: CA_57  and  C_58 
REMARK   26  A    between atoms: CA_57  and  CB_60 
REMARK       I    between atoms: C_58  and  N_65 
REMARK   27  A    between atoms: CB_60  and  CG_61 
REMARK   28  A    between atoms: N_65  and  CA_66 
REMARK   29  A    between atoms: CA_66  and  C_67 
REMARK   30  A    between atoms: CA_66  and  CB_69 
REMARK       I    between atoms: C_67  and  N_74 
REMARK   31  A    between atoms: CB_69  and  CG_70 
REMARK   32  A    between atoms: N_74  and  CA_75 
REMARK   33  A    between atoms: CA_75  and  C_76 
REMARK   34  A    between atoms: CA_75  and  CB_78 
REMARK       I    between atoms: C_76  and  N_84 
REMARK   35  A    between atoms: CB_78  and  CG_79 
REMARK   36  A    between atoms: CG_79  and  CD_80 
REMARK   37  A    between atoms: N_84  and  CA_85 
REMARK   38  A    between atoms: CA_85  and  C_86 
REMARK   39  A    between atoms: CA_85  and  CB_88 
REMARK       I    between atoms: C_86  and  N_96 
REMARK   40  A    between atoms: CB_88  and  CG_89 
REMARK   41  A    between atoms: N_96  and  CA_97 
REMARK   42  A    between atoms: CA_97  and  C_98 
REMARK   43  A    between atoms: CA_97  and  CB_100 
REMARK       I    between atoms: C_98  and  N_108 
REMARK   44  A    between atoms: CB_100  and  CG_101 
REMARK   45  A    between atoms: CG_101  and  CD_102 
REMARK       I    between atoms: CD_102  and  NE2_103 
REMARK   46  A    between atoms: N_108  and  CA_109 
REMARK   47  A    between atoms: CA_109  and  C_110 
REMARK   48  A    between atoms: CA_109  and  CB_112 
REMARK       I    between atoms: C_110  and  N_120 
REMARK   49  A    between atoms: CB_112  and  CG_113 
REMARK   50  A    between atoms: CG_113  and  CD_114 
REMARK       I    between atoms: CD_114  and  NE2_115 
REMARK   51  A    between atoms: N_120  and  CA_121 
REMARK   52  A    between atoms: CA_121  and  C_122 
REMARK   53  A    between atoms: CA_121  and  CB_124 
REMARK       I    between atoms: C_122  and  N_137 
REMARK   54  A    between atoms: CB_124  and  CG_125 
REMARK   55  A    between atoms: CG_125  and  CD_126 
REMARK   56  A    between atoms: CD_126  and  NE_127 
REMARK       I    between atoms: NE_127  and  CZ_128 
REMARK       I    between atoms: CZ_128  and  NH1_129 
REMARK       I    between atoms: CZ_128  and  NH2_130 
REMARK   57  A    between atoms: N_137  and  CA_138 
REMARK   58  A    between atoms: CA_138  and  C_139 
REMARK   59  A    between atoms: CA_138  and  CB_141 
REMARK       I    between atoms: C_139  and  N_145 
REMARK   60  A    between atoms: N_145  and  CA_146 
REMARK   61  A    between atoms: CA_146  and  C_147 
REMARK   62  A    between atoms: CA_146  and  CB_149 
REMARK       I    between atoms: C_147  and  N_154 
REMARK   63  A    between atoms: CB_149  and  CG_150 
REMARK   64  A    between atoms: CG_150  and  SD_151 
REMARK   65  A    between atoms: N_154  and  CA_155 
REMARK   66  A    between atoms: CA_155  and  C_156 
REMARK   67  A    between atoms: CA_155  and  CB_158 
REMARK   68  A    between atoms: CB_158  and  CG_159 
REMARK   69  A    between atoms: CG_159  and  CD_160 
REMARK   70  A    between atoms: CD_160  and  NE_161 
REMARK       I    between atoms: NE_161  and  CZ_162 
REMARK       I    between atoms: CZ_162  and  NH1_163 
ROOT
ATOM      1  C   GLU d   9    1814.774 547.575-1857.115  0.00  0.00     0.241 C 
ATOM      2  O   GLU d   9    1815.438 548.330-1857.840  0.00  0.00    -0.271 OA
ATOM      3  N   HIS d  10    1814.871 546.300-1857.285  0.00  0.00    -0.346 N 
ATOM      4  H   HIS d  10    1814.340 545.664-1856.707  0.00  0.00     0.163 HD
ENDROOT
BRANCH   3   5
ATOM      5  CA  HIS d  10    1815.759 545.789-1858.325  0.00  0.00     0.182 C 
BRANCH   5   6
ATOM      6  C   HIS d  10    1815.392 546.354-1859.677  0.00  0.00     0.241 C 
ATOM      7  O   HIS d  10    1816.245 546.819-1860.448  0.00  0.00    -0.271 OA
ATOM      8  N   GLN d  11    1814.155 546.352-1860.040  0.00  0.00    -0.346 N 
ATOM      9  H   GLN d  11    1813.442 545.979-1859.429  0.00  0.00     0.163 HD
BRANCH   8  10
ATOM     10  CA  GLN d  11    1813.800 546.898-1861.346  0.00  0.00     0.177 C 
BRANCH  10  11
ATOM     11  C   GLN d  11    1814.263 548.330-1861.480  0.00  0.00     0.241 C 
ATOM     12  O   GLN d  11    1814.859 548.730-1862.477  0.00  0.00    -0.271 OA
ATOM     13  N   GLN d  12    1814.026 549.157-1860.518  0.00  0.00    -0.346 N 
ATOM     14  H   GLN d  12    1813.537 548.852-1859.689  0.00  0.00     0.163 HD
BRANCH  13  15
ATOM     15  CA  GLN d  12    1814.474 550.540-1860.648  0.00  0.00     0.177 C 
BRANCH  15  16
ATOM     16  C   GLN d  12    1815.963 550.607-1860.886  0.00  0.00     0.241 C 
ATOM     17  O   GLN d  12    1816.450 551.315-1861.766  0.00  0.00    -0.271 OA
ATOM     18  N   ARG d  13    1816.748 549.902-1860.144  0.00  0.00    -0.346 N 
ATOM     19  H   ARG d  13    1816.373 549.313-1859.415  0.00  0.00     0.163 HD
BRANCH  18  20
ATOM     20  CA  ARG d  13    1818.189 549.968-1860.375  0.00  0.00     0.176 C 
BRANCH  20  21
ATOM     21  C   ARG d  13    1818.525 549.595-1861.800  0.00  0.00     0.241 C 
ATOM     22  O   ARG d  13    1819.293 550.266-1862.485  0.00  0.00    -0.271 OA
ATOM     23  N   VAL d  14    1817.989 548.539-1862.313  0.00  0.00    -0.346 N 
ATOM     24  H   VAL d  14    1817.355 547.971-1861.770  0.00  0.00     0.163 HD
BRANCH  23  25
ATOM     25  CA  VAL d  14    1818.314 548.178-1863.690  0.00  0.00     0.180 C 
BRANCH  25  26
ATOM     26  C   VAL d  14    1817.983 549.306-1864.637  0.00  0.00     0.241 C 
ATOM     27  O   VAL d  14    1818.776 549.687-1865.507  0.00  0.00    -0.271 OA
ATOM     28  N   MET d  15    1816.838 549.892-1864.536  0.00  0.00    -0.346 N 
ATOM     29  H   MET d  15    1816.173 549.599-1863.833  0.00  0.00     0.163 HD
BRANCH  28  30
ATOM     30  CA  MET d  15    1816.516 550.983-1865.451  0.00  0.00     0.177 C 
BRANCH  30  31
ATOM     31  C   MET d  15    1817.546 552.083-1865.365  0.00  0.00     0.241 C 
ATOM     32  O   MET d  15    1818.048 552.593-1866.379  0.00  0.00    -0.271 OA
ATOM     33  N   ARG d  16    1817.915 552.507-1864.204  0.00  0.00    -0.347 N 
ATOM     34  H   ARG d  16    1817.521 552.108-1863.364  0.00  0.00     0.163 HD
BRANCH  33  35
ATOM     35  CA  ARG d  16    1818.911 553.571-1864.122  0.00  0.00     0.162 C 
BRANCH  35  36
ATOM     36  C   ARG d  16    1820.181 553.178-1864.838  0.00  0.00     0.219 C 
ATOM     37  O   ARG d  16    1820.296 552.101-1865.418  0.00  0.00    -0.287 OA
ENDBRANCH  35  36
BRANCH  35  38
ATOM     38  CB  ARG d  16    1819.180 553.892-1862.624  0.00  0.00     0.035 C 
BRANCH  38  39
ATOM     39  CG  ARG d  16    1820.004 555.182-1862.354  0.00  0.00     0.023 C 
BRANCH  39  40
ATOM     40  CD  ARG d  16    1820.254 555.404-1860.853  0.00  0.00     0.138 C 
BRANCH  40  41
ATOM     41  NE  ARG d  16    1821.029 556.664-1860.654  0.00  0.00    -0.227 N 
ATOM     42  CZ  ARG d  16    1821.421 557.148-1859.480  0.00  0.00     0.665 C 
ATOM     43  NH1 ARG d  16    1821.174 556.565-1858.340  0.00  0.00    -0.235 N 
ATOM     44  NH2 ARG d  16    1822.084 558.261-1859.463  0.00  0.00    -0.235 N 
ATOM     45 11HH ARG d  16    1820.649 555.692-1858.423  0.00  0.00     0.174 HD
ATOM     46 12HH ARG d  16    1821.508 557.003-1857.480  0.00  0.00     0.174 HD
ATOM     47 21HH ARG d  16    1822.269 558.703-1860.366  0.00  0.00     0.174 HD
ATOM     48 22HH ARG d  16    1822.374 558.618-1858.551  0.00  0.00     0.174 HD
ATOM     49  HE  ARG d  16    1821.307 557.244-1861.453  0.00  0.00     0.177 HD
ENDBRANCH  40  41
ENDBRANCH  39  40
ENDBRANCH  38  39
ENDBRANCH  35  38
ENDBRANCH  33  35
ENDBRANCH  30  31
BRANCH  30  50
ATOM     50  CB  MET d  15    1815.095 551.528-1865.142  0.00  0.00     0.045 C 
BRANCH  50  51
ATOM     51  CG  MET d  15    1813.933 550.529-1865.332  0.00  0.00     0.076 C 
BRANCH  51  52
ATOM     52  SD  MET d  15    1812.359 551.394-1865.218  0.00  0.00    -0.173 SA
ATOM     53  CE  MET d  15    1811.279 549.964-1865.079  0.00  0.00     0.089 C 
ENDBRANCH  51  52
ENDBRANCH  50  51
ENDBRANCH  30  50
ENDBRANCH  28  30
ENDBRANCH  25  26
BRANCH  25  54
ATOM     54  CB  VAL d  14    1817.542 546.860-1864.094  0.00  0.00     0.009 C 
ATOM     55  CG1 VAL d  14    1817.631 546.439-1865.587  0.00  0.00     0.012 C 
ATOM     56  CG2 VAL d  14    1817.975 545.609-1863.292  0.00  0.00     0.012 C 
ENDBRANCH  25  54
ENDBRANCH  23  25
ENDBRANCH  20  21
BRANCH  20  57
ATOM     57  CB  ARG d  13    1818.903 549.031-1859.360  0.00  0.00     0.036 C 
BRANCH  57  58
ATOM     58  CG  ARG d  13    1820.448 549.185-1859.280  0.00  0.00     0.023 C 
BRANCH  58  59
ATOM     59  CD  ARG d  13    1821.075 548.200-1858.281  0.00  0.00     0.138 C 
BRANCH  59  60
ATOM     60  NE  ARG d  13    1822.552 548.408-1858.231  0.00  0.00    -0.227 N 
ATOM     61  CZ  ARG d  13    1823.401 547.718-1857.475  0.00  0.00     0.665 C 
ATOM     62  NH1 ARG d  13    1823.036 546.754-1856.676  0.00  0.00    -0.235 N 
ATOM     63  NH2 ARG d  13    1824.660 548.017-1857.532  0.00  0.00    -0.235 N 
ATOM     64 11HH ARG d  13    1822.031 546.568-1856.678  0.00  0.00     0.174 HD
ATOM     65 12HH ARG d  13    1823.750 546.273-1856.126  0.00  0.00     0.174 HD
ATOM     66 21HH ARG d  13    1824.927 548.774-1858.165  0.00  0.00     0.174 HD
ATOM     67 22HH ARG d  13    1825.296 547.477-1856.943  0.00  0.00     0.174 HD
ATOM     68  HE  ARG d  13    1823.003 549.129-1858.803  0.00  0.00     0.177 HD
ENDBRANCH  59  60
ENDBRANCH  58  59
ENDBRANCH  57  58
ENDBRANCH  20  57
ENDBRANCH  18  20
ENDBRANCH  15  16
BRANCH  15  69
ATOM     69  CB  GLN d  12    1814.083 551.309-1859.366  0.00  0.00     0.044 C 
BRANCH  69  70
ATOM     70  CG  GLN d  12    1814.442 552.831-1859.337  0.00  0.00     0.105 C 
BRANCH  70  71
ATOM     71  CD  GLN d  12    1814.140 553.646-1858.074  0.00  0.00     0.215 C 
ATOM     72  NE2 GLN d  12    1813.573 553.071-1857.044  0.00  0.00    -0.370 N 
ATOM     73 21HE GLN d  12    1813.466 553.667-1856.221  0.00  0.00     0.159 HD
ATOM     74 22HE GLN d  12    1813.410 552.067-1857.146  0.00  0.00     0.159 HD
ATOM     75  OE1 GLN d  12    1814.441 554.827-1857.998  0.00  0.00    -0.274 OA
ENDBRANCH  70  71
ENDBRANCH  69  70
ENDBRANCH  15  69
ENDBRANCH  13  15
ENDBRANCH  10  11
BRANCH  10  76
ATOM     76  CB  GLN d  11    1812.269 546.793-1861.527  0.00  0.00     0.044 C 
BRANCH  76  77
ATOM     77  CG  GLN d  11    1811.700 547.290-1862.897  0.00  0.00     0.105 C 
BRANCH  77  78
ATOM     78  CD  GLN d  11    1810.184 547.273-1863.126  0.00  0.00     0.215 C 
ATOM     79  NE2 GLN d  11    1809.385 546.831-1862.189  0.00  0.00    -0.370 N 
ATOM     80 21HE GLN d  11    1808.388 546.914-1862.396  0.00  0.00     0.159 HD
ATOM     81 22HE GLN d  11    1809.848 546.562-1861.318  0.00  0.00     0.159 HD
ATOM     82  OE1 GLN d  11    1809.698 547.690-1864.167  0.00  0.00    -0.274 OA
ENDBRANCH  77  78
ENDBRANCH  76  77
ENDBRANCH  10  76
ENDBRANCH   8  10
ENDBRANCH   5   6
BRANCH   5  83
ATOM     83  CB  HIS d  10    1815.595 544.260-1858.321  0.00  0.00     0.095 C 
BRANCH  83  84
ATOM     84  CG  HIS d  10    1816.881 543.550-1858.013  0.00  0.00     0.053 A 
ATOM     85  CD2 HIS d  10    1817.262 543.214-1856.720  0.00  0.00     0.116 A 
ATOM     86  NE2 HIS d  10    1818.477 542.583-1856.787  0.00  0.00    -0.359 N 
ATOM     87  CE1 HIS d  10    1818.740 542.586-1858.122  0.00  0.00     0.207 A 
ATOM     88  2HE HIS d  10    1819.044 542.206-1856.014  0.00  0.00     0.166 HD
ATOM     89  ND1 HIS d  10    1817.833 543.144-1858.945  0.00  0.00    -0.247 NA
ENDBRANCH  83  84
ENDBRANCH   5  83
ENDBRANCH   3   5
BRANCH   1  90
ATOM     90  CA  GLU d   9    1813.855 548.102-1856.039  0.00  0.00     0.177 C 
BRANCH  90  91
ATOM     91  N   GLU d   9    1812.553 547.444-1856.095  0.00  0.00    -0.346 N 
ATOM     92  C   ASP d   8    1811.873 547.494-1857.190  0.00  0.00     0.241 C 
ATOM     93  O   ASP d   8    1812.346 548.099-1858.165  0.00  0.00    -0.271 OA
ATOM     94  H   GLU d   9    1812.190 546.957-1855.288  0.00  0.00     0.163 HD
BRANCH  92  95
ATOM     95  CA  ASP d   8    1810.527 546.813-1857.248  0.00  0.00     0.186 C 
BRANCH  95  96
ATOM     96  N   ASP d   8    1810.597 545.464-1856.694  0.00  0.00    -0.346 N 
ATOM     97  C   LEU d   7    1811.435 544.624-1857.201  0.00  0.00     0.241 C 
ATOM     98  O   LEU d   7    1812.156 544.987-1858.143  0.00  0.00    -0.271 OA
ATOM     99  H   ASP d   8    1810.000 545.193-1855.927  0.00  0.00     0.163 HD
BRANCH  97 100
ATOM    100  CA  LEU d   7    1811.508 543.228-1856.628  0.00  0.00     0.177 C 
BRANCH 100 101
ATOM    101  N   LEU d   7    1811.562 543.264-1855.170  0.00  0.00    -0.346 N 
ATOM    102  C   ILE d   6    1812.508 543.928-1854.596  0.00  0.00     0.241 C 
ATOM    103  O   ILE d   6    1813.343 544.516-1855.300  0.00  0.00    -0.271 OA
ATOM    104  H   LEU d   7    1810.871 542.777-1854.618  0.00  0.00     0.163 HD
BRANCH 102 105
ATOM    105  CA  ILE d   6    1812.565 543.966-1853.088  0.00  0.00     0.180 C 
BRANCH 105 106
ATOM    106  N   ILE d   6    1811.252 544.260-1852.522  0.00  0.00    -0.346 N 
ATOM    107  C   SER d   5    1810.647 545.343-1852.876  0.00  0.00     0.243 C 
ATOM    108  O   SER d   5    1811.195 546.097-1853.681  0.00  0.00    -0.271 OA
ATOM    109  H   ILE d   6    1810.824 543.626-1851.863  0.00  0.00     0.163 HD
BRANCH 107 110
ATOM    110  CA  SER d   5    1809.289 545.649-1852.291  0.00  0.00     0.200 C 
BRANCH 110 111
ATOM    111  N   SER d   5    1808.419 544.478-1852.349  0.00  0.00    -0.344 N 
ATOM    112  C   GLU d   4    1808.192 543.925-1853.492  0.00  0.00     0.241 C 
ATOM    113  O   GLU d   4    1808.718 544.404-1854.507  0.00  0.00    -0.271 OA
ATOM    114  H   SER d   5    1808.002 544.106-1851.508  0.00  0.00     0.163 HD
BRANCH 112 115
ATOM    115  CA  GLU d   4    1807.293 542.714-1853.553  0.00  0.00     0.177 C 
BRANCH 115 116
ATOM    116  N   GLU d   4    1807.652 541.743-1852.524  0.00  0.00    -0.346 N 
ATOM    117  C   PRO d   3    1808.857 541.283-1852.491  0.00  0.00     0.241 C 
ATOM    118  O   PRO d   3    1809.680 541.666-1853.323  0.00  0.00    -0.271 OA
ATOM    119  H   GLU d   4    1806.968 541.436-1851.847  0.00  0.00     0.163 HD
BRANCH 117 120
ATOM    120  CA  PRO d   3    1809.255 540.259-1851.415  0.00  0.00     0.179 C 
ATOM    121  N   PRO d   3    1808.803 540.669-1850.093  0.00  0.00    -0.337 N 
ATOM    122  C   ASN d   2    1809.325 541.664-1849.459  0.00  0.00     0.243 C 
ATOM    123  CD  PRO d   3    1807.725 539.876-1849.544  0.00  0.00     0.127 C 
ATOM    124  O   ASN d   2    1810.240 542.294-1849.988  0.00  0.00    -0.271 OA
ATOM    125  CG  PRO d   3    1807.268 539.057-1850.754  0.00  0.00     0.022 C 
ATOM    126  CB  PRO d   3    1808.551 538.905-1851.584  0.00  0.00     0.037 C 
BRANCH 122 127
ATOM    127  CA  ASN d   2    1808.794 542.019-1848.090  0.00  0.00     0.185 C 
BRANCH 127 128
ATOM    128  N   ASN d   2    1807.334 542.058-1848.090  0.00  0.00    -0.346 N 
ATOM    129  C   GLU d   1    1806.730 542.844-1848.916  0.00  0.00     0.242 C 
ATOM    130  O   GLU d   1    1807.406 543.543-1849.684  0.00  0.00    -0.271 OA
ATOM    131  H   ASN d   2    1806.806 541.478-1847.454  0.00  0.00     0.163 HD
BRANCH 129 132
ATOM    132  CA  GLU d   1    1805.221 542.884-1848.916  0.00  0.00     0.191 C 
BRANCH 132 133
ATOM    133  N   GLU d   1    1804.662 541.535-1848.916  0.00  0.00    -0.326 NA
ATOM    134  H   GLU d   1    1805.289 540.656-1848.916  0.00  0.00     0.180 HD
ENDBRANCH 132 133
BRANCH 132 135
ATOM    135  CB  GLU d   1    1804.698 543.669-1847.678  0.00  0.00     0.047 C 
BRANCH 135 136
ATOM    136  CG  GLU d   1    1805.173 545.154-1847.568  0.00  0.00     0.116 C 
BRANCH 136 137
ATOM    137  CD  GLU d   1    1804.749 545.958-1846.352  0.00  0.00     0.172 C 
ATOM    138  OE1 GLU d   1    1804.021 545.456-1845.474  0.00  0.00    -0.648 OA
ATOM    139  OE2 GLU d   1    1805.179 547.128-1846.281  0.00  0.00    -0.648 OA
ENDBRANCH 136 137
ENDBRANCH 135 136
ENDBRANCH 132 135
ENDBRANCH 129 132
ENDBRANCH 127 128
BRANCH 127 140
ATOM    140  CB  ASN d   2    1809.286 540.996-1847.026  0.00  0.00     0.137 C 
BRANCH 140 141
ATOM    141  CG  ASN d   2    1808.823 541.220-1845.583  0.00  0.00     0.217 C 
ATOM    142  ND2 ASN d   2    1809.417 542.135-1844.865  0.00  0.00    -0.370 N 
ATOM    143 21HD ASN d   2    1808.936 542.308-1843.978  0.00  0.00     0.159 HD
ATOM    144 22HD ASN d   2    1810.119 542.707-1845.334  0.00  0.00     0.159 HD
ATOM    145  OD1 ASN d   2    1807.902 540.586-1845.089  0.00  0.00    -0.274 OA
ENDBRANCH 140 141
ENDBRANCH 127 140
ENDBRANCH 122 127
ENDBRANCH 117 120
ENDBRANCH 115 116
BRANCH 115 146
ATOM    146  CB  GLU d   4    1805.804 543.133-1853.383  0.00  0.00     0.045 C 
BRANCH 146 147
ATOM    147  CG  GLU d   4    1805.256 544.136-1854.449  0.00  0.00     0.116 C 
BRANCH 147 148
ATOM    148  CD  GLU d   4    1803.830 544.633-1854.305  0.00  0.00     0.172 C 
ATOM    149  OE1 GLU d   4    1803.103 544.235-1853.374  0.00  0.00    -0.648 OA
ATOM    150  OE2 GLU d   4    1803.440 545.462-1855.153  0.00  0.00    -0.648 OA
ENDBRANCH 147 148
ENDBRANCH 146 147
ENDBRANCH 115 146
ENDBRANCH 112 115
ENDBRANCH 110 111
BRANCH 110 151
ATOM    151  CB  SER d   5    1809.400 546.181-1850.840  0.00  0.00     0.199 C 
BRANCH 151 152
ATOM    152  OG  SER d   5    1810.132 545.302-1849.979  0.00  0.00    -0.398 OA
ATOM    153  HG  SER d   5    1809.643 544.477-1849.928  0.00  0.00     0.209 HD
ENDBRANCH 151 152
ENDBRANCH 110 151
ENDBRANCH 107 110
ENDBRANCH 105 106
BRANCH 105 154
ATOM    154  CB  ILE d   6    1813.165 542.629-1852.488  0.00  0.00     0.013 C 
ATOM    155  CG2 ILE d   6    1814.607 542.328-1853.004  0.00  0.00     0.012 C 
BRANCH 154 156
ATOM    156  CG1 ILE d   6    1813.185 542.567-1850.927  0.00  0.00     0.002 C 
ATOM    157  CD1 ILE d   6    1813.455 541.178-1850.312  0.00  0.00     0.005 C 
ENDBRANCH 154 156
ENDBRANCH 105 154
ENDBRANCH 102 105
ENDBRANCH 100 101
BRANCH 100 158
ATOM    158  CB  LEU d   7    1810.305 542.368-1857.109  0.00  0.00     0.038 C 
BRANCH 158 159
ATOM    159  CG  LEU d   7    1810.232 540.889-1856.642  0.00  0.00    -0.020 C 
ATOM    160  CD1 LEU d   7    1809.042 540.183-1857.308  0.00  0.00     0.009 C 
ATOM    161  CD2 LEU d   7    1811.526 540.110-1856.934  0.00  0.00     0.009 C 
ENDBRANCH 158 159
ENDBRANCH 100 158
ENDBRANCH  97 100
ENDBRANCH  95  96
BRANCH  95 162
ATOM    162  CB  ASP d   8    1809.448 547.652-1856.506  0.00  0.00     0.147 C 
BRANCH 162 163
ATOM    163  CG  ASP d   8    1809.229 549.073-1857.046  0.00  0.00     0.175 C 
ATOM    164  OD1 ASP d   8    1809.294 549.272-1858.277  0.00  0.00    -0.648 OA
ATOM    165  OD2 ASP d   8    1809.037 549.999-1856.230  0.00  0.00    -0.648 OA
ENDBRANCH 162 163
ENDBRANCH  95 162
ENDBRANCH  92  95
ENDBRANCH  90  91
BRANCH  90 166
ATOM    166  CB  GLU d   9    1814.489 547.894-1854.634  0.00  0.00     0.045 C 
BRANCH 166 167
ATOM    167  CG  GLU d   9    1815.871 548.587-1854.404  0.00  0.00     0.116 C 
BRANCH 167 168
ATOM    168  CD  GLU d   9    1816.573 548.373-1853.076  0.00  0.00     0.172 C 
ATOM    169  OE1 GLU d   9    1816.052 547.682-1852.180  0.00  0.00    -0.648 OA
ATOM    170  OE2 GLU d   9    1817.692 548.911-1852.944  0.00  0.00    -0.648 OA
ENDBRANCH 167 168
ENDBRANCH 166 167
ENDBRANCH  90 166
ENDBRANCH   1  90
TORSDOF 70
