REMARK WARNING: 32 MAX_TORS EXCEEDED!!!
REMARK  67 active torsions:
REMARK  status: ('A' for Active; 'I' for Inactive)
REMARK    1  A    between atoms: N_1  and  CA_2 
REMARK    2  A    between atoms: CA_2  and  C_3 
REMARK    3  A    between atoms: CA_2  and  CB_5 
REMARK       I    between atoms: C_3  and  N_11 
REMARK    4  A    between atoms: CB_5  and  CG_6 
REMARK    5  A    between atoms: CG_6  and  CD_7 
REMARK    6  A    between atoms: N_11  and  CA_12 
REMARK    7  A    between atoms: CA_12  and  C_13 
REMARK    8  A    between atoms: CA_12  and  CB_15 
REMARK       I    between atoms: C_13  and  N_22 
REMARK    9  A    between atoms: CB_15  and  CG_16 
REMARK       I    between atoms: CG_16  and  ND2_17 
REMARK   10  A    between atoms: CA_23  and  C_24 
REMARK       I    between atoms: C_24  and  N_29 
REMARK   11  A    between atoms: N_29  and  CA_30 
REMARK   12  A    between atoms: CA_30  and  C_31 
REMARK   13  A    between atoms: CA_30  and  CB_33 
REMARK       I    between atoms: C_31  and  N_39 
REMARK   14  A    between atoms: CB_33  and  CG_34 
REMARK   15  A    between atoms: CG_34  and  CD_35 
REMARK   16  A    between atoms: N_39  and  CA_40 
REMARK   17  A    between atoms: CA_40  and  C_41 
REMARK   18  A    between atoms: CA_40  and  CB_43 
REMARK       I    between atoms: C_41  and  N_47 
REMARK   19  A    between atoms: CB_43  and  OG_44 
REMARK   20  A    between atoms: N_47  and  CA_48 
REMARK   21  A    between atoms: CA_48  and  C_49 
REMARK   22  A    between atoms: CA_48  and  CB_51 
REMARK       I    between atoms: C_49  and  N_56 
REMARK   23  A    between atoms: CB_51  and  CG1_52 
REMARK   24  A    between atoms: N_56  and  CA_57 
REMARK   25  A    between atoms: CA_57  and  C_58 
REMARK   26  A    between atoms: CA_57  and  CB_60 
REMARK       I    between atoms: C_58  and  N_65 
REMARK   27  A    between atoms: CB_60  and  CG_61 
REMARK   28  A    between atoms: N_65  and  CA_66 
REMARK   29  A    between atoms: CA_66  and  C_67 
REMARK   30  A    between atoms: CA_66  and  CB_69 
REMARK       I    between atoms: C_67  and  N_73 
REMARK   31  A    between atoms: N_73  and  CA_74 
REMARK   32  A    between atoms: CA_74  and  C_75 
REMARK   33  A    between atoms: CA_74  and  CB_77 
REMARK       I    between atoms: C_75  and  N_83 
REMARK   34  A    between atoms: CB_77  and  CG_78 
REMARK   35  A    between atoms: CG_78  and  CD_79 
REMARK   36  A    between atoms: N_83  and  CA_84 
REMARK   37  A    between atoms: CA_84  and  C_85 
REMARK   38  A    between atoms: CA_84  and  CB_87 
REMARK       I    between atoms: C_85  and  N_95 
REMARK   39  A    between atoms: CB_87  and  CG_88 
REMARK   40  A    between atoms: N_95  and  CA_96 
REMARK   41  A    between atoms: CA_96  and  C_97 
REMARK   42  A    between atoms: CA_96  and  CB_99 
REMARK       I    between atoms: C_97  and  N_103 
REMARK   43  A    between atoms: N_103  and  CA_104 
REMARK   44  A    between atoms: CA_104  and  C_105 
REMARK   45  A    between atoms: CA_104  and  CB_107 
REMARK       I    between atoms: C_105  and  N_115 
REMARK   46  A    between atoms: CB_107  and  CG_108 
REMARK   47  A    between atoms: CG_108  and  CD_109 
REMARK       I    between atoms: CD_109  and  NE2_110 
REMARK   48  A    between atoms: N_115  and  CA_116 
REMARK   49  A    between atoms: CA_116  and  C_117 
REMARK   50  A    between atoms: CA_116  and  CB_119 
REMARK       I    between atoms: C_117  and  N_132 
REMARK   51  A    between atoms: CB_119  and  CG_120 
REMARK   52  A    between atoms: CG_120  and  CD_121 
REMARK   53  A    between atoms: CD_121  and  NE_122 
REMARK       I    between atoms: NE_122  and  CZ_123 
REMARK       I    between atoms: CZ_123  and  NH1_124 
REMARK       I    between atoms: CZ_123  and  NH2_125 
REMARK   54  A    between atoms: N_132  and  CA_133 
REMARK   55  A    between atoms: CA_133  and  C_134 
REMARK   56  A    between atoms: CA_133  and  CB_136 
REMARK       I    between atoms: C_134  and  N_140 
REMARK   57  A    between atoms: N_140  and  CA_141 
REMARK   58  A    between atoms: CA_141  and  C_142 
REMARK   59  A    between atoms: CA_141  and  CB_144 
REMARK       I    between atoms: C_142  and  N_149 
REMARK   60  A    between atoms: CB_144  and  CG_145 
REMARK   61  A    between atoms: CG_145  and  SD_146 
REMARK   62  A    between atoms: N_149  and  CA_150 
REMARK   63  A    between atoms: CA_150  and  C_151 
REMARK   64  A    between atoms: CA_150  and  CB_153 
REMARK   65  A    between atoms: CB_153  and  CG_154 
REMARK   66  A    between atoms: CG_154  and  CD_155 
REMARK   67  A    between atoms: CD_155  and  NE_156 
REMARK       I    between atoms: NE_156  and  CZ_157 
REMARK       I    between atoms: CZ_157  and  NH1_158 
ROOT
ATOM      1  C   GLU d   9    1224.947 354.885-1217.266  0.00  0.00     0.241 C 
ATOM      2  O   GLU d   9    1225.613 355.639-1217.990  0.00  0.00    -0.271 OA
ATOM      3  N   HIS d  10    1225.043 353.610-1217.436  0.00  0.00    -0.346 N 
ATOM      4  H   HIS d  10    1224.511 352.974-1216.858  0.00  0.00     0.163 HD
ENDROOT
BRANCH   3   5
ATOM      5  CA  HIS d  10    1225.931 353.098-1218.476  0.00  0.00     0.182 C 
BRANCH   5   6
ATOM      6  C   HIS d  10    1225.566 353.664-1219.827  0.00  0.00     0.241 C 
ATOM      7  O   HIS d  10    1226.420 354.128-1220.598  0.00  0.00    -0.271 OA
ATOM      8  N   VAL d  11    1224.328 353.664-1220.191  0.00  0.00    -0.346 N 
ATOM      9  H   VAL d  11    1223.615 353.292-1219.581  0.00  0.00     0.163 HD
BRANCH   8  10
ATOM     10  CA  VAL d  11    1223.975 354.211-1221.498  0.00  0.00     0.180 C 
BRANCH  10  11
ATOM     11  C   VAL d  11    1224.441 355.642-1221.629  0.00  0.00     0.241 C 
ATOM     12  O   VAL d  11    1225.043 356.047-1222.631  0.00  0.00    -0.271 OA
ATOM     13  N   GLN d  12    1224.204 356.467-1220.667  0.00  0.00    -0.346 N 
ATOM     14  H   GLN d  12    1223.714 356.161-1219.838  0.00  0.00     0.163 HD
BRANCH  13  15
ATOM     15  CA  GLN d  12    1224.653 357.850-1220.793  0.00  0.00     0.177 C 
BRANCH  15  16
ATOM     16  C   GLN d  12    1226.144 357.916-1221.029  0.00  0.00     0.241 C 
ATOM     17  O   GLN d  12    1226.632 358.624-1221.907  0.00  0.00    -0.271 OA
ATOM     18  N   ARG d  13    1226.927 357.208-1220.288  0.00  0.00    -0.346 N 
ATOM     19  H   ARG d  13    1226.550 356.618-1219.560  0.00  0.00     0.163 HD
BRANCH  18  20
ATOM     20  CA  ARG d  13    1228.368 357.273-1220.518  0.00  0.00     0.176 C 
BRANCH  20  21
ATOM     21  C   ARG d  13    1228.704 356.902-1221.943  0.00  0.00     0.241 C 
ATOM     22  O   ARG d  13    1229.474 357.573-1222.626  0.00  0.00    -0.271 OA
ATOM     23  N   VAL d  14    1228.167 355.848-1222.458  0.00  0.00    -0.346 N 
ATOM     24  H   VAL d  14    1227.532 355.280-1221.917  0.00  0.00     0.163 HD
BRANCH  23  25
ATOM     25  CA  VAL d  14    1228.493 355.489-1223.836  0.00  0.00     0.180 C 
BRANCH  25  26
ATOM     26  C   VAL d  14    1228.165 356.620-1224.781  0.00  0.00     0.241 C 
ATOM     27  O   VAL d  14    1228.959 357.001-1225.650  0.00  0.00    -0.271 OA
ATOM     28  N   MET d  15    1227.020 357.207-1224.680  0.00  0.00    -0.346 N 
ATOM     29  H   MET d  15    1226.355 356.914-1223.979  0.00  0.00     0.163 HD
BRANCH  28  30
ATOM     30  CA  MET d  15    1226.702 358.300-1225.593  0.00  0.00     0.177 C 
BRANCH  30  31
ATOM     31  C   MET d  15    1227.733 359.399-1225.504  0.00  0.00     0.241 C 
ATOM     32  O   MET d  15    1228.237 359.910-1226.515  0.00  0.00    -0.271 OA
ATOM     33  N   ARG d  16    1228.101 359.819-1224.341  0.00  0.00    -0.347 N 
ATOM     34  H   ARG d  16    1227.705 359.419-1223.502  0.00  0.00     0.163 HD
BRANCH  33  35
ATOM     35  CA  ARG d  16    1229.099 360.882-1224.255  0.00  0.00     0.162 C 
BRANCH  35  36
ATOM     36  C   ARG d  16    1230.370 360.488-1224.971  0.00  0.00     0.219 C 
ATOM     37  O   ARG d  16    1230.483 359.412-1225.553  0.00  0.00    -0.287 OA
ENDBRANCH  35  36
BRANCH  35  38
ATOM     38  CB  ARG d  16    1229.367 361.198-1222.756  0.00  0.00     0.035 C 
BRANCH  38  39
ATOM     39  CG  ARG d  16    1230.193 362.486-1222.482  0.00  0.00     0.023 C 
BRANCH  39  40
ATOM     40  CD  ARG d  16    1230.442 362.704-1220.980  0.00  0.00     0.138 C 
BRANCH  40  41
ATOM     41  NE  ARG d  16    1231.219 363.962-1220.778  0.00  0.00    -0.227 N 
ATOM     42  CZ  ARG d  16    1231.610 364.443-1219.602  0.00  0.00     0.665 C 
ATOM     43  NH1 ARG d  16    1231.361 363.858-1218.464  0.00  0.00    -0.235 N 
ATOM     44  NH2 ARG d  16    1232.275 365.555-1219.582  0.00  0.00    -0.235 N 
ATOM     45 11HH ARG d  16    1230.834 362.986-1218.549  0.00  0.00     0.174 HD
ATOM     46 12HH ARG d  16    1231.695 364.293-1217.602  0.00  0.00     0.174 HD
ATOM     47 21HH ARG d  16    1232.462 365.998-1220.483  0.00  0.00     0.174 HD
ATOM     48 22HH ARG d  16    1232.565 365.909-1218.668  0.00  0.00     0.174 HD
ATOM     49  HE  ARG d  16    1231.499 364.543-1221.574  0.00  0.00     0.177 HD
ENDBRANCH  40  41
ENDBRANCH  39  40
ENDBRANCH  38  39
ENDBRANCH  35  38
ENDBRANCH  33  35
ENDBRANCH  30  31
BRANCH  30  50
ATOM     50  CB  MET d  15    1225.281 358.847-1225.285  0.00  0.00     0.045 C 
BRANCH  50  51
ATOM     51  CG  MET d  15    1224.118 357.851-1225.478  0.00  0.00     0.076 C 
BRANCH  51  52
ATOM     52  SD  MET d  15    1222.545 358.719-1225.364  0.00  0.00    -0.173 SA
ATOM     53  CE  MET d  15    1221.462 357.290-1225.230  0.00  0.00     0.089 C 
ENDBRANCH  51  52
ENDBRANCH  50  51
ENDBRANCH  30  50
ENDBRANCH  28  30
ENDBRANCH  25  26
BRANCH  25  54
ATOM     54  CB  VAL d  14    1227.719 354.173-1224.244  0.00  0.00     0.009 C 
ATOM     55  CG1 VAL d  14    1227.809 353.755-1225.738  0.00  0.00     0.012 C 
ATOM     56  CG2 VAL d  14    1228.150 352.920-1223.444  0.00  0.00     0.012 C 
ENDBRANCH  25  54
ENDBRANCH  23  25
ENDBRANCH  20  21
BRANCH  20  57
ATOM     57  CB  ARG d  13    1229.079 356.332-1219.504  0.00  0.00     0.036 C 
BRANCH  57  58
ATOM     58  CG  ARG d  13    1230.624 356.484-1219.422  0.00  0.00     0.023 C 
BRANCH  58  59
ATOM     59  CD  ARG d  13    1231.249 355.495-1218.424  0.00  0.00     0.138 C 
BRANCH  59  60
ATOM     60  NE  ARG d  13    1232.727 355.701-1218.373  0.00  0.00    -0.227 N 
ATOM     61  CZ  ARG d  13    1233.573 355.008-1217.617  0.00  0.00     0.665 C 
ATOM     62  NH1 ARG d  13    1233.207 354.043-1216.821  0.00  0.00    -0.235 N 
ATOM     63  NH2 ARG d  13    1234.833 355.306-1217.673  0.00  0.00    -0.235 N 
ATOM     64 11HH ARG d  13    1232.201 353.858-1216.824  0.00  0.00     0.174 HD
ATOM     65 12HH ARG d  13    1233.919 353.559-1216.272  0.00  0.00     0.174 HD
ATOM     66 21HH ARG d  13    1235.102 356.064-1218.303  0.00  0.00     0.174 HD
ATOM     67 22HH ARG d  13    1235.468 354.763-1217.084  0.00  0.00     0.174 HD
ATOM     68  HE  ARG d  13    1233.179 356.423-1218.943  0.00  0.00     0.177 HD
ENDBRANCH  59  60
ENDBRANCH  58  59
ENDBRANCH  57  58
ENDBRANCH  20  57
ENDBRANCH  18  20
ENDBRANCH  15  16
BRANCH  15  69
ATOM     69  CB  GLN d  12    1224.262 358.617-1219.510  0.00  0.00     0.044 C 
BRANCH  69  70
ATOM     70  CG  GLN d  12    1224.624 360.138-1219.478  0.00  0.00     0.105 C 
BRANCH  70  71
ATOM     71  CD  GLN d  12    1224.321 360.951-1218.213  0.00  0.00     0.215 C 
ATOM     72  NE2 GLN d  12    1223.753 360.375-1217.184  0.00  0.00    -0.370 N 
ATOM     73 21HE GLN d  12    1223.646 360.969-1216.361  0.00  0.00     0.159 HD
ATOM     74 22HE GLN d  12    1223.589 359.372-1217.288  0.00  0.00     0.159 HD
ATOM     75  OE1 GLN d  12    1224.624 362.132-1218.134  0.00  0.00    -0.274 OA
ENDBRANCH  70  71
ENDBRANCH  69  70
ENDBRANCH  15  69
ENDBRANCH  13  15
ENDBRANCH  10  11
BRANCH  10  76
ATOM     76  CB  VAL d  11    1222.414 354.106-1221.719  0.00  0.00     0.009 C 
ATOM     77  CG1 VAL d  11    1221.847 354.811-1222.981  0.00  0.00     0.012 C 
ATOM     78  CG2 VAL d  11    1221.888 352.653-1221.793  0.00  0.00     0.012 C 
ENDBRANCH  10  76
ENDBRANCH   8  10
ENDBRANCH   5   6
BRANCH   5  79
ATOM     79  CB  HIS d  10    1225.766 351.569-1218.472  0.00  0.00     0.095 C 
BRANCH  79  80
ATOM     80  CG  HIS d  10    1227.050 350.858-1218.164  0.00  0.00     0.053 A 
ATOM     81  CD2 HIS d  10    1227.430 350.521-1216.871  0.00  0.00     0.116 A 
ATOM     82  NE2 HIS d  10    1228.644 349.888-1216.937  0.00  0.00    -0.359 N 
ATOM     83  CE1 HIS d  10    1228.908 349.892-1218.272  0.00  0.00     0.207 A 
ATOM     84  2HE HIS d  10    1229.210 349.510-1216.164  0.00  0.00     0.166 HD
ATOM     85  ND1 HIS d  10    1228.003 350.451-1219.096  0.00  0.00    -0.247 NA
ENDBRANCH  79  80
ENDBRANCH   5  79
ENDBRANCH   3   5
BRANCH   1  86
ATOM     86  CA  GLU d   9    1224.029 355.412-1216.190  0.00  0.00     0.177 C 
BRANCH  86  87
ATOM     87  N   GLU d   9    1222.726 354.756-1216.247  0.00  0.00    -0.346 N 
ATOM     88  C   VAL d   8    1222.047 354.807-1217.343  0.00  0.00     0.241 C 
ATOM     89  O   VAL d   8    1222.520 355.411-1218.314  0.00  0.00    -0.271 OA
ATOM     90  H   GLU d   9    1222.361 354.269-1215.440  0.00  0.00     0.163 HD
BRANCH  88  91
ATOM     91  CA  VAL d   8    1220.699 354.128-1217.401  0.00  0.00     0.180 C 
BRANCH  91  92
ATOM     92  N   VAL d   8    1220.770 352.778-1216.848  0.00  0.00    -0.346 N 
ATOM     93  C   LEU d   7    1221.607 351.938-1217.354  0.00  0.00     0.241 C 
ATOM     94  O   LEU d   7    1222.328 352.301-1218.296  0.00  0.00    -0.271 OA
ATOM     95  H   VAL d   8    1220.172 352.507-1216.080  0.00  0.00     0.163 HD
BRANCH  93  96
ATOM     96  CA  LEU d   7    1221.680 350.542-1216.782  0.00  0.00     0.177 C 
BRANCH  96  97
ATOM     97  N   LEU d   7    1221.735 350.578-1215.323  0.00  0.00    -0.346 N 
ATOM     98  C   ILE d   6    1222.681 351.242-1214.750  0.00  0.00     0.241 C 
ATOM     99  O   ILE d   6    1223.515 351.829-1215.454  0.00  0.00    -0.271 OA
ATOM    100  H   LEU d   7    1221.043 350.091-1214.772  0.00  0.00     0.163 HD
BRANCH  98 101
ATOM    101  CA  ILE d   6    1222.738 351.279-1213.242  0.00  0.00     0.180 C 
BRANCH 101 102
ATOM    102  N   ILE d   6    1221.425 351.574-1212.676  0.00  0.00    -0.346 N 
ATOM    103  C   SER d   5    1220.820 352.657-1213.030  0.00  0.00     0.243 C 
ATOM    104  O   SER d   5    1221.367 353.410-1213.834  0.00  0.00    -0.271 OA
ATOM    105  H   ILE d   6    1220.996 350.939-1212.017  0.00  0.00     0.163 HD
BRANCH 103 106
ATOM    106  CA  SER d   5    1219.461 352.962-1212.444  0.00  0.00     0.200 C 
BRANCH 106 107
ATOM    107  N   SER d   5    1218.592 351.791-1212.502  0.00  0.00    -0.344 N 
ATOM    108  C   GLU d   4    1218.364 351.238-1213.645  0.00  0.00     0.241 C 
ATOM    109  O   GLU d   4    1218.890 351.718-1214.660  0.00  0.00    -0.271 OA
ATOM    110  H   SER d   5    1218.175 351.419-1211.661  0.00  0.00     0.163 HD
BRANCH 108 111
ATOM    111  CA  GLU d   4    1217.465 350.027-1213.707  0.00  0.00     0.177 C 
BRANCH 111 112
ATOM    112  N   GLU d   4    1217.825 349.056-1212.677  0.00  0.00    -0.346 N 
ATOM    113  C   PRO d   3    1219.030 348.596-1212.645  0.00  0.00     0.241 C 
ATOM    114  O   PRO d   3    1219.853 348.979-1213.476  0.00  0.00    -0.271 OA
ATOM    115  H   GLU d   4    1217.141 348.749-1212.000  0.00  0.00     0.163 HD
BRANCH 113 116
ATOM    116  CA  PRO d   3    1219.428 347.572-1211.568  0.00  0.00     0.179 C 
ATOM    117  N   PRO d   3    1218.976 347.982-1210.246  0.00  0.00    -0.337 N 
ATOM    118  C   ASN d   2    1219.498 348.977-1209.612  0.00  0.00     0.243 C 
ATOM    119  CD  PRO d   3    1217.898 347.188-1209.697  0.00  0.00     0.127 C 
ATOM    120  O   ASN d   2    1220.413 349.607-1210.141  0.00  0.00    -0.271 OA
ATOM    121  CG  PRO d   3    1217.441 346.370-1210.907  0.00  0.00     0.022 C 
ATOM    122  CB  PRO d   3    1218.724 346.218-1211.737  0.00  0.00     0.037 C 
BRANCH 118 123
ATOM    123  CA  ASN d   2    1218.967 349.332-1208.244  0.00  0.00     0.185 C 
BRANCH 123 124
ATOM    124  N   ASN d   2    1217.507 349.371-1208.244  0.00  0.00    -0.346 N 
ATOM    125  C   GLU d   1    1216.903 350.157-1209.069  0.00  0.00     0.242 C 
ATOM    126  O   GLU d   1    1217.579 350.856-1209.837  0.00  0.00    -0.271 OA
ATOM    127  H   ASN d   2    1216.979 348.791-1207.607  0.00  0.00     0.163 HD
BRANCH 125 128
ATOM    128  CA  GLU d   1    1215.394 350.197-1209.069  0.00  0.00     0.191 C 
BRANCH 128 129
ATOM    129  N   GLU d   1    1214.835 348.848-1209.069  0.00  0.00    -0.326 NA
ATOM    130  H   GLU d   1    1215.462 347.969-1209.069  0.00  0.00     0.180 HD
ENDBRANCH 128 129
BRANCH 128 131
ATOM    131  CB  GLU d   1    1214.871 350.982-1207.832  0.00  0.00     0.047 C 
BRANCH 131 132
ATOM    132  CG  GLU d   1    1215.346 352.467-1207.721  0.00  0.00     0.116 C 
BRANCH 132 133
ATOM    133  CD  GLU d   1    1214.922 353.271-1206.506  0.00  0.00     0.172 C 
ATOM    134  OE1 GLU d   1    1214.194 352.769-1205.628  0.00  0.00    -0.648 OA
ATOM    135  OE2 GLU d   1    1215.352 354.441-1206.434  0.00  0.00    -0.648 OA
ENDBRANCH 132 133
ENDBRANCH 131 132
ENDBRANCH 128 131
ENDBRANCH 125 128
ENDBRANCH 123 124
BRANCH 123 136
ATOM    136  CB  ASN d   2    1219.459 348.309-1207.179  0.00  0.00     0.137 C 
BRANCH 136 137
ATOM    137  CG  ASN d   2    1218.996 348.533-1205.736  0.00  0.00     0.217 C 
ATOM    138  ND2 ASN d   2    1219.590 349.448-1205.018  0.00  0.00    -0.370 N 
ATOM    139 21HD ASN d   2    1219.109 349.621-1204.131  0.00  0.00     0.159 HD
ATOM    140 22HD ASN d   2    1220.292 350.020-1205.487  0.00  0.00     0.159 HD
ATOM    141  OD1 ASN d   2    1218.075 347.899-1205.242  0.00  0.00    -0.274 OA
ENDBRANCH 136 137
ENDBRANCH 123 136
ENDBRANCH 118 123
ENDBRANCH 113 116
ENDBRANCH 111 112
BRANCH 111 142
ATOM    142  CB  GLU d   4    1215.977 350.445-1213.536  0.00  0.00     0.045 C 
BRANCH 142 143
ATOM    143  CG  GLU d   4    1215.428 351.449-1214.602  0.00  0.00     0.116 C 
BRANCH 143 144
ATOM    144  CD  GLU d   4    1214.002 351.946-1214.458  0.00  0.00     0.172 C 
ATOM    145  OE1 GLU d   4    1213.276 351.547-1213.527  0.00  0.00    -0.648 OA
ATOM    146  OE2 GLU d   4    1213.612 352.775-1215.306  0.00  0.00    -0.648 OA
ENDBRANCH 143 144
ENDBRANCH 142 143
ENDBRANCH 111 142
ENDBRANCH 108 111
ENDBRANCH 106 107
BRANCH 106 147
ATOM    147  CB  SER d   5    1219.573 353.494-1210.993  0.00  0.00     0.199 C 
BRANCH 147 148
ATOM    148  OG  SER d   5    1220.305 352.615-1210.132  0.00  0.00    -0.398 OA
ATOM    149  HG  SER d   5    1219.816 351.790-1210.082  0.00  0.00     0.209 HD
ENDBRANCH 147 148
ENDBRANCH 106 147
ENDBRANCH 103 106
ENDBRANCH 101 102
BRANCH 101 150
ATOM    150  CB  ILE d   6    1223.338 349.943-1212.642  0.00  0.00     0.013 C 
ATOM    151  CG2 ILE d   6    1224.779 349.641-1213.158  0.00  0.00     0.012 C 
BRANCH 150 152
ATOM    152  CG1 ILE d   6    1223.357 349.880-1211.081  0.00  0.00     0.002 C 
ATOM    153  CD1 ILE d   6    1223.627 348.491-1210.467  0.00  0.00     0.005 C 
ENDBRANCH 150 152
ENDBRANCH 101 150
ENDBRANCH  98 101
ENDBRANCH  96  97
BRANCH  96 154
ATOM    154  CB  LEU d   7    1220.477 349.682-1217.262  0.00  0.00     0.038 C 
BRANCH 154 155
ATOM    155  CG  LEU d   7    1220.404 348.203-1216.796  0.00  0.00    -0.020 C 
ATOM    156  CD1 LEU d   7    1219.214 347.497-1217.462  0.00  0.00     0.009 C 
ATOM    157  CD2 LEU d   7    1221.697 347.424-1217.088  0.00  0.00     0.009 C 
ENDBRANCH 154 155
ENDBRANCH  96 154
ENDBRANCH  93  96
ENDBRANCH  91  92
BRANCH  91 158
ATOM    158  CB  VAL d   8    1219.612 354.970-1216.622  0.00  0.00     0.009 C 
ATOM    159  CG1 VAL d   8    1219.539 356.484-1216.962  0.00  0.00     0.012 C 
ATOM    160  CG2 VAL d   8    1218.167 354.443-1216.798  0.00  0.00     0.012 C 
ENDBRANCH  91 158
ENDBRANCH  88  91
ENDBRANCH  86  87
BRANCH  86 161
ATOM    161  CB  GLU d   9    1224.661 355.203-1214.785  0.00  0.00     0.045 C 
BRANCH 161 162
ATOM    162  CG  GLU d   9    1226.044 355.894-1214.554  0.00  0.00     0.116 C 
BRANCH 162 163
ATOM    163  CD  GLU d   9    1226.745 355.679-1213.225  0.00  0.00     0.172 C 
ATOM    164  OE1 GLU d   9    1226.222 354.988-1212.330  0.00  0.00    -0.648 OA
ATOM    165  OE2 GLU d   9    1227.865 356.216-1213.092  0.00  0.00    -0.648 OA
ENDBRANCH 162 163
ENDBRANCH 161 162
ENDBRANCH  86 161
ENDBRANCH   1  86
TORSDOF 67
