REMARK WARNING: 32 MAX_TORS EXCEEDED!!!
REMARK  67 active torsions:
REMARK  status: ('A' for Active; 'I' for Inactive)
REMARK    1  A    between atoms: N_1  and  CA_2 
REMARK    2  A    between atoms: CA_2  and  C_3 
REMARK    3  A    between atoms: CA_2  and  CB_5 
REMARK       I    between atoms: C_3  and  N_11 
REMARK    4  A    between atoms: CB_5  and  CG_6 
REMARK    5  A    between atoms: CG_6  and  CD_7 
REMARK    6  A    between atoms: N_11  and  CA_12 
REMARK    7  A    between atoms: CA_12  and  C_13 
REMARK    8  A    between atoms: CA_12  and  CB_15 
REMARK       I    between atoms: C_13  and  N_22 
REMARK    9  A    between atoms: CB_15  and  CG_16 
REMARK       I    between atoms: CG_16  and  ND2_17 
REMARK   10  A    between atoms: CA_23  and  C_24 
REMARK       I    between atoms: C_24  and  N_29 
REMARK   11  A    between atoms: N_29  and  CA_30 
REMARK   12  A    between atoms: CA_30  and  C_31 
REMARK   13  A    between atoms: CA_30  and  CB_33 
REMARK       I    between atoms: C_31  and  N_39 
REMARK   14  A    between atoms: CB_33  and  CG_34 
REMARK   15  A    between atoms: CG_34  and  CD_35 
REMARK   16  A    between atoms: N_39  and  CA_40 
REMARK   17  A    between atoms: CA_40  and  C_41 
REMARK   18  A    between atoms: CA_40  and  CB_43 
REMARK       I    between atoms: C_41  and  N_47 
REMARK   19  A    between atoms: CB_43  and  OG_44 
REMARK   20  A    between atoms: N_47  and  CA_48 
REMARK   21  A    between atoms: CA_48  and  C_49 
REMARK   22  A    between atoms: CA_48  and  CB_51 
REMARK       I    between atoms: C_49  and  N_56 
REMARK   23  A    between atoms: CB_51  and  CG1_52 
REMARK   24  A    between atoms: N_56  and  CA_57 
REMARK   25  A    between atoms: CA_57  and  C_58 
REMARK   26  A    between atoms: CA_57  and  CB_60 
REMARK       I    between atoms: C_58  and  N_65 
REMARK   27  A    between atoms: CB_60  and  CG_61 
REMARK   28  A    between atoms: N_65  and  CA_66 
REMARK   29  A    between atoms: CA_66  and  C_67 
REMARK   30  A    between atoms: CA_66  and  CB_69 
REMARK       I    between atoms: C_67  and  N_74 
REMARK   31  A    between atoms: CB_69  and  CG_70 
REMARK   32  A    between atoms: N_74  and  CA_75 
REMARK   33  A    between atoms: CA_75  and  C_76 
REMARK   34  A    between atoms: CA_75  and  CB_78 
REMARK       I    between atoms: C_76  and  N_84 
REMARK   35  A    between atoms: CB_78  and  CG_79 
REMARK   36  A    between atoms: CG_79  and  CD_80 
REMARK   37  A    between atoms: N_84  and  CA_85 
REMARK   38  A    between atoms: CA_85  and  C_86 
REMARK   39  A    between atoms: CA_85  and  CB_88 
REMARK       I    between atoms: C_86  and  N_96 
REMARK   40  A    between atoms: CB_88  and  CG_89 
REMARK   41  A    between atoms: N_96  and  CA_97 
REMARK   42  A    between atoms: CA_97  and  C_98 
REMARK   43  A    between atoms: CA_97  and  CB_100 
REMARK       I    between atoms: C_98  and  N_104 
REMARK   44  A    between atoms: N_104  and  CA_105 
REMARK   45  A    between atoms: CA_105  and  C_106 
REMARK   46  A    between atoms: CA_105  and  CB_108 
REMARK       I    between atoms: C_106  and  N_116 
REMARK   47  A    between atoms: CB_108  and  CG_109 
REMARK   48  A    between atoms: CG_109  and  CD_110 
REMARK       I    between atoms: CD_110  and  NE2_111 
REMARK   49  A    between atoms: N_116  and  CA_117 
REMARK   50  A    between atoms: CA_117  and  C_118 
REMARK   51  A    between atoms: CA_117  and  CB_120 
REMARK       I    between atoms: C_118  and  N_133 
REMARK   52  A    between atoms: CB_120  and  CG_121 
REMARK   53  A    between atoms: CG_121  and  CD_122 
REMARK   54  A    between atoms: CD_122  and  NE_123 
REMARK       I    between atoms: NE_123  and  CZ_124 
REMARK       I    between atoms: CZ_124  and  NH1_125 
REMARK       I    between atoms: CZ_124  and  NH2_126 
REMARK   55  A    between atoms: N_133  and  CA_134 
REMARK   56  A    between atoms: CA_134  and  C_135 
REMARK   57  A    between atoms: CA_134  and  CB_137 
REMARK       I    between atoms: C_135  and  N_141 
REMARK   58  A    between atoms: N_141  and  CA_142 
REMARK   59  A    between atoms: CA_142  and  C_143 
REMARK   60  A    between atoms: CA_142  and  CB_145 
REMARK       I    between atoms: C_143  and  N_153 
REMARK   61  A    between atoms: CB_145  and  CG_146 
REMARK   62  A    between atoms: N_153  and  CA_154 
REMARK   63  A    between atoms: CA_154  and  C_155 
REMARK   64  A    between atoms: CA_154  and  CB_157 
REMARK   65  A    between atoms: CB_157  and  CG_158 
REMARK   66  A    between atoms: CG_158  and  CD_159 
REMARK   67  A    between atoms: CD_159  and  NE_160 
REMARK       I    between atoms: NE_160  and  CZ_161 
REMARK       I    between atoms: CZ_161  and  NH1_162 
ROOT
ATOM      1  C   GLU d   9    2425.840 746.437-2524.062  0.00  0.00     0.241 C 
ATOM      2  O   GLU d   9    2426.504 747.191-2524.788  0.00  0.00    -0.271 OA
ATOM      3  N   HIS d  10    2425.936 745.162-2524.230  0.00  0.00    -0.346 N 
ATOM      4  H   HIS d  10    2425.406 744.527-2523.651  0.00  0.00     0.163 HD
ENDROOT
BRANCH   3   5
ATOM      5  CA  HIS d  10    2426.823 744.650-2525.271  0.00  0.00     0.182 C 
BRANCH   5   6
ATOM      6  C   HIS d  10    2426.457 745.214-2526.622  0.00  0.00     0.241 C 
ATOM      7  O   HIS d  10    2427.309 745.678-2527.394  0.00  0.00    -0.271 OA
ATOM      8  N   VAL d  11    2425.219 745.213-2526.985  0.00  0.00    -0.346 N 
ATOM      9  H   VAL d  11    2424.506 744.841-2526.374  0.00  0.00     0.163 HD
BRANCH   8  10
ATOM     10  CA  VAL d  11    2424.864 745.759-2528.292  0.00  0.00     0.180 C 
BRANCH  10  11
ATOM     11  C   VAL d  11    2425.329 747.189-2528.425  0.00  0.00     0.241 C 
ATOM     12  O   VAL d  11    2425.930 747.593-2529.428  0.00  0.00    -0.271 OA
ATOM     13  N   GLN d  12    2425.093 748.015-2527.463  0.00  0.00    -0.346 N 
ATOM     14  H   GLN d  12    2424.604 747.710-2526.634  0.00  0.00     0.163 HD
BRANCH  13  15
ATOM     15  CA  GLN d  12    2425.542 749.398-2527.591  0.00  0.00     0.177 C 
BRANCH  15  16
ATOM     16  C   GLN d  12    2427.031 749.464-2527.829  0.00  0.00     0.241 C 
ATOM     17  O   GLN d  12    2427.519 750.172-2528.708  0.00  0.00    -0.271 OA
ATOM     18  N   ARG d  13    2427.816 748.758-2527.088  0.00  0.00    -0.346 N 
ATOM     19  H   ARG d  13    2427.440 748.169-2526.359  0.00  0.00     0.163 HD
BRANCH  18  20
ATOM     20  CA  ARG d  13    2429.256 748.823-2527.319  0.00  0.00     0.176 C 
BRANCH  20  21
ATOM     21  C   ARG d  13    2429.592 748.450-2528.744  0.00  0.00     0.241 C 
ATOM     22  O   ARG d  13    2430.361 749.122-2529.429  0.00  0.00    -0.271 OA
ATOM     23  N   VAL d  14    2429.055 747.396-2529.258  0.00  0.00    -0.346 N 
ATOM     24  H   VAL d  14    2428.420 746.828-2528.715  0.00  0.00     0.163 HD
BRANCH  23  25
ATOM     25  CA  VAL d  14    2429.380 747.036-2530.635  0.00  0.00     0.180 C 
BRANCH  25  26
ATOM     26  C   VAL d  14    2429.050 748.165-2531.581  0.00  0.00     0.241 C 
ATOM     27  O   VAL d  14    2429.843 748.546-2532.451  0.00  0.00    -0.271 OA
ATOM     28  N   HIS d  15    2427.906 748.752-2531.479  0.00  0.00    -0.346 N 
ATOM     29  H   HIS d  15    2427.241 748.459-2530.777  0.00  0.00     0.163 HD
BRANCH  28  30
ATOM     30  CA  HIS d  15    2427.585 749.844-2532.394  0.00  0.00     0.182 C 
BRANCH  30  31
ATOM     31  C   HIS d  15    2428.616 750.944-2532.306  0.00  0.00     0.241 C 
ATOM     32  O   HIS d  15    2429.120 751.454-2533.318  0.00  0.00    -0.271 OA
ATOM     33  N   ARG d  16    2428.985 751.364-2531.144  0.00  0.00    -0.347 N 
ATOM     34  H   ARG d  16    2428.590 750.965-2530.305  0.00  0.00     0.163 HD
BRANCH  33  35
ATOM     35  CA  ARG d  16    2429.983 752.427-2531.060  0.00  0.00     0.162 C 
BRANCH  35  36
ATOM     36  C   ARG d  16    2431.253 752.034-2531.777  0.00  0.00     0.219 C 
ATOM     37  O   ARG d  16    2431.366 750.957-2532.358  0.00  0.00    -0.287 OA
ENDBRANCH  35  36
BRANCH  35  38
ATOM     38  CB  ARG d  16    2430.252 752.745-2529.562  0.00  0.00     0.035 C 
BRANCH  38  39
ATOM     39  CG  ARG d  16    2431.078 754.033-2529.289  0.00  0.00     0.023 C 
BRANCH  39  40
ATOM     40  CD  ARG d  16    2431.328 754.252-2527.788  0.00  0.00     0.138 C 
BRANCH  40  41
ATOM     41  NE  ARG d  16    2432.106 755.510-2527.586  0.00  0.00    -0.227 N 
ATOM     42  CZ  ARG d  16    2432.498 755.991-2526.411  0.00  0.00     0.665 C 
ATOM     43  NH1 ARG d  16    2432.250 755.407-2525.272  0.00  0.00    -0.235 N 
ATOM     44  NH2 ARG d  16    2433.162 757.103-2526.392  0.00  0.00    -0.235 N 
ATOM     45 11HH ARG d  16    2431.723 754.535-2525.357  0.00  0.00     0.174 HD
ATOM     46 12HH ARG d  16    2432.584 755.843-2524.411  0.00  0.00     0.174 HD
ATOM     47 21HH ARG d  16    2433.348 757.547-2527.294  0.00  0.00     0.174 HD
ATOM     48 22HH ARG d  16    2433.453 757.458-2525.479  0.00  0.00     0.174 HD
ATOM     49  HE  ARG d  16    2432.385 756.091-2528.383  0.00  0.00     0.177 HD
ENDBRANCH  40  41
ENDBRANCH  39  40
ENDBRANCH  38  39
ENDBRANCH  35  38
ENDBRANCH  33  35
ENDBRANCH  30  31
BRANCH  30  50
ATOM     50  CB  HIS d  15    2426.204 750.370-2531.971  0.00  0.00     0.095 C 
BRANCH  50  51
ATOM     51  CG  HIS d  15    2425.185 750.240-2533.066  0.00  0.00     0.053 A 
ATOM     52  CD2 HIS d  15    2424.382 749.117-2533.214  0.00  0.00     0.116 A 
ATOM     53  NE2 HIS d  15    2423.571 749.315-2534.301  0.00  0.00    -0.359 N 
ATOM     54  CE1 HIS d  15    2423.949 750.550-2534.731  0.00  0.00     0.207 A 
ATOM     55  2HE HIS d  15    2422.858 748.682-2534.690  0.00  0.00     0.166 HD
ATOM     56  ND1 HIS d  15    2424.915 751.191-2534.047  0.00  0.00    -0.247 NA
ENDBRANCH  50  51
ENDBRANCH  30  50
ENDBRANCH  28  30
ENDBRANCH  25  26
BRANCH  25  57
ATOM     57  CB  VAL d  14    2428.607 745.719-2531.041  0.00  0.00     0.009 C 
ATOM     58  CG1 VAL d  14    2428.696 745.299-2532.535  0.00  0.00     0.012 C 
ATOM     59  CG2 VAL d  14    2429.039 744.467-2530.240  0.00  0.00     0.012 C 
ENDBRANCH  25  57
ENDBRANCH  23  25
ENDBRANCH  20  21
BRANCH  20  60
ATOM     60  CB  ARG d  13    2429.969 747.885-2526.305  0.00  0.00     0.036 C 
BRANCH  60  61
ATOM     61  CG  ARG d  13    2431.515 748.037-2526.225  0.00  0.00     0.023 C 
BRANCH  61  62
ATOM     62  CD  ARG d  13    2432.142 747.050-2525.226  0.00  0.00     0.138 C 
BRANCH  62  63
ATOM     63  NE  ARG d  13    2433.619 747.257-2525.176  0.00  0.00    -0.227 N 
ATOM     64  CZ  ARG d  13    2434.467 746.566-2524.421  0.00  0.00     0.665 C 
ATOM     65  NH1 ARG d  13    2434.102 745.602-2523.623  0.00  0.00    -0.235 N 
ATOM     66  NH2 ARG d  13    2435.727 746.864-2524.478  0.00  0.00    -0.235 N 
ATOM     67 11HH ARG d  13    2433.096 745.416-2523.625  0.00  0.00     0.174 HD
ATOM     68 12HH ARG d  13    2434.815 745.119-2523.074  0.00  0.00     0.174 HD
ATOM     69 21HH ARG d  13    2435.994 747.622-2525.110  0.00  0.00     0.174 HD
ATOM     70 22HH ARG d  13    2436.362 746.323-2523.890  0.00  0.00     0.174 HD
ATOM     71  HE  ARG d  13    2434.070 747.979-2525.748  0.00  0.00     0.177 HD
ENDBRANCH  62  63
ENDBRANCH  61  62
ENDBRANCH  60  61
ENDBRANCH  20  60
ENDBRANCH  18  20
ENDBRANCH  15  16
BRANCH  15  72
ATOM     72  CB  GLN d  12    2425.151 750.166-2526.309  0.00  0.00     0.044 C 
BRANCH  72  73
ATOM     73  CG  GLN d  12    2425.513 751.688-2526.279  0.00  0.00     0.105 C 
BRANCH  73  74
ATOM     74  CD  GLN d  12    2425.211 752.502-2525.014  0.00  0.00     0.215 C 
ATOM     75  NE2 GLN d  12    2424.644 751.927-2523.985  0.00  0.00    -0.370 N 
ATOM     76 21HE GLN d  12    2424.538 752.522-2523.162  0.00  0.00     0.159 HD
ATOM     77 22HE GLN d  12    2424.480 750.923-2524.088  0.00  0.00     0.159 HD
ATOM     78  OE1 GLN d  12    2425.514 753.683-2524.937  0.00  0.00    -0.274 OA
ENDBRANCH  73  74
ENDBRANCH  72  73
ENDBRANCH  15  72
ENDBRANCH  13  15
ENDBRANCH  10  11
BRANCH  10  79
ATOM     79  CB  VAL d  11    2423.302 745.653-2528.511  0.00  0.00     0.009 C 
ATOM     80  CG1 VAL d  11    2422.734 746.356-2529.774  0.00  0.00     0.012 C 
ATOM     81  CG2 VAL d  11    2422.777 744.199-2528.583  0.00  0.00     0.012 C 
ENDBRANCH  10  79
ENDBRANCH   8  10
ENDBRANCH   5   6
BRANCH   5  82
ATOM     82  CB  HIS d  10    2426.659 743.121-2525.265  0.00  0.00     0.095 C 
BRANCH  82  83
ATOM     83  CG  HIS d  10    2427.944 742.410-2524.957  0.00  0.00     0.053 A 
ATOM     84  CD2 HIS d  10    2428.326 742.076-2523.665  0.00  0.00     0.116 A 
ATOM     85  NE2 HIS d  10    2429.540 741.443-2523.731  0.00  0.00    -0.359 N 
ATOM     86  CE1 HIS d  10    2429.802 741.445-2525.066  0.00  0.00     0.207 A 
ATOM     87  2HE HIS d  10    2430.107 741.066-2522.958  0.00  0.00     0.166 HD
ATOM     88  ND1 HIS d  10    2428.896 742.003-2525.890  0.00  0.00    -0.247 NA
ENDBRANCH  82  83
ENDBRANCH   5  82
ENDBRANCH   3   5
BRANCH   1  89
ATOM     89  CA  GLU d   9    2424.923 746.966-2522.986  0.00  0.00     0.177 C 
BRANCH  89  90
ATOM     90  N   GLU d   9    2423.620 746.309-2523.040  0.00  0.00    -0.346 N 
ATOM     91  C   ASP d   8    2422.940 746.358-2524.135  0.00  0.00     0.241 C 
ATOM     92  O   ASP d   8    2423.413 746.963-2525.111  0.00  0.00    -0.271 OA
ATOM     93  H   GLU d   9    2423.256 745.823-2522.233  0.00  0.00     0.163 HD
BRANCH  91  94
ATOM     94  CA  ASP d   8    2421.593 745.679-2524.192  0.00  0.00     0.186 C 
BRANCH  94  95
ATOM     95  N   ASP d   8    2421.662 744.330-2523.638  0.00  0.00    -0.346 N 
ATOM     96  C   LEU d   7    2422.499 743.489-2524.144  0.00  0.00     0.241 C 
ATOM     97  O   LEU d   7    2423.220 743.851-2525.086  0.00  0.00    -0.271 OA
ATOM     98  H   ASP d   8    2421.064 744.060-2522.870  0.00  0.00     0.163 HD
BRANCH  96  99
ATOM     99  CA  LEU d   7    2422.571 742.094-2523.571  0.00  0.00     0.177 C 
BRANCH  99 100
ATOM    100  N   LEU d   7    2422.626 742.130-2522.113  0.00  0.00    -0.346 N 
ATOM    101  C   ILE d   6    2423.572 742.793-2521.539  0.00  0.00     0.241 C 
ATOM    102  O   ILE d   6    2424.407 743.380-2522.243  0.00  0.00    -0.271 OA
ATOM    103  H   LEU d   7    2421.934 741.643-2521.561  0.00  0.00     0.163 HD
BRANCH 101 104
ATOM    104  CA  ILE d   6    2423.629 742.831-2520.031  0.00  0.00     0.180 C 
BRANCH 104 105
ATOM    105  N   ILE d   6    2422.316 743.126-2519.465  0.00  0.00    -0.346 N 
ATOM    106  C   SER d   5    2421.712 744.209-2519.820  0.00  0.00     0.243 C 
ATOM    107  O   SER d   5    2422.260 744.963-2520.624  0.00  0.00    -0.271 OA
ATOM    108  H   ILE d   6    2421.887 742.492-2518.807  0.00  0.00     0.163 HD
BRANCH 106 109
ATOM    109  CA  SER d   5    2420.353 744.515-2519.234  0.00  0.00     0.200 C 
BRANCH 109 110
ATOM    110  N   SER d   5    2419.483 743.344-2519.293  0.00  0.00    -0.344 N 
ATOM    111  C   GLU d   4    2419.256 742.792-2520.437  0.00  0.00     0.241 C 
ATOM    112  O   GLU d   4    2419.783 743.271-2521.451  0.00  0.00    -0.271 OA
ATOM    113  H   SER d   5    2419.066 742.973-2518.452  0.00  0.00     0.163 HD
BRANCH 111 114
ATOM    114  CA  GLU d   4    2418.357 741.581-2520.498  0.00  0.00     0.177 C 
BRANCH 114 115
ATOM    115  N   GLU d   4    2418.716 740.610-2519.468  0.00  0.00    -0.346 N 
ATOM    116  C   PRO d   3    2419.921 740.150-2519.436  0.00  0.00     0.241 C 
ATOM    117  O   PRO d   3    2420.744 740.533-2520.267  0.00  0.00    -0.271 OA
ATOM    118  H   GLU d   4    2418.031 740.303-2518.792  0.00  0.00     0.163 HD
BRANCH 116 119
ATOM    119  CA  PRO d   3    2420.319 739.126-2518.358  0.00  0.00     0.179 C 
ATOM    120  N   PRO d   3    2419.866 739.535-2517.037  0.00  0.00    -0.337 N 
ATOM    121  C   ASN d   2    2420.388 740.530-2516.403  0.00  0.00     0.243 C 
ATOM    122  CD  PRO d   3    2418.788 738.743-2516.488  0.00  0.00     0.127 C 
ATOM    123  O   ASN d   2    2421.303 741.161-2516.931  0.00  0.00    -0.271 OA
ATOM    124  CG  PRO d   3    2418.331 737.924-2517.698  0.00  0.00     0.022 C 
ATOM    125  CB  PRO d   3    2419.614 737.772-2518.528  0.00  0.00     0.037 C 
BRANCH 121 126
ATOM    126  CA  ASN d   2    2419.856 740.886-2515.034  0.00  0.00     0.185 C 
BRANCH 126 127
ATOM    127  N   ASN d   2    2418.397 740.925-2515.034  0.00  0.00    -0.346 N 
ATOM    128  C   GLU d   1    2417.793 741.711-2515.860  0.00  0.00     0.242 C 
ATOM    129  O   GLU d   1    2418.469 742.410-2516.628  0.00  0.00    -0.271 OA
ATOM    130  H   ASN d   2    2417.869 740.345-2514.398  0.00  0.00     0.163 HD
BRANCH 128 131
ATOM    131  CA  GLU d   1    2416.284 741.751-2515.860  0.00  0.00     0.191 C 
BRANCH 131 132
ATOM    132  N   GLU d   1    2415.725 740.402-2515.860  0.00  0.00    -0.326 NA
ATOM    133  H   GLU d   1    2416.352 739.523-2515.860  0.00  0.00     0.180 HD
ENDBRANCH 131 132
BRANCH 131 134
ATOM    134  CB  GLU d   1    2415.760 742.536-2514.623  0.00  0.00     0.047 C 
BRANCH 134 135
ATOM    135  CG  GLU d   1    2416.236 744.021-2514.512  0.00  0.00     0.116 C 
BRANCH 135 136
ATOM    136  CD  GLU d   1    2415.812 744.825-2513.297  0.00  0.00     0.172 C 
ATOM    137  OE1 GLU d   1    2415.083 744.323-2512.419  0.00  0.00    -0.648 OA
ATOM    138  OE2 GLU d   1    2416.242 745.995-2513.225  0.00  0.00    -0.648 OA
ENDBRANCH 135 136
ENDBRANCH 134 135
ENDBRANCH 131 134
ENDBRANCH 128 131
ENDBRANCH 126 127
BRANCH 126 139
ATOM    139  CB  ASN d   2    2420.348 739.863-2513.970  0.00  0.00     0.137 C 
BRANCH 139 140
ATOM    140  CG  ASN d   2    2419.885 740.087-2512.527  0.00  0.00     0.217 C 
ATOM    141  ND2 ASN d   2    2420.479 741.002-2511.808  0.00  0.00    -0.370 N 
ATOM    142 21HD ASN d   2    2419.998 741.175-2510.922  0.00  0.00     0.159 HD
ATOM    143 22HD ASN d   2    2421.181 741.573-2512.277  0.00  0.00     0.159 HD
ATOM    144  OD1 ASN d   2    2418.964 739.453-2512.032  0.00  0.00    -0.274 OA
ENDBRANCH 139 140
ENDBRANCH 126 139
ENDBRANCH 121 126
ENDBRANCH 116 119
ENDBRANCH 114 115
BRANCH 114 145
ATOM    145  CB  GLU d   4    2416.868 742.000-2520.328  0.00  0.00     0.045 C 
BRANCH 145 146
ATOM    146  CG  GLU d   4    2416.321 743.004-2521.394  0.00  0.00     0.116 C 
BRANCH 146 147
ATOM    147  CD  GLU d   4    2414.895 743.501-2521.251  0.00  0.00     0.172 C 
ATOM    148  OE1 GLU d   4    2414.168 743.103-2520.321  0.00  0.00    -0.648 OA
ATOM    149  OE2 GLU d   4    2414.506 744.330-2522.100  0.00  0.00    -0.648 OA
ENDBRANCH 146 147
ENDBRANCH 145 146
ENDBRANCH 114 145
ENDBRANCH 111 114
ENDBRANCH 109 110
BRANCH 109 150
ATOM    150  CB  SER d   5    2420.464 745.047-2517.784  0.00  0.00     0.199 C 
BRANCH 150 151
ATOM    151  OG  SER d   5    2421.195 744.168-2516.923  0.00  0.00    -0.398 OA
ATOM    152  HG  SER d   5    2420.706 743.343-2516.872  0.00  0.00     0.209 HD
ENDBRANCH 150 151
ENDBRANCH 109 150
ENDBRANCH 106 109
ENDBRANCH 104 105
BRANCH 104 153
ATOM    153  CB  ILE d   6    2424.229 741.494-2519.431  0.00  0.00     0.013 C 
ATOM    154  CG2 ILE d   6    2425.670 741.192-2519.946  0.00  0.00     0.012 C 
BRANCH 153 155
ATOM    155  CG1 ILE d   6    2424.247 741.432-2517.870  0.00  0.00     0.002 C 
ATOM    156  CD1 ILE d   6    2424.517 740.043-2517.255  0.00  0.00     0.005 C 
ENDBRANCH 153 155
ENDBRANCH 104 153
ENDBRANCH 101 104
ENDBRANCH  99 100
BRANCH  99 157
ATOM    157  CB  LEU d   7    2421.368 741.234-2524.052  0.00  0.00     0.038 C 
BRANCH 157 158
ATOM    158  CG  LEU d   7    2421.295 739.754-2523.585  0.00  0.00    -0.020 C 
ATOM    159  CD1 LEU d   7    2420.105 739.049-2524.250  0.00  0.00     0.009 C 
ATOM    160  CD2 LEU d   7    2422.588 738.975-2523.876  0.00  0.00     0.009 C 
ENDBRANCH 157 158
ENDBRANCH  99 157
ENDBRANCH  96  99
ENDBRANCH  94  95
BRANCH  94 161
ATOM    161  CB  ASP d   8    2420.515 746.519-2523.451  0.00  0.00     0.147 C 
BRANCH 161 162
ATOM    162  CG  ASP d   8    2420.297 747.940-2523.992  0.00  0.00     0.175 C 
ATOM    163  OD1 ASP d   8    2420.361 748.138-2525.223  0.00  0.00    -0.648 OA
ATOM    164  OD2 ASP d   8    2420.105 748.866-2523.178  0.00  0.00    -0.648 OA
ENDBRANCH 161 162
ENDBRANCH  94 161
ENDBRANCH  91  94
ENDBRANCH  89  90
BRANCH  89 165
ATOM    165  CB  GLU d   9    2425.556 746.758-2521.580  0.00  0.00     0.045 C 
BRANCH 165 166
ATOM    166  CG  GLU d   9    2426.939 747.450-2521.352  0.00  0.00     0.116 C 
BRANCH 166 167
ATOM    167  CD  GLU d   9    2427.641 747.237-2520.023  0.00  0.00     0.172 C 
ATOM    168  OE1 GLU d   9    2427.120 746.547-2519.126  0.00  0.00    -0.648 OA
ATOM    169  OE2 GLU d   9    2428.761 747.775-2519.892  0.00  0.00    -0.648 OA
ENDBRANCH 166 167
ENDBRANCH 165 166
ENDBRANCH  89 165
ENDBRANCH   1  89
TORSDOF 67
