@<TRIPOS>MOLECULE
15-9
269 271 16              
SMALL
USER_CHARGES
@<TRIPOS>ATOM
1	   N	2399.239	734.968	-2497.622	N.3	1	GLU1	-0.516	
2	  CA	2399.798	736.317	-2497.622	C.3	1	GLU1	0.040	
3	   C	2401.307	736.277	-2497.622	C.2	1	GLU1	0.537	
4	   O	2401.983	736.976	-2498.391	O.2	1	GLU1	-0.582	
5	  CB	2399.275	737.102	-2496.385	C.3	1	GLU1	0.056	
6	  CG	2399.750	738.587	-2496.274	C.3	1	GLU1	0.014	
7	  CD	2399.326	739.391	-2495.059	C.2	1	GLU1	0.805	
8	 OE1	2398.598	738.889	-2494.181	O.co2	1	GLU1	-0.819	
9	 OE2	2399.756	740.561	-2494.987	O.co2	1	GLU1	-0.819	
10	   H	2399.866	734.089	-2497.622	 H	1	GLU1	0.294	
11	  HA	2399.472	736.835	-2498.542	 H	1	GLU1	0.111	
12	 2HB	2399.564	736.571	-2495.455	 H	1	GLU1	-0.017	
13	 3HB	2398.168	737.092	-2496.372	 H	1	GLU1	-0.017	
14	 2HG	2399.440	739.172	-2497.155	 H	1	GLU1	-0.043	
15	 3HG	2400.850	738.654	-2496.245	 H	1	GLU1	-0.043	
16	   N	2401.911	735.491	-2496.797	N.am	2	ASN2	-0.416	
17	  CA	2403.371	735.452	-2496.797	C.3	2	ASN2	0.014	
18	   C	2403.902	735.096	-2498.165	C.2	2	ASN2	0.597	
19	   O	2404.817	735.727	-2498.693	O.2	2	ASN2	-0.568	
20	  CB	2403.862	734.429	-2495.732	C.3	2	ASN2	-0.204	
21	  CG	2403.399	734.653	-2494.289	C.2	2	ASN2	0.713	
22	 ND2	2403.993	735.567	-2493.571	N.pl3	2	ASN2	-0.919	
23	 OD1	2402.478	734.019	-2493.795	O.2	2	ASN2	-0.593	
24	   H	2401.383	734.911	-2496.160	 H	2	ASN2	0.272	
25	  HA	2403.748	736.461	-2496.551	 H	2	ASN2	0.105	
26	 2HB	2404.967	734.370	-2495.735	 H	2	ASN2	0.080	
27	 3HB	2403.533	733.410	-2496.018	 H	2	ASN2	0.080	
28	1HD2	2403.512	735.741	-2492.684	 H	2	ASN2	0.420	
29	2HD2	2404.695	736.139	-2494.040	 H	2	ASN2	0.420	
30	   N	2403.381	734.101	-2498.800	N.am	3	PRO3	-0.255	
31	  CA	2403.833	733.692	-2500.121	C.3	3	PRO3	-0.027	
32	   C	2403.435	734.716	-2501.198	C.2	3	PRO3	0.590	
33	   O	2404.259	735.099	-2502.029	O.2	3	PRO3	-0.575	
34	  CB	2403.128	732.337	-2500.291	C.3	3	PRO3	-0.007	
35	  CG	2401.845	732.490	-2499.461	C.3	3	PRO3	0.019	
36	  CD	2402.302	733.308	-2498.251	C.3	3	PRO3	0.019	
37	  HA	2404.919	733.572	-2500.134	 H	3	PRO3	0.064	
38	 2HB	2403.751	731.556	-2499.850	 H	3	PRO3	0.025	
39	 3HB	2402.930	732.089	-2501.336	 H	3	PRO3	0.025	
40	 2HG	2401.417	731.528	-2499.170	 H	3	PRO3	0.021	
41	 3HG	2401.108	733.061	-2500.028	 H	3	PRO3	0.021	
42	 2HD	2402.691	732.659	-2497.463	 H	3	PRO3	0.039	
43	 3HD	2401.506	733.944	-2497.858	 H	3	PRO3	0.039	
44	   N	2402.230	735.176	-2501.231	N.am	4	GLU4	-0.516	
45	  CA	2401.871	736.147	-2502.260	C.3	4	GLU4	0.040	
46	   C	2402.770	737.358	-2502.199	C.2	4	GLU4	0.537	
47	   O	2403.297	737.837	-2503.213	O.2	4	GLU4	-0.582	
48	  CB	2400.383	736.566	-2502.091	C.3	4	GLU4	0.056	
49	  CG	2399.835	737.570	-2503.156	C.3	4	GLU4	0.014	
50	  CD	2398.409	738.067	-2503.013	C.2	4	GLU4	0.805	
51	 OE1	2397.682	737.669	-2502.083	O.co2	4	GLU4	-0.819	
52	 OE2	2398.020	738.896	-2503.862	O.co2	4	GLU4	-0.819	
53	   H	2401.546	734.869	-2500.554	 H	4	GLU4	0.294	
54	  HA	2402.003	735.676	-2503.252	 H	4	GLU4	0.111	
55	 2HB	2400.230	737.006	-2501.084	 H	4	GLU4	-0.017	
56	 3HB	2399.735	735.668	-2502.097	 H	4	GLU4	-0.017	
57	 2HG	2399.917	737.155	-2504.175	 H	4	GLU4	-0.043	
58	 3HG	2400.424	738.502	-2503.167	 H	4	GLU4	-0.043	
59	   N	2402.997	737.910	-2501.056	N.am	5	SER5	-0.416	
60	  CA	2403.867	739.081	-2500.997	C.3	5	SER5	-0.025	
61	   C	2405.226	738.775	-2501.582	C.2	5	SER5	0.597	
62	   O	2405.774	739.529	-2502.387	O.2	5	SER5	-0.568	
63	  CB	2403.979	739.613	-2499.546	C.3	5	SER5	0.212	
64	  OG	2404.709	738.734	-2498.685	O.3	5	SER5	-0.655	
65	   H	2402.580	737.539	-2500.214	 H	5	SER5	0.272	
66	  HA	2403.418	739.872	-2501.626	 H	5	SER5	0.084	
67	 2HB	2402.979	739.807	-2499.113	 H	5	SER5	0.035	
68	 3HB	2404.484	740.599	-2499.548	 H	5	SER5	0.035	
69	  HG	2404.220	737.909	-2498.635	 H	5	SER5	0.428	
70	   N	2405.830	737.692	-2501.228	N.am	6	ILE6	-0.416	
71	  CA	2407.144	737.396	-2501.794	C.3	6	ILE6	-0.060	
72	   C	2407.086	737.359	-2503.302	C.2	6	ILE6	0.597	
73	   O	2407.921	737.946	-2504.005	O.2	6	ILE6	-0.568	
74	  CB	2407.743	736.060	-2501.193	C.3	6	ILE6	0.130	
75	 CG1	2407.761	735.998	-2499.633	C.3	6	ILE6	-0.043	
76	 CG2	2409.184	735.758	-2501.708	C.3	6	ILE6	-0.320	
77	 CD1	2408.031	734.609	-2499.017	C.3	6	ILE6	-0.066	
78	   H	2405.401	737.058	-2500.569	 H	6	ILE6	0.272	
79	  HA	2407.818	738.230	-2501.526	 H	6	ILE6	0.087	
80	  HB	2407.084	735.234	-2501.538	 H	6	ILE6	0.019	
81	2HG1	2406.780	736.318	-2499.237	 H	6	ILE6	0.024	
82	3HG1	2408.478	736.740	-2499.228	 H	6	ILE6	0.024	
83	1HG2	2409.243	735.664	-2502.807	 H	6	ILE6	0.088	
84	2HG2	2409.906	736.540	-2501.406	 H	6	ILE6	0.088	
85	3HG2	2409.573	734.796	-2501.330	 H	6	ILE6	0.088	
86	1HD1	2407.302	733.855	-2499.372	 H	6	ILE6	0.019	
87	2HD1	2409.041	734.230	-2499.253	 H	6	ILE6	0.019	
88	3HD1	2407.954	734.639	-2497.915	 H	6	ILE6	0.019	
89	   N	2406.140	736.696	-2503.875	N.am	7	LEU7	-0.416	
90	  CA	2406.085	736.659	-2505.333	C.3	7	LEU7	-0.052	
91	   C	2406.013	738.055	-2505.906	C.2	7	LEU7	0.597	
92	   O	2406.734	738.417	-2506.849	O.2	7	LEU7	-0.568	
93	  CB	2404.882	735.800	-2505.814	C.3	7	LEU7	-0.110	
94	  CG	2404.809	734.320	-2505.347	C.3	7	LEU7	0.353	
95	 CD1	2403.619	733.615	-2506.013	C.3	7	LEU7	-0.412	
96	 CD2	2406.102	733.541	-2505.639	C.3	7	LEU7	-0.412	
97	   H	2405.448	736.209	-2503.324	 H	7	LEU7	0.272	
98	  HA	2407.027	736.219	-2505.708	 H	7	LEU7	0.092	
99	 2HB	2404.859	735.815	-2506.922	 H	7	LEU7	0.046	
100	 3HB	2403.942	736.302	-2505.510	 H	7	LEU7	0.046	
101	  HG	2404.639	734.312	-2504.250	 H	7	LEU7	-0.036	
102	1HD1	2402.662	734.124	-2505.790	 H	7	LEU7	0.100	
103	2HD1	2403.718	733.574	-2507.114	 H	7	LEU7	0.100	
104	3HD1	2403.511	732.574	-2505.657	 H	7	LEU7	0.100	
105	1HD2	2406.377	733.571	-2506.709	 H	7	LEU7	0.100	
106	2HD2	2406.956	733.952	-2505.067	 H	7	LEU7	0.100	
107	3HD2	2406.021	732.478	-2505.343	 H	7	LEU7	0.100	
108	   N	2405.177	738.896	-2505.401	N.am	8	ASP8	-0.516	
109	  CA	2405.107	740.245	-2505.955	C.3	8	ASP8	0.038	
110	   C	2406.454	740.924	-2505.898	C.2	8	ASP8	0.537	
111	   O	2406.927	741.529	-2506.873	O.2	8	ASP8	-0.582	
112	  CB	2404.029	741.085	-2505.214	C.3	8	ASP8	-0.030	
113	  CG	2403.811	742.506	-2505.755	C.2	8	ASP8	0.799	
114	 OD1	2403.875	742.704	-2506.986	O.co2	8	ASP8	-0.801	
115	 OD2	2403.620	743.432	-2504.940	O.co2	8	ASP8	-0.801	
116	   H	2404.579	738.626	-2504.633	 H	8	ASP8	0.294	
117	  HA	2404.824	740.167	-2507.022	 H	8	ASP8	0.088	
118	 2HB	2404.286	741.169	-2504.142	 H	8	ASP8	-0.012	
119	 3HB	2403.050	740.581	-2505.246	 H	8	ASP8	-0.012	
120	   N	2407.134	740.875	-2504.803	N.am	9	GLU9	-0.516	
121	  CA	2408.437	741.532	-2504.748	C.3	9	GLU9	0.040	
122	   C	2409.354	741.003	-2505.824	C.2	9	GLU9	0.537	
123	   O	2410.018	741.757	-2506.550	O.2	9	GLU9	-0.582	
124	  CB	2409.071	741.324	-2503.343	C.3	9	GLU9	0.056	
125	  CG	2410.454	742.016	-2503.114	C.3	9	GLU9	0.014	
126	  CD	2411.156	741.803	-2501.786	C.2	9	GLU9	0.805	
127	 OE1	2410.634	741.113	-2500.889	O.co2	9	GLU9	-0.819	
128	 OE2	2412.275	742.341	-2501.655	O.co2	9	GLU9	-0.819	
129	   H	2406.770	740.389	-2503.995	 H	9	GLU9	0.294	
130	  HA	2408.295	742.614	-2504.924	 H	9	GLU9	0.111	
131	 2HB	2409.183	740.240	-2503.139	 H	9	GLU9	-0.017	
132	 3HB	2408.374	741.679	-2502.558	 H	9	GLU9	-0.017	
133	 2HG	2410.382	743.107	-2503.254	 H	9	GLU9	-0.043	
134	 3HG	2411.200	741.671	-2503.848	 H	9	GLU9	-0.043	
135	   N	2409.450	739.728	-2505.993	N.am	10	HIS10	-0.416	
136	  CA	2410.338	739.216	-2507.033	C.3	10	HIS10	-0.058	
137	   C	2409.971	739.780	-2508.385	C.2	10	HIS10	0.597	
138	   O	2410.823	740.244	-2509.157	O.2	10	HIS10	-0.568	
139	  CB	2410.173	737.687	-2507.028	C.3	10	HIS10	-0.007	
140	  CG	2411.458	736.976	-2506.719	C.2	10	HIS10	0.187	
141	 CD2	2411.840	736.641	-2505.427	C.2	10	HIS10	-0.221	
142	 ND1	2412.410	736.569	-2507.652	N.2	10	HIS10	-0.543	
143	 CE1	2413.316	736.011	-2506.829	C.2	10	HIS10	0.163	
144	 NE2	2413.054	736.009	-2505.494	N.pl3	10	HIS10	-0.280	
145	   H	2408.920	739.093	-2505.414	 H	10	HIS10	0.272	
146	  HA	2411.357	739.573	-2506.809	 H	10	HIS10	0.136	
147	 2HB	2409.807	737.319	-2508.007	 H	10	HIS10	0.037	
148	 3HB	2409.417	737.350	-2506.287	 H	10	HIS10	0.037	
149	 2HD	2411.255	736.857	-2504.538	 H	10	HIS10	0.186	
150	 1HE	2414.207	735.589	-2507.276	 H	10	HIS10	0.144	
151	 2HE	2413.621	735.632	-2504.720	 H	10	HIS10	0.334	
152	   N	2408.733	739.779	-2508.747	N.am	11	VAL11	-0.416	
153	  CA	2408.378	740.325	-2510.054	C.3	11	VAL11	-0.087	
154	   C	2408.843	741.755	-2510.188	C.2	11	VAL11	0.597	
155	   O	2409.444	742.159	-2511.191	O.2	11	VAL11	-0.568	
156	  CB	2406.816	740.219	-2510.273	C.3	11	VAL11	0.299	
157	 CG1	2406.248	740.922	-2511.536	C.3	11	VAL11	-0.319	
158	 CG2	2406.291	738.765	-2510.345	C.3	11	VAL11	-0.319	
159	   H	2408.020	739.407	-2508.136	 H	11	VAL11	0.272	
160	  HA	2408.897	739.742	-2510.837	 H	11	VAL11	0.097	
161	  HB	2406.329	740.700	-2509.398	 H	11	VAL11	-0.030	
162	1HG1	2406.686	740.530	-2512.473	 H	11	VAL11	0.079	
163	2HG1	2405.149	740.815	-2511.618	 H	11	VAL11	0.079	
164	3HG1	2406.427	742.015	-2511.528	 H	11	VAL11	0.079	
165	1HG2	2406.581	738.178	-2509.455	 H	11	VAL11	0.079	
166	2HG2	2405.185	738.728	-2510.388	 H	11	VAL11	0.079	
167	3HG2	2406.673	738.223	-2511.232	 H	11	VAL11	0.079	
168	   N	2408.607	742.581	-2509.226	N.am	12	GLN12	-0.416	
169	  CA	2409.056	743.964	-2509.354	C.3	12	GLN12	-0.003	
170	   C	2410.546	744.030	-2509.592	C.2	12	GLN12	0.597	
171	   O	2411.033	744.738	-2510.471	O.2	12	GLN12	-0.568	
172	  CB	2408.666	744.732	-2508.071	C.3	12	GLN12	-0.004	
173	  CG	2409.027	746.254	-2508.041	C.3	12	GLN12	-0.064	
174	  CD	2408.725	747.068	-2506.777	C.2	12	GLN12	0.695	
175	 NE2	2408.158	746.493	-2505.747	N.pl3	12	GLN12	-0.941	
176	 OE1	2409.028	748.249	-2506.700	O.2	12	GLN12	-0.609	
177	   H	2408.118	742.276	-2508.396	 H	12	GLN12	0.272	
178	  HA	2408.556	744.420	-2510.229	 H	12	GLN12	0.085	
179	 2HB	2409.142	744.232	-2507.202	 H	12	GLN12	0.017	
180	 3HB	2407.575	744.626	-2507.908	 H	12	GLN12	0.017	
181	 2HG	2408.550	746.775	-2508.892	 H	12	GLN12	0.035	
182	 3HG	2410.110	746.395	-2508.207	 H	12	GLN12	0.035	
183	1HE2	2408.052	747.088	-2504.924	 H	12	GLN12	0.425	
184	2HE2	2407.994	745.489	-2505.850	 H	12	GLN12	0.425	
185	   N	2411.330	743.324	-2508.851	N.am	13	ARG13	-0.348	
186	  CA	2412.771	743.389	-2509.082	C.3	13	ARG13	-0.264	
187	   C	2413.106	743.016	-2510.507	C.2	13	ARG13	0.734	
188	   O	2413.875	743.688	-2511.191	O.2	13	ARG13	-0.589	
189	  CB	2413.484	742.450	-2508.067	C.3	13	ARG13	-0.001	
190	  CG	2415.029	742.603	-2507.987	C.3	13	ARG13	0.039	
191	  CD	2415.656	741.616	-2506.989	C.3	13	ARG13	0.049	
192	  NE	2417.133	741.823	-2506.939	N.pl3	13	ARG13	-0.530	
193	  CZ	2417.981	741.132	-2506.183	C.cat	13	ARG13	0.808	
194	 NH1	2417.616	740.168	-2505.385	N.pl3	13	ARG13	-0.863	
195	 NH2	2419.241	741.430	-2506.241	N.pl3	13	ARG13	-0.863	
196	   H	2410.954	742.734	-2508.122	 H	13	ARG13	0.275	
197	  HA	2413.095	744.435	-2508.924	 H	13	ARG13	0.156	
198	 2HB	2413.217	741.400	-2508.306	 H	13	ARG13	0.033	
199	 3HB	2413.059	742.618	-2507.057	 H	13	ARG13	0.033	
200	 2HG	2415.277	743.648	-2507.708	 H	13	ARG13	0.029	
201	 3HG	2415.479	742.446	-2508.989	 H	13	ARG13	0.029	
202	 2HD	2415.411	740.576	-2507.297	 H	13	ARG13	0.069	
203	 3HD	2415.200	741.763	-2505.986	 H	13	ARG13	0.069	
204	  HE	2417.584	742.544	-2507.510	 H	13	ARG13	0.346	
205	1HH1	2416.611	739.982	-2505.388	 H	13	ARG13	0.448	
206	2HH1	2418.329	739.685	-2504.836	 H	13	ARG13	0.448	
207	1HH2	2419.509	742.188	-2506.873	 H	13	ARG13	0.448	
208	2HH2	2419.876	740.889	-2505.652	 H	13	ARG13	0.448	
209	   N	2412.570	741.962	-2511.020	N.am	14	VAL14	-0.416	
210	  CA	2412.894	741.601	-2512.398	C.3	14	VAL14	-0.087	
211	   C	2412.564	742.731	-2513.344	C.2	14	VAL14	0.597	
212	   O	2413.357	743.112	-2514.214	O.2	14	VAL14	-0.568	
213	  CB	2412.121	740.284	-2512.804	C.3	14	VAL14	0.299	
214	 CG1	2412.210	739.865	-2514.297	C.3	14	VAL14	-0.319	
215	 CG2	2412.553	739.032	-2512.003	C.3	14	VAL14	-0.319	
216	   H	2411.935	741.393	-2510.478	 H	14	VAL14	0.272	
217	  HA	2413.982	741.424	-2512.473	 H	14	VAL14	0.097	
218	  HB	2411.045	740.456	-2512.587	 H	14	VAL14	-0.030	
219	1HG1	2413.251	739.688	-2514.626	 H	14	VAL14	0.079	
220	2HG1	2411.636	738.942	-2514.509	 H	14	VAL14	0.079	
221	3HG1	2411.781	740.627	-2514.975	 H	14	VAL14	0.079	
222	1HG2	2412.466	739.192	-2510.912	 H	14	VAL14	0.079	
223	2HG2	2411.917	738.156	-2512.234	 H	14	VAL14	0.079	
224	3HG2	2413.600	738.742	-2512.208	 H	14	VAL14	0.079	
225	   N	2411.420	743.317	-2513.242	N.am	15	TYR15	-0.416	
226	  CA	2411.100	744.410	-2514.156	C.3	15	TYR15	-0.001	
227	   C	2412.131	745.508	-2514.068	C.2	15	TYR15	0.597	
228	   O	2412.633	746.017	-2515.074	O.2	15	TYR15	-0.568	
229	  CB	2409.711	745.027	-2513.819	C.3	15	TYR15	-0.015	
230	  CG	2408.498	744.096	-2513.932	C.2	15	TYR15	-0.001	
231	 CD1	2407.948	743.790	-2515.182	C.2	15	TYR15	-0.191	
232	 CD2	2407.940	743.538	-2512.778	C.2	15	TYR15	-0.191	
233	 CE1	2406.857	742.931	-2515.272	C.2	15	TYR15	-0.234	
234	 CE2	2406.848	742.681	-2512.871	C.2	15	TYR15	-0.234	
235	  CZ	2406.307	742.378	-2514.119	C.2	15	TYR15	0.323	
236	  OH	2405.237	741.534	-2514.213	O.3	15	TYR15	-0.558	
237	   H	2410.755	743.025	-2512.540	 H	15	TYR15	0.272	
238	  HA	2411.103	744.023	-2515.192	 H	15	TYR15	0.088	
239	 2HB	2409.523	745.900	-2514.475	 H	15	TYR15	0.030	
240	 3HB	2409.743	745.471	-2512.803	 H	15	TYR15	0.030	
241	 1HD	2408.372	744.210	-2516.083	 H	15	TYR15	0.170	
242	 2HD	2408.362	743.761	-2511.808	 H	15	TYR15	0.170	
243	 1HE	2406.435	742.688	-2516.237	 H	15	TYR15	0.166	
244	 2HE	2406.431	742.252	-2511.973	 H	15	TYR15	0.166	
245	  HH	2404.996	741.249	-2513.329	 H	15	TYR15	0.399	
246	   N	2412.499	745.929	-2512.905	N.am	16	ARG16	-0.348	
247	  CA	2413.497	746.992	-2512.820	C.3	16	ARG16	-0.264	
248	   C	2414.768	746.598	-2513.535	C.2	16	ARG16	0.734	
249	   O	2414.881	745.522	-2514.117	O.2	16	ARG16	-0.589	
250	  CB	2413.765	747.309	-2511.322	C.3	16	ARG16	-0.001	
251	  CG	2414.591	748.597	-2511.048	C.3	16	ARG16	0.039	
252	  CD	2414.839	748.816	-2509.546	C.3	16	ARG16	0.049	
253	  NE	2415.616	750.074	-2509.344	N.pl3	16	ARG16	-0.530	
254	  CZ	2416.007	750.555	-2508.168	C.cat	16	ARG16	0.808	
255	 NH1	2415.758	749.971	-2507.030	N.pl3	16	ARG16	-0.863	
256	 NH2	2416.672	751.667	-2508.148	N.pl3	16	ARG16	-0.863	
257	   H	2412.104	745.529	-2512.066	 H	16	ARG16	0.275	
258	  HA	2413.089	747.885	-2513.330	 H	16	ARG16	0.156	
259	 2HB	2414.260	746.432	-2510.855	 H	16	ARG16	0.033	
260	 3HB	2412.795	747.391	-2510.789	 H	16	ARG16	0.033	
261	 2HG	2414.062	749.469	-2511.485	 H	16	ARG16	0.029	
262	 3HG	2415.565	748.543	-2511.576	 H	16	ARG16	0.029	
263	 2HD	2415.387	747.940	-2509.133	 H	16	ARG16	0.069	
264	 3HD	2413.866	748.859	-2509.011	 H	16	ARG16	0.069	
265	  HE	2415.896	750.655	-2510.141	 H	16	ARG16	0.346	
266	1HH1	2415.231	749.099	-2507.115	 H	16	ARG16	0.448	
267	2HH1	2416.092	750.406	-2506.168	 H	16	ARG16	0.448	
268	1HH2	2416.859	752.111	-2509.050	 H	16	ARG16	0.448	
269	2HH2	2416.962	752.022	-2507.236	 H	16	ARG16	0.448	
@<TRIPOS>BOND
1 1 2 1
2 1 10 1
3 2 3 1
4 2 5 1
5 2 11 1
6 3 4 2
7 3 16 1
8 5 6 1
9 6 7 1
10 7 8 2
11 7 9 1
12 5 12 1
13 5 13 1
14 6 14 1
15 6 15 1
16 16 17 1
17 16 24 1
18 17 18 1
19 17 20 1
20 17 25 1
21 18 19 2
22 18 30 1
23 20 21 1
24 21 22 1
25 21 23 2
26 20 26 1
27 20 27 1
28 22 28 1
29 22 29 1
30 30 31 1
31 30 36 1
32 31 32 1
33 31 34 1
34 31 37 1
35 32 33 2
36 32 44 1
37 34 35 1
38 35 36 1
39 34 38 1
40 34 39 1
41 35 40 1
42 35 41 1
43 36 42 1
44 36 43 1
45 44 45 1
46 44 53 1
47 45 46 1
48 45 48 1
49 45 54 1
50 46 47 2
51 46 59 1
52 48 49 1
53 49 50 1
54 50 51 2
55 50 52 1
56 48 55 1
57 48 56 1
58 49 57 1
59 49 58 1
60 59 60 1
61 59 65 1
62 60 61 1
63 60 63 1
64 60 66 1
65 61 62 2
66 61 70 1
67 63 64 1
68 63 67 1
69 63 68 1
70 64 69 1
71 70 71 1
72 70 78 1
73 71 72 1
74 71 74 1
75 71 79 1
76 72 73 2
77 72 89 1
78 74 75 1
79 74 76 1
80 75 77 1
81 74 80 1
82 75 81 1
83 75 82 1
84 76 83 1
85 76 84 1
86 76 85 1
87 77 86 1
88 77 87 1
89 77 88 1
90 89 90 1
91 89 97 1
92 90 91 1
93 90 93 1
94 90 98 1
95 91 92 2
96 91 108 1
97 93 94 1
98 94 95 1
99 94 96 1
100 93 99 1
101 93 100 1
102 94 101 1
103 95 102 1
104 95 103 1
105 95 104 1
106 96 105 1
107 96 106 1
108 96 107 1
109 108 109 1
110 108 116 1
111 109 110 1
112 109 112 1
113 109 117 1
114 110 111 2
115 110 120 1
116 112 113 1
117 113 114 2
118 113 115 1
119 112 118 1
120 112 119 1
121 120 121 1
122 120 129 1
123 121 122 1
124 121 124 1
125 121 130 1
126 122 123 2
127 122 135 1
128 124 125 1
129 125 126 1
130 126 127 2
131 126 128 1
132 124 131 1
133 124 132 1
134 125 133 1
135 125 134 1
136 135 136 1
137 135 145 1
138 136 137 1
139 136 139 1
140 136 146 1
141 137 138 2
142 137 152 1
143 139 140 1
144 140 141 2
145 141 144 1
146 140 142 1
147 142 143 2
148 143 144 1
149 139 147 1
150 139 148 1
151 141 149 1
152 143 150 1
153 144 151 1
154 152 153 1
155 152 159 1
156 153 154 1
157 153 156 1
158 153 160 1
159 154 155 2
160 154 168 1
161 156 157 1
162 156 158 1
163 156 161 1
164 157 162 1
165 157 163 1
166 157 164 1
167 158 165 1
168 158 166 1
169 158 167 1
170 168 169 1
171 168 177 1
172 169 170 1
173 169 172 1
174 169 178 1
175 170 171 2
176 170 185 1
177 172 173 1
178 173 174 1
179 174 175 1
180 174 176 2
181 172 179 1
182 172 180 1
183 173 181 1
184 173 182 1
185 175 183 1
186 175 184 1
187 185 186 1
188 185 196 1
189 186 187 1
190 186 189 1
191 186 197 1
192 187 188 2
193 187 209 1
194 189 190 1
195 190 191 1
196 191 192 1
197 192 193 1
198 193 194 2
199 193 195 1
200 189 198 1
201 189 199 1
202 190 200 1
203 190 201 1
204 191 202 1
205 191 203 1
206 192 204 1
207 194 205 1
208 194 206 1
209 195 207 1
210 195 208 1
211 209 210 1
212 209 216 1
213 210 211 1
214 210 213 1
215 210 217 1
216 211 212 2
217 211 225 1
218 213 214 1
219 213 215 1
220 213 218 1
221 214 219 1
222 214 220 1
223 214 221 1
224 215 222 1
225 215 223 1
226 215 224 1
227 225 226 1
228 225 237 1
229 226 227 1
230 226 229 1
231 226 238 1
232 227 228 2
233 227 246 1
234 229 230 1
235 230 231 2
236 230 232 1
237 232 234 2
238 231 233 1
239 234 235 1
240 233 235 2
241 235 236 1
242 229 239 1
243 229 240 1
244 231 241 1
245 232 242 1
246 233 243 1
247 234 244 1
248 236 245 1
249 246 247 1
250 246 257 1
251 247 248 1
252 247 250 1
253 247 258 1
254 248 249 2
255 250 251 1
256 251 252 1
257 252 253 1
258 253 254 1
259 254 255 2
260 254 256 1
261 250 259 1
262 250 260 1
263 251 261 1
264 251 262 1
265 252 263 1
266 252 264 1
267 253 265 1
268 255 266 1
269 255 267 1
270 256 268 1
271 256 269 1
@<TRIPOS>SUBSTRUCTURE
1	GLU1	1	RESIDUE	1 ****	GLU
2	ASN2	16	RESIDUE	1 ****	ASN
3	PRO3	30	RESIDUE	1 ****	PRO
4	GLU4	44	RESIDUE	1 ****	GLU
5	SER5	59	RESIDUE	1 ****	SER
6	ILE6	70	RESIDUE	1 ****	ILE
7	LEU7	89	RESIDUE	1 ****	LEU
8	ASP8	108	RESIDUE	1 ****	ASP
9	GLU9	120	RESIDUE	1 ****	GLU
10	HIS10	135	RESIDUE	1 ****	HIS
11	VAL11	152	RESIDUE	1 ****	VAL
12	GLN12	168	RESIDUE	1 ****	GLN
13	ARG13	185	RESIDUE	1 ****	ARG
14	VAL14	209	RESIDUE	1 ****	VAL
15	TYR15	225	RESIDUE	1 ****	TYR
16	ARG16	246	RESIDUE	1 ****	ARG
