@<TRIPOS>MOLECULE
9-7
269 270 16              
SMALL
USER_CHARGES
@<TRIPOS>ATOM
1	   N	1402.442	410.281	-1413.429	N.3	1	GLU1	-0.516	
2	  CA	1403.001	411.630	-1413.429	C.3	1	GLU1	0.040	
3	   C	1404.510	411.590	-1413.429	C.2	1	GLU1	0.537	
4	   O	1405.186	412.289	-1414.197	O.2	1	GLU1	-0.582	
5	  CB	1402.478	412.415	-1412.192	C.3	1	GLU1	0.056	
6	  CG	1402.953	413.900	-1412.081	C.3	1	GLU1	0.014	
7	  CD	1402.529	414.704	-1410.866	C.2	1	GLU1	0.805	
8	 OE1	1401.801	414.202	-1409.988	O.co2	1	GLU1	-0.819	
9	 OE2	1402.959	415.874	-1410.794	O.co2	1	GLU1	-0.819	
10	   H	1403.069	409.402	-1413.429	 H	1	GLU1	0.294	
11	  HA	1402.675	412.148	-1414.349	 H	1	GLU1	0.111	
12	 2HB	1402.767	411.884	-1411.262	 H	1	GLU1	-0.017	
13	 3HB	1401.371	412.405	-1412.179	 H	1	GLU1	-0.017	
14	 2HG	1402.643	414.485	-1412.962	 H	1	GLU1	-0.043	
15	 3HG	1404.053	413.967	-1412.052	 H	1	GLU1	-0.043	
16	   N	1405.114	410.804	-1412.604	N.am	2	ASN2	-0.416	
17	  CA	1406.574	410.765	-1412.604	C.3	2	ASN2	0.014	
18	   C	1407.105	410.410	-1413.972	C.2	2	ASN2	0.597	
19	   O	1408.020	411.040	-1414.501	O.2	2	ASN2	-0.568	
20	  CB	1407.066	409.742	-1411.539	C.3	2	ASN2	-0.204	
21	  CG	1406.603	409.966	-1410.096	C.2	2	ASN2	0.713	
22	 ND2	1407.197	410.881	-1409.378	N.pl3	2	ASN2	-0.919	
23	 OD1	1405.682	409.332	-1409.602	O.2	2	ASN2	-0.593	
24	   H	1404.586	410.224	-1411.967	 H	2	ASN2	0.272	
25	  HA	1406.951	411.776	-1412.358	 H	2	ASN2	0.105	
26	 2HB	1408.170	409.683	-1411.543	 H	2	ASN2	0.080	
27	 3HB	1406.737	408.724	-1411.825	 H	2	ASN2	0.080	
28	1HD2	1406.716	411.054	-1408.491	 H	2	ASN2	0.420	
29	2HD2	1407.899	411.453	-1409.847	 H	2	ASN2	0.420	
30	   N	1406.583	409.415	-1414.606	N.am	3	PRO3	-0.255	
31	  CA	1407.035	409.006	-1415.928	C.3	3	PRO3	-0.027	
32	   C	1406.637	410.029	-1417.005	C.2	3	PRO3	0.590	
33	   O	1407.460	410.412	-1417.836	O.2	3	PRO3	-0.575	
34	  CB	1406.331	407.651	-1416.097	C.3	3	PRO3	-0.007	
35	  CG	1405.048	407.803	-1415.267	C.3	3	PRO3	0.019	
36	  CD	1405.505	408.622	-1414.057	C.3	3	PRO3	0.019	
37	  HA	1408.121	408.886	-1415.942	 H	3	PRO3	0.064	
38	 2HB	1406.954	406.870	-1415.656	 H	3	PRO3	0.025	
39	 3HB	1406.133	407.402	-1417.142	 H	3	PRO3	0.025	
40	 2HG	1404.620	406.841	-1414.976	 H	3	PRO3	0.021	
41	 3HG	1404.310	408.374	-1415.834	 H	3	PRO3	0.021	
42	 2HD	1405.895	407.972	-1413.270	 H	3	PRO3	0.039	
43	 3HD	1404.709	409.258	-1413.664	 H	3	PRO3	0.039	
44	   N	1405.432	410.489	-1417.037	N.am	4	GLU4	-0.516	
45	  CA	1405.072	411.460	-1418.067	C.3	4	GLU4	0.040	
46	   C	1405.971	412.671	-1418.005	C.2	4	GLU4	0.537	
47	   O	1406.497	413.151	-1419.020	O.2	4	GLU4	-0.582	
48	  CB	1403.584	411.879	-1417.896	C.3	4	GLU4	0.056	
49	  CG	1403.035	412.882	-1418.962	C.3	4	GLU4	0.014	
50	  CD	1401.609	413.379	-1418.818	C.2	4	GLU4	0.805	
51	 OE1	1400.883	412.980	-1417.887	O.co2	4	GLU4	-0.819	
52	 OE2	1401.219	414.208	-1419.666	O.co2	4	GLU4	-0.819	
53	   H	1404.748	410.182	-1416.360	 H	4	GLU4	0.294	
54	  HA	1405.203	410.990	-1419.058	 H	4	GLU4	0.111	
55	 2HB	1403.431	412.319	-1416.889	 H	4	GLU4	-0.017	
56	 3HB	1402.936	410.981	-1417.902	 H	4	GLU4	-0.017	
57	 2HG	1403.117	412.468	-1419.979	 H	4	GLU4	-0.043	
58	 3HG	1403.623	413.815	-1418.973	 H	4	GLU4	-0.043	
59	   N	1406.199	413.224	-1416.862	N.am	5	SER5	-0.416	
60	  CA	1407.068	414.395	-1416.804	C.3	5	SER5	-0.025	
61	   C	1408.427	414.090	-1417.390	C.2	5	SER5	0.597	
62	   O	1408.974	414.844	-1418.194	O.2	5	SER5	-0.568	
63	  CB	1407.180	414.927	-1415.353	C.3	5	SER5	0.212	
64	  OG	1407.912	414.048	-1414.492	O.3	5	SER5	-0.655	
65	   H	1405.782	412.852	-1416.021	 H	5	SER5	0.272	
66	  HA	1406.619	415.186	-1417.433	 H	5	SER5	0.084	
67	 2HB	1406.180	415.121	-1414.920	 H	5	SER5	0.035	
68	 3HB	1407.685	415.913	-1415.355	 H	5	SER5	0.035	
69	  HG	1407.423	413.223	-1414.442	 H	5	SER5	0.428	
70	   N	1409.032	413.007	-1417.036	N.am	6	ILE6	-0.416	
71	  CA	1410.345	412.712	-1417.602	C.3	6	ILE6	-0.060	
72	   C	1410.287	412.675	-1419.110	C.2	6	ILE6	0.597	
73	   O	1411.122	413.263	-1419.814	O.2	6	ILE6	-0.568	
74	  CB	1410.945	411.376	-1417.002	C.3	6	ILE6	0.130	
75	 CG1	1410.964	411.314	-1415.441	C.3	6	ILE6	-0.043	
76	 CG2	1412.386	411.075	-1417.518	C.3	6	ILE6	-0.320	
77	 CD1	1411.234	409.924	-1414.827	C.3	6	ILE6	-0.066	
78	   H	1408.603	412.372	-1416.377	 H	6	ILE6	0.272	
79	  HA	1411.019	413.547	-1417.334	 H	6	ILE6	0.087	
80	  HB	1410.287	410.550	-1417.346	 H	6	ILE6	0.019	
81	2HG1	1409.982	411.633	-1415.045	 H	6	ILE6	0.024	
82	3HG1	1411.680	412.056	-1415.036	 H	6	ILE6	0.024	
83	1HG2	1412.445	410.981	-1418.616	 H	6	ILE6	0.088	
84	2HG2	1413.108	411.857	-1417.216	 H	6	ILE6	0.088	
85	3HG2	1412.776	410.112	-1417.139	 H	6	ILE6	0.088	
86	1HD1	1410.506	409.170	-1415.181	 H	6	ILE6	0.019	
87	2HD1	1412.245	409.546	-1415.062	 H	6	ILE6	0.019	
88	3HD1	1411.158	409.954	-1413.724	 H	6	ILE6	0.019	
89	   N	1409.342	412.011	-1419.683	N.am	7	LEU7	-0.416	
90	  CA	1409.286	411.976	-1421.142	C.3	7	LEU7	-0.052	
91	   C	1409.214	413.371	-1421.714	C.2	7	LEU7	0.597	
92	   O	1409.934	413.734	-1422.656	O.2	7	LEU7	-0.568	
93	  CB	1408.083	411.115	-1421.622	C.3	7	LEU7	-0.110	
94	  CG	1408.011	409.636	-1421.156	C.3	7	LEU7	0.353	
95	 CD1	1406.821	408.930	-1421.822	C.3	7	LEU7	-0.412	
96	 CD2	1409.304	408.857	-1421.448	C.3	7	LEU7	-0.412	
97	   H	1408.650	411.524	-1419.132	 H	7	LEU7	0.272	
98	  HA	1410.228	411.536	-1421.516	 H	7	LEU7	0.092	
99	 2HB	1408.060	411.132	-1422.730	 H	7	LEU7	0.046	
100	 3HB	1407.144	411.618	-1421.318	 H	7	LEU7	0.046	
101	  HG	1407.841	409.628	-1420.059	 H	7	LEU7	-0.036	
102	1HD1	1405.864	409.439	-1421.599	 H	7	LEU7	0.100	
103	2HD1	1406.920	408.890	-1422.923	 H	7	LEU7	0.100	
104	3HD1	1406.714	407.889	-1421.466	 H	7	LEU7	0.100	
105	1HD2	1409.579	408.887	-1422.518	 H	7	LEU7	0.100	
106	2HD2	1410.158	409.268	-1420.877	 H	7	LEU7	0.100	
107	3HD2	1409.223	407.794	-1421.152	 H	7	LEU7	0.100	
108	   N	1408.377	414.211	-1421.208	N.am	8	ASP8	-0.516	
109	  CA	1408.306	415.561	-1421.761	C.3	8	ASP8	0.038	
110	   C	1409.653	416.241	-1421.703	C.2	8	ASP8	0.537	
111	   O	1410.125	416.846	-1422.678	O.2	8	ASP8	-0.582	
112	  CB	1407.228	416.400	-1421.019	C.3	8	ASP8	-0.030	
113	  CG	1407.009	417.821	-1421.559	C.2	8	ASP8	0.799	
114	 OD1	1407.073	418.020	-1422.789	O.co2	8	ASP8	-0.801	
115	 OD2	1406.817	418.746	-1420.743	O.co2	8	ASP8	-0.801	
116	   H	1407.779	413.940	-1420.440	 H	8	ASP8	0.294	
117	  HA	1408.023	415.484	-1422.828	 H	8	ASP8	0.088	
118	 2HB	1407.485	416.483	-1419.947	 H	8	ASP8	-0.012	
119	 3HB	1406.249	415.895	-1421.052	 H	8	ASP8	-0.012	
120	   N	1410.333	416.191	-1420.608	N.am	9	LEU9	-0.416	
121	  CA	1411.635	416.849	-1420.553	C.3	9	LEU9	-0.052	
122	   C	1412.552	416.321	-1421.630	C.2	9	LEU9	0.597	
123	   O	1413.217	417.075	-1422.357	O.2	9	LEU9	-0.568	
124	  CB	1412.274	416.678	-1419.146	C.3	9	LEU9	-0.110	
125	  CG	1411.482	417.197	-1417.916	C.3	9	LEU9	0.353	
126	 CD1	1412.323	417.040	-1416.641	C.3	9	LEU9	-0.412	
127	 CD2	1411.042	418.663	-1418.068	C.3	9	LEU9	-0.412	
128	   H	1409.969	415.704	-1419.801	 H	9	LEU9	0.272	
129	  HA	1411.493	417.923	-1420.767	 H	9	LEU9	0.092	
130	 2HB	1413.268	417.167	-1419.150	 H	9	LEU9	0.046	
131	 3HB	1412.495	415.604	-1418.984	 H	9	LEU9	0.046	
132	  HG	1410.572	416.572	-1417.802	 H	9	LEU9	-0.036	
133	1HD1	1412.624	415.988	-1416.474	 H	9	LEU9	0.100	
134	2HD1	1413.250	417.643	-1416.673	 H	9	LEU9	0.100	
135	3HD1	1411.762	417.353	-1415.741	 H	9	LEU9	0.100	
136	1HD2	1411.895	419.339	-1418.262	 H	9	LEU9	0.100	
137	2HD2	1410.330	418.783	-1418.906	 H	9	LEU9	0.100	
138	3HD2	1410.518	419.033	-1417.167	 H	9	LEU9	0.100	
139	   N	1412.648	415.045	-1421.799	N.am	10	HIS10	-0.416	
140	  CA	1413.535	414.533	-1422.840	C.3	10	HIS10	-0.058	
141	   C	1413.168	415.097	-1424.191	C.2	10	HIS10	0.597	
142	   O	1414.020	415.561	-1424.964	O.2	10	HIS10	-0.568	
143	  CB	1413.370	413.004	-1422.834	C.3	10	HIS10	-0.007	
144	  CG	1414.656	412.294	-1422.527	C.2	10	HIS10	0.187	
145	 CD2	1415.038	411.959	-1421.235	C.2	10	HIS10	-0.221	
146	 ND1	1415.607	411.887	-1423.460	N.2	10	HIS10	-0.543	
147	 CE1	1416.514	411.329	-1422.637	C.2	10	HIS10	0.163	
148	 NE2	1416.252	411.326	-1421.302	N.pl3	10	HIS10	-0.280	
149	   H	1412.118	414.410	-1421.220	 H	10	HIS10	0.272	
150	  HA	1414.555	414.890	-1422.616	 H	10	HIS10	0.136	
151	 2HB	1413.004	412.637	-1423.814	 H	10	HIS10	0.037	
152	 3HB	1412.615	412.668	-1422.094	 H	10	HIS10	0.037	
153	 2HD	1414.453	412.174	-1420.345	 H	10	HIS10	0.186	
154	 1HE	1417.404	410.907	-1423.085	 H	10	HIS10	0.144	
155	 2HE	1416.819	410.949	-1420.529	 H	10	HIS10	0.334	
156	   N	1411.929	415.097	-1424.553	N.am	11	VAL11	-0.416	
157	  CA	1411.574	415.643	-1425.860	C.3	11	VAL11	-0.087	
158	   C	1412.039	417.073	-1425.993	C.2	11	VAL11	0.597	
159	   O	1412.640	417.477	-1426.997	O.2	11	VAL11	-0.568	
160	  CB	1410.012	415.536	-1426.078	C.3	11	VAL11	0.299	
161	 CG1	1409.443	416.240	-1427.341	C.3	11	VAL11	-0.319	
162	 CG2	1409.487	414.083	-1426.151	C.3	11	VAL11	-0.319	
163	   H	1411.217	414.725	-1423.942	 H	11	VAL11	0.272	
164	  HA	1412.093	415.060	-1426.643	 H	11	VAL11	0.097	
165	  HB	1409.526	416.017	-1425.203	 H	11	VAL11	-0.030	
166	1HG1	1409.881	415.848	-1428.278	 H	11	VAL11	0.079	
167	2HG1	1408.344	416.134	-1427.422	 H	11	VAL11	0.079	
168	3HG1	1409.622	417.333	-1427.332	 H	11	VAL11	0.079	
169	1HG2	1409.777	413.496	-1425.260	 H	11	VAL11	0.079	
170	2HG2	1408.381	414.046	-1426.193	 H	11	VAL11	0.079	
171	3HG2	1409.868	413.541	-1427.037	 H	11	VAL11	0.079	
172	   N	1411.802	417.899	-1425.031	N.am	12	GLN12	-0.416	
173	  CA	1412.251	419.282	-1425.160	C.3	12	GLN12	-0.003	
174	   C	1413.741	419.349	-1425.398	C.2	12	GLN12	0.597	
175	   O	1414.228	420.056	-1426.277	O.2	12	GLN12	-0.568	
176	  CB	1411.861	420.051	-1423.877	C.3	12	GLN12	-0.004	
177	  CG	1412.222	421.572	-1423.847	C.3	12	GLN12	-0.064	
178	  CD	1411.920	422.387	-1422.583	C.2	12	GLN12	0.695	
179	 NE2	1411.354	421.811	-1421.553	N.pl3	12	GLN12	-0.941	
180	 OE1	1412.223	423.567	-1422.506	O.2	12	GLN12	-0.609	
181	   H	1411.314	417.594	-1424.202	 H	12	GLN12	0.272	
182	  HA	1411.752	419.738	-1426.035	 H	12	GLN12	0.085	
183	 2HB	1412.338	419.551	-1423.008	 H	12	GLN12	0.017	
184	 3HB	1410.771	419.943	-1423.714	 H	12	GLN12	0.017	
185	 2HG	1411.744	422.093	-1424.698	 H	12	GLN12	0.035	
186	 3HG	1413.305	421.714	-1424.014	 H	12	GLN12	0.035	
187	1HE2	1411.247	422.406	-1420.730	 H	12	GLN12	0.425	
188	2HE2	1411.190	420.807	-1421.656	 H	12	GLN12	0.425	
189	   N	1414.526	418.642	-1424.657	N.am	13	ARG13	-0.348	
190	  CA	1415.966	418.707	-1424.889	C.3	13	ARG13	-0.264	
191	   C	1416.302	418.335	-1426.314	C.2	13	ARG13	0.734	
192	   O	1417.070	419.006	-1426.999	O.2	13	ARG13	-0.589	
193	  CB	1416.680	417.769	-1423.875	C.3	13	ARG13	-0.001	
194	  CG	1418.225	417.921	-1423.795	C.3	13	ARG13	0.039	
195	  CD	1418.852	416.934	-1422.797	C.3	13	ARG13	0.049	
196	  NE	1420.329	417.141	-1422.747	N.pl3	13	ARG13	-0.530	
197	  CZ	1421.177	416.449	-1421.992	C.cat	13	ARG13	0.808	
198	 NH1	1420.812	415.485	-1421.194	N.pl3	13	ARG13	-0.863	
199	 NH2	1422.437	416.748	-1422.049	N.pl3	13	ARG13	-0.863	
200	   H	1414.150	418.053	-1423.928	 H	13	ARG13	0.275	
201	  HA	1416.291	419.753	-1424.731	 H	13	ARG13	0.156	
202	 2HB	1416.413	416.718	-1424.113	 H	13	ARG13	0.033	
203	 3HB	1416.255	417.936	-1422.864	 H	13	ARG13	0.033	
204	 2HG	1418.473	418.966	-1423.516	 H	13	ARG13	0.029	
205	 3HG	1418.675	417.764	-1424.796	 H	13	ARG13	0.029	
206	 2HD	1418.607	415.894	-1423.105	 H	13	ARG13	0.069	
207	 3HD	1418.396	417.080	-1421.794	 H	13	ARG13	0.069	
208	  HE	1420.780	417.862	-1423.318	 H	13	ARG13	0.346	
209	1HH1	1419.807	415.299	-1421.196	 H	13	ARG13	0.448	
210	2HH1	1421.525	415.002	-1420.645	 H	13	ARG13	0.448	
211	1HH2	1422.704	417.505	-1422.681	 H	13	ARG13	0.448	
212	2HH2	1423.072	416.206	-1421.461	 H	13	ARG13	0.448	
213	   N	1415.765	417.280	-1426.828	N.am	14	VAL14	-0.416	
214	  CA	1416.089	416.920	-1428.205	C.3	14	VAL14	-0.087	
215	   C	1415.759	418.050	-1429.151	C.2	14	VAL14	0.597	
216	   O	1416.552	418.431	-1430.021	O.2	14	VAL14	-0.568	
217	  CB	1415.316	415.603	-1428.611	C.3	14	VAL14	0.299	
218	 CG1	1415.405	415.184	-1430.104	C.3	14	VAL14	-0.319	
219	 CG2	1415.748	414.351	-1427.810	C.3	14	VAL14	-0.319	
220	   H	1415.130	416.712	-1426.285	 H	14	VAL14	0.272	
221	  HA	1417.177	416.743	-1428.280	 H	14	VAL14	0.097	
222	  HB	1414.240	415.775	-1428.394	 H	14	VAL14	-0.030	
223	1HG1	1416.446	415.007	-1430.433	 H	14	VAL14	0.079	
224	2HG1	1414.831	414.261	-1430.316	 H	14	VAL14	0.079	
225	3HG1	1414.975	415.946	-1430.782	 H	14	VAL14	0.079	
226	1HG2	1415.661	414.510	-1426.719	 H	14	VAL14	0.079	
227	2HG2	1415.112	413.475	-1428.041	 H	14	VAL14	0.079	
228	3HG2	1416.796	414.061	-1428.016	 H	14	VAL14	0.079	
229	   N	1414.615	418.636	-1429.049	N.am	15	MET15	-0.416	
230	  CA	1414.294	419.728	-1429.963	C.3	15	MET15	-0.024	
231	   C	1415.325	420.828	-1429.877	C.2	15	MET15	0.597	
232	   O	1415.827	421.338	-1430.890	O.2	15	MET15	-0.568	
233	  CB	1412.873	420.274	-1429.654	C.3	15	MET15	0.034	
234	  CG	1411.711	419.276	-1429.845	C.3	15	MET15	0.002	
235	  SD	1410.137	420.143	-1429.731	S.3	15	MET15	-0.274	
236	  CE	1409.056	418.713	-1429.593	C.3	15	MET15	-0.054	
237	   H	1413.950	418.344	-1428.347	 H	15	MET15	0.272	
238	  HA	1414.320	419.340	-1430.999	 H	15	MET15	0.088	
239	 2HB	1412.671	421.153	-1430.297	 H	15	MET15	0.024	
240	 3HB	1412.838	420.668	-1428.618	 H	15	MET15	0.024	
241	 2HG	1411.754	418.491	-1429.067	 H	15	MET15	0.044	
242	 3HG	1411.773	418.761	-1430.821	 H	15	MET15	0.044	
243	 1HE	1409.199	418.025	-1430.445	 H	15	MET15	0.068	
244	 2HE	1409.265	418.161	-1428.660	 H	15	MET15	0.068	
245	 3HE	1407.998	419.029	-1429.576	 H	15	MET15	0.068	
246	   N	1415.694	421.250	-1428.715	N.am	16	ARG16	-0.348	
247	  CA	1416.691	422.313	-1428.632	C.3	16	ARG16	-0.264	
248	   C	1417.961	421.920	-1429.349	C.2	16	ARG16	0.734	
249	   O	1418.074	420.843	-1429.930	O.2	16	ARG16	-0.589	
250	  CB	1416.961	422.632	-1427.134	C.3	16	ARG16	-0.001	
251	  CG	1417.787	423.921	-1426.862	C.3	16	ARG16	0.039	
252	  CD	1418.037	424.141	-1425.361	C.3	16	ARG16	0.049	
253	  NE	1418.814	425.400	-1425.161	N.pl3	16	ARG16	-0.530	
254	  CZ	1419.206	425.882	-1423.986	C.cat	16	ARG16	0.808	
255	 NH1	1418.958	425.299	-1422.847	N.pl3	16	ARG16	-0.863	
256	 NH2	1419.870	426.995	-1423.969	N.pl3	16	ARG16	-0.863	
257	   H	1415.299	420.850	-1427.875	 H	16	ARG16	0.275	
258	  HA	1416.282	423.206	-1429.142	 H	16	ARG16	0.156	
259	 2HB	1417.458	421.756	-1426.668	 H	16	ARG16	0.033	
260	 3HB	1415.992	422.713	-1426.600	 H	16	ARG16	0.033	
261	 2HG	1417.256	424.792	-1427.300	 H	16	ARG16	0.029	
262	 3HG	1418.760	423.867	-1427.392	 H	16	ARG16	0.029	
263	 2HD	1418.586	423.266	-1424.948	 H	16	ARG16	0.069	
264	 3HD	1417.065	424.184	-1424.825	 H	16	ARG16	0.069	
265	  HE	1419.092	425.980	-1425.959	 H	16	ARG16	0.346	
266	1HH1	1418.433	424.426	-1422.931	 H	16	ARG16	0.448	
267	2HH1	1419.294	425.734	-1421.986	 H	16	ARG16	0.448	
268	1HH2	1420.055	427.437	-1424.871	 H	16	ARG16	0.448	
269	2HH2	1420.161	427.350	-1423.056	 H	16	ARG16	0.448	
@<TRIPOS>BOND
1 1 2 1
2 1 10 1
3 2 3 1
4 2 5 1
5 2 11 1
6 3 4 2
7 3 16 1
8 5 6 1
9 6 7 1
10 7 8 2
11 7 9 1
12 5 12 1
13 5 13 1
14 6 14 1
15 6 15 1
16 16 17 1
17 16 24 1
18 17 18 1
19 17 20 1
20 17 25 1
21 18 19 2
22 18 30 1
23 20 21 1
24 21 22 1
25 21 23 2
26 20 26 1
27 20 27 1
28 22 28 1
29 22 29 1
30 30 31 1
31 30 36 1
32 31 32 1
33 31 34 1
34 31 37 1
35 32 33 2
36 32 44 1
37 34 35 1
38 35 36 1
39 34 38 1
40 34 39 1
41 35 40 1
42 35 41 1
43 36 42 1
44 36 43 1
45 44 45 1
46 44 53 1
47 45 46 1
48 45 48 1
49 45 54 1
50 46 47 2
51 46 59 1
52 48 49 1
53 49 50 1
54 50 51 2
55 50 52 1
56 48 55 1
57 48 56 1
58 49 57 1
59 49 58 1
60 59 60 1
61 59 65 1
62 60 61 1
63 60 63 1
64 60 66 1
65 61 62 2
66 61 70 1
67 63 64 1
68 63 67 1
69 63 68 1
70 64 69 1
71 70 71 1
72 70 78 1
73 71 72 1
74 71 74 1
75 71 79 1
76 72 73 2
77 72 89 1
78 74 75 1
79 74 76 1
80 75 77 1
81 74 80 1
82 75 81 1
83 75 82 1
84 76 83 1
85 76 84 1
86 76 85 1
87 77 86 1
88 77 87 1
89 77 88 1
90 89 90 1
91 89 97 1
92 90 91 1
93 90 93 1
94 90 98 1
95 91 92 2
96 91 108 1
97 93 94 1
98 94 95 1
99 94 96 1
100 93 99 1
101 93 100 1
102 94 101 1
103 95 102 1
104 95 103 1
105 95 104 1
106 96 105 1
107 96 106 1
108 96 107 1
109 108 109 1
110 108 116 1
111 109 110 1
112 109 112 1
113 109 117 1
114 110 111 2
115 110 120 1
116 112 113 1
117 113 114 2
118 113 115 1
119 112 118 1
120 112 119 1
121 120 121 1
122 120 128 1
123 121 122 1
124 121 124 1
125 121 129 1
126 122 123 2
127 122 139 1
128 124 125 1
129 125 126 1
130 125 127 1
131 124 130 1
132 124 131 1
133 125 132 1
134 126 133 1
135 126 134 1
136 126 135 1
137 127 136 1
138 127 137 1
139 127 138 1
140 139 140 1
141 139 149 1
142 140 141 1
143 140 143 1
144 140 150 1
145 141 142 2
146 141 156 1
147 143 144 1
148 144 145 2
149 145 148 1
150 144 146 1
151 146 147 2
152 147 148 1
153 143 151 1
154 143 152 1
155 145 153 1
156 147 154 1
157 148 155 1
158 156 157 1
159 156 163 1
160 157 158 1
161 157 160 1
162 157 164 1
163 158 159 2
164 158 172 1
165 160 161 1
166 160 162 1
167 160 165 1
168 161 166 1
169 161 167 1
170 161 168 1
171 162 169 1
172 162 170 1
173 162 171 1
174 172 173 1
175 172 181 1
176 173 174 1
177 173 176 1
178 173 182 1
179 174 175 2
180 174 189 1
181 176 177 1
182 177 178 1
183 178 179 1
184 178 180 2
185 176 183 1
186 176 184 1
187 177 185 1
188 177 186 1
189 179 187 1
190 179 188 1
191 189 190 1
192 189 200 1
193 190 191 1
194 190 193 1
195 190 201 1
196 191 192 2
197 191 213 1
198 193 194 1
199 194 195 1
200 195 196 1
201 196 197 1
202 197 198 2
203 197 199 1
204 193 202 1
205 193 203 1
206 194 204 1
207 194 205 1
208 195 206 1
209 195 207 1
210 196 208 1
211 198 209 1
212 198 210 1
213 199 211 1
214 199 212 1
215 213 214 1
216 213 220 1
217 214 215 1
218 214 217 1
219 214 221 1
220 215 216 2
221 215 229 1
222 217 218 1
223 217 219 1
224 217 222 1
225 218 223 1
226 218 224 1
227 218 225 1
228 219 226 1
229 219 227 1
230 219 228 1
231 229 230 1
232 229 237 1
233 230 231 1
234 230 233 1
235 230 238 1
236 231 232 2
237 231 246 1
238 233 234 1
239 234 235 1
240 235 236 1
241 233 239 1
242 233 240 1
243 234 241 1
244 234 242 1
245 236 243 1
246 236 244 1
247 236 245 1
248 246 247 1
249 246 257 1
250 247 248 1
251 247 250 1
252 247 258 1
253 248 249 2
254 250 251 1
255 251 252 1
256 252 253 1
257 253 254 1
258 254 255 2
259 254 256 1
260 250 259 1
261 250 260 1
262 251 261 1
263 251 262 1
264 252 263 1
265 252 264 1
266 253 265 1
267 255 266 1
268 255 267 1
269 256 268 1
270 256 269 1
@<TRIPOS>SUBSTRUCTURE
1	GLU1	1	RESIDUE	1 ****	GLU
2	ASN2	16	RESIDUE	1 ****	ASN
3	PRO3	30	RESIDUE	1 ****	PRO
4	GLU4	44	RESIDUE	1 ****	GLU
5	SER5	59	RESIDUE	1 ****	SER
6	ILE6	70	RESIDUE	1 ****	ILE
7	LEU7	89	RESIDUE	1 ****	LEU
8	ASP8	108	RESIDUE	1 ****	ASP
9	LEU9	120	RESIDUE	1 ****	LEU
10	HIS10	139	RESIDUE	1 ****	HIS
11	VAL11	156	RESIDUE	1 ****	VAL
12	GLN12	172	RESIDUE	1 ****	GLN
13	ARG13	189	RESIDUE	1 ****	ARG
14	VAL14	213	RESIDUE	1 ****	VAL
15	MET15	229	RESIDUE	1 ****	MET
16	ARG16	246	RESIDUE	1 ****	ARG
