@<TRIPOS>MOLECULE
16-4
257 258 16              
SMALL
USER_CHARGES
@<TRIPOS>ATOM
1	   N	2522.009	773.895	-2630.827	N.3	1	GLU1	-0.516	
2	  CA	2522.568	775.244	-2630.827	C.3	1	GLU1	0.040	
3	   C	2524.077	775.204	-2630.827	C.2	1	GLU1	0.537	
4	   O	2524.752	775.903	-2631.595	O.2	1	GLU1	-0.582	
5	  CB	2522.044	776.029	-2629.590	C.3	1	GLU1	0.056	
6	  CG	2522.520	777.514	-2629.479	C.3	1	GLU1	0.014	
7	  CD	2522.095	778.318	-2628.264	C.2	1	GLU1	0.805	
8	 OE1	2521.367	777.816	-2627.386	O.co2	1	GLU1	-0.819	
9	 OE2	2522.526	779.488	-2628.192	O.co2	1	GLU1	-0.819	
10	   H	2522.635	773.016	-2630.827	 H	1	GLU1	0.294	
11	  HA	2522.241	775.762	-2631.747	 H	1	GLU1	0.111	
12	 2HB	2522.333	775.498	-2628.660	 H	1	GLU1	-0.017	
13	 3HB	2520.938	776.019	-2629.577	 H	1	GLU1	-0.017	
14	 2HG	2522.209	778.099	-2630.360	 H	1	GLU1	-0.043	
15	 3HG	2523.620	777.581	-2629.450	 H	1	GLU1	-0.043	
16	   N	2524.681	774.418	-2630.002	N.am	2	ASN2	-0.416	
17	  CA	2526.140	774.379	-2630.001	C.3	2	ASN2	0.014	
18	   C	2526.672	774.024	-2631.370	C.2	2	ASN2	0.597	
19	   O	2527.587	774.654	-2631.898	O.2	2	ASN2	-0.568	
20	  CB	2526.632	773.356	-2628.937	C.3	2	ASN2	-0.204	
21	  CG	2526.169	773.580	-2627.494	C.2	2	ASN2	0.713	
22	 ND2	2526.763	774.495	-2626.775	N.pl3	2	ASN2	-0.919	
23	 OD1	2525.248	772.947	-2627.000	O.2	2	ASN2	-0.593	
24	   H	2524.153	773.839	-2629.365	 H	2	ASN2	0.272	
25	  HA	2526.518	775.389	-2629.756	 H	2	ASN2	0.105	
26	 2HB	2527.736	773.297	-2628.940	 H	2	ASN2	0.080	
27	 3HB	2526.303	772.338	-2629.223	 H	2	ASN2	0.080	
28	1HD2	2526.282	774.668	-2625.889	 H	2	ASN2	0.420	
29	2HD2	2527.465	775.067	-2627.244	 H	2	ASN2	0.420	
30	   N	2526.150	773.029	-2632.004	N.am	3	PRO3	-0.255	
31	  CA	2526.603	772.620	-2633.326	C.3	3	PRO3	-0.027	
32	   C	2526.205	773.643	-2634.403	C.2	3	PRO3	0.590	
33	   O	2527.028	774.026	-2635.234	O.2	3	PRO3	-0.575	
34	  CB	2525.898	771.265	-2633.495	C.3	3	PRO3	-0.007	
35	  CG	2524.615	771.417	-2632.666	C.3	3	PRO3	0.019	
36	  CD	2525.072	772.236	-2631.456	C.3	3	PRO3	0.019	
37	  HA	2527.688	772.500	-2633.339	 H	3	PRO3	0.064	
38	 2HB	2526.521	770.484	-2633.054	 H	3	PRO3	0.025	
39	 3HB	2525.700	771.017	-2634.541	 H	3	PRO3	0.025	
40	 2HG	2524.187	770.455	-2632.375	 H	3	PRO3	0.021	
41	 3HG	2523.877	771.989	-2633.233	 H	3	PRO3	0.021	
42	 2HD	2525.461	771.586	-2630.668	 H	3	PRO3	0.039	
43	 3HD	2524.275	772.872	-2631.063	 H	3	PRO3	0.039	
44	   N	2525.000	774.104	-2634.436	N.am	4	GLU4	-0.516	
45	  CA	2524.641	775.075	-2635.465	C.3	4	GLU4	0.040	
46	   C	2525.540	776.285	-2635.404	C.2	4	GLU4	0.537	
47	   O	2526.067	776.765	-2636.418	O.2	4	GLU4	-0.582	
48	  CB	2523.152	775.494	-2635.296	C.3	4	GLU4	0.056	
49	  CG	2522.605	776.497	-2636.361	C.3	4	GLU4	0.014	
50	  CD	2521.178	776.994	-2636.218	C.2	4	GLU4	0.805	
51	 OE1	2520.452	776.596	-2635.288	O.co2	4	GLU4	-0.819	
52	 OE2	2520.790	777.824	-2637.067	O.co2	4	GLU4	-0.819	
53	   H	2524.315	773.797	-2633.759	 H	4	GLU4	0.294	
54	  HA	2524.772	774.604	-2636.457	 H	4	GLU4	0.111	
55	 2HB	2523.000	775.933	-2634.289	 H	4	GLU4	-0.017	
56	 3HB	2522.504	774.596	-2635.302	 H	4	GLU4	-0.017	
57	 2HG	2522.687	776.083	-2637.379	 H	4	GLU4	-0.043	
58	 3HG	2523.193	777.430	-2636.372	 H	4	GLU4	-0.043	
59	   N	2525.767	776.838	-2634.260	N.am	5	SER5	-0.416	
60	  CA	2526.637	778.009	-2634.202	C.3	5	SER5	-0.025	
61	   C	2527.996	777.703	-2634.787	C.2	5	SER5	0.597	
62	   O	2528.544	778.456	-2635.592	O.2	5	SER5	-0.568	
63	  CB	2526.748	778.541	-2632.751	C.3	5	SER5	0.212	
64	  OG	2527.479	777.661	-2631.890	O.3	5	SER5	-0.655	
65	   H	2525.350	776.466	-2633.419	 H	5	SER5	0.272	
66	  HA	2526.188	778.799	-2634.831	 H	5	SER5	0.084	
67	 2HB	2525.748	778.735	-2632.318	 H	5	SER5	0.035	
68	 3HB	2527.254	779.527	-2632.753	 H	5	SER5	0.035	
69	  HG	2526.990	776.837	-2631.839	 H	5	SER5	0.428	
70	   N	2528.600	776.620	-2634.433	N.am	6	ILE6	-0.416	
71	  CA	2529.913	776.324	-2634.999	C.3	6	ILE6	-0.060	
72	   C	2529.856	776.287	-2636.506	C.2	6	ILE6	0.597	
73	   O	2530.691	776.874	-2637.210	O.2	6	ILE6	-0.568	
74	  CB	2530.512	774.988	-2634.398	C.3	6	ILE6	0.130	
75	 CG1	2530.531	774.925	-2632.837	C.3	6	ILE6	-0.043	
76	 CG2	2531.954	774.685	-2634.913	C.3	6	ILE6	-0.320	
77	 CD1	2530.801	773.536	-2632.222	C.3	6	ILE6	-0.066	
78	   H	2528.171	775.985	-2633.774	 H	6	ILE6	0.272	
79	  HA	2530.588	777.158	-2634.731	 H	6	ILE6	0.087	
80	  HB	2529.854	774.162	-2634.743	 H	6	ILE6	0.019	
81	2HG1	2529.549	775.246	-2632.442	 H	6	ILE6	0.024	
82	3HG1	2531.247	775.667	-2632.432	 H	6	ILE6	0.024	
83	1HG2	2532.013	774.592	-2636.011	 H	6	ILE6	0.088	
84	2HG2	2532.676	775.468	-2634.611	 H	6	ILE6	0.088	
85	3HG2	2532.343	773.723	-2634.534	 H	6	ILE6	0.088	
86	1HD1	2530.072	772.782	-2632.577	 H	6	ILE6	0.019	
87	2HD1	2531.811	773.157	-2632.458	 H	6	ILE6	0.019	
88	3HD1	2530.724	773.566	-2631.120	 H	6	ILE6	0.019	
89	   N	2528.910	775.623	-2637.080	N.am	7	LEU7	-0.416	
90	  CA	2528.855	775.587	-2638.538	C.3	7	LEU7	-0.052	
91	   C	2528.783	776.982	-2639.111	C.2	7	LEU7	0.597	
92	   O	2529.504	777.344	-2640.054	O.2	7	LEU7	-0.568	
93	  CB	2527.652	774.727	-2639.019	C.3	7	LEU7	-0.110	
94	  CG	2527.579	773.248	-2638.552	C.3	7	LEU7	0.353	
95	 CD1	2526.389	772.542	-2639.218	C.3	7	LEU7	-0.412	
96	 CD2	2528.872	772.468	-2638.844	C.3	7	LEU7	-0.412	
97	   H	2528.218	775.136	-2636.529	 H	7	LEU7	0.272	
98	  HA	2529.797	775.147	-2638.913	 H	7	LEU7	0.092	
99	 2HB	2527.629	774.743	-2640.126	 H	7	LEU7	0.046	
100	 3HB	2526.712	775.230	-2638.715	 H	7	LEU7	0.046	
101	  HG	2527.409	773.240	-2637.455	 H	7	LEU7	-0.036	
102	1HD1	2525.431	773.052	-2638.995	 H	7	LEU7	0.100	
103	2HD1	2526.488	772.502	-2640.319	 H	7	LEU7	0.100	
104	3HD1	2526.281	771.501	-2638.862	 H	7	LEU7	0.100	
105	1HD2	2529.147	772.499	-2639.914	 H	7	LEU7	0.100	
106	2HD2	2529.725	772.880	-2638.272	 H	7	LEU7	0.100	
107	3HD2	2528.790	771.406	-2638.548	 H	7	LEU7	0.100	
108	   N	2527.946	777.824	-2638.605	N.am	8	ASP8	-0.516	
109	  CA	2527.876	779.173	-2639.159	C.3	8	ASP8	0.038	
110	   C	2529.224	779.852	-2639.103	C.2	8	ASP8	0.537	
111	   O	2529.697	780.456	-2640.078	O.2	8	ASP8	-0.582	
112	  CB	2526.799	780.013	-2638.418	C.3	8	ASP8	-0.030	
113	  CG	2526.581	781.433	-2638.960	C.2	8	ASP8	0.799	
114	 OD1	2526.645	781.632	-2640.191	O.co2	8	ASP8	-0.801	
115	 OD2	2526.389	782.360	-2638.145	O.co2	8	ASP8	-0.801	
116	   H	2527.348	777.553	-2637.838	 H	8	ASP8	0.294	
117	  HA	2527.594	779.095	-2640.227	 H	8	ASP8	0.088	
118	 2HB	2527.056	780.097	-2637.347	 H	8	ASP8	-0.012	
119	 3HB	2525.820	779.508	-2638.451	 H	8	ASP8	-0.012	
120	   N	2529.904	779.802	-2638.008	N.am	9	GLU9	-0.516	
121	  CA	2531.207	780.459	-2637.953	C.3	9	GLU9	0.040	
122	   C	2532.124	779.931	-2639.029	C.2	9	GLU9	0.537	
123	   O	2532.788	780.684	-2639.755	O.2	9	GLU9	-0.582	
124	  CB	2531.840	780.252	-2636.548	C.3	9	GLU9	0.056	
125	  CG	2533.223	780.944	-2636.319	C.3	9	GLU9	0.014	
126	  CD	2533.925	780.731	-2634.990	C.2	9	GLU9	0.805	
127	 OE1	2533.404	780.041	-2634.094	O.co2	9	GLU9	-0.819	
128	 OE2	2535.045	781.268	-2634.859	O.co2	9	GLU9	-0.819	
129	   H	2529.540	779.317	-2637.200	 H	9	GLU9	0.294	
130	  HA	2531.065	781.541	-2638.129	 H	9	GLU9	0.111	
131	 2HB	2531.953	779.168	-2636.344	 H	9	GLU9	-0.017	
132	 3HB	2531.144	780.606	-2635.763	 H	9	GLU9	-0.017	
133	 2HG	2533.152	782.035	-2636.459	 H	9	GLU9	-0.043	
134	 3HG	2533.970	780.598	-2637.053	 H	9	GLU9	-0.043	
135	   N	2532.220	778.655	-2639.198	N.am	10	HIS10	-0.416	
136	  CA	2533.107	778.143	-2640.238	C.3	10	HIS10	-0.058	
137	   C	2532.740	778.707	-2641.589	C.2	10	HIS10	0.597	
138	   O	2533.593	779.171	-2642.362	O.2	10	HIS10	-0.568	
139	  CB	2532.943	776.614	-2640.232	C.3	10	HIS10	-0.007	
140	  CG	2534.228	775.903	-2639.924	C.2	10	HIS10	0.187	
141	 CD2	2534.610	775.569	-2638.632	C.2	10	HIS10	-0.221	
142	 ND1	2535.180	775.497	-2640.857	N.2	10	HIS10	-0.543	
143	 CE1	2536.086	774.939	-2640.034	C.2	10	HIS10	0.163	
144	 NE2	2535.824	774.937	-2638.698	N.pl3	10	HIS10	-0.280	
145	   H	2531.689	778.021	-2638.619	 H	10	HIS10	0.272	
146	  HA	2534.127	778.500	-2640.014	 H	10	HIS10	0.136	
147	 2HB	2532.577	776.247	-2641.212	 H	10	HIS10	0.037	
148	 3HB	2532.187	776.278	-2639.492	 H	10	HIS10	0.037	
149	 2HD	2534.024	775.785	-2637.743	 H	10	HIS10	0.186	
150	 1HE	2536.977	774.517	-2640.481	 H	10	HIS10	0.144	
151	 2HE	2536.391	774.560	-2637.925	 H	10	HIS10	0.334	
152	   N	2531.503	778.707	-2641.952	N.am	11	VAL11	-0.416	
153	  CA	2531.147	779.252	-2643.259	C.3	11	VAL11	-0.087	
154	   C	2531.613	780.683	-2643.393	C.2	11	VAL11	0.597	
155	   O	2532.214	781.087	-2644.396	O.2	11	VAL11	-0.568	
156	  CB	2529.586	779.146	-2643.478	C.3	11	VAL11	0.299	
157	 CG1	2529.018	779.850	-2644.741	C.3	11	VAL11	-0.319	
158	 CG2	2529.061	777.693	-2643.550	C.3	11	VAL11	-0.319	
159	   H	2530.790	778.335	-2641.341	 H	11	VAL11	0.272	
160	  HA	2531.667	778.669	-2644.042	 H	11	VAL11	0.097	
161	  HB	2529.099	779.627	-2642.603	 H	11	VAL11	-0.030	
162	1HG1	2529.456	779.457	-2645.678	 H	11	VAL11	0.079	
163	2HG1	2527.919	779.743	-2644.823	 H	11	VAL11	0.079	
164	3HG1	2529.197	780.942	-2644.733	 H	11	VAL11	0.079	
165	1HG2	2529.351	777.106	-2642.659	 H	11	VAL11	0.079	
166	2HG2	2527.955	777.656	-2643.593	 H	11	VAL11	0.079	
167	3HG2	2529.442	777.151	-2644.437	 H	11	VAL11	0.079	
168	   N	2531.376	781.509	-2642.430	N.am	12	GLN12	-0.416	
169	  CA	2531.826	782.892	-2642.558	C.3	12	GLN12	-0.003	
170	   C	2533.315	782.958	-2642.797	C.2	12	GLN12	0.597	
171	   O	2533.803	783.666	-2643.676	O.2	12	GLN12	-0.568	
172	  CB	2531.435	783.660	-2641.276	C.3	12	GLN12	-0.004	
173	  CG	2531.797	785.182	-2641.246	C.3	12	GLN12	-0.064	
174	  CD	2531.495	785.996	-2639.981	C.2	12	GLN12	0.695	
175	 NE2	2530.928	785.420	-2638.952	N.pl3	12	GLN12	-0.941	
176	 OE1	2531.798	787.177	-2639.905	O.2	12	GLN12	-0.609	
177	   H	2530.888	781.203	-2641.601	 H	12	GLN12	0.272	
178	  HA	2531.326	783.348	-2643.434	 H	12	GLN12	0.085	
179	 2HB	2531.911	783.160	-2640.406	 H	12	GLN12	0.017	
180	 3HB	2530.345	783.553	-2641.113	 H	12	GLN12	0.017	
181	 2HG	2531.319	785.702	-2642.097	 H	12	GLN12	0.035	
182	 3HG	2532.880	785.323	-2641.412	 H	12	GLN12	0.035	
183	1HE2	2530.822	786.015	-2638.129	 H	12	GLN12	0.425	
184	2HE2	2530.764	784.417	-2639.055	 H	12	GLN12	0.425	
185	   N	2534.100	782.251	-2642.055	N.am	13	ARG13	-0.348	
186	  CA	2535.540	782.316	-2642.287	C.3	13	ARG13	-0.264	
187	   C	2535.876	781.944	-2643.711	C.2	13	ARG13	0.734	
188	   O	2536.645	782.615	-2644.396	O.2	13	ARG13	-0.589	
189	  CB	2536.253	781.378	-2641.272	C.3	13	ARG13	-0.001	
190	  CG	2537.799	781.531	-2641.192	C.3	13	ARG13	0.039	
191	  CD	2538.426	780.544	-2640.194	C.3	13	ARG13	0.049	
192	  NE	2539.903	780.750	-2640.144	N.pl3	13	ARG13	-0.530	
193	  CZ	2540.751	780.059	-2639.388	C.cat	13	ARG13	0.808	
194	 NH1	2540.386	779.096	-2638.590	N.pl3	13	ARG13	-0.863	
195	 NH2	2542.010	780.358	-2639.446	N.pl3	13	ARG13	-0.863	
196	   H	2533.724	781.662	-2641.326	 H	13	ARG13	0.275	
197	  HA	2535.865	783.362	-2642.129	 H	13	ARG13	0.156	
198	 2HB	2535.987	780.328	-2641.510	 H	13	ARG13	0.033	
199	 3HB	2535.829	781.545	-2640.262	 H	13	ARG13	0.033	
200	 2HG	2538.047	782.576	-2640.913	 H	13	ARG13	0.029	
201	 3HG	2538.249	781.374	-2642.193	 H	13	ARG13	0.029	
202	 2HD	2538.181	779.503	-2640.502	 H	13	ARG13	0.069	
203	 3HD	2537.970	780.690	-2639.191	 H	13	ARG13	0.069	
204	  HE	2540.354	781.472	-2640.715	 H	13	ARG13	0.346	
205	1HH1	2539.380	778.910	-2638.593	 H	13	ARG13	0.448	
206	2HH1	2541.099	778.613	-2638.041	 H	13	ARG13	0.448	
207	1HH2	2542.278	781.115	-2640.077	 H	13	ARG13	0.448	
208	2HH2	2542.646	779.817	-2638.857	 H	13	ARG13	0.448	
209	   N	2535.339	780.889	-2644.225	N.am	14	VAL14	-0.416	
210	  CA	2535.664	780.529	-2645.603	C.3	14	VAL14	-0.087	
211	   C	2535.334	781.659	-2646.549	C.2	14	VAL14	0.597	
212	   O	2536.127	782.040	-2647.418	O.2	14	VAL14	-0.568	
213	  CB	2534.891	779.212	-2646.009	C.3	14	VAL14	0.299	
214	 CG1	2534.979	778.793	-2647.502	C.3	14	VAL14	-0.319	
215	 CG2	2535.323	777.960	-2645.208	C.3	14	VAL14	-0.319	
216	   H	2534.704	780.321	-2643.683	 H	14	VAL14	0.272	
217	  HA	2536.752	780.352	-2645.677	 H	14	VAL14	0.097	
218	  HB	2533.815	779.384	-2645.792	 H	14	VAL14	-0.030	
219	1HG1	2536.021	778.615	-2647.831	 H	14	VAL14	0.079	
220	2HG1	2534.406	777.870	-2647.714	 H	14	VAL14	0.079	
221	3HG1	2534.551	779.555	-2648.180	 H	14	VAL14	0.079	
222	1HG2	2535.236	778.119	-2644.117	 H	14	VAL14	0.079	
223	2HG2	2534.686	777.084	-2645.439	 H	14	VAL14	0.079	
224	3HG2	2536.370	777.670	-2645.413	 H	14	VAL14	0.079	
225	   N	2534.189	782.245	-2646.447	N.am	15	MET15	-0.416	
226	  CA	2533.869	783.337	-2647.361	C.3	15	MET15	-0.024	
227	   C	2534.899	784.437	-2647.273	C.2	15	MET15	0.597	
228	   O	2535.402	784.948	-2648.286	O.2	15	MET15	-0.568	
229	  CB	2532.448	783.883	-2647.052	C.3	15	MET15	0.034	
230	  CG	2531.285	782.885	-2647.243	C.3	15	MET15	0.002	
231	  SD	2529.712	783.752	-2647.128	S.3	15	MET15	-0.274	
232	  CE	2528.631	782.322	-2646.991	C.3	15	MET15	-0.054	
233	   H	2533.524	781.952	-2645.745	 H	15	MET15	0.272	
234	  HA	2533.895	782.950	-2648.396	 H	15	MET15	0.088	
235	 2HB	2532.245	784.762	-2647.694	 H	15	MET15	0.024	
236	 3HB	2532.412	784.276	-2646.015	 H	15	MET15	0.024	
237	 2HG	2531.329	782.100	-2646.465	 H	15	MET15	0.044	
238	 3HG	2531.348	782.370	-2648.219	 H	15	MET15	0.044	
239	 1HE	2528.774	781.634	-2647.843	 H	15	MET15	0.068	
240	 2HE	2528.840	781.770	-2646.058	 H	15	MET15	0.068	
241	 3HE	2527.573	782.637	-2646.974	 H	15	MET15	0.068	
242	   N	2535.268	784.859	-2646.111	N.am	16	VAL16	-0.416	
243	  CA	2536.265	785.923	-2646.028	C.3	16	VAL16	-0.087	
244	   C	2537.536	785.530	-2646.743	C.2	16	VAL16	0.597	
245	   O	2537.660	784.437	-2647.310	O.2	16	VAL16	-0.568	
246	  CB	2536.556	786.267	-2644.513	C.3	16	VAL16	0.299	
247	 CG1	2537.729	787.249	-2644.242	C.3	16	VAL16	-0.319	
248	 CG2	2535.343	786.863	-2643.761	C.3	16	VAL16	-0.319	
249	   H	2534.874	784.459	-2645.272	 H	16	VAL16	0.272	
250	  HA	2535.871	786.821	-2646.537	 H	16	VAL16	0.097	
251	  HB	2536.820	785.314	-2644.006	 H	16	VAL16	-0.030	
252	1HG1	2537.577	788.232	-2644.725	 H	16	VAL16	0.079	
253	2HG1	2537.881	787.434	-2643.161	 H	16	VAL16	0.079	
254	3HG1	2538.699	786.857	-2644.602	 H	16	VAL16	0.079	
255	1HG2	2534.455	786.208	-2643.828	 H	16	VAL16	0.079	
256	2HG2	2535.548	786.988	-2642.681	 H	16	VAL16	0.079	
257	3HG2	2535.049	787.854	-2644.157	 H	16	VAL16	0.079	
@<TRIPOS>BOND
1 1 2 1
2 1 10 1
3 2 3 1
4 2 5 1
5 2 11 1
6 3 4 2
7 3 16 1
8 5 6 1
9 6 7 1
10 7 8 2
11 7 9 1
12 5 12 1
13 5 13 1
14 6 14 1
15 6 15 1
16 16 17 1
17 16 24 1
18 17 18 1
19 17 20 1
20 17 25 1
21 18 19 2
22 18 30 1
23 20 21 1
24 21 22 1
25 21 23 2
26 20 26 1
27 20 27 1
28 22 28 1
29 22 29 1
30 30 31 1
31 30 36 1
32 31 32 1
33 31 34 1
34 31 37 1
35 32 33 2
36 32 44 1
37 34 35 1
38 35 36 1
39 34 38 1
40 34 39 1
41 35 40 1
42 35 41 1
43 36 42 1
44 36 43 1
45 44 45 1
46 44 53 1
47 45 46 1
48 45 48 1
49 45 54 1
50 46 47 2
51 46 59 1
52 48 49 1
53 49 50 1
54 50 51 2
55 50 52 1
56 48 55 1
57 48 56 1
58 49 57 1
59 49 58 1
60 59 60 1
61 59 65 1
62 60 61 1
63 60 63 1
64 60 66 1
65 61 62 2
66 61 70 1
67 63 64 1
68 63 67 1
69 63 68 1
70 64 69 1
71 70 71 1
72 70 78 1
73 71 72 1
74 71 74 1
75 71 79 1
76 72 73 2
77 72 89 1
78 74 75 1
79 74 76 1
80 75 77 1
81 74 80 1
82 75 81 1
83 75 82 1
84 76 83 1
85 76 84 1
86 76 85 1
87 77 86 1
88 77 87 1
89 77 88 1
90 89 90 1
91 89 97 1
92 90 91 1
93 90 93 1
94 90 98 1
95 91 92 2
96 91 108 1
97 93 94 1
98 94 95 1
99 94 96 1
100 93 99 1
101 93 100 1
102 94 101 1
103 95 102 1
104 95 103 1
105 95 104 1
106 96 105 1
107 96 106 1
108 96 107 1
109 108 109 1
110 108 116 1
111 109 110 1
112 109 112 1
113 109 117 1
114 110 111 2
115 110 120 1
116 112 113 1
117 113 114 2
118 113 115 1
119 112 118 1
120 112 119 1
121 120 121 1
122 120 129 1
123 121 122 1
124 121 124 1
125 121 130 1
126 122 123 2
127 122 135 1
128 124 125 1
129 125 126 1
130 126 127 2
131 126 128 1
132 124 131 1
133 124 132 1
134 125 133 1
135 125 134 1
136 135 136 1
137 135 145 1
138 136 137 1
139 136 139 1
140 136 146 1
141 137 138 2
142 137 152 1
143 139 140 1
144 140 141 2
145 141 144 1
146 140 142 1
147 142 143 2
148 143 144 1
149 139 147 1
150 139 148 1
151 141 149 1
152 143 150 1
153 144 151 1
154 152 153 1
155 152 159 1
156 153 154 1
157 153 156 1
158 153 160 1
159 154 155 2
160 154 168 1
161 156 157 1
162 156 158 1
163 156 161 1
164 157 162 1
165 157 163 1
166 157 164 1
167 158 165 1
168 158 166 1
169 158 167 1
170 168 169 1
171 168 177 1
172 169 170 1
173 169 172 1
174 169 178 1
175 170 171 2
176 170 185 1
177 172 173 1
178 173 174 1
179 174 175 1
180 174 176 2
181 172 179 1
182 172 180 1
183 173 181 1
184 173 182 1
185 175 183 1
186 175 184 1
187 185 186 1
188 185 196 1
189 186 187 1
190 186 189 1
191 186 197 1
192 187 188 2
193 187 209 1
194 189 190 1
195 190 191 1
196 191 192 1
197 192 193 1
198 193 194 2
199 193 195 1
200 189 198 1
201 189 199 1
202 190 200 1
203 190 201 1
204 191 202 1
205 191 203 1
206 192 204 1
207 194 205 1
208 194 206 1
209 195 207 1
210 195 208 1
211 209 210 1
212 209 216 1
213 210 211 1
214 210 213 1
215 210 217 1
216 211 212 2
217 211 225 1
218 213 214 1
219 213 215 1
220 213 218 1
221 214 219 1
222 214 220 1
223 214 221 1
224 215 222 1
225 215 223 1
226 215 224 1
227 225 226 1
228 225 233 1
229 226 227 1
230 226 229 1
231 226 234 1
232 227 228 2
233 227 242 1
234 229 230 1
235 230 231 1
236 231 232 1
237 229 235 1
238 229 236 1
239 230 237 1
240 230 238 1
241 232 239 1
242 232 240 1
243 232 241 1
244 242 243 1
245 242 249 1
246 243 244 1
247 243 246 1
248 243 250 1
249 244 245 2
250 246 247 1
251 246 248 1
252 246 251 1
253 247 252 1
254 247 253 1
255 247 254 1
256 248 255 1
257 248 256 1
258 248 257 1
@<TRIPOS>SUBSTRUCTURE
1	GLU1	1	RESIDUE	1 ****	GLU
2	ASN2	16	RESIDUE	1 ****	ASN
3	PRO3	30	RESIDUE	1 ****	PRO
4	GLU4	44	RESIDUE	1 ****	GLU
5	SER5	59	RESIDUE	1 ****	SER
6	ILE6	70	RESIDUE	1 ****	ILE
7	LEU7	89	RESIDUE	1 ****	LEU
8	ASP8	108	RESIDUE	1 ****	ASP
9	GLU9	120	RESIDUE	1 ****	GLU
10	HIS10	135	RESIDUE	1 ****	HIS
11	VAL11	152	RESIDUE	1 ****	VAL
12	GLN12	168	RESIDUE	1 ****	GLN
13	ARG13	185	RESIDUE	1 ****	ARG
14	VAL14	209	RESIDUE	1 ****	VAL
15	MET15	225	RESIDUE	1 ****	MET
16	VAL16	242	RESIDUE	1 ****	VAL
