REMARK WARNING: 32 MAX_TORS EXCEEDED!!!
REMARK  69 active torsions:
REMARK  status: ('A' for Active; 'I' for Inactive)
REMARK    1  A    between atoms: N_1  and  CA_2 
REMARK    2  A    between atoms: CA_2  and  C_3 
REMARK    3  A    between atoms: CA_2  and  CB_5 
REMARK       I    between atoms: C_3  and  N_11 
REMARK    4  A    between atoms: CB_5  and  CG_6 
REMARK    5  A    between atoms: CG_6  and  CD_7 
REMARK    6  A    between atoms: N_11  and  CA_12 
REMARK    7  A    between atoms: CA_12  and  C_13 
REMARK    8  A    between atoms: CA_12  and  CB_15 
REMARK       I    between atoms: C_13  and  N_22 
REMARK    9  A    between atoms: CB_15  and  CG_16 
REMARK       I    between atoms: CG_16  and  ND2_17 
REMARK   10  A    between atoms: CA_23  and  C_24 
REMARK       I    between atoms: C_24  and  N_29 
REMARK   11  A    between atoms: N_29  and  CA_30 
REMARK   12  A    between atoms: CA_30  and  C_31 
REMARK   13  A    between atoms: CA_30  and  CB_33 
REMARK       I    between atoms: C_31  and  N_39 
REMARK   14  A    between atoms: CB_33  and  CG_34 
REMARK   15  A    between atoms: CG_34  and  CD_35 
REMARK   16  A    between atoms: N_39  and  CA_40 
REMARK   17  A    between atoms: CA_40  and  C_41 
REMARK   18  A    between atoms: CA_40  and  CB_43 
REMARK       I    between atoms: C_41  and  N_47 
REMARK   19  A    between atoms: CB_43  and  OG_44 
REMARK   20  A    between atoms: N_47  and  CA_48 
REMARK   21  A    between atoms: CA_48  and  C_49 
REMARK   22  A    between atoms: CA_48  and  CB_51 
REMARK       I    between atoms: C_49  and  N_56 
REMARK   23  A    between atoms: CB_51  and  CG1_52 
REMARK   24  A    between atoms: N_56  and  CA_57 
REMARK   25  A    between atoms: CA_57  and  C_58 
REMARK   26  A    between atoms: CA_57  and  CB_60 
REMARK       I    between atoms: C_58  and  N_65 
REMARK   27  A    between atoms: CB_60  and  CG_61 
REMARK   28  A    between atoms: N_65  and  CA_66 
REMARK   29  A    between atoms: CA_66  and  C_67 
REMARK   30  A    between atoms: CA_66  and  CB_69 
REMARK       I    between atoms: C_67  and  N_75 
REMARK   31  A    between atoms: CB_69  and  CG_70 
REMARK   32  A    between atoms: CG_70  and  CD_71 
REMARK   33  A    between atoms: N_75  and  CA_76 
REMARK   34  A    between atoms: CA_76  and  C_77 
REMARK   35  A    between atoms: CA_76  and  CB_79 
REMARK       I    between atoms: C_77  and  N_85 
REMARK   36  A    between atoms: CB_79  and  CG_80 
REMARK   37  A    between atoms: CG_80  and  CD_81 
REMARK   38  A    between atoms: N_85  and  CA_86 
REMARK   39  A    between atoms: CA_86  and  C_87 
REMARK   40  A    between atoms: CA_86  and  CB_89 
REMARK       I    between atoms: C_87  and  N_97 
REMARK   41  A    between atoms: CB_89  and  CG_90 
REMARK   42  A    between atoms: N_97  and  CA_98 
REMARK   43  A    between atoms: CA_98  and  C_99 
REMARK   44  A    between atoms: CA_98  and  CB_101 
REMARK       I    between atoms: C_99  and  N_105 
REMARK   45  A    between atoms: N_105  and  CA_106 
REMARK   46  A    between atoms: CA_106  and  C_107 
REMARK   47  A    between atoms: CA_106  and  CB_109 
REMARK       I    between atoms: C_107  and  N_117 
REMARK   48  A    between atoms: CB_109  and  CG_110 
REMARK   49  A    between atoms: CG_110  and  CD_111 
REMARK       I    between atoms: CD_111  and  NE2_112 
REMARK   50  A    between atoms: N_117  and  CA_118 
REMARK   51  A    between atoms: CA_118  and  C_119 
REMARK   52  A    between atoms: CA_118  and  CB_121 
REMARK       I    between atoms: C_119  and  N_134 
REMARK   53  A    between atoms: CB_121  and  CG_122 
REMARK   54  A    between atoms: CG_122  and  CD_123 
REMARK   55  A    between atoms: CD_123  and  NE_124 
REMARK       I    between atoms: NE_124  and  CZ_125 
REMARK       I    between atoms: CZ_125  and  NH1_126 
REMARK       I    between atoms: CZ_125  and  NH2_127 
REMARK   56  A    between atoms: N_134  and  CA_135 
REMARK   57  A    between atoms: CA_135  and  C_136 
REMARK   58  A    between atoms: CA_135  and  CB_138 
REMARK       I    between atoms: C_136  and  N_142 
REMARK   59  A    between atoms: N_142  and  CA_143 
REMARK   60  A    between atoms: CA_143  and  C_144 
REMARK   61  A    between atoms: CA_143  and  CB_146 
REMARK       I    between atoms: C_144  and  N_151 
REMARK   62  A    between atoms: CB_146  and  CG_147 
REMARK   63  A    between atoms: CG_147  and  SD_148 
REMARK   64  A    between atoms: N_151  and  CA_152 
REMARK   65  A    between atoms: CA_152  and  C_153 
REMARK   66  A    between atoms: CA_152  and  CB_155 
REMARK   67  A    between atoms: CB_155  and  CG_156 
REMARK   68  A    between atoms: CG_156  and  CD_157 
REMARK   69  A    between atoms: CD_157  and  NE_158 
REMARK       I    between atoms: NE_158  and  CZ_159 
REMARK       I    between atoms: CZ_159  and  NH1_160 
ROOT
ATOM      1  C   GLU d   9    1338.759 392.367-1341.806  0.00  0.00     0.241 C 
ATOM      2  O   GLU d   9    1339.424 393.122-1342.531  0.00  0.00    -0.271 OA
ATOM      3  N   HIS d  10    1338.855 391.092-1341.977  0.00  0.00    -0.346 N 
ATOM      4  H   HIS d  10    1338.324 390.456-1341.399  0.00  0.00     0.163 HD
ENDROOT
BRANCH   1   5
ATOM      5  CA  GLU d   9    1337.841 392.895-1340.731  0.00  0.00     0.177 C 
BRANCH   5   6
ATOM      6  N   GLU d   9    1336.538 392.238-1340.787  0.00  0.00    -0.346 N 
ATOM      7  C   GLU d   8    1335.859 392.289-1341.882  0.00  0.00     0.241 C 
ATOM      8  O   GLU d   8    1336.332 392.894-1342.855  0.00  0.00    -0.271 OA
ATOM      9  H   GLU d   9    1336.174 391.751-1339.980  0.00  0.00     0.163 HD
BRANCH   7  10
ATOM     10  CA  GLU d   8    1334.512 391.610-1341.940  0.00  0.00     0.177 C 
BRANCH  10  11
ATOM     11  N   GLU d   8    1334.582 390.260-1341.387  0.00  0.00    -0.346 N 
ATOM     12  C   LEU d   7    1335.419 389.420-1341.894  0.00  0.00     0.241 C 
ATOM     13  O   LEU d   7    1336.140 389.783-1342.836  0.00  0.00    -0.271 OA
ATOM     14  H   GLU d   8    1333.984 389.989-1340.620  0.00  0.00     0.163 HD
BRANCH  12  15
ATOM     15  CA  LEU d   7    1335.492 388.024-1341.322  0.00  0.00     0.177 C 
BRANCH  15  16
ATOM     16  N   LEU d   7    1335.547 388.060-1339.863  0.00  0.00    -0.346 N 
ATOM     17  C   ILE d   6    1336.493 388.724-1339.290  0.00  0.00     0.241 C 
ATOM     18  O   ILE d   6    1337.328 389.311-1339.994  0.00  0.00    -0.271 OA
ATOM     19  H   LEU d   7    1334.855 387.573-1339.312  0.00  0.00     0.163 HD
BRANCH  17  20
ATOM     20  CA  ILE d   6    1336.550 388.761-1337.782  0.00  0.00     0.180 C 
BRANCH  20  21
ATOM     21  N   ILE d   6    1335.237 389.056-1337.215  0.00  0.00    -0.346 N 
ATOM     22  C   SER d   5    1334.632 390.139-1337.569  0.00  0.00     0.243 C 
ATOM     23  O   SER d   5    1335.179 390.892-1338.374  0.00  0.00    -0.271 OA
ATOM     24  H   ILE d   6    1334.809 388.421-1336.556  0.00  0.00     0.163 HD
BRANCH  22  25
ATOM     25  CA  SER d   5    1333.274 390.444-1336.984  0.00  0.00     0.200 C 
BRANCH  25  26
ATOM     26  N   SER d   5    1332.404 389.273-1337.042  0.00  0.00    -0.344 N 
ATOM     27  C   GLU d   4    1332.177 388.720-1338.185  0.00  0.00     0.241 C 
ATOM     28  O   GLU d   4    1332.703 389.200-1339.200  0.00  0.00    -0.271 OA
ATOM     29  H   SER d   5    1331.987 388.901-1336.200  0.00  0.00     0.163 HD
BRANCH  27  30
ATOM     30  CA  GLU d   4    1331.278 387.509-1338.246  0.00  0.00     0.177 C 
BRANCH  30  31
ATOM     31  N   GLU d   4    1331.638 386.538-1337.217  0.00  0.00    -0.346 N 
ATOM     32  C   PRO d   3    1332.842 386.078-1337.184  0.00  0.00     0.241 C 
ATOM     33  O   PRO d   3    1333.666 386.461-1338.016  0.00  0.00    -0.271 OA
ATOM     34  H   GLU d   4    1330.953 386.231-1336.540  0.00  0.00     0.163 HD
BRANCH  32  35
ATOM     35  CA  PRO d   3    1333.240 385.054-1336.108  0.00  0.00     0.179 C 
ATOM     36  N   PRO d   3    1332.789 385.464-1334.786  0.00  0.00    -0.337 N 
ATOM     37  C   ASN d   2    1333.310 386.459-1334.152  0.00  0.00     0.243 C 
ATOM     38  CD  PRO d   3    1331.711 384.670-1334.237  0.00  0.00     0.127 C 
ATOM     39  O   ASN d   2    1334.225 387.089-1334.681  0.00  0.00    -0.271 OA
ATOM     40  CG  PRO d   3    1331.253 383.852-1335.447  0.00  0.00     0.022 C 
ATOM     41  CB  PRO d   3    1332.536 383.699-1336.277  0.00  0.00     0.037 C 
BRANCH  37  42
ATOM     42  CA  ASN d   2    1332.779 386.814-1332.783  0.00  0.00     0.185 C 
BRANCH  42  43
ATOM     43  N   ASN d   2    1331.320 386.853-1332.783  0.00  0.00    -0.346 N 
ATOM     44  C   GLU d   1    1330.715 387.639-1333.608  0.00  0.00     0.242 C 
ATOM     45  O   GLU d   1    1331.391 388.338-1334.377  0.00  0.00    -0.271 OA
ATOM     46  H   ASN d   2    1330.792 386.273-1332.147  0.00  0.00     0.163 HD
BRANCH  44  47
ATOM     47  CA  GLU d   1    1329.206 387.679-1333.608  0.00  0.00     0.191 C 
BRANCH  47  48
ATOM     48  N   GLU d   1    1328.647 386.330-1333.608  0.00  0.00    -0.326 NA
ATOM     49  H   GLU d   1    1329.274 385.451-1333.608  0.00  0.00     0.180 HD
ENDBRANCH  47  48
BRANCH  47  50
ATOM     50  CB  GLU d   1    1328.683 388.464-1332.371  0.00  0.00     0.047 C 
BRANCH  50  51
ATOM     51  CG  GLU d   1    1329.158 389.949-1332.260  0.00  0.00     0.116 C 
BRANCH  51  52
ATOM     52  CD  GLU d   1    1328.734 390.753-1331.045  0.00  0.00     0.172 C 
ATOM     53  OE1 GLU d   1    1328.006 390.251-1330.167  0.00  0.00    -0.648 OA
ATOM     54  OE2 GLU d   1    1329.164 391.923-1330.973  0.00  0.00    -0.648 OA
ENDBRANCH  51  52
ENDBRANCH  50  51
ENDBRANCH  47  50
ENDBRANCH  44  47
ENDBRANCH  42  43
BRANCH  42  55
ATOM     55  CB  ASN d   2    1333.271 385.791-1331.719  0.00  0.00     0.137 C 
BRANCH  55  56
ATOM     56  CG  ASN d   2    1332.808 386.015-1330.276  0.00  0.00     0.217 C 
ATOM     57  ND2 ASN d   2    1333.402 386.930-1329.557  0.00  0.00    -0.370 N 
ATOM     58 21HD ASN d   2    1332.922 387.103-1328.671  0.00  0.00     0.159 HD
ATOM     59 22HD ASN d   2    1334.104 387.502-1330.027  0.00  0.00     0.159 HD
ATOM     60  OD1 ASN d   2    1331.887 385.381-1329.781  0.00  0.00    -0.274 OA
ENDBRANCH  55  56
ENDBRANCH  42  55
ENDBRANCH  37  42
ENDBRANCH  32  35
ENDBRANCH  30  31
BRANCH  30  61
ATOM     61  CB  GLU d   4    1329.789 387.927-1338.076  0.00  0.00     0.045 C 
BRANCH  61  62
ATOM     62  CG  GLU d   4    1329.241 388.931-1339.141  0.00  0.00     0.116 C 
BRANCH  62  63
ATOM     63  CD  GLU d   4    1327.814 389.428-1338.997  0.00  0.00     0.172 C 
ATOM     64  OE1 GLU d   4    1327.088 389.029-1338.066  0.00  0.00    -0.648 OA
ATOM     65  OE2 GLU d   4    1327.425 390.257-1339.846  0.00  0.00    -0.648 OA
ENDBRANCH  62  63
ENDBRANCH  61  62
ENDBRANCH  30  61
ENDBRANCH  27  30
ENDBRANCH  25  26
BRANCH  25  66
ATOM     66  CB  SER d   5    1333.385 390.976-1335.533  0.00  0.00     0.199 C 
BRANCH  66  67
ATOM     67  OG  SER d   5    1334.117 390.097-1334.672  0.00  0.00    -0.398 OA
ATOM     68  HG  SER d   5    1333.628 389.272-1334.621  0.00  0.00     0.209 HD
ENDBRANCH  66  67
ENDBRANCH  25  66
ENDBRANCH  22  25
ENDBRANCH  20  21
BRANCH  20  69
ATOM     69  CB  ILE d   6    1337.150 387.425-1337.182  0.00  0.00     0.013 C 
ATOM     70  CG2 ILE d   6    1338.591 387.123-1337.697  0.00  0.00     0.012 C 
BRANCH  69  71
ATOM     71  CG1 ILE d   6    1337.170 387.362-1335.621  0.00  0.00     0.002 C 
ATOM     72  CD1 ILE d   6    1337.440 385.973-1335.006  0.00  0.00     0.005 C 
ENDBRANCH  69  71
ENDBRANCH  20  69
ENDBRANCH  17  20
ENDBRANCH  15  16
BRANCH  15  73
ATOM     73  CB  LEU d   7    1334.289 387.164-1341.802  0.00  0.00     0.038 C 
BRANCH  73  74
ATOM     74  CG  LEU d   7    1334.216 385.685-1341.336  0.00  0.00    -0.020 C 
ATOM     75  CD1 LEU d   7    1333.026 384.979-1342.001  0.00  0.00     0.009 C 
ATOM     76  CD2 LEU d   7    1335.510 384.905-1341.628  0.00  0.00     0.009 C 
ENDBRANCH  73  74
ENDBRANCH  15  73
ENDBRANCH  12  15
ENDBRANCH  10  11
BRANCH  10  77
ATOM     77  CB  GLU d   8    1333.450 392.441-1341.163  0.00  0.00     0.045 C 
BRANCH  77  78
ATOM     78  CG  GLU d   8    1333.225 393.900-1341.675  0.00  0.00     0.116 C 
BRANCH  78  79
ATOM     79  CD  GLU d   8    1332.248 394.785-1340.924  0.00  0.00     0.172 C 
ATOM     80  OE1 GLU d   8    1331.622 394.354-1339.936  0.00  0.00    -0.648 OA
ATOM     81  OE2 GLU d   8    1332.122 395.956-1341.340  0.00  0.00    -0.648 OA
ENDBRANCH  78  79
ENDBRANCH  77  78
ENDBRANCH  10  77
ENDBRANCH   7  10
ENDBRANCH   5   6
BRANCH   5  82
ATOM     82  CB  GLU d   9    1338.474 392.686-1339.325  0.00  0.00     0.045 C 
BRANCH  82  83
ATOM     83  CG  GLU d   9    1339.857 393.377-1339.095  0.00  0.00     0.116 C 
BRANCH  83  84
ATOM     84  CD  GLU d   9    1340.558 393.163-1337.766  0.00  0.00     0.172 C 
ATOM     85  OE1 GLU d   9    1340.036 392.472-1336.871  0.00  0.00    -0.648 OA
ATOM     86  OE2 GLU d   9    1341.677 393.700-1337.634  0.00  0.00    -0.648 OA
ENDBRANCH  83  84
ENDBRANCH  82  83
ENDBRANCH   5  82
ENDBRANCH   1   5
BRANCH   3  87
ATOM     87  CA  HIS d  10    1339.744 390.581-1343.017  0.00  0.00     0.182 C 
BRANCH  87  88
ATOM     88  C   HIS d  10    1339.378 391.147-1344.368  0.00  0.00     0.241 C 
ATOM     89  O   HIS d  10    1340.230 391.613-1345.139  0.00  0.00    -0.271 OA
ATOM     90  N   VAL d  11    1338.140 391.147-1344.731  0.00  0.00    -0.346 N 
ATOM     91  H   VAL d  11    1337.427 390.774-1344.121  0.00  0.00     0.163 HD
BRANCH  90  92
ATOM     92  CA  VAL d  11    1337.785 391.694-1346.038  0.00  0.00     0.180 C 
BRANCH  92  93
ATOM     93  C   VAL d  11    1338.250 393.125-1346.169  0.00  0.00     0.241 C 
ATOM     94  O   VAL d  11    1338.851 393.531-1347.171  0.00  0.00    -0.271 OA
ATOM     95  N   GLN d  12    1338.012 393.949-1345.206  0.00  0.00    -0.346 N 
ATOM     96  H   GLN d  12    1337.523 393.643-1344.377  0.00  0.00     0.163 HD
BRANCH  95  97
ATOM     97  CA  GLN d  12    1338.461 395.333-1345.331  0.00  0.00     0.177 C 
BRANCH  97  98
ATOM     98  C   GLN d  12    1339.951 395.400-1345.568  0.00  0.00     0.241 C 
ATOM     99  O   GLN d  12    1340.438 396.110-1346.446  0.00  0.00    -0.271 OA
ATOM    100  N   ARG d  13    1340.735 394.693-1344.828  0.00  0.00    -0.346 N 
ATOM    101  H   ARG d  13    1340.359 394.102-1344.100  0.00  0.00     0.163 HD
BRANCH 100 102
ATOM    102  CA  ARG d  13    1342.175 394.759-1345.058  0.00  0.00     0.176 C 
BRANCH 102 103
ATOM    103  C   ARG d  13    1342.512 394.389-1346.483  0.00  0.00     0.241 C 
ATOM    104  O   ARG d  13    1343.281 395.061-1347.166  0.00  0.00    -0.271 OA
ATOM    105  N   VAL d  14    1341.976 393.335-1346.998  0.00  0.00    -0.346 N 
ATOM    106  H   VAL d  14    1341.341 392.766-1346.457  0.00  0.00     0.163 HD
BRANCH 105 107
ATOM    107  CA  VAL d  14    1342.302 392.977-1348.376  0.00  0.00     0.180 C 
BRANCH 107 108
ATOM    108  C   VAL d  14    1341.972 394.108-1349.321  0.00  0.00     0.241 C 
ATOM    109  O   VAL d  14    1342.766 394.490-1350.190  0.00  0.00    -0.271 OA
ATOM    110  N   MET d  15    1340.827 394.694-1349.219  0.00  0.00    -0.346 N 
ATOM    111  H   MET d  15    1340.162 394.400-1348.518  0.00  0.00     0.163 HD
BRANCH 110 112
ATOM    112  CA  MET d  15    1340.507 395.787-1350.132  0.00  0.00     0.177 C 
BRANCH 112 113
ATOM    113  C   MET d  15    1341.537 396.887-1350.043  0.00  0.00     0.241 C 
ATOM    114  O   MET d  15    1342.040 397.399-1351.054  0.00  0.00    -0.271 OA
ATOM    115  N   ARG d  16    1341.906 397.307-1348.880  0.00  0.00    -0.347 N 
ATOM    116  H   ARG d  16    1341.511 396.906-1348.041  0.00  0.00     0.163 HD
BRANCH 115 117
ATOM    117  CA  ARG d  16    1342.902 398.370-1348.795  0.00  0.00     0.162 C 
BRANCH 117 118
ATOM    118  C   ARG d  16    1344.173 397.978-1349.511  0.00  0.00     0.219 C 
ATOM    119  O   ARG d  16    1344.287 396.903-1350.094  0.00  0.00    -0.287 OA
ENDBRANCH 117 118
BRANCH 117 120
ATOM    120  CB  ARG d  16    1343.171 398.687-1347.296  0.00  0.00     0.035 C 
BRANCH 120 121
ATOM    121  CG  ARG d  16    1343.996 399.975-1347.021  0.00  0.00     0.023 C 
BRANCH 121 122
ATOM    122  CD  ARG d  16    1344.245 400.193-1345.520  0.00  0.00     0.138 C 
BRANCH 122 123
ATOM    123  NE  ARG d  16    1345.021 401.452-1345.317  0.00  0.00    -0.227 N 
ATOM    124  CZ  ARG d  16    1345.412 401.932-1344.141  0.00  0.00     0.665 C 
ATOM    125  NH1 ARG d  16    1345.164 401.347-1343.003  0.00  0.00    -0.235 N 
ATOM    126  NH2 ARG d  16    1346.076 403.045-1344.121  0.00  0.00    -0.235 N 
ATOM    127 11HH ARG d  16    1344.639 400.474-1343.089  0.00  0.00     0.174 HD
ATOM    128 12HH ARG d  16    1345.499 401.781-1342.141  0.00  0.00     0.174 HD
ATOM    129 21HH ARG d  16    1346.262 403.489-1345.022  0.00  0.00     0.174 HD
ATOM    130 22HH ARG d  16    1346.366 403.399-1343.208  0.00  0.00     0.174 HD
ATOM    131  HE  ARG d  16    1345.300 402.034-1346.114  0.00  0.00     0.177 HD
ENDBRANCH 122 123
ENDBRANCH 121 122
ENDBRANCH 120 121
ENDBRANCH 117 120
ENDBRANCH 115 117
ENDBRANCH 112 113
BRANCH 112 132
ATOM    132  CB  MET d  15    1339.086 396.333-1349.823  0.00  0.00     0.045 C 
BRANCH 132 133
ATOM    133  CG  MET d  15    1337.924 395.335-1350.016  0.00  0.00     0.076 C 
BRANCH 133 134
ATOM    134  SD  MET d  15    1336.350 396.201-1349.901  0.00  0.00    -0.173 SA
ATOM    135  CE  MET d  15    1335.268 394.771-1349.766  0.00  0.00     0.089 C 
ENDBRANCH 133 134
ENDBRANCH 132 133
ENDBRANCH 112 132
ENDBRANCH 110 112
ENDBRANCH 107 108
BRANCH 107 136
ATOM    136  CB  VAL d  14    1341.530 391.660-1348.784  0.00  0.00     0.009 C 
ATOM    137  CG1 VAL d  14    1341.619 391.243-1350.278  0.00  0.00     0.012 C 
ATOM    138  CG2 VAL d  14    1341.961 390.407-1347.985  0.00  0.00     0.012 C 
ENDBRANCH 107 136
ENDBRANCH 105 107
ENDBRANCH 102 103
BRANCH 102 139
ATOM    139  CB  ARG d  13    1342.888 393.819-1344.044  0.00  0.00     0.036 C 
BRANCH 139 140
ATOM    140  CG  ARG d  13    1344.433 393.972-1343.963  0.00  0.00     0.023 C 
BRANCH 140 141
ATOM    141  CD  ARG d  13    1345.060 392.983-1342.966  0.00  0.00     0.138 C 
BRANCH 141 142
ATOM    142  NE  ARG d  13    1346.537 393.190-1342.914  0.00  0.00    -0.227 N 
ATOM    143  CZ  ARG d  13    1347.385 392.498-1342.159  0.00  0.00     0.665 C 
ATOM    144  NH1 ARG d  13    1347.019 391.533-1341.363  0.00  0.00    -0.235 N 
ATOM    145  NH2 ARG d  13    1348.644 392.797-1342.215  0.00  0.00    -0.235 N 
ATOM    146 11HH ARG d  13    1346.014 391.347-1341.367  0.00  0.00     0.174 HD
ATOM    147 12HH ARG d  13    1347.732 391.049-1340.815  0.00  0.00     0.174 HD
ATOM    148 21HH ARG d  13    1348.912 393.556-1342.845  0.00  0.00     0.174 HD
ATOM    149 22HH ARG d  13    1349.279 392.255-1341.627  0.00  0.00     0.174 HD
ATOM    150  HE  ARG d  13    1346.988 393.913-1343.484  0.00  0.00     0.177 HD
ENDBRANCH 141 142
ENDBRANCH 140 141
ENDBRANCH 139 140
ENDBRANCH 102 139
ENDBRANCH 100 102
ENDBRANCH  97  98
BRANCH  97 151
ATOM    151  CB  GLN d  12    1338.069 396.099-1344.047  0.00  0.00     0.044 C 
BRANCH 151 152
ATOM    152  CG  GLN d  12    1338.430 397.620-1344.015  0.00  0.00     0.105 C 
BRANCH 152 153
ATOM    153  CD  GLN d  12    1338.127 398.432-1342.749  0.00  0.00     0.215 C 
ATOM    154  NE2 GLN d  12    1337.559 397.855-1341.721  0.00  0.00    -0.370 N 
ATOM    155 21HE GLN d  12    1337.452 398.448-1340.897  0.00  0.00     0.159 HD
ATOM    156 22HE GLN d  12    1337.396 396.851-1341.826  0.00  0.00     0.159 HD
ATOM    157  OE1 GLN d  12    1338.428 399.613-1342.670  0.00  0.00    -0.274 OA
ENDBRANCH 152 153
ENDBRANCH 151 152
ENDBRANCH  97 151
ENDBRANCH  95  97
ENDBRANCH  92  93
BRANCH  92 158
ATOM    158  CB  VAL d  11    1336.224 391.588-1346.258  0.00  0.00     0.009 C 
ATOM    159  CG1 VAL d  11    1335.656 392.293-1347.520  0.00  0.00     0.012 C 
ATOM    160  CG2 VAL d  11    1335.700 390.134-1346.333  0.00  0.00     0.012 C 
ENDBRANCH  92 158
ENDBRANCH  90  92
ENDBRANCH  87  88
BRANCH  87 161
ATOM    161  CB  HIS d  10    1339.580 389.053-1343.014  0.00  0.00     0.095 C 
BRANCH 161 162
ATOM    162  CG  HIS d  10    1340.865 388.342-1342.706  0.00  0.00     0.053 A 
ATOM    163  CD2 HIS d  10    1341.245 388.006-1341.413  0.00  0.00     0.116 A 
ATOM    164  NE2 HIS d  10    1342.460 387.374-1341.480  0.00  0.00    -0.359 N 
ATOM    165  CE1 HIS d  10    1342.723 387.378-1342.815  0.00  0.00     0.207 A 
ATOM    166  2HE HIS d  10    1343.026 386.996-1340.707  0.00  0.00     0.166 HD
ATOM    167  ND1 HIS d  10    1341.818 387.937-1343.638  0.00  0.00    -0.247 NA
ENDBRANCH 161 162
ENDBRANCH  87 161
ENDBRANCH   3  87
TORSDOF 69
