@<TRIPOS>MOLECULE
2-1
261 262 16              
SMALL
USER_CHARGES
@<TRIPOS>ATOM
1	   N	173.415	25.965	-142.808	N.3	1	GLU1	-0.516	
2	  CA	173.974	27.314	-142.808	C.3	1	GLU1	0.040	
3	   C	175.483	27.274	-142.808	C.2	1	GLU1	0.537	
4	   O	176.159	27.973	-143.577	O.2	1	GLU1	-0.582	
5	  CB	173.451	28.099	-141.571	C.3	1	GLU1	0.056	
6	  CG	173.926	29.584	-141.460	C.3	1	GLU1	0.014	
7	  CD	173.502	30.388	-140.245	C.2	1	GLU1	0.805	
8	 OE1	172.774	29.886	-139.367	O.co2	1	GLU1	-0.819	
9	 OE2	173.932	31.558	-140.173	O.co2	1	GLU1	-0.819	
10	   H	174.042	25.086	-142.808	 H	1	GLU1	0.294	
11	  HA	173.648	27.832	-143.728	 H	1	GLU1	0.111	
12	 2HB	173.740	27.568	-140.641	 H	1	GLU1	-0.017	
13	 3HB	172.344	28.089	-141.558	 H	1	GLU1	-0.017	
14	 2HG	173.616	30.169	-142.341	 H	1	GLU1	-0.043	
15	 3HG	175.026	29.651	-141.431	 H	1	GLU1	-0.043	
16	   N	176.088	26.488	-141.983	N.am	2	ALA2	-0.416	
17	  CA	177.547	26.449	-141.984	C.3	2	ALA2	0.034	
18	   C	178.078	26.094	-143.352	C.2	2	ALA2	0.597	
19	   O	178.997	26.728	-143.884	O.2	2	ALA2	-0.568	
20	  CB	177.988	25.454	-140.897	C.3	2	ALA2	-0.183	
21	   H	175.560	25.908	-141.347	 H	2	ALA2	0.272	
22	  HA	177.928	27.458	-141.736	 H	2	ALA2	0.082	
23	 1HB	177.622	25.751	-139.895	 H	2	ALA2	0.060	
24	 2HB	177.609	24.432	-141.089	 H	2	ALA2	0.060	
25	 3HB	179.089	25.385	-140.824	 H	2	ALA2	0.060	
26	   N	177.557	25.099	-143.986	N.am	3	PRO3	-0.255	
27	  CA	178.008	24.690	-145.307	C.3	3	PRO3	-0.027	
28	   C	177.609	25.713	-146.384	C.2	3	PRO3	0.590	
29	   O	178.432	26.096	-147.216	O.2	3	PRO3	-0.575	
30	  CB	177.304	23.335	-145.476	C.3	3	PRO3	-0.007	
31	  CG	176.021	23.487	-144.646	C.3	3	PRO3	0.019	
32	  CD	176.479	24.306	-143.436	C.3	3	PRO3	0.019	
33	  HA	179.094	24.570	-145.321	 H	3	PRO3	0.064	
34	 2HB	177.927	22.554	-145.036	 H	3	PRO3	0.025	
35	 3HB	177.106	23.086	-146.521	 H	3	PRO3	0.025	
36	 2HG	175.594	22.524	-144.354	 H	3	PRO3	0.021	
37	 3HG	175.283	24.057	-145.213	 H	3	PRO3	0.021	
38	 2HD	176.869	23.656	-142.649	 H	3	PRO3	0.039	
39	 3HD	175.682	24.941	-143.043	 H	3	PRO3	0.039	
40	   N	176.405	26.173	-146.416	N.am	4	GLU4	-0.516	
41	  CA	176.044	27.143	-147.446	C.3	4	GLU4	0.040	
42	   C	176.943	28.355	-147.385	C.2	4	GLU4	0.537	
43	   O	177.469	28.834	-148.400	O.2	4	GLU4	-0.582	
44	  CB	174.556	27.562	-147.275	C.3	4	GLU4	0.056	
45	  CG	174.007	28.565	-148.341	C.3	4	GLU4	0.014	
46	  CD	172.580	29.061	-148.197	C.2	4	GLU4	0.805	
47	 OE1	171.854	28.663	-147.265	O.co2	4	GLU4	-0.819	
48	 OE2	172.190	29.890	-149.045	O.co2	4	GLU4	-0.819	
49	   H	175.721	25.866	-145.739	 H	4	GLU4	0.294	
50	  HA	176.175	26.673	-148.437	 H	4	GLU4	0.111	
51	 2HB	174.404	28.002	-146.268	 H	4	GLU4	-0.017	
52	 3HB	173.908	26.664	-147.281	 H	4	GLU4	-0.017	
53	 2HG	174.088	28.150	-149.358	 H	4	GLU4	-0.043	
54	 3HG	174.595	29.497	-148.352	 H	4	GLU4	-0.043	
55	   N	177.170	28.908	-146.242	N.am	5	SER5	-0.416	
56	  CA	178.040	30.079	-146.184	C.3	5	SER5	-0.025	
57	   C	179.398	29.774	-146.770	C.2	5	SER5	0.597	
58	   O	179.945	30.528	-147.575	O.2	5	SER5	-0.568	
59	  CB	178.152	30.612	-144.734	C.3	5	SER5	0.212	
60	  OG	178.884	29.733	-143.873	O.3	5	SER5	-0.655	
61	   H	176.754	28.536	-145.400	 H	5	SER5	0.272	
62	  HA	177.590	30.869	-146.813	 H	5	SER5	0.084	
63	 2HB	177.152	30.805	-144.300	 H	5	SER5	0.035	
64	 3HB	178.657	31.597	-144.736	 H	5	SER5	0.035	
65	  HG	178.395	28.908	-143.822	 H	5	SER5	0.428	
66	   N	180.004	28.691	-146.416	N.am	6	ILE6	-0.416	
67	  CA	181.317	28.397	-146.983	C.3	6	ILE6	-0.060	
68	   C	181.259	28.359	-148.490	C.2	6	ILE6	0.597	
69	   O	182.093	28.947	-149.195	O.2	6	ILE6	-0.568	
70	  CB	181.917	27.061	-146.383	C.3	6	ILE6	0.130	
71	 CG1	181.937	26.999	-144.822	C.3	6	ILE6	-0.043	
72	 CG2	183.358	26.759	-146.899	C.3	6	ILE6	-0.320	
73	 CD1	182.208	25.610	-144.207	C.3	6	ILE6	-0.066	
74	   H	179.576	28.057	-145.757	 H	6	ILE6	0.272	
75	  HA	181.991	29.231	-146.715	 H	6	ILE6	0.087	
76	  HB	181.260	26.235	-146.726	 H	6	ILE6	0.019	
77	2HG1	180.955	27.318	-144.426	 H	6	ILE6	0.024	
78	3HG1	182.653	27.741	-144.417	 H	6	ILE6	0.024	
79	1HG2	183.417	26.666	-147.997	 H	6	ILE6	0.088	
80	2HG2	184.080	27.542	-146.597	 H	6	ILE6	0.088	
81	3HG2	183.749	25.798	-146.520	 H	6	ILE6	0.088	
82	1HD1	181.480	24.855	-144.561	 H	6	ILE6	0.019	
83	2HD1	183.219	25.231	-144.443	 H	6	ILE6	0.019	
84	3HD1	182.132	25.640	-143.104	 H	6	ILE6	0.019	
85	   N	180.313	27.695	-149.064	N.am	7	LEU7	-0.416	
86	  CA	180.258	27.659	-150.522	C.3	7	LEU7	-0.052	
87	   C	180.185	29.054	-151.095	C.2	7	LEU7	0.597	
88	   O	180.905	29.417	-152.037	O.2	7	LEU7	-0.568	
89	  CB	179.055	26.798	-151.002	C.3	7	LEU7	-0.110	
90	  CG	178.983	25.319	-150.535	C.3	7	LEU7	0.353	
91	 CD1	177.793	24.612	-151.201	C.3	7	LEU7	-0.412	
92	 CD2	180.277	24.540	-150.827	C.3	7	LEU7	-0.412	
93	   H	179.622	27.208	-148.512	 H	7	LEU7	0.272	
94	  HA	181.200	27.219	-150.897	 H	7	LEU7	0.092	
95	 2HB	179.031	26.814	-152.110	 H	7	LEU7	0.046	
96	 3HB	178.115	27.300	-150.698	 H	7	LEU7	0.046	
97	  HG	178.813	25.311	-149.438	 H	7	LEU7	-0.036	
98	1HD1	176.836	25.121	-150.978	 H	7	LEU7	0.100	
99	2HD1	177.892	24.572	-152.302	 H	7	LEU7	0.100	
100	3HD1	177.687	23.571	-150.844	 H	7	LEU7	0.100	
101	1HD2	180.551	24.570	-151.897	 H	7	LEU7	0.100	
102	2HD2	181.130	24.952	-150.256	 H	7	LEU7	0.100	
103	3HD2	180.196	23.477	-150.531	 H	7	LEU7	0.100	
104	   N	179.347	29.894	-150.588	N.am	8	ASP8	-0.516	
105	  CA	179.276	31.244	-151.142	C.3	8	ASP8	0.038	
106	   C	180.622	31.924	-151.085	C.2	8	ASP8	0.537	
107	   O	181.095	32.529	-152.060	O.2	8	ASP8	-0.582	
108	  CB	178.198	32.082	-150.400	C.3	8	ASP8	-0.030	
109	  CG	177.978	33.503	-150.940	C.2	8	ASP8	0.799	
110	 OD1	178.042	33.702	-152.171	O.co2	8	ASP8	-0.801	
111	 OD2	177.786	34.429	-150.125	O.co2	8	ASP8	-0.801	
112	   H	178.750	29.623	-149.820	 H	8	ASP8	0.294	
113	  HA	178.993	31.166	-152.209	 H	8	ASP8	0.088	
114	 2HB	178.455	32.166	-149.328	 H	8	ASP8	-0.012	
115	 3HB	177.219	31.577	-150.432	 H	8	ASP8	-0.012	
116	   N	181.303	31.875	-149.990	N.am	9	GLU9	-0.516	
117	  CA	182.605	32.533	-149.935	C.3	9	GLU9	0.040	
118	   C	183.523	32.006	-151.011	C.2	9	GLU9	0.537	
119	   O	184.186	32.760	-151.737	O.2	9	GLU9	-0.582	
120	  CB	183.239	32.325	-148.530	C.3	9	GLU9	0.056	
121	  CG	184.621	33.018	-148.301	C.3	9	GLU9	0.014	
122	  CD	185.324	32.806	-146.973	C.2	9	GLU9	0.805	
123	 OE1	184.803	32.114	-146.076	O.co2	9	GLU9	-0.819	
124	 OE2	186.443	33.344	-146.841	O.co2	9	GLU9	-0.819	
125	   H	180.940	31.388	-149.183	 H	9	GLU9	0.294	
126	  HA	182.462	33.614	-150.110	 H	9	GLU9	0.111	
127	 2HB	183.353	31.241	-148.326	 H	9	GLU9	-0.017	
128	 3HB	182.542	32.678	-147.745	 H	9	GLU9	-0.017	
129	 2HG	184.549	34.109	-148.441	 H	9	GLU9	-0.043	
130	 3HG	185.368	32.674	-149.035	 H	9	GLU9	-0.043	
131	   N	183.620	30.730	-151.181	N.am	10	HIS10	-0.416	
132	  CA	184.508	30.219	-152.221	C.3	10	HIS10	-0.058	
133	   C	184.140	30.784	-153.572	C.2	10	HIS10	0.597	
134	   O	184.992	31.249	-154.344	O.2	10	HIS10	-0.568	
135	  CB	184.345	28.690	-152.216	C.3	10	HIS10	-0.007	
136	  CG	185.631	27.981	-151.908	C.2	10	HIS10	0.187	
137	 CD2	186.012	27.646	-150.616	C.2	10	HIS10	-0.221	
138	 ND1	186.583	27.576	-152.841	N.2	10	HIS10	-0.543	
139	 CE1	187.490	27.018	-152.018	C.2	10	HIS10	0.163	
140	 NE2	187.228	27.015	-150.683	N.pl3	10	HIS10	-0.280	
141	   H	183.090	30.095	-150.602	 H	10	HIS10	0.272	
142	  HA	185.527	30.577	-151.996	 H	10	HIS10	0.136	
143	 2HB	183.979	28.323	-153.196	 H	10	HIS10	0.037	
144	 3HB	183.590	28.353	-151.476	 H	10	HIS10	0.037	
145	 2HD	185.427	27.861	-149.727	 H	10	HIS10	0.186	
146	 1HE	188.381	26.597	-152.465	 H	10	HIS10	0.144	
147	 2HE	187.795	26.638	-149.910	 H	10	HIS10	0.334	
148	   N	182.902	30.782	-153.935	N.am	11	VAL11	-0.416	
149	  CA	182.547	31.328	-155.242	C.3	11	VAL11	-0.087	
150	   C	183.010	32.759	-155.374	C.2	11	VAL11	0.597	
151	   O	183.611	33.164	-156.377	O.2	11	VAL11	-0.568	
152	  CB	180.985	31.220	-155.461	C.3	11	VAL11	0.299	
153	 CG1	180.416	31.924	-156.723	C.3	11	VAL11	-0.319	
154	 CG2	180.462	29.766	-155.533	C.3	11	VAL11	-0.319	
155	   H	182.190	30.409	-153.324	 H	11	VAL11	0.272	
156	  HA	183.066	30.746	-156.024	 H	11	VAL11	0.097	
157	  HB	180.498	31.700	-154.585	 H	11	VAL11	-0.030	
158	1HG1	180.854	31.533	-157.660	 H	11	VAL11	0.079	
159	2HG1	179.317	31.816	-156.805	 H	11	VAL11	0.079	
160	3HG1	180.593	33.017	-156.714	 H	11	VAL11	0.079	
161	1HG2	180.752	29.179	-154.643	 H	11	VAL11	0.079	
162	2HG2	179.356	29.728	-155.576	 H	11	VAL11	0.079	
163	3HG2	180.843	29.225	-156.420	 H	11	VAL11	0.079	
164	   N	182.773	33.584	-154.412	N.am	12	GLN12	-0.416	
165	  CA	183.220	34.968	-154.539	C.3	12	GLN12	-0.003	
166	   C	184.710	35.036	-154.777	C.2	12	GLN12	0.597	
167	   O	185.197	35.745	-155.656	O.2	12	GLN12	-0.568	
168	  CB	182.829	35.735	-153.256	C.3	12	GLN12	-0.004	
169	  CG	183.189	37.257	-153.225	C.3	12	GLN12	-0.064	
170	  CD	182.886	38.070	-151.960	C.2	12	GLN12	0.695	
171	 NE2	182.320	37.493	-150.931	N.pl3	12	GLN12	-0.941	
172	 OE1	183.187	39.251	-151.883	O.2	12	GLN12	-0.609	
173	   H	182.284	33.278	-153.582	 H	12	GLN12	0.272	
174	  HA	182.720	35.424	-155.414	 H	12	GLN12	0.085	
175	 2HB	183.306	35.235	-152.387	 H	12	GLN12	0.017	
176	 3HB	181.739	35.627	-153.093	 H	12	GLN12	0.017	
177	 2HG	182.711	37.777	-154.076	 H	12	GLN12	0.035	
178	 3HG	184.272	37.400	-153.391	 H	12	GLN12	0.035	
179	1HE2	182.213	38.088	-150.107	 H	12	GLN12	0.425	
180	2HE2	182.157	36.490	-151.035	 H	12	GLN12	0.425	
181	   N	185.496	34.330	-154.037	N.am	13	ARG13	-0.348	
182	  CA	186.936	34.396	-154.268	C.3	13	ARG13	-0.264	
183	   C	187.272	34.025	-155.693	C.2	13	ARG13	0.734	
184	   O	188.040	34.697	-156.377	O.2	13	ARG13	-0.589	
185	  CB	187.650	33.458	-153.254	C.3	13	ARG13	-0.001	
186	  CG	189.195	33.612	-153.173	C.3	13	ARG13	0.039	
187	  CD	189.823	32.624	-152.176	C.3	13	ARG13	0.049	
188	  NE	191.300	32.833	-152.126	N.pl3	13	ARG13	-0.530	
189	  CZ	192.148	32.141	-151.371	C.cat	13	ARG13	0.808	
190	 NH1	191.784	31.177	-150.573	N.pl3	13	ARG13	-0.863	
191	 NH2	193.408	32.441	-151.428	N.pl3	13	ARG13	-0.863	
192	   H	185.120	33.739	-153.308	 H	13	ARG13	0.275	
193	  HA	187.259	35.442	-154.109	 H	13	ARG13	0.156	
194	 2HB	187.384	32.407	-153.493	 H	13	ARG13	0.033	
195	 3HB	187.225	33.624	-152.243	 H	13	ARG13	0.033	
196	 2HG	189.442	34.657	-152.894	 H	13	ARG13	0.029	
197	 3HG	189.645	33.456	-154.175	 H	13	ARG13	0.029	
198	 2HD	189.579	31.584	-152.485	 H	13	ARG13	0.069	
199	 3HD	189.366	32.770	-151.173	 H	13	ARG13	0.069	
200	  HE	191.750	33.555	-152.697	 H	13	ARG13	0.346	
201	1HH1	190.779	30.990	-150.576	 H	13	ARG13	0.448	
202	2HH1	192.498	30.694	-150.025	 H	13	ARG13	0.448	
203	1HH2	193.675	33.199	-152.059	 H	13	ARG13	0.448	
204	2HH2	194.043	31.900	-150.840	 H	13	ARG13	0.448	
205	   N	186.736	32.970	-156.207	N.am	14	VAL14	-0.416	
206	  CA	187.061	32.611	-157.585	C.3	14	VAL14	-0.087	
207	   C	186.730	33.741	-158.530	C.2	14	VAL14	0.597	
208	   O	187.523	34.123	-159.400	O.2	14	VAL14	-0.568	
209	  CB	186.289	31.294	-157.991	C.3	14	VAL14	0.299	
210	 CG1	186.378	30.875	-159.485	C.3	14	VAL14	-0.319	
211	 CG2	186.722	30.042	-157.191	C.3	14	VAL14	-0.319	
212	   H	186.102	32.401	-155.665	 H	14	VAL14	0.272	
213	  HA	188.149	32.435	-157.660	 H	14	VAL14	0.097	
214	  HB	185.213	31.464	-157.775	 H	14	VAL14	-0.030	
215	1HG1	187.419	30.699	-159.814	 H	14	VAL14	0.079	
216	2HG1	185.805	29.952	-159.698	 H	14	VAL14	0.079	
217	3HG1	185.948	31.637	-160.163	 H	14	VAL14	0.079	
218	1HG2	186.635	30.200	-156.101	 H	14	VAL14	0.079	
219	2HG2	186.086	29.165	-157.423	 H	14	VAL14	0.079	
220	3HG2	187.770	29.752	-157.397	 H	14	VAL14	0.079	
221	   N	185.585	34.326	-158.428	N.am	15	MET15	-0.416	
222	  CA	185.263	35.419	-159.342	C.3	15	MET15	-0.024	
223	   C	186.293	36.519	-159.254	C.2	15	MET15	0.597	
224	   O	186.795	37.030	-160.267	O.2	15	MET15	-0.568	
225	  CB	183.842	35.963	-159.032	C.3	15	MET15	0.034	
226	  CG	182.680	34.965	-159.224	C.3	15	MET15	0.002	
227	  SD	181.106	35.830	-159.109	S.3	15	MET15	-0.274	
228	  CE	180.025	34.399	-158.972	C.3	15	MET15	-0.054	
229	   H	184.920	34.033	-157.726	 H	15	MET15	0.272	
230	  HA	185.289	35.031	-160.377	 H	15	MET15	0.088	
231	 2HB	183.639	36.842	-159.674	 H	15	MET15	0.024	
232	 3HB	183.806	36.356	-157.996	 H	15	MET15	0.024	
233	 2HG	182.724	34.179	-158.446	 H	15	MET15	0.044	
234	 3HG	182.743	34.450	-160.200	 H	15	MET15	0.044	
235	 1HE	180.169	33.711	-159.824	 H	15	MET15	0.068	
236	 2HE	180.235	33.847	-158.039	 H	15	MET15	0.068	
237	 3HE	178.968	34.714	-158.955	 H	15	MET15	0.068	
238	   N	186.662	36.940	-158.092	N.am	16	ARG16	-0.348	
239	  CA	187.658	38.005	-158.009	C.3	16	ARG16	-0.264	
240	   C	188.928	37.613	-158.725	C.2	16	ARG16	0.734	
241	   O	189.042	36.536	-159.307	O.2	16	ARG16	-0.589	
242	  CB	187.927	38.323	-156.510	C.3	16	ARG16	-0.001	
243	  CG	188.751	39.612	-156.238	C.3	16	ARG16	0.039	
244	  CD	189.001	39.832	-154.737	C.3	16	ARG16	0.049	
245	  NE	189.777	41.091	-154.536	N.pl3	16	ARG16	-0.530	
246	  CZ	190.168	41.574	-153.360	C.cat	16	ARG16	0.808	
247	 NH1	189.921	40.989	-152.222	N.pl3	16	ARG16	-0.863	
248	 NH2	190.832	42.687	-153.342	N.pl3	16	ARG16	-0.863	
249	   H	186.267	36.540	-157.253	 H	16	ARG16	0.275	
250	  HA	187.248	38.897	-158.518	 H	16	ARG16	0.156	
251	 2HB	188.424	37.447	-156.044	 H	16	ARG16	0.033	
252	 3HB	186.958	38.403	-155.976	 H	16	ARG16	0.033	
253	 2HG	188.220	40.483	-156.675	 H	16	ARG16	0.029	
254	 3HG	189.725	39.560	-156.767	 H	16	ARG16	0.029	
255	 2HD	189.551	38.957	-154.323	 H	16	ARG16	0.069	
256	 3HD	188.029	39.874	-154.201	 H	16	ARG16	0.069	
257	  HE	190.055	41.672	-155.333	 H	16	ARG16	0.346	
258	1HH1	189.396	40.116	-152.306	 H	16	ARG16	0.448	
259	2HH1	190.256	41.425	-151.361	 H	16	ARG16	0.448	
260	1HH2	191.017	43.130	-154.244	 H	16	ARG16	0.448	
261	2HH2	191.122	43.042	-152.430	 H	16	ARG16	0.448	
@<TRIPOS>BOND
1 1 2 1
2 1 10 1
3 2 3 1
4 2 5 1
5 2 11 1
6 3 4 2
7 3 16 1
8 5 6 1
9 6 7 1
10 7 8 2
11 7 9 1
12 5 12 1
13 5 13 1
14 6 14 1
15 6 15 1
16 16 17 1
17 16 21 1
18 17 18 1
19 17 20 1
20 17 22 1
21 18 19 2
22 18 26 1
23 20 23 1
24 20 24 1
25 20 25 1
26 26 27 1
27 26 32 1
28 27 28 1
29 27 30 1
30 27 33 1
31 28 29 2
32 28 40 1
33 30 31 1
34 31 32 1
35 30 34 1
36 30 35 1
37 31 36 1
38 31 37 1
39 32 38 1
40 32 39 1
41 40 41 1
42 40 49 1
43 41 42 1
44 41 44 1
45 41 50 1
46 42 43 2
47 42 55 1
48 44 45 1
49 45 46 1
50 46 47 2
51 46 48 1
52 44 51 1
53 44 52 1
54 45 53 1
55 45 54 1
56 55 56 1
57 55 61 1
58 56 57 1
59 56 59 1
60 56 62 1
61 57 58 2
62 57 66 1
63 59 60 1
64 59 63 1
65 59 64 1
66 60 65 1
67 66 67 1
68 66 74 1
69 67 68 1
70 67 70 1
71 67 75 1
72 68 69 2
73 68 85 1
74 70 71 1
75 70 72 1
76 71 73 1
77 70 76 1
78 71 77 1
79 71 78 1
80 72 79 1
81 72 80 1
82 72 81 1
83 73 82 1
84 73 83 1
85 73 84 1
86 85 86 1
87 85 93 1
88 86 87 1
89 86 89 1
90 86 94 1
91 87 88 2
92 87 104 1
93 89 90 1
94 90 91 1
95 90 92 1
96 89 95 1
97 89 96 1
98 90 97 1
99 91 98 1
100 91 99 1
101 91 100 1
102 92 101 1
103 92 102 1
104 92 103 1
105 104 105 1
106 104 112 1
107 105 106 1
108 105 108 1
109 105 113 1
110 106 107 2
111 106 116 1
112 108 109 1
113 109 110 2
114 109 111 1
115 108 114 1
116 108 115 1
117 116 117 1
118 116 125 1
119 117 118 1
120 117 120 1
121 117 126 1
122 118 119 2
123 118 131 1
124 120 121 1
125 121 122 1
126 122 123 2
127 122 124 1
128 120 127 1
129 120 128 1
130 121 129 1
131 121 130 1
132 131 132 1
133 131 141 1
134 132 133 1
135 132 135 1
136 132 142 1
137 133 134 2
138 133 148 1
139 135 136 1
140 136 137 2
141 137 140 1
142 136 138 1
143 138 139 2
144 139 140 1
145 135 143 1
146 135 144 1
147 137 145 1
148 139 146 1
149 140 147 1
150 148 149 1
151 148 155 1
152 149 150 1
153 149 152 1
154 149 156 1
155 150 151 2
156 150 164 1
157 152 153 1
158 152 154 1
159 152 157 1
160 153 158 1
161 153 159 1
162 153 160 1
163 154 161 1
164 154 162 1
165 154 163 1
166 164 165 1
167 164 173 1
168 165 166 1
169 165 168 1
170 165 174 1
171 166 167 2
172 166 181 1
173 168 169 1
174 169 170 1
175 170 171 1
176 170 172 2
177 168 175 1
178 168 176 1
179 169 177 1
180 169 178 1
181 171 179 1
182 171 180 1
183 181 182 1
184 181 192 1
185 182 183 1
186 182 185 1
187 182 193 1
188 183 184 2
189 183 205 1
190 185 186 1
191 186 187 1
192 187 188 1
193 188 189 1
194 189 190 2
195 189 191 1
196 185 194 1
197 185 195 1
198 186 196 1
199 186 197 1
200 187 198 1
201 187 199 1
202 188 200 1
203 190 201 1
204 190 202 1
205 191 203 1
206 191 204 1
207 205 206 1
208 205 212 1
209 206 207 1
210 206 209 1
211 206 213 1
212 207 208 2
213 207 221 1
214 209 210 1
215 209 211 1
216 209 214 1
217 210 215 1
218 210 216 1
219 210 217 1
220 211 218 1
221 211 219 1
222 211 220 1
223 221 222 1
224 221 229 1
225 222 223 1
226 222 225 1
227 222 230 1
228 223 224 2
229 223 238 1
230 225 226 1
231 226 227 1
232 227 228 1
233 225 231 1
234 225 232 1
235 226 233 1
236 226 234 1
237 228 235 1
238 228 236 1
239 228 237 1
240 238 239 1
241 238 249 1
242 239 240 1
243 239 242 1
244 239 250 1
245 240 241 2
246 242 243 1
247 243 244 1
248 244 245 1
249 245 246 1
250 246 247 2
251 246 248 1
252 242 251 1
253 242 252 1
254 243 253 1
255 243 254 1
256 244 255 1
257 244 256 1
258 245 257 1
259 247 258 1
260 247 259 1
261 248 260 1
262 248 261 1
@<TRIPOS>SUBSTRUCTURE
1	GLU1	1	RESIDUE	1 ****	GLU
2	ALA2	16	RESIDUE	1 ****	ALA
3	PRO3	26	RESIDUE	1 ****	PRO
4	GLU4	40	RESIDUE	1 ****	GLU
5	SER5	55	RESIDUE	1 ****	SER
6	ILE6	66	RESIDUE	1 ****	ILE
7	LEU7	85	RESIDUE	1 ****	LEU
8	ASP8	104	RESIDUE	1 ****	ASP
9	GLU9	116	RESIDUE	1 ****	GLU
10	HIS10	131	RESIDUE	1 ****	HIS
11	VAL11	148	RESIDUE	1 ****	VAL
12	GLN12	164	RESIDUE	1 ****	GLN
13	ARG13	181	RESIDUE	1 ****	ARG
14	VAL14	205	RESIDUE	1 ****	VAL
15	MET15	221	RESIDUE	1 ****	MET
16	ARG16	238	RESIDUE	1 ****	ARG
