@<TRIPOS>MOLECULE
3-11
268 269 16              
SMALL
USER_CHARGES
@<TRIPOS>ATOM
1	   N	435.142	99.704	-396.897	N.3	1	GLU1	-0.516	
2	  CA	435.701	101.053	-396.897	C.3	1	GLU1	0.040	
3	   C	437.210	101.013	-396.897	C.2	1	GLU1	0.537	
4	   O	437.886	101.712	-397.665	O.2	1	GLU1	-0.582	
5	  CB	435.178	101.838	-395.660	C.3	1	GLU1	0.056	
6	  CG	435.653	103.323	-395.549	C.3	1	GLU1	0.014	
7	  CD	435.229	104.127	-394.334	C.2	1	GLU1	0.805	
8	 OE1	434.501	103.625	-393.456	O.co2	1	GLU1	-0.819	
9	 OE2	435.659	105.297	-394.262	O.co2	1	GLU1	-0.819	
10	   H	435.769	98.825	-396.897	 H	1	GLU1	0.294	
11	  HA	435.375	101.571	-397.817	 H	1	GLU1	0.111	
12	 2HB	435.467	101.307	-394.730	 H	1	GLU1	-0.017	
13	 3HB	434.071	101.828	-395.647	 H	1	GLU1	-0.017	
14	 2HG	435.343	103.908	-396.430	 H	1	GLU1	-0.043	
15	 3HG	436.753	103.390	-395.520	 H	1	GLU1	-0.043	
16	   N	437.814	100.228	-396.071	N.am	2	ASN2	-0.416	
17	  CA	439.274	100.189	-396.072	C.3	2	ASN2	0.014	
18	   C	439.805	99.834	-397.440	C.2	2	ASN2	0.597	
19	   O	440.720	100.464	-397.969	O.2	2	ASN2	-0.568	
20	  CB	439.766	99.166	-395.007	C.3	2	ASN2	-0.204	
21	  CG	439.303	99.390	-393.564	C.2	2	ASN2	0.713	
22	 ND2	439.897	100.305	-392.846	N.pl3	2	ASN2	-0.919	
23	 OD1	438.382	98.756	-393.070	O.2	2	ASN2	-0.593	
24	   H	437.286	99.648	-395.435	 H	2	ASN2	0.272	
25	  HA	439.651	101.199	-395.826	 H	2	ASN2	0.105	
26	 2HB	440.870	99.107	-395.011	 H	2	ASN2	0.080	
27	 3HB	439.437	98.148	-395.293	 H	2	ASN2	0.080	
28	1HD2	439.417	100.478	-391.959	 H	2	ASN2	0.420	
29	2HD2	440.599	100.877	-393.315	 H	2	ASN2	0.420	
30	   N	439.283	98.838	-398.074	N.am	3	HIS3	-0.416	
31	  CA	439.796	98.494	-399.398	C.3	3	HIS3	-0.058	
32	   C	439.703	99.671	-400.338	C.2	3	HIS3	0.597	
33	   O	440.652	100.014	-401.058	O.2	3	HIS3	-0.568	
34	  CB	438.930	97.330	-399.907	C.3	3	HIS3	-0.007	
35	  CG	439.736	96.091	-400.167	C.2	3	HIS3	0.187	
36	 CD2	439.949	95.118	-399.200	C.2	3	HIS3	-0.221	
37	 ND1	440.358	95.760	-401.369	N.2	3	HIS3	-0.543	
38	 CE1	440.916	94.585	-401.024	C.2	3	HIS3	0.163	
39	 NE2	440.720	94.130	-399.756	N.pl3	3	HIS3	-0.280	
40	   H	438.532	98.305	-397.661	 H	3	HIS3	0.272	
41	  HA	440.869	98.261	-399.290	 H	3	HIS3	0.136	
42	 2HB	438.409	97.600	-400.847	 H	3	HIS3	0.037	
43	 3HB	438.125	97.063	-399.191	 H	3	HIS3	0.037	
44	 2HD	439.559	95.161	-398.188	 H	3	HIS3	0.186	
45	 1HE	441.490	94.062	-401.777	 H	3	HIS3	0.144	
46	 2HE	441.062	93.263	-399.316	 H	3	HIS3	0.334	
47	   N	438.602	100.341	-400.394	N.am	4	GLU4	-0.516	
48	  CA	438.511	101.479	-401.304	C.3	4	GLU4	0.040	
49	   C	439.591	102.492	-401.012	C.2	4	GLU4	0.537	
50	   O	440.286	102.990	-401.910	O.2	4	GLU4	-0.582	
51	  CB	437.105	102.135	-401.186	C.3	4	GLU4	0.056	
52	  CG	436.839	103.344	-402.141	C.3	4	GLU4	0.014	
53	  CD	435.509	104.067	-402.034	C.2	4	GLU4	0.805	
54	 OE1	434.640	103.695	-401.222	O.co2	4	GLU4	-0.819	
55	 OE2	435.348	105.051	-402.786	O.co2	4	GLU4	-0.819	
56	   H	437.814	100.081	-399.818	 H	4	GLU4	0.294	
57	  HA	438.655	101.118	-402.338	 H	4	GLU4	0.111	
58	 2HB	436.934	102.468	-400.142	 H	4	GLU4	-0.017	
59	 3HB	436.319	101.376	-401.363	 H	4	GLU4	-0.017	
60	 2HG	436.946	103.049	-403.197	 H	4	GLU4	-0.043	
61	 3HG	437.574	104.149	-401.981	 H	4	GLU4	-0.043	
62	   N	439.798	102.851	-399.790	N.am	5	SER5	-0.416	
63	  CA	440.844	103.830	-399.508	C.3	5	SER5	-0.025	
64	   C	442.181	103.360	-400.030	C.2	5	SER5	0.597	
65	   O	442.922	104.095	-400.682	O.2	5	SER5	-0.568	
66	  CB	440.904	104.152	-397.994	C.3	5	SER5	0.212	
67	  OG	441.391	103.057	-397.211	O.3	5	SER5	-0.655	
68	   H	439.246	102.460	-399.040	 H	5	SER5	0.272	
69	  HA	440.596	104.760	-400.053	 H	5	SER5	0.084	
70	 2HB	439.915	104.468	-397.612	 H	5	SER5	0.035	
71	 3HB	441.566	105.023	-397.824	 H	5	SER5	0.035	
72	  HG	440.768	102.333	-397.310	 H	5	SER5	0.428	
73	   N	442.558	102.151	-399.785	N.am	6	ILE6	-0.416	
74	  CA	443.850	101.696	-400.290	C.3	6	ILE6	-0.060	
75	   C	443.932	101.855	-401.788	C.2	6	ILE6	0.597	
76	   O	444.917	102.364	-402.342	O.2	6	ILE6	-0.568	
77	  CB	444.156	100.210	-399.837	C.3	6	ILE6	0.130	
78	 CG1	444.015	99.955	-398.302	C.3	6	ILE6	-0.043	
79	 CG2	445.568	99.720	-400.283	C.3	6	ILE6	-0.320	
80	 CD1	443.987	98.475	-397.866	C.3	6	ILE6	-0.066	
81	   H	441.968	101.528	-399.252	 H	6	ILE6	0.272	
82	  HA	444.627	102.356	-399.862	 H	6	ILE6	0.087	
83	  HB	443.404	99.565	-400.338	 H	6	ILE6	0.019	
84	2HG1	443.068	100.395	-397.939	 H	6	ILE6	0.024	
85	3HG1	444.804	100.501	-397.748	 H	6	ILE6	0.024	
86	1HG2	445.715	99.753	-401.377	 H	6	ILE6	0.088	
87	2HG2	446.380	100.317	-399.825	 H	6	ILE6	0.088	
88	3HG2	445.752	98.664	-400.013	 H	6	ILE6	0.088	
89	1HD1	443.179	97.913	-398.373	 H	6	ILE6	0.019	
90	2HD1	444.937	97.953	-398.078	 H	6	ILE6	0.019	
91	3HD1	443.812	98.383	-396.778	 H	6	ILE6	0.019	
92	   N	442.947	101.447	-402.515	N.am	7	LEU7	-0.416	
93	  CA	443.026	101.601	-403.965	C.3	7	LEU7	-0.052	
94	   C	443.245	103.046	-404.344	C.2	7	LEU7	0.597	
95	   O	444.104	103.386	-405.172	O.2	7	LEU7	-0.568	
96	  CB	441.747	101.036	-404.645	C.3	7	LEU7	-0.110	
97	  CG	441.381	99.548	-404.393	C.3	7	LEU7	0.353	
98	 CD1	440.159	99.155	-405.234	C.3	7	LEU7	-0.412	
99	 CD2	442.547	98.591	-404.694	C.3	7	LEU7	-0.412	
100	   H	442.133	101.029	-402.088	 H	7	LEU7	0.272	
101	  HA	443.912	101.048	-404.327	 H	7	LEU7	0.092	
102	 2HB	441.833	101.192	-405.738	 H	7	LEU7	0.046	
103	 3HB	440.881	101.659	-404.343	 H	7	LEU7	0.046	
104	  HG	441.109	99.437	-403.322	 H	7	LEU7	-0.036	
105	1HD1	439.284	99.797	-405.013	 H	7	LEU7	0.100	
106	2HD1	440.354	99.233	-406.320	 H	7	LEU7	0.100	
107	3HD1	439.844	98.114	-405.033	 H	7	LEU7	0.100	
108	1HD2	442.924	98.702	-405.727	 H	7	LEU7	0.100	
109	2HD2	443.399	98.769	-404.011	 H	7	LEU7	0.100	
110	3HD2	442.259	97.533	-404.553	 H	7	LEU7	0.100	
111	   N	442.517	103.955	-403.789	N.am	8	ASP8	-0.516	
112	  CA	442.729	105.353	-404.155	C.3	8	ASP8	0.038	
113	   C	444.159	105.767	-403.907	C.2	8	ASP8	0.537	
114	   O	444.818	106.392	-404.752	O.2	8	ASP8	-0.582	
115	  CB	441.742	106.274	-403.385	C.3	8	ASP8	-0.030	
116	  CG	441.818	107.767	-403.739	C.2	8	ASP8	0.799	
117	 OD1	442.032	108.100	-404.923	O.co2	8	ASP8	-0.801	
118	 OD2	441.708	108.605	-402.820	O.co2	8	ASP8	-0.801	
119	   H	441.812	103.704	-403.111	 H	8	ASP8	0.294	
120	  HA	442.540	105.458	-405.240	 H	8	ASP8	0.088	
121	 2HB	441.906	106.178	-402.296	 H	8	ASP8	-0.012	
122	 3HB	440.699	105.961	-403.558	 H	8	ASP8	-0.012	
123	   N	444.713	105.462	-402.783	N.am	9	GLU9	-0.516	
124	  CA	446.096	105.863	-402.543	C.3	9	GLU9	0.040	
125	   C	447.011	105.315	-403.612	C.2	9	GLU9	0.537	
126	   O	447.859	106.021	-404.176	O.2	9	GLU9	-0.582	
127	  CB	446.549	105.374	-401.137	C.3	9	GLU9	0.056	
128	  CG	448.000	105.773	-400.715	C.3	9	GLU9	0.014	
129	  CD	448.525	105.276	-399.381	C.2	9	GLU9	0.805	
130	 OE1	447.812	104.585	-398.629	O.co2	9	GLU9	-0.819	
131	 OE2	449.701	105.583	-399.096	O.co2	9	GLU9	-0.819	
132	   H	444.197	104.953	-402.079	 H	9	GLU9	0.294	
133	  HA	446.156	106.966	-402.578	 H	9	GLU9	0.111	
134	 2HB	446.457	104.270	-401.077	 H	9	GLU9	-0.017	
135	 3HB	445.849	105.748	-400.364	 H	9	GLU9	-0.017	
136	 2HG	448.127	106.867	-400.708	 H	9	GLU9	-0.043	
137	 3HG	448.744	105.392	-401.433	 H	9	GLU9	-0.043	
138	   N	446.907	104.073	-403.947	N.am	10	HIS10	-0.416	
139	  CA	447.791	103.542	-404.981	C.3	10	HIS10	-0.058	
140	   C	447.656	104.325	-406.265	C.2	10	HIS10	0.597	
141	   O	448.644	104.720	-406.901	O.2	10	HIS10	-0.568	
142	  CB	447.372	102.079	-405.198	C.3	10	HIS10	-0.007	
143	  CG	448.484	101.117	-404.898	C.2	10	HIS10	0.187	
144	 CD2	448.678	100.563	-403.640	C.2	10	HIS10	-0.221	
145	 ND1	449.439	100.664	-405.806	N.2	10	HIS10	-0.543	
146	 CE1	450.156	99.856	-405.004	C.2	10	HIS10	0.163	
147	 NE2	449.770	99.736	-403.704	N.pl3	10	HIS10	-0.280	
148	   H	446.224	103.478	-403.502	 H	10	HIS10	0.272	
149	  HA	448.830	103.681	-404.635	 H	10	HIS10	0.136	
150	 2HB	447.046	101.907	-406.243	 H	10	HIS10	0.037	
151	 3HB	446.503	101.795	-404.569	 H	10	HIS10	0.037	
152	 2HD	448.055	100.769	-402.774	 H	10	HIS10	0.186	
153	 1HE	451.001	99.340	-405.438	 H	10	HIS10	0.144	
154	 2HE	450.188	99.171	-402.951	 H	10	HIS10	0.334	
155	   N	446.476	104.591	-406.713	N.am	11	VAL11	-0.416	
156	  CA	446.344	105.348	-407.955	C.3	11	VAL11	-0.087	
157	   C	447.054	106.677	-407.855	C.2	11	VAL11	0.597	
158	   O	447.808	107.088	-408.747	O.2	11	VAL11	-0.568	
159	  CB	444.816	105.551	-408.300	C.3	11	VAL11	0.299	
160	 CG1	444.497	106.496	-409.491	C.3	11	VAL11	-0.319	
161	 CG2	444.063	104.235	-408.610	C.3	11	VAL11	-0.319	
162	   H	445.655	104.280	-406.213	 H	11	VAL11	0.272	
163	  HA	446.831	104.782	-408.770	 H	11	VAL11	0.097	
164	  HB	444.335	106.000	-407.404	 H	11	VAL11	-0.030	
165	1HG1	444.951	106.149	-410.439	 H	11	VAL11	0.079	
166	2HG1	443.409	106.598	-409.667	 H	11	VAL11	0.079	
167	3HG1	444.855	107.529	-409.319	 H	11	VAL11	0.079	
168	1HG2	444.163	103.501	-407.790	 H	11	VAL11	0.079	
169	2HG2	442.976	104.403	-408.737	 H	11	VAL11	0.079	
170	3HG2	444.431	103.748	-409.532	 H	11	VAL11	0.079	
171	   N	446.868	107.408	-406.808	N.am	12	GLN12	-0.416	
172	  CA	447.553	108.693	-406.711	C.3	12	GLN12	-0.003	
173	   C	449.049	108.520	-406.828	C.2	12	GLN12	0.597	
174	   O	449.731	109.232	-407.563	O.2	12	GLN12	-0.568	
175	  CB	447.177	109.355	-405.367	C.3	12	GLN12	-0.004	
176	  CG	447.784	110.772	-405.101	C.3	12	GLN12	-0.064	
177	  CD	447.503	111.465	-403.761	C.2	12	GLN12	0.695	
178	 NE2	446.751	110.878	-402.865	N.pl3	12	GLN12	-0.941	
179	 OE1	447.991	112.554	-403.500	O.2	12	GLN12	-0.609	
180	   H	446.258	107.095	-406.067	 H	12	GLN12	0.272	
181	  HA	447.224	109.335	-407.549	 H	12	GLN12	0.085	
182	 2HB	447.476	108.674	-404.542	 H	12	GLN12	0.017	
183	 3HB	446.073	109.426	-405.299	 H	12	GLN12	0.017	
184	 2HG	447.484	111.470	-405.904	 H	12	GLN12	0.035	
185	 3HG	448.886	110.736	-405.166	 H	12	GLN12	0.035	
186	1HE2	446.668	111.376	-401.978	 H	12	GLN12	0.425	
187	2HE2	446.431	109.940	-403.117	 H	12	GLN12	0.425	
188	   N	449.629	107.598	-406.137	N.am	13	ARG13	-0.348	
189	  CA	451.075	107.432	-406.251	C.3	13	ARG13	-0.264	
190	   C	451.479	107.184	-407.685	C.2	13	ARG13	0.734	
191	   O	452.411	107.786	-408.213	O.2	13	ARG13	-0.589	
192	  CB	451.520	106.263	-405.327	C.3	13	ARG13	-0.001	
193	  CG	453.054	106.125	-405.113	C.3	13	ARG13	0.039	
194	  CD	453.407	104.926	-404.218	C.3	13	ARG13	0.049	
195	  NE	454.886	104.857	-404.032	N.pl3	13	ARG13	-0.530	
196	  CZ	455.529	103.937	-403.320	C.cat	13	ARG13	0.808	
197	 NH1	454.932	102.963	-402.692	N.pl3	13	ARG13	-0.863	
198	 NH2	456.821	104.009	-403.244	N.pl3	13	ARG13	-0.863	
199	   H	449.091	107.001	-405.526	 H	13	ARG13	0.275	
200	  HA	451.555	108.375	-405.927	 H	13	ARG13	0.156	
201	 2HB	451.104	105.315	-405.727	 H	13	ARG13	0.033	
202	 3HB	451.034	106.378	-404.336	 H	13	ARG13	0.033	
203	 2HG	453.446	107.066	-404.676	 H	13	ARG13	0.029	
204	 3HG	453.565	106.015	-406.091	 H	13	ARG13	0.029	
205	 2HD	453.021	103.993	-404.684	 H	13	ARG13	0.069	
206	 3HD	452.888	105.027	-403.241	 H	13	ARG13	0.069	
207	  HE	455.505	105.551	-404.464	 H	13	ARG13	0.346	
208	1HH1	453.915	102.963	-402.793	 H	13	ARG13	0.448	
209	2HH1	455.498	102.296	-402.164	 H	13	ARG13	0.448	
210	1HH2	457.271	104.778	-403.743	 H	13	ARG13	0.448	
211	2HH2	457.296	103.295	-402.690	 H	13	ARG13	0.448	
212	   N	450.824	106.314	-408.378	N.am	14	VAL14	-0.416	
213	  CA	451.214	106.074	-409.764	C.3	14	VAL14	-0.087	
214	   C	451.171	107.353	-410.567	C.2	14	VAL14	0.597	
215	   O	452.097	107.689	-411.316	O.2	14	VAL14	-0.568	
216	  CB	450.273	104.977	-410.403	C.3	14	VAL14	0.299	
217	 CG1	450.433	104.736	-411.930	C.3	14	VAL14	-0.319	
218	 CG2	450.410	103.579	-409.754	C.3	14	VAL14	-0.319	
219	   H	450.054	105.807	-407.967	 H	14	VAL14	0.272	
220	  HA	452.259	105.716	-409.783	 H	14	VAL14	0.097	
221	  HB	449.226	105.311	-410.245	 H	14	VAL14	-0.030	
222	1HG1	451.456	104.417	-412.203	 H	14	VAL14	0.079	
223	2HG1	449.736	103.964	-412.308	 H	14	VAL14	0.079	
224	3HG1	450.206	105.641	-412.526	 H	14	VAL14	0.079	
225	1HG2	450.246	103.616	-408.661	 H	14	VAL14	0.079	
226	2HG2	449.660	102.867	-410.150	 H	14	VAL14	0.079	
227	3HG2	451.408	103.133	-409.920	 H	14	VAL14	0.079	
228	   N	450.137	108.118	-410.469	N.am	15	MET15	-0.416	
229	  CA	450.094	109.354	-411.244	C.3	15	MET15	-0.024	
230	   C	451.282	110.231	-410.932	C.2	15	MET15	0.597	
231	   O	451.958	110.764	-411.825	O.2	15	MET15	-0.568	
232	  CB	448.762	110.104	-410.967	C.3	15	MET15	0.034	
233	  CG	447.472	109.362	-411.378	C.3	15	MET15	0.002	
234	  SD	446.063	110.476	-411.261	S.3	15	MET15	-0.274	
235	  CE	444.749	109.257	-411.401	C.3	15	MET15	-0.054	
236	   H	449.368	107.865	-409.864	 H	15	MET15	0.272	
237	  HA	450.153	109.098	-412.319	 H	15	MET15	0.088	
238	 2HB	448.773	111.076	-411.496	 H	15	MET15	0.024	
239	 3HB	448.694	110.366	-409.892	 H	15	MET15	0.024	
240	 2HG	447.308	108.492	-410.715	 H	15	MET15	0.044	
241	 3HG	447.541	108.967	-412.409	 H	15	MET15	0.044	
242	 1HE	444.855	108.664	-412.327	 H	15	MET15	0.068	
243	 2HE	444.772	108.566	-410.540	 H	15	MET15	0.068	
244	 3HE	443.762	109.753	-411.418	 H	15	MET15	0.068	
245	   N	451.603	110.434	-409.699	N.am	16	ARG16	-0.348	
246	  CA	452.752	111.283	-409.397	C.3	16	ARG16	-0.264	
247	   C	454.001	110.759	-410.067	C.2	16	ARG16	0.734	
248	   O	453.987	109.759	-410.781	O.2	16	ARG16	-0.589	
249	  CB	452.927	111.361	-407.854	C.3	16	ARG16	-0.001	
250	  CG	453.927	112.438	-407.347	C.3	16	ARG16	0.039	
251	  CD	454.066	112.423	-405.816	C.3	16	ARG16	0.049	
252	  NE	455.020	113.487	-405.388	N.pl3	16	ARG16	-0.530	
253	  CZ	455.373	113.744	-404.132	C.cat	16	ARG16	0.808	
254	 NH1	454.923	113.078	-403.106	N.pl3	16	ARG16	-0.863	
255	 NH2	456.210	114.708	-403.913	N.pl3	16	ARG16	-0.863	
256	   H	451.069	110.011	-408.953	 H	16	ARG16	0.275	
257	  HA	452.550	112.290	-409.808	 H	16	ARG16	0.156	
258	 2HB	453.222	110.360	-407.478	 H	16	ARG16	0.033	
259	 3HB	451.939	111.549	-407.386	 H	16	ARG16	0.033	
260	 2HG	453.595	113.436	-407.698	 H	16	ARG16	0.029	
261	 3HG	454.924	112.276	-407.807	 H	16	ARG16	0.029	
262	 2HD	454.417	111.420	-405.488	 H	16	ARG16	0.069	
263	 3HD	453.067	112.573	-405.352	 H	16	ARG16	0.069	
264	  HE	455.467	114.102	-406.075	 H	16	ARG16	0.346	
265	1HH1	454.268	112.331	-403.347	 H	16	ARG16	0.448	
266	2HH1	455.242	113.338	-402.171	 H	16	ARG16	0.448	
267	1HH2	456.553	115.218	-404.729	 H	16	ARG16	0.448	
268	2HH2	456.467	114.891	-402.941	 H	16	ARG16	0.448	
@<TRIPOS>BOND
1 1 2 1
2 1 10 1
3 2 3 1
4 2 5 1
5 2 11 1
6 3 4 2
7 3 16 1
8 5 6 1
9 6 7 1
10 7 8 2
11 7 9 1
12 5 12 1
13 5 13 1
14 6 14 1
15 6 15 1
16 16 17 1
17 16 24 1
18 17 18 1
19 17 20 1
20 17 25 1
21 18 19 2
22 18 30 1
23 20 21 1
24 21 22 1
25 21 23 2
26 20 26 1
27 20 27 1
28 22 28 1
29 22 29 1
30 30 31 1
31 30 40 1
32 31 32 1
33 31 34 1
34 31 41 1
35 32 33 2
36 32 47 1
37 34 35 1
38 35 36 2
39 36 39 1
40 35 37 1
41 37 38 2
42 38 39 1
43 34 42 1
44 34 43 1
45 36 44 1
46 38 45 1
47 39 46 1
48 47 48 1
49 47 56 1
50 48 49 1
51 48 51 1
52 48 57 1
53 49 50 2
54 49 62 1
55 51 52 1
56 52 53 1
57 53 54 2
58 53 55 1
59 51 58 1
60 51 59 1
61 52 60 1
62 52 61 1
63 62 63 1
64 62 68 1
65 63 64 1
66 63 66 1
67 63 69 1
68 64 65 2
69 64 73 1
70 66 67 1
71 66 70 1
72 66 71 1
73 67 72 1
74 73 74 1
75 73 81 1
76 74 75 1
77 74 77 1
78 74 82 1
79 75 76 2
80 75 92 1
81 77 78 1
82 77 79 1
83 78 80 1
84 77 83 1
85 78 84 1
86 78 85 1
87 79 86 1
88 79 87 1
89 79 88 1
90 80 89 1
91 80 90 1
92 80 91 1
93 92 93 1
94 92 100 1
95 93 94 1
96 93 96 1
97 93 101 1
98 94 95 2
99 94 111 1
100 96 97 1
101 97 98 1
102 97 99 1
103 96 102 1
104 96 103 1
105 97 104 1
106 98 105 1
107 98 106 1
108 98 107 1
109 99 108 1
110 99 109 1
111 99 110 1
112 111 112 1
113 111 119 1
114 112 113 1
115 112 115 1
116 112 120 1
117 113 114 2
118 113 123 1
119 115 116 1
120 116 117 2
121 116 118 1
122 115 121 1
123 115 122 1
124 123 124 1
125 123 132 1
126 124 125 1
127 124 127 1
128 124 133 1
129 125 126 2
130 125 138 1
131 127 128 1
132 128 129 1
133 129 130 2
134 129 131 1
135 127 134 1
136 127 135 1
137 128 136 1
138 128 137 1
139 138 139 1
140 138 148 1
141 139 140 1
142 139 142 1
143 139 149 1
144 140 141 2
145 140 155 1
146 142 143 1
147 143 144 2
148 144 147 1
149 143 145 1
150 145 146 2
151 146 147 1
152 142 150 1
153 142 151 1
154 144 152 1
155 146 153 1
156 147 154 1
157 155 156 1
158 155 162 1
159 156 157 1
160 156 159 1
161 156 163 1
162 157 158 2
163 157 171 1
164 159 160 1
165 159 161 1
166 159 164 1
167 160 165 1
168 160 166 1
169 160 167 1
170 161 168 1
171 161 169 1
172 161 170 1
173 171 172 1
174 171 180 1
175 172 173 1
176 172 175 1
177 172 181 1
178 173 174 2
179 173 188 1
180 175 176 1
181 176 177 1
182 177 178 1
183 177 179 2
184 175 182 1
185 175 183 1
186 176 184 1
187 176 185 1
188 178 186 1
189 178 187 1
190 188 189 1
191 188 199 1
192 189 190 1
193 189 192 1
194 189 200 1
195 190 191 2
196 190 212 1
197 192 193 1
198 193 194 1
199 194 195 1
200 195 196 1
201 196 197 2
202 196 198 1
203 192 201 1
204 192 202 1
205 193 203 1
206 193 204 1
207 194 205 1
208 194 206 1
209 195 207 1
210 197 208 1
211 197 209 1
212 198 210 1
213 198 211 1
214 212 213 1
215 212 219 1
216 213 214 1
217 213 216 1
218 213 220 1
219 214 215 2
220 214 228 1
221 216 217 1
222 216 218 1
223 216 221 1
224 217 222 1
225 217 223 1
226 217 224 1
227 218 225 1
228 218 226 1
229 218 227 1
230 228 229 1
231 228 236 1
232 229 230 1
233 229 232 1
234 229 237 1
235 230 231 2
236 230 245 1
237 232 233 1
238 233 234 1
239 234 235 1
240 232 238 1
241 232 239 1
242 233 240 1
243 233 241 1
244 235 242 1
245 235 243 1
246 235 244 1
247 245 246 1
248 245 256 1
249 246 247 1
250 246 249 1
251 246 257 1
252 247 248 2
253 249 250 1
254 250 251 1
255 251 252 1
256 252 253 1
257 253 254 2
258 253 255 1
259 249 258 1
260 249 259 1
261 250 260 1
262 250 261 1
263 251 262 1
264 251 263 1
265 252 264 1
266 254 265 1
267 254 266 1
268 255 267 1
269 255 268 1
@<TRIPOS>SUBSTRUCTURE
1	GLU1	1	RESIDUE	1 ****	GLU
2	ASN2	16	RESIDUE	1 ****	ASN
3	HIS3	30	RESIDUE	1 ****	HIS
4	GLU4	47	RESIDUE	1 ****	GLU
5	SER5	62	RESIDUE	1 ****	SER
6	ILE6	73	RESIDUE	1 ****	ILE
7	LEU7	92	RESIDUE	1 ****	LEU
8	ASP8	111	RESIDUE	1 ****	ASP
9	GLU9	123	RESIDUE	1 ****	GLU
10	HIS10	138	RESIDUE	1 ****	HIS
11	VAL11	155	RESIDUE	1 ****	VAL
12	GLN12	171	RESIDUE	1 ****	GLN
13	ARG13	188	RESIDUE	1 ****	ARG
14	VAL14	212	RESIDUE	1 ****	VAL
15	MET15	228	RESIDUE	1 ****	MET
16	ARG16	245	RESIDUE	1 ****	ARG
