REMARK WARNING: 32 MAX_TORS EXCEEDED!!!
REMARK  71 active torsions:
REMARK  status: ('A' for Active; 'I' for Inactive)
REMARK    1  A    between atoms: N_1  and  CA_2 
REMARK    2  A    between atoms: CA_2  and  C_3 
REMARK    3  A    between atoms: CA_2  and  CB_5 
REMARK       I    between atoms: C_3  and  N_11 
REMARK    4  A    between atoms: CB_5  and  CG_6 
REMARK    5  A    between atoms: CG_6  and  CD_7 
REMARK    6  A    between atoms: N_11  and  CA_12 
REMARK    7  A    between atoms: CA_12  and  C_13 
REMARK    8  A    between atoms: CA_12  and  CB_15 
REMARK       I    between atoms: C_13  and  N_22 
REMARK    9  A    between atoms: CB_15  and  CG_16 
REMARK       I    between atoms: CG_16  and  ND2_17 
REMARK   10  A    between atoms: CA_23  and  C_24 
REMARK       I    between atoms: C_24  and  N_29 
REMARK   11  A    between atoms: N_29  and  CA_30 
REMARK   12  A    between atoms: CA_30  and  C_31 
REMARK   13  A    between atoms: CA_30  and  CB_33 
REMARK       I    between atoms: C_31  and  N_39 
REMARK   14  A    between atoms: CB_33  and  CG_34 
REMARK   15  A    between atoms: CG_34  and  CD_35 
REMARK   16  A    between atoms: N_39  and  CA_40 
REMARK   17  A    between atoms: CA_40  and  C_41 
REMARK   18  A    between atoms: CA_40  and  CB_43 
REMARK       I    between atoms: C_41  and  N_47 
REMARK   19  A    between atoms: CB_43  and  OG_44 
REMARK   20  A    between atoms: N_47  and  CA_48 
REMARK   21  A    between atoms: CA_48  and  C_49 
REMARK   22  A    between atoms: CA_48  and  CB_51 
REMARK       I    between atoms: C_49  and  N_56 
REMARK   23  A    between atoms: CB_51  and  CG1_52 
REMARK   24  A    between atoms: N_56  and  CA_57 
REMARK   25  A    between atoms: CA_57  and  C_58 
REMARK   26  A    between atoms: CA_57  and  CB_60 
REMARK       I    between atoms: C_58  and  N_69 
REMARK   27  A    between atoms: CB_60  and  CG_61 
REMARK   28  A    between atoms: CG_61  and  CD_62 
REMARK   29  A    between atoms: CD_62  and  CE_63 
REMARK   30  A    between atoms: CE_63  and  NZ_64 
REMARK   31  A    between atoms: N_69  and  CA_70 
REMARK   32  A    between atoms: CA_70  and  C_71 
REMARK   33  A    between atoms: CA_70  and  CB_73 
REMARK       I    between atoms: C_71  and  N_78 
REMARK   34  A    between atoms: CB_73  and  CG_74 
REMARK   35  A    between atoms: N_78  and  CA_79 
REMARK   36  A    between atoms: CA_79  and  C_80 
REMARK   37  A    between atoms: CA_79  and  CB_82 
REMARK       I    between atoms: C_80  and  N_88 
REMARK   38  A    between atoms: CB_82  and  CG_83 
REMARK   39  A    between atoms: CG_83  and  CD_84 
REMARK   40  A    between atoms: N_88  and  CA_89 
REMARK   41  A    between atoms: CA_89  and  C_90 
REMARK   42  A    between atoms: CA_89  and  CB_92 
REMARK       I    between atoms: C_90  and  N_100 
REMARK   43  A    between atoms: CB_92  and  CG_93 
REMARK   44  A    between atoms: N_100  and  CA_101 
REMARK   45  A    between atoms: CA_101  and  C_102 
REMARK   46  A    between atoms: CA_101  and  CB_104 
REMARK       I    between atoms: C_102  and  N_108 
REMARK   47  A    between atoms: N_108  and  CA_109 
REMARK   48  A    between atoms: CA_109  and  C_110 
REMARK   49  A    between atoms: CA_109  and  CB_112 
REMARK       I    between atoms: C_110  and  N_120 
REMARK   50  A    between atoms: CB_112  and  CG_113 
REMARK   51  A    between atoms: CG_113  and  CD_114 
REMARK       I    between atoms: CD_114  and  NE2_115 
REMARK   52  A    between atoms: N_120  and  CA_121 
REMARK   53  A    between atoms: CA_121  and  C_122 
REMARK   54  A    between atoms: CA_121  and  CB_124 
REMARK       I    between atoms: C_122  and  N_137 
REMARK   55  A    between atoms: CB_124  and  CG_125 
REMARK   56  A    between atoms: CG_125  and  CD_126 
REMARK   57  A    between atoms: CD_126  and  NE_127 
REMARK       I    between atoms: NE_127  and  CZ_128 
REMARK       I    between atoms: CZ_128  and  NH1_129 
REMARK       I    between atoms: CZ_128  and  NH2_130 
REMARK   58  A    between atoms: N_137  and  CA_138 
REMARK   59  A    between atoms: CA_138  and  C_139 
REMARK   60  A    between atoms: CA_138  and  CB_141 
REMARK       I    between atoms: C_139  and  N_145 
REMARK   61  A    between atoms: N_145  and  CA_146 
REMARK   62  A    between atoms: CA_146  and  C_147 
REMARK   63  A    between atoms: CA_146  and  CB_149 
REMARK       I    between atoms: C_147  and  N_154 
REMARK   64  A    between atoms: CB_149  and  CG_150 
REMARK   65  A    between atoms: CG_150  and  SD_151 
REMARK   66  A    between atoms: N_154  and  CA_155 
REMARK   67  A    between atoms: CA_155  and  C_156 
REMARK   68  A    between atoms: CA_155  and  CB_158 
REMARK   69  A    between atoms: CB_158  and  CG_159 
REMARK   70  A    between atoms: CG_159  and  CD_160 
REMARK   71  A    between atoms: CD_160  and  NE_161 
REMARK       I    between atoms: NE_161  and  CZ_162 
REMARK       I    between atoms: CZ_162  and  NH1_163 
ROOT
ATOM      1  CA  GLU d   9    1182.940 341.706-1172.203  0.00  0.00     0.177 C 
ENDROOT
BRANCH   1   2
ATOM      2  N   GLU d   9    1181.638 341.048-1172.257  0.00  0.00    -0.346 N 
ATOM      3  C   ASP d   8    1180.957 341.097-1173.352  0.00  0.00     0.241 C 
ATOM      4  O   ASP d   8    1181.430 341.701-1174.327  0.00  0.00    -0.271 OA
ATOM      5  H   GLU d   9    1181.275 340.563-1171.449  0.00  0.00     0.163 HD
BRANCH   3   6
ATOM      6  CA  ASP d   8    1179.611 340.417-1173.407  0.00  0.00     0.186 C 
BRANCH   6   7
ATOM      7  N   ASP d   8    1179.682 339.068-1172.853  0.00  0.00    -0.346 N 
ATOM      8  C   LYS d   7    1180.519 338.227-1173.359  0.00  0.00     0.241 C 
ATOM      9  O   LYS d   7    1181.239 338.588-1174.301  0.00  0.00    -0.271 OA
ATOM     10  H   ASP d   8    1179.085 338.797-1172.085  0.00  0.00     0.163 HD
BRANCH   8  11
ATOM     11  CA  LYS d   7    1180.592 336.831-1172.785  0.00  0.00     0.176 C 
BRANCH  11  12
ATOM     12  N   LYS d   7    1180.648 336.868-1171.326  0.00  0.00    -0.346 N 
ATOM     13  C   ILE d   6    1181.594 337.531-1170.752  0.00  0.00     0.241 C 
ATOM     14  O   ILE d   6    1182.429 338.119-1171.456  0.00  0.00    -0.271 OA
ATOM     15  H   LYS d   7    1179.956 336.381-1170.775  0.00  0.00     0.163 HD
BRANCH  13  16
ATOM     16  CA  ILE d   6    1181.651 337.569-1169.245  0.00  0.00     0.180 C 
BRANCH  16  17
ATOM     17  N   ILE d   6    1180.338 337.863-1168.678  0.00  0.00    -0.346 N 
ATOM     18  C   SER d   5    1179.733 338.946-1169.032  0.00  0.00     0.243 C 
ATOM     19  O   SER d   5    1180.280 339.700-1169.837  0.00  0.00    -0.271 OA
ATOM     20  H   ILE d   6    1179.910 337.229-1168.019  0.00  0.00     0.163 HD
BRANCH  18  21
ATOM     21  CA  SER d   5    1178.375 339.252-1168.446  0.00  0.00     0.200 C 
BRANCH  21  22
ATOM     22  N   SER d   5    1177.505 338.081-1168.505  0.00  0.00    -0.344 N 
ATOM     23  C   GLU d   4    1177.278 337.528-1169.648  0.00  0.00     0.241 C 
ATOM     24  O   GLU d   4    1177.804 338.007-1170.662  0.00  0.00    -0.271 OA
ATOM     25  H   SER d   5    1177.088 337.709-1167.663  0.00  0.00     0.163 HD
BRANCH  23  26
ATOM     26  CA  GLU d   4    1176.379 336.317-1169.709  0.00  0.00     0.177 C 
BRANCH  26  27
ATOM     27  N   GLU d   4    1176.739 335.346-1168.680  0.00  0.00    -0.346 N 
ATOM     28  C   PRO d   3    1177.943 334.885-1168.647  0.00  0.00     0.241 C 
ATOM     29  O   PRO d   3    1178.766 335.269-1169.479  0.00  0.00    -0.271 OA
ATOM     30  H   GLU d   4    1176.054 335.039-1168.003  0.00  0.00     0.163 HD
BRANCH  28  31
ATOM     31  CA  PRO d   3    1178.341 333.862-1167.570  0.00  0.00     0.179 C 
ATOM     32  N   PRO d   3    1177.890 334.271-1166.249  0.00  0.00    -0.337 N 
ATOM     33  C   ASN d   2    1178.411 335.266-1165.615  0.00  0.00     0.243 C 
ATOM     34  CD  PRO d   3    1176.812 333.478-1165.700  0.00  0.00     0.127 C 
ATOM     35  O   ASN d   2    1179.326 335.897-1166.144  0.00  0.00    -0.271 OA
ATOM     36  CG  PRO d   3    1176.354 332.659-1166.910  0.00  0.00     0.022 C 
ATOM     37  CB  PRO d   3    1177.637 332.507-1167.740  0.00  0.00     0.037 C 
BRANCH  33  38
ATOM     38  CA  ASN d   2    1177.880 335.622-1164.246  0.00  0.00     0.185 C 
BRANCH  38  39
ATOM     39  N   ASN d   2    1176.421 335.661-1164.246  0.00  0.00    -0.346 N 
ATOM     40  C   GLU d   1    1175.816 336.446-1165.071  0.00  0.00     0.242 C 
ATOM     41  O   GLU d   1    1176.492 337.145-1165.840  0.00  0.00    -0.271 OA
ATOM     42  H   ASN d   2    1175.893 335.081-1163.610  0.00  0.00     0.163 HD
BRANCH  40  43
ATOM     43  CA  GLU d   1    1174.307 336.486-1165.071  0.00  0.00     0.191 C 
BRANCH  43  44
ATOM     44  N   GLU d   1    1173.748 335.137-1165.071  0.00  0.00    -0.326 NA
ATOM     45  H   GLU d   1    1174.375 334.258-1165.071  0.00  0.00     0.180 HD
ENDBRANCH  43  44
BRANCH  43  46
ATOM     46  CB  GLU d   1    1173.784 337.271-1163.834  0.00  0.00     0.047 C 
BRANCH  46  47
ATOM     47  CG  GLU d   1    1174.259 338.756-1163.723  0.00  0.00     0.116 C 
BRANCH  47  48
ATOM     48  CD  GLU d   1    1173.835 339.560-1162.508  0.00  0.00     0.172 C 
ATOM     49  OE1 GLU d   1    1173.107 339.058-1161.630  0.00  0.00    -0.648 OA
ATOM     50  OE2 GLU d   1    1174.265 340.730-1162.436  0.00  0.00    -0.648 OA
ENDBRANCH  47  48
ENDBRANCH  46  47
ENDBRANCH  43  46
ENDBRANCH  40  43
ENDBRANCH  38  39
BRANCH  38  51
ATOM     51  CB  ASN d   2    1178.372 334.599-1163.182  0.00  0.00     0.137 C 
BRANCH  51  52
ATOM     52  CG  ASN d   2    1177.909 334.823-1161.738  0.00  0.00     0.217 C 
ATOM     53  ND2 ASN d   2    1178.503 335.738-1161.020  0.00  0.00    -0.370 N 
ATOM     54 21HD ASN d   2    1178.023 335.911-1160.134  0.00  0.00     0.159 HD
ATOM     55 22HD ASN d   2    1179.205 336.309-1161.490  0.00  0.00     0.159 HD
ATOM     56  OD1 ASN d   2    1176.988 334.189-1161.244  0.00  0.00    -0.274 OA
ENDBRANCH  51  52
ENDBRANCH  38  51
ENDBRANCH  33  38
ENDBRANCH  28  31
ENDBRANCH  26  27
BRANCH  26  57
ATOM     57  CB  GLU d   4    1174.890 336.735-1169.539  0.00  0.00     0.045 C 
BRANCH  57  58
ATOM     58  CG  GLU d   4    1174.342 337.739-1170.604  0.00  0.00     0.116 C 
BRANCH  58  59
ATOM     59  CD  GLU d   4    1172.915 338.235-1170.460  0.00  0.00     0.172 C 
ATOM     60  OE1 GLU d   4    1172.189 337.837-1169.529  0.00  0.00    -0.648 OA
ATOM     61  OE2 GLU d   4    1172.526 339.065-1171.308  0.00  0.00    -0.648 OA
ENDBRANCH  58  59
ENDBRANCH  57  58
ENDBRANCH  26  57
ENDBRANCH  23  26
ENDBRANCH  21  22
BRANCH  21  62
ATOM     62  CB  SER d   5    1178.486 339.784-1166.996  0.00  0.00     0.199 C 
BRANCH  62  63
ATOM     63  OG  SER d   5    1179.218 338.905-1166.135  0.00  0.00    -0.398 OA
ATOM     64  HG  SER d   5    1178.729 338.080-1166.084  0.00  0.00     0.209 HD
ENDBRANCH  62  63
ENDBRANCH  21  62
ENDBRANCH  18  21
ENDBRANCH  16  17
BRANCH  16  65
ATOM     65  CB  ILE d   6    1182.251 336.232-1168.645  0.00  0.00     0.013 C 
ATOM     66  CG2 ILE d   6    1183.692 335.931-1169.160  0.00  0.00     0.012 C 
BRANCH  65  67
ATOM     67  CG1 ILE d   6    1182.271 336.170-1167.084  0.00  0.00     0.002 C 
ATOM     68  CD1 ILE d   6    1182.541 334.781-1166.469  0.00  0.00     0.005 C 
ENDBRANCH  65  67
ENDBRANCH  16  65
ENDBRANCH  13  16
ENDBRANCH  11  12
BRANCH  11  69
ATOM     69  CB  LYS d   7    1179.372 335.981-1173.234  0.00  0.00     0.035 C 
BRANCH  69  70
ATOM     70  CG  LYS d   7    1179.268 335.818-1174.771  0.00  0.00     0.004 C 
BRANCH  70  71
ATOM     71  CD  LYS d   7    1178.040 335.040-1175.254  0.00  0.00     0.027 C 
BRANCH  71  72
ATOM     72  CE  LYS d   7    1178.027 335.019-1176.788  0.00  0.00     0.229 C 
BRANCH  72  73
ATOM     73  NZ  LYS d   7    1176.949 334.130-1177.256  0.00  0.00    -0.079 N 
ATOM     74  3HZ LYS d   7    1177.329 333.194-1177.251  0.00  0.00     0.274 HD
ATOM     75  1HZ LYS d   7    1176.126 334.207-1176.646  0.00  0.00     0.274 HD
ATOM     76  2HZ LYS d   7    1176.632 334.390-1178.196  0.00  0.00     0.274 HD
ENDBRANCH  72  73
ENDBRANCH  71  72
ENDBRANCH  70  71
ENDBRANCH  69  70
ENDBRANCH  11  69
ENDBRANCH   8  11
ENDBRANCH   6   7
BRANCH   6  77
ATOM     77  CB  ASP d   8    1178.533 341.256-1172.666  0.00  0.00     0.147 C 
BRANCH  77  78
ATOM     78  CG  ASP d   8    1178.314 342.676-1173.208  0.00  0.00     0.175 C 
ATOM     79  OD1 ASP d   8    1178.377 342.874-1174.439  0.00  0.00    -0.648 OA
ATOM     80  OD2 ASP d   8    1178.122 343.603-1172.393  0.00  0.00    -0.648 OA
ENDBRANCH  77  78
ENDBRANCH   6  77
ENDBRANCH   3   6
ENDBRANCH   1   2
BRANCH   1  81
ATOM     81  C   GLU d   9    1183.858 341.178-1173.279  0.00  0.00     0.241 C 
ATOM     82  O   GLU d   9    1184.521 341.932-1174.005  0.00  0.00    -0.271 OA
ATOM     83  N   HIS d  10    1183.955 339.902-1173.447  0.00  0.00    -0.346 N 
ATOM     84  H   HIS d  10    1183.425 339.267-1172.867  0.00  0.00     0.163 HD
BRANCH  83  85
ATOM     85  CA  HIS d  10    1184.843 339.390-1174.487  0.00  0.00     0.182 C 
BRANCH  85  86
ATOM     86  C   HIS d  10    1184.475 339.954-1175.839  0.00  0.00     0.241 C 
ATOM     87  O   HIS d  10    1185.327 340.418-1176.611  0.00  0.00    -0.271 OA
ATOM     88  N   VAL d  11    1183.237 339.952-1176.201  0.00  0.00    -0.346 N 
ATOM     89  H   VAL d  11    1182.524 339.579-1175.590  0.00  0.00     0.163 HD
BRANCH  88  90
ATOM     90  CA  VAL d  11    1182.881 340.496-1177.508  0.00  0.00     0.180 C 
BRANCH  90  91
ATOM     91  C   VAL d  11    1183.345 341.927-1177.642  0.00  0.00     0.241 C 
ATOM     92  O   VAL d  11    1183.945 342.332-1178.646  0.00  0.00    -0.271 OA
ATOM     93  N   GLN d  12    1183.108 342.754-1176.680  0.00  0.00    -0.346 N 
ATOM     94  H   GLN d  12    1182.619 342.448-1175.851  0.00  0.00     0.163 HD
BRANCH  93  95
ATOM     95  CA  GLN d  12    1183.555 344.137-1176.809  0.00  0.00     0.177 C 
BRANCH  95  96
ATOM     96  C   GLN d  12    1185.045 344.205-1177.047  0.00  0.00     0.241 C 
ATOM     97  O   GLN d  12    1185.531 344.912-1177.927  0.00  0.00    -0.271 OA
ATOM     98  N   ARG d  13    1185.831 343.499-1176.306  0.00  0.00    -0.346 N 
ATOM     99  H   ARG d  13    1185.455 342.909-1175.577  0.00  0.00     0.163 HD
BRANCH  98 100
ATOM    100  CA  ARG d  13    1187.271 343.565-1176.538  0.00  0.00     0.176 C 
BRANCH 100 101
ATOM    101  C   ARG d  13    1187.606 343.193-1177.963  0.00  0.00     0.241 C 
ATOM    102  O   ARG d  13    1188.374 343.864-1178.648  0.00  0.00    -0.271 OA
ATOM    103  N   VAL d  14    1187.071 342.137-1178.476  0.00  0.00    -0.346 N 
ATOM    104  H   VAL d  14    1186.436 341.569-1177.933  0.00  0.00     0.163 HD
BRANCH 103 105
ATOM    105  CA  VAL d  14    1187.395 341.777-1179.853  0.00  0.00     0.180 C 
BRANCH 105 106
ATOM    106  C   VAL d  14    1187.064 342.906-1180.800  0.00  0.00     0.241 C 
ATOM    107  O   VAL d  14    1187.857 343.287-1181.670  0.00  0.00    -0.271 OA
ATOM    108  N   MET d  15    1185.919 343.491-1180.698  0.00  0.00    -0.346 N 
ATOM    109  H   MET d  15    1185.254 343.199-1179.996  0.00  0.00     0.163 HD
BRANCH 108 110
ATOM    110  CA  MET d  15    1185.597 344.583-1181.612  0.00  0.00     0.177 C 
BRANCH 110 111
ATOM    111  C   MET d  15    1186.626 345.684-1181.526  0.00  0.00     0.241 C 
ATOM    112  O   MET d  15    1187.128 346.194-1182.540  0.00  0.00    -0.271 OA
ATOM    113  N   ARG d  16    1186.995 346.106-1180.364  0.00  0.00    -0.347 N 
ATOM    114  H   ARG d  16    1186.601 345.706-1179.525  0.00  0.00     0.163 HD
BRANCH 113 115
ATOM    115  CA  ARG d  16    1187.991 347.171-1180.282  0.00  0.00     0.162 C 
BRANCH 115 116
ATOM    116  C   ARG d  16    1189.262 346.778-1180.999  0.00  0.00     0.219 C 
ATOM    117  O   ARG d  16    1189.376 345.701-1181.579  0.00  0.00    -0.287 OA
ENDBRANCH 115 116
BRANCH 115 118
ATOM    118  CB  ARG d  16    1188.260 347.490-1178.784  0.00  0.00     0.035 C 
BRANCH 118 119
ATOM    119  CG  ARG d  16    1189.085 348.780-1178.513  0.00  0.00     0.023 C 
BRANCH 119 120
ATOM    120  CD  ARG d  16    1189.335 349.001-1177.012  0.00  0.00     0.138 C 
BRANCH 120 121
ATOM    121  NE  ARG d  16    1190.110 350.261-1176.813  0.00  0.00    -0.227 N 
ATOM    122  CZ  ARG d  16    1190.502 350.744-1175.637  0.00  0.00     0.665 C 
ATOM    123  NH1 ARG d  16    1190.255 350.161-1174.498  0.00  0.00    -0.235 N 
ATOM    124  NH2 ARG d  16    1191.165 351.858-1175.620  0.00  0.00    -0.235 N 
ATOM    125 11HH ARG d  16    1189.730 349.287-1174.582  0.00  0.00     0.174 HD
ATOM    126 12HH ARG d  16    1190.590 350.597-1173.638  0.00  0.00     0.174 HD
ATOM    127 21HH ARG d  16    1191.350 352.300-1176.523  0.00  0.00     0.174 HD
ATOM    128 22HH ARG d  16    1191.455 352.214-1174.708  0.00  0.00     0.174 HD
ATOM    129  HE  ARG d  16    1190.388 350.841-1177.610  0.00  0.00     0.177 HD
ENDBRANCH 120 121
ENDBRANCH 119 120
ENDBRANCH 118 119
ENDBRANCH 115 118
ENDBRANCH 113 115
ENDBRANCH 110 111
BRANCH 110 130
ATOM    130  CB  MET d  15    1184.175 345.128-1181.303  0.00  0.00     0.045 C 
BRANCH 130 131
ATOM    131  CG  MET d  15    1183.014 344.129-1181.494  0.00  0.00     0.076 C 
BRANCH 131 132
ATOM    132  SD  MET d  15    1181.440 344.994-1181.380  0.00  0.00    -0.173 SA
ATOM    133  CE  MET d  15    1180.359 343.563-1181.242  0.00  0.00     0.089 C 
ENDBRANCH 131 132
ENDBRANCH 130 131
ENDBRANCH 110 130
ENDBRANCH 108 110
ENDBRANCH 105 106
BRANCH 105 134
ATOM    134  CB  VAL d  14    1186.623 340.459-1180.258  0.00  0.00     0.009 C 
ATOM    135  CG1 VAL d  14    1186.712 340.040-1181.752  0.00  0.00     0.012 C 
ATOM    136  CG2 VAL d  14    1187.056 339.208-1179.457  0.00  0.00     0.012 C 
ENDBRANCH 105 134
ENDBRANCH 103 105
ENDBRANCH 100 101
BRANCH 100 137
ATOM    137  CB  ARG d  13    1187.985 342.628-1175.523  0.00  0.00     0.036 C 
BRANCH 137 138
ATOM    138  CG  ARG d  13    1189.530 342.782-1175.443  0.00  0.00     0.023 C 
BRANCH 138 139
ATOM    139  CD  ARG d  13    1190.158 341.796-1174.445  0.00  0.00     0.138 C 
BRANCH 139 140
ATOM    140  NE  ARG d  13    1191.635 342.004-1174.396  0.00  0.00    -0.227 N 
ATOM    141  CZ  ARG d  13    1192.484 341.314-1173.640  0.00  0.00     0.665 C 
ATOM    142  NH1 ARG d  13    1192.120 340.350-1172.842  0.00  0.00    -0.235 N 
ATOM    143  NH2 ARG d  13    1193.744 341.613-1173.698  0.00  0.00    -0.235 N 
ATOM    144 11HH ARG d  13    1191.115 340.163-1172.844  0.00  0.00     0.174 HD
ATOM    145 12HH ARG d  13    1192.834 339.868-1172.293  0.00  0.00     0.174 HD
ATOM    146 21HH ARG d  13    1194.010 342.371-1174.330  0.00  0.00     0.174 HD
ATOM    147 22HH ARG d  13    1194.380 341.073-1173.109  0.00  0.00     0.174 HD
ATOM    148  HE  ARG d  13    1192.086 342.726-1174.967  0.00  0.00     0.177 HD
ENDBRANCH 139 140
ENDBRANCH 138 139
ENDBRANCH 137 138
ENDBRANCH 100 137
ENDBRANCH  98 100
ENDBRANCH  95  96
BRANCH  95 149
ATOM    149  CB  GLN d  12    1183.165 344.905-1175.526  0.00  0.00     0.044 C 
BRANCH 149 150
ATOM    150  CG  GLN d  12    1183.524 346.427-1175.496  0.00  0.00     0.105 C 
BRANCH 150 151
ATOM    151  CD  GLN d  12    1183.222 347.241-1174.232  0.00  0.00     0.215 C 
ATOM    152  NE2 GLN d  12    1182.656 346.665-1173.203  0.00  0.00    -0.370 N 
ATOM    153 21HE GLN d  12    1182.549 347.260-1172.379  0.00  0.00     0.159 HD
ATOM    154 22HE GLN d  12    1182.493 345.661-1173.305  0.00  0.00     0.159 HD
ATOM    155  OE1 GLN d  12    1183.523 348.422-1174.156  0.00  0.00    -0.274 OA
ENDBRANCH 150 151
ENDBRANCH 149 150
ENDBRANCH  95 149
ENDBRANCH  93  95
ENDBRANCH  90  91
BRANCH  90 156
ATOM    156  CB  VAL d  11    1181.319 340.389-1177.727  0.00  0.00     0.009 C 
ATOM    157  CG1 VAL d  11    1180.750 341.092-1178.990  0.00  0.00     0.012 C 
ATOM    158  CG2 VAL d  11    1180.795 338.935-1177.799  0.00  0.00     0.012 C 
ENDBRANCH  90 156
ENDBRANCH  88  90
ENDBRANCH  85  86
BRANCH  85 159
ATOM    159  CB  HIS d  10    1184.679 337.861-1174.481  0.00  0.00     0.095 C 
BRANCH 159 160
ATOM    160  CG  HIS d  10    1185.965 337.152-1174.173  0.00  0.00     0.053 A 
ATOM    161  CD2 HIS d  10    1186.347 336.818-1172.880  0.00  0.00     0.116 A 
ATOM    162  NE2 HIS d  10    1187.562 336.187-1172.947  0.00  0.00    -0.359 N 
ATOM    163  CE1 HIS d  10    1187.824 336.189-1174.282  0.00  0.00     0.207 A 
ATOM    164  2HE HIS d  10    1188.129 335.811-1172.173  0.00  0.00     0.166 HD
ATOM    165  ND1 HIS d  10    1186.917 336.746-1175.105  0.00  0.00    -0.247 NA
ENDBRANCH 159 160
ENDBRANCH  85 159
ENDBRANCH  83  85
ENDBRANCH   1  81
BRANCH   1 166
ATOM    166  CB  GLU d   9    1183.575 341.500-1170.798  0.00  0.00     0.045 C 
BRANCH 166 167
ATOM    167  CG  GLU d   9    1184.957 342.193-1170.570  0.00  0.00     0.116 C 
BRANCH 167 168
ATOM    168  CD  GLU d   9    1185.660 341.982-1169.242  0.00  0.00     0.172 C 
ATOM    169  OE1 GLU d   9    1185.139 341.291-1168.344  0.00  0.00    -0.648 OA
ATOM    170  OE2 GLU d   9    1186.779 342.520-1169.111  0.00  0.00    -0.648 OA
ENDBRANCH 167 168
ENDBRANCH 166 167
ENDBRANCH   1 166
TORSDOF 71
