@<TRIPOS>MOLECULE
14-14
263 264 16              
SMALL
USER_CHARGES
@<TRIPOS>ATOM
1	   N	2275.325	695.196	-2364.177	N.3	1	GLU1	-0.516	
2	  CA	2275.885	696.545	-2364.177	C.3	1	GLU1	0.040	
3	   C	2277.394	696.505	-2364.177	C.2	1	GLU1	0.537	
4	   O	2278.069	697.204	-2364.946	O.2	1	GLU1	-0.582	
5	  CB	2275.361	697.330	-2362.940	C.3	1	GLU1	0.056	
6	  CG	2275.836	698.815	-2362.829	C.3	1	GLU1	0.014	
7	  CD	2275.412	699.619	-2361.614	C.2	1	GLU1	0.805	
8	 OE1	2274.684	699.117	-2360.736	O.co2	1	GLU1	-0.819	
9	 OE2	2275.843	700.789	-2361.542	O.co2	1	GLU1	-0.819	
10	   H	2275.952	694.317	-2364.177	 H	1	GLU1	0.294	
11	  HA	2275.558	697.063	-2365.097	 H	1	GLU1	0.111	
12	 2HB	2275.650	696.799	-2362.010	 H	1	GLU1	-0.017	
13	 3HB	2274.254	697.320	-2362.927	 H	1	GLU1	-0.017	
14	 2HG	2275.526	699.400	-2363.710	 H	1	GLU1	-0.043	
15	 3HG	2276.937	698.882	-2362.800	 H	1	GLU1	-0.043	
16	   N	2277.998	695.719	-2363.352	N.am	2	ASN2	-0.416	
17	  CA	2279.457	695.680	-2363.352	C.3	2	ASN2	0.014	
18	   C	2279.989	695.324	-2364.720	C.2	2	ASN2	0.597	
19	   O	2280.904	695.955	-2365.249	O.2	2	ASN2	-0.568	
20	  CB	2279.949	694.657	-2362.287	C.3	2	ASN2	-0.204	
21	  CG	2279.486	694.881	-2360.844	C.2	2	ASN2	0.713	
22	 ND2	2280.080	695.796	-2360.126	N.pl3	2	ASN2	-0.919	
23	 OD1	2278.564	694.247	-2360.350	O.2	2	ASN2	-0.593	
24	   H	2277.470	695.139	-2362.716	 H	2	ASN2	0.272	
25	  HA	2279.835	696.690	-2363.106	 H	2	ASN2	0.105	
26	 2HB	2281.053	694.598	-2362.291	 H	2	ASN2	0.080	
27	 3HB	2279.620	693.639	-2362.573	 H	2	ASN2	0.080	
28	1HD2	2279.599	695.969	-2359.239	 H	2	ASN2	0.420	
29	2HD2	2280.781	696.367	-2360.595	 H	2	ASN2	0.420	
30	   N	2279.467	694.330	-2365.355	N.am	3	PRO3	-0.255	
31	  CA	2279.919	693.920	-2366.676	C.3	3	PRO3	-0.027	
32	   C	2279.522	694.944	-2367.753	C.2	3	PRO3	0.590	
33	   O	2280.345	695.327	-2368.584	O.2	3	PRO3	-0.575	
34	  CB	2279.215	692.566	-2366.846	C.3	3	PRO3	-0.007	
35	  CG	2277.931	692.718	-2366.016	C.3	3	PRO3	0.019	
36	  CD	2278.389	693.537	-2364.806	C.3	3	PRO3	0.019	
37	  HA	2281.005	693.800	-2366.689	 H	3	PRO3	0.064	
38	 2HB	2279.838	691.785	-2366.405	 H	3	PRO3	0.025	
39	 3HB	2279.017	692.317	-2367.891	 H	3	PRO3	0.025	
40	 2HG	2277.504	691.756	-2365.725	 H	3	PRO3	0.021	
41	 3HG	2277.194	693.289	-2366.583	 H	3	PRO3	0.021	
42	 2HD	2278.778	692.887	-2364.019	 H	3	PRO3	0.039	
43	 3HD	2277.592	694.173	-2364.413	 H	3	PRO3	0.039	
44	   N	2278.317	695.404	-2367.786	N.am	4	GLU4	-0.516	
45	  CA	2277.958	696.375	-2368.816	C.3	4	GLU4	0.040	
46	   C	2278.857	697.586	-2368.754	C.2	4	GLU4	0.537	
47	   O	2279.384	698.065	-2369.768	O.2	4	GLU4	-0.582	
48	  CB	2276.469	696.794	-2368.646	C.3	4	GLU4	0.056	
49	  CG	2275.922	697.798	-2369.712	C.3	4	GLU4	0.014	
50	  CD	2274.495	698.295	-2369.569	C.2	4	GLU4	0.805	
51	 OE1	2273.769	697.897	-2368.638	O.co2	4	GLU4	-0.819	
52	 OE2	2274.106	699.124	-2370.417	O.co2	4	GLU4	-0.819	
53	   H	2277.632	695.098	-2367.109	 H	4	GLU4	0.294	
54	  HA	2278.089	695.905	-2369.807	 H	4	GLU4	0.111	
55	 2HB	2276.316	697.234	-2367.639	 H	4	GLU4	-0.017	
56	 3HB	2275.821	695.896	-2368.652	 H	4	GLU4	-0.017	
57	 2HG	2276.004	697.383	-2370.730	 H	4	GLU4	-0.043	
58	 3HG	2276.510	698.730	-2369.723	 H	4	GLU4	-0.043	
59	   N	2279.084	698.139	-2367.611	N.am	5	SER5	-0.416	
60	  CA	2279.954	699.310	-2367.552	C.3	5	SER5	-0.025	
61	   C	2281.313	699.004	-2368.137	C.2	5	SER5	0.597	
62	   O	2281.861	699.757	-2368.942	O.2	5	SER5	-0.568	
63	  CB	2280.065	699.842	-2366.102	C.3	5	SER5	0.212	
64	  OG	2280.796	698.962	-2365.240	O.3	5	SER5	-0.655	
65	   H	2278.667	697.767	-2366.770	 H	5	SER5	0.272	
66	  HA	2279.505	700.100	-2368.181	 H	5	SER5	0.084	
67	 2HB	2279.065	700.036	-2365.668	 H	5	SER5	0.035	
68	 3HB	2280.571	700.827	-2366.104	 H	5	SER5	0.035	
69	  HG	2280.307	698.137	-2365.190	 H	5	SER5	0.428	
70	   N	2281.917	697.920	-2367.783	N.am	6	ILE6	-0.416	
71	  CA	2283.230	697.625	-2368.349	C.3	6	ILE6	-0.060	
72	   C	2283.173	697.587	-2369.857	C.2	6	ILE6	0.597	
73	   O	2284.008	698.174	-2370.561	O.2	6	ILE6	-0.568	
74	  CB	2283.829	696.288	-2367.749	C.3	6	ILE6	0.130	
75	 CG1	2283.848	696.226	-2366.188	C.3	6	ILE6	-0.043	
76	 CG2	2285.271	695.986	-2368.264	C.3	6	ILE6	-0.320	
77	 CD1	2284.118	694.837	-2365.573	C.3	6	ILE6	-0.066	
78	   H	2281.488	697.286	-2367.124	 H	6	ILE6	0.272	
79	  HA	2283.905	698.459	-2368.081	 H	6	ILE6	0.087	
80	  HB	2283.171	695.463	-2368.093	 H	6	ILE6	0.019	
81	2HG1	2282.866	696.546	-2365.792	 H	6	ILE6	0.024	
82	3HG1	2284.564	696.968	-2365.783	 H	6	ILE6	0.024	
83	1HG2	2285.330	695.893	-2369.362	 H	6	ILE6	0.088	
84	2HG2	2285.993	696.768	-2367.961	 H	6	ILE6	0.088	
85	3HG2	2285.660	695.024	-2367.885	 H	6	ILE6	0.088	
86	1HD1	2283.389	694.083	-2365.927	 H	6	ILE6	0.019	
87	2HD1	2285.128	694.458	-2365.808	 H	6	ILE6	0.019	
88	3HD1	2284.041	694.867	-2364.470	 H	6	ILE6	0.019	
89	   N	2282.227	696.924	-2370.430	N.am	7	LEU7	-0.416	
90	  CA	2282.172	696.888	-2371.889	C.3	7	LEU7	-0.052	
91	   C	2282.100	698.283	-2372.462	C.2	7	LEU7	0.597	
92	   O	2282.821	698.645	-2373.404	O.2	7	LEU7	-0.568	
93	  CB	2280.969	696.028	-2372.369	C.3	7	LEU7	-0.110	
94	  CG	2280.896	694.549	-2371.903	C.3	7	LEU7	0.353	
95	 CD1	2279.706	693.843	-2372.568	C.3	7	LEU7	-0.412	
96	 CD2	2282.189	693.769	-2372.194	C.3	7	LEU7	-0.412	
97	   H	2281.535	696.437	-2369.879	 H	7	LEU7	0.272	
98	  HA	2283.114	696.448	-2372.263	 H	7	LEU7	0.092	
99	 2HB	2280.946	696.044	-2373.477	 H	7	LEU7	0.046	
100	 3HB	2280.029	696.531	-2372.065	 H	7	LEU7	0.046	
101	  HG	2280.726	694.541	-2370.805	 H	7	LEU7	-0.036	
102	1HD1	2278.748	694.352	-2372.345	 H	7	LEU7	0.100	
103	2HD1	2279.805	693.803	-2373.669	 H	7	LEU7	0.100	
104	3HD1	2279.598	692.802	-2372.212	 H	7	LEU7	0.100	
105	1HD2	2282.464	693.799	-2373.264	 H	7	LEU7	0.100	
106	2HD2	2283.042	694.180	-2371.623	 H	7	LEU7	0.100	
107	3HD2	2282.107	692.707	-2371.898	 H	7	LEU7	0.100	
108	   N	2281.263	699.124	-2371.956	N.am	8	ASP8	-0.516	
109	  CA	2281.193	700.474	-2372.510	C.3	8	ASP8	0.038	
110	   C	2282.541	701.153	-2372.453	C.2	8	ASP8	0.537	
111	   O	2283.013	701.757	-2373.428	O.2	8	ASP8	-0.582	
112	  CB	2280.116	701.314	-2371.769	C.3	8	ASP8	-0.030	
113	  CG	2279.898	702.734	-2372.310	C.2	8	ASP8	0.799	
114	 OD1	2279.962	702.932	-2373.541	O.co2	8	ASP8	-0.801	
115	 OD2	2279.706	703.661	-2371.495	O.co2	8	ASP8	-0.801	
116	   H	2280.665	698.854	-2371.188	 H	8	ASP8	0.294	
117	  HA	2280.910	700.395	-2373.577	 H	8	ASP8	0.088	
118	 2HB	2280.373	701.397	-2370.697	 H	8	ASP8	-0.012	
119	 3HB	2279.136	700.809	-2371.802	 H	8	ASP8	-0.012	
120	   N	2283.220	701.103	-2371.358	N.am	9	GLU9	-0.516	
121	  CA	2284.524	701.760	-2371.303	C.3	9	GLU9	0.040	
122	   C	2285.441	701.232	-2372.379	C.2	9	GLU9	0.537	
123	   O	2286.105	701.985	-2373.105	O.2	9	GLU9	-0.582	
124	  CB	2285.157	701.553	-2369.898	C.3	9	GLU9	0.056	
125	  CG	2286.540	702.245	-2369.669	C.3	9	GLU9	0.014	
126	  CD	2287.242	702.031	-2368.341	C.2	9	GLU9	0.805	
127	 OE1	2286.720	701.341	-2367.444	O.co2	9	GLU9	-0.819	
128	 OE2	2288.362	702.569	-2368.210	O.co2	9	GLU9	-0.819	
129	   H	2282.857	700.617	-2370.551	 H	9	GLU9	0.294	
130	  HA	2284.382	702.842	-2371.479	 H	9	GLU9	0.111	
131	 2HB	2285.270	700.468	-2369.694	 H	9	GLU9	-0.017	
132	 3HB	2284.460	701.907	-2369.114	 H	9	GLU9	-0.017	
133	 2HG	2286.469	703.335	-2369.809	 H	9	GLU9	-0.043	
134	 3HG	2287.287	701.899	-2370.403	 H	9	GLU9	-0.043	
135	   N	2285.537	699.956	-2372.548	N.am	10	HIS10	-0.416	
136	  CA	2286.424	699.444	-2373.588	C.3	10	HIS10	-0.058	
137	   C	2286.057	700.008	-2374.940	C.2	10	HIS10	0.597	
138	   O	2286.910	700.472	-2375.712	O.2	10	HIS10	-0.568	
139	  CB	2286.260	697.915	-2373.583	C.3	10	HIS10	-0.007	
140	  CG	2287.545	697.204	-2373.275	C.2	10	HIS10	0.187	
141	 CD2	2287.927	696.870	-2371.982	C.2	10	HIS10	-0.221	
142	 ND1	2288.497	696.798	-2374.207	N.2	10	HIS10	-0.543	
143	 CE1	2289.403	696.240	-2373.384	C.2	10	HIS10	0.163	
144	 NE2	2289.141	696.237	-2372.049	N.pl3	10	HIS10	-0.280	
145	   H	2285.006	699.321	-2371.969	 H	10	HIS10	0.272	
146	  HA	2287.444	699.801	-2373.364	 H	10	HIS10	0.136	
147	 2HB	2285.894	697.548	-2374.562	 H	10	HIS10	0.037	
148	 3HB	2285.504	697.579	-2372.842	 H	10	HIS10	0.037	
149	 2HD	2287.341	697.085	-2371.093	 H	10	HIS10	0.186	
150	 1HE	2290.294	695.818	-2373.831	 H	10	HIS10	0.144	
151	 2HE	2289.708	695.860	-2371.276	 H	10	HIS10	0.334	
152	   N	2284.820	700.008	-2375.302	N.am	11	VAL11	-0.416	
153	  CA	2284.464	700.553	-2376.610	C.3	11	VAL11	-0.087	
154	   C	2284.930	701.983	-2376.743	C.2	11	VAL11	0.597	
155	   O	2285.531	702.388	-2377.746	O.2	11	VAL11	-0.568	
156	  CB	2282.903	700.447	-2376.829	C.3	11	VAL11	0.299	
157	 CG1	2282.335	701.151	-2378.092	C.3	11	VAL11	-0.319	
158	 CG2	2282.378	698.993	-2376.901	C.3	11	VAL11	-0.319	
159	   H	2284.106	699.635	-2374.692	 H	11	VAL11	0.272	
160	  HA	2284.984	699.970	-2377.392	 H	11	VAL11	0.097	
161	  HB	2282.416	700.928	-2375.954	 H	11	VAL11	-0.030	
162	1HG1	2282.773	700.758	-2379.029	 H	11	VAL11	0.079	
163	2HG1	2281.236	701.044	-2378.174	 H	11	VAL11	0.079	
164	3HG1	2282.513	702.243	-2378.083	 H	11	VAL11	0.079	
165	1HG2	2282.667	698.406	-2376.010	 H	11	VAL11	0.079	
166	2HG2	2281.272	698.957	-2376.943	 H	11	VAL11	0.079	
167	3HG2	2282.759	698.452	-2377.787	 H	11	VAL11	0.079	
168	   N	2284.693	702.810	-2375.781	N.am	12	GLN12	-0.416	
169	  CA	2285.143	704.192	-2375.909	C.3	12	GLN12	-0.003	
170	   C	2286.632	704.259	-2376.147	C.2	12	GLN12	0.597	
171	   O	2287.120	704.966	-2377.026	O.2	12	GLN12	-0.568	
172	  CB	2284.752	704.961	-2374.626	C.3	12	GLN12	-0.004	
173	  CG	2285.114	706.482	-2374.596	C.3	12	GLN12	-0.064	
174	  CD	2284.812	707.297	-2373.332	C.2	12	GLN12	0.695	
175	 NE2	2284.245	706.721	-2372.302	N.pl3	12	GLN12	-0.941	
176	 OE1	2285.115	708.477	-2373.255	O.2	12	GLN12	-0.609	
177	   H	2284.205	702.504	-2374.951	 H	12	GLN12	0.272	
178	  HA	2284.643	704.648	-2376.784	 H	12	GLN12	0.085	
179	 2HB	2285.228	704.461	-2373.757	 H	12	GLN12	0.017	
180	 3HB	2283.662	704.854	-2374.463	 H	12	GLN12	0.017	
181	 2HG	2284.636	707.003	-2375.447	 H	12	GLN12	0.035	
182	 3HG	2286.197	706.624	-2374.762	 H	12	GLN12	0.035	
183	1HE2	2284.138	707.316	-2371.479	 H	12	GLN12	0.425	
184	2HE2	2284.081	705.718	-2372.405	 H	12	GLN12	0.425	
185	   N	2287.417	703.552	-2375.406	N.am	13	ARG13	-0.348	
186	  CA	2288.857	703.617	-2375.637	C.3	13	ARG13	-0.264	
187	   C	2289.193	703.245	-2377.062	C.2	13	ARG13	0.734	
188	   O	2289.962	703.916	-2377.747	O.2	13	ARG13	-0.589	
189	  CB	2289.570	702.679	-2374.623	C.3	13	ARG13	-0.001	
190	  CG	2291.115	702.831	-2374.542	C.3	13	ARG13	0.039	
191	  CD	2291.742	701.844	-2373.544	C.3	13	ARG13	0.049	
192	  NE	2293.219	702.051	-2373.494	N.pl3	13	ARG13	-0.530	
193	  CZ	2294.068	701.360	-2372.739	C.cat	13	ARG13	0.808	
194	 NH1	2293.703	700.396	-2371.940	N.pl3	13	ARG13	-0.863	
195	 NH2	2295.327	701.658	-2372.796	N.pl3	13	ARG13	-0.863	
196	   H	2287.041	702.963	-2374.677	 H	13	ARG13	0.275	
197	  HA	2289.182	704.663	-2375.479	 H	13	ARG13	0.156	
198	 2HB	2289.304	701.628	-2374.861	 H	13	ARG13	0.033	
199	 3HB	2289.146	702.846	-2373.612	 H	13	ARG13	0.033	
200	 2HG	2291.364	703.876	-2374.264	 H	13	ARG13	0.029	
201	 3HG	2291.566	702.674	-2375.544	 H	13	ARG13	0.029	
202	 2HD	2291.498	700.804	-2373.852	 H	13	ARG13	0.069	
203	 3HD	2291.287	701.991	-2372.541	 H	13	ARG13	0.069	
204	  HE	2293.671	702.773	-2374.065	 H	13	ARG13	0.346	
205	1HH1	2292.697	700.210	-2371.943	 H	13	ARG13	0.448	
206	2HH1	2294.416	699.913	-2371.391	 H	13	ARG13	0.448	
207	1HH2	2295.595	702.416	-2373.428	 H	13	ARG13	0.448	
208	2HH2	2295.963	701.117	-2372.207	 H	13	ARG13	0.448	
209	   N	2288.656	702.190	-2377.575	N.am	14	THR14	-0.416	
210	  CA	2288.981	701.830	-2378.952	C.3	14	THR14	-0.039	
211	   C	2288.651	702.959	-2379.899	C.2	14	THR14	0.597	
212	   O	2289.432	703.332	-2380.752	O.2	14	THR14	-0.568	
213	  CB	2288.231	700.521	-2379.370	C.3	14	THR14	0.365	
214	 CG2	2288.472	700.023	-2380.812	C.3	14	THR14	-0.244	
215	 OG1	2288.629	699.432	-2378.546	O.3	14	THR14	-0.676	
216	   H	2288.021	701.622	-2377.033	 H	14	THR14	0.272	
217	  HA	2290.070	701.652	-2379.018	 H	14	THR14	0.101	
218	  HB	2287.139	700.686	-2379.235	 H	14	THR14	0.004	
219	 1HG	2288.083	698.686	-2378.807	 H	14	THR14	0.410	
220	1HG2	2287.929	699.084	-2381.025	 H	14	THR14	0.064	
221	2HG2	2288.128	700.748	-2381.573	 H	14	THR14	0.064	
222	3HG2	2289.545	699.833	-2381.005	 H	14	THR14	0.064	
223	   N	2287.507	703.546	-2379.799	N.am	15	MET15	-0.416	
224	  CA	2287.188	704.638	-2380.714	C.3	15	MET15	-0.024	
225	   C	2288.218	705.737	-2380.627	C.2	15	MET15	0.597	
226	   O	2288.722	706.246	-2381.640	O.2	15	MET15	-0.568	
227	  CB	2285.766	705.184	-2380.407	C.3	15	MET15	0.034	
228	  CG	2284.604	704.187	-2380.598	C.3	15	MET15	0.002	
229	  SD	2283.030	705.053	-2380.486	S.3	15	MET15	-0.274	
230	  CE	2281.948	703.624	-2380.348	C.3	15	MET15	-0.054	
231	   H	2286.841	703.254	-2379.097	 H	15	MET15	0.272	
232	  HA	2287.214	704.249	-2381.749	 H	15	MET15	0.088	
233	 2HB	2285.565	706.062	-2381.050	 H	15	MET15	0.024	
234	 3HB	2285.730	705.578	-2379.371	 H	15	MET15	0.024	
235	 2HG	2284.646	703.401	-2379.819	 H	15	MET15	0.044	
236	 3HG	2284.667	703.670	-2381.573	 H	15	MET15	0.044	
237	 1HE	2282.092	702.935	-2381.199	 H	15	MET15	0.068	
238	 2HE	2282.157	703.072	-2379.415	 H	15	MET15	0.068	
239	 3HE	2280.891	703.940	-2380.332	 H	15	MET15	0.068	
240	   N	2288.586	706.159	-2379.465	N.am	16	ARG16	-0.348	
241	  CA	2289.583	707.223	-2379.382	C.3	16	ARG16	-0.264	
242	   C	2290.854	706.828	-2380.096	C.2	16	ARG16	0.734	
243	   O	2290.968	705.751	-2380.677	O.2	16	ARG16	-0.589	
244	  CB	2289.852	707.542	-2377.884	C.3	16	ARG16	-0.001	
245	  CG	2290.677	708.831	-2377.612	C.3	16	ARG16	0.039	
246	  CD	2290.926	709.052	-2376.110	C.3	16	ARG16	0.049	
247	  NE	2291.703	710.310	-2375.910	N.pl3	16	ARG16	-0.530	
248	  CZ	2292.094	710.794	-2374.735	C.cat	16	ARG16	0.808	
249	 NH1	2291.845	710.211	-2373.596	N.pl3	16	ARG16	-0.863	
250	 NH2	2292.759	711.906	-2374.717	N.pl3	16	ARG16	-0.863	
251	   H	2288.191	705.760	-2378.625	 H	16	ARG16	0.275	
252	  HA	2289.175	708.115	-2379.893	 H	16	ARG16	0.156	
253	 2HB	2290.348	706.666	-2377.416	 H	16	ARG16	0.033	
254	 3HB	2288.882	707.624	-2377.350	 H	16	ARG16	0.033	
255	 2HG	2290.148	709.702	-2378.050	 H	16	ARG16	0.029	
256	 3HG	2291.651	708.777	-2378.140	 H	16	ARG16	0.029	
257	 2HD	2291.474	708.177	-2375.696	 H	16	ARG16	0.069	
258	 3HD	2289.953	709.095	-2375.576	 H	16	ARG16	0.069	
259	  HE	2291.982	710.890	-2376.708	 H	16	ARG16	0.346	
260	1HH1	2291.319	709.338	-2373.680	 H	16	ARG16	0.448	
261	2HH1	2292.179	710.647	-2372.735	 H	16	ARG16	0.448	
262	1HH2	2292.945	712.348	-2375.619	 H	16	ARG16	0.448	
263	2HH2	2293.048	712.262	-2373.805	 H	16	ARG16	0.448	
@<TRIPOS>BOND
1 1 2 1
2 1 10 1
3 2 3 1
4 2 5 1
5 2 11 1
6 3 4 2
7 3 16 1
8 5 6 1
9 6 7 1
10 7 8 2
11 7 9 1
12 5 12 1
13 5 13 1
14 6 14 1
15 6 15 1
16 16 17 1
17 16 24 1
18 17 18 1
19 17 20 1
20 17 25 1
21 18 19 2
22 18 30 1
23 20 21 1
24 21 22 1
25 21 23 2
26 20 26 1
27 20 27 1
28 22 28 1
29 22 29 1
30 30 31 1
31 30 36 1
32 31 32 1
33 31 34 1
34 31 37 1
35 32 33 2
36 32 44 1
37 34 35 1
38 35 36 1
39 34 38 1
40 34 39 1
41 35 40 1
42 35 41 1
43 36 42 1
44 36 43 1
45 44 45 1
46 44 53 1
47 45 46 1
48 45 48 1
49 45 54 1
50 46 47 2
51 46 59 1
52 48 49 1
53 49 50 1
54 50 51 2
55 50 52 1
56 48 55 1
57 48 56 1
58 49 57 1
59 49 58 1
60 59 60 1
61 59 65 1
62 60 61 1
63 60 63 1
64 60 66 1
65 61 62 2
66 61 70 1
67 63 64 1
68 63 67 1
69 63 68 1
70 64 69 1
71 70 71 1
72 70 78 1
73 71 72 1
74 71 74 1
75 71 79 1
76 72 73 2
77 72 89 1
78 74 75 1
79 74 76 1
80 75 77 1
81 74 80 1
82 75 81 1
83 75 82 1
84 76 83 1
85 76 84 1
86 76 85 1
87 77 86 1
88 77 87 1
89 77 88 1
90 89 90 1
91 89 97 1
92 90 91 1
93 90 93 1
94 90 98 1
95 91 92 2
96 91 108 1
97 93 94 1
98 94 95 1
99 94 96 1
100 93 99 1
101 93 100 1
102 94 101 1
103 95 102 1
104 95 103 1
105 95 104 1
106 96 105 1
107 96 106 1
108 96 107 1
109 108 109 1
110 108 116 1
111 109 110 1
112 109 112 1
113 109 117 1
114 110 111 2
115 110 120 1
116 112 113 1
117 113 114 2
118 113 115 1
119 112 118 1
120 112 119 1
121 120 121 1
122 120 129 1
123 121 122 1
124 121 124 1
125 121 130 1
126 122 123 2
127 122 135 1
128 124 125 1
129 125 126 1
130 126 127 2
131 126 128 1
132 124 131 1
133 124 132 1
134 125 133 1
135 125 134 1
136 135 136 1
137 135 145 1
138 136 137 1
139 136 139 1
140 136 146 1
141 137 138 2
142 137 152 1
143 139 140 1
144 140 141 2
145 141 144 1
146 140 142 1
147 142 143 2
148 143 144 1
149 139 147 1
150 139 148 1
151 141 149 1
152 143 150 1
153 144 151 1
154 152 153 1
155 152 159 1
156 153 154 1
157 153 156 1
158 153 160 1
159 154 155 2
160 154 168 1
161 156 157 1
162 156 158 1
163 156 161 1
164 157 162 1
165 157 163 1
166 157 164 1
167 158 165 1
168 158 166 1
169 158 167 1
170 168 169 1
171 168 177 1
172 169 170 1
173 169 172 1
174 169 178 1
175 170 171 2
176 170 185 1
177 172 173 1
178 173 174 1
179 174 175 1
180 174 176 2
181 172 179 1
182 172 180 1
183 173 181 1
184 173 182 1
185 175 183 1
186 175 184 1
187 185 186 1
188 185 196 1
189 186 187 1
190 186 189 1
191 186 197 1
192 187 188 2
193 187 209 1
194 189 190 1
195 190 191 1
196 191 192 1
197 192 193 1
198 193 194 2
199 193 195 1
200 189 198 1
201 189 199 1
202 190 200 1
203 190 201 1
204 191 202 1
205 191 203 1
206 192 204 1
207 194 205 1
208 194 206 1
209 195 207 1
210 195 208 1
211 209 210 1
212 209 216 1
213 210 211 1
214 210 213 1
215 210 217 1
216 211 212 2
217 211 223 1
218 213 214 1
219 213 215 1
220 213 218 1
221 215 219 1
222 214 220 1
223 214 221 1
224 214 222 1
225 223 224 1
226 223 231 1
227 224 225 1
228 224 227 1
229 224 232 1
230 225 226 2
231 225 240 1
232 227 228 1
233 228 229 1
234 229 230 1
235 227 233 1
236 227 234 1
237 228 235 1
238 228 236 1
239 230 237 1
240 230 238 1
241 230 239 1
242 240 241 1
243 240 251 1
244 241 242 1
245 241 244 1
246 241 252 1
247 242 243 2
248 244 245 1
249 245 246 1
250 246 247 1
251 247 248 1
252 248 249 2
253 248 250 1
254 244 253 1
255 244 254 1
256 245 255 1
257 245 256 1
258 246 257 1
259 246 258 1
260 247 259 1
261 249 260 1
262 249 261 1
263 250 262 1
264 250 263 1
@<TRIPOS>SUBSTRUCTURE
1	GLU1	1	RESIDUE	1 ****	GLU
2	ASN2	16	RESIDUE	1 ****	ASN
3	PRO3	30	RESIDUE	1 ****	PRO
4	GLU4	44	RESIDUE	1 ****	GLU
5	SER5	59	RESIDUE	1 ****	SER
6	ILE6	70	RESIDUE	1 ****	ILE
7	LEU7	89	RESIDUE	1 ****	LEU
8	ASP8	108	RESIDUE	1 ****	ASP
9	GLU9	120	RESIDUE	1 ****	GLU
10	HIS10	135	RESIDUE	1 ****	HIS
11	VAL11	152	RESIDUE	1 ****	VAL
12	GLN12	168	RESIDUE	1 ****	GLN
13	ARG13	185	RESIDUE	1 ****	ARG
14	THR14	209	RESIDUE	1 ****	THR
15	MET15	223	RESIDUE	1 ****	MET
16	ARG16	240	RESIDUE	1 ****	ARG
