REMARK WARNING: 32 MAX_TORS EXCEEDED!!!
REMARK  66 active torsions:
REMARK  status: ('A' for Active; 'I' for Inactive)
REMARK    1  A    between atoms: N_1  and  CA_2 
REMARK    2  A    between atoms: CA_2  and  C_3 
REMARK    3  A    between atoms: CA_2  and  CB_5 
REMARK       I    between atoms: C_3  and  N_11 
REMARK    4  A    between atoms: CB_5  and  CG_6 
REMARK    5  A    between atoms: CG_6  and  CD_7 
REMARK    6  A    between atoms: N_11  and  CA_12 
REMARK    7  A    between atoms: CA_12  and  C_13 
REMARK    8  A    between atoms: CA_12  and  CB_15 
REMARK       I    between atoms: C_13  and  N_22 
REMARK    9  A    between atoms: CB_15  and  CG_16 
REMARK       I    between atoms: CG_16  and  ND2_17 
REMARK   10  A    between atoms: CA_23  and  C_24 
REMARK       I    between atoms: C_24  and  N_29 
REMARK   11  A    between atoms: N_29  and  CA_30 
REMARK   12  A    between atoms: CA_30  and  C_31 
REMARK   13  A    between atoms: CA_30  and  CB_33 
REMARK       I    between atoms: C_31  and  N_39 
REMARK   14  A    between atoms: CB_33  and  CG_34 
REMARK   15  A    between atoms: CG_34  and  CD_35 
REMARK   16  A    between atoms: N_39  and  CA_40 
REMARK   17  A    between atoms: CA_40  and  C_41 
REMARK   18  A    between atoms: CA_40  and  CB_43 
REMARK       I    between atoms: C_41  and  N_47 
REMARK   19  A    between atoms: CB_43  and  OG_44 
REMARK   20  A    between atoms: N_47  and  CA_48 
REMARK   21  A    between atoms: CA_48  and  C_49 
REMARK   22  A    between atoms: CA_48  and  CB_51 
REMARK       I    between atoms: C_49  and  N_56 
REMARK   23  A    between atoms: CB_51  and  CG1_52 
REMARK   24  A    between atoms: N_56  and  CA_57 
REMARK   25  A    between atoms: CA_57  and  C_58 
REMARK   26  A    between atoms: CA_57  and  CB_60 
REMARK       I    between atoms: C_58  and  N_65 
REMARK   27  A    between atoms: CB_60  and  CG_61 
REMARK   28  A    between atoms: N_65  and  CA_66 
REMARK   29  A    between atoms: CA_66  and  C_67 
REMARK       I    between atoms: C_67  and  N_70 
REMARK   30  A    between atoms: N_70  and  CA_71 
REMARK   31  A    between atoms: CA_71  and  C_72 
REMARK   32  A    between atoms: CA_71  and  CB_74 
REMARK       I    between atoms: C_72  and  N_80 
REMARK   33  A    between atoms: CB_74  and  CG_75 
REMARK   34  A    between atoms: CG_75  and  CD_76 
REMARK   35  A    between atoms: N_80  and  CA_81 
REMARK   36  A    between atoms: CA_81  and  C_82 
REMARK   37  A    between atoms: CA_81  and  CB_84 
REMARK       I    between atoms: C_82  and  N_92 
REMARK   38  A    between atoms: CB_84  and  CG_85 
REMARK   39  A    between atoms: N_92  and  CA_93 
REMARK   40  A    between atoms: CA_93  and  C_94 
REMARK   41  A    between atoms: CA_93  and  CB_96 
REMARK       I    between atoms: C_94  and  N_100 
REMARK   42  A    between atoms: N_100  and  CA_101 
REMARK   43  A    between atoms: CA_101  and  C_102 
REMARK   44  A    between atoms: CA_101  and  CB_104 
REMARK       I    between atoms: C_102  and  N_112 
REMARK   45  A    between atoms: CB_104  and  CG_105 
REMARK   46  A    between atoms: CG_105  and  CD_106 
REMARK       I    between atoms: CD_106  and  NE2_107 
REMARK   47  A    between atoms: N_112  and  CA_113 
REMARK   48  A    between atoms: CA_113  and  C_114 
REMARK   49  A    between atoms: CA_113  and  CB_116 
REMARK       I    between atoms: C_114  and  N_129 
REMARK   50  A    between atoms: CB_116  and  CG_117 
REMARK   51  A    between atoms: CG_117  and  CD_118 
REMARK   52  A    between atoms: CD_118  and  NE_119 
REMARK       I    between atoms: NE_119  and  CZ_120 
REMARK       I    between atoms: CZ_120  and  NH1_121 
REMARK       I    between atoms: CZ_120  and  NH2_122 
REMARK   53  A    between atoms: N_129  and  CA_130 
REMARK   54  A    between atoms: CA_130  and  C_131 
REMARK   55  A    between atoms: CA_130  and  CB_133 
REMARK       I    between atoms: C_131  and  N_137 
REMARK   56  A    between atoms: N_137  and  CA_138 
REMARK   57  A    between atoms: CA_138  and  C_139 
REMARK   58  A    between atoms: CA_138  and  CB_141 
REMARK       I    between atoms: C_139  and  N_146 
REMARK   59  A    between atoms: CB_141  and  CG_142 
REMARK   60  A    between atoms: CG_142  and  SD_143 
REMARK   61  A    between atoms: N_146  and  CA_147 
REMARK   62  A    between atoms: CA_147  and  C_148 
REMARK   63  A    between atoms: CA_147  and  CB_150 
REMARK   64  A    between atoms: CB_150  and  CG_151 
REMARK   65  A    between atoms: CG_151  and  CD_152 
REMARK   66  A    between atoms: CD_152  and  NE_153 
REMARK       I    between atoms: NE_153  and  CZ_154 
REMARK       I    between atoms: CZ_154  and  NH1_155 
ROOT
ATOM      1  C   GLU d   9    1216.612 352.252-1208.367  0.00  0.00     0.241 C 
ATOM      2  O   GLU d   9    1217.276 353.006-1209.091  0.00  0.00    -0.271 OA
ATOM      3  N   HIS d  10    1216.708 350.977-1208.537  0.00  0.00    -0.346 N 
ATOM      4  H   HIS d  10    1216.177 350.341-1207.959  0.00  0.00     0.163 HD
ENDROOT
BRANCH   3   5
ATOM      5  CA  HIS d  10    1217.596 350.465-1209.577  0.00  0.00     0.182 C 
BRANCH   5   6
ATOM      6  C   HIS d  10    1217.230 351.031-1210.928  0.00  0.00     0.241 C 
ATOM      7  O   HIS d  10    1218.083 351.496-1211.699  0.00  0.00    -0.271 OA
ATOM      8  N   VAL d  11    1215.992 351.030-1211.291  0.00  0.00    -0.346 N 
ATOM      9  H   VAL d  11    1215.279 350.657-1210.681  0.00  0.00     0.163 HD
BRANCH   8  10
ATOM     10  CA  VAL d  11    1215.637 351.577-1212.598  0.00  0.00     0.180 C 
BRANCH  10  11
ATOM     11  C   VAL d  11    1216.102 353.008-1212.729  0.00  0.00     0.241 C 
ATOM     12  O   VAL d  11    1216.703 353.413-1213.732  0.00  0.00    -0.271 OA
ATOM     13  N   GLN d  12    1215.865 353.833-1211.766  0.00  0.00    -0.346 N 
ATOM     14  H   GLN d  12    1215.376 353.527-1210.937  0.00  0.00     0.163 HD
BRANCH  13  15
ATOM     15  CA  GLN d  12    1216.314 355.216-1211.893  0.00  0.00     0.177 C 
BRANCH  15  16
ATOM     16  C   GLN d  12    1217.804 355.283-1212.130  0.00  0.00     0.241 C 
ATOM     17  O   GLN d  12    1218.292 355.992-1213.009  0.00  0.00    -0.271 OA
ATOM     18  N   ARG d  13    1218.588 354.576-1211.390  0.00  0.00    -0.346 N 
ATOM     19  H   ARG d  13    1218.212 353.986-1210.661  0.00  0.00     0.163 HD
BRANCH  18  20
ATOM     20  CA  ARG d  13    1220.029 354.641-1211.620  0.00  0.00     0.176 C 
BRANCH  20  21
ATOM     21  C   ARG d  13    1220.365 354.270-1213.046  0.00  0.00     0.241 C 
ATOM     22  O   ARG d  13    1221.133 354.942-1213.729  0.00  0.00    -0.271 OA
ATOM     23  N   VAL d  14    1219.828 353.216-1213.560  0.00  0.00    -0.346 N 
ATOM     24  H   VAL d  14    1219.193 352.648-1213.019  0.00  0.00     0.163 HD
BRANCH  23  25
ATOM     25  CA  VAL d  14    1220.153 352.858-1214.938  0.00  0.00     0.180 C 
BRANCH  25  26
ATOM     26  C   VAL d  14    1219.823 353.988-1215.883  0.00  0.00     0.241 C 
ATOM     27  O   VAL d  14    1220.616 354.370-1216.753  0.00  0.00    -0.271 OA
ATOM     28  N   MET d  15    1218.678 354.574-1215.781  0.00  0.00    -0.346 N 
ATOM     29  H   MET d  15    1218.013 354.281-1215.080  0.00  0.00     0.163 HD
BRANCH  28  30
ATOM     30  CA  MET d  15    1218.358 355.667-1216.694  0.00  0.00     0.177 C 
BRANCH  30  31
ATOM     31  C   MET d  15    1219.389 356.766-1216.606  0.00  0.00     0.241 C 
ATOM     32  O   MET d  15    1219.892 357.278-1217.619  0.00  0.00    -0.271 OA
ATOM     33  N   ARG d  16    1219.758 357.187-1215.444  0.00  0.00    -0.347 N 
ATOM     34  H   ARG d  16    1219.363 356.787-1214.605  0.00  0.00     0.163 HD
BRANCH  33  35
ATOM     35  CA  ARG d  16    1220.755 358.250-1215.359  0.00  0.00     0.162 C 
BRANCH  35  36
ATOM     36  C   ARG d  16    1222.025 357.858-1216.076  0.00  0.00     0.219 C 
ATOM     37  O   ARG d  16    1222.139 356.781-1216.658  0.00  0.00    -0.287 OA
ENDBRANCH  35  36
BRANCH  35  38
ATOM     38  CB  ARG d  16    1221.023 358.568-1213.861  0.00  0.00     0.035 C 
BRANCH  38  39
ATOM     39  CG  ARG d  16    1221.849 359.856-1213.588  0.00  0.00     0.023 C 
BRANCH  39  40
ATOM     40  CD  ARG d  16    1222.099 360.075-1212.086  0.00  0.00     0.138 C 
BRANCH  40  41
ATOM     41  NE  ARG d  16    1222.875 361.334-1211.885  0.00  0.00    -0.227 N 
ATOM     42  CZ  ARG d  16    1223.266 361.816-1210.709  0.00  0.00     0.665 C 
ATOM     43  NH1 ARG d  16    1223.018 361.231-1209.571  0.00  0.00    -0.235 N 
ATOM     44  NH2 ARG d  16    1223.931 362.928-1210.690  0.00  0.00    -0.235 N 
ATOM     45 11HH ARG d  16    1222.492 360.358-1209.655  0.00  0.00     0.174 HD
ATOM     46 12HH ARG d  16    1223.353 361.666-1208.709  0.00  0.00     0.174 HD
ATOM     47 21HH ARG d  16    1224.116 363.371-1211.592  0.00  0.00     0.174 HD
ATOM     48 22HH ARG d  16    1224.221 363.283-1209.777  0.00  0.00     0.174 HD
ATOM     49  HE  ARG d  16    1223.154 361.915-1212.682  0.00  0.00     0.177 HD
ENDBRANCH  40  41
ENDBRANCH  39  40
ENDBRANCH  38  39
ENDBRANCH  35  38
ENDBRANCH  33  35
ENDBRANCH  30  31
BRANCH  30  50
ATOM     50  CB  MET d  15    1216.937 356.213-1216.385  0.00  0.00     0.045 C 
BRANCH  50  51
ATOM     51  CG  MET d  15    1215.775 355.215-1216.577  0.00  0.00     0.076 C 
BRANCH  51  52
ATOM     52  SD  MET d  15    1214.201 356.082-1216.463  0.00  0.00    -0.173 SA
ATOM     53  CE  MET d  15    1213.119 354.653-1216.327  0.00  0.00     0.089 C 
ENDBRANCH  51  52
ENDBRANCH  50  51
ENDBRANCH  30  50
ENDBRANCH  28  30
ENDBRANCH  25  26
BRANCH  25  54
ATOM     54  CB  VAL d  14    1219.380 351.541-1215.345  0.00  0.00     0.009 C 
ATOM     55  CG1 VAL d  14    1219.469 351.123-1216.839  0.00  0.00     0.012 C 
ATOM     56  CG2 VAL d  14    1219.812 350.288-1214.546  0.00  0.00     0.012 C 
ENDBRANCH  25  54
ENDBRANCH  23  25
ENDBRANCH  20  21
BRANCH  20  57
ATOM     57  CB  ARG d  13    1220.742 353.702-1210.607  0.00  0.00     0.036 C 
BRANCH  57  58
ATOM     58  CG  ARG d  13    1222.287 353.855-1210.526  0.00  0.00     0.023 C 
BRANCH  58  59
ATOM     59  CD  ARG d  13    1222.914 352.867-1209.528  0.00  0.00     0.138 C 
BRANCH  59  60
ATOM     60  NE  ARG d  13    1224.391 353.074-1209.478  0.00  0.00    -0.227 N 
ATOM     61  CZ  ARG d  13    1225.239 352.381-1208.723  0.00  0.00     0.665 C 
ATOM     62  NH1 ARG d  13    1224.873 351.417-1207.926  0.00  0.00    -0.235 N 
ATOM     63  NH2 ARG d  13    1226.498 352.680-1208.780  0.00  0.00    -0.235 N 
ATOM     64 11HH ARG d  13    1223.868 351.231-1207.929  0.00  0.00     0.174 HD
ATOM     65 12HH ARG d  13    1225.586 350.933-1207.377  0.00  0.00     0.174 HD
ATOM     66 21HH ARG d  13    1226.766 353.438-1209.410  0.00  0.00     0.174 HD
ATOM     67 22HH ARG d  13    1227.133 352.139-1208.191  0.00  0.00     0.174 HD
ATOM     68  HE  ARG d  13    1224.842 353.796-1210.048  0.00  0.00     0.177 HD
ENDBRANCH  59  60
ENDBRANCH  58  59
ENDBRANCH  57  58
ENDBRANCH  20  57
ENDBRANCH  18  20
ENDBRANCH  15  16
BRANCH  15  69
ATOM     69  CB  GLN d  12    1215.923 355.983-1210.610  0.00  0.00     0.044 C 
BRANCH  69  70
ATOM     70  CG  GLN d  12    1216.284 357.505-1210.578  0.00  0.00     0.105 C 
BRANCH  70  71
ATOM     71  CD  GLN d  12    1215.981 358.317-1209.313  0.00  0.00     0.215 C 
ATOM     72  NE2 GLN d  12    1215.414 357.741-1208.284  0.00  0.00    -0.370 N 
ATOM     73 21HE GLN d  12    1215.307 358.335-1207.460  0.00  0.00     0.159 HD
ATOM     74 22HE GLN d  12    1215.250 356.737-1208.388  0.00  0.00     0.159 HD
ATOM     75  OE1 GLN d  12    1216.283 359.498-1209.235  0.00  0.00    -0.274 OA
ENDBRANCH  70  71
ENDBRANCH  69  70
ENDBRANCH  15  69
ENDBRANCH  13  15
ENDBRANCH  10  11
BRANCH  10  76
ATOM     76  CB  VAL d  11    1214.076 351.471-1212.818  0.00  0.00     0.009 C 
ATOM     77  CG1 VAL d  11    1213.508 352.176-1214.080  0.00  0.00     0.012 C 
ATOM     78  CG2 VAL d  11    1213.551 350.017-1212.892  0.00  0.00     0.012 C 
ENDBRANCH  10  76
ENDBRANCH   8  10
ENDBRANCH   5   6
BRANCH   5  79
ATOM     79  CB  HIS d  10    1217.432 348.936-1209.573  0.00  0.00     0.095 C 
BRANCH  79  80
ATOM     80  CG  HIS d  10    1218.717 348.226-1209.265  0.00  0.00     0.053 A 
ATOM     81  CD2 HIS d  10    1219.097 347.890-1207.973  0.00  0.00     0.116 A 
ATOM     82  NE2 HIS d  10    1220.312 347.258-1208.039  0.00  0.00    -0.359 N 
ATOM     83  CE1 HIS d  10    1220.575 347.261-1209.374  0.00  0.00     0.207 A 
ATOM     84  2HE HIS d  10    1220.878 346.880-1207.266  0.00  0.00     0.166 HD
ATOM     85  ND1 HIS d  10    1219.669 347.820-1210.197  0.00  0.00    -0.247 NA
ENDBRANCH  79  80
ENDBRANCH   5  79
ENDBRANCH   3   5
BRANCH   1  86
ATOM     86  CA  GLU d   9    1215.694 352.779-1207.291  0.00  0.00     0.177 C 
BRANCH  86  87
ATOM     87  N   GLU d   9    1214.391 352.123-1207.347  0.00  0.00    -0.346 N 
ATOM     88  C   GLY d   8    1213.711 352.173-1208.442  0.00  0.00     0.236 C 
ATOM     89  O   GLY d   8    1214.182 352.775-1209.411  0.00  0.00    -0.272 OA
ATOM     90  H   GLU d   9    1214.027 351.636-1206.540  0.00  0.00     0.163 HD
BRANCH  88  91
ATOM     91  CA  GLY d   8    1212.364 351.494-1208.500  0.00  0.00     0.225 C 
BRANCH  91  92
ATOM     92  N   GLY d   8    1212.435 350.145-1207.947  0.00  0.00    -0.351 N 
ATOM     93  C   LEU d   7    1213.272 349.304-1208.454  0.00  0.00     0.240 C 
ATOM     94  O   LEU d   7    1213.992 349.667-1209.396  0.00  0.00    -0.271 OA
ATOM     95  H   GLY d   8    1211.837 349.873-1207.180  0.00  0.00     0.163 HD
BRANCH  93  96
ATOM     96  CA  LEU d   7    1213.344 347.909-1207.881  0.00  0.00     0.177 C 
BRANCH  96  97
ATOM     97  N   LEU d   7    1213.400 347.945-1206.423  0.00  0.00    -0.346 N 
ATOM     98  C   ILE d   6    1214.345 348.608-1205.849  0.00  0.00     0.241 C 
ATOM     99  O   ILE d   6    1215.180 349.196-1206.553  0.00  0.00    -0.271 OA
ATOM    100  H   LEU d   7    1212.708 347.457-1205.871  0.00  0.00     0.163 HD
BRANCH  98 101
ATOM    101  CA  ILE d   6    1214.403 348.645-1204.341  0.00  0.00     0.180 C 
BRANCH 101 102
ATOM    102  N   ILE d   6    1213.090 348.940-1203.775  0.00  0.00    -0.346 N 
ATOM    103  C   SER d   5    1212.485 350.023-1204.129  0.00  0.00     0.243 C 
ATOM    104  O   SER d   5    1213.032 350.777-1204.934  0.00  0.00    -0.271 OA
ATOM    105  H   ILE d   6    1212.661 348.306-1203.116  0.00  0.00     0.163 HD
BRANCH 103 106
ATOM    106  CA  SER d   5    1211.126 350.329-1203.543  0.00  0.00     0.200 C 
BRANCH 106 107
ATOM    107  N   SER d   5    1210.257 349.157-1203.602  0.00  0.00    -0.344 N 
ATOM    108  C   GLU d   4    1210.029 348.605-1204.745  0.00  0.00     0.241 C 
ATOM    109  O   GLU d   4    1210.555 349.084-1205.759  0.00  0.00    -0.271 OA
ATOM    110  H   SER d   5    1209.840 348.786-1202.760  0.00  0.00     0.163 HD
BRANCH 108 111
ATOM    111  CA  GLU d   4    1209.130 347.393-1204.806  0.00  0.00     0.177 C 
BRANCH 111 112
ATOM    112  N   GLU d   4    1209.490 346.422-1203.776  0.00  0.00    -0.346 N 
ATOM    113  C   PRO d   3    1210.695 345.962-1203.744  0.00  0.00     0.241 C 
ATOM    114  O   PRO d   3    1211.518 346.345-1204.576  0.00  0.00    -0.271 OA
ATOM    115  H   GLU d   4    1208.806 346.116-1203.100  0.00  0.00     0.163 HD
BRANCH 113 116
ATOM    116  CA  PRO d   3    1211.093 344.939-1202.667  0.00  0.00     0.179 C 
ATOM    117  N   PRO d   3    1210.641 345.348-1201.346  0.00  0.00    -0.337 N 
ATOM    118  C   ASN d   2    1211.163 346.343-1200.712  0.00  0.00     0.243 C 
ATOM    119  CD  PRO d   3    1209.563 344.555-1200.797  0.00  0.00     0.127 C 
ATOM    120  O   ASN d   2    1212.078 346.974-1201.240  0.00  0.00    -0.271 OA
ATOM    121  CG  PRO d   3    1209.106 343.736-1202.006  0.00  0.00     0.022 C 
ATOM    122  CB  PRO d   3    1210.389 343.584-1202.837  0.00  0.00     0.037 C 
BRANCH 118 123
ATOM    123  CA  ASN d   2    1210.632 346.699-1199.343  0.00  0.00     0.185 C 
BRANCH 123 124
ATOM    124  N   ASN d   2    1209.172 346.737-1199.343  0.00  0.00    -0.346 N 
ATOM    125  C   GLU d   1    1208.568 347.523-1200.168  0.00  0.00     0.242 C 
ATOM    126  O   GLU d   1    1209.244 348.222-1200.937  0.00  0.00    -0.271 OA
ATOM    127  H   ASN d   2    1208.644 346.158-1198.706  0.00  0.00     0.163 HD
BRANCH 125 128
ATOM    128  CA  GLU d   1    1207.059 347.563-1200.168  0.00  0.00     0.191 C 
BRANCH 128 129
ATOM    129  N   GLU d   1    1206.500 346.214-1200.168  0.00  0.00    -0.326 NA
ATOM    130  H   GLU d   1    1207.127 345.335-1200.168  0.00  0.00     0.180 HD
ENDBRANCH 128 129
BRANCH 128 131
ATOM    131  CB  GLU d   1    1206.536 348.348-1198.931  0.00  0.00     0.047 C 
BRANCH 131 132
ATOM    132  CG  GLU d   1    1207.011 349.833-1198.820  0.00  0.00     0.116 C 
BRANCH 132 133
ATOM    133  CD  GLU d   1    1206.587 350.637-1197.605  0.00  0.00     0.172 C 
ATOM    134  OE1 GLU d   1    1205.859 350.135-1196.727  0.00  0.00    -0.648 OA
ATOM    135  OE2 GLU d   1    1207.017 351.807-1197.533  0.00  0.00    -0.648 OA
ENDBRANCH 132 133
ENDBRANCH 131 132
ENDBRANCH 128 131
ENDBRANCH 125 128
ENDBRANCH 123 124
BRANCH 123 136
ATOM    136  CB  ASN d   2    1211.124 345.676-1198.279  0.00  0.00     0.137 C 
BRANCH 136 137
ATOM    137  CG  ASN d   2    1210.661 345.900-1196.835  0.00  0.00     0.217 C 
ATOM    138  ND2 ASN d   2    1211.255 346.815-1196.117  0.00  0.00    -0.370 N 
ATOM    139 21HD ASN d   2    1210.774 346.988-1195.231  0.00  0.00     0.159 HD
ATOM    140 22HD ASN d   2    1211.957 347.386-1196.586  0.00  0.00     0.159 HD
ATOM    141  OD1 ASN d   2    1209.740 345.266-1196.341  0.00  0.00    -0.274 OA
ENDBRANCH 136 137
ENDBRANCH 123 136
ENDBRANCH 118 123
ENDBRANCH 113 116
ENDBRANCH 111 112
BRANCH 111 142
ATOM    142  CB  GLU d   4    1207.642 347.812-1204.635  0.00  0.00     0.045 C 
BRANCH 142 143
ATOM    143  CG  GLU d   4    1207.093 348.816-1205.701  0.00  0.00     0.116 C 
BRANCH 143 144
ATOM    144  CD  GLU d   4    1205.667 349.312-1205.557  0.00  0.00     0.172 C 
ATOM    145  OE1 GLU d   4    1204.941 348.914-1204.626  0.00  0.00    -0.648 OA
ATOM    146  OE2 GLU d   4    1205.277 350.141-1206.405  0.00  0.00    -0.648 OA
ENDBRANCH 143 144
ENDBRANCH 142 143
ENDBRANCH 111 142
ENDBRANCH 108 111
ENDBRANCH 106 107
BRANCH 106 147
ATOM    147  CB  SER d   5    1211.238 350.861-1202.093  0.00  0.00     0.199 C 
BRANCH 147 148
ATOM    148  OG  SER d   5    1211.970 349.981-1201.232  0.00  0.00    -0.398 OA
ATOM    149  HG  SER d   5    1211.481 349.156-1201.181  0.00  0.00     0.209 HD
ENDBRANCH 147 148
ENDBRANCH 106 147
ENDBRANCH 103 106
ENDBRANCH 101 102
BRANCH 101 150
ATOM    150  CB  ILE d   6    1215.003 347.309-1203.742  0.00  0.00     0.013 C 
ATOM    151  CG2 ILE d   6    1216.444 347.008-1204.257  0.00  0.00     0.012 C 
BRANCH 150 152
ATOM    152  CG1 ILE d   6    1215.022 347.247-1202.181  0.00  0.00     0.002 C 
ATOM    153  CD1 ILE d   6    1215.292 345.858-1201.566  0.00  0.00     0.005 C 
ENDBRANCH 150 152
ENDBRANCH 101 150
ENDBRANCH  98 101
ENDBRANCH  96  97
BRANCH  96 154
ATOM    154  CB  LEU d   7    1212.141 347.048-1208.362  0.00  0.00     0.038 C 
BRANCH 154 155
ATOM    155  CG  LEU d   7    1212.069 345.569-1207.896  0.00  0.00    -0.020 C 
ATOM    156  CD1 LEU d   7    1210.879 344.863-1208.561  0.00  0.00     0.009 C 
ATOM    157  CD2 LEU d   7    1213.362 344.790-1208.187  0.00  0.00     0.009 C 
ENDBRANCH 154 155
ENDBRANCH  96 154
ENDBRANCH  93  96
ENDBRANCH  91  92
ENDBRANCH  88  91
ENDBRANCH  86  87
BRANCH  86 158
ATOM    158  CB  GLU d   9    1216.327 352.571-1205.885  0.00  0.00     0.045 C 
BRANCH 158 159
ATOM    159  CG  GLU d   9    1217.709 353.262-1205.655  0.00  0.00     0.116 C 
BRANCH 159 160
ATOM    160  CD  GLU d   9    1218.411 353.048-1204.327  0.00  0.00     0.172 C 
ATOM    161  OE1 GLU d   9    1217.888 352.357-1203.431  0.00  0.00    -0.648 OA
ATOM    162  OE2 GLU d   9    1219.530 353.585-1204.194  0.00  0.00    -0.648 OA
ENDBRANCH 159 160
ENDBRANCH 158 159
ENDBRANCH  86 158
ENDBRANCH   1  86
TORSDOF 66
