@<TRIPOS>MOLECULE
15-5
265 266 16              
SMALL
USER_CHARGES
@<TRIPOS>ATOM
1	   N	2366.161	724.155	-2461.770	N.3	1	GLU1	-0.516	
2	  CA	2366.720	725.504	-2461.770	C.3	1	GLU1	0.040	
3	   C	2368.229	725.464	-2461.770	C.2	1	GLU1	0.537	
4	   O	2368.905	726.163	-2462.539	O.2	1	GLU1	-0.582	
5	  CB	2366.197	726.289	-2460.533	C.3	1	GLU1	0.056	
6	  CG	2366.672	727.774	-2460.422	C.3	1	GLU1	0.014	
7	  CD	2366.248	728.578	-2459.207	C.2	1	GLU1	0.805	
8	 OE1	2365.520	728.076	-2458.329	O.co2	1	GLU1	-0.819	
9	 OE2	2366.678	729.748	-2459.135	O.co2	1	GLU1	-0.819	
10	   H	2366.788	723.276	-2461.770	 H	1	GLU1	0.294	
11	  HA	2366.394	726.022	-2462.690	 H	1	GLU1	0.111	
12	 2HB	2366.486	725.758	-2459.603	 H	1	GLU1	-0.017	
13	 3HB	2365.090	726.279	-2460.520	 H	1	GLU1	-0.017	
14	 2HG	2366.362	728.359	-2461.303	 H	1	GLU1	-0.043	
15	 3HG	2367.772	727.841	-2460.393	 H	1	GLU1	-0.043	
16	   N	2368.834	724.679	-2460.945	N.am	2	ASN2	-0.416	
17	  CA	2370.293	724.640	-2460.945	C.3	2	ASN2	0.014	
18	   C	2370.824	724.284	-2462.313	C.2	2	ASN2	0.597	
19	   O	2371.740	724.914	-2462.842	O.2	2	ASN2	-0.568	
20	  CB	2370.785	723.617	-2459.880	C.3	2	ASN2	-0.204	
21	  CG	2370.321	723.840	-2458.437	C.2	2	ASN2	0.713	
22	 ND2	2370.915	724.755	-2457.719	N.pl3	2	ASN2	-0.919	
23	 OD1	2369.400	723.207	-2457.943	O.2	2	ASN2	-0.593	
24	   H	2368.305	724.099	-2460.309	 H	2	ASN2	0.272	
25	  HA	2370.671	725.649	-2460.699	 H	2	ASN2	0.105	
26	 2HB	2371.889	723.558	-2459.884	 H	2	ASN2	0.080	
27	 3HB	2370.456	722.598	-2460.166	 H	2	ASN2	0.080	
28	1HD2	2370.434	724.929	-2456.833	 H	2	ASN2	0.420	
29	2HD2	2371.617	725.327	-2458.188	 H	2	ASN2	0.420	
30	   N	2370.303	723.289	-2462.948	N.am	3	PRO3	-0.255	
31	  CA	2370.755	722.880	-2464.269	C.3	3	PRO3	-0.027	
32	   C	2370.357	723.903	-2465.346	C.2	3	PRO3	0.590	
33	   O	2371.181	724.286	-2466.177	O.2	3	PRO3	-0.575	
34	  CB	2370.051	721.525	-2464.439	C.3	3	PRO3	-0.007	
35	  CG	2368.767	721.678	-2463.609	C.3	3	PRO3	0.019	
36	  CD	2369.225	722.496	-2462.399	C.3	3	PRO3	0.019	
37	  HA	2371.841	722.760	-2464.282	 H	3	PRO3	0.064	
38	 2HB	2370.674	720.744	-2463.998	 H	3	PRO3	0.025	
39	 3HB	2369.853	721.277	-2465.484	 H	3	PRO3	0.025	
40	 2HG	2368.339	720.716	-2463.318	 H	3	PRO3	0.021	
41	 3HG	2368.030	722.249	-2464.177	 H	3	PRO3	0.021	
42	 2HD	2369.614	721.846	-2461.612	 H	3	PRO3	0.039	
43	 3HD	2368.428	723.132	-2462.006	 H	3	PRO3	0.039	
44	   N	2369.153	724.364	-2465.379	N.am	4	GLU4	-0.516	
45	  CA	2368.793	725.335	-2466.409	C.3	4	GLU4	0.040	
46	   C	2369.693	726.545	-2466.347	C.2	4	GLU4	0.537	
47	   O	2370.219	727.025	-2467.361	O.2	4	GLU4	-0.582	
48	  CB	2367.305	725.754	-2466.239	C.3	4	GLU4	0.056	
49	  CG	2366.758	726.758	-2467.305	C.3	4	GLU4	0.014	
50	  CD	2365.331	727.255	-2467.162	C.2	4	GLU4	0.805	
51	 OE1	2364.604	726.856	-2466.231	O.co2	4	GLU4	-0.819	
52	 OE2	2364.942	728.084	-2468.010	O.co2	4	GLU4	-0.819	
53	   H	2368.468	724.057	-2464.702	 H	4	GLU4	0.294	
54	  HA	2368.925	724.864	-2467.400	 H	4	GLU4	0.111	
55	 2HB	2367.152	726.193	-2465.232	 H	4	GLU4	-0.017	
56	 3HB	2366.657	724.856	-2466.245	 H	4	GLU4	-0.017	
57	 2HG	2366.839	726.343	-2468.323	 H	4	GLU4	-0.043	
58	 3HG	2367.346	727.690	-2467.316	 H	4	GLU4	-0.043	
59	   N	2369.920	727.098	-2465.204	N.am	5	SER5	-0.416	
60	  CA	2370.790	728.269	-2465.145	C.3	5	SER5	-0.025	
61	   C	2372.148	727.963	-2465.730	C.2	5	SER5	0.597	
62	   O	2372.696	728.716	-2466.535	O.2	5	SER5	-0.568	
63	  CB	2370.901	728.801	-2463.695	C.3	5	SER5	0.212	
64	  OG	2371.632	727.922	-2462.833	O.3	5	SER5	-0.655	
65	   H	2369.502	726.727	-2464.363	 H	5	SER5	0.272	
66	  HA	2370.341	729.060	-2465.774	 H	5	SER5	0.084	
67	 2HB	2369.901	728.995	-2463.261	 H	5	SER5	0.035	
68	 3HB	2371.406	729.787	-2463.697	 H	5	SER5	0.035	
69	  HG	2371.143	727.097	-2462.783	 H	5	SER5	0.428	
70	   N	2372.753	726.880	-2465.376	N.am	6	ILE6	-0.416	
71	  CA	2374.066	726.584	-2465.942	C.3	6	ILE6	-0.060	
72	   C	2374.009	726.547	-2467.450	C.2	6	ILE6	0.597	
73	   O	2374.844	727.134	-2468.154	O.2	6	ILE6	-0.568	
74	  CB	2374.665	725.248	-2465.342	C.3	6	ILE6	0.130	
75	 CG1	2374.684	725.186	-2463.781	C.3	6	ILE6	-0.043	
76	 CG2	2376.106	724.946	-2465.857	C.3	6	ILE6	-0.320	
77	 CD1	2374.953	723.796	-2463.166	C.3	6	ILE6	-0.066	
78	   H	2372.324	726.245	-2464.717	 H	6	ILE6	0.272	
79	  HA	2374.740	727.418	-2465.674	 H	6	ILE6	0.087	
80	  HB	2374.007	724.422	-2465.686	 H	6	ILE6	0.019	
81	2HG1	2373.702	725.506	-2463.385	 H	6	ILE6	0.024	
82	3HG1	2375.400	725.928	-2463.376	 H	6	ILE6	0.024	
83	1HG2	2376.165	724.852	-2466.955	 H	6	ILE6	0.088	
84	2HG2	2376.829	725.728	-2465.554	 H	6	ILE6	0.088	
85	3HG2	2376.496	723.983	-2465.478	 H	6	ILE6	0.088	
86	1HD1	2374.225	723.043	-2463.521	 H	6	ILE6	0.019	
87	2HD1	2375.964	723.417	-2463.401	 H	6	ILE6	0.019	
88	3HD1	2374.877	723.826	-2462.063	 H	6	ILE6	0.019	
89	   N	2373.063	725.883	-2468.023	N.am	7	LEU7	-0.416	
90	  CA	2373.008	725.847	-2469.482	C.3	7	LEU7	-0.052	
91	   C	2372.936	727.243	-2470.055	C.2	7	LEU7	0.597	
92	   O	2373.657	727.604	-2470.997	O.2	7	LEU7	-0.568	
93	  CB	2371.804	724.987	-2469.962	C.3	7	LEU7	-0.110	
94	  CG	2371.731	723.508	-2469.496	C.3	7	LEU7	0.353	
95	 CD1	2370.541	722.803	-2470.161	C.3	7	LEU7	-0.412	
96	 CD2	2373.025	722.728	-2469.787	C.3	7	LEU7	-0.412	
97	   H	2372.371	725.397	-2467.472	 H	7	LEU7	0.272	
98	  HA	2373.949	725.407	-2469.856	 H	7	LEU7	0.092	
99	 2HB	2371.781	725.003	-2471.070	 H	7	LEU7	0.046	
100	 3HB	2370.865	725.490	-2469.658	 H	7	LEU7	0.046	
101	  HG	2371.561	723.500	-2468.398	 H	7	LEU7	-0.036	
102	1HD1	2369.584	723.312	-2469.938	 H	7	LEU7	0.100	
103	2HD1	2370.640	722.762	-2471.262	 H	7	LEU7	0.100	
104	3HD1	2370.434	721.762	-2469.805	 H	7	LEU7	0.100	
105	1HD2	2373.300	722.759	-2470.857	 H	7	LEU7	0.100	
106	2HD2	2373.878	723.140	-2469.216	 H	7	LEU7	0.100	
107	3HD2	2372.943	721.666	-2469.491	 H	7	LEU7	0.100	
108	   N	2372.099	728.084	-2469.549	N.am	8	ASP8	-0.516	
109	  CA	2372.029	729.433	-2470.103	C.3	8	ASP8	0.038	
110	   C	2373.376	730.112	-2470.046	C.2	8	ASP8	0.537	
111	   O	2373.849	730.716	-2471.021	O.2	8	ASP8	-0.582	
112	  CB	2370.951	730.273	-2469.362	C.3	8	ASP8	-0.030	
113	  CG	2370.733	731.694	-2469.903	C.2	8	ASP8	0.799	
114	 OD1	2370.798	731.892	-2471.134	O.co2	8	ASP8	-0.801	
115	 OD2	2370.542	732.620	-2469.088	O.co2	8	ASP8	-0.801	
116	   H	2371.501	727.813	-2468.781	 H	8	ASP8	0.294	
117	  HA	2371.746	729.355	-2471.170	 H	8	ASP8	0.088	
118	 2HB	2371.209	730.357	-2468.290	 H	8	ASP8	-0.012	
119	 3HB	2369.972	729.768	-2469.395	 H	8	ASP8	-0.012	
120	   N	2374.056	730.063	-2468.951	N.am	9	GLU9	-0.516	
121	  CA	2375.359	730.720	-2468.896	C.3	9	GLU9	0.040	
122	   C	2376.277	730.191	-2469.972	C.2	9	GLU9	0.537	
123	   O	2376.941	730.945	-2470.698	O.2	9	GLU9	-0.582	
124	  CB	2375.993	730.512	-2467.491	C.3	9	GLU9	0.056	
125	  CG	2377.376	731.204	-2467.262	C.3	9	GLU9	0.014	
126	  CD	2378.078	730.991	-2465.934	C.2	9	GLU9	0.805	
127	 OE1	2377.556	730.301	-2465.037	O.co2	9	GLU9	-0.819	
128	 OE2	2379.197	731.529	-2465.803	O.co2	9	GLU9	-0.819	
129	   H	2373.693	729.577	-2468.144	 H	9	GLU9	0.294	
130	  HA	2375.218	731.801	-2469.072	 H	9	GLU9	0.111	
131	 2HB	2376.105	729.428	-2467.287	 H	9	GLU9	-0.017	
132	 3HB	2375.296	730.866	-2466.707	 H	9	GLU9	-0.017	
133	 2HG	2377.304	732.295	-2467.402	 H	9	GLU9	-0.043	
134	 3HG	2378.122	730.858	-2467.996	 H	9	GLU9	-0.043	
135	   N	2376.373	728.916	-2470.141	N.am	10	HIS10	-0.416	
136	  CA	2377.260	728.403	-2471.181	C.3	10	HIS10	-0.058	
137	   C	2376.893	728.967	-2472.533	C.2	10	HIS10	0.597	
138	   O	2377.746	729.431	-2473.305	O.2	10	HIS10	-0.568	
139	  CB	2377.095	726.875	-2471.176	C.3	10	HIS10	-0.007	
140	  CG	2378.381	726.164	-2470.868	C.2	10	HIS10	0.187	
141	 CD2	2378.762	725.829	-2469.575	C.2	10	HIS10	-0.221	
142	 ND1	2379.332	725.757	-2471.800	N.2	10	HIS10	-0.543	
143	 CE1	2380.239	725.199	-2470.977	C.2	10	HIS10	0.163	
144	 NE2	2379.977	725.197	-2469.642	N.pl3	10	HIS10	-0.280	
145	   H	2375.842	728.281	-2469.562	 H	10	HIS10	0.272	
146	  HA	2378.280	728.760	-2470.957	 H	10	HIS10	0.136	
147	 2HB	2376.729	726.507	-2472.155	 H	10	HIS10	0.037	
148	 3HB	2376.340	726.538	-2470.435	 H	10	HIS10	0.037	
149	 2HD	2378.177	726.045	-2468.686	 H	10	HIS10	0.186	
150	 1HE	2381.129	724.777	-2471.424	 H	10	HIS10	0.144	
151	 2HE	2380.543	724.820	-2468.869	 H	10	HIS10	0.334	
152	   N	2375.655	728.967	-2472.896	N.am	11	VAL11	-0.416	
153	  CA	2375.300	729.513	-2474.203	C.3	11	VAL11	-0.087	
154	   C	2375.765	730.943	-2474.336	C.2	11	VAL11	0.597	
155	   O	2376.366	731.347	-2475.339	O.2	11	VAL11	-0.568	
156	  CB	2373.739	729.406	-2474.422	C.3	11	VAL11	0.299	
157	 CG1	2373.170	730.110	-2475.685	C.3	11	VAL11	-0.319	
158	 CG2	2373.214	727.953	-2474.494	C.3	11	VAL11	-0.319	
159	   H	2374.942	728.595	-2472.285	 H	11	VAL11	0.272	
160	  HA	2375.819	728.929	-2474.985	 H	11	VAL11	0.097	
161	  HB	2373.252	729.888	-2473.547	 H	11	VAL11	-0.030	
162	1HG1	2373.609	729.717	-2476.622	 H	11	VAL11	0.079	
163	2HG1	2372.071	730.003	-2475.767	 H	11	VAL11	0.079	
164	3HG1	2373.349	731.202	-2475.676	 H	11	VAL11	0.079	
165	1HG2	2373.503	727.366	-2473.603	 H	11	VAL11	0.079	
166	2HG2	2372.108	727.916	-2474.536	 H	11	VAL11	0.079	
167	3HG2	2373.595	727.411	-2475.380	 H	11	VAL11	0.079	
168	   N	2375.529	731.769	-2473.374	N.am	12	GLN12	-0.416	
169	  CA	2375.978	733.152	-2473.502	C.3	12	GLN12	-0.003	
170	   C	2377.468	733.218	-2473.740	C.2	12	GLN12	0.597	
171	   O	2377.955	733.926	-2474.619	O.2	12	GLN12	-0.568	
172	  CB	2375.588	733.920	-2472.219	C.3	12	GLN12	-0.004	
173	  CG	2375.949	735.442	-2472.189	C.3	12	GLN12	-0.064	
174	  CD	2375.648	736.256	-2470.925	C.2	12	GLN12	0.695	
175	 NE2	2375.081	735.680	-2469.896	N.pl3	12	GLN12	-0.941	
176	 OE1	2375.950	737.437	-2470.848	O.2	12	GLN12	-0.609	
177	   H	2375.040	731.464	-2472.544	 H	12	GLN12	0.272	
178	  HA	2375.479	733.608	-2474.377	 H	12	GLN12	0.085	
179	 2HB	2376.064	733.420	-2471.350	 H	12	GLN12	0.017	
180	 3HB	2374.498	733.813	-2472.056	 H	12	GLN12	0.017	
181	 2HG	2375.472	735.962	-2473.040	 H	12	GLN12	0.035	
182	 3HG	2377.033	735.583	-2472.355	 H	12	GLN12	0.035	
183	1HE2	2374.974	736.275	-2469.072	 H	12	GLN12	0.425	
184	2HE2	2374.916	734.677	-2469.998	 H	12	GLN12	0.425	
185	   N	2378.253	732.511	-2472.999	N.am	13	ARG13	-0.348	
186	  CA	2379.693	732.577	-2473.230	C.3	13	ARG13	-0.264	
187	   C	2380.029	732.204	-2474.655	C.2	13	ARG13	0.734	
188	   O	2380.797	732.875	-2475.340	O.2	13	ARG13	-0.589	
189	  CB	2380.406	731.638	-2472.216	C.3	13	ARG13	-0.001	
190	  CG	2381.951	731.791	-2472.135	C.3	13	ARG13	0.039	
191	  CD	2382.578	730.804	-2471.137	C.3	13	ARG13	0.049	
192	  NE	2384.055	731.011	-2471.087	N.pl3	13	ARG13	-0.530	
193	  CZ	2384.904	730.319	-2470.332	C.cat	13	ARG13	0.808	
194	 NH1	2384.539	729.356	-2469.533	N.pl3	13	ARG13	-0.863	
195	 NH2	2386.163	730.618	-2470.389	N.pl3	13	ARG13	-0.863	
196	   H	2377.876	731.922	-2472.270	 H	13	ARG13	0.275	
197	  HA	2380.018	733.623	-2473.073	 H	13	ARG13	0.156	
198	 2HB	2380.140	730.588	-2472.454	 H	13	ARG13	0.033	
199	 3HB	2379.981	731.806	-2471.205	 H	13	ARG13	0.033	
200	 2HG	2382.200	732.836	-2471.857	 H	13	ARG13	0.029	
201	 3HG	2382.402	731.634	-2473.137	 H	13	ARG13	0.029	
202	 2HD	2382.333	729.764	-2471.445	 H	13	ARG13	0.069	
203	 3HD	2382.122	730.950	-2470.134	 H	13	ARG13	0.069	
204	  HE	2384.507	731.732	-2471.658	 H	13	ARG13	0.346	
205	1HH1	2383.533	729.170	-2469.536	 H	13	ARG13	0.448	
206	2HH1	2385.252	728.873	-2468.984	 H	13	ARG13	0.448	
207	1HH2	2386.431	731.375	-2471.021	 H	13	ARG13	0.448	
208	2HH2	2386.799	730.077	-2469.800	 H	13	ARG13	0.448	
209	   N	2379.492	731.150	-2475.168	N.am	14	VAL14	-0.416	
210	  CA	2379.816	730.789	-2476.546	C.3	14	VAL14	-0.087	
211	   C	2379.487	731.919	-2477.492	C.2	14	VAL14	0.597	
212	   O	2380.280	732.300	-2478.362	O.2	14	VAL14	-0.568	
213	  CB	2379.043	729.472	-2476.952	C.3	14	VAL14	0.299	
214	 CG1	2379.132	729.053	-2478.445	C.3	14	VAL14	-0.319	
215	 CG2	2379.475	728.220	-2476.151	C.3	14	VAL14	-0.319	
216	   H	2378.857	730.581	-2474.626	 H	14	VAL14	0.272	
217	  HA	2380.905	730.612	-2476.621	 H	14	VAL14	0.097	
218	  HB	2377.967	729.644	-2476.736	 H	14	VAL14	-0.030	
219	1HG1	2380.173	728.876	-2478.774	 H	14	VAL14	0.079	
220	2HG1	2378.559	728.130	-2478.657	 H	14	VAL14	0.079	
221	3HG1	2378.703	729.815	-2479.124	 H	14	VAL14	0.079	
222	1HG2	2379.388	728.380	-2475.060	 H	14	VAL14	0.079	
223	2HG2	2378.839	727.344	-2476.382	 H	14	VAL14	0.079	
224	3HG2	2380.523	727.930	-2476.357	 H	14	VAL14	0.079	
225	   N	2378.342	732.505	-2477.390	N.am	15	MET15	-0.416	
226	  CA	2378.021	733.598	-2478.304	C.3	15	MET15	-0.024	
227	   C	2379.052	734.698	-2478.217	C.2	15	MET15	0.597	
228	   O	2379.554	735.208	-2479.230	O.2	15	MET15	-0.568	
229	  CB	2376.600	734.143	-2477.995	C.3	15	MET15	0.034	
230	  CG	2375.438	733.145	-2478.186	C.3	15	MET15	0.002	
231	  SD	2373.864	734.012	-2478.072	S.3	15	MET15	-0.274	
232	  CE	2372.783	732.582	-2477.934	C.3	15	MET15	-0.054	
233	   H	2377.677	732.213	-2476.688	 H	15	MET15	0.272	
234	  HA	2378.047	733.210	-2479.340	 H	15	MET15	0.088	
235	 2HB	2376.398	735.022	-2478.637	 H	15	MET15	0.024	
236	 3HB	2376.565	734.536	-2476.959	 H	15	MET15	0.024	
237	 2HG	2375.481	732.360	-2477.408	 H	15	MET15	0.044	
238	 3HG	2375.500	732.630	-2479.162	 H	15	MET15	0.044	
239	 1HE	2372.926	731.894	-2478.787	 H	15	MET15	0.068	
240	 2HE	2372.992	732.030	-2477.001	 H	15	MET15	0.068	
241	 3HE	2371.726	732.898	-2477.918	 H	15	MET15	0.068	
242	   N	2379.421	735.119	-2477.055	N.am	16	ARG16	-0.348	
243	  CA	2380.417	736.183	-2476.972	C.3	16	ARG16	-0.264	
244	   C	2381.688	735.790	-2477.688	C.2	16	ARG16	0.734	
245	   O	2381.802	734.713	-2478.269	O.2	16	ARG16	-0.589	
246	  CB	2380.687	736.501	-2475.473	C.3	16	ARG16	-0.001	
247	  CG	2381.512	737.790	-2475.201	C.3	16	ARG16	0.039	
248	  CD	2381.762	738.010	-2473.700	C.3	16	ARG16	0.049	
249	  NE	2382.538	739.269	-2473.500	N.pl3	16	ARG16	-0.530	
250	  CZ	2382.930	739.752	-2472.324	C.cat	16	ARG16	0.808	
251	 NH1	2382.682	739.168	-2471.185	N.pl3	16	ARG16	-0.863	
252	 NH2	2383.594	740.864	-2472.306	N.pl3	16	ARG16	-0.863	
253	   H	2379.026	734.719	-2476.215	 H	16	ARG16	0.275	
254	  HA	2380.009	737.075	-2477.482	 H	16	ARG16	0.156	
255	 2HB	2381.184	735.625	-2475.007	 H	16	ARG16	0.033	
256	 3HB	2379.718	736.582	-2474.939	 H	16	ARG16	0.033	
257	 2HG	2380.982	738.661	-2475.638	 H	16	ARG16	0.029	
258	 3HG	2382.486	737.737	-2475.730	 H	16	ARG16	0.029	
259	 2HD	2382.311	737.136	-2473.287	 H	16	ARG16	0.069	
260	 3HD	2380.789	738.053	-2473.165	 H	16	ARG16	0.069	
261	  HE	2382.817	739.850	-2474.297	 H	16	ARG16	0.346	
262	1HH1	2382.157	738.295	-2471.270	 H	16	ARG16	0.448	
263	2HH1	2383.017	739.604	-2470.324	 H	16	ARG16	0.448	
264	1HH2	2383.779	741.307	-2473.208	 H	16	ARG16	0.448	
265	2HH2	2383.884	741.220	-2471.394	 H	16	ARG16	0.448	
@<TRIPOS>BOND
1 1 2 1
2 1 10 1
3 2 3 1
4 2 5 1
5 2 11 1
6 3 4 2
7 3 16 1
8 5 6 1
9 6 7 1
10 7 8 2
11 7 9 1
12 5 12 1
13 5 13 1
14 6 14 1
15 6 15 1
16 16 17 1
17 16 24 1
18 17 18 1
19 17 20 1
20 17 25 1
21 18 19 2
22 18 30 1
23 20 21 1
24 21 22 1
25 21 23 2
26 20 26 1
27 20 27 1
28 22 28 1
29 22 29 1
30 30 31 1
31 30 36 1
32 31 32 1
33 31 34 1
34 31 37 1
35 32 33 2
36 32 44 1
37 34 35 1
38 35 36 1
39 34 38 1
40 34 39 1
41 35 40 1
42 35 41 1
43 36 42 1
44 36 43 1
45 44 45 1
46 44 53 1
47 45 46 1
48 45 48 1
49 45 54 1
50 46 47 2
51 46 59 1
52 48 49 1
53 49 50 1
54 50 51 2
55 50 52 1
56 48 55 1
57 48 56 1
58 49 57 1
59 49 58 1
60 59 60 1
61 59 65 1
62 60 61 1
63 60 63 1
64 60 66 1
65 61 62 2
66 61 70 1
67 63 64 1
68 63 67 1
69 63 68 1
70 64 69 1
71 70 71 1
72 70 78 1
73 71 72 1
74 71 74 1
75 71 79 1
76 72 73 2
77 72 89 1
78 74 75 1
79 74 76 1
80 75 77 1
81 74 80 1
82 75 81 1
83 75 82 1
84 76 83 1
85 76 84 1
86 76 85 1
87 77 86 1
88 77 87 1
89 77 88 1
90 89 90 1
91 89 97 1
92 90 91 1
93 90 93 1
94 90 98 1
95 91 92 2
96 91 108 1
97 93 94 1
98 94 95 1
99 94 96 1
100 93 99 1
101 93 100 1
102 94 101 1
103 95 102 1
104 95 103 1
105 95 104 1
106 96 105 1
107 96 106 1
108 96 107 1
109 108 109 1
110 108 116 1
111 109 110 1
112 109 112 1
113 109 117 1
114 110 111 2
115 110 120 1
116 112 113 1
117 113 114 2
118 113 115 1
119 112 118 1
120 112 119 1
121 120 121 1
122 120 129 1
123 121 122 1
124 121 124 1
125 121 130 1
126 122 123 2
127 122 135 1
128 124 125 1
129 125 126 1
130 126 127 2
131 126 128 1
132 124 131 1
133 124 132 1
134 125 133 1
135 125 134 1
136 135 136 1
137 135 145 1
138 136 137 1
139 136 139 1
140 136 146 1
141 137 138 2
142 137 152 1
143 139 140 1
144 140 141 2
145 141 144 1
146 140 142 1
147 142 143 2
148 143 144 1
149 139 147 1
150 139 148 1
151 141 149 1
152 143 150 1
153 144 151 1
154 152 153 1
155 152 159 1
156 153 154 1
157 153 156 1
158 153 160 1
159 154 155 2
160 154 168 1
161 156 157 1
162 156 158 1
163 156 161 1
164 157 162 1
165 157 163 1
166 157 164 1
167 158 165 1
168 158 166 1
169 158 167 1
170 168 169 1
171 168 177 1
172 169 170 1
173 169 172 1
174 169 178 1
175 170 171 2
176 170 185 1
177 172 173 1
178 173 174 1
179 174 175 1
180 174 176 2
181 172 179 1
182 172 180 1
183 173 181 1
184 173 182 1
185 175 183 1
186 175 184 1
187 185 186 1
188 185 196 1
189 186 187 1
190 186 189 1
191 186 197 1
192 187 188 2
193 187 209 1
194 189 190 1
195 190 191 1
196 191 192 1
197 192 193 1
198 193 194 2
199 193 195 1
200 189 198 1
201 189 199 1
202 190 200 1
203 190 201 1
204 191 202 1
205 191 203 1
206 192 204 1
207 194 205 1
208 194 206 1
209 195 207 1
210 195 208 1
211 209 210 1
212 209 216 1
213 210 211 1
214 210 213 1
215 210 217 1
216 211 212 2
217 211 225 1
218 213 214 1
219 213 215 1
220 213 218 1
221 214 219 1
222 214 220 1
223 214 221 1
224 215 222 1
225 215 223 1
226 215 224 1
227 225 226 1
228 225 233 1
229 226 227 1
230 226 229 1
231 226 234 1
232 227 228 2
233 227 242 1
234 229 230 1
235 230 231 1
236 231 232 1
237 229 235 1
238 229 236 1
239 230 237 1
240 230 238 1
241 232 239 1
242 232 240 1
243 232 241 1
244 242 243 1
245 242 253 1
246 243 244 1
247 243 246 1
248 243 254 1
249 244 245 2
250 246 247 1
251 247 248 1
252 248 249 1
253 249 250 1
254 250 251 2
255 250 252 1
256 246 255 1
257 246 256 1
258 247 257 1
259 247 258 1
260 248 259 1
261 248 260 1
262 249 261 1
263 251 262 1
264 251 263 1
265 252 264 1
266 252 265 1
@<TRIPOS>SUBSTRUCTURE
1	GLU1	1	RESIDUE	1 ****	GLU
2	ASN2	16	RESIDUE	1 ****	ASN
3	PRO3	30	RESIDUE	1 ****	PRO
4	GLU4	44	RESIDUE	1 ****	GLU
5	SER5	59	RESIDUE	1 ****	SER
6	ILE6	70	RESIDUE	1 ****	ILE
7	LEU7	89	RESIDUE	1 ****	LEU
8	ASP8	108	RESIDUE	1 ****	ASP
9	GLU9	120	RESIDUE	1 ****	GLU
10	HIS10	135	RESIDUE	1 ****	HIS
11	VAL11	152	RESIDUE	1 ****	VAL
12	GLN12	168	RESIDUE	1 ****	GLN
13	ARG13	185	RESIDUE	1 ****	ARG
14	VAL14	209	RESIDUE	1 ****	VAL
15	MET15	225	RESIDUE	1 ****	MET
16	ARG16	242	RESIDUE	1 ****	ARG
