@<TRIPOS>MOLECULE
4-2
264 266 16              
SMALL
USER_CHARGES
@<TRIPOS>ATOM
1	   N	541.583	126.357	-482.999	N.3	1	GLU1	-0.516	
2	  CA	542.142	127.706	-482.999	C.3	1	GLU1	0.040	
3	   C	543.651	127.666	-482.999	C.2	1	GLU1	0.537	
4	   O	544.326	128.365	-483.768	O.2	1	GLU1	-0.582	
5	  CB	541.619	128.491	-481.762	C.3	1	GLU1	0.056	
6	  CG	542.094	129.976	-481.651	C.3	1	GLU1	0.014	
7	  CD	541.670	130.780	-480.436	C.2	1	GLU1	0.805	
8	 OE1	540.942	130.278	-479.558	O.co2	1	GLU1	-0.819	
9	 OE2	542.100	131.950	-480.364	O.co2	1	GLU1	-0.819	
10	   H	542.210	125.478	-482.999	 H	1	GLU1	0.294	
11	  HA	541.816	128.224	-483.919	 H	1	GLU1	0.111	
12	 2HB	541.908	127.960	-480.832	 H	1	GLU1	-0.017	
13	 3HB	540.512	128.481	-481.749	 H	1	GLU1	-0.017	
14	 2HG	541.784	130.561	-482.532	 H	1	GLU1	-0.043	
15	 3HG	543.194	130.043	-481.622	 H	1	GLU1	-0.043	
16	   N	544.255	126.880	-482.174	N.am	2	ASN2	-0.416	
17	  CA	545.715	126.841	-482.174	C.3	2	ASN2	0.014	
18	   C	546.246	126.486	-483.543	C.2	2	ASN2	0.597	
19	   O	547.161	127.116	-484.071	O.2	2	ASN2	-0.568	
20	  CB	546.207	125.818	-481.110	C.3	2	ASN2	-0.204	
21	  CG	545.744	126.042	-479.666	C.2	2	ASN2	0.713	
22	 ND2	546.338	126.957	-478.948	N.pl3	2	ASN2	-0.919	
23	 OD1	544.823	125.408	-479.172	O.2	2	ASN2	-0.593	
24	   H	543.727	126.300	-481.537	 H	2	ASN2	0.272	
25	  HA	546.092	127.851	-481.929	 H	2	ASN2	0.105	
26	 2HB	547.311	125.759	-481.113	 H	2	ASN2	0.080	
27	 3HB	545.878	124.800	-481.395	 H	2	ASN2	0.080	
28	1HD2	545.857	127.130	-478.062	 H	2	ASN2	0.420	
29	2HD2	547.040	127.529	-479.417	 H	2	ASN2	0.420	
30	   N	545.724	125.491	-484.177	N.am	3	PRO3	-0.255	
31	  CA	546.176	125.081	-485.498	C.3	3	PRO3	-0.027	
32	   C	545.778	126.105	-486.575	C.2	3	PRO3	0.590	
33	   O	546.601	126.488	-487.407	O.2	3	PRO3	-0.575	
34	  CB	545.472	123.727	-485.668	C.3	3	PRO3	-0.007	
35	  CG	544.189	123.879	-484.837	C.3	3	PRO3	0.019	
36	  CD	544.646	124.697	-483.628	C.3	3	PRO3	0.019	
37	  HA	547.262	124.962	-485.512	 H	3	PRO3	0.064	
38	 2HB	546.095	122.945	-485.227	 H	3	PRO3	0.025	
39	 3HB	545.274	123.478	-486.713	 H	3	PRO3	0.025	
40	 2HG	543.761	122.916	-484.546	 H	3	PRO3	0.021	
41	 3HG	543.451	124.450	-485.405	 H	3	PRO3	0.021	
42	 2HD	545.036	124.048	-482.840	 H	3	PRO3	0.039	
43	 3HD	543.850	125.333	-483.235	 H	3	PRO3	0.039	
44	   N	544.573	126.565	-486.607	N.am	4	PRO4	-0.255	
45	  CA	544.132	127.534	-487.599	C.3	4	PRO4	-0.027	
46	   C	544.760	128.917	-487.358	C.2	4	PRO4	0.590	
47	   O	545.260	129.547	-488.290	O.2	4	PRO4	-0.575	
48	  CB	542.609	127.522	-487.397	C.3	4	PRO4	-0.007	
49	  CG	542.443	127.174	-485.911	C.3	4	PRO4	0.019	
50	  CD	543.559	126.156	-485.660	C.3	4	PRO4	0.019	
51	  HA	544.395	127.200	-488.606	 H	4	PRO4	0.064	
52	 2HB	542.177	126.724	-488.004	 H	4	PRO4	0.025	
53	 3HB	542.137	128.470	-487.666	 H	4	PRO4	0.025	
54	 2HG	541.455	126.767	-485.683	 H	4	PRO4	0.021	
55	 3HG	542.621	128.064	-485.304	 H	4	PRO4	0.021	
56	 2HD	543.225	125.143	-485.898	 H	4	PRO4	0.039	
57	 3HD	543.936	126.200	-484.636	 H	4	PRO4	0.039	
58	   N	544.762	129.421	-486.170	N.am	5	SER5	-0.416	
59	  CA	545.362	130.736	-485.961	C.3	5	SER5	-0.025	
60	   C	546.803	130.750	-486.416	C.2	5	SER5	0.597	
61	   O	547.255	131.653	-487.119	O.2	5	SER5	-0.568	
62	  CB	545.227	131.175	-484.482	C.3	5	SER5	0.212	
63	  OG	546.042	130.400	-483.595	O.3	5	SER5	-0.655	
64	   H	544.354	128.915	-485.397	 H	5	SER5	0.272	
65	  HA	544.820	131.463	-486.593	 H	5	SER5	0.084	
66	 2HB	544.173	131.133	-484.147	 H	5	SER5	0.035	
67	 3HB	545.517	132.239	-484.381	 H	5	SER5	0.035	
68	  HG	545.731	129.493	-483.638	 H	5	SER5	0.428	
69	   N	547.582	129.787	-486.056	N.am	6	ILE6	-0.416	
70	  CA	548.975	129.802	-486.496	C.3	6	ILE6	-0.060	
71	   C	549.066	129.862	-488.001	C.2	6	ILE6	0.597	
72	   O	549.823	130.653	-488.582	O.2	6	ILE6	-0.568	
73	  CB	549.779	128.573	-485.905	C.3	6	ILE6	0.130	
74	 CG1	549.666	128.405	-484.356	C.3	6	ILE6	-0.043	
75	 CG2	551.293	128.604	-486.281	C.3	6	ILE6	-0.320	
76	 CD1	550.159	127.058	-483.788	C.3	6	ILE6	-0.066	
77	   H	547.235	129.035	-485.479	 H	6	ILE6	0.272	
78	  HA	549.435	130.733	-486.116	 H	6	ILE6	0.087	
79	  HB	549.340	127.659	-486.358	 H	6	ILE6	0.019	
80	2HG1	548.607	128.493	-484.049	 H	6	ILE6	0.024	
81	3HG1	550.174	129.245	-483.841	 H	6	ILE6	0.024	
82	1HG2	551.471	128.602	-487.370	 H	6	ILE6	0.088	
83	2HG2	551.807	129.491	-485.865	 H	6	ILE6	0.088	
84	3HG2	551.836	127.714	-485.913	 H	6	ILE6	0.088	
85	1HD1	549.638	126.201	-484.255	 H	6	ILE6	0.019	
86	2HD1	551.243	126.906	-483.935	 H	6	ILE6	0.019	
87	3HD1	549.976	126.993	-482.699	 H	6	ILE6	0.019	
88	   N	548.334	129.065	-488.704	N.am	7	LEU7	-0.416	
89	  CA	548.423	129.123	-490.160	C.3	7	LEU7	-0.052	
90	   C	548.118	130.513	-490.665	C.2	7	LEU7	0.597	
91	   O	548.832	131.079	-491.506	O.2	7	LEU7	-0.568	
92	  CB	547.473	128.076	-490.807	C.3	7	LEU7	-0.110	
93	  CG	547.664	126.583	-490.427	C.3	7	LEU7	0.353	
94	 CD1	546.711	125.703	-491.249	C.3	7	LEU7	-0.412	
95	 CD2	549.111	126.101	-490.621	C.3	7	LEU7	-0.412	
96	   H	547.710	128.411	-488.254	 H	7	LEU7	0.272	
97	  HA	549.466	128.908	-490.455	 H	7	LEU7	0.092	
98	 2HB	547.549	128.166	-491.909	 H	7	LEU7	0.046	
99	 3HB	546.426	128.358	-490.578	 H	7	LEU7	0.046	
100	  HG	547.398	126.463	-489.356	 H	7	LEU7	-0.036	
101	1HD1	545.654	125.993	-491.103	 H	7	LEU7	0.100	
102	2HD1	546.918	125.762	-492.335	 H	7	LEU7	0.100	
103	3HD1	546.789	124.638	-490.960	 H	7	LEU7	0.100	
104	1HD2	549.472	126.262	-491.653	 H	7	LEU7	0.100	
105	2HD2	549.805	126.633	-489.943	 H	7	LEU7	0.100	
106	3HD2	549.223	125.025	-490.390	 H	7	LEU7	0.100	
107	   N	547.082	131.131	-490.207	N.am	8	ASP8	-0.516	
108	  CA	546.787	132.475	-490.695	C.3	8	ASP8	0.038	
109	   C	547.953	133.405	-490.462	C.2	8	ASP8	0.537	
110	   O	548.379	134.160	-491.349	O.2	8	ASP8	-0.582	
111	  CB	545.495	133.026	-490.029	C.3	8	ASP8	-0.030	
112	  CG	545.039	134.410	-490.516	C.2	8	ASP8	0.799	
113	 OD1	545.174	134.705	-491.721	O.co2	8	ASP8	-0.801	
114	 OD2	544.586	135.218	-489.679	O.co2	8	ASP8	-0.801	
115	   H	546.485	130.692	-489.521	 H	8	ASP8	0.294	
116	  HA	546.626	132.419	-491.788	 H	8	ASP8	0.088	
117	 2HB	545.630	133.083	-488.933	 H	8	ASP8	-0.012	
118	 3HB	544.649	132.340	-490.190	 H	8	ASP8	-0.012	
119	   N	548.525	133.414	-489.305	N.am	9	GLU9	-0.516	
120	  CA	549.653	134.313	-489.080	C.3	9	GLU9	0.040	
121	   C	550.755	134.058	-490.079	C.2	9	GLU9	0.537	
122	   O	551.314	134.979	-490.691	O.2	9	GLU9	-0.582	
123	  CB	550.183	134.136	-487.628	C.3	9	GLU9	0.056	
124	  CG	551.366	135.073	-487.220	C.3	9	GLU9	0.014	
125	  CD	551.971	134.910	-485.838	C.2	9	GLU9	0.805	
126	 OE1	551.522	134.066	-485.038	O.co2	9	GLU9	-0.819	
127	 OE2	552.938	135.650	-485.562	O.co2	9	GLU9	-0.819	
128	   H	548.196	132.808	-488.567	 H	9	GLU9	0.294	
129	  HA	549.308	135.354	-489.214	 H	9	GLU9	0.111	
130	 2HB	550.498	133.084	-487.470	 H	9	GLU9	-0.017	
131	 3HB	549.359	134.286	-486.905	 H	9	GLU9	-0.017	
132	 2HG	551.084	136.134	-487.310	 H	9	GLU9	-0.043	
133	 3HG	552.232	134.937	-487.888	 H	9	GLU9	-0.043	
134	   N	551.128	132.843	-490.302	N.am	10	HIS10	-0.416	
135	  CA	552.195	132.595	-491.268	C.3	10	HIS10	-0.058	
136	   C	551.846	133.170	-492.620	C.2	10	HIS10	0.597	
137	   O	552.652	133.850	-493.273	O.2	10	HIS10	-0.568	
138	  CB	552.350	131.068	-491.359	C.3	10	HIS10	-0.007	
139	  CG	553.720	130.609	-490.954	C.2	10	HIS10	0.187	
140	 CD2	554.041	130.265	-489.648	C.2	10	HIS10	-0.221	
141	 ND1	554.817	130.470	-491.801	N.2	10	HIS10	-0.543	
142	 CE1	555.739	130.047	-490.917	C.2	10	HIS10	0.163	
143	 NE2	555.361	129.896	-489.618	N.pl3	10	HIS10	-0.280	
144	   H	550.688	132.074	-489.816	 H	10	HIS10	0.272	
145	  HA	553.093	133.132	-490.919	 H	10	HIS10	0.136	
146	 2HB	552.160	130.706	-492.389	 H	10	HIS10	0.037	
147	 3HB	551.615	130.535	-490.721	 H	10	HIS10	0.037	
148	 2HD	553.344	130.295	-488.815	 H	10	HIS10	0.186	
149	 1HE	556.735	129.846	-491.288	 H	10	HIS10	0.144	
150	 2HE	555.919	129.586	-488.810	 H	10	HIS10	0.334	
151	   N	550.674	132.947	-493.111	N.am	11	VAL11	-0.416	
152	  CA	550.336	133.503	-494.418	C.3	11	VAL11	-0.087	
153	   C	550.506	135.004	-494.427	C.2	11	VAL11	0.597	
154	   O	551.100	135.592	-495.340	O.2	11	VAL11	-0.568	
155	  CB	548.857	133.103	-494.805	C.3	11	VAL11	0.299	
156	 CG1	548.275	133.767	-496.083	C.3	11	VAL11	-0.319	
157	 CG2	548.653	131.582	-495.007	C.3	11	VAL11	-0.319	
158	   H	550.000	132.397	-492.598	 H	11	VAL11	0.272	
159	  HA	551.034	133.094	-495.170	 H	11	VAL11	0.097	
160	  HB	548.203	133.412	-493.963	 H	11	VAL11	-0.030	
161	1HG1	548.870	133.539	-496.988	 H	11	VAL11	0.079	
162	2HG1	547.234	133.448	-496.285	 H	11	VAL11	0.079	
163	3HG1	548.222	134.869	-495.999	 H	11	VAL11	0.079	
164	1HG2	548.974	131.003	-494.122	 H	11	VAL11	0.079	
165	2HG2	547.587	131.328	-495.168	 H	11	VAL11	0.079	
166	3HG2	549.218	131.193	-495.875	 H	11	VAL11	0.079	
167	   N	550.016	135.694	-493.454	N.am	12	GLN12	-0.416	
168	  CA	550.179	137.145	-493.463	C.3	12	GLN12	-0.003	
169	   C	551.638	137.525	-493.539	C.2	12	GLN12	0.597	
170	   O	552.048	138.378	-494.324	O.2	12	GLN12	-0.568	
171	  CB	549.521	137.725	-492.191	C.3	12	GLN12	-0.004	
172	  CG	549.556	139.282	-492.044	C.3	12	GLN12	-0.064	
173	  CD	548.976	139.925	-490.778	C.2	12	GLN12	0.695	
174	 NE2	548.448	139.175	-489.845	N.pl3	12	GLN12	-0.941	
175	 OE1	549.020	141.134	-490.609	O.2	12	GLN12	-0.609	
176	   H	549.526	135.238	-492.698	 H	12	GLN12	0.272	
177	  HA	549.679	137.553	-494.361	 H	12	GLN12	0.085	
178	 2HB	550.008	137.269	-491.303	 H	12	GLN12	0.017	
179	 3HB	548.466	137.390	-492.149	 H	12	GLN12	0.017	
180	 2HG	549.062	139.756	-492.912	 H	12	GLN12	0.035	
181	 3HG	550.597	139.649	-492.087	 H	12	GLN12	0.035	
182	1HE2	548.145	139.676	-489.008	 H	12	GLN12	0.425	
183	2HE2	548.505	138.169	-490.017	 H	12	GLN12	0.425	
184	   N	552.480	136.939	-492.757	N.am	13	ARG13	-0.348	
185	  CA	553.891	137.308	-492.831	C.3	13	ARG13	-0.264	
186	   C	554.427	137.114	-494.230	C.2	13	ARG13	0.734	
187	   O	555.100	137.973	-494.795	O.2	13	ARG13	-0.589	
188	  CB	554.686	136.461	-491.797	C.3	13	ARG13	-0.001	
189	  CG	556.152	136.914	-491.547	C.3	13	ARG13	0.039	
190	  CD	556.874	136.003	-490.541	C.3	13	ARG13	0.049	
191	  NE	558.266	136.497	-490.325	N.pl3	13	ARG13	-0.530	
192	  CZ	559.164	135.937	-489.521	C.cat	13	ARG13	0.808	
193	 NH1	558.934	134.865	-488.817	N.pl3	13	ARG13	-0.863	
194	 NH2	560.335	136.485	-489.430	N.pl3	13	ARG13	-0.863	
195	   H	552.168	136.235	-492.103	 H	13	ARG13	0.275	
196	  HA	553.976	138.383	-492.587	 H	13	ARG13	0.156	
197	 2HB	554.665	135.398	-492.117	 H	13	ARG13	0.033	
198	 3HB	554.144	136.466	-490.830	 H	13	ARG13	0.033	
199	 2HG	556.152	137.964	-491.190	 H	13	ARG13	0.029	
200	 3HG	556.715	136.923	-492.502	 H	13	ARG13	0.029	
201	 2HD	556.879	134.960	-490.926	 H	13	ARG13	0.069	
202	 3HD	556.306	135.982	-489.585	 H	13	ARG13	0.069	
203	  HE	558.609	137.334	-490.807	 H	13	ARG13	0.346	
204	1HH1	557.993	134.482	-488.935	 H	13	ARG13	0.448	
205	2HH1	559.678	134.496	-488.222	 H	13	ARG13	0.448	
206	1HH2	560.498	137.325	-489.990	 H	13	ARG13	0.448	
207	2HH2	561.011	136.041	-488.806	 H	13	ARG13	0.448	
208	   N	554.169	136.013	-494.851	N.am	14	VAL14	-0.416	
209	  CA	554.687	135.825	-496.204	C.3	14	VAL14	-0.087	
210	   C	554.220	136.931	-497.120	C.2	14	VAL14	0.597	
211	   O	554.994	137.525	-497.881	O.2	14	VAL14	-0.568	
212	  CB	554.244	134.413	-496.756	C.3	14	VAL14	0.299	
213	 CG1	554.555	134.129	-498.252	C.3	14	VAL14	-0.319	
214	 CG2	554.849	133.218	-495.980	C.3	14	VAL14	-0.319	
215	   H	553.618	135.292	-494.409	 H	14	VAL14	0.272	
216	  HA	555.790	135.876	-496.173	 H	14	VAL14	0.097	
217	  HB	553.140	134.349	-496.646	 H	14	VAL14	-0.030	
218	1HG1	555.636	134.188	-498.478	 H	14	VAL14	0.079	
219	2HG1	554.207	133.127	-498.570	 H	14	VAL14	0.079	
220	3HG1	554.042	134.836	-498.931	 H	14	VAL14	0.079	
221	1HG2	554.630	133.278	-494.898	 H	14	VAL14	0.079	
222	2HG2	554.432	132.251	-496.322	 H	14	VAL14	0.079	
223	3HG2	555.948	133.160	-496.089	 H	14	VAL14	0.079	
224	   N	552.974	137.267	-497.109	N.am	15	MET15	-0.416	
225	  CA	552.521	138.336	-497.994	C.3	15	MET15	-0.024	
226	   C	553.290	139.611	-497.742	C.2	15	MET15	0.597	
227	   O	553.768	140.283	-498.669	O.2	15	MET15	-0.568	
228	  CB	550.996	138.563	-497.808	C.3	15	MET15	0.034	
229	  CG	550.087	137.369	-498.172	C.3	15	MET15	0.002	
230	  SD	548.365	137.892	-498.179	S.3	15	MET15	-0.274	
231	  CE	547.594	136.269	-498.230	C.3	15	MET15	-0.054	
232	   H	552.322	136.798	-496.497	 H	15	MET15	0.272	
233	  HA	552.722	138.037	-499.040	 H	15	MET15	0.088	
234	 2HB	550.677	139.427	-498.422	 H	15	MET15	0.024	
235	 3HB	550.784	138.865	-496.763	 H	15	MET15	0.024	
236	 2HG	550.219	136.554	-497.435	 H	15	MET15	0.044	
237	 3HG	550.345	136.948	-499.161	 H	15	MET15	0.044	
238	 1HE	547.954	135.686	-499.096	 H	15	MET15	0.068	
239	 2HE	547.825	135.704	-497.310	 H	15	MET15	0.068	
240	 3HE	546.497	136.364	-498.308	 H	15	MET15	0.068	
241	   N	553.455	140.013	-496.528	N.am	16	ARG16	-0.348	
242	  CA	554.199	141.246	-496.286	C.3	16	ARG16	-0.264	
243	   C	555.584	141.167	-496.884	C.2	16	ARG16	0.734	
244	   O	555.970	140.180	-497.504	O.2	16	ARG16	-0.589	
245	  CB	554.257	141.503	-494.753	C.3	16	ARG16	-0.001	
246	  CG	554.770	142.908	-494.330	C.3	16	ARG16	0.039	
247	  CD	554.829	143.065	-492.801	C.3	16	ARG16	0.049	
248	  NE	555.307	144.436	-492.456	N.pl3	16	ARG16	-0.530	
249	  CZ	555.480	144.902	-491.222	C.cat	16	ARG16	0.808	
250	 NH1	555.254	144.200	-490.148	N.pl3	16	ARG16	-0.863	
251	 NH2	555.896	146.121	-491.078	N.pl3	16	ARG16	-0.863	
252	   H	553.076	139.483	-495.756	 H	16	ARG16	0.275	
253	  HA	553.663	142.073	-496.789	 H	16	ARG16	0.156	
254	 2HB	554.879	140.713	-494.283	 H	16	ARG16	0.033	
255	 3HB	553.247	141.350	-494.320	 H	16	ARG16	0.033	
256	 2HG	554.114	143.685	-494.775	 H	16	ARG16	0.029	
257	 3HG	555.778	143.089	-494.755	 H	16	ARG16	0.029	
258	 2HD	555.506	142.291	-492.378	 H	16	ARG16	0.069	
259	 3HD	553.823	142.874	-492.370	 H	16	ARG16	0.069	
260	  HE	555.532	145.117	-493.188	 H	16	ARG16	0.346	
261	1HH1	554.930	143.248	-490.331	 H	16	ARG16	0.448	
262	2HH1	555.411	144.631	-489.235	 H	16	ARG16	0.448	
263	1HH2	556.069	146.655	-491.931	 H	16	ARG16	0.448	
264	2HH2	556.021	146.461	-490.123	 H	16	ARG16	0.448	
@<TRIPOS>BOND
1 1 2 1
2 1 10 1
3 2 3 1
4 2 5 1
5 2 11 1
6 3 4 2
7 3 16 1
8 5 6 1
9 6 7 1
10 7 8 2
11 7 9 1
12 5 12 1
13 5 13 1
14 6 14 1
15 6 15 1
16 16 17 1
17 16 24 1
18 17 18 1
19 17 20 1
20 17 25 1
21 18 19 2
22 18 30 1
23 20 21 1
24 21 22 1
25 21 23 2
26 20 26 1
27 20 27 1
28 22 28 1
29 22 29 1
30 30 31 1
31 30 36 1
32 31 32 1
33 31 34 1
34 31 37 1
35 32 33 2
36 32 44 1
37 34 35 1
38 35 36 1
39 34 38 1
40 34 39 1
41 35 40 1
42 35 41 1
43 36 42 1
44 36 43 1
45 44 45 1
46 44 50 1
47 45 46 1
48 45 48 1
49 45 51 1
50 46 47 2
51 46 58 1
52 48 49 1
53 49 50 1
54 48 52 1
55 48 53 1
56 49 54 1
57 49 55 1
58 50 56 1
59 50 57 1
60 58 59 1
61 58 64 1
62 59 60 1
63 59 62 1
64 59 65 1
65 60 61 2
66 60 69 1
67 62 63 1
68 62 66 1
69 62 67 1
70 63 68 1
71 69 70 1
72 69 77 1
73 70 71 1
74 70 73 1
75 70 78 1
76 71 72 2
77 71 88 1
78 73 74 1
79 73 75 1
80 74 76 1
81 73 79 1
82 74 80 1
83 74 81 1
84 75 82 1
85 75 83 1
86 75 84 1
87 76 85 1
88 76 86 1
89 76 87 1
90 88 89 1
91 88 96 1
92 89 90 1
93 89 92 1
94 89 97 1
95 90 91 2
96 90 107 1
97 92 93 1
98 93 94 1
99 93 95 1
100 92 98 1
101 92 99 1
102 93 100 1
103 94 101 1
104 94 102 1
105 94 103 1
106 95 104 1
107 95 105 1
108 95 106 1
109 107 108 1
110 107 115 1
111 108 109 1
112 108 111 1
113 108 116 1
114 109 110 2
115 109 119 1
116 111 112 1
117 112 113 2
118 112 114 1
119 111 117 1
120 111 118 1
121 119 120 1
122 119 128 1
123 120 121 1
124 120 123 1
125 120 129 1
126 121 122 2
127 121 134 1
128 123 124 1
129 124 125 1
130 125 126 2
131 125 127 1
132 123 130 1
133 123 131 1
134 124 132 1
135 124 133 1
136 134 135 1
137 134 144 1
138 135 136 1
139 135 138 1
140 135 145 1
141 136 137 2
142 136 151 1
143 138 139 1
144 139 140 2
145 140 143 1
146 139 141 1
147 141 142 2
148 142 143 1
149 138 146 1
150 138 147 1
151 140 148 1
152 142 149 1
153 143 150 1
154 151 152 1
155 151 158 1
156 152 153 1
157 152 155 1
158 152 159 1
159 153 154 2
160 153 167 1
161 155 156 1
162 155 157 1
163 155 160 1
164 156 161 1
165 156 162 1
166 156 163 1
167 157 164 1
168 157 165 1
169 157 166 1
170 167 168 1
171 167 176 1
172 168 169 1
173 168 171 1
174 168 177 1
175 169 170 2
176 169 184 1
177 171 172 1
178 172 173 1
179 173 174 1
180 173 175 2
181 171 178 1
182 171 179 1
183 172 180 1
184 172 181 1
185 174 182 1
186 174 183 1
187 184 185 1
188 184 195 1
189 185 186 1
190 185 188 1
191 185 196 1
192 186 187 2
193 186 208 1
194 188 189 1
195 189 190 1
196 190 191 1
197 191 192 1
198 192 193 2
199 192 194 1
200 188 197 1
201 188 198 1
202 189 199 1
203 189 200 1
204 190 201 1
205 190 202 1
206 191 203 1
207 193 204 1
208 193 205 1
209 194 206 1
210 194 207 1
211 208 209 1
212 208 215 1
213 209 210 1
214 209 212 1
215 209 216 1
216 210 211 2
217 210 224 1
218 212 213 1
219 212 214 1
220 212 217 1
221 213 218 1
222 213 219 1
223 213 220 1
224 214 221 1
225 214 222 1
226 214 223 1
227 224 225 1
228 224 232 1
229 225 226 1
230 225 228 1
231 225 233 1
232 226 227 2
233 226 241 1
234 228 229 1
235 229 230 1
236 230 231 1
237 228 234 1
238 228 235 1
239 229 236 1
240 229 237 1
241 231 238 1
242 231 239 1
243 231 240 1
244 241 242 1
245 241 252 1
246 242 243 1
247 242 245 1
248 242 253 1
249 243 244 2
250 245 246 1
251 246 247 1
252 247 248 1
253 248 249 1
254 249 250 2
255 249 251 1
256 245 254 1
257 245 255 1
258 246 256 1
259 246 257 1
260 247 258 1
261 247 259 1
262 248 260 1
263 250 261 1
264 250 262 1
265 251 263 1
266 251 264 1
@<TRIPOS>SUBSTRUCTURE
1	GLU1	1	RESIDUE	1 ****	GLU
2	ASN2	16	RESIDUE	1 ****	ASN
3	PRO3	30	RESIDUE	1 ****	PRO
4	PRO4	44	RESIDUE	1 ****	PRO
5	SER5	58	RESIDUE	1 ****	SER
6	ILE6	69	RESIDUE	1 ****	ILE
7	LEU7	88	RESIDUE	1 ****	LEU
8	ASP8	107	RESIDUE	1 ****	ASP
9	GLU9	119	RESIDUE	1 ****	GLU
10	HIS10	134	RESIDUE	1 ****	HIS
11	VAL11	151	RESIDUE	1 ****	VAL
12	GLN12	167	RESIDUE	1 ****	GLN
13	ARG13	184	RESIDUE	1 ****	ARG
14	VAL14	208	RESIDUE	1 ****	VAL
15	MET15	224	RESIDUE	1 ****	MET
16	ARG16	241	RESIDUE	1 ****	ARG
