REMARK WARNING: 32 MAX_TORS EXCEEDED!!!
REMARK  67 active torsions:
REMARK  status: ('A' for Active; 'I' for Inactive)
REMARK    1  A    between atoms: N_1  and  CA_2 
REMARK    2  A    between atoms: CA_2  and  C_3 
REMARK    3  A    between atoms: CA_2  and  CB_5 
REMARK       I    between atoms: C_3  and  N_11 
REMARK    4  A    between atoms: CB_5  and  CG_6 
REMARK    5  A    between atoms: CG_6  and  CD_7 
REMARK    6  A    between atoms: N_11  and  CA_12 
REMARK    7  A    between atoms: CA_12  and  C_13 
REMARK    8  A    between atoms: CA_12  and  CB_15 
REMARK       I    between atoms: C_13  and  N_22 
REMARK    9  A    between atoms: CB_15  and  CG_16 
REMARK       I    between atoms: CG_16  and  ND2_17 
REMARK   10  A    between atoms: CA_23  and  C_24 
REMARK       I    between atoms: C_24  and  N_29 
REMARK   11  A    between atoms: N_29  and  CA_30 
REMARK   12  A    between atoms: CA_30  and  C_31 
REMARK   13  A    between atoms: CA_30  and  CB_33 
REMARK       I    between atoms: C_31  and  N_39 
REMARK   14  A    between atoms: CB_33  and  CG_34 
REMARK   15  A    between atoms: CG_34  and  CD_35 
REMARK   16  A    between atoms: N_39  and  CA_40 
REMARK   17  A    between atoms: CA_40  and  C_41 
REMARK   18  A    between atoms: CA_40  and  CB_43 
REMARK       I    between atoms: C_41  and  N_47 
REMARK   19  A    between atoms: CB_43  and  OG_44 
REMARK   20  A    between atoms: N_47  and  CA_48 
REMARK   21  A    between atoms: CA_48  and  C_49 
REMARK   22  A    between atoms: CA_48  and  CB_51 
REMARK       I    between atoms: C_49  and  N_56 
REMARK   23  A    between atoms: CB_51  and  CG1_52 
REMARK   24  A    between atoms: N_56  and  CA_57 
REMARK   25  A    between atoms: CA_57  and  C_58 
REMARK   26  A    between atoms: CA_57  and  CB_60 
REMARK       I    between atoms: C_58  and  N_65 
REMARK   27  A    between atoms: CB_60  and  CG_61 
REMARK   28  A    between atoms: N_65  and  CA_66 
REMARK   29  A    between atoms: CA_66  and  C_67 
REMARK   30  A    between atoms: CA_66  and  CB_69 
REMARK       I    between atoms: C_67  and  N_74 
REMARK   31  A    between atoms: CB_69  and  CG_70 
REMARK   32  A    between atoms: N_74  and  CA_75 
REMARK   33  A    between atoms: CA_75  and  C_76 
REMARK   34  A    between atoms: CA_75  and  CB_78 
REMARK       I    between atoms: C_76  and  N_83 
REMARK   35  A    between atoms: CB_78  and  CG_79 
REMARK   36  A    between atoms: N_83  and  CA_84 
REMARK   37  A    between atoms: CA_84  and  C_85 
REMARK   38  A    between atoms: CA_84  and  CB_87 
REMARK       I    between atoms: C_85  and  N_95 
REMARK   39  A    between atoms: CB_87  and  CG_88 
REMARK   40  A    between atoms: N_95  and  CA_96 
REMARK   41  A    between atoms: CA_96  and  C_97 
REMARK   42  A    between atoms: CA_96  and  CB_99 
REMARK       I    between atoms: C_97  and  N_103 
REMARK   43  A    between atoms: N_103  and  CA_104 
REMARK   44  A    between atoms: CA_104  and  C_105 
REMARK   45  A    between atoms: CA_104  and  CB_107 
REMARK       I    between atoms: C_105  and  N_115 
REMARK   46  A    between atoms: CB_107  and  CG_108 
REMARK   47  A    between atoms: CG_108  and  CD_109 
REMARK       I    between atoms: CD_109  and  NE2_110 
REMARK   48  A    between atoms: N_115  and  CA_116 
REMARK   49  A    between atoms: CA_116  and  C_117 
REMARK   50  A    between atoms: CA_116  and  CB_119 
REMARK       I    between atoms: C_117  and  N_132 
REMARK   51  A    between atoms: CB_119  and  CG_120 
REMARK   52  A    between atoms: CG_120  and  CD_121 
REMARK   53  A    between atoms: CD_121  and  NE_122 
REMARK       I    between atoms: NE_122  and  CZ_123 
REMARK       I    between atoms: CZ_123  and  NH1_124 
REMARK       I    between atoms: CZ_123  and  NH2_125 
REMARK   54  A    between atoms: N_132  and  CA_133 
REMARK   55  A    between atoms: CA_133  and  C_134 
REMARK   56  A    between atoms: CA_133  and  CB_136 
REMARK       I    between atoms: C_134  and  N_140 
REMARK   57  A    between atoms: N_140  and  CA_141 
REMARK   58  A    between atoms: CA_141  and  C_142 
REMARK   59  A    between atoms: CA_141  and  CB_144 
REMARK       I    between atoms: C_142  and  N_149 
REMARK   60  A    between atoms: CB_144  and  CG_145 
REMARK   61  A    between atoms: CG_145  and  SD_146 
REMARK   62  A    between atoms: N_149  and  CA_150 
REMARK   63  A    between atoms: CA_150  and  C_151 
REMARK   64  A    between atoms: CA_150  and  CB_153 
REMARK   65  A    between atoms: CB_153  and  CG_154 
REMARK   66  A    between atoms: CG_154  and  CD_155 
REMARK   67  A    between atoms: CD_155  and  NE_156 
REMARK       I    between atoms: NE_156  and  CZ_157 
REMARK       I    between atoms: CZ_157  and  NH1_158 
ROOT
ATOM      1  C   ASP d   9    1494.571 443.408-1510.166  0.00  0.00     0.241 C 
ATOM      2  O   ASP d   9    1495.235 444.165-1510.891  0.00  0.00    -0.271 OA
ATOM      3  N   HIS d  10    1494.668 442.133-1510.336  0.00  0.00    -0.346 N 
ATOM      4  H   HIS d  10    1494.138 441.497-1509.759  0.00  0.00     0.163 HD
ENDROOT
BRANCH   3   5
ATOM      5  CA  HIS d  10    1495.557 441.623-1511.377  0.00  0.00     0.182 C 
BRANCH   5   6
ATOM      6  C   HIS d  10    1495.191 442.188-1512.728  0.00  0.00     0.241 C 
ATOM      7  O   HIS d  10    1496.043 442.654-1513.498  0.00  0.00    -0.271 OA
ATOM      8  N   VAL d  11    1493.953 442.187-1513.091  0.00  0.00    -0.346 N 
ATOM      9  H   VAL d  11    1493.240 441.813-1512.481  0.00  0.00     0.163 HD
BRANCH   8  10
ATOM     10  CA  VAL d  11    1493.599 442.733-1514.398  0.00  0.00     0.180 C 
BRANCH  10  11
ATOM     11  C   VAL d  11    1494.062 444.164-1514.529  0.00  0.00     0.241 C 
ATOM     12  O   VAL d  11    1494.663 444.571-1515.532  0.00  0.00    -0.271 OA
ATOM     13  N   GLN d  12    1493.823 444.989-1513.567  0.00  0.00    -0.346 N 
ATOM     14  H   GLN d  12    1493.334 444.682-1512.738  0.00  0.00     0.163 HD
BRANCH  13  15
ATOM     15  CA  GLN d  12    1494.271 446.373-1513.693  0.00  0.00     0.177 C 
BRANCH  15  16
ATOM     16  C   GLN d  12    1495.761 446.442-1513.929  0.00  0.00     0.241 C 
ATOM     17  O   GLN d  12    1496.248 447.151-1514.807  0.00  0.00    -0.271 OA
ATOM     18  N   ARG d  13    1496.546 445.735-1513.188  0.00  0.00    -0.346 N 
ATOM     19  H   ARG d  13    1496.170 445.145-1512.460  0.00  0.00     0.163 HD
BRANCH  18  20
ATOM     20  CA  ARG d  13    1497.986 445.802-1513.418  0.00  0.00     0.176 C 
BRANCH  20  21
ATOM     21  C   ARG d  13    1498.323 445.432-1514.843  0.00  0.00     0.241 C 
ATOM     22  O   ARG d  13    1499.092 446.104-1515.526  0.00  0.00    -0.271 OA
ATOM     23  N   VAL d  14    1497.789 444.377-1515.358  0.00  0.00    -0.346 N 
ATOM     24  H   VAL d  14    1497.154 443.808-1514.817  0.00  0.00     0.163 HD
BRANCH  23  25
ATOM     25  CA  VAL d  14    1498.115 444.019-1516.736  0.00  0.00     0.180 C 
BRANCH  25  26
ATOM     26  C   VAL d  14    1497.784 445.149-1517.681  0.00  0.00     0.241 C 
ATOM     27  O   VAL d  14    1498.578 445.531-1518.550  0.00  0.00    -0.271 OA
ATOM     28  N   MET d  15    1496.639 445.734-1517.580  0.00  0.00    -0.346 N 
ATOM     29  H   MET d  15    1495.974 445.440-1516.879  0.00  0.00     0.163 HD
BRANCH  28  30
ATOM     30  CA  MET d  15    1496.318 446.827-1518.493  0.00  0.00     0.177 C 
BRANCH  30  31
ATOM     31  C   MET d  15    1497.348 447.927-1518.404  0.00  0.00     0.241 C 
ATOM     32  O   MET d  15    1497.851 448.439-1519.416  0.00  0.00    -0.271 OA
ATOM     33  N   ARG d  16    1497.715 448.348-1517.242  0.00  0.00    -0.347 N 
ATOM     34  H   ARG d  16    1497.320 447.947-1516.403  0.00  0.00     0.163 HD
BRANCH  33  35
ATOM     35  CA  ARG d  16    1498.711 449.413-1517.157  0.00  0.00     0.162 C 
BRANCH  35  36
ATOM     36  C   ARG d  16    1499.982 449.022-1517.872  0.00  0.00     0.219 C 
ATOM     37  O   ARG d  16    1500.098 447.945-1518.454  0.00  0.00    -0.287 OA
ENDBRANCH  35  36
BRANCH  35  38
ATOM     38  CB  ARG d  16    1498.979 449.730-1515.658  0.00  0.00     0.035 C 
BRANCH  38  39
ATOM     39  CG  ARG d  16    1499.802 451.020-1515.384  0.00  0.00     0.023 C 
BRANCH  39  40
ATOM     40  CD  ARG d  16    1500.051 451.238-1513.882  0.00  0.00     0.138 C 
BRANCH  40  41
ATOM     41  NE  ARG d  16    1500.826 452.498-1513.680  0.00  0.00    -0.227 N 
ATOM     42  CZ  ARG d  16    1501.216 452.980-1512.504  0.00  0.00     0.665 C 
ATOM     43  NH1 ARG d  16    1500.968 452.394-1511.366  0.00  0.00    -0.235 N 
ATOM     44  NH2 ARG d  16    1501.879 454.093-1512.484  0.00  0.00    -0.235 N 
ATOM     45 11HH ARG d  16    1500.443 451.521-1511.451  0.00  0.00     0.174 HD
ATOM     46 12HH ARG d  16    1501.302 452.830-1510.504  0.00  0.00     0.174 HD
ATOM     47 21HH ARG d  16    1502.065 454.537-1513.386  0.00  0.00     0.174 HD
ATOM     48 22HH ARG d  16    1502.169 454.448-1511.571  0.00  0.00     0.174 HD
ATOM     49  HE  ARG d  16    1501.105 453.079-1514.477  0.00  0.00     0.177 HD
ENDBRANCH  40  41
ENDBRANCH  39  40
ENDBRANCH  38  39
ENDBRANCH  35  38
ENDBRANCH  33  35
ENDBRANCH  30  31
BRANCH  30  50
ATOM     50  CB  MET d  15    1494.896 447.371-1518.185  0.00  0.00     0.045 C 
BRANCH  50  51
ATOM     51  CG  MET d  15    1493.735 446.372-1518.378  0.00  0.00     0.076 C 
BRANCH  51  52
ATOM     52  SD  MET d  15    1492.161 447.237-1518.265  0.00  0.00    -0.173 SA
ATOM     53  CE  MET d  15    1491.080 445.807-1518.130  0.00  0.00     0.089 C 
ENDBRANCH  51  52
ENDBRANCH  50  51
ENDBRANCH  30  50
ENDBRANCH  28  30
ENDBRANCH  25  26
BRANCH  25  54
ATOM     54  CB  VAL d  14    1497.344 442.701-1517.144  0.00  0.00     0.009 C 
ATOM     55  CG1 VAL d  14    1497.435 442.284-1518.637  0.00  0.00     0.012 C 
ATOM     56  CG2 VAL d  14    1497.776 441.449-1516.344  0.00  0.00     0.012 C 
ENDBRANCH  25  54
ENDBRANCH  23  25
ENDBRANCH  20  21
BRANCH  20  57
ATOM     57  CB  ARG d  13    1498.700 444.864-1512.404  0.00  0.00     0.036 C 
BRANCH  57  58
ATOM     58  CG  ARG d  13    1500.244 445.018-1512.322  0.00  0.00     0.023 C 
BRANCH  58  59
ATOM     59  CD  ARG d  13    1500.872 444.031-1511.324  0.00  0.00     0.138 C 
BRANCH  59  60
ATOM     60  NE  ARG d  13    1502.349 444.239-1511.273  0.00  0.00    -0.227 N 
ATOM     61  CZ  ARG d  13    1503.197 443.548-1510.517  0.00  0.00     0.665 C 
ATOM     62  NH1 ARG d  13    1502.832 442.583-1509.720  0.00  0.00    -0.235 N 
ATOM     63  NH2 ARG d  13    1504.456 443.848-1510.573  0.00  0.00    -0.235 N 
ATOM     64 11HH ARG d  13    1501.827 442.396-1509.724  0.00  0.00     0.174 HD
ATOM     65 12HH ARG d  13    1503.545 442.100-1509.172  0.00  0.00     0.174 HD
ATOM     66 21HH ARG d  13    1504.723 444.607-1511.204  0.00  0.00     0.174 HD
ATOM     67 22HH ARG d  13    1505.091 443.307-1509.984  0.00  0.00     0.174 HD
ATOM     68  HE  ARG d  13    1502.799 444.962-1511.843  0.00  0.00     0.177 HD
ENDBRANCH  59  60
ENDBRANCH  58  59
ENDBRANCH  57  58
ENDBRANCH  20  57
ENDBRANCH  18  20
ENDBRANCH  15  16
BRANCH  15  69
ATOM     69  CB  GLN d  12    1493.878 447.139-1512.410  0.00  0.00     0.044 C 
BRANCH  69  70
ATOM     70  CG  GLN d  12    1494.237 448.661-1512.377  0.00  0.00     0.105 C 
BRANCH  70  71
ATOM     71  CD  GLN d  12    1493.933 449.474-1511.112  0.00  0.00     0.215 C 
ATOM     72  NE2 GLN d  12    1493.366 448.896-1510.084  0.00  0.00    -0.370 N 
ATOM     73 21HE GLN d  12    1493.258 449.490-1509.260  0.00  0.00     0.159 HD
ATOM     74 22HE GLN d  12    1493.203 447.892-1510.188  0.00  0.00     0.159 HD
ATOM     75  OE1 GLN d  12    1494.234 450.655-1511.034  0.00  0.00    -0.274 OA
ENDBRANCH  70  71
ENDBRANCH  69  70
ENDBRANCH  15  69
ENDBRANCH  13  15
ENDBRANCH  10  11
BRANCH  10  76
ATOM     76  CB  VAL d  11    1492.038 442.626-1514.619  0.00  0.00     0.009 C 
ATOM     77  CG1 VAL d  11    1491.469 443.330-1515.881  0.00  0.00     0.012 C 
ATOM     78  CG2 VAL d  11    1491.515 441.171-1514.693  0.00  0.00     0.012 C 
ENDBRANCH  10  76
ENDBRANCH   8  10
ENDBRANCH   5   6
BRANCH   5  79
ATOM     79  CB  HIS d  10    1495.395 440.094-1511.373  0.00  0.00     0.095 C 
BRANCH  79  80
ATOM     80  CG  HIS d  10    1496.681 439.385-1511.064  0.00  0.00     0.053 A 
ATOM     81  CD2 HIS d  10    1497.061 439.049-1509.771  0.00  0.00     0.116 A 
ATOM     82  NE2 HIS d  10    1498.277 438.419-1509.838  0.00  0.00    -0.359 N 
ATOM     83  CE1 HIS d  10    1498.540 438.423-1511.173  0.00  0.00     0.207 A 
ATOM     84  2HE HIS d  10    1498.844 438.041-1509.064  0.00  0.00     0.166 HD
ATOM     85  ND1 HIS d  10    1497.634 438.980-1511.996  0.00  0.00    -0.247 NA
ENDBRANCH  79  80
ENDBRANCH   5  79
ENDBRANCH   3   5
BRANCH   1  86
ATOM     86  CA  ASP d   9    1493.652 443.935-1509.091  0.00  0.00     0.186 C 
BRANCH  86  87
ATOM     87  N   ASP d   9    1492.349 443.277-1509.146  0.00  0.00    -0.345 N 
ATOM     88  C   ASP d   8    1491.669 443.327-1510.241  0.00  0.00     0.241 C 
ATOM     89  O   ASP d   8    1492.142 443.932-1511.216  0.00  0.00    -0.271 OA
ATOM     90  H   ASP d   9    1491.986 442.790-1508.339  0.00  0.00     0.163 HD
BRANCH  88  91
ATOM     91  CA  ASP d   8    1490.323 442.647-1510.299  0.00  0.00     0.186 C 
BRANCH  91  92
ATOM     92  N   ASP d   8    1490.393 441.298-1509.746  0.00  0.00    -0.346 N 
ATOM     93  C   LEU d   7    1491.230 440.457-1510.252  0.00  0.00     0.241 C 
ATOM     94  O   LEU d   7    1491.951 440.820-1511.194  0.00  0.00    -0.271 OA
ATOM     95  H   ASP d   8    1489.795 441.026-1508.978  0.00  0.00     0.163 HD
BRANCH  93  96
ATOM     96  CA  LEU d   7    1491.303 439.062-1509.680  0.00  0.00     0.177 C 
BRANCH  96  97
ATOM     97  N   LEU d   7    1491.358 439.097-1508.221  0.00  0.00    -0.346 N 
ATOM     98  C   ILE d   6    1492.304 439.761-1507.648  0.00  0.00     0.241 C 
ATOM     99  O   ILE d   6    1493.139 440.349-1508.352  0.00  0.00    -0.271 OA
ATOM    100  H   LEU d   7    1490.666 438.610-1507.670  0.00  0.00     0.163 HD
BRANCH  98 101
ATOM    101  CA  ILE d   6    1492.361 439.798-1506.140  0.00  0.00     0.180 C 
BRANCH 101 102
ATOM    102  N   ILE d   6    1491.048 440.093-1505.574  0.00  0.00    -0.346 N 
ATOM    103  C   SER d   5    1490.443 441.176-1505.928  0.00  0.00     0.243 C 
ATOM    104  O   SER d   5    1490.990 441.930-1506.732  0.00  0.00    -0.271 OA
ATOM    105  H   ILE d   6    1490.620 439.459-1504.915  0.00  0.00     0.163 HD
BRANCH 103 106
ATOM    106  CA  SER d   5    1489.085 441.481-1505.342  0.00  0.00     0.200 C 
BRANCH 106 107
ATOM    107  N   SER d   5    1488.215 440.310-1505.400  0.00  0.00    -0.344 N 
ATOM    108  C   GLU d   4    1487.988 439.757-1506.543  0.00  0.00     0.241 C 
ATOM    109  O   GLU d   4    1488.514 440.237-1507.558  0.00  0.00    -0.271 OA
ATOM    110  H   SER d   5    1487.798 439.938-1504.559  0.00  0.00     0.163 HD
BRANCH 108 111
ATOM    111  CA  GLU d   4    1487.089 438.546-1506.604  0.00  0.00     0.177 C 
BRANCH 111 112
ATOM    112  N   GLU d   4    1487.449 437.575-1505.575  0.00  0.00    -0.346 N 
ATOM    113  C   PRO d   3    1488.653 437.115-1505.543  0.00  0.00     0.241 C 
ATOM    114  O   PRO d   3    1489.477 437.498-1506.374  0.00  0.00    -0.271 OA
ATOM    115  H   GLU d   4    1486.765 437.268-1504.898  0.00  0.00     0.163 HD
BRANCH 113 116
ATOM    116  CA  PRO d   3    1489.052 436.092-1504.466  0.00  0.00     0.179 C 
ATOM    117  N   PRO d   3    1488.600 436.501-1503.144  0.00  0.00    -0.337 N 
ATOM    118  C   ASN d   2    1489.121 437.496-1502.510  0.00  0.00     0.243 C 
ATOM    119  CD  PRO d   3    1487.522 435.708-1502.595  0.00  0.00     0.127 C 
ATOM    120  O   ASN d   2    1490.036 438.126-1503.039  0.00  0.00    -0.271 OA
ATOM    121  CG  PRO d   3    1487.064 434.889-1503.805  0.00  0.00     0.022 C 
ATOM    122  CB  PRO d   3    1488.347 434.737-1504.635  0.00  0.00     0.037 C 
BRANCH 118 123
ATOM    123  CA  ASN d   2    1488.590 437.852-1501.141  0.00  0.00     0.185 C 
BRANCH 123 124
ATOM    124  N   ASN d   2    1487.131 437.890-1501.141  0.00  0.00    -0.346 N 
ATOM    125  C   GLU d   1    1486.526 438.676-1501.967  0.00  0.00     0.242 C 
ATOM    126  O   GLU d   1    1487.202 439.375-1502.735  0.00  0.00    -0.271 OA
ATOM    127  H   ASN d   2    1486.603 437.311-1500.505  0.00  0.00     0.163 HD
BRANCH 125 128
ATOM    128  CA  GLU d   1    1485.017 438.716-1501.967  0.00  0.00     0.191 C 
BRANCH 128 129
ATOM    129  N   GLU d   1    1484.458 437.367-1501.967  0.00  0.00    -0.326 NA
ATOM    130  H   GLU d   1    1485.085 436.488-1501.967  0.00  0.00     0.180 HD
ENDBRANCH 128 129
BRANCH 128 131
ATOM    131  CB  GLU d   1    1484.494 439.501-1500.730  0.00  0.00     0.047 C 
BRANCH 131 132
ATOM    132  CG  GLU d   1    1484.969 440.986-1500.619  0.00  0.00     0.116 C 
BRANCH 132 133
ATOM    133  CD  GLU d   1    1484.545 441.790-1499.404  0.00  0.00     0.172 C 
ATOM    134  OE1 GLU d   1    1483.817 441.288-1498.526  0.00  0.00    -0.648 OA
ATOM    135  OE2 GLU d   1    1484.975 442.960-1499.332  0.00  0.00    -0.648 OA
ENDBRANCH 132 133
ENDBRANCH 131 132
ENDBRANCH 128 131
ENDBRANCH 125 128
ENDBRANCH 123 124
BRANCH 123 136
ATOM    136  CB  ASN d   2    1489.082 436.829-1500.077  0.00  0.00     0.137 C 
BRANCH 136 137
ATOM    137  CG  ASN d   2    1488.619 437.052-1498.634  0.00  0.00     0.217 C 
ATOM    138  ND2 ASN d   2    1489.213 437.967-1497.916  0.00  0.00    -0.370 N 
ATOM    139 21HD ASN d   2    1488.733 438.140-1497.029  0.00  0.00     0.159 HD
ATOM    140 22HD ASN d   2    1489.915 438.539-1498.385  0.00  0.00     0.159 HD
ATOM    141  OD1 ASN d   2    1487.698 436.419-1498.140  0.00  0.00    -0.274 OA
ENDBRANCH 136 137
ENDBRANCH 123 136
ENDBRANCH 118 123
ENDBRANCH 113 116
ENDBRANCH 111 112
BRANCH 111 142
ATOM    142  CB  GLU d   4    1485.600 438.965-1506.434  0.00  0.00     0.045 C 
BRANCH 142 143
ATOM    143  CG  GLU d   4    1485.052 439.968-1507.500  0.00  0.00     0.116 C 
BRANCH 143 144
ATOM    144  CD  GLU d   4    1483.625 440.465-1507.356  0.00  0.00     0.172 C 
ATOM    145  OE1 GLU d   4    1482.899 440.067-1506.425  0.00  0.00    -0.648 OA
ATOM    146  OE2 GLU d   4    1483.236 441.294-1508.204  0.00  0.00    -0.648 OA
ENDBRANCH 143 144
ENDBRANCH 142 143
ENDBRANCH 111 142
ENDBRANCH 108 111
ENDBRANCH 106 107
BRANCH 106 147
ATOM    147  CB  SER d   5    1489.196 442.014-1503.891  0.00  0.00     0.199 C 
BRANCH 147 148
ATOM    148  OG  SER d   5    1489.928 441.134-1503.030  0.00  0.00    -0.398 OA
ATOM    149  HG  SER d   5    1489.439 440.309-1502.980  0.00  0.00     0.209 HD
ENDBRANCH 147 148
ENDBRANCH 106 147
ENDBRANCH 103 106
ENDBRANCH 101 102
BRANCH 101 150
ATOM    150  CB  ILE d   6    1492.961 438.462-1505.540  0.00  0.00     0.013 C 
ATOM    151  CG2 ILE d   6    1494.402 438.161-1506.056  0.00  0.00     0.012 C 
BRANCH 150 152
ATOM    152  CG1 ILE d   6    1492.981 438.400-1503.979  0.00  0.00     0.002 C 
ATOM    153  CD1 ILE d   6    1493.251 437.011-1503.365  0.00  0.00     0.005 C 
ENDBRANCH 150 152
ENDBRANCH 101 150
ENDBRANCH  98 101
ENDBRANCH  96  97
BRANCH  96 154
ATOM    154  CB  LEU d   7    1490.100 438.201-1510.160  0.00  0.00     0.038 C 
BRANCH 154 155
ATOM    155  CG  LEU d   7    1490.027 436.722-1509.694  0.00  0.00    -0.020 C 
ATOM    156  CD1 LEU d   7    1488.837 436.016-1510.360  0.00  0.00     0.009 C 
ATOM    157  CD2 LEU d   7    1491.321 435.943-1509.986  0.00  0.00     0.009 C 
ENDBRANCH 154 155
ENDBRANCH  96 154
ENDBRANCH  93  96
ENDBRANCH  91  92
BRANCH  91 158
ATOM    158  CB  ASP d   8    1489.245 443.486-1509.557  0.00  0.00     0.147 C 
BRANCH 158 159
ATOM    159  CG  ASP d   8    1489.026 444.907-1510.097  0.00  0.00     0.175 C 
ATOM    160  OD1 ASP d   8    1489.090 445.106-1511.327  0.00  0.00    -0.648 OA
ATOM    161  OD2 ASP d   8    1488.833 445.832-1509.281  0.00  0.00    -0.648 OA
ENDBRANCH 158 159
ENDBRANCH  91 158
ENDBRANCH  88  91
ENDBRANCH  86  87
BRANCH  86 162
ATOM    162  CB  ASP d   9    1494.289 443.766-1507.683  0.00  0.00     0.147 C 
BRANCH 162 163
ATOM    163  CG  ASP d   9    1495.635 444.478-1507.477  0.00  0.00     0.175 C 
ATOM    164  OD1 ASP d   9    1495.819 445.593-1508.006  0.00  0.00    -0.648 OA
ATOM    165  OD2 ASP d   9    1496.523 443.896-1506.821  0.00  0.00    -0.648 OA
ENDBRANCH 162 163
ENDBRANCH  86 162
ENDBRANCH   1  86
TORSDOF 67
