REMARK WARNING: 32 MAX_TORS EXCEEDED!!!
REMARK  70 active torsions:
REMARK  status: ('A' for Active; 'I' for Inactive)
REMARK    1  A    between atoms: N_1  and  CA_2 
REMARK    2  A    between atoms: CA_2  and  C_3 
REMARK    3  A    between atoms: CA_2  and  CB_5 
REMARK       I    between atoms: C_3  and  N_11 
REMARK    4  A    between atoms: CB_5  and  CG_6 
REMARK    5  A    between atoms: CG_6  and  CD_7 
REMARK    6  A    between atoms: N_11  and  CA_12 
REMARK    7  A    between atoms: CA_12  and  C_13 
REMARK    8  A    between atoms: CA_12  and  CB_15 
REMARK       I    between atoms: C_13  and  N_22 
REMARK    9  A    between atoms: CB_15  and  CG_16 
REMARK       I    between atoms: CG_16  and  ND2_17 
REMARK   10  A    between atoms: CA_23  and  C_24 
REMARK       I    between atoms: C_24  and  N_29 
REMARK   11  A    between atoms: N_29  and  CA_30 
REMARK   12  A    between atoms: CA_30  and  C_31 
REMARK   13  A    between atoms: CA_30  and  CB_33 
REMARK       I    between atoms: C_31  and  N_39 
REMARK   14  A    between atoms: CB_33  and  CG_34 
REMARK   15  A    between atoms: CG_34  and  CD_35 
REMARK   16  A    between atoms: N_39  and  CA_40 
REMARK   17  A    between atoms: CA_40  and  C_41 
REMARK   18  A    between atoms: CA_40  and  CB_43 
REMARK       I    between atoms: C_41  and  N_47 
REMARK   19  A    between atoms: CB_43  and  OG_44 
REMARK   20  A    between atoms: N_47  and  CA_48 
REMARK   21  A    between atoms: CA_48  and  C_49 
REMARK   22  A    between atoms: CA_48  and  CB_51 
REMARK       I    between atoms: C_49  and  N_56 
REMARK   23  A    between atoms: CB_51  and  CG1_52 
REMARK   24  A    between atoms: N_56  and  CA_57 
REMARK   25  A    between atoms: CA_57  and  C_58 
REMARK   26  A    between atoms: CA_57  and  CB_60 
REMARK       I    between atoms: C_58  and  N_65 
REMARK   27  A    between atoms: CB_60  and  CG_61 
REMARK   28  A    between atoms: N_65  and  CA_66 
REMARK   29  A    between atoms: CA_66  and  C_67 
REMARK   30  A    between atoms: CA_66  and  CB_69 
REMARK       I    between atoms: C_67  and  N_74 
REMARK   31  A    between atoms: CB_69  and  CG_70 
REMARK   32  A    between atoms: N_74  and  CA_75 
REMARK   33  A    between atoms: CA_75  and  C_76 
REMARK   34  A    between atoms: CA_75  and  CB_78 
REMARK       I    between atoms: C_76  and  N_84 
REMARK   35  A    between atoms: CB_78  and  CG_79 
REMARK   36  A    between atoms: CG_79  and  CD_80 
REMARK   37  A    between atoms: N_84  and  CA_85 
REMARK   38  A    between atoms: CA_85  and  C_86 
REMARK   39  A    between atoms: CA_85  and  CB_88 
REMARK       I    between atoms: C_86  and  N_96 
REMARK   40  A    between atoms: CB_88  and  CG_89 
REMARK   41  A    between atoms: N_96  and  CA_97 
REMARK   42  A    between atoms: CA_97  and  C_98 
REMARK   43  A    between atoms: CA_97  and  CB_100 
REMARK       I    between atoms: C_98  and  N_104 
REMARK   44  A    between atoms: N_104  and  CA_105 
REMARK   45  A    between atoms: CA_105  and  C_106 
REMARK   46  A    between atoms: CA_105  and  CB_108 
REMARK       I    between atoms: C_106  and  N_116 
REMARK   47  A    between atoms: CB_108  and  CG_109 
REMARK   48  A    between atoms: CG_109  and  CD_110 
REMARK       I    between atoms: CD_110  and  NE2_111 
REMARK   49  A    between atoms: N_116  and  CA_117 
REMARK   50  A    between atoms: CA_117  and  C_118 
REMARK   51  A    between atoms: CA_117  and  CB_120 
REMARK       I    between atoms: C_118  and  N_133 
REMARK   52  A    between atoms: CB_120  and  CG_121 
REMARK   53  A    between atoms: CG_121  and  CD_122 
REMARK   54  A    between atoms: CD_122  and  NE_123 
REMARK       I    between atoms: NE_123  and  CZ_124 
REMARK       I    between atoms: CZ_124  and  NH1_125 
REMARK       I    between atoms: CZ_124  and  NH2_126 
REMARK   55  A    between atoms: N_133  and  CA_134 
REMARK   56  A    between atoms: CA_134  and  C_135 
REMARK   57  A    between atoms: CA_134  and  CB_137 
REMARK       I    between atoms: C_135  and  N_143 
REMARK   58  A    between atoms: CB_137  and  CG_138 
REMARK   59  A    between atoms: CG_138  and  CD_139 
REMARK   60  A    between atoms: N_143  and  CA_144 
REMARK   61  A    between atoms: CA_144  and  C_145 
REMARK   62  A    between atoms: CA_144  and  CB_147 
REMARK       I    between atoms: C_145  and  N_152 
REMARK   63  A    between atoms: CB_147  and  CG_148 
REMARK   64  A    between atoms: CG_148  and  SD_149 
REMARK   65  A    between atoms: N_152  and  CA_153 
REMARK   66  A    between atoms: CA_153  and  C_154 
REMARK   67  A    between atoms: CA_153  and  CB_156 
REMARK   68  A    between atoms: CB_156  and  CG_157 
REMARK   69  A    between atoms: CG_157  and  CD_158 
REMARK   70  A    between atoms: CD_158  and  NE_159 
REMARK       I    between atoms: NE_159  and  CZ_160 
REMARK       I    between atoms: CZ_160  and  NH1_161 
ROOT
ATOM      1  C   GLU d   9    2318.324 711.917-2407.811  0.00  0.00     0.241 C 
ATOM      2  O   GLU d   9    2318.988 712.670-2408.537  0.00  0.00    -0.271 OA
ATOM      3  N   HIS d  10    2318.420 710.641-2407.980  0.00  0.00    -0.346 N 
ATOM      4  H   HIS d  10    2317.889 710.006-2407.401  0.00  0.00     0.163 HD
ENDROOT
BRANCH   3   5
ATOM      5  CA  HIS d  10    2319.307 710.129-2409.021  0.00  0.00     0.182 C 
BRANCH   5   6
ATOM      6  C   HIS d  10    2318.940 710.693-2410.372  0.00  0.00     0.241 C 
ATOM      7  O   HIS d  10    2319.793 711.157-2411.144  0.00  0.00    -0.271 OA
ATOM      8  N   VAL d  11    2317.702 710.693-2410.735  0.00  0.00    -0.346 N 
ATOM      9  H   VAL d  11    2316.989 710.321-2410.124  0.00  0.00     0.163 HD
BRANCH   8  10
ATOM     10  CA  VAL d  11    2317.347 711.238-2412.042  0.00  0.00     0.180 C 
BRANCH  10  11
ATOM     11  C   VAL d  11    2317.812 712.668-2412.175  0.00  0.00     0.241 C 
ATOM     12  O   VAL d  11    2318.413 713.073-2413.178  0.00  0.00    -0.271 OA
ATOM     13  N   GLN d  12    2317.576 713.495-2411.213  0.00  0.00    -0.346 N 
ATOM     14  H   GLN d  12    2317.087 713.189-2410.384  0.00  0.00     0.163 HD
BRANCH  13  15
ATOM     15  CA  GLN d  12    2318.025 714.877-2411.341  0.00  0.00     0.177 C 
BRANCH  15  16
ATOM     16  C   GLN d  12    2319.515 714.944-2411.579  0.00  0.00     0.241 C 
ATOM     17  O   GLN d  12    2320.002 715.651-2412.458  0.00  0.00    -0.271 OA
ATOM     18  N   ARG d  13    2320.300 714.237-2410.838  0.00  0.00    -0.346 N 
ATOM     19  H   ARG d  13    2319.923 713.648-2410.109  0.00  0.00     0.163 HD
BRANCH  18  20
ATOM     20  CA  ARG d  13    2321.740 714.302-2411.069  0.00  0.00     0.176 C 
BRANCH  20  21
ATOM     21  C   ARG d  13    2322.075 713.930-2412.494  0.00  0.00     0.241 C 
ATOM     22  O   ARG d  13    2322.844 714.601-2413.179  0.00  0.00    -0.271 OA
ATOM     23  N   GLU d  14    2321.539 712.875-2413.008  0.00  0.00    -0.346 N 
ATOM     24  H   GLU d  14    2320.904 712.307-2412.465  0.00  0.00     0.163 HD
BRANCH  23  25
ATOM     25  CA  GLU d  14    2321.863 712.515-2414.385  0.00  0.00     0.177 C 
BRANCH  25  26
ATOM     26  C   GLU d  14    2321.533 713.644-2415.331  0.00  0.00     0.241 C 
ATOM     27  O   GLU d  14    2322.329 714.025-2416.202  0.00  0.00    -0.271 OA
ATOM     28  N   MET d  15    2320.389 714.231-2415.230  0.00  0.00    -0.346 N 
ATOM     29  H   MET d  15    2319.724 713.939-2414.528  0.00  0.00     0.163 HD
BRANCH  28  30
ATOM     30  CA  MET d  15    2320.069 715.323-2416.145  0.00  0.00     0.177 C 
BRANCH  30  31
ATOM     31  C   MET d  15    2321.100 716.422-2416.058  0.00  0.00     0.241 C 
ATOM     32  O   MET d  15    2321.603 716.932-2417.072  0.00  0.00    -0.271 OA
ATOM     33  N   ARG d  16    2321.469 716.844-2414.896  0.00  0.00    -0.347 N 
ATOM     34  H   ARG d  16    2321.075 716.445-2414.057  0.00  0.00     0.163 HD
BRANCH  33  35
ATOM     35  CA  ARG d  16    2322.467 717.908-2414.814  0.00  0.00     0.162 C 
BRANCH  35  36
ATOM     36  C   ARG d  16    2323.737 717.514-2415.530  0.00  0.00     0.219 C 
ATOM     37  O   ARG d  16    2323.850 716.437-2416.111  0.00  0.00    -0.287 OA
ENDBRANCH  35  36
BRANCH  35  38
ATOM     38  CB  ARG d  16    2322.736 718.227-2413.316  0.00  0.00     0.035 C 
BRANCH  38  39
ATOM     39  CG  ARG d  16    2323.562 719.516-2413.045  0.00  0.00     0.023 C 
BRANCH  39  40
ATOM     40  CD  ARG d  16    2323.812 719.737-2411.544  0.00  0.00     0.138 C 
BRANCH  40  41
ATOM     41  NE  ARG d  16    2324.589 720.996-2411.345  0.00  0.00    -0.227 N 
ATOM     42  CZ  ARG d  16    2324.981 721.480-2410.170  0.00  0.00     0.665 C 
ATOM     43  NH1 ARG d  16    2324.733 720.896-2409.031  0.00  0.00    -0.235 N 
ATOM     44  NH2 ARG d  16    2325.645 722.592-2410.153  0.00  0.00    -0.235 N 
ATOM     45 11HH ARG d  16    2324.207 720.023-2409.114  0.00  0.00     0.174 HD
ATOM     46 12HH ARG d  16    2325.068 721.333-2408.170  0.00  0.00     0.174 HD
ATOM     47 21HH ARG d  16    2325.830 723.034-2411.055  0.00  0.00     0.174 HD
ATOM     48 22HH ARG d  16    2325.936 722.948-2409.241  0.00  0.00     0.174 HD
ATOM     49  HE  ARG d  16    2324.867 721.576-2412.143  0.00  0.00     0.177 HD
ENDBRANCH  40  41
ENDBRANCH  39  40
ENDBRANCH  38  39
ENDBRANCH  35  38
ENDBRANCH  33  35
ENDBRANCH  30  31
BRANCH  30  50
ATOM     50  CB  MET d  15    2318.648 715.870-2415.836  0.00  0.00     0.045 C 
BRANCH  50  51
ATOM     51  CG  MET d  15    2317.486 714.872-2416.027  0.00  0.00     0.076 C 
BRANCH  51  52
ATOM     52  SD  MET d  15    2315.912 715.739-2415.913  0.00  0.00    -0.173 SA
ATOM     53  CE  MET d  15    2314.830 714.310-2415.775  0.00  0.00     0.089 C 
ENDBRANCH  51  52
ENDBRANCH  50  51
ENDBRANCH  30  50
ENDBRANCH  28  30
ENDBRANCH  25  26
BRANCH  25  54
ATOM     54  CB  GLU d  14    2321.090 711.226-2414.787  0.00  0.00     0.045 C 
BRANCH  54  55
ATOM     55  CG  GLU d  14    2321.375 710.686-2416.226  0.00  0.00     0.116 C 
BRANCH  55  56
ATOM     56  CD  GLU d  14    2320.608 709.466-2416.702  0.00  0.00     0.172 C 
ATOM     57  OE1 GLU d  14    2319.787 708.894-2415.959  0.00  0.00    -0.648 OA
ATOM     58  OE2 GLU d  14    2320.834 709.087-2417.870  0.00  0.00    -0.648 OA
ENDBRANCH  55  56
ENDBRANCH  54  55
ENDBRANCH  25  54
ENDBRANCH  23  25
ENDBRANCH  20  21
BRANCH  20  59
ATOM     59  CB  ARG d  13    2322.453 713.364-2410.055  0.00  0.00     0.036 C 
BRANCH  59  60
ATOM     60  CG  ARG d  13    2323.998 713.517-2409.974  0.00  0.00     0.023 C 
BRANCH  60  61
ATOM     61  CD  ARG d  13    2324.625 712.529-2408.976  0.00  0.00     0.138 C 
BRANCH  61  62
ATOM     62  NE  ARG d  13    2326.102 712.736-2408.926  0.00  0.00    -0.227 N 
ATOM     63  CZ  ARG d  13    2326.950 712.045-2408.171  0.00  0.00     0.665 C 
ATOM     64  NH1 ARG d  13    2326.585 711.081-2407.372  0.00  0.00    -0.235 N 
ATOM     65  NH2 ARG d  13    2328.210 712.344-2408.228  0.00  0.00    -0.235 N 
ATOM     66 11HH ARG d  13    2325.580 710.895-2407.375  0.00  0.00     0.174 HD
ATOM     67 12HH ARG d  13    2327.299 710.598-2406.823  0.00  0.00     0.174 HD
ATOM     68 21HH ARG d  13    2328.478 713.101-2408.860  0.00  0.00     0.174 HD
ATOM     69 22HH ARG d  13    2328.845 711.802-2407.639  0.00  0.00     0.174 HD
ATOM     70  HE  ARG d  13    2326.553 713.458-2409.498  0.00  0.00     0.177 HD
ENDBRANCH  61  62
ENDBRANCH  60  61
ENDBRANCH  59  60
ENDBRANCH  20  59
ENDBRANCH  18  20
ENDBRANCH  15  16
BRANCH  15  71
ATOM     71  CB  GLN d  12    2317.635 715.646-2410.059  0.00  0.00     0.044 C 
BRANCH  71  72
ATOM     72  CG  GLN d  12    2317.996 717.167-2410.028  0.00  0.00     0.105 C 
BRANCH  72  73
ATOM     73  CD  GLN d  12    2317.695 717.982-2408.764  0.00  0.00     0.215 C 
ATOM     74  NE2 GLN d  12    2317.127 717.406-2407.735  0.00  0.00    -0.370 N 
ATOM     75 21HE GLN d  12    2317.021 718.001-2406.911  0.00  0.00     0.159 HD
ATOM     76 22HE GLN d  12    2316.963 716.403-2407.837  0.00  0.00     0.159 HD
ATOM     77  OE1 GLN d  12    2317.997 719.163-2408.687  0.00  0.00    -0.274 OA
ENDBRANCH  72  73
ENDBRANCH  71  72
ENDBRANCH  15  71
ENDBRANCH  13  15
ENDBRANCH  10  11
BRANCH  10  78
ATOM     78  CB  VAL d  11    2315.786 711.132-2412.261  0.00  0.00     0.009 C 
ATOM     79  CG1 VAL d  11    2315.217 711.836-2413.524  0.00  0.00     0.012 C 
ATOM     80  CG2 VAL d  11    2315.260 709.678-2412.333  0.00  0.00     0.012 C 
ENDBRANCH  10  78
ENDBRANCH   8  10
ENDBRANCH   5   6
BRANCH   5  81
ATOM     81  CB  HIS d  10    2319.142 708.600-2409.015  0.00  0.00     0.095 C 
BRANCH  81  82
ATOM     82  CG  HIS d  10    2320.428 707.889-2408.707  0.00  0.00     0.053 A 
ATOM     83  CD2 HIS d  10    2320.809 707.555-2407.414  0.00  0.00     0.116 A 
ATOM     84  NE2 HIS d  10    2322.023 706.922-2407.481  0.00  0.00    -0.359 N 
ATOM     85  CE1 HIS d  10    2322.286 706.925-2408.816  0.00  0.00     0.207 A 
ATOM     86  2HE HIS d  10    2322.590 706.545-2406.708  0.00  0.00     0.166 HD
ATOM     87  ND1 HIS d  10    2321.379 707.483-2409.639  0.00  0.00    -0.247 NA
ENDBRANCH  81  82
ENDBRANCH   5  81
ENDBRANCH   3   5
BRANCH   1  88
ATOM     88  CA  GLU d   9    2317.406 712.445-2406.735  0.00  0.00     0.177 C 
BRANCH  88  89
ATOM     89  N   GLU d   9    2316.103 711.788-2406.790  0.00  0.00    -0.346 N 
ATOM     90  C   ASP d   8    2315.423 711.838-2407.885  0.00  0.00     0.241 C 
ATOM     91  O   ASP d   8    2315.896 712.442-2408.860  0.00  0.00    -0.271 OA
ATOM     92  H   GLU d   9    2315.740 711.302-2405.983  0.00  0.00     0.163 HD
BRANCH  90  93
ATOM     93  CA  ASP d   8    2314.076 711.159-2407.942  0.00  0.00     0.186 C 
BRANCH  93  94
ATOM     94  N   ASP d   8    2314.146 709.810-2407.388  0.00  0.00    -0.346 N 
ATOM     95  C   LEU d   7    2314.983 708.968-2407.894  0.00  0.00     0.241 C 
ATOM     96  O   LEU d   7    2315.704 709.330-2408.836  0.00  0.00    -0.271 OA
ATOM     97  H   ASP d   8    2313.548 709.539-2406.620  0.00  0.00     0.163 HD
BRANCH  95  98
ATOM     98  CA  LEU d   7    2315.055 707.573-2407.321  0.00  0.00     0.177 C 
BRANCH  98  99
ATOM     99  N   LEU d   7    2315.110 707.609-2405.862  0.00  0.00    -0.346 N 
ATOM    100  C   ILE d   6    2316.056 708.272-2405.289  0.00  0.00     0.241 C 
ATOM    101  O   ILE d   6    2316.890 708.860-2405.993  0.00  0.00    -0.271 OA
ATOM    102  H   LEU d   7    2314.417 707.122-2405.311  0.00  0.00     0.163 HD
BRANCH 100 103
ATOM    103  CA  ILE d   6    2316.113 708.310-2403.781  0.00  0.00     0.180 C 
BRANCH 103 104
ATOM    104  N   ILE d   6    2314.800 708.605-2403.215  0.00  0.00    -0.346 N 
ATOM    105  C   SER d   5    2314.195 709.689-2403.569  0.00  0.00     0.243 C 
ATOM    106  O   SER d   5    2314.743 710.442-2404.374  0.00  0.00    -0.271 OA
ATOM    107  H   ILE d   6    2314.371 707.971-2402.556  0.00  0.00     0.163 HD
BRANCH 105 108
ATOM    108  CA  SER d   5    2312.836 709.995-2402.984  0.00  0.00     0.200 C 
BRANCH 108 109
ATOM    109  N   SER d   5    2311.967 708.824-2403.043  0.00  0.00    -0.344 N 
ATOM    110  C   GLU d   4    2311.740 708.271-2404.186  0.00  0.00     0.241 C 
ATOM    111  O   GLU d   4    2312.266 708.750-2405.200  0.00  0.00    -0.271 OA
ATOM    112  H   SER d   5    2311.549 708.452-2402.202  0.00  0.00     0.163 HD
BRANCH 110 113
ATOM    113  CA  GLU d   4    2310.840 707.060-2404.248  0.00  0.00     0.177 C 
BRANCH 113 114
ATOM    114  N   GLU d   4    2311.199 706.089-2403.218  0.00  0.00    -0.346 N 
ATOM    115  C   PRO d   3    2312.404 705.629-2403.185  0.00  0.00     0.241 C 
ATOM    116  O   PRO d   3    2313.228 706.012-2404.017  0.00  0.00    -0.271 OA
ATOM    117  H   GLU d   4    2310.515 705.783-2402.542  0.00  0.00     0.163 HD
BRANCH 115 118
ATOM    118  CA  PRO d   3    2312.802 704.605-2402.108  0.00  0.00     0.179 C 
ATOM    119  N   PRO d   3    2312.350 705.015-2400.787  0.00  0.00    -0.337 N 
ATOM    120  C   ASN d   2    2312.871 706.010-2400.153  0.00  0.00     0.243 C 
ATOM    121  CD  PRO d   3    2311.271 704.222-2400.238  0.00  0.00     0.127 C 
ATOM    122  O   ASN d   2    2313.786 706.640-2400.681  0.00  0.00    -0.271 OA
ATOM    123  CG  PRO d   3    2310.814 703.403-2401.448  0.00  0.00     0.022 C 
ATOM    124  CB  PRO d   3    2312.098 703.251-2402.278  0.00  0.00     0.037 C 
BRANCH 120 125
ATOM    125  CA  ASN d   2    2312.340 706.365-2398.784  0.00  0.00     0.185 C 
BRANCH 125 126
ATOM    126  N   ASN d   2    2310.881 706.404-2398.784  0.00  0.00    -0.346 N 
ATOM    127  C   GLU d   1    2310.276 707.190-2399.609  0.00  0.00     0.242 C 
ATOM    128  O   GLU d   1    2310.952 707.889-2400.378  0.00  0.00    -0.271 OA
ATOM    129  H   ASN d   2    2310.352 705.825-2398.148  0.00  0.00     0.163 HD
BRANCH 127 130
ATOM    130  CA  GLU d   1    2308.767 707.230-2399.609  0.00  0.00     0.191 C 
BRANCH 130 131
ATOM    131  N   GLU d   1    2308.208 705.881-2399.609  0.00  0.00    -0.326 NA
ATOM    132  H   GLU d   1    2308.835 705.002-2399.609  0.00  0.00     0.180 HD
ENDBRANCH 130 131
BRANCH 130 133
ATOM    133  CB  GLU d   1    2308.244 708.015-2398.373  0.00  0.00     0.047 C 
BRANCH 133 134
ATOM    134  CG  GLU d   1    2308.719 709.500-2398.261  0.00  0.00     0.116 C 
BRANCH 134 135
ATOM    135  CD  GLU d   1    2308.295 710.304-2397.046  0.00  0.00     0.172 C 
ATOM    136  OE1 GLU d   1    2307.567 709.802-2396.168  0.00  0.00    -0.648 OA
ATOM    137  OE2 GLU d   1    2308.725 711.474-2396.974  0.00  0.00    -0.648 OA
ENDBRANCH 134 135
ENDBRANCH 133 134
ENDBRANCH 130 133
ENDBRANCH 127 130
ENDBRANCH 125 126
BRANCH 125 138
ATOM    138  CB  ASN d   2    2312.832 705.342-2397.719  0.00  0.00     0.137 C 
BRANCH 138 139
ATOM    139  CG  ASN d   2    2312.368 705.566-2396.276  0.00  0.00     0.217 C 
ATOM    140  ND2 ASN d   2    2312.962 706.481-2395.558  0.00  0.00    -0.370 N 
ATOM    141 21HD ASN d   2    2312.481 706.654-2394.672  0.00  0.00     0.159 HD
ATOM    142 22HD ASN d   2    2313.664 707.052-2396.027  0.00  0.00     0.159 HD
ATOM    143  OD1 ASN d   2    2311.447 704.933-2395.782  0.00  0.00    -0.274 OA
ENDBRANCH 138 139
ENDBRANCH 125 138
ENDBRANCH 120 125
ENDBRANCH 115 118
ENDBRANCH 113 114
BRANCH 113 144
ATOM    144  CB  GLU d   4    2309.352 707.479-2404.078  0.00  0.00     0.045 C 
BRANCH 144 145
ATOM    145  CG  GLU d   4    2308.804 708.483-2405.144  0.00  0.00     0.116 C 
BRANCH 145 146
ATOM    146  CD  GLU d   4    2307.378 708.980-2405.001  0.00  0.00     0.172 C 
ATOM    147  OE1 GLU d   4    2306.651 708.582-2404.070  0.00  0.00    -0.648 OA
ATOM    148  OE2 GLU d   4    2306.989 709.809-2405.849  0.00  0.00    -0.648 OA
ENDBRANCH 145 146
ENDBRANCH 144 145
ENDBRANCH 113 144
ENDBRANCH 110 113
ENDBRANCH 108 109
BRANCH 108 149
ATOM    149  CB  SER d   5    2312.948 710.527-2401.534  0.00  0.00     0.199 C 
BRANCH 149 150
ATOM    150  OG  SER d   5    2313.679 709.647-2400.673  0.00  0.00    -0.398 OA
ATOM    151  HG  SER d   5    2313.190 708.823-2400.622  0.00  0.00     0.209 HD
ENDBRANCH 149 150
ENDBRANCH 108 149
ENDBRANCH 105 108
ENDBRANCH 103 104
BRANCH 103 152
ATOM    152  CB  ILE d   6    2316.712 706.974-2403.181  0.00  0.00     0.013 C 
ATOM    153  CG2 ILE d   6    2318.153 706.671-2403.696  0.00  0.00     0.012 C 
BRANCH 152 154
ATOM    154  CG1 ILE d   6    2316.731 706.911-2401.620  0.00  0.00     0.002 C 
ATOM    155  CD1 ILE d   6    2317.000 705.522-2401.005  0.00  0.00     0.005 C 
ENDBRANCH 152 154
ENDBRANCH 103 152
ENDBRANCH 100 103
ENDBRANCH  98  99
BRANCH  98 156
ATOM    156  CB  LEU d   7    2313.851 706.713-2407.801  0.00  0.00     0.038 C 
BRANCH 156 157
ATOM    157  CG  LEU d   7    2313.778 705.234-2407.335  0.00  0.00    -0.020 C 
ATOM    158  CD1 LEU d   7    2312.588 704.528-2408.000  0.00  0.00     0.009 C 
ATOM    159  CD2 LEU d   7    2315.072 704.454-2407.626  0.00  0.00     0.009 C 
ENDBRANCH 156 157
ENDBRANCH  98 156
ENDBRANCH  95  98
ENDBRANCH  93  94
BRANCH  93 160
ATOM    160  CB  ASP d   8    2312.998 711.999-2407.201  0.00  0.00     0.147 C 
BRANCH 160 161
ATOM    161  CG  ASP d   8    2312.780 713.419-2407.742  0.00  0.00     0.175 C 
ATOM    162  OD1 ASP d   8    2312.845 713.617-2408.973  0.00  0.00    -0.648 OA
ATOM    163  OD2 ASP d   8    2312.589 714.346-2406.927  0.00  0.00    -0.648 OA
ENDBRANCH 160 161
ENDBRANCH  93 160
ENDBRANCH  90  93
ENDBRANCH  88  89
BRANCH  88 164
ATOM    164  CB  GLU d   9    2318.040 712.238-2405.330  0.00  0.00     0.045 C 
BRANCH 164 165
ATOM    165  CG  GLU d   9    2319.423 712.930-2405.101  0.00  0.00     0.116 C 
BRANCH 165 166
ATOM    166  CD  GLU d   9    2320.125 712.717-2403.773  0.00  0.00     0.172 C 
ATOM    167  OE1 GLU d   9    2319.603 712.026-2402.876  0.00  0.00    -0.648 OA
ATOM    168  OE2 GLU d   9    2321.244 713.254-2403.642  0.00  0.00    -0.648 OA
ENDBRANCH 165 166
ENDBRANCH 164 165
ENDBRANCH  88 164
ENDBRANCH   1  88
TORSDOF 70
