REMARK WARNING: 32 MAX_TORS EXCEEDED!!!
REMARK  68 active torsions:
REMARK  status: ('A' for Active; 'I' for Inactive)
REMARK    1  A    between atoms: N_1  and  CA_2 
REMARK    2  A    between atoms: CA_2  and  C_3 
REMARK    3  A    between atoms: CA_2  and  CB_5 
REMARK       I    between atoms: C_3  and  N_11 
REMARK    4  A    between atoms: CB_5  and  CG_6 
REMARK    5  A    between atoms: CG_6  and  CD_7 
REMARK    6  A    between atoms: N_11  and  CA_12 
REMARK    7  A    between atoms: CA_12  and  C_13 
REMARK    8  A    between atoms: CA_12  and  CB_15 
REMARK       I    between atoms: C_13  and  N_22 
REMARK    9  A    between atoms: CB_15  and  CG_16 
REMARK       I    between atoms: CG_16  and  ND2_17 
REMARK   10  A    between atoms: CA_23  and  C_24 
REMARK       I    between atoms: C_24  and  N_29 
REMARK   11  A    between atoms: N_29  and  CA_30 
REMARK   12  A    between atoms: CA_30  and  C_31 
REMARK   13  A    between atoms: CA_30  and  CB_33 
REMARK       I    between atoms: C_31  and  N_39 
REMARK   14  A    between atoms: CB_33  and  CG_34 
REMARK   15  A    between atoms: CG_34  and  CD_35 
REMARK   16  A    between atoms: N_39  and  CA_40 
REMARK   17  A    between atoms: CA_40  and  C_41 
REMARK   18  A    between atoms: CA_40  and  CB_43 
REMARK       I    between atoms: C_41  and  N_47 
REMARK   19  A    between atoms: CB_43  and  OG_44 
REMARK   20  A    between atoms: N_47  and  CA_48 
REMARK   21  A    between atoms: CA_48  and  C_49 
REMARK   22  A    between atoms: CA_48  and  CB_51 
REMARK       I    between atoms: C_49  and  N_56 
REMARK   23  A    between atoms: CB_51  and  CG1_52 
REMARK   24  A    between atoms: N_56  and  CA_57 
REMARK   25  A    between atoms: CA_57  and  C_58 
REMARK   26  A    between atoms: CA_57  and  CB_60 
REMARK       I    between atoms: C_58  and  N_67 
REMARK   27  A    between atoms: CB_60  and  CG_61 
REMARK       I    between atoms: CG_61  and  ND2_62 
REMARK   28  A    between atoms: N_67  and  CA_68 
REMARK   29  A    between atoms: CA_68  and  C_69 
REMARK   30  A    between atoms: CA_68  and  CB_71 
REMARK       I    between atoms: C_69  and  N_76 
REMARK   31  A    between atoms: CB_71  and  CG_72 
REMARK   32  A    between atoms: N_76  and  CA_77 
REMARK   33  A    between atoms: CA_77  and  C_78 
REMARK   34  A    between atoms: CA_77  and  CB_80 
REMARK       I    between atoms: C_78  and  N_86 
REMARK   35  A    between atoms: CB_80  and  CG_81 
REMARK   36  A    between atoms: CG_81  and  CD_82 
REMARK   37  A    between atoms: N_86  and  CA_87 
REMARK   38  A    between atoms: CA_87  and  C_88 
REMARK   39  A    between atoms: CA_87  and  CB_90 
REMARK       I    between atoms: C_88  and  N_98 
REMARK   40  A    between atoms: CB_90  and  CG_91 
REMARK   41  A    between atoms: N_98  and  CA_99 
REMARK   42  A    between atoms: CA_99  and  C_100 
REMARK   43  A    between atoms: CA_99  and  CB_102 
REMARK       I    between atoms: C_100  and  N_106 
REMARK   44  A    between atoms: N_106  and  CA_107 
REMARK   45  A    between atoms: CA_107  and  C_108 
REMARK   46  A    between atoms: CA_107  and  CB_110 
REMARK       I    between atoms: C_108  and  N_118 
REMARK   47  A    between atoms: CB_110  and  CG_111 
REMARK   48  A    between atoms: CG_111  and  CD_112 
REMARK       I    between atoms: CD_112  and  NE2_113 
REMARK   49  A    between atoms: N_118  and  CA_119 
REMARK   50  A    between atoms: CA_119  and  C_120 
REMARK   51  A    between atoms: CA_119  and  CB_122 
REMARK       I    between atoms: C_120  and  N_135 
REMARK   52  A    between atoms: CB_122  and  CG_123 
REMARK   53  A    between atoms: CG_123  and  CD_124 
REMARK   54  A    between atoms: CD_124  and  NE_125 
REMARK       I    between atoms: NE_125  and  CZ_126 
REMARK       I    between atoms: CZ_126  and  NH1_127 
REMARK       I    between atoms: CZ_126  and  NH2_128 
REMARK   55  A    between atoms: N_135  and  CA_136 
REMARK   56  A    between atoms: CA_136  and  C_137 
REMARK   57  A    between atoms: CA_136  and  CB_139 
REMARK       I    between atoms: C_137  and  N_143 
REMARK   58  A    between atoms: N_143  and  CA_144 
REMARK   59  A    between atoms: CA_144  and  C_145 
REMARK   60  A    between atoms: CA_144  and  CB_147 
REMARK       I    between atoms: C_145  and  N_152 
REMARK   61  A    between atoms: CB_147  and  CG_148 
REMARK   62  A    between atoms: CG_148  and  SD_149 
REMARK   63  A    between atoms: N_152  and  CA_153 
REMARK   64  A    between atoms: CA_153  and  C_154 
REMARK   65  A    between atoms: CA_153  and  CB_156 
REMARK   66  A    between atoms: CB_156  and  CG_157 
REMARK   67  A    between atoms: CG_157  and  CD_158 
REMARK   68  A    between atoms: CD_158  and  NE_159 
REMARK       I    between atoms: NE_159  and  CZ_160 
REMARK       I    between atoms: CZ_160  and  NH1_161 
ROOT
ATOM      1  C   GLU d   9    1150.693 329.952-1137.565  0.00  0.00     0.241 C 
ATOM      2  O   GLU d   9    1151.356 330.706-1138.290  0.00  0.00    -0.271 OA
ATOM      3  N   HIS d  10    1150.789 328.677-1137.734  0.00  0.00    -0.346 N 
ATOM      4  H   HIS d  10    1150.258 328.042-1137.156  0.00  0.00     0.163 HD
ENDROOT
BRANCH   1   5
ATOM      5  CA  GLU d   9    1149.775 330.480-1136.489  0.00  0.00     0.177 C 
BRANCH   5   6
ATOM      6  N   GLU d   9    1148.472 329.823-1136.544  0.00  0.00    -0.346 N 
ATOM      7  C   ASP d   8    1147.792 329.872-1137.639  0.00  0.00     0.241 C 
ATOM      8  O   ASP d   8    1148.265 330.477-1138.614  0.00  0.00    -0.271 OA
ATOM      9  H   GLU d   9    1148.109 329.336-1135.737  0.00  0.00     0.163 HD
BRANCH   7  10
ATOM     10  CA  ASP d   8    1146.445 329.193-1137.696  0.00  0.00     0.186 C 
BRANCH  10  11
ATOM     11  N   ASP d   8    1146.516 327.843-1137.142  0.00  0.00    -0.345 N 
ATOM     12  C   ASN d   7    1147.353 327.002-1137.649  0.00  0.00     0.241 C 
ATOM     13  O   ASN d   7    1148.068 327.362-1138.584  0.00  0.00    -0.271 OA
ATOM     14  H   ASP d   8    1145.918 327.572-1136.375  0.00  0.00     0.163 HD
BRANCH  12  15
ATOM     15  CA  ASN d   7    1147.426 325.607-1137.076  0.00  0.00     0.185 C 
BRANCH  15  16
ATOM     16  N   ASN d   7    1147.481 325.643-1135.618  0.00  0.00    -0.346 N 
ATOM     17  C   ILE d   6    1148.427 326.306-1135.044  0.00  0.00     0.241 C 
ATOM     18  O   ILE d   6    1149.262 326.894-1135.748  0.00  0.00    -0.271 OA
ATOM     19  H   ASN d   7    1146.789 325.155-1135.067  0.00  0.00     0.163 HD
BRANCH  17  20
ATOM     20  CA  ILE d   6    1148.484 326.343-1133.536  0.00  0.00     0.180 C 
BRANCH  20  21
ATOM     21  N   ILE d   6    1147.171 326.638-1132.970  0.00  0.00    -0.346 N 
ATOM     22  C   SER d   5    1146.566 327.721-1133.324  0.00  0.00     0.243 C 
ATOM     23  O   SER d   5    1147.113 328.475-1134.129  0.00  0.00    -0.271 OA
ATOM     24  H   ILE d   6    1146.743 326.004-1132.311  0.00  0.00     0.163 HD
BRANCH  22  25
ATOM     25  CA  SER d   5    1145.208 328.027-1132.738  0.00  0.00     0.200 C 
BRANCH  25  26
ATOM     26  N   SER d   5    1144.338 326.855-1132.797  0.00  0.00    -0.344 N 
ATOM     27  C   GLU d   4    1144.111 326.302-1133.940  0.00  0.00     0.241 C 
ATOM     28  O   GLU d   4    1144.637 326.782-1134.954  0.00  0.00    -0.271 OA
ATOM     29  H   SER d   5    1143.921 326.484-1131.955  0.00  0.00     0.163 HD
BRANCH  27  30
ATOM     30  CA  GLU d   4    1143.212 325.091-1134.001  0.00  0.00     0.177 C 
BRANCH  30  31
ATOM     31  N   GLU d   4    1143.572 324.120-1132.971  0.00  0.00    -0.346 N 
ATOM     32  C   PRO d   3    1144.776 323.660-1132.939  0.00  0.00     0.241 C 
ATOM     33  O   PRO d   3    1145.600 324.043-1133.771  0.00  0.00    -0.271 OA
ATOM     34  H   GLU d   4    1142.888 323.813-1132.295  0.00  0.00     0.163 HD
BRANCH  32  35
ATOM     35  CA  PRO d   3    1145.175 322.637-1131.862  0.00  0.00     0.179 C 
ATOM     36  N   PRO d   3    1144.723 323.046-1130.541  0.00  0.00    -0.337 N 
ATOM     37  C   ASN d   2    1145.244 324.041-1129.907  0.00  0.00     0.243 C 
ATOM     38  CD  PRO d   3    1143.645 322.253-1129.992  0.00  0.00     0.127 C 
ATOM     39  O   ASN d   2    1146.159 324.672-1130.435  0.00  0.00    -0.271 OA
ATOM     40  CG  PRO d   3    1143.187 321.434-1131.201  0.00  0.00     0.022 C 
ATOM     41  CB  PRO d   3    1144.470 321.282-1132.031  0.00  0.00     0.037 C 
BRANCH  37  42
ATOM     42  CA  ASN d   2    1144.713 324.397-1128.538  0.00  0.00     0.185 C 
BRANCH  42  43
ATOM     43  N   ASN d   2    1143.254 324.435-1128.538  0.00  0.00    -0.346 N 
ATOM     44  C   GLU d   1    1142.649 325.221-1129.363  0.00  0.00     0.242 C 
ATOM     45  O   GLU d   1    1143.325 325.920-1130.132  0.00  0.00    -0.271 OA
ATOM     46  H   ASN d   2    1142.726 323.856-1127.901  0.00  0.00     0.163 HD
BRANCH  44  47
ATOM     47  CA  GLU d   1    1141.140 325.261-1129.363  0.00  0.00     0.191 C 
BRANCH  47  48
ATOM     48  N   GLU d   1    1140.581 323.912-1129.363  0.00  0.00    -0.326 NA
ATOM     49  H   GLU d   1    1141.208 323.033-1129.363  0.00  0.00     0.180 HD
ENDBRANCH  47  48
BRANCH  47  50
ATOM     50  CB  GLU d   1    1140.617 326.046-1128.126  0.00  0.00     0.047 C 
BRANCH  50  51
ATOM     51  CG  GLU d   1    1141.092 327.531-1128.015  0.00  0.00     0.116 C 
BRANCH  51  52
ATOM     52  CD  GLU d   1    1140.668 328.335-1126.800  0.00  0.00     0.172 C 
ATOM     53  OE1 GLU d   1    1139.940 327.833-1125.922  0.00  0.00    -0.648 OA
ATOM     54  OE2 GLU d   1    1141.098 329.505-1126.728  0.00  0.00    -0.648 OA
ENDBRANCH  51  52
ENDBRANCH  50  51
ENDBRANCH  47  50
ENDBRANCH  44  47
ENDBRANCH  42  43
BRANCH  42  55
ATOM     55  CB  ASN d   2    1145.205 323.374-1127.474  0.00  0.00     0.137 C 
BRANCH  55  56
ATOM     56  CG  ASN d   2    1144.742 323.598-1126.030  0.00  0.00     0.217 C 
ATOM     57  ND2 ASN d   2    1145.336 324.512-1125.312  0.00  0.00    -0.370 N 
ATOM     58 21HD ASN d   2    1144.856 324.685-1124.426  0.00  0.00     0.159 HD
ATOM     59 22HD ASN d   2    1146.038 325.084-1125.781  0.00  0.00     0.159 HD
ATOM     60  OD1 ASN d   2    1143.822 322.964-1125.536  0.00  0.00    -0.274 OA
ENDBRANCH  55  56
ENDBRANCH  42  55
ENDBRANCH  37  42
ENDBRANCH  32  35
ENDBRANCH  30  31
BRANCH  30  61
ATOM     61  CB  GLU d   4    1141.723 325.510-1133.830  0.00  0.00     0.045 C 
BRANCH  61  62
ATOM     62  CG  GLU d   4    1141.175 326.513-1134.896  0.00  0.00     0.116 C 
BRANCH  62  63
ATOM     63  CD  GLU d   4    1139.748 327.010-1134.752  0.00  0.00     0.172 C 
ATOM     64  OE1 GLU d   4    1139.022 326.612-1133.821  0.00  0.00    -0.648 OA
ATOM     65  OE2 GLU d   4    1139.359 327.839-1135.600  0.00  0.00    -0.648 OA
ENDBRANCH  62  63
ENDBRANCH  61  62
ENDBRANCH  30  61
ENDBRANCH  27  30
ENDBRANCH  25  26
BRANCH  25  66
ATOM     66  CB  SER d   5    1145.319 328.559-1131.287  0.00  0.00     0.199 C 
BRANCH  66  67
ATOM     67  OG  SER d   5    1146.051 327.679-1130.427  0.00  0.00    -0.398 OA
ATOM     68  HG  SER d   5    1145.562 326.854-1130.376  0.00  0.00     0.209 HD
ENDBRANCH  66  67
ENDBRANCH  25  66
ENDBRANCH  22  25
ENDBRANCH  20  21
BRANCH  20  69
ATOM     69  CB  ILE d   6    1149.084 325.007-1132.937  0.00  0.00     0.013 C 
ATOM     70  CG2 ILE d   6    1150.526 324.706-1133.452  0.00  0.00     0.012 C 
BRANCH  69  71
ATOM     71  CG1 ILE d   6    1149.104 324.945-1131.376  0.00  0.00     0.002 C 
ATOM     72  CD1 ILE d   6    1149.374 323.556-1130.761  0.00  0.00     0.005 C 
ENDBRANCH  69  71
ENDBRANCH  20  69
ENDBRANCH  17  20
ENDBRANCH  15  16
BRANCH  15  73
ATOM     73  CB  ASN d   7    1146.200 324.761-1137.528  0.00  0.00     0.137 C 
BRANCH  73  74
ATOM     74  CG  ASN d   7    1146.128 323.317-1137.021  0.00  0.00     0.217 C 
ATOM     75  ND2 ASN d   7    1146.868 322.409-1137.597  0.00  0.00    -0.370 N 
ATOM     76 21HD ASN d   7    1146.861 321.521-1137.089  0.00  0.00     0.159 HD
ATOM     77 22HD ASN d   7    1147.516 322.729-1138.316  0.00  0.00     0.159 HD
ATOM     78  OD1 ASN d   7    1145.417 322.993-1136.081  0.00  0.00    -0.274 OA
ENDBRANCH  73  74
ENDBRANCH  15  73
ENDBRANCH  12  15
ENDBRANCH  10  11
BRANCH  10  79
ATOM     79  CB  ASP d   8    1145.368 330.032-1136.954  0.00  0.00     0.147 C 
BRANCH  79  80
ATOM     80  CG  ASP d   8    1145.148 331.452-1137.494  0.00  0.00     0.175 C 
ATOM     81  OD1 ASP d   8    1145.212 331.651-1138.725  0.00  0.00    -0.648 OA
ATOM     82  OD2 ASP d   8    1144.956 332.378-1136.679  0.00  0.00    -0.648 OA
ENDBRANCH  79  80
ENDBRANCH  10  79
ENDBRANCH   7  10
ENDBRANCH   5   6
BRANCH   5  83
ATOM     83  CB  GLU d   9    1150.408 330.272-1135.084  0.00  0.00     0.045 C 
BRANCH  83  84
ATOM     84  CG  GLU d   9    1151.791 330.964-1134.854  0.00  0.00     0.116 C 
BRANCH  84  85
ATOM     85  CD  GLU d   9    1152.493 330.751-1133.526  0.00  0.00     0.172 C 
ATOM     86  OE1 GLU d   9    1151.972 330.060-1132.630  0.00  0.00    -0.648 OA
ATOM     87  OE2 GLU d   9    1153.612 331.289-1133.395  0.00  0.00    -0.648 OA
ENDBRANCH  84  85
ENDBRANCH  83  84
ENDBRANCH   5  83
ENDBRANCH   1   5
BRANCH   3  88
ATOM     88  CA  HIS d  10    1151.677 328.165-1138.775  0.00  0.00     0.182 C 
BRANCH  88  89
ATOM     89  C   HIS d  10    1151.310 328.730-1140.126  0.00  0.00     0.241 C 
ATOM     90  O   HIS d  10    1152.162 329.195-1140.898  0.00  0.00    -0.271 OA
ATOM     91  N   VAL d  11    1150.072 328.729-1140.489  0.00  0.00    -0.346 N 
ATOM     92  H   VAL d  11    1149.359 328.356-1139.878  0.00  0.00     0.163 HD
BRANCH  91  93
ATOM     93  CA  VAL d  11    1149.717 329.275-1141.795  0.00  0.00     0.180 C 
BRANCH  93  94
ATOM     94  C   VAL d  11    1150.181 330.705-1141.928  0.00  0.00     0.241 C 
ATOM     95  O   VAL d  11    1150.782 331.111-1142.931  0.00  0.00    -0.271 OA
ATOM     96  N   GLN d  12    1149.944 331.531-1140.965  0.00  0.00    -0.346 N 
ATOM     97  H   GLN d  12    1149.455 331.225-1140.136  0.00  0.00     0.163 HD
BRANCH  96  98
ATOM     98  CA  GLN d  12    1150.393 332.914-1141.092  0.00  0.00     0.177 C 
BRANCH  98  99
ATOM     99  C   GLN d  12    1151.883 332.981-1141.330  0.00  0.00     0.241 C 
ATOM    100  O   GLN d  12    1152.370 333.689-1142.208  0.00  0.00    -0.271 OA
ATOM    101  N   ARG d  13    1152.667 332.274-1140.589  0.00  0.00    -0.346 N 
ATOM    102  H   ARG d  13    1152.291 331.684-1139.861  0.00  0.00     0.163 HD
BRANCH 101 103
ATOM    103  CA  ARG d  13    1154.107 332.340-1140.820  0.00  0.00     0.176 C 
BRANCH 103 104
ATOM    104  C   ARG d  13    1154.443 331.968-1142.245  0.00  0.00     0.241 C 
ATOM    105  O   ARG d  13    1155.212 332.640-1142.929  0.00  0.00    -0.271 OA
ATOM    106  N   VAL d  14    1153.907 330.914-1142.760  0.00  0.00    -0.346 N 
ATOM    107  H   VAL d  14    1153.272 330.345-1142.218  0.00  0.00     0.163 HD
BRANCH 106 108
ATOM    108  CA  VAL d  14    1154.232 330.555-1144.138  0.00  0.00     0.180 C 
BRANCH 108 109
ATOM    109  C   VAL d  14    1153.902 331.686-1145.083  0.00  0.00     0.241 C 
ATOM    110  O   VAL d  14    1154.696 332.068-1145.952  0.00  0.00    -0.271 OA
ATOM    111  N   MET d  15    1152.758 332.272-1144.981  0.00  0.00    -0.346 N 
ATOM    112  H   MET d  15    1152.093 331.979-1144.279  0.00  0.00     0.163 HD
BRANCH 111 113
ATOM    113  CA  MET d  15    1152.437 333.365-1145.894  0.00  0.00     0.177 C 
BRANCH 113 114
ATOM    114  C   MET d  15    1153.468 334.465-1145.805  0.00  0.00     0.241 C 
ATOM    115  O   MET d  15    1153.970 334.976-1146.818  0.00  0.00    -0.271 OA
ATOM    116  N   ARG d  16    1153.836 334.885-1144.643  0.00  0.00    -0.347 N 
ATOM    117  H   ARG d  16    1153.442 334.484-1143.804  0.00  0.00     0.163 HD
BRANCH 116 118
ATOM    118  CA  ARG d  16    1154.833 335.949-1144.558  0.00  0.00     0.162 C 
BRANCH 118 119
ATOM    119  C   ARG d  16    1156.104 335.557-1145.275  0.00  0.00     0.219 C 
ATOM    120  O   ARG d  16    1156.217 334.481-1145.857  0.00  0.00    -0.287 OA
ENDBRANCH 118 119
BRANCH 118 121
ATOM    121  CB  ARG d  16    1155.102 336.266-1143.060  0.00  0.00     0.035 C 
BRANCH 121 122
ATOM    122  CG  ARG d  16    1155.927 337.555-1142.786  0.00  0.00     0.023 C 
BRANCH 122 123
ATOM    123  CD  ARG d  16    1156.177 337.773-1141.285  0.00  0.00     0.138 C 
BRANCH 123 124
ATOM    124  NE  ARG d  16    1156.953 339.032-1141.083  0.00  0.00    -0.227 N 
ATOM    125  CZ  ARG d  16    1157.344 339.514-1139.907  0.00  0.00     0.665 C 
ATOM    126  NH1 ARG d  16    1157.097 338.929-1138.769  0.00  0.00    -0.235 N 
ATOM    127  NH2 ARG d  16    1158.008 340.626-1139.888  0.00  0.00    -0.235 N 
ATOM    128 11HH ARG d  16    1156.571 338.056-1138.854  0.00  0.00     0.174 HD
ATOM    129 12HH ARG d  16    1157.431 339.364-1137.908  0.00  0.00     0.174 HD
ATOM    130 21HH ARG d  16    1158.194 341.070-1140.790  0.00  0.00     0.174 HD
ATOM    131 22HH ARG d  16    1158.298 340.981-1138.975  0.00  0.00     0.174 HD
ATOM    132  HE  ARG d  16    1157.231 339.614-1141.880  0.00  0.00     0.177 HD
ENDBRANCH 123 124
ENDBRANCH 122 123
ENDBRANCH 121 122
ENDBRANCH 118 121
ENDBRANCH 116 118
ENDBRANCH 113 114
BRANCH 113 133
ATOM    133  CB  MET d  15    1151.016 333.911-1145.585  0.00  0.00     0.045 C 
BRANCH 133 134
ATOM    134  CG  MET d  15    1149.854 332.913-1145.777  0.00  0.00     0.076 C 
BRANCH 134 135
ATOM    135  SD  MET d  15    1148.280 333.779-1145.662  0.00  0.00    -0.173 SA
ATOM    136  CE  MET d  15    1147.199 332.349-1145.527  0.00  0.00     0.089 C 
ENDBRANCH 134 135
ENDBRANCH 133 134
ENDBRANCH 113 133
ENDBRANCH 111 113
ENDBRANCH 108 109
BRANCH 108 137
ATOM    137  CB  VAL d  14    1153.460 329.239-1144.545  0.00  0.00     0.009 C 
ATOM    138  CG1 VAL d  14    1153.549 328.821-1146.039  0.00  0.00     0.012 C 
ATOM    139  CG2 VAL d  14    1153.892 327.986-1143.745  0.00  0.00     0.012 C 
ENDBRANCH 108 137
ENDBRANCH 106 108
ENDBRANCH 103 104
BRANCH 103 140
ATOM    140  CB  ARG d  13    1154.821 331.400-1139.806  0.00  0.00     0.036 C 
BRANCH 140 141
ATOM    141  CG  ARG d  13    1156.365 331.553-1139.725  0.00  0.00     0.023 C 
BRANCH 141 142
ATOM    142  CD  ARG d  13    1156.992 330.565-1138.728  0.00  0.00     0.138 C 
BRANCH 142 143
ATOM    143  NE  ARG d  13    1158.469 330.772-1138.677  0.00  0.00    -0.227 N 
ATOM    144  CZ  ARG d  13    1159.317 330.080-1137.922  0.00  0.00     0.665 C 
ATOM    145  NH1 ARG d  13    1158.952 329.116-1137.125  0.00  0.00    -0.235 N 
ATOM    146  NH2 ARG d  13    1160.577 330.379-1137.979  0.00  0.00    -0.235 N 
ATOM    147 11HH ARG d  13    1157.947 328.930-1137.128  0.00  0.00     0.174 HD
ATOM    148 12HH ARG d  13    1159.665 328.633-1136.576  0.00  0.00     0.174 HD
ATOM    149 21HH ARG d  13    1160.845 331.137-1138.610  0.00  0.00     0.174 HD
ATOM    150 22HH ARG d  13    1161.212 329.838-1137.391  0.00  0.00     0.174 HD
ATOM    151  HE  ARG d  13    1158.921 331.494-1139.248  0.00  0.00     0.177 HD
ENDBRANCH 142 143
ENDBRANCH 141 142
ENDBRANCH 140 141
ENDBRANCH 103 140
ENDBRANCH 101 103
ENDBRANCH  98  99
BRANCH  98 152
ATOM    152  CB  GLN d  12    1150.002 333.681-1139.809  0.00  0.00     0.044 C 
BRANCH 152 153
ATOM    153  CG  GLN d  12    1150.362 335.203-1139.778  0.00  0.00     0.105 C 
BRANCH 153 154
ATOM    154  CD  GLN d  12    1150.060 336.016-1138.513  0.00  0.00     0.215 C 
ATOM    155  NE2 GLN d  12    1149.493 335.440-1137.484  0.00  0.00    -0.370 N 
ATOM    156 21HE GLN d  12    1149.386 336.034-1136.660  0.00  0.00     0.159 HD
ATOM    157 22HE GLN d  12    1149.330 334.436-1137.588  0.00  0.00     0.159 HD
ATOM    158  OE1 GLN d  12    1150.362 337.197-1138.435  0.00  0.00    -0.274 OA
ENDBRANCH 153 154
ENDBRANCH 152 153
ENDBRANCH  98 152
ENDBRANCH  96  98
ENDBRANCH  93  94
BRANCH  93 159
ATOM    159  CB  VAL d  11    1148.155 329.168-1142.015  0.00  0.00     0.009 C 
ATOM    160  CG1 VAL d  11    1147.587 329.872-1143.277  0.00  0.00     0.012 C 
ATOM    161  CG2 VAL d  11    1147.631 327.714-1142.088  0.00  0.00     0.012 C 
ENDBRANCH  93 159
ENDBRANCH  91  93
ENDBRANCH  88  89
BRANCH  88 162
ATOM    162  CB  HIS d  10    1151.513 326.637-1138.770  0.00  0.00     0.095 C 
BRANCH 162 163
ATOM    163  CG  HIS d  10    1152.798 325.926-1138.462  0.00  0.00     0.053 A 
ATOM    164  CD2 HIS d  10    1153.179 325.591-1137.169  0.00  0.00     0.116 A 
ATOM    165  NE2 HIS d  10    1154.394 324.959-1137.236  0.00  0.00    -0.359 N 
ATOM    166  CE1 HIS d  10    1154.657 324.962-1138.571  0.00  0.00     0.207 A 
ATOM    167  2HE HIS d  10    1154.961 324.582-1136.463  0.00  0.00     0.166 HD
ATOM    168  ND1 HIS d  10    1153.750 325.520-1139.394  0.00  0.00    -0.247 NA
ENDBRANCH 162 163
ENDBRANCH  88 162
ENDBRANCH   3  88
TORSDOF 68
