@<TRIPOS>MOLECULE
13-17
253 254 16              
SMALL
USER_CHARGES
@<TRIPOS>ATOM
1	   N	2136.018	650.258	-2213.306	N.3	1	GLU1	-0.516	
2	  CA	2136.577	651.607	-2213.306	C.3	1	GLU1	0.040	
3	   C	2138.086	651.567	-2213.306	C.2	1	GLU1	0.537	
4	   O	2138.761	652.266	-2214.074	O.2	1	GLU1	-0.582	
5	  CB	2136.053	652.392	-2212.069	C.3	1	GLU1	0.056	
6	  CG	2136.529	653.877	-2211.958	C.3	1	GLU1	0.014	
7	  CD	2136.104	654.681	-2210.743	C.2	1	GLU1	0.805	
8	 OE1	2135.376	654.179	-2209.865	O.co2	1	GLU1	-0.819	
9	 OE2	2136.535	655.851	-2210.671	O.co2	1	GLU1	-0.819	
10	   H	2136.645	649.379	-2213.306	 H	1	GLU1	0.294	
11	  HA	2136.250	652.125	-2214.226	 H	1	GLU1	0.111	
12	 2HB	2136.343	651.861	-2211.139	 H	1	GLU1	-0.017	
13	 3HB	2134.947	652.382	-2212.056	 H	1	GLU1	-0.017	
14	 2HG	2136.219	654.462	-2212.839	 H	1	GLU1	-0.043	
15	 3HG	2137.629	653.944	-2211.929	 H	1	GLU1	-0.043	
16	   N	2138.690	650.781	-2212.480	N.am	2	ASN2	-0.416	
17	  CA	2140.149	650.742	-2212.480	C.3	2	ASN2	0.014	
18	   C	2140.681	650.386	-2213.849	C.2	2	ASN2	0.597	
19	   O	2141.596	651.017	-2214.377	O.2	2	ASN2	-0.568	
20	  CB	2140.641	649.719	-2211.416	C.3	2	ASN2	-0.204	
21	  CG	2140.178	649.943	-2209.973	C.2	2	ASN2	0.713	
22	 ND2	2140.772	650.858	-2209.254	N.pl3	2	ASN2	-0.919	
23	 OD1	2139.257	649.309	-2209.479	O.2	2	ASN2	-0.593	
24	   H	2138.162	650.201	-2211.844	 H	2	ASN2	0.272	
25	  HA	2140.527	651.752	-2212.235	 H	2	ASN2	0.105	
26	 2HB	2141.745	649.660	-2211.419	 H	2	ASN2	0.080	
27	 3HB	2140.312	648.701	-2211.702	 H	2	ASN2	0.080	
28	1HD2	2140.291	651.031	-2208.368	 H	2	ASN2	0.420	
29	2HD2	2141.474	651.429	-2209.723	 H	2	ASN2	0.420	
30	   N	2140.159	649.391	-2214.483	N.am	3	PRO3	-0.255	
31	  CA	2140.612	648.982	-2215.804	C.3	3	PRO3	-0.027	
32	   C	2140.214	650.006	-2216.882	C.2	3	PRO3	0.590	
33	   O	2141.037	650.389	-2217.713	O.2	3	PRO3	-0.575	
34	  CB	2139.907	647.628	-2215.974	C.3	3	PRO3	-0.007	
35	  CG	2138.624	647.780	-2215.144	C.3	3	PRO3	0.019	
36	  CD	2139.081	648.599	-2213.934	C.3	3	PRO3	0.019	
37	  HA	2141.698	648.862	-2215.818	 H	3	PRO3	0.064	
38	 2HB	2140.530	646.846	-2215.533	 H	3	PRO3	0.025	
39	 3HB	2139.709	647.379	-2217.020	 H	3	PRO3	0.025	
40	 2HG	2138.196	646.818	-2214.853	 H	3	PRO3	0.021	
41	 3HG	2137.886	648.351	-2215.712	 H	3	PRO3	0.021	
42	 2HD	2139.470	647.949	-2213.147	 H	3	PRO3	0.039	
43	 3HD	2138.284	649.234	-2213.542	 H	3	PRO3	0.039	
44	   N	2139.009	650.466	-2216.914	N.am	4	GLU4	-0.516	
45	  CA	2138.650	651.437	-2217.944	C.3	4	GLU4	0.040	
46	   C	2139.549	652.648	-2217.883	C.2	4	GLU4	0.537	
47	   O	2140.076	653.127	-2218.897	O.2	4	GLU4	-0.582	
48	  CB	2137.161	651.856	-2217.774	C.3	4	GLU4	0.056	
49	  CG	2136.614	652.860	-2218.840	C.3	4	GLU4	0.014	
50	  CD	2135.188	653.357	-2218.697	C.2	4	GLU4	0.805	
51	 OE1	2134.461	652.959	-2217.767	O.co2	4	GLU4	-0.819	
52	 OE2	2134.799	654.186	-2219.546	O.co2	4	GLU4	-0.819	
53	   H	2138.324	650.159	-2216.238	 H	4	GLU4	0.294	
54	  HA	2138.781	650.967	-2218.935	 H	4	GLU4	0.111	
55	 2HB	2137.009	652.296	-2216.768	 H	4	GLU4	-0.017	
56	 3HB	2136.513	650.958	-2217.781	 H	4	GLU4	-0.017	
57	 2HG	2136.696	652.445	-2219.858	 H	4	GLU4	-0.043	
58	 3HG	2137.202	653.792	-2218.851	 H	4	GLU4	-0.043	
59	   N	2139.776	653.200	-2216.739	N.am	5	SER5	-0.416	
60	  CA	2140.646	654.371	-2216.680	C.3	5	SER5	-0.025	
61	   C	2142.005	654.065	-2217.266	C.2	5	SER5	0.597	
62	   O	2142.553	654.819	-2218.070	O.2	5	SER5	-0.568	
63	  CB	2140.757	654.903	-2215.230	C.3	5	SER5	0.212	
64	  OG	2141.488	654.024	-2214.369	O.3	5	SER5	-0.655	
65	   H	2139.359	652.829	-2215.898	 H	5	SER5	0.272	
66	  HA	2140.197	655.162	-2217.310	 H	5	SER5	0.084	
67	 2HB	2139.757	655.098	-2214.797	 H	5	SER5	0.035	
68	 3HB	2141.263	655.889	-2215.232	 H	5	SER5	0.035	
69	  HG	2140.999	653.199	-2214.318	 H	5	SER5	0.428	
70	   N	2142.609	652.982	-2216.911	N.am	6	ILE6	-0.416	
71	  CA	2143.922	652.687	-2217.477	C.3	6	ILE6	-0.060	
72	   C	2143.865	652.649	-2218.985	C.2	6	ILE6	0.597	
73	   O	2144.700	653.236	-2219.689	O.2	6	ILE6	-0.568	
74	  CB	2144.521	651.350	-2216.877	C.3	6	ILE6	0.130	
75	 CG1	2144.540	651.288	-2215.316	C.3	6	ILE6	-0.043	
76	 CG2	2145.963	651.048	-2217.392	C.3	6	ILE6	-0.320	
77	 CD1	2144.810	649.899	-2214.701	C.3	6	ILE6	-0.066	
78	   H	2142.180	652.348	-2216.253	 H	6	ILE6	0.272	
79	  HA	2144.597	653.521	-2217.209	 H	6	ILE6	0.087	
80	  HB	2143.863	650.524	-2217.221	 H	6	ILE6	0.019	
81	2HG1	2143.558	651.608	-2214.920	 H	6	ILE6	0.024	
82	3HG1	2145.256	652.030	-2214.911	 H	6	ILE6	0.024	
83	1HG2	2146.022	650.954	-2218.490	 H	6	ILE6	0.088	
84	2HG2	2146.685	651.830	-2217.089	 H	6	ILE6	0.088	
85	3HG2	2146.352	650.086	-2217.013	 H	6	ILE6	0.088	
86	1HD1	2144.081	649.145	-2215.056	 H	6	ILE6	0.019	
87	2HD1	2145.820	649.520	-2214.937	 H	6	ILE6	0.019	
88	3HD1	2144.733	649.929	-2213.598	 H	6	ILE6	0.019	
89	   N	2142.919	651.986	-2219.559	N.am	7	LEU7	-0.416	
90	  CA	2142.864	651.950	-2221.017	C.3	7	LEU7	-0.052	
91	   C	2142.792	653.345	-2221.590	C.2	7	LEU7	0.597	
92	   O	2143.513	653.707	-2222.532	O.2	7	LEU7	-0.568	
93	  CB	2141.661	651.090	-2221.498	C.3	7	LEU7	-0.110	
94	  CG	2141.588	649.610	-2221.031	C.3	7	LEU7	0.353	
95	 CD1	2140.398	648.905	-2221.696	C.3	7	LEU7	-0.412	
96	 CD2	2142.881	648.831	-2221.323	C.3	7	LEU7	-0.412	
97	   H	2142.227	651.499	-2219.007	 H	7	LEU7	0.272	
98	  HA	2143.806	651.509	-2221.392	 H	7	LEU7	0.092	
99	 2HB	2141.638	651.106	-2222.605	 H	7	LEU7	0.046	
100	 3HB	2140.721	651.593	-2221.194	 H	7	LEU7	0.046	
101	  HG	2141.418	649.602	-2219.934	 H	7	LEU7	-0.036	
102	1HD1	2139.440	649.414	-2221.474	 H	7	LEU7	0.100	
103	2HD1	2140.497	648.864	-2222.798	 H	7	LEU7	0.100	
104	3HD1	2140.290	647.864	-2221.340	 H	7	LEU7	0.100	
105	1HD2	2143.156	648.861	-2222.392	 H	7	LEU7	0.100	
106	2HD2	2143.734	649.242	-2220.751	 H	7	LEU7	0.100	
107	3HD2	2142.799	647.768	-2221.026	 H	7	LEU7	0.100	
108	   N	2141.955	654.186	-2221.084	N.am	8	ASP8	-0.516	
109	  CA	2141.885	655.535	-2221.638	C.3	8	ASP8	0.038	
110	   C	2143.233	656.214	-2221.582	C.2	8	ASP8	0.537	
111	   O	2143.706	656.819	-2222.557	O.2	8	ASP8	-0.582	
112	  CB	2140.808	656.375	-2220.897	C.3	8	ASP8	-0.030	
113	  CG	2140.590	657.796	-2221.438	C.2	8	ASP8	0.799	
114	 OD1	2140.654	657.994	-2222.669	O.co2	8	ASP8	-0.801	
115	 OD2	2140.398	658.722	-2220.624	O.co2	8	ASP8	-0.801	
116	   H	2141.357	653.916	-2220.316	 H	8	ASP8	0.294	
117	  HA	2141.603	655.457	-2222.705	 H	8	ASP8	0.088	
118	 2HB	2141.065	656.459	-2219.825	 H	8	ASP8	-0.012	
119	 3HB	2139.829	655.871	-2220.930	 H	8	ASP8	-0.012	
120	   N	2143.913	656.165	-2220.486	N.am	9	GLU9	-0.516	
121	  CA	2145.216	656.822	-2220.432	C.3	9	GLU9	0.040	
122	   C	2146.133	656.293	-2221.508	C.2	9	GLU9	0.537	
123	   O	2146.797	657.047	-2222.234	O.2	9	GLU9	-0.582	
124	  CB	2145.849	656.614	-2219.026	C.3	9	GLU9	0.056	
125	  CG	2147.232	657.306	-2218.798	C.3	9	GLU9	0.014	
126	  CD	2147.934	657.093	-2217.469	C.2	9	GLU9	0.805	
127	 OE1	2147.413	656.403	-2216.573	O.co2	9	GLU9	-0.819	
128	 OE2	2149.054	657.631	-2217.338	O.co2	9	GLU9	-0.819	
129	   H	2143.549	655.679	-2219.679	 H	9	GLU9	0.294	
130	  HA	2145.074	657.904	-2220.607	 H	9	GLU9	0.111	
131	 2HB	2145.962	655.530	-2218.823	 H	9	GLU9	-0.017	
132	 3HB	2145.153	656.969	-2218.242	 H	9	GLU9	-0.017	
133	 2HG	2147.161	658.397	-2218.938	 H	9	GLU9	-0.043	
134	 3HG	2147.979	656.961	-2219.531	 H	9	GLU9	-0.043	
135	   N	2146.229	655.018	-2221.676	N.am	10	HIS10	-0.416	
136	  CA	2147.116	654.506	-2222.717	C.3	10	HIS10	-0.058	
137	   C	2146.750	655.070	-2224.068	C.2	10	HIS10	0.597	
138	   O	2147.602	655.534	-2224.840	O.2	10	HIS10	-0.568	
139	  CB	2146.952	652.977	-2222.711	C.3	10	HIS10	-0.007	
140	  CG	2148.237	652.266	-2222.403	C.2	10	HIS10	0.187	
141	 CD2	2148.619	651.932	-2221.111	C.2	10	HIS10	-0.221	
142	 ND1	2149.189	651.859	-2223.336	N.2	10	HIS10	-0.543	
143	 CE1	2150.095	651.301	-2222.512	C.2	10	HIS10	0.163	
144	 NE2	2149.833	651.299	-2221.177	N.pl3	10	HIS10	-0.280	
145	   H	2145.698	654.383	-2221.097	 H	10	HIS10	0.272	
146	  HA	2148.136	654.863	-2222.492	 H	10	HIS10	0.136	
147	 2HB	2146.586	652.609	-2223.691	 H	10	HIS10	0.037	
148	 3HB	2146.196	652.641	-2221.970	 H	10	HIS10	0.037	
149	 2HD	2148.033	652.147	-2220.221	 H	10	HIS10	0.186	
150	 1HE	2150.986	650.879	-2222.960	 H	10	HIS10	0.144	
151	 2HE	2150.400	650.922	-2220.404	 H	10	HIS10	0.334	
152	   N	2145.512	655.069	-2224.431	N.am	11	VAL11	-0.416	
153	  CA	2145.156	655.615	-2225.738	C.3	11	VAL11	-0.087	
154	   C	2145.622	657.045	-2225.871	C.2	11	VAL11	0.597	
155	   O	2146.223	657.449	-2226.875	O.2	11	VAL11	-0.568	
156	  CB	2143.595	655.509	-2225.957	C.3	11	VAL11	0.299	
157	 CG1	2143.027	656.212	-2227.220	C.3	11	VAL11	-0.319	
158	 CG2	2143.070	654.055	-2226.029	C.3	11	VAL11	-0.319	
159	   H	2144.799	654.697	-2223.820	 H	11	VAL11	0.272	
160	  HA	2145.676	655.032	-2226.520	 H	11	VAL11	0.097	
161	  HB	2143.108	655.990	-2225.082	 H	11	VAL11	-0.030	
162	1HG1	2143.465	655.820	-2228.157	 H	11	VAL11	0.079	
163	2HG1	2141.928	656.106	-2227.302	 H	11	VAL11	0.079	
164	3HG1	2143.206	657.305	-2227.211	 H	11	VAL11	0.079	
165	1HG2	2143.360	653.468	-2225.138	 H	11	VAL11	0.079	
166	2HG2	2141.964	654.018	-2226.072	 H	11	VAL11	0.079	
167	3HG2	2143.451	653.513	-2226.915	 H	11	VAL11	0.079	
168	   N	2145.385	657.871	-2224.909	N.am	12	GLN12	-0.416	
169	  CA	2145.835	659.254	-2225.037	C.3	12	GLN12	-0.003	
170	   C	2147.324	659.320	-2225.275	C.2	12	GLN12	0.597	
171	   O	2147.812	660.028	-2226.154	O.2	12	GLN12	-0.568	
172	  CB	2145.444	660.022	-2223.755	C.3	12	GLN12	-0.004	
173	  CG	2145.806	661.544	-2223.725	C.3	12	GLN12	-0.064	
174	  CD	2145.504	662.358	-2222.460	C.2	12	GLN12	0.695	
175	 NE2	2144.937	661.783	-2221.431	N.pl3	12	GLN12	-0.941	
176	 OE1	2145.807	663.539	-2222.383	O.2	12	GLN12	-0.609	
177	   H	2144.897	657.566	-2224.080	 H	12	GLN12	0.272	
178	  HA	2145.335	659.710	-2225.912	 H	12	GLN12	0.085	
179	 2HB	2145.920	659.522	-2222.885	 H	12	GLN12	0.017	
180	 3HB	2144.354	659.916	-2223.591	 H	12	GLN12	0.017	
181	 2HG	2145.328	662.065	-2224.575	 H	12	GLN12	0.035	
182	 3HG	2146.889	661.685	-2223.891	 H	12	GLN12	0.035	
183	1HE2	2144.831	662.378	-2220.608	 H	12	GLN12	0.425	
184	2HE2	2144.773	660.779	-2221.534	 H	12	GLN12	0.425	
185	   N	2148.109	658.613	-2224.534	N.am	13	ASP13	-0.516	
186	  CA	2149.549	658.678	-2224.765	C.3	13	ASP13	0.038	
187	   C	2149.887	658.306	-2226.188	C.2	13	ASP13	0.537	
188	   O	2150.665	658.984	-2226.878	O.2	13	ASP13	-0.582	
189	  CB	2150.305	657.767	-2223.758	C.3	13	ASP13	-0.030	
190	  CG	2151.837	657.805	-2223.854	C.2	13	ASP13	0.799	
191	 OD1	2152.404	658.887	-2224.108	O.co2	13	ASP13	-0.801	
192	 OD2	2152.471	656.737	-2223.718	O.co2	13	ASP13	-0.801	
193	   H	2147.732	658.024	-2223.806	 H	13	ASP13	0.294	
194	  HA	2149.877	659.724	-2224.613	 H	13	ASP13	0.088	
195	 2HB	2149.986	656.716	-2223.885	 H	13	ASP13	-0.012	
196	 3HB	2150.047	658.032	-2222.720	 H	13	ASP13	-0.012	
197	   N	2149.352	657.252	-2226.704	N.am	14	VAL14	-0.416	
198	  CA	2149.678	656.892	-2228.081	C.3	14	VAL14	-0.087	
199	   C	2149.351	658.022	-2229.027	C.2	14	VAL14	0.597	
200	   O	2150.146	658.403	-2229.895	O.2	14	VAL14	-0.568	
201	  CB	2148.906	655.576	-2228.489	C.3	14	VAL14	0.299	
202	 CG1	2148.998	655.157	-2229.982	C.3	14	VAL14	-0.319	
203	 CG2	2149.336	654.323	-2227.688	C.3	14	VAL14	-0.319	
204	   H	2148.715	656.684	-2226.163	 H	14	VAL14	0.272	
205	  HA	2150.767	656.715	-2228.153	 H	14	VAL14	0.097	
206	  HB	2147.830	655.748	-2228.274	 H	14	VAL14	-0.030	
207	1HG1	2150.040	654.979	-2230.309	 H	14	VAL14	0.079	
208	2HG1	2148.425	654.234	-2230.195	 H	14	VAL14	0.079	
209	3HG1	2148.570	655.919	-2230.661	 H	14	VAL14	0.079	
210	1HG2	2149.247	654.482	-2226.597	 H	14	VAL14	0.079	
211	2HG2	2148.700	653.447	-2227.921	 H	14	VAL14	0.079	
212	3HG2	2150.384	654.033	-2227.891	 H	14	VAL14	0.079	
213	   N	2148.206	658.609	-2228.927	N.am	15	MET15	-0.416	
214	  CA	2147.888	659.702	-2229.841	C.3	15	MET15	-0.024	
215	   C	2148.919	660.801	-2229.751	C.2	15	MET15	0.597	
216	   O	2149.424	661.312	-2230.763	O.2	15	MET15	-0.568	
217	  CB	2146.467	660.248	-2229.534	C.3	15	MET15	0.034	
218	  CG	2145.304	659.251	-2229.728	C.3	15	MET15	0.002	
219	  SD	2143.731	660.118	-2229.616	S.3	15	MET15	-0.274	
220	  CE	2142.649	658.689	-2229.481	C.3	15	MET15	-0.054	
221	   H	2147.540	658.317	-2228.226	 H	15	MET15	0.272	
222	  HA	2147.916	659.315	-2230.876	 H	15	MET15	0.088	
223	 2HB	2146.266	661.127	-2230.177	 H	15	MET15	0.024	
224	 3HB	2146.430	660.641	-2228.498	 H	15	MET15	0.024	
225	 2HG	2145.346	658.466	-2228.950	 H	15	MET15	0.044	
226	 3HG	2145.368	658.736	-2230.704	 H	15	MET15	0.044	
227	 1HE	2142.793	658.001	-2230.334	 H	15	MET15	0.068	
228	 2HE	2142.856	658.136	-2228.548	 H	15	MET15	0.068	
229	 3HE	2141.591	659.005	-2229.467	 H	15	MET15	0.068	
230	   N	2149.286	661.222	-2228.588	N.am	16	ARG16	-0.348	
231	  CA	2150.283	662.285	-2228.503	C.3	16	ARG16	-0.264	
232	   C	2151.555	661.891	-2229.217	C.2	16	ARG16	0.734	
233	   O	2151.669	660.815	-2229.798	O.2	16	ARG16	-0.589	
234	  CB	2150.550	662.602	-2227.004	C.3	16	ARG16	-0.001	
235	  CG	2151.376	663.890	-2226.729	C.3	16	ARG16	0.039	
236	  CD	2151.623	664.109	-2225.227	C.3	16	ARG16	0.049	
237	  NE	2152.400	665.367	-2225.024	N.pl3	16	ARG16	-0.530	
238	  CZ	2152.790	665.848	-2223.848	C.cat	16	ARG16	0.808	
239	 NH1	2152.540	665.264	-2222.710	N.pl3	16	ARG16	-0.863	
240	 NH2	2153.455	666.960	-2223.828	N.pl3	16	ARG16	-0.863	
241	   H	2148.889	660.822	-2227.750	 H	16	ARG16	0.275	
242	  HA	2149.876	663.178	-2229.013	 H	16	ARG16	0.156	
243	 2HB	2151.046	661.725	-2226.537	 H	16	ARG16	0.033	
244	 3HB	2149.581	662.683	-2226.471	 H	16	ARG16	0.033	
245	 2HG	2150.847	664.762	-2227.167	 H	16	ARG16	0.029	
246	 3HG	2152.350	663.837	-2227.256	 H	16	ARG16	0.029	
247	 2HD	2152.171	663.233	-2224.813	 H	16	ARG16	0.069	
248	 3HD	2150.649	664.152	-2224.693	 H	16	ARG16	0.069	
249	  HE	2152.680	665.948	-2225.821	 H	16	ARG16	0.346	
250	1HH1	2152.013	664.391	-2222.795	 H	16	ARG16	0.448	
251	2HH1	2152.873	665.698	-2221.848	 H	16	ARG16	0.448	
252	1HH2	2153.642	667.403	-2224.729	 H	16	ARG16	0.448	
253	2HH2	2153.743	667.315	-2222.914	 H	16	ARG16	0.448	
@<TRIPOS>BOND
1 1 2 1
2 1 10 1
3 2 3 1
4 2 5 1
5 2 11 1
6 3 4 2
7 3 16 1
8 5 6 1
9 6 7 1
10 7 8 2
11 7 9 1
12 5 12 1
13 5 13 1
14 6 14 1
15 6 15 1
16 16 17 1
17 16 24 1
18 17 18 1
19 17 20 1
20 17 25 1
21 18 19 2
22 18 30 1
23 20 21 1
24 21 22 1
25 21 23 2
26 20 26 1
27 20 27 1
28 22 28 1
29 22 29 1
30 30 31 1
31 30 36 1
32 31 32 1
33 31 34 1
34 31 37 1
35 32 33 2
36 32 44 1
37 34 35 1
38 35 36 1
39 34 38 1
40 34 39 1
41 35 40 1
42 35 41 1
43 36 42 1
44 36 43 1
45 44 45 1
46 44 53 1
47 45 46 1
48 45 48 1
49 45 54 1
50 46 47 2
51 46 59 1
52 48 49 1
53 49 50 1
54 50 51 2
55 50 52 1
56 48 55 1
57 48 56 1
58 49 57 1
59 49 58 1
60 59 60 1
61 59 65 1
62 60 61 1
63 60 63 1
64 60 66 1
65 61 62 2
66 61 70 1
67 63 64 1
68 63 67 1
69 63 68 1
70 64 69 1
71 70 71 1
72 70 78 1
73 71 72 1
74 71 74 1
75 71 79 1
76 72 73 2
77 72 89 1
78 74 75 1
79 74 76 1
80 75 77 1
81 74 80 1
82 75 81 1
83 75 82 1
84 76 83 1
85 76 84 1
86 76 85 1
87 77 86 1
88 77 87 1
89 77 88 1
90 89 90 1
91 89 97 1
92 90 91 1
93 90 93 1
94 90 98 1
95 91 92 2
96 91 108 1
97 93 94 1
98 94 95 1
99 94 96 1
100 93 99 1
101 93 100 1
102 94 101 1
103 95 102 1
104 95 103 1
105 95 104 1
106 96 105 1
107 96 106 1
108 96 107 1
109 108 109 1
110 108 116 1
111 109 110 1
112 109 112 1
113 109 117 1
114 110 111 2
115 110 120 1
116 112 113 1
117 113 114 2
118 113 115 1
119 112 118 1
120 112 119 1
121 120 121 1
122 120 129 1
123 121 122 1
124 121 124 1
125 121 130 1
126 122 123 2
127 122 135 1
128 124 125 1
129 125 126 1
130 126 127 2
131 126 128 1
132 124 131 1
133 124 132 1
134 125 133 1
135 125 134 1
136 135 136 1
137 135 145 1
138 136 137 1
139 136 139 1
140 136 146 1
141 137 138 2
142 137 152 1
143 139 140 1
144 140 141 2
145 141 144 1
146 140 142 1
147 142 143 2
148 143 144 1
149 139 147 1
150 139 148 1
151 141 149 1
152 143 150 1
153 144 151 1
154 152 153 1
155 152 159 1
156 153 154 1
157 153 156 1
158 153 160 1
159 154 155 2
160 154 168 1
161 156 157 1
162 156 158 1
163 156 161 1
164 157 162 1
165 157 163 1
166 157 164 1
167 158 165 1
168 158 166 1
169 158 167 1
170 168 169 1
171 168 177 1
172 169 170 1
173 169 172 1
174 169 178 1
175 170 171 2
176 170 185 1
177 172 173 1
178 173 174 1
179 174 175 1
180 174 176 2
181 172 179 1
182 172 180 1
183 173 181 1
184 173 182 1
185 175 183 1
186 175 184 1
187 185 186 1
188 185 193 1
189 186 187 1
190 186 189 1
191 186 194 1
192 187 188 2
193 187 197 1
194 189 190 1
195 190 191 2
196 190 192 1
197 189 195 1
198 189 196 1
199 197 198 1
200 197 204 1
201 198 199 1
202 198 201 1
203 198 205 1
204 199 200 2
205 199 213 1
206 201 202 1
207 201 203 1
208 201 206 1
209 202 207 1
210 202 208 1
211 202 209 1
212 203 210 1
213 203 211 1
214 203 212 1
215 213 214 1
216 213 221 1
217 214 215 1
218 214 217 1
219 214 222 1
220 215 216 2
221 215 230 1
222 217 218 1
223 218 219 1
224 219 220 1
225 217 223 1
226 217 224 1
227 218 225 1
228 218 226 1
229 220 227 1
230 220 228 1
231 220 229 1
232 230 231 1
233 230 241 1
234 231 232 1
235 231 234 1
236 231 242 1
237 232 233 2
238 234 235 1
239 235 236 1
240 236 237 1
241 237 238 1
242 238 239 2
243 238 240 1
244 234 243 1
245 234 244 1
246 235 245 1
247 235 246 1
248 236 247 1
249 236 248 1
250 237 249 1
251 239 250 1
252 239 251 1
253 240 252 1
254 240 253 1
@<TRIPOS>SUBSTRUCTURE
1	GLU1	1	RESIDUE	1 ****	GLU
2	ASN2	16	RESIDUE	1 ****	ASN
3	PRO3	30	RESIDUE	1 ****	PRO
4	GLU4	44	RESIDUE	1 ****	GLU
5	SER5	59	RESIDUE	1 ****	SER
6	ILE6	70	RESIDUE	1 ****	ILE
7	LEU7	89	RESIDUE	1 ****	LEU
8	ASP8	108	RESIDUE	1 ****	ASP
9	GLU9	120	RESIDUE	1 ****	GLU
10	HIS10	135	RESIDUE	1 ****	HIS
11	VAL11	152	RESIDUE	1 ****	VAL
12	GLN12	168	RESIDUE	1 ****	GLN
13	ASP13	185	RESIDUE	1 ****	ASP
14	VAL14	197	RESIDUE	1 ****	VAL
15	MET15	213	RESIDUE	1 ****	MET
16	ARG16	230	RESIDUE	1 ****	ARG
