REMARK WARNING: 32 MAX_TORS EXCEEDED!!!
REMARK  69 active torsions:
REMARK  status: ('A' for Active; 'I' for Inactive)
REMARK    1  A    between atoms: N_1  and  CA_2 
REMARK    2  A    between atoms: CA_2  and  C_3 
REMARK    3  A    between atoms: CA_2  and  CB_5 
REMARK       I    between atoms: C_3  and  N_11 
REMARK    4  A    between atoms: CB_5  and  CG_6 
REMARK    5  A    between atoms: CG_6  and  CD_7 
REMARK    6  A    between atoms: N_11  and  CA_12 
REMARK    7  A    between atoms: CA_12  and  C_13 
REMARK    8  A    between atoms: CA_12  and  CB_15 
REMARK       I    between atoms: C_13  and  N_22 
REMARK    9  A    between atoms: CB_15  and  CG_16 
REMARK       I    between atoms: CG_16  and  ND2_17 
REMARK   10  A    between atoms: CA_23  and  C_24 
REMARK       I    between atoms: C_24  and  N_29 
REMARK   11  A    between atoms: N_29  and  CA_30 
REMARK   12  A    between atoms: CA_30  and  C_31 
REMARK   13  A    between atoms: CA_30  and  CB_33 
REMARK       I    between atoms: C_31  and  N_39 
REMARK   14  A    between atoms: CB_33  and  CG_34 
REMARK   15  A    between atoms: CG_34  and  CD_35 
REMARK   16  A    between atoms: N_39  and  CA_40 
REMARK   17  A    between atoms: CA_40  and  C_41 
REMARK   18  A    between atoms: CA_40  and  CB_43 
REMARK       I    between atoms: C_41  and  N_47 
REMARK   19  A    between atoms: CB_43  and  OG_44 
REMARK   20  A    between atoms: N_47  and  CA_48 
REMARK   21  A    between atoms: CA_48  and  C_49 
REMARK   22  A    between atoms: CA_48  and  CB_51 
REMARK       I    between atoms: C_49  and  N_56 
REMARK   23  A    between atoms: CB_51  and  CG1_52 
REMARK   24  A    between atoms: N_56  and  CA_57 
REMARK   25  A    between atoms: CA_57  and  C_58 
REMARK   26  A    between atoms: CA_57  and  CB_60 
REMARK       I    between atoms: C_58  and  N_65 
REMARK   27  A    between atoms: CB_60  and  CG_61 
REMARK   28  A    between atoms: N_65  and  CA_66 
REMARK   29  A    between atoms: CA_66  and  C_67 
REMARK   30  A    between atoms: CA_66  and  CB_69 
REMARK       I    between atoms: C_67  and  N_74 
REMARK   31  A    between atoms: CB_69  and  CG_70 
REMARK   32  A    between atoms: N_74  and  CA_75 
REMARK   33  A    between atoms: CA_75  and  C_76 
REMARK   34  A    between atoms: CA_75  and  CB_78 
REMARK       I    between atoms: C_76  and  N_84 
REMARK   35  A    between atoms: CB_78  and  CG_79 
REMARK   36  A    between atoms: CG_79  and  CD_80 
REMARK   37  A    between atoms: N_84  and  CA_85 
REMARK   38  A    between atoms: CA_85  and  C_86 
REMARK   39  A    between atoms: CA_85  and  CB_88 
REMARK       I    between atoms: C_86  and  N_96 
REMARK   40  A    between atoms: CB_88  and  CG_89 
REMARK   41  A    between atoms: N_96  and  CA_97 
REMARK   42  A    between atoms: CA_97  and  C_98 
REMARK   43  A    between atoms: CA_97  and  CB_100 
REMARK       I    between atoms: C_98  and  N_104 
REMARK   44  A    between atoms: CB_100  and  SG_101 
REMARK   45  A    between atoms: N_104  and  CA_105 
REMARK   46  A    between atoms: CA_105  and  C_106 
REMARK   47  A    between atoms: CA_105  and  CB_108 
REMARK       I    between atoms: C_106  and  N_116 
REMARK   48  A    between atoms: CB_108  and  CG_109 
REMARK   49  A    between atoms: CG_109  and  CD_110 
REMARK       I    between atoms: CD_110  and  NE2_111 
REMARK   50  A    between atoms: N_116  and  CA_117 
REMARK   51  A    between atoms: CA_117  and  C_118 
REMARK   52  A    between atoms: CA_117  and  CB_120 
REMARK       I    between atoms: C_118  and  N_133 
REMARK   53  A    between atoms: CB_120  and  CG_121 
REMARK   54  A    between atoms: CG_121  and  CD_122 
REMARK   55  A    between atoms: CD_122  and  NE_123 
REMARK       I    between atoms: NE_123  and  CZ_124 
REMARK       I    between atoms: CZ_124  and  NH1_125 
REMARK       I    between atoms: CZ_124  and  NH2_126 
REMARK   56  A    between atoms: N_133  and  CA_134 
REMARK   57  A    between atoms: CA_134  and  C_135 
REMARK   58  A    between atoms: CA_134  and  CB_137 
REMARK       I    between atoms: C_135  and  N_141 
REMARK   59  A    between atoms: N_141  and  CA_142 
REMARK   60  A    between atoms: CA_142  and  C_143 
REMARK   61  A    between atoms: CA_142  and  CB_145 
REMARK       I    between atoms: C_143  and  N_150 
REMARK   62  A    between atoms: CB_145  and  CG_146 
REMARK   63  A    between atoms: CG_146  and  SD_147 
REMARK   64  A    between atoms: N_150  and  CA_151 
REMARK   65  A    between atoms: CA_151  and  C_152 
REMARK   66  A    between atoms: CA_151  and  CB_154 
REMARK   67  A    between atoms: CB_154  and  CG_155 
REMARK   68  A    between atoms: CG_155  and  CD_156 
REMARK   69  A    between atoms: CD_156  and  NE_157 
REMARK       I    between atoms: NE_157  and  CZ_158 
REMARK       I    between atoms: CZ_158  and  NH1_159 
ROOT
ATOM      1  C   GLU d   9    1781.667 536.861-1821.822  0.00  0.00     0.241 C 
ATOM      2  O   GLU d   9    1782.331 537.616-1822.547  0.00  0.00    -0.271 OA
ATOM      3  N   HIS d  10    1781.765 535.586-1821.992  0.00  0.00    -0.346 N 
ATOM      4  H   HIS d  10    1781.234 534.950-1821.414  0.00  0.00     0.163 HD
ENDROOT
BRANCH   1   5
ATOM      5  CA  GLU d   9    1780.749 537.388-1820.747  0.00  0.00     0.177 C 
BRANCH   5   6
ATOM      6  N   GLU d   9    1779.447 536.730-1820.802  0.00  0.00    -0.346 N 
ATOM      7  C   ASP d   8    1778.767 536.780-1821.897  0.00  0.00     0.241 C 
ATOM      8  O   ASP d   8    1779.239 537.385-1822.872  0.00  0.00    -0.271 OA
ATOM      9  H   GLU d   9    1779.083 536.243-1819.995  0.00  0.00     0.163 HD
BRANCH   7  10
ATOM     10  CA  ASP d   8    1777.420 536.100-1821.955  0.00  0.00     0.186 C 
BRANCH  10  11
ATOM     11  N   ASP d   8    1777.491 534.750-1821.402  0.00  0.00    -0.346 N 
ATOM     12  C   LEU d   7    1778.328 533.910-1821.908  0.00  0.00     0.241 C 
ATOM     13  O   LEU d   7    1779.049 534.273-1822.850  0.00  0.00    -0.271 OA
ATOM     14  H   ASP d   8    1776.893 534.479-1820.634  0.00  0.00     0.163 HD
BRANCH  12  15
ATOM     15  CA  LEU d   7    1778.401 532.515-1821.335  0.00  0.00     0.177 C 
BRANCH  15  16
ATOM     16  N   LEU d   7    1778.456 532.551-1819.877  0.00  0.00    -0.346 N 
ATOM     17  C   ILE d   6    1779.402 533.214-1819.303  0.00  0.00     0.241 C 
ATOM     18  O   ILE d   6    1780.236 533.802-1820.007  0.00  0.00    -0.271 OA
ATOM     19  H   LEU d   7    1777.764 532.064-1819.326  0.00  0.00     0.163 HD
BRANCH  17  20
ATOM     20  CA  ILE d   6    1779.459 533.252-1817.795  0.00  0.00     0.180 C 
BRANCH  20  21
ATOM     21  N   ILE d   6    1778.146 533.547-1817.229  0.00  0.00    -0.346 N 
ATOM     22  C   SER d   5    1777.541 534.630-1817.583  0.00  0.00     0.243 C 
ATOM     23  O   SER d   5    1778.088 535.383-1818.388  0.00  0.00    -0.271 OA
ATOM     24  H   ILE d   6    1777.718 532.912-1816.570  0.00  0.00     0.163 HD
BRANCH  22  25
ATOM     25  CA  SER d   5    1776.182 534.935-1816.998  0.00  0.00     0.200 C 
BRANCH  25  26
ATOM     26  N   SER d   5    1775.312 533.764-1817.056  0.00  0.00    -0.344 N 
ATOM     27  C   GLU d   4    1775.085 533.211-1818.199  0.00  0.00     0.241 C 
ATOM     28  O   GLU d   4    1775.611 533.691-1819.214  0.00  0.00    -0.271 OA
ATOM     29  H   SER d   5    1774.896 533.392-1816.215  0.00  0.00     0.163 HD
BRANCH  27  30
ATOM     30  CA  GLU d   4    1774.186 532.000-1818.260  0.00  0.00     0.177 C 
BRANCH  30  31
ATOM     31  N   GLU d   4    1774.546 531.029-1817.231  0.00  0.00    -0.346 N 
ATOM     32  C   PRO d   3    1775.750 530.569-1817.199  0.00  0.00     0.241 C 
ATOM     33  O   PRO d   3    1776.574 530.952-1818.030  0.00  0.00    -0.271 OA
ATOM     34  H   GLU d   4    1773.862 530.722-1816.554  0.00  0.00     0.163 HD
BRANCH  32  35
ATOM     35  CA  PRO d   3    1776.149 529.546-1816.122  0.00  0.00     0.179 C 
ATOM     36  N   PRO d   3    1775.697 529.955-1814.800  0.00  0.00    -0.337 N 
ATOM     37  C   ASN d   2    1776.218 530.950-1814.166  0.00  0.00     0.243 C 
ATOM     38  CD  PRO d   3    1774.619 529.162-1814.251  0.00  0.00     0.127 C 
ATOM     39  O   ASN d   2    1777.133 531.580-1814.695  0.00  0.00    -0.271 OA
ATOM     40  CG  PRO d   3    1774.161 528.343-1815.461  0.00  0.00     0.022 C 
ATOM     41  CB  PRO d   3    1775.444 528.191-1816.291  0.00  0.00     0.037 C 
BRANCH  37  42
ATOM     42  CA  ASN d   2    1775.687 531.306-1812.797  0.00  0.00     0.185 C 
BRANCH  42  43
ATOM     43  N   ASN d   2    1774.228 531.344-1812.797  0.00  0.00    -0.346 N 
ATOM     44  C   GLU d   1    1773.623 532.130-1813.623  0.00  0.00     0.242 C 
ATOM     45  O   GLU d   1    1774.299 532.829-1814.391  0.00  0.00    -0.271 OA
ATOM     46  H   ASN d   2    1773.700 530.765-1812.161  0.00  0.00     0.163 HD
BRANCH  44  47
ATOM     47  CA  GLU d   1    1772.114 532.170-1813.623  0.00  0.00     0.191 C 
BRANCH  47  48
ATOM     48  N   GLU d   1    1771.555 530.821-1813.623  0.00  0.00    -0.326 NA
ATOM     49  H   GLU d   1    1772.182 529.942-1813.623  0.00  0.00     0.180 HD
ENDBRANCH  47  48
BRANCH  47  50
ATOM     50  CB  GLU d   1    1771.591 532.955-1812.386  0.00  0.00     0.047 C 
BRANCH  50  51
ATOM     51  CG  GLU d   1    1772.066 534.440-1812.275  0.00  0.00     0.116 C 
BRANCH  51  52
ATOM     52  CD  GLU d   1    1771.642 535.244-1811.060  0.00  0.00     0.172 C 
ATOM     53  OE1 GLU d   1    1770.914 534.742-1810.182  0.00  0.00    -0.648 OA
ATOM     54  OE2 GLU d   1    1772.072 536.414-1810.988  0.00  0.00    -0.648 OA
ENDBRANCH  51  52
ENDBRANCH  50  51
ENDBRANCH  47  50
ENDBRANCH  44  47
ENDBRANCH  42  43
BRANCH  42  55
ATOM     55  CB  ASN d   2    1776.179 530.282-1811.733  0.00  0.00     0.137 C 
BRANCH  55  56
ATOM     56  CG  ASN d   2    1775.716 530.506-1810.290  0.00  0.00     0.217 C 
ATOM     57  ND2 ASN d   2    1776.310 531.421-1809.572  0.00  0.00    -0.370 N 
ATOM     58 21HD ASN d   2    1775.830 531.594-1808.685  0.00  0.00     0.159 HD
ATOM     59 22HD ASN d   2    1777.012 531.993-1810.041  0.00  0.00     0.159 HD
ATOM     60  OD1 ASN d   2    1774.795 529.873-1809.796  0.00  0.00    -0.274 OA
ENDBRANCH  55  56
ENDBRANCH  42  55
ENDBRANCH  37  42
ENDBRANCH  32  35
ENDBRANCH  30  31
BRANCH  30  61
ATOM     61  CB  GLU d   4    1772.698 532.419-1818.090  0.00  0.00     0.045 C 
BRANCH  61  62
ATOM     62  CG  GLU d   4    1772.150 533.423-1819.156  0.00  0.00     0.116 C 
BRANCH  62  63
ATOM     63  CD  GLU d   4    1770.723 533.919-1819.012  0.00  0.00     0.172 C 
ATOM     64  OE1 GLU d   4    1769.997 533.521-1818.081  0.00  0.00    -0.648 OA
ATOM     65  OE2 GLU d   4    1770.333 534.749-1819.860  0.00  0.00    -0.648 OA
ENDBRANCH  62  63
ENDBRANCH  61  62
ENDBRANCH  30  61
ENDBRANCH  27  30
ENDBRANCH  25  26
BRANCH  25  66
ATOM     66  CB  SER d   5    1776.293 535.468-1815.547  0.00  0.00     0.199 C 
BRANCH  66  67
ATOM     67  OG  SER d   5    1777.025 534.588-1814.686  0.00  0.00    -0.398 OA
ATOM     68  HG  SER d   5    1776.537 533.763-1814.636  0.00  0.00     0.209 HD
ENDBRANCH  66  67
ENDBRANCH  25  66
ENDBRANCH  22  25
ENDBRANCH  20  21
BRANCH  20  69
ATOM     69  CB  ILE d   6    1780.059 531.916-1817.195  0.00  0.00     0.013 C 
ATOM     70  CG2 ILE d   6    1781.500 531.614-1817.711  0.00  0.00     0.012 C 
BRANCH  69  71
ATOM     71  CG1 ILE d   6    1780.078 531.854-1815.634  0.00  0.00     0.002 C 
ATOM     72  CD1 ILE d   6    1780.348 530.465-1815.019  0.00  0.00     0.005 C 
ENDBRANCH  69  71
ENDBRANCH  20  69
ENDBRANCH  17  20
ENDBRANCH  15  16
BRANCH  15  73
ATOM     73  CB  LEU d   7    1777.198 531.654-1821.816  0.00  0.00     0.038 C 
BRANCH  73  74
ATOM     74  CG  LEU d   7    1777.125 530.175-1821.349  0.00  0.00    -0.020 C 
ATOM     75  CD1 LEU d   7    1775.936 529.469-1822.015  0.00  0.00     0.009 C 
ATOM     76  CD2 LEU d   7    1778.419 529.396-1821.641  0.00  0.00     0.009 C 
ENDBRANCH  73  74
ENDBRANCH  15  73
ENDBRANCH  12  15
ENDBRANCH  10  11
BRANCH  10  77
ATOM     77  CB  ASP d   8    1776.342 536.939-1821.213  0.00  0.00     0.147 C 
BRANCH  77  78
ATOM     78  CG  ASP d   8    1776.123 538.359-1821.753  0.00  0.00     0.175 C 
ATOM     79  OD1 ASP d   8    1776.187 538.559-1822.984  0.00  0.00    -0.648 OA
ATOM     80  OD2 ASP d   8    1775.931 539.285-1820.938  0.00  0.00    -0.648 OA
ENDBRANCH  77  78
ENDBRANCH  10  77
ENDBRANCH   7  10
ENDBRANCH   5   6
BRANCH   5  81
ATOM     81  CB  GLU d   9    1781.382 537.180-1819.341  0.00  0.00     0.045 C 
BRANCH  81  82
ATOM     82  CG  GLU d   9    1782.765 537.873-1819.111  0.00  0.00     0.116 C 
BRANCH  82  83
ATOM     83  CD  GLU d   9    1783.466 537.660-1817.783  0.00  0.00     0.172 C 
ATOM     84  OE1 GLU d   9    1782.945 536.968-1816.887  0.00  0.00    -0.648 OA
ATOM     85  OE2 GLU d   9    1784.585 538.198-1817.651  0.00  0.00    -0.648 OA
ENDBRANCH  82  83
ENDBRANCH  81  82
ENDBRANCH   5  81
ENDBRANCH   1   5
BRANCH   3  86
ATOM     86  CA  HIS d  10    1782.653 535.075-1823.033  0.00  0.00     0.182 C 
BRANCH  86  87
ATOM     87  C   HIS d  10    1782.286 535.640-1824.384  0.00  0.00     0.241 C 
ATOM     88  O   HIS d  10    1783.138 536.106-1825.155  0.00  0.00    -0.271 OA
ATOM     89  N   CYS d  11    1781.048 535.639-1824.747  0.00  0.00    -0.345 N 
ATOM     90  H   CYS d  11    1780.335 535.265-1824.136  0.00  0.00     0.163 HD
BRANCH  89  91
ATOM     91  CA  CYS d  11    1780.692 536.185-1826.053  0.00  0.00     0.185 C 
BRANCH  91  92
ATOM     92  C   CYS d  11    1781.156 537.617-1826.186  0.00  0.00     0.241 C 
ATOM     93  O   CYS d  11    1781.757 538.022-1827.191  0.00  0.00    -0.271 OA
ATOM     94  N   GLN d  12    1780.919 538.442-1825.224  0.00  0.00    -0.346 N 
ATOM     95  H   GLN d  12    1780.430 538.136-1824.394  0.00  0.00     0.163 HD
BRANCH  94  96
ATOM     96  CA  GLN d  12    1781.366 539.826-1825.351  0.00  0.00     0.177 C 
BRANCH  96  97
ATOM     97  C   GLN d  12    1782.856 539.894-1825.590  0.00  0.00     0.241 C 
ATOM     98  O   GLN d  12    1783.342 540.602-1826.469  0.00  0.00    -0.271 OA
ATOM     99  N   ARG d  13    1783.641 539.188-1824.849  0.00  0.00    -0.346 N 
ATOM    100  H   ARG d  13    1783.266 538.598-1824.120  0.00  0.00     0.163 HD
BRANCH  99 101
ATOM    101  CA  ARG d  13    1785.081 539.254-1825.080  0.00  0.00     0.176 C 
BRANCH 101 102
ATOM    102  C   ARG d  13    1785.417 538.883-1826.505  0.00  0.00     0.241 C 
ATOM    103  O   ARG d  13    1786.185 539.555-1827.190  0.00  0.00    -0.271 OA
ATOM    104  N   VAL d  14    1784.882 537.828-1827.019  0.00  0.00    -0.346 N 
ATOM    105  H   VAL d  14    1784.247 537.259-1826.477  0.00  0.00     0.163 HD
BRANCH 104 106
ATOM    106  CA  VAL d  14    1785.206 537.469-1828.397  0.00  0.00     0.180 C 
BRANCH 106 107
ATOM    107  C   VAL d  14    1784.875 538.598-1829.342  0.00  0.00     0.241 C 
ATOM    108  O   VAL d  14    1785.668 538.981-1830.212  0.00  0.00    -0.271 OA
ATOM    109  N   MET d  15    1783.730 539.183-1829.240  0.00  0.00    -0.346 N 
ATOM    110  H   MET d  15    1783.066 538.890-1828.538  0.00  0.00     0.163 HD
BRANCH 109 111
ATOM    111  CA  MET d  15    1783.409 540.276-1830.154  0.00  0.00     0.177 C 
BRANCH 111 112
ATOM    112  C   MET d  15    1784.438 541.377-1830.066  0.00  0.00     0.241 C 
ATOM    113  O   MET d  15    1784.940 541.888-1831.079  0.00  0.00    -0.271 OA
ATOM    114  N   ARG d  16    1784.807 541.798-1828.904  0.00  0.00    -0.347 N 
ATOM    115  H   ARG d  16    1784.413 541.397-1828.064  0.00  0.00     0.163 HD
BRANCH 114 116
ATOM    116  CA  ARG d  16    1785.802 542.862-1828.820  0.00  0.00     0.162 C 
BRANCH 116 117
ATOM    117  C   ARG d  16    1787.073 542.471-1829.537  0.00  0.00     0.219 C 
ATOM    118  O   ARG d  16    1787.188 541.395-1830.118  0.00  0.00    -0.287 OA
ENDBRANCH 116 117
BRANCH 116 119
ATOM    119  CB  ARG d  16    1786.072 543.181-1827.322  0.00  0.00     0.035 C 
BRANCH 119 120
ATOM    120  CG  ARG d  16    1786.896 544.470-1827.049  0.00  0.00     0.023 C 
BRANCH 120 121
ATOM    121  CD  ARG d  16    1787.146 544.690-1825.548  0.00  0.00     0.138 C 
BRANCH 121 122
ATOM    122  NE  ARG d  16    1787.921 545.949-1825.347  0.00  0.00    -0.227 N 
ATOM    123  CZ  ARG d  16    1788.312 546.432-1824.172  0.00  0.00     0.665 C 
ATOM    124  NH1 ARG d  16    1788.065 545.847-1823.033  0.00  0.00    -0.235 N 
ATOM    125  NH2 ARG d  16    1788.975 547.545-1824.153  0.00  0.00    -0.235 N 
ATOM    126 11HH ARG d  16    1787.540 544.974-1823.118  0.00  0.00     0.174 HD
ATOM    127 12HH ARG d  16    1788.399 546.283-1822.172  0.00  0.00     0.174 HD
ATOM    128 21HH ARG d  16    1789.160 547.988-1825.055  0.00  0.00     0.174 HD
ATOM    129 22HH ARG d  16    1789.265 547.900-1823.241  0.00  0.00     0.174 HD
ATOM    130  HE  ARG d  16    1788.199 546.531-1826.145  0.00  0.00     0.177 HD
ENDBRANCH 121 122
ENDBRANCH 120 121
ENDBRANCH 119 120
ENDBRANCH 116 119
ENDBRANCH 114 116
ENDBRANCH 111 112
BRANCH 111 131
ATOM    131  CB  MET d  15    1781.987 540.820-1829.844  0.00  0.00     0.045 C 
BRANCH 131 132
ATOM    132  CG  MET d  15    1780.826 539.821-1830.036  0.00  0.00     0.076 C 
BRANCH 132 133
ATOM    133  SD  MET d  15    1779.251 540.686-1829.921  0.00  0.00    -0.173 SA
ATOM    134  CE  MET d  15    1778.171 539.256-1829.784  0.00  0.00     0.089 C 
ENDBRANCH 132 133
ENDBRANCH 131 132
ENDBRANCH 111 131
ENDBRANCH 109 111
ENDBRANCH 106 107
BRANCH 106 135
ATOM    135  CB  VAL d  14    1784.435 536.151-1828.803  0.00  0.00     0.009 C 
ATOM    136  CG1 VAL d  14    1784.523 535.733-1830.297  0.00  0.00     0.012 C 
ATOM    137  CG2 VAL d  14    1784.868 534.899-1828.003  0.00  0.00     0.012 C 
ENDBRANCH 106 135
ENDBRANCH 104 106
ENDBRANCH 101 102
BRANCH 101 138
ATOM    138  CB  ARG d  13    1785.796 538.316-1824.066  0.00  0.00     0.036 C 
BRANCH 138 139
ATOM    139  CG  ARG d  13    1787.341 538.470-1823.986  0.00  0.00     0.023 C 
BRANCH 139 140
ATOM    140  CD  ARG d  13    1787.969 537.483-1822.988  0.00  0.00     0.138 C 
BRANCH 140 141
ATOM    141  NE  ARG d  13    1789.446 537.691-1822.938  0.00  0.00    -0.227 N 
ATOM    142  CZ  ARG d  13    1790.294 537.000-1822.183  0.00  0.00     0.665 C 
ATOM    143  NH1 ARG d  13    1789.930 536.036-1821.385  0.00  0.00    -0.235 N 
ATOM    144  NH2 ARG d  13    1791.554 537.300-1822.240  0.00  0.00    -0.235 N 
ATOM    145 11HH ARG d  13    1788.925 535.849-1821.388  0.00  0.00     0.174 HD
ATOM    146 12HH ARG d  13    1790.644 535.553-1820.837  0.00  0.00     0.174 HD
ATOM    147 21HH ARG d  13    1791.821 538.058-1822.872  0.00  0.00     0.174 HD
ATOM    148 22HH ARG d  13    1792.189 536.760-1821.652  0.00  0.00     0.174 HD
ATOM    149  HE  ARG d  13    1789.896 538.414-1823.509  0.00  0.00     0.177 HD
ENDBRANCH 140 141
ENDBRANCH 139 140
ENDBRANCH 138 139
ENDBRANCH 101 138
ENDBRANCH  99 101
ENDBRANCH  96  97
BRANCH  96 150
ATOM    150  CB  GLN d  12    1780.975 540.593-1824.069  0.00  0.00     0.044 C 
BRANCH 150 151
ATOM    151  CG  GLN d  12    1781.334 542.115-1824.038  0.00  0.00     0.105 C 
BRANCH 151 152
ATOM    152  CD  GLN d  12    1781.032 542.928-1822.773  0.00  0.00     0.215 C 
ATOM    153  NE2 GLN d  12    1780.465 542.352-1821.744  0.00  0.00    -0.370 N 
ATOM    154 21HE GLN d  12    1780.358 542.947-1820.921  0.00  0.00     0.159 HD
ATOM    155 22HE GLN d  12    1780.303 541.348-1821.847  0.00  0.00     0.159 HD
ATOM    156  OE1 GLN d  12    1781.333 544.110-1822.696  0.00  0.00    -0.274 OA
ENDBRANCH 151 152
ENDBRANCH 150 151
ENDBRANCH  96 150
ENDBRANCH  94  96
ENDBRANCH  91  92
BRANCH  91 157
ATOM    157  CB  CYS d  11    1779.171 536.038-1826.248  0.00  0.00     0.105 C 
BRANCH 157 158
ATOM    158  SG  CYS d  11    1778.689 536.530-1827.919  0.00  0.00    -0.180 SA
ATOM    159  HG  CYS d  11    1778.147 537.700-1827.591  0.00  0.00     0.101 HD
ENDBRANCH 157 158
ENDBRANCH  91 157
ENDBRANCH  89  91
ENDBRANCH  86  87
BRANCH  86 160
ATOM    160  CB  HIS d  10    1782.490 533.546-1823.028  0.00  0.00     0.095 C 
BRANCH 160 161
ATOM    161  CG  HIS d  10    1783.776 532.837-1822.720  0.00  0.00     0.053 A 
ATOM    162  CD2 HIS d  10    1784.156 532.501-1821.428  0.00  0.00     0.116 A 
ATOM    163  NE2 HIS d  10    1785.372 531.870-1821.494  0.00  0.00    -0.359 N 
ATOM    164  CE1 HIS d  10    1785.635 531.873-1822.829  0.00  0.00     0.207 A 
ATOM    165  2HE HIS d  10    1785.938 531.493-1820.721  0.00  0.00     0.166 HD
ATOM    166  ND1 HIS d  10    1784.728 532.432-1823.653  0.00  0.00    -0.247 NA
ENDBRANCH 160 161
ENDBRANCH  86 160
ENDBRANCH   3  86
TORSDOF 69
