REMARK WARNING: 32 MAX_TORS EXCEEDED!!!
REMARK  69 active torsions:
REMARK  status: ('A' for Active; 'I' for Inactive)
REMARK    1  A    between atoms: N_1  and  CA_2 
REMARK    2  A    between atoms: CA_2  and  C_3 
REMARK    3  A    between atoms: CA_2  and  CB_5 
REMARK       I    between atoms: C_3  and  N_11 
REMARK    4  A    between atoms: CB_5  and  CG_6 
REMARK    5  A    between atoms: CG_6  and  CD_7 
REMARK    6  A    between atoms: N_11  and  CA_12 
REMARK    7  A    between atoms: CA_12  and  C_13 
REMARK    8  A    between atoms: CA_12  and  CB_15 
REMARK       I    between atoms: C_13  and  N_22 
REMARK    9  A    between atoms: CB_15  and  CG_16 
REMARK       I    between atoms: CG_16  and  ND2_17 
REMARK   10  A    between atoms: CA_23  and  C_24 
REMARK       I    between atoms: C_24  and  N_29 
REMARK   11  A    between atoms: N_29  and  CA_30 
REMARK   12  A    between atoms: CA_30  and  C_31 
REMARK   13  A    between atoms: CA_30  and  CB_33 
REMARK       I    between atoms: C_31  and  N_39 
REMARK   14  A    between atoms: CB_33  and  CG_34 
REMARK   15  A    between atoms: CG_34  and  CD_35 
REMARK   16  A    between atoms: N_39  and  CA_40 
REMARK   17  A    between atoms: CA_40  and  C_41 
REMARK   18  A    between atoms: CA_40  and  CB_43 
REMARK       I    between atoms: C_41  and  N_47 
REMARK   19  A    between atoms: CB_43  and  OG_44 
REMARK   20  A    between atoms: N_47  and  CA_48 
REMARK   21  A    between atoms: CA_48  and  C_49 
REMARK   22  A    between atoms: CA_48  and  CB_51 
REMARK       I    between atoms: C_49  and  N_56 
REMARK   23  A    between atoms: CB_51  and  CG1_52 
REMARK   24  A    between atoms: N_56  and  CA_57 
REMARK   25  A    between atoms: CA_57  and  C_58 
REMARK   26  A    between atoms: CA_57  and  CB_60 
REMARK       I    between atoms: C_58  and  N_65 
REMARK   27  A    between atoms: CB_60  and  CG_61 
REMARK   28  A    between atoms: N_65  and  CA_66 
REMARK   29  A    between atoms: CA_66  and  C_67 
REMARK   30  A    between atoms: CA_66  and  CB_69 
REMARK       I    between atoms: C_67  and  N_74 
REMARK   31  A    between atoms: CB_69  and  CG_70 
REMARK   32  A    between atoms: N_74  and  CA_75 
REMARK   33  A    between atoms: CA_75  and  C_76 
REMARK   34  A    between atoms: CA_75  and  CB_78 
REMARK       I    between atoms: C_76  and  N_84 
REMARK   35  A    between atoms: CB_78  and  CG_79 
REMARK   36  A    between atoms: CG_79  and  CD_80 
REMARK   37  A    between atoms: N_84  and  CA_85 
REMARK   38  A    between atoms: CA_85  and  C_86 
REMARK   39  A    between atoms: CA_85  and  CB_88 
REMARK       I    between atoms: C_86  and  N_96 
REMARK   40  A    between atoms: CB_88  and  CG_89 
REMARK   41  A    between atoms: N_96  and  CA_97 
REMARK   42  A    between atoms: CA_97  and  C_98 
REMARK   43  A    between atoms: CA_97  and  CB_100 
REMARK       I    between atoms: C_98  and  N_104 
REMARK   44  A    between atoms: N_104  and  CA_105 
REMARK   45  A    between atoms: CA_105  and  C_106 
REMARK   46  A    between atoms: CA_105  and  CB_108 
REMARK       I    between atoms: C_106  and  N_116 
REMARK   47  A    between atoms: CB_108  and  CG_109 
REMARK   48  A    between atoms: CG_109  and  CD_110 
REMARK       I    between atoms: CD_110  and  NE2_111 
REMARK   49  A    between atoms: N_116  and  CA_117 
REMARK   50  A    between atoms: CA_117  and  C_118 
REMARK   51  A    between atoms: CA_117  and  CB_120 
REMARK       I    between atoms: C_118  and  N_133 
REMARK   52  A    between atoms: CB_120  and  CG_121 
REMARK   53  A    between atoms: CG_121  and  CD_122 
REMARK   54  A    between atoms: CD_122  and  NE_123 
REMARK       I    between atoms: NE_123  and  CZ_124 
REMARK       I    between atoms: CZ_124  and  NH1_125 
REMARK       I    between atoms: CZ_124  and  NH2_126 
REMARK   55  A    between atoms: N_133  and  CA_134 
REMARK   56  A    between atoms: CA_134  and  C_135 
REMARK   57  A    between atoms: CA_134  and  CB_137 
REMARK       I    between atoms: C_135  and  N_145 
REMARK   58  A    between atoms: CB_137  and  CG_138 
REMARK   59  A    between atoms: N_145  and  CA_146 
REMARK   60  A    between atoms: CA_146  and  C_147 
REMARK   61  A    between atoms: CA_146  and  CB_149 
REMARK       I    between atoms: C_147  and  N_154 
REMARK   62  A    between atoms: CB_149  and  CG_150 
REMARK   63  A    between atoms: CG_150  and  SD_151 
REMARK   64  A    between atoms: N_154  and  CA_155 
REMARK   65  A    between atoms: CA_155  and  C_156 
REMARK   66  A    between atoms: CA_155  and  CB_158 
REMARK   67  A    between atoms: CB_158  and  CG_159 
REMARK   68  A    between atoms: CG_159  and  CD_160 
REMARK   69  A    between atoms: CD_160  and  NE_161 
REMARK       I    between atoms: NE_161  and  CZ_162 
REMARK       I    between atoms: CZ_162  and  NH1_163 
ROOT
ATOM      1  C   GLU d   9    2235.678 685.477-2319.007  0.00  0.00     0.241 C 
ATOM      2  O   GLU d   9    2236.342 686.231-2319.733  0.00  0.00    -0.271 OA
ATOM      3  N   HIS d  10    2235.774 684.202-2319.176  0.00  0.00    -0.346 N 
ATOM      4  H   HIS d  10    2235.244 683.567-2318.597  0.00  0.00     0.163 HD
ENDROOT
BRANCH   3   5
ATOM      5  CA  HIS d  10    2236.662 683.689-2320.216  0.00  0.00     0.182 C 
BRANCH   5   6
ATOM      6  C   HIS d  10    2236.295 684.253-2321.567  0.00  0.00     0.241 C 
ATOM      7  O   HIS d  10    2237.147 684.717-2322.340  0.00  0.00    -0.271 OA
ATOM      8  N   VAL d  11    2235.057 684.253-2321.930  0.00  0.00    -0.346 N 
ATOM      9  H   VAL d  11    2234.344 683.881-2321.319  0.00  0.00     0.163 HD
BRANCH   8  10
ATOM     10  CA  VAL d  11    2234.702 684.798-2323.237  0.00  0.00     0.180 C 
BRANCH  10  11
ATOM     11  C   VAL d  11    2235.167 686.229-2323.371  0.00  0.00     0.241 C 
ATOM     12  O   VAL d  11    2235.768 686.633-2324.374  0.00  0.00    -0.271 OA
ATOM     13  N   GLN d  12    2234.931 687.055-2322.408  0.00  0.00    -0.346 N 
ATOM     14  H   GLN d  12    2234.442 686.750-2321.579  0.00  0.00     0.163 HD
BRANCH  13  15
ATOM     15  CA  GLN d  12    2235.380 688.438-2322.536  0.00  0.00     0.177 C 
BRANCH  15  16
ATOM     16  C   GLN d  12    2236.870 688.504-2322.775  0.00  0.00     0.241 C 
ATOM     17  O   GLN d  12    2237.357 689.212-2323.654  0.00  0.00    -0.271 OA
ATOM     18  N   ARG d  13    2237.654 687.797-2322.033  0.00  0.00    -0.346 N 
ATOM     19  H   ARG d  13    2237.278 687.208-2321.304  0.00  0.00     0.163 HD
BRANCH  18  20
ATOM     20  CA  ARG d  13    2239.094 687.862-2322.265  0.00  0.00     0.176 C 
BRANCH  20  21
ATOM     21  C   ARG d  13    2239.430 687.490-2323.689  0.00  0.00     0.241 C 
ATOM     22  O   ARG d  13    2240.199 688.161-2324.374  0.00  0.00    -0.271 OA
ATOM     23  N   PHE d  14    2238.894 686.435-2324.203  0.00  0.00    -0.346 N 
ATOM     24  H   PHE d  14    2238.259 685.867-2323.661  0.00  0.00     0.163 HD
BRANCH  23  25
ATOM     25  CA  PHE d  14    2239.218 686.075-2325.580  0.00  0.00     0.180 C 
BRANCH  25  26
ATOM     26  C   PHE d  14    2238.888 687.204-2326.528  0.00  0.00     0.241 C 
ATOM     27  O   PHE d  14    2239.700 687.590-2327.415  0.00  0.00    -0.271 OA
ATOM     28  N   MET d  15    2237.744 687.791-2326.428  0.00  0.00    -0.346 N 
ATOM     29  H   MET d  15    2237.078 687.500-2325.727  0.00  0.00     0.163 HD
BRANCH  28  30
ATOM     30  CA  MET d  15    2237.425 688.882-2327.344  0.00  0.00     0.177 C 
BRANCH  30  31
ATOM     31  C   MET d  15    2238.456 689.981-2327.258  0.00  0.00     0.241 C 
ATOM     32  O   MET d  15    2238.960 690.490-2328.271  0.00  0.00    -0.271 OA
ATOM     33  N   ARG d  16    2238.824 690.404-2326.096  0.00  0.00    -0.347 N 
ATOM     34  H   ARG d  16    2238.429 690.006-2325.256  0.00  0.00     0.163 HD
BRANCH  33  35
ATOM     35  CA  ARG d  16    2239.822 691.467-2326.013  0.00  0.00     0.162 C 
BRANCH  35  36
ATOM     36  C   ARG d  16    2241.093 691.072-2326.728  0.00  0.00     0.219 C 
ATOM     37  O   ARG d  16    2241.206 689.995-2327.307  0.00  0.00    -0.287 OA
ENDBRANCH  35  36
BRANCH  35  38
ATOM     38  CB  ARG d  16    2240.090 691.788-2324.515  0.00  0.00     0.035 C 
BRANCH  38  39
ATOM     39  CG  ARG d  16    2240.917 693.077-2324.244  0.00  0.00     0.023 C 
BRANCH  39  40
ATOM     40  CD  ARG d  16    2241.165 693.299-2322.744  0.00  0.00     0.138 C 
BRANCH  40  41
ATOM     41  NE  ARG d  16    2241.943 694.557-2322.544  0.00  0.00    -0.227 N 
ATOM     42  CZ  ARG d  16    2242.333 695.042-2321.369  0.00  0.00     0.665 C 
ATOM     43  NH1 ARG d  16    2242.085 694.460-2320.230  0.00  0.00    -0.235 N 
ATOM     44  NH2 ARG d  16    2242.998 696.154-2321.353  0.00  0.00    -0.235 N 
ATOM     45 11HH ARG d  16    2241.558 693.587-2320.313  0.00  0.00     0.174 HD
ATOM     46 12HH ARG d  16    2242.419 694.896-2319.370  0.00  0.00     0.174 HD
ATOM     47 21HH ARG d  16    2243.185 696.595-2322.255  0.00  0.00     0.174 HD
ATOM     48 22HH ARG d  16    2243.289 696.510-2320.440  0.00  0.00     0.174 HD
ATOM     49  HE  ARG d  16    2242.222 695.137-2323.342  0.00  0.00     0.177 HD
ENDBRANCH  40  41
ENDBRANCH  39  40
ENDBRANCH  38  39
ENDBRANCH  35  38
ENDBRANCH  33  35
ENDBRANCH  30  31
BRANCH  30  50
ATOM     50  CB  MET d  15    2236.004 689.430-2327.037  0.00  0.00     0.045 C 
BRANCH  50  51
ATOM     51  CG  MET d  15    2234.842 688.432-2327.228  0.00  0.00     0.076 C 
BRANCH  51  52
ATOM     52  SD  MET d  15    2233.268 689.300-2327.116  0.00  0.00    -0.173 SA
ATOM     53  CE  MET d  15    2232.186 687.871-2326.978  0.00  0.00     0.089 C 
ENDBRANCH  51  52
ENDBRANCH  50  51
ENDBRANCH  30  50
ENDBRANCH  28  30
ENDBRANCH  25  26
BRANCH  25  54
ATOM     54  CB  PHE d  14    2238.413 684.810-2326.006  0.00  0.00     0.073 C 
BRANCH  54  55
ATOM     55  CG  PHE d  14    2238.618 683.549-2325.152  0.00  0.00    -0.056 A 
ATOM     56  CD1 PHE d  14    2237.815 683.340-2324.024  0.00  0.00     0.007 A 
ATOM     57  CE1 PHE d  14    2238.041 682.246-2323.196  0.00  0.00     0.001 A 
ATOM     58  CZ  PHE d  14    2239.059 681.344-2323.498  0.00  0.00     0.000 A 
ATOM     59  CE2 PHE d  14    2239.854 681.539-2324.626  0.00  0.00     0.001 A 
ATOM     60  CD2 PHE d  14    2239.636 682.640-2325.450  0.00  0.00     0.007 A 
ENDBRANCH  54  55
ENDBRANCH  25  54
ENDBRANCH  23  25
ENDBRANCH  20  21
BRANCH  20  61
ATOM     61  CB  ARG d  13    2239.808 686.924-2321.250  0.00  0.00     0.036 C 
BRANCH  61  62
ATOM     62  CG  ARG d  13    2241.353 687.077-2321.170  0.00  0.00     0.023 C 
BRANCH  62  63
ATOM     63  CD  ARG d  13    2241.980 686.090-2320.172  0.00  0.00     0.138 C 
BRANCH  63  64
ATOM     64  NE  ARG d  13    2243.457 686.297-2320.122  0.00  0.00    -0.227 N 
ATOM     65  CZ  ARG d  13    2244.305 685.605-2319.366  0.00  0.00     0.665 C 
ATOM     66  NH1 ARG d  13    2243.940 684.642-2318.568  0.00  0.00    -0.235 N 
ATOM     67  NH2 ARG d  13    2245.565 685.904-2319.424  0.00  0.00    -0.235 N 
ATOM     68 11HH ARG d  13    2242.935 684.456-2318.571  0.00  0.00     0.174 HD
ATOM     69 12HH ARG d  13    2244.653 684.159-2318.019  0.00  0.00     0.174 HD
ATOM     70 21HH ARG d  13    2245.833 686.661-2320.055  0.00  0.00     0.174 HD
ATOM     71 22HH ARG d  13    2246.200 685.363-2318.835  0.00  0.00     0.174 HD
ATOM     72  HE  ARG d  13    2243.908 687.018-2320.693  0.00  0.00     0.177 HD
ENDBRANCH  63  64
ENDBRANCH  62  63
ENDBRANCH  61  62
ENDBRANCH  20  61
ENDBRANCH  18  20
ENDBRANCH  15  16
BRANCH  15  73
ATOM     73  CB  GLN d  12    2234.990 689.206-2321.254  0.00  0.00     0.044 C 
BRANCH  73  74
ATOM     74  CG  GLN d  12    2235.351 690.728-2321.224  0.00  0.00     0.105 C 
BRANCH  74  75
ATOM     75  CD  GLN d  12    2235.049 691.542-2319.959  0.00  0.00     0.215 C 
ATOM     76  NE2 GLN d  12    2234.482 690.966-2318.930  0.00  0.00    -0.370 N 
ATOM     77 21HE GLN d  12    2234.376 691.561-2318.107  0.00  0.00     0.159 HD
ATOM     78 22HE GLN d  12    2234.318 689.963-2319.033  0.00  0.00     0.159 HD
ATOM     79  OE1 GLN d  12    2235.352 692.723-2319.883  0.00  0.00    -0.274 OA
ENDBRANCH  74  75
ENDBRANCH  73  74
ENDBRANCH  15  73
ENDBRANCH  13  15
ENDBRANCH  10  11
BRANCH  10  80
ATOM     80  CB  VAL d  11    2233.140 684.692-2323.456  0.00  0.00     0.009 C 
ATOM     81  CG1 VAL d  11    2232.572 685.396-2324.719  0.00  0.00     0.012 C 
ATOM     82  CG2 VAL d  11    2232.615 683.239-2323.528  0.00  0.00     0.012 C 
ENDBRANCH  10  80
ENDBRANCH   8  10
ENDBRANCH   5   6
BRANCH   5  83
ATOM     83  CB  HIS d  10    2236.497 682.160-2320.210  0.00  0.00     0.095 C 
BRANCH  83  84
ATOM     84  CG  HIS d  10    2237.782 681.450-2319.902  0.00  0.00     0.053 A 
ATOM     85  CD2 HIS d  10    2238.164 681.115-2318.610  0.00  0.00     0.116 A 
ATOM     86  NE2 HIS d  10    2239.378 680.483-2318.677  0.00  0.00    -0.359 N 
ATOM     87  CE1 HIS d  10    2239.640 680.485-2320.012  0.00  0.00     0.207 A 
ATOM     88  2HE HIS d  10    2239.945 680.106-2317.903  0.00  0.00     0.166 HD
ATOM     89  ND1 HIS d  10    2238.734 681.043-2320.835  0.00  0.00    -0.247 NA
ENDBRANCH  83  84
ENDBRANCH   5  83
ENDBRANCH   3   5
BRANCH   1  90
ATOM     90  CA  GLU d   9    2234.761 686.006-2317.931  0.00  0.00     0.177 C 
BRANCH  90  91
ATOM     91  N   GLU d   9    2233.458 685.349-2317.986  0.00  0.00    -0.346 N 
ATOM     92  C   ASP d   8    2232.778 685.398-2319.081  0.00  0.00     0.241 C 
ATOM     93  O   ASP d   8    2233.251 686.002-2320.056  0.00  0.00    -0.271 OA
ATOM     94  H   GLU d   9    2233.094 684.863-2317.178  0.00  0.00     0.163 HD
BRANCH  92  95
ATOM     95  CA  ASP d   8    2231.431 684.719-2319.137  0.00  0.00     0.186 C 
BRANCH  95  96
ATOM     96  N   ASP d   8    2231.500 683.370-2318.583  0.00  0.00    -0.346 N 
ATOM     97  C   LEU d   7    2232.337 682.529-2319.089  0.00  0.00     0.241 C 
ATOM     98  O   LEU d   7    2233.058 682.890-2320.032  0.00  0.00    -0.271 OA
ATOM     99  H   ASP d   8    2230.903 683.099-2317.816  0.00  0.00     0.163 HD
BRANCH  97 100
ATOM    100  CA  LEU d   7    2232.409 681.133-2318.516  0.00  0.00     0.177 C 
BRANCH 100 101
ATOM    101  N   LEU d   7    2232.464 681.169-2317.058  0.00  0.00    -0.346 N 
ATOM    102  C   ILE d   6    2233.410 681.833-2316.484  0.00  0.00     0.241 C 
ATOM    103  O   ILE d   6    2234.245 682.420-2317.188  0.00  0.00    -0.271 OA
ATOM    104  H   LEU d   7    2231.772 680.683-2316.507  0.00  0.00     0.163 HD
BRANCH 102 105
ATOM    105  CA  ILE d   6    2233.468 681.870-2314.977  0.00  0.00     0.180 C 
BRANCH 105 106
ATOM    106  N   ILE d   6    2232.154 682.166-2314.411  0.00  0.00    -0.346 N 
ATOM    107  C   SER d   5    2231.550 683.249-2314.765  0.00  0.00     0.243 C 
ATOM    108  O   SER d   5    2232.098 684.002-2315.570  0.00  0.00    -0.271 OA
ATOM    109  H   ILE d   6    2231.725 681.531-2313.752  0.00  0.00     0.163 HD
BRANCH 107 110
ATOM    110  CA  SER d   5    2230.191 683.555-2314.180  0.00  0.00     0.200 C 
BRANCH 110 111
ATOM    111  N   SER d   5    2229.321 682.384-2314.239  0.00  0.00    -0.344 N 
ATOM    112  C   GLU d   4    2229.094 681.831-2315.382  0.00  0.00     0.241 C 
ATOM    113  O   GLU d   4    2229.621 682.311-2316.396  0.00  0.00    -0.271 OA
ATOM    114  H   SER d   5    2228.904 682.012-2313.397  0.00  0.00     0.163 HD
BRANCH 112 115
ATOM    115  CA  GLU d   4    2228.195 680.621-2315.443  0.00  0.00     0.177 C 
BRANCH 115 116
ATOM    116  N   GLU d   4    2228.554 679.650-2314.414  0.00  0.00    -0.346 N 
ATOM    117  C   PRO d   3    2229.759 679.189-2314.381  0.00  0.00     0.241 C 
ATOM    118  O   PRO d   3    2230.583 679.572-2315.212  0.00  0.00    -0.271 OA
ATOM    119  H   GLU d   4    2227.870 679.343-2313.737  0.00  0.00     0.163 HD
BRANCH 117 120
ATOM    120  CA  PRO d   3    2230.157 678.166-2313.304  0.00  0.00     0.179 C 
ATOM    121  N   PRO d   3    2229.705 678.575-2311.982  0.00  0.00    -0.337 N 
ATOM    122  C   ASN d   2    2230.226 679.570-2311.348  0.00  0.00     0.243 C 
ATOM    123  CD  PRO d   3    2228.626 677.782-2311.434  0.00  0.00     0.127 C 
ATOM    124  O   ASN d   2    2231.141 680.200-2311.876  0.00  0.00    -0.271 OA
ATOM    125  CG  PRO d   3    2228.169 676.964-2312.644  0.00  0.00     0.022 C 
ATOM    126  CB  PRO d   3    2229.452 676.811-2313.473  0.00  0.00     0.037 C 
BRANCH 122 127
ATOM    127  CA  ASN d   2    2229.695 679.926-2309.979  0.00  0.00     0.185 C 
BRANCH 127 128
ATOM    128  N   ASN d   2    2228.235 679.964-2309.980  0.00  0.00    -0.346 N 
ATOM    129  C   GLU d   1    2227.631 680.750-2310.805  0.00  0.00     0.242 C 
ATOM    130  O   GLU d   1    2228.307 681.449-2311.573  0.00  0.00    -0.271 OA
ATOM    131  H   ASN d   2    2227.707 679.385-2309.343  0.00  0.00     0.163 HD
BRANCH 129 132
ATOM    132  CA  GLU d   1    2226.122 680.790-2310.805  0.00  0.00     0.191 C 
BRANCH 132 133
ATOM    133  N   GLU d   1    2225.563 679.441-2310.805  0.00  0.00    -0.326 NA
ATOM    134  H   GLU d   1    2226.190 678.562-2310.805  0.00  0.00     0.180 HD
ENDBRANCH 132 133
BRANCH 132 135
ATOM    135  CB  GLU d   1    2225.599 681.575-2309.568  0.00  0.00     0.047 C 
BRANCH 135 136
ATOM    136  CG  GLU d   1    2226.074 683.060-2309.457  0.00  0.00     0.116 C 
BRANCH 136 137
ATOM    137  CD  GLU d   1    2225.650 683.864-2308.242  0.00  0.00     0.172 C 
ATOM    138  OE1 GLU d   1    2224.922 683.362-2307.364  0.00  0.00    -0.648 OA
ATOM    139  OE2 GLU d   1    2226.080 685.034-2308.170  0.00  0.00    -0.648 OA
ENDBRANCH 136 137
ENDBRANCH 135 136
ENDBRANCH 132 135
ENDBRANCH 129 132
ENDBRANCH 127 128
BRANCH 127 140
ATOM    140  CB  ASN d   2    2230.186 678.902-2308.915  0.00  0.00     0.137 C 
BRANCH 140 141
ATOM    141  CG  ASN d   2    2229.723 679.126-2307.472  0.00  0.00     0.217 C 
ATOM    142  ND2 ASN d   2    2230.317 680.041-2306.753  0.00  0.00    -0.370 N 
ATOM    143 21HD ASN d   2    2229.836 680.214-2305.867  0.00  0.00     0.159 HD
ATOM    144 22HD ASN d   2    2231.019 680.613-2307.222  0.00  0.00     0.159 HD
ATOM    145  OD1 ASN d   2    2228.802 678.493-2306.978  0.00  0.00    -0.274 OA
ENDBRANCH 140 141
ENDBRANCH 127 140
ENDBRANCH 122 127
ENDBRANCH 117 120
ENDBRANCH 115 116
BRANCH 115 146
ATOM    146  CB  GLU d   4    2226.707 681.040-2315.274  0.00  0.00     0.045 C 
BRANCH 146 147
ATOM    147  CG  GLU d   4    2226.159 682.043-2316.339  0.00  0.00     0.116 C 
BRANCH 147 148
ATOM    148  CD  GLU d   4    2224.733 682.540-2316.196  0.00  0.00     0.172 C 
ATOM    149  OE1 GLU d   4    2224.006 682.142-2315.266  0.00  0.00    -0.648 OA
ATOM    150  OE2 GLU d   4    2224.344 683.370-2317.045  0.00  0.00    -0.648 OA
ENDBRANCH 147 148
ENDBRANCH 146 147
ENDBRANCH 115 146
ENDBRANCH 112 115
ENDBRANCH 110 111
BRANCH 110 151
ATOM    151  CB  SER d   5    2230.302 684.087-2312.729  0.00  0.00     0.199 C 
BRANCH 151 152
ATOM    152  OG  SER d   5    2231.033 683.208-2311.868  0.00  0.00    -0.398 OA
ATOM    153  HG  SER d   5    2230.544 682.383-2311.817  0.00  0.00     0.209 HD
ENDBRANCH 151 152
ENDBRANCH 110 151
ENDBRANCH 107 110
ENDBRANCH 105 106
BRANCH 105 154
ATOM    154  CB  ILE d   6    2234.067 680.534-2314.376  0.00  0.00     0.013 C 
ATOM    155  CG2 ILE d   6    2235.508 680.232-2314.891  0.00  0.00     0.012 C 
BRANCH 154 156
ATOM    156  CG1 ILE d   6    2234.085 680.471-2312.815  0.00  0.00     0.002 C 
ATOM    157  CD1 ILE d   6    2234.355 679.082-2312.200  0.00  0.00     0.005 C 
ENDBRANCH 154 156
ENDBRANCH 105 154
ENDBRANCH 102 105
ENDBRANCH 100 101
BRANCH 100 158
ATOM    158  CB  LEU d   7    2231.206 680.273-2318.997  0.00  0.00     0.038 C 
BRANCH 158 159
ATOM    159  CG  LEU d   7    2231.133 678.794-2318.530  0.00  0.00    -0.020 C 
ATOM    160  CD1 LEU d   7    2229.943 678.089-2319.196  0.00  0.00     0.009 C 
ATOM    161  CD2 LEU d   7    2232.426 678.014-2318.822  0.00  0.00     0.009 C 
ENDBRANCH 158 159
ENDBRANCH 100 158
ENDBRANCH  97 100
ENDBRANCH  95  96
BRANCH  95 162
ATOM    162  CB  ASP d   8    2230.353 685.559-2318.396  0.00  0.00     0.147 C 
BRANCH 162 163
ATOM    163  CG  ASP d   8    2230.135 686.980-2318.938  0.00  0.00     0.175 C 
ATOM    164  OD1 ASP d   8    2230.199 687.178-2320.169  0.00  0.00    -0.648 OA
ATOM    165  OD2 ASP d   8    2229.944 687.906-2318.123  0.00  0.00    -0.648 OA
ENDBRANCH 162 163
ENDBRANCH  95 162
ENDBRANCH  92  95
ENDBRANCH  90  91
BRANCH  90 166
ATOM    166  CB  GLU d   9    2235.395 685.798-2316.526  0.00  0.00     0.045 C 
BRANCH 166 167
ATOM    167  CG  GLU d   9    2236.778 686.490-2316.297  0.00  0.00     0.116 C 
BRANCH 167 168
ATOM    168  CD  GLU d   9    2237.479 686.277-2314.969  0.00  0.00     0.172 C 
ATOM    169  OE1 GLU d   9    2236.958 685.587-2314.072  0.00  0.00    -0.648 OA
ATOM    170  OE2 GLU d   9    2238.599 686.814-2314.837  0.00  0.00    -0.648 OA
ENDBRANCH 167 168
ENDBRANCH 166 167
ENDBRANCH  90 166
ENDBRANCH   1  90
TORSDOF 69
