@<TRIPOS>MOLECULE
4-3
257 258 16              
SMALL
USER_CHARGES
@<TRIPOS>ATOM
1	   N	549.226	130.445	-490.921	N.3	1	GLU1	-0.516	
2	  CA	549.785	131.794	-490.921	C.3	1	GLU1	0.040	
3	   C	551.294	131.754	-490.921	C.2	1	GLU1	0.537	
4	   O	551.970	132.453	-491.689	O.2	1	GLU1	-0.582	
5	  CB	549.262	132.579	-489.684	C.3	1	GLU1	0.056	
6	  CG	549.737	134.064	-489.573	C.3	1	GLU1	0.014	
7	  CD	549.313	134.868	-488.358	C.2	1	GLU1	0.805	
8	 OE1	548.585	134.366	-487.480	O.co2	1	GLU1	-0.819	
9	 OE2	549.743	136.038	-488.286	O.co2	1	GLU1	-0.819	
10	   H	549.853	129.566	-490.921	 H	1	GLU1	0.294	
11	  HA	549.459	132.312	-491.841	 H	1	GLU1	0.111	
12	 2HB	549.551	132.048	-488.754	 H	1	GLU1	-0.017	
13	 3HB	548.155	132.569	-489.671	 H	1	GLU1	-0.017	
14	 2HG	549.427	134.649	-490.454	 H	1	GLU1	-0.043	
15	 3HG	550.837	134.131	-489.544	 H	1	GLU1	-0.043	
16	   N	551.899	130.968	-490.096	N.am	2	ASN2	-0.416	
17	  CA	553.358	130.930	-490.096	C.3	2	ASN2	0.014	
18	   C	553.889	130.574	-491.464	C.2	2	ASN2	0.597	
19	   O	554.804	131.205	-491.993	O.2	2	ASN2	-0.568	
20	  CB	553.850	129.907	-489.031	C.3	2	ASN2	-0.204	
21	  CG	553.387	130.130	-487.588	C.2	2	ASN2	0.713	
22	 ND2	553.981	131.045	-486.870	N.pl3	2	ASN2	-0.919	
23	 OD1	552.467	129.497	-487.094	O.2	2	ASN2	-0.593	
24	   H	551.371	130.388	-489.459	 H	2	ASN2	0.272	
25	  HA	553.735	131.939	-489.850	 H	2	ASN2	0.105	
26	 2HB	554.955	129.848	-489.035	 H	2	ASN2	0.080	
27	 3HB	553.521	128.888	-489.317	 H	2	ASN2	0.080	
28	1HD2	553.501	131.218	-485.983	 H	2	ASN2	0.420	
29	2HD2	554.683	131.617	-487.339	 H	2	ASN2	0.420	
30	   N	553.368	129.579	-492.098	N.am	3	PRO3	-0.255	
31	  CA	553.820	129.170	-493.420	C.3	3	PRO3	-0.027	
32	   C	553.422	130.193	-494.497	C.2	3	PRO3	0.590	
33	   O	554.245	130.577	-495.328	O.2	3	PRO3	-0.575	
34	  CB	553.116	127.815	-493.589	C.3	3	PRO3	-0.007	
35	  CG	551.833	127.967	-492.759	C.3	3	PRO3	0.019	
36	  CD	552.290	128.786	-491.549	C.3	3	PRO3	0.019	
37	  HA	554.906	129.050	-493.434	 H	3	PRO3	0.064	
38	 2HB	553.739	127.034	-493.149	 H	3	PRO3	0.025	
39	 3HB	552.918	127.566	-494.635	 H	3	PRO3	0.025	
40	 2HG	551.405	127.005	-492.468	 H	3	PRO3	0.021	
41	 3HG	551.095	128.538	-493.327	 H	3	PRO3	0.021	
42	 2HD	552.679	128.136	-490.762	 H	3	PRO3	0.039	
43	 3HD	551.493	129.421	-491.156	 H	3	PRO3	0.039	
44	   N	552.217	130.653	-494.529	N.am	4	GLY4	-0.416	
45	  CA	551.857	131.624	-495.559	C.3	4	GLY4	-0.025	
46	   C	552.756	132.835	-495.497	C.2	4	GLY4	0.597	
47	   O	553.280	133.313	-496.507	O.2	4	GLY4	-0.568	
48	   H	551.533	130.346	-493.852	 H	4	GLY4	0.272	
49	 3HA	550.863	131.921	-495.399	 H	4	GLY4	0.070	
50	  HA	551.984	131.156	-496.553	 H	4	GLY4	0.070	
51	   N	552.984	133.388	-494.354	N.am	5	SER5	-0.416	
52	  CA	553.853	134.559	-494.295	C.3	5	SER5	-0.025	
53	   C	555.212	134.254	-494.881	C.2	5	SER5	0.597	
54	   O	555.759	135.008	-495.686	O.2	5	SER5	-0.568	
55	  CB	553.964	135.091	-492.845	C.3	5	SER5	0.212	
56	  OG	554.696	134.212	-491.984	O.3	5	SER5	-0.655	
57	   H	552.566	133.016	-493.513	 H	5	SER5	0.272	
58	  HA	553.403	135.349	-494.924	 H	5	SER5	0.084	
59	 2HB	552.965	135.285	-492.411	 H	5	SER5	0.035	
60	 3HB	554.470	136.077	-492.847	 H	5	SER5	0.035	
61	  HG	554.208	133.387	-491.933	 H	5	SER5	0.428	
62	   N	555.817	133.171	-494.527	N.am	6	ILE6	-0.416	
63	  CA	557.130	132.876	-495.094	C.3	6	ILE6	-0.060	
64	   C	557.073	132.839	-496.601	C.2	6	ILE6	0.597	
65	   O	557.907	133.427	-497.305	O.2	6	ILE6	-0.568	
66	  CB	557.730	131.540	-494.494	C.3	6	ILE6	0.130	
67	 CG1	557.750	131.478	-492.933	C.3	6	ILE6	-0.043	
68	 CG2	559.172	131.239	-495.009	C.3	6	ILE6	-0.320	
69	 CD1	558.020	130.089	-492.318	C.3	6	ILE6	-0.066	
70	   H	555.389	132.536	-493.868	 H	6	ILE6	0.272	
71	  HA	557.804	133.711	-494.826	 H	6	ILE6	0.087	
72	  HB	557.073	130.714	-494.838	 H	6	ILE6	0.019	
73	2HG1	556.768	131.797	-492.537	 H	6	ILE6	0.024	
74	3HG1	558.465	132.220	-492.528	 H	6	ILE6	0.024	
75	1HG2	559.230	131.146	-496.108	 H	6	ILE6	0.088	
76	2HG2	559.893	132.022	-494.707	 H	6	ILE6	0.088	
77	3HG2	559.562	130.277	-494.631	 H	6	ILE6	0.088	
78	1HD1	557.292	129.334	-492.673	 H	6	ILE6	0.019	
79	2HD1	559.031	129.710	-492.554	 H	6	ILE6	0.019	
80	3HD1	557.944	130.118	-491.215	 H	6	ILE6	0.019	
81	   N	556.127	132.175	-497.175	N.am	7	LEU7	-0.416	
82	  CA	556.072	132.140	-498.634	C.3	7	LEU7	-0.052	
83	   C	555.999	133.535	-499.206	C.2	7	LEU7	0.597	
84	   O	556.720	133.898	-500.148	O.2	7	LEU7	-0.568	
85	  CB	554.869	131.279	-499.114	C.3	7	LEU7	-0.110	
86	  CG	554.797	129.800	-498.648	C.3	7	LEU7	0.353	
87	 CD1	553.607	129.094	-499.314	C.3	7	LEU7	-0.412	
88	 CD2	556.091	129.021	-498.940	C.3	7	LEU7	-0.412	
89	   H	555.435	131.688	-496.624	 H	7	LEU7	0.272	
90	  HA	557.014	131.700	-499.008	 H	7	LEU7	0.092	
91	 2HB	554.846	131.295	-500.222	 H	7	LEU7	0.046	
92	 3HB	553.929	131.782	-498.810	 H	7	LEU7	0.046	
93	  HG	554.627	129.791	-497.551	 H	7	LEU7	-0.036	
94	1HD1	552.650	129.603	-499.091	 H	7	LEU7	0.100	
95	2HD1	553.706	129.054	-500.415	 H	7	LEU7	0.100	
96	3HD1	553.500	128.052	-498.958	 H	7	LEU7	0.100	
97	1HD2	556.366	129.052	-500.010	 H	7	LEU7	0.100	
98	2HD2	556.944	129.432	-498.368	 H	7	LEU7	0.100	
99	3HD2	556.009	127.958	-498.644	 H	7	LEU7	0.100	
100	   N	555.162	134.375	-498.699	N.am	8	ASP8	-0.516	
101	  CA	555.091	135.725	-499.252	C.3	8	ASP8	0.038	
102	   C	556.437	136.405	-499.195	C.2	8	ASP8	0.537	
103	   O	556.910	137.011	-500.169	O.2	8	ASP8	-0.582	
104	  CB	554.013	136.563	-498.510	C.3	8	ASP8	-0.030	
105	  CG	553.793	137.984	-499.050	C.2	8	ASP8	0.799	
106	 OD1	553.857	138.184	-500.281	O.co2	8	ASP8	-0.801	
107	 OD2	553.601	138.910	-498.235	O.co2	8	ASP8	-0.801	
108	   H	554.564	134.104	-497.932	 H	8	ASP8	0.294	
109	  HA	554.808	135.647	-500.319	 H	8	ASP8	0.088	
110	 2HB	554.270	136.646	-497.438	 H	8	ASP8	-0.012	
111	 3HB	553.034	136.058	-498.543	 H	8	ASP8	-0.012	
112	   N	557.117	136.355	-498.099	N.am	9	GLU9	-0.516	
113	  CA	558.420	137.013	-498.044	C.3	9	GLU9	0.040	
114	   C	559.338	136.486	-499.120	C.2	9	GLU9	0.537	
115	   O	560.002	137.241	-499.845	O.2	9	GLU9	-0.582	
116	  CB	559.053	136.805	-496.639	C.3	9	GLU9	0.056	
117	  CG	560.436	137.498	-496.409	C.3	9	GLU9	0.014	
118	  CD	561.138	137.285	-495.081	C.2	9	GLU9	0.805	
119	 OE1	560.616	136.593	-494.185	O.co2	9	GLU9	-0.819	
120	 OE2	562.257	137.823	-494.949	O.co2	9	GLU9	-0.819	
121	   H	556.754	135.868	-497.293	 H	9	GLU9	0.294	
122	  HA	558.277	138.095	-498.219	 H	9	GLU9	0.111	
123	 2HB	559.167	135.721	-496.436	 H	9	GLU9	-0.017	
124	 3HB	558.356	137.158	-495.854	 H	9	GLU9	-0.017	
125	 2HG	560.363	138.589	-496.548	 H	9	GLU9	-0.043	
126	 3HG	561.182	137.153	-497.143	 H	9	GLU9	-0.043	
127	   N	559.435	135.211	-499.290	N.am	10	HIS10	-0.416	
128	  CA	560.323	134.700	-500.330	C.3	10	HIS10	-0.058	
129	   C	559.956	135.265	-501.681	C.2	10	HIS10	0.597	
130	   O	560.808	135.731	-502.453	O.2	10	HIS10	-0.568	
131	  CB	560.159	133.171	-500.326	C.3	10	HIS10	-0.007	
132	  CG	561.445	132.462	-500.018	C.2	10	HIS10	0.187	
133	 CD2	561.826	132.126	-498.726	C.2	10	HIS10	-0.221	
134	 ND1	562.397	132.056	-500.951	N.2	10	HIS10	-0.543	
135	 CE1	563.304	131.498	-500.128	C.2	10	HIS10	0.163	
136	 NE2	563.041	131.495	-498.793	N.pl3	10	HIS10	-0.280	
137	   H	558.904	134.575	-498.712	 H	10	HIS10	0.272	
138	  HA	561.342	135.058	-500.105	 H	10	HIS10	0.136	
139	 2HB	559.794	132.805	-501.306	 H	10	HIS10	0.037	
140	 3HB	559.404	132.834	-499.586	 H	10	HIS10	0.037	
141	 2HD	561.241	132.340	-497.836	 H	10	HIS10	0.186	
142	 1HE	564.195	131.078	-500.575	 H	10	HIS10	0.144	
143	 2HE	563.608	131.117	-498.019	 H	10	HIS10	0.334	
144	   N	558.718	135.264	-502.044	N.am	11	VAL11	-0.416	
145	  CA	558.363	135.810	-503.351	C.3	11	VAL11	-0.087	
146	   C	558.827	137.241	-503.483	C.2	11	VAL11	0.597	
147	   O	559.428	137.647	-504.486	O.2	11	VAL11	-0.568	
148	  CB	556.801	135.703	-503.570	C.3	11	VAL11	0.299	
149	 CG1	556.233	136.408	-504.833	C.3	11	VAL11	-0.319	
150	 CG2	556.277	134.249	-503.644	C.3	11	VAL11	-0.319	
151	   H	558.005	134.891	-501.434	 H	11	VAL11	0.272	
152	  HA	558.882	135.228	-504.133	 H	11	VAL11	0.097	
153	  HB	556.314	136.183	-502.695	 H	11	VAL11	-0.030	
154	1HG1	556.671	136.016	-505.770	 H	11	VAL11	0.079	
155	2HG1	555.134	136.300	-504.915	 H	11	VAL11	0.079	
156	3HG1	556.410	137.500	-504.823	 H	11	VAL11	0.079	
157	1HG2	556.567	133.662	-502.754	 H	11	VAL11	0.079	
158	2HG2	555.172	134.212	-503.687	 H	11	VAL11	0.079	
159	3HG2	556.659	133.709	-504.531	 H	11	VAL11	0.079	
160	   N	558.589	138.067	-502.520	N.am	12	GLN12	-0.416	
161	  CA	559.037	139.450	-502.647	C.3	12	GLN12	-0.003	
162	   C	560.527	139.518	-502.885	C.2	12	GLN12	0.597	
163	   O	561.014	140.226	-503.763	O.2	12	GLN12	-0.568	
164	  CB	558.646	140.217	-501.364	C.3	12	GLN12	-0.004	
165	  CG	559.006	141.738	-501.332	C.3	12	GLN12	-0.064	
166	  CD	558.703	142.551	-500.067	C.2	12	GLN12	0.695	
167	 NE2	558.136	141.974	-499.038	N.pl3	12	GLN12	-0.941	
168	 OE1	559.004	143.732	-499.989	O.2	12	GLN12	-0.609	
169	   H	558.100	137.760	-501.691	 H	12	GLN12	0.272	
170	  HA	558.538	139.906	-503.522	 H	12	GLN12	0.085	
171	 2HB	559.122	139.716	-500.495	 H	12	GLN12	0.017	
172	 3HB	557.556	140.109	-501.201	 H	12	GLN12	0.017	
173	 2HG	558.528	142.259	-502.183	 H	12	GLN12	0.035	
174	 3HG	560.089	141.881	-501.498	 H	12	GLN12	0.035	
175	1HE2	558.029	142.569	-498.215	 H	12	GLN12	0.425	
176	2HE2	557.973	140.971	-499.142	 H	12	GLN12	0.425	
177	   N	561.312	138.811	-502.144	N.am	13	ARG13	-0.348	
178	  CA	562.752	138.877	-502.374	C.3	13	ARG13	-0.264	
179	   C	563.089	138.506	-503.800	C.2	13	ARG13	0.734	
180	   O	563.857	139.178	-504.483	O.2	13	ARG13	-0.589	
181	  CB	563.466	137.938	-501.361	C.3	13	ARG13	-0.001	
182	  CG	565.011	138.092	-501.280	C.3	13	ARG13	0.039	
183	  CD	565.638	137.104	-500.282	C.3	13	ARG13	0.049	
184	  NE	567.115	137.311	-500.231	N.pl3	13	ARG13	-0.530	
185	  CZ	567.963	136.620	-499.476	C.cat	13	ARG13	0.808	
186	 NH1	567.598	135.655	-498.679	N.pl3	13	ARG13	-0.863	
187	 NH2	569.222	136.919	-499.533	N.pl3	13	ARG13	-0.863	
188	   H	560.936	138.221	-501.416	 H	13	ARG13	0.275	
189	  HA	563.076	139.923	-502.216	 H	13	ARG13	0.156	
190	 2HB	563.200	136.887	-501.600	 H	13	ARG13	0.033	
191	 3HB	563.040	138.104	-500.350	 H	13	ARG13	0.033	
192	 2HG	565.258	139.136	-501.000	 H	13	ARG13	0.029	
193	 3HG	565.461	137.936	-502.281	 H	13	ARG13	0.029	
194	 2HD	565.394	136.064	-500.592	 H	13	ARG13	0.069	
195	 3HD	565.181	137.249	-499.280	 H	13	ARG13	0.069	
196	  HE	567.566	138.034	-500.802	 H	13	ARG13	0.346	
197	1HH1	566.593	135.468	-498.683	 H	13	ARG13	0.448	
198	2HH1	568.311	135.172	-498.131	 H	13	ARG13	0.448	
199	1HH2	569.490	137.677	-500.164	 H	13	ARG13	0.448	
200	2HH2	569.858	136.378	-498.944	 H	13	ARG13	0.448	
201	   N	562.553	137.452	-504.314	N.am	14	VAL14	-0.416	
202	  CA	562.878	137.093	-505.692	C.3	14	VAL14	-0.087	
203	   C	562.548	138.223	-506.637	C.2	14	VAL14	0.597	
204	   O	563.341	138.606	-507.507	O.2	14	VAL14	-0.568	
205	  CB	562.106	135.776	-506.100	C.3	14	VAL14	0.299	
206	 CG1	562.195	135.358	-507.593	C.3	14	VAL14	-0.319	
207	 CG2	562.538	134.523	-505.300	C.3	14	VAL14	-0.319	
208	   H	561.918	136.883	-503.773	 H	14	VAL14	0.272	
209	  HA	563.966	136.917	-505.767	 H	14	VAL14	0.097	
210	  HB	561.030	135.947	-505.884	 H	14	VAL14	-0.030	
211	1HG1	563.237	135.182	-507.922	 H	14	VAL14	0.079	
212	2HG1	561.623	134.435	-507.806	 H	14	VAL14	0.079	
213	3HG1	561.766	136.121	-508.271	 H	14	VAL14	0.079	
214	1HG2	562.451	134.682	-504.209	 H	14	VAL14	0.079	
215	2HG2	561.903	133.647	-505.532	 H	14	VAL14	0.079	
216	3HG2	563.586	134.234	-505.505	 H	14	VAL14	0.079	
217	   N	561.403	138.809	-506.535	N.am	15	MET15	-0.416	
218	  CA	561.082	139.902	-507.449	C.3	15	MET15	-0.024	
219	   C	562.112	141.002	-507.360	C.2	15	MET15	0.597	
220	   O	562.615	141.513	-508.373	O.2	15	MET15	-0.568	
221	  CB	559.661	140.447	-507.140	C.3	15	MET15	0.034	
222	  CG	558.499	139.449	-507.332	C.3	15	MET15	0.002	
223	  SD	556.925	140.314	-507.217	S.3	15	MET15	-0.274	
224	  CE	555.844	138.884	-507.082	C.3	15	MET15	-0.054	
225	   H	560.738	138.516	-505.834	 H	15	MET15	0.272	
226	  HA	561.108	139.515	-508.484	 H	15	MET15	0.088	
227	 2HB	559.458	141.326	-507.781	 H	15	MET15	0.024	
228	 3HB	559.625	140.839	-506.103	 H	15	MET15	0.024	
229	 2HG	558.542	138.663	-506.555	 H	15	MET15	0.044	
230	 3HG	558.562	138.934	-508.308	 H	15	MET15	0.044	
231	 1HE	555.988	138.196	-507.934	 H	15	MET15	0.068	
232	 2HE	556.053	138.331	-506.149	 H	15	MET15	0.068	
233	 3HE	554.786	139.199	-507.065	 H	15	MET15	0.068	
234	   N	562.480	141.423	-506.198	N.am	16	ARG16	-0.348	
235	  CA	563.477	142.487	-506.114	C.3	16	ARG16	-0.264	
236	   C	564.747	142.095	-506.830	C.2	16	ARG16	0.734	
237	   O	564.862	141.019	-507.412	O.2	16	ARG16	-0.589	
238	  CB	563.746	142.804	-504.615	C.3	16	ARG16	-0.001	
239	  CG	564.570	144.093	-504.342	C.3	16	ARG16	0.039	
240	  CD	564.820	144.312	-502.840	C.3	16	ARG16	0.049	
241	  NE	565.596	145.571	-502.639	N.pl3	16	ARG16	-0.530	
242	  CZ	565.987	146.053	-501.463	C.cat	16	ARG16	0.808	
243	 NH1	565.739	145.468	-500.325	N.pl3	16	ARG16	-0.863	
244	 NH2	566.650	147.166	-501.444	N.pl3	16	ARG16	-0.863	
245	   H	562.086	141.022	-505.359	 H	16	ARG16	0.275	
246	  HA	563.067	143.380	-506.623	 H	16	ARG16	0.156	
247	 2HB	564.243	141.928	-504.149	 H	16	ARG16	0.033	
248	 3HB	562.777	142.885	-504.081	 H	16	ARG16	0.033	
249	 2HG	564.040	144.964	-504.778	 H	16	ARG16	0.029	
250	 3HG	565.544	144.041	-504.871	 H	16	ARG16	0.029	
251	 2HD	565.369	143.437	-502.427	 H	16	ARG16	0.069	
252	 3HD	563.847	144.354	-502.305	 H	16	ARG16	0.069	
253	  HE	565.874	146.153	-503.436	 H	16	ARG16	0.346	
254	1HH1	565.214	144.595	-500.409	 H	16	ARG16	0.448	
255	2HH1	566.073	145.903	-499.463	 H	16	ARG16	0.448	
256	1HH2	566.836	147.609	-502.345	 H	16	ARG16	0.448	
257	2HH2	566.940	147.521	-500.531	 H	16	ARG16	0.448	
@<TRIPOS>BOND
1 1 2 1
2 1 10 1
3 2 3 1
4 2 5 1
5 2 11 1
6 3 4 2
7 3 16 1
8 5 6 1
9 6 7 1
10 7 8 2
11 7 9 1
12 5 12 1
13 5 13 1
14 6 14 1
15 6 15 1
16 16 17 1
17 16 24 1
18 17 18 1
19 17 20 1
20 17 25 1
21 18 19 2
22 18 30 1
23 20 21 1
24 21 22 1
25 21 23 2
26 20 26 1
27 20 27 1
28 22 28 1
29 22 29 1
30 30 31 1
31 30 36 1
32 31 32 1
33 31 34 1
34 31 37 1
35 32 33 2
36 32 44 1
37 34 35 1
38 35 36 1
39 34 38 1
40 34 39 1
41 35 40 1
42 35 41 1
43 36 42 1
44 36 43 1
45 44 45 1
46 44 48 1
47 45 46 1
48 45 49 1
49 45 50 1
50 46 47 2
51 46 51 1
52 51 52 1
53 51 57 1
54 52 53 1
55 52 55 1
56 52 58 1
57 53 54 2
58 53 62 1
59 55 56 1
60 55 59 1
61 55 60 1
62 56 61 1
63 62 63 1
64 62 70 1
65 63 64 1
66 63 66 1
67 63 71 1
68 64 65 2
69 64 81 1
70 66 67 1
71 66 68 1
72 67 69 1
73 66 72 1
74 67 73 1
75 67 74 1
76 68 75 1
77 68 76 1
78 68 77 1
79 69 78 1
80 69 79 1
81 69 80 1
82 81 82 1
83 81 89 1
84 82 83 1
85 82 85 1
86 82 90 1
87 83 84 2
88 83 100 1
89 85 86 1
90 86 87 1
91 86 88 1
92 85 91 1
93 85 92 1
94 86 93 1
95 87 94 1
96 87 95 1
97 87 96 1
98 88 97 1
99 88 98 1
100 88 99 1
101 100 101 1
102 100 108 1
103 101 102 1
104 101 104 1
105 101 109 1
106 102 103 2
107 102 112 1
108 104 105 1
109 105 106 2
110 105 107 1
111 104 110 1
112 104 111 1
113 112 113 1
114 112 121 1
115 113 114 1
116 113 116 1
117 113 122 1
118 114 115 2
119 114 127 1
120 116 117 1
121 117 118 1
122 118 119 2
123 118 120 1
124 116 123 1
125 116 124 1
126 117 125 1
127 117 126 1
128 127 128 1
129 127 137 1
130 128 129 1
131 128 131 1
132 128 138 1
133 129 130 2
134 129 144 1
135 131 132 1
136 132 133 2
137 133 136 1
138 132 134 1
139 134 135 2
140 135 136 1
141 131 139 1
142 131 140 1
143 133 141 1
144 135 142 1
145 136 143 1
146 144 145 1
147 144 151 1
148 145 146 1
149 145 148 1
150 145 152 1
151 146 147 2
152 146 160 1
153 148 149 1
154 148 150 1
155 148 153 1
156 149 154 1
157 149 155 1
158 149 156 1
159 150 157 1
160 150 158 1
161 150 159 1
162 160 161 1
163 160 169 1
164 161 162 1
165 161 164 1
166 161 170 1
167 162 163 2
168 162 177 1
169 164 165 1
170 165 166 1
171 166 167 1
172 166 168 2
173 164 171 1
174 164 172 1
175 165 173 1
176 165 174 1
177 167 175 1
178 167 176 1
179 177 178 1
180 177 188 1
181 178 179 1
182 178 181 1
183 178 189 1
184 179 180 2
185 179 201 1
186 181 182 1
187 182 183 1
188 183 184 1
189 184 185 1
190 185 186 2
191 185 187 1
192 181 190 1
193 181 191 1
194 182 192 1
195 182 193 1
196 183 194 1
197 183 195 1
198 184 196 1
199 186 197 1
200 186 198 1
201 187 199 1
202 187 200 1
203 201 202 1
204 201 208 1
205 202 203 1
206 202 205 1
207 202 209 1
208 203 204 2
209 203 217 1
210 205 206 1
211 205 207 1
212 205 210 1
213 206 211 1
214 206 212 1
215 206 213 1
216 207 214 1
217 207 215 1
218 207 216 1
219 217 218 1
220 217 225 1
221 218 219 1
222 218 221 1
223 218 226 1
224 219 220 2
225 219 234 1
226 221 222 1
227 222 223 1
228 223 224 1
229 221 227 1
230 221 228 1
231 222 229 1
232 222 230 1
233 224 231 1
234 224 232 1
235 224 233 1
236 234 235 1
237 234 245 1
238 235 236 1
239 235 238 1
240 235 246 1
241 236 237 2
242 238 239 1
243 239 240 1
244 240 241 1
245 241 242 1
246 242 243 2
247 242 244 1
248 238 247 1
249 238 248 1
250 239 249 1
251 239 250 1
252 240 251 1
253 240 252 1
254 241 253 1
255 243 254 1
256 243 255 1
257 244 256 1
258 244 257 1
@<TRIPOS>SUBSTRUCTURE
1	GLU1	1	RESIDUE	1 ****	GLU
2	ASN2	16	RESIDUE	1 ****	ASN
3	PRO3	30	RESIDUE	1 ****	PRO
4	GLY4	44	RESIDUE	1 ****	GLY
5	SER5	51	RESIDUE	1 ****	SER
6	ILE6	62	RESIDUE	1 ****	ILE
7	LEU7	81	RESIDUE	1 ****	LEU
8	ASP8	100	RESIDUE	1 ****	ASP
9	GLU9	112	RESIDUE	1 ****	GLU
10	HIS10	127	RESIDUE	1 ****	HIS
11	VAL11	144	RESIDUE	1 ****	VAL
12	GLN12	160	RESIDUE	1 ****	GLN
13	ARG13	177	RESIDUE	1 ****	ARG
14	VAL14	201	RESIDUE	1 ****	VAL
15	MET15	217	RESIDUE	1 ****	MET
16	ARG16	234	RESIDUE	1 ****	ARG
