REMARK WARNING: 32 MAX_TORS EXCEEDED!!!
REMARK  70 active torsions:
REMARK  status: ('A' for Active; 'I' for Inactive)
REMARK    1  A    between atoms: N_1  and  CA_2 
REMARK    2  A    between atoms: CA_2  and  C_3 
REMARK    3  A    between atoms: CA_2  and  CB_5 
REMARK       I    between atoms: C_3  and  N_11 
REMARK    4  A    between atoms: CB_5  and  CG_6 
REMARK    5  A    between atoms: CG_6  and  CD_7 
REMARK    6  A    between atoms: N_11  and  CA_12 
REMARK    7  A    between atoms: CA_12  and  C_13 
REMARK    8  A    between atoms: CA_12  and  CB_15 
REMARK       I    between atoms: C_13  and  N_22 
REMARK    9  A    between atoms: CB_15  and  CG_16 
REMARK       I    between atoms: CG_16  and  ND2_17 
REMARK   10  A    between atoms: CA_23  and  C_24 
REMARK       I    between atoms: C_24  and  N_29 
REMARK   11  A    between atoms: N_29  and  CA_30 
REMARK   12  A    between atoms: CA_30  and  C_31 
REMARK   13  A    between atoms: CA_30  and  CB_33 
REMARK       I    between atoms: C_31  and  N_39 
REMARK   14  A    between atoms: CB_33  and  CG_34 
REMARK   15  A    between atoms: CG_34  and  CD_35 
REMARK   16  A    between atoms: N_39  and  CA_40 
REMARK   17  A    between atoms: CA_40  and  C_41 
REMARK   18  A    between atoms: CA_40  and  CB_43 
REMARK       I    between atoms: C_41  and  N_47 
REMARK   19  A    between atoms: CB_43  and  OG_44 
REMARK   20  A    between atoms: N_47  and  CA_48 
REMARK   21  A    between atoms: CA_48  and  C_49 
REMARK   22  A    between atoms: CA_48  and  CB_51 
REMARK       I    between atoms: C_49  and  N_56 
REMARK   23  A    between atoms: CB_51  and  CG1_52 
REMARK   24  A    between atoms: N_56  and  CA_57 
REMARK   25  A    between atoms: CA_57  and  C_58 
REMARK   26  A    between atoms: CA_57  and  CB_60 
REMARK       I    between atoms: C_58  and  N_65 
REMARK   27  A    between atoms: CB_60  and  CG_61 
REMARK   28  A    between atoms: N_65  and  CA_66 
REMARK   29  A    between atoms: CA_66  and  C_67 
REMARK   30  A    between atoms: CA_66  and  CB_69 
REMARK       I    between atoms: C_67  and  N_74 
REMARK   31  A    between atoms: CB_69  and  CG_70 
REMARK   32  A    between atoms: N_74  and  CA_75 
REMARK   33  A    between atoms: CA_75  and  C_76 
REMARK   34  A    between atoms: CA_75  and  CB_78 
REMARK       I    between atoms: C_76  and  N_84 
REMARK   35  A    between atoms: CB_78  and  CG_79 
REMARK   36  A    between atoms: CG_79  and  CD_80 
REMARK   37  A    between atoms: N_84  and  CA_85 
REMARK   38  A    between atoms: CA_85  and  C_86 
REMARK   39  A    between atoms: CA_85  and  CB_88 
REMARK       I    between atoms: C_86  and  N_96 
REMARK   40  A    between atoms: CB_88  and  CG_89 
REMARK   41  A    between atoms: N_96  and  CA_97 
REMARK   42  A    between atoms: CA_97  and  C_98 
REMARK   43  A    between atoms: CA_97  and  CB_100 
REMARK       I    between atoms: C_98  and  N_104 
REMARK   44  A    between atoms: N_104  and  CA_105 
REMARK   45  A    between atoms: CA_105  and  C_106 
REMARK   46  A    between atoms: CA_105  and  CB_108 
REMARK       I    between atoms: C_106  and  N_116 
REMARK   47  A    between atoms: CB_108  and  CG_109 
REMARK   48  A    between atoms: CG_109  and  CD_110 
REMARK       I    between atoms: CD_110  and  NE2_111 
REMARK   49  A    between atoms: N_116  and  CA_117 
REMARK   50  A    between atoms: CA_117  and  C_118 
REMARK   51  A    between atoms: CA_117  and  CB_120 
REMARK       I    between atoms: C_118  and  N_133 
REMARK   52  A    between atoms: CB_120  and  CG_121 
REMARK   53  A    between atoms: CG_121  and  CD_122 
REMARK   54  A    between atoms: CD_122  and  NE_123 
REMARK       I    between atoms: NE_123  and  CZ_124 
REMARK       I    between atoms: CZ_124  and  NH1_125 
REMARK       I    between atoms: CZ_124  and  NH2_126 
REMARK   55  A    between atoms: N_133  and  CA_134 
REMARK   56  A    between atoms: CA_134  and  C_135 
REMARK   57  A    between atoms: CA_134  and  CB_137 
REMARK       I    between atoms: C_135  and  N_142 
REMARK   58  A    between atoms: CB_137  and  CG_138 
REMARK   59  A    between atoms: CG_138  and  SD_139 
REMARK   60  A    between atoms: N_142  and  CA_143 
REMARK   61  A    between atoms: CA_143  and  C_144 
REMARK   62  A    between atoms: CA_143  and  CB_146 
REMARK       I    between atoms: C_144  and  N_151 
REMARK   63  A    between atoms: CB_146  and  CG_147 
REMARK   64  A    between atoms: CG_147  and  SD_148 
REMARK   65  A    between atoms: N_151  and  CA_152 
REMARK   66  A    between atoms: CA_152  and  C_153 
REMARK   67  A    between atoms: CA_152  and  CB_155 
REMARK   68  A    between atoms: CB_155  and  CG_156 
REMARK   69  A    between atoms: CG_156  and  CD_157 
REMARK   70  A    between atoms: CD_157  and  NE_158 
REMARK       I    between atoms: NE_158  and  CZ_159 
REMARK       I    between atoms: CZ_159  and  NH1_160 
ROOT
ATOM      1  C   GLU d   9    2210.807 677.588-2292.201  0.00  0.00     0.241 C 
ATOM      2  O   GLU d   9    2211.471 678.342-2292.927  0.00  0.00    -0.271 OA
ATOM      3  N   HIS d  10    2210.903 676.313-2292.370  0.00  0.00    -0.346 N 
ATOM      4  H   HIS d  10    2210.372 675.678-2291.791  0.00  0.00     0.163 HD
ENDROOT
BRANCH   3   5
ATOM      5  CA  HIS d  10    2211.790 675.800-2293.411  0.00  0.00     0.182 C 
BRANCH   5   6
ATOM      6  C   HIS d  10    2211.423 676.365-2294.762  0.00  0.00     0.241 C 
ATOM      7  O   HIS d  10    2212.276 676.829-2295.534  0.00  0.00    -0.271 OA
ATOM      8  N   VAL d  11    2210.185 676.364-2295.125  0.00  0.00    -0.346 N 
ATOM      9  H   VAL d  11    2209.472 675.992-2294.514  0.00  0.00     0.163 HD
BRANCH   8  10
ATOM     10  CA  VAL d  11    2209.830 676.910-2296.432  0.00  0.00     0.180 C 
BRANCH  10  11
ATOM     11  C   VAL d  11    2210.295 678.340-2296.565  0.00  0.00     0.241 C 
ATOM     12  O   VAL d  11    2210.896 678.744-2297.568  0.00  0.00    -0.271 OA
ATOM     13  N   GLN d  12    2210.059 679.166-2295.603  0.00  0.00    -0.346 N 
ATOM     14  H   GLN d  12    2209.570 678.861-2294.774  0.00  0.00     0.163 HD
BRANCH  13  15
ATOM     15  CA  GLN d  12    2210.508 680.549-2295.731  0.00  0.00     0.177 C 
BRANCH  15  16
ATOM     16  C   GLN d  12    2211.998 680.615-2295.969  0.00  0.00     0.241 C 
ATOM     17  O   GLN d  12    2212.485 681.323-2296.848  0.00  0.00    -0.271 OA
ATOM     18  N   ARG d  13    2212.783 679.909-2295.228  0.00  0.00    -0.346 N 
ATOM     19  H   ARG d  13    2212.406 679.319-2294.499  0.00  0.00     0.163 HD
BRANCH  18  20
ATOM     20  CA  ARG d  13    2214.223 679.974-2295.459  0.00  0.00     0.176 C 
BRANCH  20  21
ATOM     21  C   ARG d  13    2214.559 679.601-2296.884  0.00  0.00     0.241 C 
ATOM     22  O   ARG d  13    2215.327 680.272-2297.569  0.00  0.00    -0.271 OA
ATOM     23  N   MET d  14    2214.022 678.547-2297.398  0.00  0.00    -0.346 N 
ATOM     24  H   MET d  14    2213.387 677.979-2296.855  0.00  0.00     0.163 HD
BRANCH  23  25
ATOM     25  CA  MET d  14    2214.346 678.186-2298.775  0.00  0.00     0.177 C 
BRANCH  25  26
ATOM     26  C   MET d  14    2214.017 679.314-2299.722  0.00  0.00     0.241 C 
ATOM     27  O   MET d  14    2214.814 679.693-2300.594  0.00  0.00    -0.271 OA
ATOM     28  N   MET d  15    2212.873 679.901-2299.623  0.00  0.00    -0.346 N 
ATOM     29  H   MET d  15    2212.207 679.611-2298.921  0.00  0.00     0.163 HD
BRANCH  28  30
ATOM     30  CA  MET d  15    2212.554 680.992-2300.539  0.00  0.00     0.177 C 
BRANCH  30  31
ATOM     31  C   MET d  15    2213.585 682.091-2300.453  0.00  0.00     0.241 C 
ATOM     32  O   MET d  15    2214.089 682.599-2301.467  0.00  0.00    -0.271 OA
ATOM     33  N   ARG d  16    2213.954 682.515-2299.292  0.00  0.00    -0.347 N 
ATOM     34  H   ARG d  16    2213.558 682.117-2298.452  0.00  0.00     0.163 HD
BRANCH  33  35
ATOM     35  CA  ARG d  16    2214.951 683.578-2299.210  0.00  0.00     0.162 C 
BRANCH  35  36
ATOM     36  C   ARG d  16    2216.222 683.182-2299.925  0.00  0.00     0.219 C 
ATOM     37  O   ARG d  16    2216.335 682.104-2300.503  0.00  0.00    -0.287 OA
ENDBRANCH  35  36
BRANCH  35  38
ATOM     38  CB  ARG d  16    2215.219 683.899-2297.712  0.00  0.00     0.035 C 
BRANCH  38  39
ATOM     39  CG  ARG d  16    2216.046 685.188-2297.442  0.00  0.00     0.023 C 
BRANCH  39  40
ATOM     40  CD  ARG d  16    2216.295 685.411-2295.941  0.00  0.00     0.138 C 
BRANCH  40  41
ATOM     41  NE  ARG d  16    2217.072 686.670-2295.743  0.00  0.00    -0.227 N 
ATOM     42  CZ  ARG d  16    2217.463 687.154-2294.568  0.00  0.00     0.665 C 
ATOM     43  NH1 ARG d  16    2217.214 686.573-2293.429  0.00  0.00    -0.235 N 
ATOM     44  NH2 ARG d  16    2218.128 688.267-2294.552  0.00  0.00    -0.235 N 
ATOM     45 11HH ARG d  16    2216.688 685.700-2293.511  0.00  0.00     0.174 HD
ATOM     46 12HH ARG d  16    2217.548 687.010-2292.569  0.00  0.00     0.174 HD
ATOM     47 21HH ARG d  16    2218.314 688.707-2295.455  0.00  0.00     0.174 HD
ATOM     48 22HH ARG d  16    2218.418 688.624-2293.640  0.00  0.00     0.174 HD
ATOM     49  HE  ARG d  16    2217.351 687.248-2296.542  0.00  0.00     0.177 HD
ENDBRANCH  40  41
ENDBRANCH  39  40
ENDBRANCH  38  39
ENDBRANCH  35  38
ENDBRANCH  33  35
ENDBRANCH  30  31
BRANCH  30  50
ATOM     50  CB  MET d  15    2211.133 681.540-2300.232  0.00  0.00     0.045 C 
BRANCH  50  51
ATOM     51  CG  MET d  15    2209.970 680.543-2300.423  0.00  0.00     0.076 C 
BRANCH  51  52
ATOM     52  SD  MET d  15    2208.397 681.411-2300.312  0.00  0.00    -0.173 SA
ATOM     53  CE  MET d  15    2207.314 679.983-2300.172  0.00  0.00     0.089 C 
ENDBRANCH  51  52
ENDBRANCH  50  51
ENDBRANCH  30  50
ENDBRANCH  28  30
ENDBRANCH  25  26
BRANCH  25  54
ATOM     54  CB  MET d  14    2213.589 676.889-2299.172  0.00  0.00     0.045 C 
BRANCH  54  55
ATOM     55  CG  MET d  14    2213.946 675.624-2298.363  0.00  0.00     0.076 C 
BRANCH  55  56
ATOM     56  SD  MET d  14    2213.208 674.176-2299.135  0.00  0.00    -0.173 SA
ATOM     57  CE  MET d  14    2213.458 673.003-2297.796  0.00  0.00     0.089 C 
ENDBRANCH  55  56
ENDBRANCH  54  55
ENDBRANCH  25  54
ENDBRANCH  23  25
ENDBRANCH  20  21
BRANCH  20  58
ATOM     58  CB  ARG d  13    2214.936 679.035-2294.445  0.00  0.00     0.036 C 
BRANCH  58  59
ATOM     59  CG  ARG d  13    2216.481 679.188-2294.365  0.00  0.00     0.023 C 
BRANCH  59  60
ATOM     60  CD  ARG d  13    2217.108 678.201-2293.366  0.00  0.00     0.138 C 
BRANCH  60  61
ATOM     61  NE  ARG d  13    2218.585 678.408-2293.316  0.00  0.00    -0.227 N 
ATOM     62  CZ  ARG d  13    2219.434 677.716-2292.561  0.00  0.00     0.665 C 
ATOM     63  NH1 ARG d  13    2219.069 676.753-2291.762  0.00  0.00    -0.235 N 
ATOM     64  NH2 ARG d  13    2220.693 678.015-2292.618  0.00  0.00    -0.235 N 
ATOM     65 11HH ARG d  13    2218.063 676.567-2291.765  0.00  0.00     0.174 HD
ATOM     66 12HH ARG d  13    2219.782 676.270-2291.214  0.00  0.00     0.174 HD
ATOM     67 21HH ARG d  13    2220.961 678.773-2293.250  0.00  0.00     0.174 HD
ATOM     68 22HH ARG d  13    2221.329 677.474-2292.030  0.00  0.00     0.174 HD
ATOM     69  HE  ARG d  13    2219.037 679.129-2293.888  0.00  0.00     0.177 HD
ENDBRANCH  60  61
ENDBRANCH  59  60
ENDBRANCH  58  59
ENDBRANCH  20  58
ENDBRANCH  18  20
ENDBRANCH  15  16
BRANCH  15  70
ATOM     70  CB  GLN d  12    2210.118 681.317-2294.449  0.00  0.00     0.044 C 
BRANCH  70  71
ATOM     71  CG  GLN d  12    2210.479 682.839-2294.418  0.00  0.00     0.105 C 
BRANCH  71  72
ATOM     72  CD  GLN d  12    2210.178 683.653-2293.154  0.00  0.00     0.215 C 
ATOM     73  NE2 GLN d  12    2209.611 683.078-2292.125  0.00  0.00    -0.370 N 
ATOM     74 21HE GLN d  12    2209.504 683.672-2291.302  0.00  0.00     0.159 HD
ATOM     75 22HE GLN d  12    2209.446 682.074-2292.228  0.00  0.00     0.159 HD
ATOM     76  OE1 GLN d  12    2210.480 684.834-2293.077  0.00  0.00    -0.274 OA
ENDBRANCH  71  72
ENDBRANCH  70  71
ENDBRANCH  15  70
ENDBRANCH  13  15
ENDBRANCH  10  11
BRANCH  10  77
ATOM     77  CB  VAL d  11    2208.269 676.804-2296.651  0.00  0.00     0.009 C 
ATOM     78  CG1 VAL d  11    2207.700 677.507-2297.914  0.00  0.00     0.012 C 
ATOM     79  CG2 VAL d  11    2207.744 675.350-2296.723  0.00  0.00     0.012 C 
ENDBRANCH  10  77
ENDBRANCH   8  10
ENDBRANCH   5   6
BRANCH   5  80
ATOM     80  CB  HIS d  10    2211.625 674.272-2293.405  0.00  0.00     0.095 C 
BRANCH  80  81
ATOM     81  CG  HIS d  10    2212.911 673.561-2293.097  0.00  0.00     0.053 A 
ATOM     82  CD2 HIS d  10    2213.292 673.226-2291.804  0.00  0.00     0.116 A 
ATOM     83  NE2 HIS d  10    2214.507 672.594-2291.871  0.00  0.00    -0.359 N 
ATOM     84  CE1 HIS d  10    2214.769 672.596-2293.206  0.00  0.00     0.207 A 
ATOM     85  2HE HIS d  10    2215.073 672.217-2291.098  0.00  0.00     0.166 HD
ATOM     86  ND1 HIS d  10    2213.862 673.154-2294.030  0.00  0.00    -0.247 NA
ENDBRANCH  80  81
ENDBRANCH   5  80
ENDBRANCH   3   5
BRANCH   1  87
ATOM     87  CA  GLU d   9    2209.889 678.117-2291.125  0.00  0.00     0.177 C 
BRANCH  87  88
ATOM     88  N   GLU d   9    2208.586 677.460-2291.180  0.00  0.00    -0.346 N 
ATOM     89  C   ASP d   8    2207.906 677.509-2292.275  0.00  0.00     0.241 C 
ATOM     90  O   ASP d   8    2208.379 678.113-2293.250  0.00  0.00    -0.271 OA
ATOM     91  H   GLU d   9    2208.223 676.974-2290.373  0.00  0.00     0.163 HD
BRANCH  89  92
ATOM     92  CA  ASP d   8    2206.559 676.830-2292.332  0.00  0.00     0.186 C 
BRANCH  92  93
ATOM     93  N   ASP d   8    2206.629 675.481-2291.778  0.00  0.00    -0.346 N 
ATOM     94  C   LEU d   7    2207.466 674.640-2292.284  0.00  0.00     0.241 C 
ATOM     95  O   LEU d   7    2208.187 675.001-2293.226  0.00  0.00    -0.271 OA
ATOM     96  H   ASP d   8    2206.031 675.211-2291.010  0.00  0.00     0.163 HD
BRANCH  94  97
ATOM     97  CA  LEU d   7    2207.538 673.244-2291.711  0.00  0.00     0.177 C 
BRANCH  97  98
ATOM     98  N   LEU d   7    2207.593 673.281-2290.252  0.00  0.00    -0.346 N 
ATOM     99  C   ILE d   6    2208.539 673.944-2289.679  0.00  0.00     0.241 C 
ATOM    100  O   ILE d   6    2209.374 674.531-2290.383  0.00  0.00    -0.271 OA
ATOM    101  H   LEU d   7    2206.901 672.794-2289.701  0.00  0.00     0.163 HD
BRANCH  99 102
ATOM    102  CA  ILE d   6    2208.596 673.981-2288.171  0.00  0.00     0.180 C 
BRANCH 102 103
ATOM    103  N   ILE d   6    2207.283 674.277-2287.605  0.00  0.00    -0.346 N 
ATOM    104  C   SER d   5    2206.678 675.360-2287.959  0.00  0.00     0.243 C 
ATOM    105  O   SER d   5    2207.226 676.114-2288.764  0.00  0.00    -0.271 OA
ATOM    106  H   ILE d   6    2206.854 673.643-2286.947  0.00  0.00     0.163 HD
BRANCH 104 107
ATOM    107  CA  SER d   5    2205.320 675.666-2287.374  0.00  0.00     0.200 C 
BRANCH 107 108
ATOM    108  N   SER d   5    2204.450 674.495-2287.433  0.00  0.00    -0.344 N 
ATOM    109  C   GLU d   4    2204.223 673.943-2288.576  0.00  0.00     0.241 C 
ATOM    110  O   GLU d   4    2204.750 674.422-2289.591  0.00  0.00    -0.271 OA
ATOM    111  H   SER d   5    2204.032 674.124-2286.592  0.00  0.00     0.163 HD
BRANCH 109 112
ATOM    112  CA  GLU d   4    2203.323 672.732-2288.638  0.00  0.00     0.177 C 
BRANCH 112 113
ATOM    113  N   GLU d   4    2203.683 671.761-2287.608  0.00  0.00    -0.346 N 
ATOM    114  C   PRO d   3    2204.887 671.301-2287.575  0.00  0.00     0.241 C 
ATOM    115  O   PRO d   3    2205.711 671.684-2288.407  0.00  0.00    -0.271 OA
ATOM    116  H   GLU d   4    2202.998 671.454-2286.932  0.00  0.00     0.163 HD
BRANCH 114 117
ATOM    117  CA  PRO d   3    2205.285 670.277-2286.498  0.00  0.00     0.179 C 
ATOM    118  N   PRO d   3    2204.833 670.686-2285.177  0.00  0.00    -0.337 N 
ATOM    119  C   ASN d   2    2205.354 671.681-2284.543  0.00  0.00     0.243 C 
ATOM    120  CD  PRO d   3    2203.755 669.893-2284.628  0.00  0.00     0.127 C 
ATOM    121  O   ASN d   2    2206.270 672.311-2285.071  0.00  0.00    -0.271 OA
ATOM    122  CG  PRO d   3    2203.297 669.075-2285.838  0.00  0.00     0.022 C 
ATOM    123  CB  PRO d   3    2204.581 668.922-2286.668  0.00  0.00     0.037 C 
BRANCH 119 124
ATOM    124  CA  ASN d   2    2204.823 672.037-2283.174  0.00  0.00     0.185 C 
BRANCH 124 125
ATOM    125  N   ASN d   2    2203.364 672.076-2283.174  0.00  0.00    -0.346 N 
ATOM    126  C   GLU d   1    2202.759 672.862-2284.000  0.00  0.00     0.242 C 
ATOM    127  O   GLU d   1    2203.435 673.561-2284.768  0.00  0.00    -0.271 OA
ATOM    128  H   ASN d   2    2202.835 671.496-2282.538  0.00  0.00     0.163 HD
BRANCH 126 129
ATOM    129  CA  GLU d   1    2201.250 672.902-2284.000  0.00  0.00     0.191 C 
BRANCH 129 130
ATOM    130  N   GLU d   1    2200.691 671.553-2284.000  0.00  0.00    -0.326 NA
ATOM    131  H   GLU d   1    2201.318 670.674-2284.000  0.00  0.00     0.180 HD
ENDBRANCH 129 130
BRANCH 129 132
ATOM    132  CB  GLU d   1    2200.727 673.687-2282.763  0.00  0.00     0.047 C 
BRANCH 132 133
ATOM    133  CG  GLU d   1    2201.202 675.172-2282.652  0.00  0.00     0.116 C 
BRANCH 133 134
ATOM    134  CD  GLU d   1    2200.778 675.976-2281.437  0.00  0.00     0.172 C 
ATOM    135  OE1 GLU d   1    2200.050 675.474-2280.559  0.00  0.00    -0.648 OA
ATOM    136  OE2 GLU d   1    2201.208 677.146-2281.365  0.00  0.00    -0.648 OA
ENDBRANCH 133 134
ENDBRANCH 132 133
ENDBRANCH 129 132
ENDBRANCH 126 129
ENDBRANCH 124 125
BRANCH 124 137
ATOM    137  CB  ASN d   2    2205.315 671.014-2282.110  0.00  0.00     0.137 C 
BRANCH 137 138
ATOM    138  CG  ASN d   2    2204.851 671.238-2280.667  0.00  0.00     0.217 C 
ATOM    139  ND2 ASN d   2    2205.445 672.152-2279.948  0.00  0.00    -0.370 N 
ATOM    140 21HD ASN d   2    2204.964 672.326-2279.062  0.00  0.00     0.159 HD
ATOM    141 22HD ASN d   2    2206.147 672.724-2280.417  0.00  0.00     0.159 HD
ATOM    142  OD1 ASN d   2    2203.930 670.604-2280.172  0.00  0.00    -0.274 OA
ENDBRANCH 137 138
ENDBRANCH 124 137
ENDBRANCH 119 124
ENDBRANCH 114 117
ENDBRANCH 112 113
BRANCH 112 143
ATOM    143  CB  GLU d   4    2201.835 673.151-2288.468  0.00  0.00     0.045 C 
BRANCH 143 144
ATOM    144  CG  GLU d   4    2201.288 674.155-2289.534  0.00  0.00     0.116 C 
BRANCH 144 145
ATOM    145  CD  GLU d   4    2199.861 674.652-2289.391  0.00  0.00     0.172 C 
ATOM    146  OE1 GLU d   4    2199.134 674.253-2288.460  0.00  0.00    -0.648 OA
ATOM    147  OE2 GLU d   4    2199.472 675.481-2290.240  0.00  0.00    -0.648 OA
ENDBRANCH 144 145
ENDBRANCH 143 144
ENDBRANCH 112 143
ENDBRANCH 109 112
ENDBRANCH 107 108
BRANCH 107 148
ATOM    148  CB  SER d   5    2205.431 676.198-2285.924  0.00  0.00     0.199 C 
BRANCH 148 149
ATOM    149  OG  SER d   5    2206.162 675.319-2285.063  0.00  0.00    -0.398 OA
ATOM    150  HG  SER d   5    2205.673 674.494-2285.012  0.00  0.00     0.209 HD
ENDBRANCH 148 149
ENDBRANCH 107 148
ENDBRANCH 104 107
ENDBRANCH 102 103
BRANCH 102 151
ATOM    151  CB  ILE d   6    2209.195 672.645-2287.571  0.00  0.00     0.013 C 
ATOM    152  CG2 ILE d   6    2210.636 672.343-2288.086  0.00  0.00     0.012 C 
BRANCH 151 153
ATOM    153  CG1 ILE d   6    2209.214 672.583-2286.010  0.00  0.00     0.002 C 
ATOM    154  CD1 ILE d   6    2209.483 671.193-2285.395  0.00  0.00     0.005 C 
ENDBRANCH 151 153
ENDBRANCH 102 151
ENDBRANCH  99 102
ENDBRANCH  97  98
BRANCH  97 155
ATOM    155  CB  LEU d   7    2206.334 672.385-2292.191  0.00  0.00     0.038 C 
BRANCH 155 156
ATOM    156  CG  LEU d   7    2206.261 670.905-2291.725  0.00  0.00    -0.020 C 
ATOM    157  CD1 LEU d   7    2205.071 670.200-2292.390  0.00  0.00     0.009 C 
ATOM    158  CD2 LEU d   7    2207.555 670.126-2292.016  0.00  0.00     0.009 C 
ENDBRANCH 155 156
ENDBRANCH  97 155
ENDBRANCH  94  97
ENDBRANCH  92  93
BRANCH  92 159
ATOM    159  CB  ASP d   8    2205.481 677.670-2291.591  0.00  0.00     0.147 C 
BRANCH 159 160
ATOM    160  CG  ASP d   8    2205.263 679.091-2292.132  0.00  0.00     0.175 C 
ATOM    161  OD1 ASP d   8    2205.328 679.289-2293.363  0.00  0.00    -0.648 OA
ATOM    162  OD2 ASP d   8    2205.072 680.017-2291.318  0.00  0.00    -0.648 OA
ENDBRANCH 159 160
ENDBRANCH  92 159
ENDBRANCH  89  92
ENDBRANCH  87  88
BRANCH  87 163
ATOM    163  CB  GLU d   9    2210.523 677.909-2289.720  0.00  0.00     0.045 C 
BRANCH 163 164
ATOM    164  CG  GLU d   9    2211.906 678.601-2289.491  0.00  0.00     0.116 C 
BRANCH 164 165
ATOM    165  CD  GLU d   9    2212.608 678.388-2288.163  0.00  0.00     0.172 C 
ATOM    166  OE1 GLU d   9    2212.086 677.698-2287.266  0.00  0.00    -0.648 OA
ATOM    167  OE2 GLU d   9    2213.727 678.926-2288.032  0.00  0.00    -0.648 OA
ENDBRANCH 164 165
ENDBRANCH 163 164
ENDBRANCH  87 163
ENDBRANCH   1  87
TORSDOF 70
