REMARK WARNING: 32 MAX_TORS EXCEEDED!!!
REMARK  68 active torsions:
REMARK  status: ('A' for Active; 'I' for Inactive)
REMARK    1  A    between atoms: N_1  and  CA_2 
REMARK    2  A    between atoms: CA_2  and  C_3 
REMARK    3  A    between atoms: CA_2  and  CB_5 
REMARK       I    between atoms: C_3  and  N_11 
REMARK    4  A    between atoms: CB_5  and  CG_6 
REMARK    5  A    between atoms: CG_6  and  CD_7 
REMARK    6  A    between atoms: N_11  and  CA_12 
REMARK    7  A    between atoms: CA_12  and  C_13 
REMARK    8  A    between atoms: CA_12  and  CB_15 
REMARK       I    between atoms: C_13  and  N_22 
REMARK    9  A    between atoms: CB_15  and  CG_16 
REMARK       I    between atoms: CG_16  and  ND2_17 
REMARK   10  A    between atoms: CA_23  and  C_24 
REMARK       I    between atoms: C_24  and  N_29 
REMARK   11  A    between atoms: N_29  and  CA_30 
REMARK   12  A    between atoms: CA_30  and  C_31 
REMARK   13  A    between atoms: CA_30  and  CB_33 
REMARK       I    between atoms: C_31  and  N_39 
REMARK   14  A    between atoms: CB_33  and  CG_34 
REMARK   15  A    between atoms: CG_34  and  CD_35 
REMARK   16  A    between atoms: N_39  and  CA_40 
REMARK   17  A    between atoms: CA_40  and  C_41 
REMARK   18  A    between atoms: CA_40  and  CB_43 
REMARK       I    between atoms: C_41  and  N_47 
REMARK   19  A    between atoms: CB_43  and  OG_44 
REMARK   20  A    between atoms: N_47  and  CA_48 
REMARK   21  A    between atoms: CA_48  and  C_49 
REMARK   22  A    between atoms: CA_48  and  CB_51 
REMARK       I    between atoms: C_49  and  N_56 
REMARK   23  A    between atoms: CB_51  and  CG1_52 
REMARK   24  A    between atoms: N_56  and  CA_57 
REMARK   25  A    between atoms: CA_57  and  C_58 
REMARK   26  A    between atoms: CA_57  and  CB_60 
REMARK       I    between atoms: C_58  and  N_68 
REMARK   27  A    between atoms: CB_60  and  CG_61 
REMARK   28  A    between atoms: N_68  and  CA_69 
REMARK   29  A    between atoms: CA_69  and  C_70 
REMARK   30  A    between atoms: CA_69  and  CB_72 
REMARK       I    between atoms: C_70  and  N_77 
REMARK   31  A    between atoms: CB_72  and  CG_73 
REMARK   32  A    between atoms: N_77  and  CA_78 
REMARK   33  A    between atoms: CA_78  and  C_79 
REMARK   34  A    between atoms: CA_78  and  CB_81 
REMARK       I    between atoms: C_79  and  N_87 
REMARK   35  A    between atoms: CB_81  and  CG_82 
REMARK   36  A    between atoms: CG_82  and  CD_83 
REMARK   37  A    between atoms: N_87  and  CA_88 
REMARK   38  A    between atoms: CA_88  and  C_89 
REMARK   39  A    between atoms: CA_88  and  CB_91 
REMARK       I    between atoms: C_89  and  N_99 
REMARK   40  A    between atoms: CB_91  and  CG_92 
REMARK   41  A    between atoms: N_99  and  CA_100 
REMARK   42  A    between atoms: CA_100  and  C_101 
REMARK   43  A    between atoms: CA_100  and  CB_103 
REMARK       I    between atoms: C_101  and  N_107 
REMARK   44  A    between atoms: N_107  and  CA_108 
REMARK   45  A    between atoms: CA_108  and  C_109 
REMARK   46  A    between atoms: CA_108  and  CB_111 
REMARK       I    between atoms: C_109  and  N_119 
REMARK   47  A    between atoms: CB_111  and  CG_112 
REMARK   48  A    between atoms: CG_112  and  CD_113 
REMARK       I    between atoms: CD_113  and  NE2_114 
REMARK   49  A    between atoms: N_119  and  CA_120 
REMARK   50  A    between atoms: CA_120  and  C_121 
REMARK   51  A    between atoms: CA_120  and  CB_123 
REMARK       I    between atoms: C_121  and  N_136 
REMARK   52  A    between atoms: CB_123  and  CG_124 
REMARK   53  A    between atoms: CG_124  and  CD_125 
REMARK   54  A    between atoms: CD_125  and  NE_126 
REMARK       I    between atoms: NE_126  and  CZ_127 
REMARK       I    between atoms: CZ_127  and  NH1_128 
REMARK       I    between atoms: CZ_127  and  NH2_129 
REMARK   55  A    between atoms: N_136  and  CA_137 
REMARK   56  A    between atoms: CA_137  and  C_138 
REMARK   57  A    between atoms: CA_137  and  CB_140 
REMARK       I    between atoms: C_138  and  N_144 
REMARK   58  A    between atoms: N_144  and  CA_145 
REMARK   59  A    between atoms: CA_145  and  C_146 
REMARK   60  A    between atoms: CA_145  and  CB_148 
REMARK       I    between atoms: C_146  and  N_153 
REMARK   61  A    between atoms: CB_148  and  CG_149 
REMARK   62  A    between atoms: CG_149  and  SD_150 
REMARK   63  A    between atoms: N_153  and  CA_154 
REMARK   64  A    between atoms: CA_154  and  C_155 
REMARK   65  A    between atoms: CA_154  and  CB_157 
REMARK   66  A    between atoms: CB_157  and  CG_158 
REMARK   67  A    between atoms: CG_158  and  CD_159 
REMARK   68  A    between atoms: CD_159  and  NE_160 
REMARK       I    between atoms: NE_160  and  CZ_161 
REMARK       I    between atoms: CZ_161  and  NH1_162 
ROOT
ATOM      1  C   GLU d   9    1117.406 318.646-1101.912  0.00  0.00     0.241 C 
ATOM      2  O   GLU d   9    1118.069 319.399-1102.639  0.00  0.00    -0.271 OA
ATOM      3  N   HIS d  10    1117.503 317.370-1102.080  0.00  0.00    -0.346 N 
ATOM      4  H   HIS d  10    1116.972 316.736-1101.500  0.00  0.00     0.163 HD
ENDROOT
BRANCH   1   5
ATOM      5  CA  GLU d   9    1116.488 319.175-1100.837  0.00  0.00     0.177 C 
BRANCH   5   6
ATOM      6  N   GLU d   9    1115.186 318.518-1100.890  0.00  0.00    -0.346 N 
ATOM      7  C   ASP d   8    1114.505 318.565-1101.985  0.00  0.00     0.241 C 
ATOM      8  O   ASP d   8    1114.978 319.169-1102.961  0.00  0.00    -0.271 OA
ATOM      9  H   GLU d   9    1114.823 318.033-1100.082  0.00  0.00     0.163 HD
BRANCH   7  10
ATOM     10  CA  ASP d   8    1113.159 317.886-1102.040  0.00  0.00     0.186 C 
BRANCH  10  11
ATOM     11  N   ASP d   8    1113.230 316.537-1101.484  0.00  0.00    -0.345 N 
ATOM     12  C   HIS d   7    1114.067 315.695-1101.990  0.00  0.00     0.241 C 
ATOM     13  O   HIS d   7    1114.787 316.056-1102.933  0.00  0.00    -0.271 OA
ATOM     14  H   ASP d   8    1112.632 316.267-1100.716  0.00  0.00     0.163 HD
BRANCH  12  15
ATOM     15  CA  HIS d   7    1114.140 314.301-1101.415  0.00  0.00     0.182 C 
BRANCH  15  16
ATOM     16  N   HIS d   7    1114.196 314.338-1099.956  0.00  0.00    -0.346 N 
ATOM     17  C   ILE d   6    1115.141 315.002-1099.383  0.00  0.00     0.241 C 
ATOM     18  O   ILE d   6    1115.976 315.589-1100.087  0.00  0.00    -0.271 OA
ATOM     19  H   HIS d   7    1113.504 313.851-1099.405  0.00  0.00     0.163 HD
BRANCH  17  20
ATOM     20  CA  ILE d   6    1115.199 315.039-1097.875  0.00  0.00     0.180 C 
BRANCH  20  21
ATOM     21  N   ILE d   6    1113.886 315.334-1097.308  0.00  0.00    -0.346 N 
ATOM     22  C   SER d   5    1113.281 316.417-1097.662  0.00  0.00     0.243 C 
ATOM     23  O   SER d   5    1113.828 317.170-1098.467  0.00  0.00    -0.271 OA
ATOM     24  H   ILE d   6    1113.457 314.699-1096.650  0.00  0.00     0.163 HD
BRANCH  22  25
ATOM     25  CA  SER d   5    1111.922 316.722-1097.077  0.00  0.00     0.200 C 
BRANCH  25  26
ATOM     26  N   SER d   5    1111.053 315.551-1097.135  0.00  0.00    -0.344 N 
ATOM     27  C   GLU d   4    1110.825 314.998-1098.278  0.00  0.00     0.241 C 
ATOM     28  O   GLU d   4    1111.351 315.478-1099.293  0.00  0.00    -0.271 OA
ATOM     29  H   SER d   5    1110.636 315.179-1096.294  0.00  0.00     0.163 HD
BRANCH  27  30
ATOM     30  CA  GLU d   4    1109.926 313.787-1098.339  0.00  0.00     0.177 C 
BRANCH  30  31
ATOM     31  N   GLU d   4    1110.286 312.816-1097.310  0.00  0.00    -0.346 N 
ATOM     32  C   PRO d   3    1111.491 312.356-1097.278  0.00  0.00     0.241 C 
ATOM     33  O   PRO d   3    1112.314 312.739-1098.109  0.00  0.00    -0.271 OA
ATOM     34  H   GLU d   4    1109.602 312.509-1096.633  0.00  0.00     0.163 HD
BRANCH  32  35
ATOM     35  CA  PRO d   3    1111.889 311.332-1096.201  0.00  0.00     0.179 C 
ATOM     36  N   PRO d   3    1111.437 311.741-1094.879  0.00  0.00    -0.337 N 
ATOM     37  C   ASN d   2    1111.959 312.737-1094.245  0.00  0.00     0.243 C 
ATOM     38  CD  PRO d   3    1110.359 310.948-1094.330  0.00  0.00     0.127 C 
ATOM     39  O   ASN d   2    1112.874 313.367-1094.774  0.00  0.00    -0.271 OA
ATOM     40  CG  PRO d   3    1109.902 310.130-1095.540  0.00  0.00     0.022 C 
ATOM     41  CB  PRO d   3    1111.185 309.977-1096.370  0.00  0.00     0.037 C 
BRANCH  37  42
ATOM     42  CA  ASN d   2    1111.428 313.092-1092.876  0.00  0.00     0.185 C 
BRANCH  42  43
ATOM     43  N   ASN d   2    1109.968 313.131-1092.876  0.00  0.00    -0.346 N 
ATOM     44  C   GLU d   1    1109.364 313.917-1093.702  0.00  0.00     0.242 C 
ATOM     45  O   GLU d   1    1110.040 314.616-1094.470  0.00  0.00    -0.271 OA
ATOM     46  H   ASN d   2    1109.440 312.551-1092.240  0.00  0.00     0.163 HD
BRANCH  44  47
ATOM     47  CA  GLU d   1    1107.855 313.957-1093.702  0.00  0.00     0.191 C 
BRANCH  47  48
ATOM     48  N   GLU d   1    1107.296 312.608-1093.702  0.00  0.00    -0.326 NA
ATOM     49  H   GLU d   1    1107.923 311.729-1093.702  0.00  0.00     0.180 HD
ENDBRANCH  47  48
BRANCH  47  50
ATOM     50  CB  GLU d   1    1107.332 314.742-1092.464  0.00  0.00     0.047 C 
BRANCH  50  51
ATOM     51  CG  GLU d   1    1107.807 316.227-1092.354  0.00  0.00     0.116 C 
BRANCH  51  52
ATOM     52  CD  GLU d   1    1107.383 317.031-1091.138  0.00  0.00     0.172 C 
ATOM     53  OE1 GLU d   1    1106.655 316.529-1090.260  0.00  0.00    -0.648 OA
ATOM     54  OE2 GLU d   1    1107.813 318.201-1091.067  0.00  0.00    -0.648 OA
ENDBRANCH  51  52
ENDBRANCH  50  51
ENDBRANCH  47  50
ENDBRANCH  44  47
ENDBRANCH  42  43
BRANCH  42  55
ATOM     55  CB  ASN d   2    1111.920 312.069-1091.812  0.00  0.00     0.137 C 
BRANCH  55  56
ATOM     56  CG  ASN d   2    1111.457 312.293-1090.369  0.00  0.00     0.217 C 
ATOM     57  ND2 ASN d   2    1112.051 313.208-1089.651  0.00  0.00    -0.370 N 
ATOM     58 21HD ASN d   2    1111.570 313.381-1088.764  0.00  0.00     0.159 HD
ATOM     59 22HD ASN d   2    1112.753 313.780-1090.120  0.00  0.00     0.159 HD
ATOM     60  OD1 ASN d   2    1110.536 311.659-1089.875  0.00  0.00    -0.274 OA
ENDBRANCH  55  56
ENDBRANCH  42  55
ENDBRANCH  37  42
ENDBRANCH  32  35
ENDBRANCH  30  31
BRANCH  30  61
ATOM     61  CB  GLU d   4    1108.438 314.205-1098.169  0.00  0.00     0.045 C 
BRANCH  61  62
ATOM     62  CG  GLU d   4    1107.889 315.209-1099.234  0.00  0.00     0.116 C 
BRANCH  62  63
ATOM     63  CD  GLU d   4    1106.463 315.706-1099.090  0.00  0.00     0.172 C 
ATOM     64  OE1 GLU d   4    1105.737 315.307-1098.160  0.00  0.00    -0.648 OA
ATOM     65  OE2 GLU d   4    1106.073 316.535-1099.939  0.00  0.00    -0.648 OA
ENDBRANCH  62  63
ENDBRANCH  61  62
ENDBRANCH  30  61
ENDBRANCH  27  30
ENDBRANCH  25  26
BRANCH  25  66
ATOM     66  CB  SER d   5    1112.034 317.254-1095.626  0.00  0.00     0.199 C 
BRANCH  66  67
ATOM     67  OG  SER d   5    1112.766 316.375-1094.765  0.00  0.00    -0.398 OA
ATOM     68  HG  SER d   5    1112.277 315.550-1094.715  0.00  0.00     0.209 HD
ENDBRANCH  66  67
ENDBRANCH  25  66
ENDBRANCH  22  25
ENDBRANCH  20  21
BRANCH  20  69
ATOM     69  CB  ILE d   6    1115.799 313.703-1097.275  0.00  0.00     0.013 C 
ATOM     70  CG2 ILE d   6    1117.240 313.401-1097.791  0.00  0.00     0.012 C 
BRANCH  69  71
ATOM     71  CG1 ILE d   6    1115.818 313.640-1095.714  0.00  0.00     0.002 C 
ATOM     72  CD1 ILE d   6    1116.088 312.251-1095.099  0.00  0.00     0.005 C 
ENDBRANCH  69  71
ENDBRANCH  20  69
ENDBRANCH  17  20
ENDBRANCH  15  16
BRANCH  15  73
ATOM     73  CB  HIS d   7    1112.876 313.504-1101.779  0.00  0.00     0.095 C 
BRANCH  73  74
ATOM     74  CG  HIS d   7    1113.190 312.269-1102.572  0.00  0.00     0.053 A 
ATOM     75  CD2 HIS d   7    1113.434 311.038-1101.978  0.00  0.00     0.116 A 
ATOM     76  NE2 HIS d   7    1113.687 310.130-1102.973  0.00  0.00    -0.359 N 
ATOM     77  CE1 HIS d   7    1113.577 310.886-1104.099  0.00  0.00     0.207 A 
ATOM     78  2HE HIS d   7    1113.907 309.128-1102.882  0.00  0.00     0.166 HD
ATOM     79  ND1 HIS d   7    1113.276 312.191-1103.960  0.00  0.00    -0.247 NA
ENDBRANCH  73  74
ENDBRANCH  15  73
ENDBRANCH  12  15
ENDBRANCH  10  11
BRANCH  10  80
ATOM     80  CB  ASP d   8    1112.081 318.726-1101.299  0.00  0.00     0.147 C 
BRANCH  80  81
ATOM     81  CG  ASP d   8    1111.862 320.146-1101.842  0.00  0.00     0.175 C 
ATOM     82  OD1 ASP d   8    1111.925 320.342-1103.073  0.00  0.00    -0.648 OA
ATOM     83  OD2 ASP d   8    1111.670 321.073-1101.028  0.00  0.00    -0.648 OA
ENDBRANCH  80  81
ENDBRANCH  10  80
ENDBRANCH   7  10
ENDBRANCH   5   6
BRANCH   5  84
ATOM     84  CB  GLU d   9    1117.123 318.970-1099.431  0.00  0.00     0.045 C 
BRANCH  84  85
ATOM     85  CG  GLU d   9    1118.506 319.663-1099.204  0.00  0.00     0.116 C 
BRANCH  85  86
ATOM     86  CD  GLU d   9    1119.208 319.452-1097.876  0.00  0.00     0.172 C 
ATOM     87  OE1 GLU d   9    1118.687 318.762-1096.978  0.00  0.00    -0.648 OA
ATOM     88  OE2 GLU d   9    1120.327 319.990-1097.746  0.00  0.00    -0.648 OA
ENDBRANCH  85  86
ENDBRANCH  84  85
ENDBRANCH   5  84
ENDBRANCH   1   5
BRANCH   3  89
ATOM     89  CA  HIS d  10    1118.390 316.858-1103.120  0.00  0.00     0.182 C 
BRANCH  89  90
ATOM     90  C   HIS d  10    1118.022 317.420-1104.472  0.00  0.00     0.241 C 
ATOM     91  O   HIS d  10    1118.874 317.883-1105.245  0.00  0.00    -0.271 OA
ATOM     92  N   VAL d  11    1116.784 317.418-1104.834  0.00  0.00    -0.346 N 
ATOM     93  H   VAL d  11    1116.072 317.046-1104.223  0.00  0.00     0.163 HD
BRANCH  92  94
ATOM     94  CA  VAL d  11    1116.428 317.962-1106.142  0.00  0.00     0.180 C 
BRANCH  94  95
ATOM     95  C   VAL d  11    1116.892 319.393-1106.277  0.00  0.00     0.241 C 
ATOM     96  O   VAL d  11    1117.493 319.796-1107.281  0.00  0.00    -0.271 OA
ATOM     97  N   GLN d  12    1116.656 320.220-1105.316  0.00  0.00    -0.346 N 
ATOM     98  H   GLN d  12    1116.167 319.915-1104.486  0.00  0.00     0.163 HD
BRANCH  97  99
ATOM     99  CA  GLN d  12    1117.104 321.603-1105.445  0.00  0.00     0.177 C 
BRANCH  99 100
ATOM    100  C   GLN d  12    1118.594 321.670-1105.684  0.00  0.00     0.241 C 
ATOM    101  O   GLN d  12    1119.080 322.377-1106.563  0.00  0.00    -0.271 OA
ATOM    102  N   ARG d  13    1119.379 320.964-1104.942  0.00  0.00    -0.346 N 
ATOM    103  H   ARG d  13    1119.003 320.376-1104.213  0.00  0.00     0.163 HD
BRANCH 102 104
ATOM    104  CA  ARG d  13    1120.819 321.030-1105.173  0.00  0.00     0.176 C 
BRANCH 104 105
ATOM    105  C   ARG d  13    1121.155 320.656-1106.598  0.00  0.00     0.241 C 
ATOM    106  O   ARG d  13    1121.923 321.327-1107.283  0.00  0.00    -0.271 OA
ATOM    107  N   VAL d  14    1120.618 319.601-1107.110  0.00  0.00    -0.346 N 
ATOM    108  H   VAL d  14    1119.984 319.033-1106.567  0.00  0.00     0.163 HD
BRANCH 107 109
ATOM    109  CA  VAL d  14    1120.943 319.239-1108.487  0.00  0.00     0.180 C 
BRANCH 109 110
ATOM    110  C   VAL d  14    1120.612 320.368-1109.434  0.00  0.00     0.241 C 
ATOM    111  O   VAL d  14    1121.405 320.748-1110.305  0.00  0.00    -0.271 OA
ATOM    112  N   MET d  15    1119.467 320.954-1109.333  0.00  0.00    -0.346 N 
ATOM    113  H   MET d  15    1118.803 320.662-1108.631  0.00  0.00     0.163 HD
BRANCH 112 114
ATOM    114  CA  MET d  15    1119.146 322.045-1110.248  0.00  0.00     0.177 C 
BRANCH 114 115
ATOM    115  C   MET d  15    1120.177 323.145-1110.163  0.00  0.00     0.241 C 
ATOM    116  O   MET d  15    1120.679 323.655-1111.177  0.00  0.00    -0.271 OA
ATOM    117  N   ARG d  16    1120.546 323.568-1109.001  0.00  0.00    -0.347 N 
ATOM    118  H   ARG d  16    1120.152 323.169-1108.161  0.00  0.00     0.163 HD
BRANCH 117 119
ATOM    119  CA  ARG d  16    1121.542 324.632-1108.920  0.00  0.00     0.162 C 
BRANCH 119 120
ATOM    120  C   ARG d  16    1122.813 324.239-1109.636  0.00  0.00     0.219 C 
ATOM    121  O   ARG d  16    1122.926 323.161-1110.216  0.00  0.00    -0.287 OA
ENDBRANCH 119 120
BRANCH 119 122
ATOM    122  CB  ARG d  16    1121.812 324.953-1107.422  0.00  0.00     0.035 C 
BRANCH 122 123
ATOM    123  CG  ARG d  16    1122.637 326.242-1107.152  0.00  0.00     0.023 C 
BRANCH 123 124
ATOM    124  CD  ARG d  16    1122.888 326.464-1105.651  0.00  0.00     0.138 C 
BRANCH 124 125
ATOM    125  NE  ARG d  16    1123.664 327.723-1105.453  0.00  0.00    -0.227 N 
ATOM    126  CZ  ARG d  16    1124.056 328.207-1104.278  0.00  0.00     0.665 C 
ATOM    127  NH1 ARG d  16    1123.809 327.625-1103.138  0.00  0.00    -0.235 N 
ATOM    128  NH2 ARG d  16    1124.720 329.320-1104.261  0.00  0.00    -0.235 N 
ATOM    129 11HH ARG d  16    1123.283 326.751-1103.221  0.00  0.00     0.174 HD
ATOM    130 12HH ARG d  16    1124.144 328.062-1102.278  0.00  0.00     0.174 HD
ATOM    131 21HH ARG d  16    1124.905 329.762-1105.164  0.00  0.00     0.174 HD
ATOM    132 22HH ARG d  16    1125.010 329.677-1103.350  0.00  0.00     0.174 HD
ATOM    133  HE  ARG d  16    1123.942 328.303-1106.251  0.00  0.00     0.177 HD
ENDBRANCH 124 125
ENDBRANCH 123 124
ENDBRANCH 122 123
ENDBRANCH 119 122
ENDBRANCH 117 119
ENDBRANCH 114 115
BRANCH 114 134
ATOM    134  CB  MET d  15    1117.725 322.591-1109.939  0.00  0.00     0.045 C 
BRANCH 134 135
ATOM    135  CG  MET d  15    1116.563 321.593-1110.129  0.00  0.00     0.076 C 
BRANCH 135 136
ATOM    136  SD  MET d  15    1114.989 322.459-1110.015  0.00  0.00    -0.173 SA
ATOM    137  CE  MET d  15    1113.908 321.029-1109.876  0.00  0.00     0.089 C 
ENDBRANCH 135 136
ENDBRANCH 134 135
ENDBRANCH 114 134
ENDBRANCH 112 114
ENDBRANCH 109 110
BRANCH 109 138
ATOM    138  CB  VAL d  14    1120.170 317.922-1108.892  0.00  0.00     0.009 C 
ATOM    139  CG1 VAL d  14    1120.259 317.501-1110.385  0.00  0.00     0.012 C 
ATOM    140  CG2 VAL d  14    1120.603 316.671-1108.089  0.00  0.00     0.012 C 
ENDBRANCH 109 138
ENDBRANCH 107 109
ENDBRANCH 104 105
BRANCH 104 141
ATOM    141  CB  ARG d  13    1121.532 320.093-1104.158  0.00  0.00     0.036 C 
BRANCH 141 142
ATOM    142  CG  ARG d  13    1123.077 320.246-1104.078  0.00  0.00     0.023 C 
BRANCH 142 143
ATOM    143  CD  ARG d  13    1123.705 319.260-1103.078  0.00  0.00     0.138 C 
BRANCH 143 144
ATOM    144  NE  ARG d  13    1125.182 319.468-1103.029  0.00  0.00    -0.227 N 
ATOM    145  CZ  ARG d  13    1126.030 318.777-1102.273  0.00  0.00     0.665 C 
ATOM    146  NH1 ARG d  13    1125.666 317.814-1101.474  0.00  0.00    -0.235 N 
ATOM    147  NH2 ARG d  13    1127.290 319.076-1102.330  0.00  0.00    -0.235 N 
ATOM    148 11HH ARG d  13    1124.660 317.628-1101.476  0.00  0.00     0.174 HD
ATOM    149 12HH ARG d  13    1126.379 317.332-1100.924  0.00  0.00     0.174 HD
ATOM    150 21HH ARG d  13    1127.557 319.833-1102.963  0.00  0.00     0.174 HD
ATOM    151 22HH ARG d  13    1127.925 318.536-1101.741  0.00  0.00     0.174 HD
ATOM    152  HE  ARG d  13    1125.633 320.189-1103.601  0.00  0.00     0.177 HD
ENDBRANCH 143 144
ENDBRANCH 142 143
ENDBRANCH 141 142
ENDBRANCH 104 141
ENDBRANCH 102 104
ENDBRANCH  99 100
BRANCH  99 153
ATOM    153  CB  GLN d  12    1116.713 322.372-1104.163  0.00  0.00     0.044 C 
BRANCH 153 154
ATOM    154  CG  GLN d  12    1117.074 323.894-1104.135  0.00  0.00     0.105 C 
BRANCH 154 155
ATOM    155  CD  GLN d  12    1116.771 324.709-1102.871  0.00  0.00     0.215 C 
ATOM    156  NE2 GLN d  12    1116.205 324.134-1101.841  0.00  0.00    -0.370 N 
ATOM    157 21HE GLN d  12    1116.098 324.730-1101.019  0.00  0.00     0.159 HD
ATOM    158 22HE GLN d  12    1116.041 323.131-1101.943  0.00  0.00     0.159 HD
ATOM    159  OE1 GLN d  12    1117.073 325.891-1102.796  0.00  0.00    -0.274 OA
ENDBRANCH 154 155
ENDBRANCH 153 154
ENDBRANCH  99 153
ENDBRANCH  97  99
ENDBRANCH  94  95
BRANCH  94 160
ATOM    160  CB  VAL d  11    1114.867 317.855-1106.360  0.00  0.00     0.009 C 
ATOM    161  CG1 VAL d  11    1114.298 318.557-1107.624  0.00  0.00     0.012 C 
ATOM    162  CG2 VAL d  11    1114.343 316.400-1106.431  0.00  0.00     0.012 C 
ENDBRANCH  94 160
ENDBRANCH  92  94
ENDBRANCH  89  90
BRANCH  89 163
ATOM    163  CB  HIS d  10    1118.226 315.329-1103.112  0.00  0.00     0.095 C 
BRANCH 163 164
ATOM    164  CG  HIS d  10    1119.512 314.619-1102.804  0.00  0.00     0.053 A 
ATOM    165  CD2 HIS d  10    1119.893 314.286-1101.511  0.00  0.00     0.116 A 
ATOM    166  NE2 HIS d  10    1121.108 313.654-1101.577  0.00  0.00    -0.359 N 
ATOM    167  CE1 HIS d  10    1121.370 313.655-1102.913  0.00  0.00     0.207 A 
ATOM    168  2HE HIS d  10    1121.676 313.278-1100.804  0.00  0.00     0.166 HD
ATOM    169  ND1 HIS d  10    1120.463 314.212-1103.736  0.00  0.00    -0.247 NA
ENDBRANCH 163 164
ENDBRANCH  89 163
ENDBRANCH   3  89
TORSDOF 68
