REMARK WARNING: 32 MAX_TORS EXCEEDED!!!
REMARK  69 active torsions:
REMARK  status: ('A' for Active; 'I' for Inactive)
REMARK    1  A    between atoms: N_1  and  CA_2 
REMARK    2  A    between atoms: CA_2  and  C_3 
REMARK    3  A    between atoms: CA_2  and  CB_5 
REMARK       I    between atoms: C_3  and  N_11 
REMARK    4  A    between atoms: CB_5  and  CG_6 
REMARK    5  A    between atoms: CG_6  and  CD_7 
REMARK    6  A    between atoms: N_11  and  CA_12 
REMARK    7  A    between atoms: CA_12  and  C_13 
REMARK    8  A    between atoms: CA_12  and  CB_15 
REMARK       I    between atoms: C_13  and  N_22 
REMARK    9  A    between atoms: CB_15  and  CG_16 
REMARK       I    between atoms: CG_16  and  ND2_17 
REMARK   10  A    between atoms: CA_23  and  C_24 
REMARK       I    between atoms: C_24  and  N_29 
REMARK   11  A    between atoms: N_29  and  CA_30 
REMARK   12  A    between atoms: CA_30  and  C_31 
REMARK   13  A    between atoms: CA_30  and  CB_33 
REMARK       I    between atoms: C_31  and  N_39 
REMARK   14  A    between atoms: CB_33  and  CG_34 
REMARK   15  A    between atoms: CG_34  and  CD_35 
REMARK   16  A    between atoms: N_39  and  CA_40 
REMARK   17  A    between atoms: CA_40  and  C_41 
REMARK   18  A    between atoms: CA_40  and  CB_43 
REMARK       I    between atoms: C_41  and  N_47 
REMARK   19  A    between atoms: CB_43  and  OG_44 
REMARK   20  A    between atoms: N_47  and  CA_48 
REMARK   21  A    between atoms: CA_48  and  C_49 
REMARK   22  A    between atoms: CA_48  and  CB_51 
REMARK       I    between atoms: C_49  and  N_56 
REMARK   23  A    between atoms: CB_51  and  CG1_52 
REMARK   24  A    between atoms: N_56  and  CA_57 
REMARK   25  A    between atoms: CA_57  and  C_58 
REMARK   26  A    between atoms: CA_57  and  CB_60 
REMARK       I    between atoms: C_58  and  N_65 
REMARK   27  A    between atoms: CB_60  and  CG_61 
REMARK   28  A    between atoms: N_65  and  CA_66 
REMARK   29  A    between atoms: CA_66  and  C_67 
REMARK   30  A    between atoms: CA_66  and  CB_69 
REMARK       I    between atoms: C_67  and  N_74 
REMARK   31  A    between atoms: CB_69  and  CG_70 
REMARK   32  A    between atoms: N_74  and  CA_75 
REMARK   33  A    between atoms: CA_75  and  C_76 
REMARK   34  A    between atoms: CA_75  and  CB_78 
REMARK       I    between atoms: C_76  and  N_84 
REMARK   35  A    between atoms: CB_78  and  CG_79 
REMARK   36  A    between atoms: CG_79  and  CD_80 
REMARK   37  A    between atoms: N_84  and  CA_85 
REMARK   38  A    between atoms: CA_85  and  C_86 
REMARK   39  A    between atoms: CA_85  and  CB_88 
REMARK       I    between atoms: C_86  and  N_96 
REMARK   40  A    between atoms: CB_88  and  CG_89 
REMARK   41  A    between atoms: N_96  and  CA_97 
REMARK   42  A    between atoms: CA_97  and  C_98 
REMARK   43  A    between atoms: CA_97  and  CB_100 
REMARK       I    between atoms: C_98  and  N_104 
REMARK   44  A    between atoms: N_104  and  CA_105 
REMARK   45  A    between atoms: CA_105  and  C_106 
REMARK   46  A    between atoms: CA_105  and  CB_108 
REMARK       I    between atoms: C_106  and  N_116 
REMARK   47  A    between atoms: CB_108  and  CG_109 
REMARK   48  A    between atoms: CG_109  and  CD_110 
REMARK       I    between atoms: CD_110  and  NE2_111 
REMARK   49  A    between atoms: N_116  and  CA_117 
REMARK   50  A    between atoms: CA_117  and  C_118 
REMARK   51  A    between atoms: CA_117  and  CB_120 
REMARK       I    between atoms: C_118  and  N_133 
REMARK   52  A    between atoms: CB_120  and  CG_121 
REMARK   53  A    between atoms: CG_121  and  CD_122 
REMARK   54  A    between atoms: CD_122  and  NE_123 
REMARK       I    between atoms: NE_123  and  CZ_124 
REMARK       I    between atoms: CZ_124  and  NH1_125 
REMARK       I    between atoms: CZ_124  and  NH2_126 
REMARK   55  A    between atoms: N_133  and  CA_134 
REMARK   56  A    between atoms: CA_134  and  C_135 
REMARK   57  A    between atoms: CA_134  and  CB_137 
REMARK       I    between atoms: C_135  and  N_142 
REMARK   58  A    between atoms: CB_137  and  CG1_138 
REMARK   59  A    between atoms: N_142  and  CA_143 
REMARK   60  A    between atoms: CA_143  and  C_144 
REMARK   61  A    between atoms: CA_143  and  CB_146 
REMARK       I    between atoms: C_144  and  N_151 
REMARK   62  A    between atoms: CB_146  and  CG_147 
REMARK   63  A    between atoms: CG_147  and  SD_148 
REMARK   64  A    between atoms: N_151  and  CA_152 
REMARK   65  A    between atoms: CA_152  and  C_153 
REMARK   66  A    between atoms: CA_152  and  CB_155 
REMARK   67  A    between atoms: CB_155  and  CG_156 
REMARK   68  A    between atoms: CG_156  and  CD_157 
REMARK   69  A    between atoms: CD_157  and  NE_158 
REMARK       I    between atoms: NE_158  and  CZ_159 
REMARK       I    between atoms: CZ_159  and  NH1_160 
ROOT
ATOM      1  C   GLU d   9    2219.072 680.205-2301.086  0.00  0.00     0.241 C 
ATOM      2  O   GLU d   9    2219.736 680.959-2301.812  0.00  0.00    -0.271 OA
ATOM      3  N   HIS d  10    2219.168 678.930-2301.255  0.00  0.00    -0.346 N 
ATOM      4  H   HIS d  10    2218.637 678.295-2300.676  0.00  0.00     0.163 HD
ENDROOT
BRANCH   3   5
ATOM      5  CA  HIS d  10    2220.055 678.417-2302.295  0.00  0.00     0.182 C 
BRANCH   5   6
ATOM      6  C   HIS d  10    2219.688 678.982-2303.647  0.00  0.00     0.241 C 
ATOM      7  O   HIS d  10    2220.541 679.445-2304.419  0.00  0.00    -0.271 OA
ATOM      8  N   VAL d  11    2218.450 678.981-2304.010  0.00  0.00    -0.346 N 
ATOM      9  H   VAL d  11    2217.737 678.609-2303.399  0.00  0.00     0.163 HD
BRANCH   8  10
ATOM     10  CA  VAL d  11    2218.095 679.527-2305.317  0.00  0.00     0.180 C 
BRANCH  10  11
ATOM     11  C   VAL d  11    2218.560 680.957-2305.450  0.00  0.00     0.241 C 
ATOM     12  O   VAL d  11    2219.161 681.361-2306.453  0.00  0.00    -0.271 OA
ATOM     13  N   GLN d  12    2218.324 681.783-2304.488  0.00  0.00    -0.346 N 
ATOM     14  H   GLN d  12    2217.835 681.478-2303.658  0.00  0.00     0.163 HD
BRANCH  13  15
ATOM     15  CA  GLN d  12    2218.773 683.166-2304.616  0.00  0.00     0.177 C 
BRANCH  15  16
ATOM     16  C   GLN d  12    2220.263 683.232-2304.854  0.00  0.00     0.241 C 
ATOM     17  O   GLN d  12    2220.750 683.940-2305.733  0.00  0.00    -0.271 OA
ATOM     18  N   ARG d  13    2221.048 682.526-2304.113  0.00  0.00    -0.346 N 
ATOM     19  H   ARG d  13    2220.671 681.936-2303.384  0.00  0.00     0.163 HD
BRANCH  18  20
ATOM     20  CA  ARG d  13    2222.488 682.591-2304.344  0.00  0.00     0.176 C 
BRANCH  20  21
ATOM     21  C   ARG d  13    2222.823 682.218-2305.769  0.00  0.00     0.241 C 
ATOM     22  O   ARG d  13    2223.592 682.889-2306.454  0.00  0.00    -0.271 OA
ATOM     23  N   ILE d  14    2222.287 681.164-2306.283  0.00  0.00    -0.346 N 
ATOM     24  H   ILE d  14    2221.652 680.595-2305.740  0.00  0.00     0.163 HD
BRANCH  23  25
ATOM     25  CA  ILE d  14    2222.612 680.804-2307.660  0.00  0.00     0.180 C 
BRANCH  25  26
ATOM     26  C   ILE d  14    2222.282 681.933-2308.606  0.00  0.00     0.241 C 
ATOM     27  O   ILE d  14    2223.078 682.314-2309.477  0.00  0.00    -0.271 OA
ATOM     28  N   MET d  15    2221.137 682.519-2308.505  0.00  0.00    -0.346 N 
ATOM     29  H   MET d  15    2220.472 682.227-2307.803  0.00  0.00     0.163 HD
BRANCH  28  30
ATOM     30  CA  MET d  15    2220.818 683.612-2309.419  0.00  0.00     0.177 C 
BRANCH  30  31
ATOM     31  C   MET d  15    2221.849 684.711-2309.331  0.00  0.00     0.241 C 
ATOM     32  O   MET d  15    2222.352 685.221-2310.344  0.00  0.00    -0.271 OA
ATOM     33  N   ARG d  16    2222.217 685.133-2308.169  0.00  0.00    -0.347 N 
ATOM     34  H   ARG d  16    2221.822 684.734-2307.330  0.00  0.00     0.163 HD
BRANCH  33  35
ATOM     35  CA  ARG d  16    2223.214 686.196-2308.086  0.00  0.00     0.162 C 
BRANCH  35  36
ATOM     36  C   ARG d  16    2224.485 685.803-2308.801  0.00  0.00     0.219 C 
ATOM     37  O   ARG d  16    2224.598 684.726-2309.382  0.00  0.00    -0.287 OA
ENDBRANCH  35  36
BRANCH  35  38
ATOM     38  CB  ARG d  16    2223.483 686.515-2306.587  0.00  0.00     0.035 C 
BRANCH  38  39
ATOM     39  CG  ARG d  16    2224.308 687.804-2306.315  0.00  0.00     0.023 C 
BRANCH  39  40
ATOM     40  CD  ARG d  16    2224.558 688.024-2304.813  0.00  0.00     0.138 C 
BRANCH  40  41
ATOM     41  NE  ARG d  16    2225.334 689.283-2304.613  0.00  0.00    -0.227 N 
ATOM     42  CZ  ARG d  16    2225.725 689.765-2303.437  0.00  0.00     0.665 C 
ATOM     43  NH1 ARG d  16    2225.477 689.182-2302.299  0.00  0.00    -0.235 N 
ATOM     44  NH2 ARG d  16    2226.390 690.878-2303.419  0.00  0.00    -0.235 N 
ATOM     45 11HH ARG d  16    2224.951 688.309-2302.383  0.00  0.00     0.174 HD
ATOM     46 12HH ARG d  16    2225.811 689.617-2301.438  0.00  0.00     0.174 HD
ATOM     47 21HH ARG d  16    2226.576 691.320-2304.321  0.00  0.00     0.174 HD
ATOM     48 22HH ARG d  16    2226.680 691.233-2302.507  0.00  0.00     0.174 HD
ATOM     49  HE  ARG d  16    2225.613 689.863-2305.410  0.00  0.00     0.177 HD
ENDBRANCH  40  41
ENDBRANCH  39  40
ENDBRANCH  38  39
ENDBRANCH  35  38
ENDBRANCH  33  35
ENDBRANCH  30  31
BRANCH  30  50
ATOM     50  CB  MET d  15    2219.397 684.158-2309.111  0.00  0.00     0.045 C 
BRANCH  50  51
ATOM     51  CG  MET d  15    2218.234 683.161-2309.302  0.00  0.00     0.076 C 
BRANCH  51  52
ATOM     52  SD  MET d  15    2216.661 684.028-2309.189  0.00  0.00    -0.173 SA
ATOM     53  CE  MET d  15    2215.579 682.599-2309.052  0.00  0.00     0.089 C 
ENDBRANCH  51  52
ENDBRANCH  50  51
ENDBRANCH  30  50
ENDBRANCH  28  30
ENDBRANCH  25  26
BRANCH  25  54
ATOM     54  CB  ILE d  14    2221.904 679.453-2308.085  0.00  0.00     0.013 C 
ATOM     55  CG2 ILE d  14    2222.298 678.990-2309.522  0.00  0.00     0.012 C 
BRANCH  54  56
ATOM     56  CG1 ILE d  14    2222.140 678.258-2307.108  0.00  0.00     0.002 C 
ATOM     57  CD1 ILE d  14    2221.221 677.034-2307.306  0.00  0.00     0.005 C 
ENDBRANCH  54  56
ENDBRANCH  25  54
ENDBRANCH  23  25
ENDBRANCH  20  21
BRANCH  20  58
ATOM     58  CB  ARG d  13    2223.201 681.652-2303.330  0.00  0.00     0.036 C 
BRANCH  58  59
ATOM     59  CG  ARG d  13    2224.746 681.805-2303.249  0.00  0.00     0.023 C 
BRANCH  59  60
ATOM     60  CD  ARG d  13    2225.373 680.818-2302.251  0.00  0.00     0.138 C 
BRANCH  60  61
ATOM     61  NE  ARG d  13    2226.850 681.025-2302.201  0.00  0.00    -0.227 N 
ATOM     62  CZ  ARG d  13    2227.698 680.333-2301.446  0.00  0.00     0.665 C 
ATOM     63  NH1 ARG d  13    2227.333 679.370-2300.647  0.00  0.00    -0.235 N 
ATOM     64  NH2 ARG d  13    2228.958 680.632-2301.503  0.00  0.00    -0.235 N 
ATOM     65 11HH ARG d  13    2226.328 679.184-2300.650  0.00  0.00     0.174 HD
ATOM     66 12HH ARG d  13    2228.047 678.887-2300.098  0.00  0.00     0.174 HD
ATOM     67 21HH ARG d  13    2229.226 681.389-2302.135  0.00  0.00     0.174 HD
ATOM     68 22HH ARG d  13    2229.594 680.091-2300.914  0.00  0.00     0.174 HD
ATOM     69  HE  ARG d  13    2227.302 681.746-2302.772  0.00  0.00     0.177 HD
ENDBRANCH  60  61
ENDBRANCH  59  60
ENDBRANCH  58  59
ENDBRANCH  20  58
ENDBRANCH  18  20
ENDBRANCH  15  16
BRANCH  15  70
ATOM     70  CB  GLN d  12    2218.383 683.934-2303.333  0.00  0.00     0.044 C 
BRANCH  70  71
ATOM     71  CG  GLN d  12    2218.744 685.456-2303.303  0.00  0.00     0.105 C 
BRANCH  71  72
ATOM     72  CD  GLN d  12    2218.443 686.270-2302.039  0.00  0.00     0.215 C 
ATOM     73  NE2 GLN d  12    2217.875 685.695-2301.010  0.00  0.00    -0.370 N 
ATOM     74 21HE GLN d  12    2217.769 686.289-2300.186  0.00  0.00     0.159 HD
ATOM     75 22HE GLN d  12    2217.711 684.691-2301.112  0.00  0.00     0.159 HD
ATOM     76  OE1 GLN d  12    2218.745 687.451-2301.962  0.00  0.00    -0.274 OA
ENDBRANCH  71  72
ENDBRANCH  70  71
ENDBRANCH  15  70
ENDBRANCH  13  15
ENDBRANCH  10  11
BRANCH  10  77
ATOM     77  CB  VAL d  11    2216.534 679.421-2305.536  0.00  0.00     0.009 C 
ATOM     78  CG1 VAL d  11    2215.965 680.124-2306.799  0.00  0.00     0.012 C 
ATOM     79  CG2 VAL d  11    2216.009 677.967-2305.608  0.00  0.00     0.012 C 
ENDBRANCH  10  77
ENDBRANCH   8  10
ENDBRANCH   5   6
BRANCH   5  80
ATOM     80  CB  HIS d  10    2219.890 676.889-2302.290  0.00  0.00     0.095 C 
BRANCH  80  81
ATOM     81  CG  HIS d  10    2221.176 676.178-2301.982  0.00  0.00     0.053 A 
ATOM     82  CD2 HIS d  10    2221.557 675.843-2300.689  0.00  0.00     0.116 A 
ATOM     83  NE2 HIS d  10    2222.771 675.211-2300.756  0.00  0.00    -0.359 N 
ATOM     84  CE1 HIS d  10    2223.034 675.213-2302.091  0.00  0.00     0.207 A 
ATOM     85  2HE HIS d  10    2223.338 674.834-2299.983  0.00  0.00     0.166 HD
ATOM     86  ND1 HIS d  10    2222.127 675.771-2302.914  0.00  0.00    -0.247 NA
ENDBRANCH  80  81
ENDBRANCH   5  80
ENDBRANCH   3   5
BRANCH   1  87
ATOM     87  CA  GLU d   9    2218.154 680.734-2300.010  0.00  0.00     0.177 C 
BRANCH  87  88
ATOM     88  N   GLU d   9    2216.851 680.077-2300.065  0.00  0.00    -0.346 N 
ATOM     89  C   ASP d   8    2216.171 680.126-2301.160  0.00  0.00     0.241 C 
ATOM     90  O   ASP d   8    2216.644 680.730-2302.135  0.00  0.00    -0.271 OA
ATOM     91  H   GLU d   9    2216.488 679.591-2299.258  0.00  0.00     0.163 HD
BRANCH  89  92
ATOM     92  CA  ASP d   8    2214.824 679.447-2301.217  0.00  0.00     0.186 C 
BRANCH  92  93
ATOM     93  N   ASP d   8    2214.894 678.098-2300.663  0.00  0.00    -0.346 N 
ATOM     94  C   LEU d   7    2215.731 677.257-2301.169  0.00  0.00     0.241 C 
ATOM     95  O   LEU d   7    2216.452 677.618-2302.111  0.00  0.00    -0.271 OA
ATOM     96  H   ASP d   8    2214.296 677.828-2299.895  0.00  0.00     0.163 HD
BRANCH  94  97
ATOM     97  CA  LEU d   7    2215.803 675.861-2300.596  0.00  0.00     0.177 C 
BRANCH  97  98
ATOM     98  N   LEU d   7    2215.858 675.898-2299.137  0.00  0.00    -0.346 N 
ATOM     99  C   ILE d   6    2216.804 676.561-2298.564  0.00  0.00     0.241 C 
ATOM    100  O   ILE d   6    2217.638 677.148-2299.268  0.00  0.00    -0.271 OA
ATOM    101  H   LEU d   7    2215.166 675.411-2298.586  0.00  0.00     0.163 HD
BRANCH  99 102
ATOM    102  CA  ILE d   6    2216.861 676.598-2297.056  0.00  0.00     0.180 C 
BRANCH 102 103
ATOM    103  N   ILE d   6    2215.548 676.894-2296.490  0.00  0.00    -0.346 N 
ATOM    104  C   SER d   5    2214.943 677.977-2296.844  0.00  0.00     0.243 C 
ATOM    105  O   SER d   5    2215.491 678.730-2297.649  0.00  0.00    -0.271 OA
ATOM    106  H   ILE d   6    2215.119 676.260-2295.831  0.00  0.00     0.163 HD
BRANCH 104 107
ATOM    107  CA  SER d   5    2213.584 678.283-2296.259  0.00  0.00     0.200 C 
BRANCH 107 108
ATOM    108  N   SER d   5    2212.715 677.112-2296.318  0.00  0.00    -0.344 N 
ATOM    109  C   GLU d   4    2212.488 676.559-2297.461  0.00  0.00     0.241 C 
ATOM    110  O   GLU d   4    2213.014 677.039-2298.475  0.00  0.00    -0.271 OA
ATOM    111  H   SER d   5    2212.297 676.741-2295.477  0.00  0.00     0.163 HD
BRANCH 109 112
ATOM    112  CA  GLU d   4    2211.588 675.349-2297.523  0.00  0.00     0.177 C 
BRANCH 112 113
ATOM    113  N   GLU d   4    2211.948 674.378-2296.493  0.00  0.00    -0.346 N 
ATOM    114  C   PRO d   3    2213.152 673.917-2296.460  0.00  0.00     0.241 C 
ATOM    115  O   PRO d   3    2213.976 674.300-2297.292  0.00  0.00    -0.271 OA
ATOM    116  H   GLU d   4    2211.263 674.071-2295.816  0.00  0.00     0.163 HD
BRANCH 114 117
ATOM    117  CA  PRO d   3    2213.550 672.894-2295.383  0.00  0.00     0.179 C 
ATOM    118  N   PRO d   3    2213.098 673.303-2294.062  0.00  0.00    -0.337 N 
ATOM    119  C   ASN d   2    2213.619 674.298-2293.427  0.00  0.00     0.243 C 
ATOM    120  CD  PRO d   3    2212.020 672.510-2293.513  0.00  0.00     0.127 C 
ATOM    121  O   ASN d   2    2214.534 674.928-2293.956  0.00  0.00    -0.271 OA
ATOM    122  CG  PRO d   3    2211.562 671.692-2294.723  0.00  0.00     0.022 C 
ATOM    123  CB  PRO d   3    2212.846 671.539-2295.553  0.00  0.00     0.037 C 
BRANCH 119 124
ATOM    124  CA  ASN d   2    2213.088 674.654-2292.059  0.00  0.00     0.185 C 
BRANCH 124 125
ATOM    125  N   ASN d   2    2211.629 674.693-2292.059  0.00  0.00    -0.346 N 
ATOM    126  C   GLU d   1    2211.024 675.478-2292.884  0.00  0.00     0.242 C 
ATOM    127  O   GLU d   1    2211.700 676.177-2293.653  0.00  0.00    -0.271 OA
ATOM    128  H   ASN d   2    2211.100 674.113-2291.423  0.00  0.00     0.163 HD
BRANCH 126 129
ATOM    129  CA  GLU d   1    2209.515 675.518-2292.884  0.00  0.00     0.191 C 
BRANCH 129 130
ATOM    130  N   GLU d   1    2208.956 674.169-2292.884  0.00  0.00    -0.326 NA
ATOM    131  H   GLU d   1    2209.583 673.290-2292.884  0.00  0.00     0.180 HD
ENDBRANCH 129 130
BRANCH 129 132
ATOM    132  CB  GLU d   1    2208.992 676.303-2291.647  0.00  0.00     0.047 C 
BRANCH 132 133
ATOM    133  CG  GLU d   1    2209.467 677.788-2291.536  0.00  0.00     0.116 C 
BRANCH 133 134
ATOM    134  CD  GLU d   1    2209.043 678.592-2290.321  0.00  0.00     0.172 C 
ATOM    135  OE1 GLU d   1    2208.315 678.090-2289.443  0.00  0.00    -0.648 OA
ATOM    136  OE2 GLU d   1    2209.473 679.762-2290.249  0.00  0.00    -0.648 OA
ENDBRANCH 133 134
ENDBRANCH 132 133
ENDBRANCH 129 132
ENDBRANCH 126 129
ENDBRANCH 124 125
BRANCH 124 137
ATOM    137  CB  ASN d   2    2213.580 673.631-2290.994  0.00  0.00     0.137 C 
BRANCH 137 138
ATOM    138  CG  ASN d   2    2213.116 673.854-2289.551  0.00  0.00     0.217 C 
ATOM    139  ND2 ASN d   2    2213.710 674.769-2288.833  0.00  0.00    -0.370 N 
ATOM    140 21HD ASN d   2    2213.229 674.943-2287.947  0.00  0.00     0.159 HD
ATOM    141 22HD ASN d   2    2214.412 675.341-2289.302  0.00  0.00     0.159 HD
ATOM    142  OD1 ASN d   2    2212.195 673.221-2289.057  0.00  0.00    -0.274 OA
ENDBRANCH 137 138
ENDBRANCH 124 137
ENDBRANCH 119 124
ENDBRANCH 114 117
ENDBRANCH 112 113
BRANCH 112 143
ATOM    143  CB  GLU d   4    2210.100 675.768-2297.353  0.00  0.00     0.045 C 
BRANCH 143 144
ATOM    144  CG  GLU d   4    2209.552 676.772-2298.419  0.00  0.00     0.116 C 
BRANCH 144 145
ATOM    145  CD  GLU d   4    2208.126 677.269-2298.276  0.00  0.00     0.172 C 
ATOM    146  OE1 GLU d   4    2207.399 676.870-2297.345  0.00  0.00    -0.648 OA
ATOM    147  OE2 GLU d   4    2207.737 678.098-2299.124  0.00  0.00    -0.648 OA
ENDBRANCH 144 145
ENDBRANCH 143 144
ENDBRANCH 112 143
ENDBRANCH 109 112
ENDBRANCH 107 108
BRANCH 107 148
ATOM    148  CB  SER d   5    2213.696 678.815-2294.809  0.00  0.00     0.199 C 
BRANCH 148 149
ATOM    149  OG  SER d   5    2214.427 677.936-2293.948  0.00  0.00    -0.398 OA
ATOM    150  HG  SER d   5    2213.938 677.111-2293.897  0.00  0.00     0.209 HD
ENDBRANCH 148 149
ENDBRANCH 107 148
ENDBRANCH 104 107
ENDBRANCH 102 103
BRANCH 102 151
ATOM    151  CB  ILE d   6    2217.460 675.262-2296.456  0.00  0.00     0.013 C 
ATOM    152  CG2 ILE d   6    2218.901 674.960-2296.971  0.00  0.00     0.012 C 
BRANCH 151 153
ATOM    153  CG1 ILE d   6    2217.479 675.200-2294.895  0.00  0.00     0.002 C 
ATOM    154  CD1 ILE d   6    2217.748 673.810-2294.280  0.00  0.00     0.005 C 
ENDBRANCH 151 153
ENDBRANCH 102 151
ENDBRANCH  99 102
ENDBRANCH  97  98
BRANCH  97 155
ATOM    155  CB  LEU d   7    2214.599 675.002-2301.076  0.00  0.00     0.038 C 
BRANCH 155 156
ATOM    156  CG  LEU d   7    2214.526 673.522-2300.610  0.00  0.00    -0.020 C 
ATOM    157  CD1 LEU d   7    2213.336 672.817-2301.275  0.00  0.00     0.009 C 
ATOM    158  CD2 LEU d   7    2215.820 672.742-2300.901  0.00  0.00     0.009 C 
ENDBRANCH 155 156
ENDBRANCH  97 155
ENDBRANCH  94  97
ENDBRANCH  92  93
BRANCH  92 159
ATOM    159  CB  ASP d   8    2213.746 680.287-2300.476  0.00  0.00     0.147 C 
BRANCH 159 160
ATOM    160  CG  ASP d   8    2213.528 681.708-2301.017  0.00  0.00     0.175 C 
ATOM    161  OD1 ASP d   8    2213.593 681.906-2302.248  0.00  0.00    -0.648 OA
ATOM    162  OD2 ASP d   8    2213.337 682.634-2300.202  0.00  0.00    -0.648 OA
ENDBRANCH 159 160
ENDBRANCH  92 159
ENDBRANCH  89  92
ENDBRANCH  87  88
BRANCH  87 163
ATOM    163  CB  GLU d   9    2218.788 680.526-2298.605  0.00  0.00     0.045 C 
BRANCH 163 164
ATOM    164  CG  GLU d   9    2220.171 681.218-2298.376  0.00  0.00     0.116 C 
BRANCH 164 165
ATOM    165  CD  GLU d   9    2220.873 681.005-2297.048  0.00  0.00     0.172 C 
ATOM    166  OE1 GLU d   9    2220.351 680.315-2296.151  0.00  0.00    -0.648 OA
ATOM    167  OE2 GLU d   9    2221.992 681.543-2296.917  0.00  0.00    -0.648 OA
ENDBRANCH 164 165
ENDBRANCH 163 164
ENDBRANCH  87 163
ENDBRANCH   1  87
TORSDOF 69
