REMARK WARNING: 32 MAX_TORS EXCEEDED!!!
REMARK  67 active torsions:
REMARK  status: ('A' for Active; 'I' for Inactive)
REMARK    1  A    between atoms: N_1  and  CA_2 
REMARK    2  A    between atoms: CA_2  and  C_3 
REMARK    3  A    between atoms: CA_2  and  CB_5 
REMARK       I    between atoms: C_3  and  N_11 
REMARK    4  A    between atoms: CB_5  and  CG_6 
REMARK    5  A    between atoms: CG_6  and  CD_7 
REMARK    6  A    between atoms: N_11  and  CA_12 
REMARK    7  A    between atoms: CA_12  and  C_13 
REMARK    8  A    between atoms: CA_12  and  CB_15 
REMARK       I    between atoms: C_13  and  N_22 
REMARK    9  A    between atoms: CB_15  and  CG_16 
REMARK       I    between atoms: CG_16  and  ND2_17 
REMARK   10  A    between atoms: CA_23  and  C_24 
REMARK       I    between atoms: C_24  and  N_29 
REMARK   11  A    between atoms: N_29  and  CA_30 
REMARK   12  A    between atoms: CA_30  and  C_31 
REMARK   13  A    between atoms: CA_30  and  CB_33 
REMARK       I    between atoms: C_31  and  N_39 
REMARK   14  A    between atoms: CB_33  and  CG_34 
REMARK   15  A    between atoms: CG_34  and  CD_35 
REMARK   16  A    between atoms: N_39  and  CA_40 
REMARK   17  A    between atoms: CA_40  and  C_41 
REMARK   18  A    between atoms: CA_40  and  CB_43 
REMARK       I    between atoms: C_41  and  N_47 
REMARK   19  A    between atoms: CB_43  and  OG_44 
REMARK   20  A    between atoms: N_47  and  CA_48 
REMARK   21  A    between atoms: CA_48  and  C_49 
REMARK   22  A    between atoms: CA_48  and  CB_51 
REMARK       I    between atoms: C_49  and  N_56 
REMARK   23  A    between atoms: CB_51  and  CG1_52 
REMARK   24  A    between atoms: N_56  and  CA_57 
REMARK   25  A    between atoms: CA_57  and  C_58 
REMARK   26  A    between atoms: CA_57  and  CB_60 
REMARK       I    between atoms: C_58  and  N_65 
REMARK   27  A    between atoms: CB_60  and  CG_61 
REMARK   28  A    between atoms: N_65  and  CA_66 
REMARK   29  A    between atoms: CA_66  and  C_67 
REMARK   30  A    between atoms: CA_66  and  CB_69 
REMARK       I    between atoms: C_67  and  N_74 
REMARK   31  A    between atoms: CB_69  and  CG_70 
REMARK   32  A    between atoms: N_74  and  CA_75 
REMARK   33  A    between atoms: CA_75  and  C_76 
REMARK   34  A    between atoms: CA_75  and  CB_78 
REMARK       I    between atoms: C_76  and  N_84 
REMARK   35  A    between atoms: CB_78  and  CG_79 
REMARK   36  A    between atoms: CG_79  and  CD_80 
REMARK   37  A    between atoms: N_84  and  CA_85 
REMARK   38  A    between atoms: CA_85  and  C_86 
REMARK   39  A    between atoms: CA_85  and  CB_88 
REMARK       I    between atoms: C_86  and  N_96 
REMARK   40  A    between atoms: CB_88  and  CG_89 
REMARK   41  A    between atoms: N_96  and  CA_97 
REMARK   42  A    between atoms: CA_97  and  C_98 
REMARK   43  A    between atoms: CA_97  and  CB_100 
REMARK       I    between atoms: C_98  and  N_104 
REMARK   44  A    between atoms: N_104  and  CA_105 
REMARK   45  A    between atoms: CA_105  and  C_106 
REMARK   46  A    between atoms: CA_105  and  CB_108 
REMARK       I    between atoms: C_106  and  N_116 
REMARK   47  A    between atoms: CB_108  and  CG_109 
REMARK   48  A    between atoms: CG_109  and  CD_110 
REMARK       I    between atoms: CD_110  and  NE2_111 
REMARK   49  A    between atoms: N_116  and  CA_117 
REMARK   50  A    between atoms: CA_117  and  C_118 
REMARK   51  A    between atoms: CA_117  and  CB_120 
REMARK       I    between atoms: C_118  and  N_133 
REMARK   52  A    between atoms: CB_120  and  CG_121 
REMARK   53  A    between atoms: CG_121  and  CD_122 
REMARK   54  A    between atoms: CD_122  and  NE_123 
REMARK       I    between atoms: NE_123  and  CZ_124 
REMARK       I    between atoms: CZ_124  and  NH1_125 
REMARK       I    between atoms: CZ_124  and  NH2_126 
REMARK   55  A    between atoms: N_133  and  CA_134 
REMARK   56  A    between atoms: CA_134  and  C_135 
REMARK   57  A    between atoms: CA_134  and  CB_137 
REMARK       I    between atoms: C_135  and  N_141 
REMARK   58  A    between atoms: N_141  and  CA_142 
REMARK   59  A    between atoms: CA_142  and  C_143 
REMARK   60  A    between atoms: CA_142  and  CB_145 
REMARK       I    between atoms: C_143  and  N_157 
REMARK   61  A    between atoms: CB_145  and  CG_146 
REMARK   62  A    between atoms: N_157  and  CA_158 
REMARK   63  A    between atoms: CA_158  and  C_159 
REMARK   64  A    between atoms: CA_158  and  CB_161 
REMARK   65  A    between atoms: CB_161  and  CG_162 
REMARK   66  A    between atoms: CG_162  and  CD_163 
REMARK   67  A    between atoms: CD_163  and  NE_164 
REMARK       I    between atoms: NE_164  and  CZ_165 
REMARK       I    between atoms: CZ_165  and  NH1_166 
ROOT
ATOM      1  CA  HIS d  10    2418.580 741.914-2516.063  0.00  0.00     0.182 C 
ENDROOT
BRANCH   1   2
ATOM      2  N   HIS d  10    2417.693 742.426-2515.023  0.00  0.00    -0.346 N 
ATOM      3  C   GLU d   9    2417.597 743.701-2514.854  0.00  0.00     0.241 C 
ATOM      4  O   GLU d   9    2418.261 744.455-2515.580  0.00  0.00    -0.271 OA
ATOM      5  H   HIS d  10    2417.162 741.791-2514.444  0.00  0.00     0.163 HD
BRANCH   3   6
ATOM      6  CA  GLU d   9    2416.679 744.230-2513.778  0.00  0.00     0.177 C 
BRANCH   6   7
ATOM      7  N   GLU d   9    2415.376 743.573-2513.833  0.00  0.00    -0.346 N 
ATOM      8  C   ASP d   8    2414.696 743.622-2514.928  0.00  0.00     0.241 C 
ATOM      9  O   ASP d   8    2415.169 744.227-2515.903  0.00  0.00    -0.271 OA
ATOM     10  H   GLU d   9    2415.013 743.087-2513.026  0.00  0.00     0.163 HD
BRANCH   8  11
ATOM     11  CA  ASP d   8    2413.349 742.943-2514.985  0.00  0.00     0.186 C 
BRANCH  11  12
ATOM     12  N   ASP d   8    2413.419 741.594-2514.431  0.00  0.00    -0.346 N 
ATOM     13  C   LEU d   7    2414.256 740.753-2514.937  0.00  0.00     0.241 C 
ATOM     14  O   LEU d   7    2414.977 741.115-2515.879  0.00  0.00    -0.271 OA
ATOM     15  H   ASP d   8    2412.821 741.324-2513.663  0.00  0.00     0.163 HD
BRANCH  13  16
ATOM     16  CA  LEU d   7    2414.328 739.357-2514.364  0.00  0.00     0.177 C 
BRANCH  16  17
ATOM     17  N   LEU d   7    2414.383 739.394-2512.905  0.00  0.00    -0.346 N 
ATOM     18  C   ILE d   6    2415.329 740.057-2512.332  0.00  0.00     0.241 C 
ATOM     19  O   ILE d   6    2416.164 740.644-2513.036  0.00  0.00    -0.271 OA
ATOM     20  H   LEU d   7    2413.691 738.907-2512.354  0.00  0.00     0.163 HD
BRANCH  18  21
ATOM     21  CA  ILE d   6    2415.386 740.094-2510.824  0.00  0.00     0.180 C 
BRANCH  21  22
ATOM     22  N   ILE d   6    2414.073 740.390-2510.258  0.00  0.00    -0.346 N 
ATOM     23  C   SER d   5    2413.469 741.473-2510.612  0.00  0.00     0.243 C 
ATOM     24  O   SER d   5    2414.016 742.227-2511.417  0.00  0.00    -0.271 OA
ATOM     25  H   ILE d   6    2413.644 739.756-2509.599  0.00  0.00     0.163 HD
BRANCH  23  26
ATOM     26  CA  SER d   5    2412.110 741.779-2510.027  0.00  0.00     0.200 C 
BRANCH  26  27
ATOM     27  N   SER d   5    2411.240 740.608-2510.086  0.00  0.00    -0.344 N 
ATOM     28  C   GLU d   4    2411.013 740.056-2511.229  0.00  0.00     0.241 C 
ATOM     29  O   GLU d   4    2411.540 740.535-2512.243  0.00  0.00    -0.271 OA
ATOM     30  H   SER d   5    2410.822 740.237-2509.245  0.00  0.00     0.163 HD
BRANCH  28  31
ATOM     31  CA  GLU d   4    2410.114 738.845-2511.291  0.00  0.00     0.177 C 
BRANCH  31  32
ATOM     32  N   GLU d   4    2410.473 737.874-2510.261  0.00  0.00    -0.346 N 
ATOM     33  C   PRO d   3    2411.677 737.414-2510.228  0.00  0.00     0.241 C 
ATOM     34  O   PRO d   3    2412.501 737.797-2511.060  0.00  0.00    -0.271 OA
ATOM     35  H   GLU d   4    2409.788 737.567-2509.584  0.00  0.00     0.163 HD
BRANCH  33  36
ATOM     36  CA  PRO d   3    2412.075 736.390-2509.151  0.00  0.00     0.179 C 
ATOM     37  N   PRO d   3    2411.623 736.799-2507.830  0.00  0.00    -0.337 N 
ATOM     38  C   ASN d   2    2412.145 737.794-2507.196  0.00  0.00     0.243 C 
ATOM     39  CD  PRO d   3    2410.545 736.006-2507.281  0.00  0.00     0.127 C 
ATOM     40  O   ASN d   2    2413.060 738.424-2507.724  0.00  0.00    -0.271 OA
ATOM     41  CG  PRO d   3    2410.087 735.188-2508.491  0.00  0.00     0.022 C 
ATOM     42  CB  PRO d   3    2411.371 735.035-2509.321  0.00  0.00     0.037 C 
BRANCH  38  43
ATOM     43  CA  ASN d   2    2411.613 738.150-2505.827  0.00  0.00     0.185 C 
BRANCH  43  44
ATOM     44  N   ASN d   2    2410.154 738.189-2505.827  0.00  0.00    -0.346 N 
ATOM     45  C   GLU d   1    2409.549 738.975-2506.652  0.00  0.00     0.242 C 
ATOM     46  O   GLU d   1    2410.225 739.674-2507.421  0.00  0.00    -0.271 OA
ATOM     47  H   ASN d   2    2409.625 737.609-2505.191  0.00  0.00     0.163 HD
BRANCH  45  48
ATOM     48  CA  GLU d   1    2408.040 739.015-2506.652  0.00  0.00     0.191 C 
BRANCH  48  49
ATOM     49  N   GLU d   1    2407.481 737.666-2506.652  0.00  0.00    -0.326 NA
ATOM     50  H   GLU d   1    2408.108 736.787-2506.652  0.00  0.00     0.180 HD
ENDBRANCH  48  49
BRANCH  48  51
ATOM     51  CB  GLU d   1    2407.517 739.800-2505.416  0.00  0.00     0.047 C 
BRANCH  51  52
ATOM     52  CG  GLU d   1    2407.992 741.285-2505.304  0.00  0.00     0.116 C 
BRANCH  52  53
ATOM     53  CD  GLU d   1    2407.568 742.089-2504.089  0.00  0.00     0.172 C 
ATOM     54  OE1 GLU d   1    2406.840 741.587-2503.211  0.00  0.00    -0.648 OA
ATOM     55  OE2 GLU d   1    2407.998 743.259-2504.017  0.00  0.00    -0.648 OA
ENDBRANCH  52  53
ENDBRANCH  51  52
ENDBRANCH  48  51
ENDBRANCH  45  48
ENDBRANCH  43  44
BRANCH  43  56
ATOM     56  CB  ASN d   2    2412.105 737.127-2504.762  0.00  0.00     0.137 C 
BRANCH  56  57
ATOM     57  CG  ASN d   2    2411.641 737.351-2503.319  0.00  0.00     0.217 C 
ATOM     58  ND2 ASN d   2    2412.235 738.265-2502.601  0.00  0.00    -0.370 N 
ATOM     59 21HD ASN d   2    2411.754 738.439-2501.715  0.00  0.00     0.159 HD
ATOM     60 22HD ASN d   2    2412.937 738.837-2503.070  0.00  0.00     0.159 HD
ATOM     61  OD1 ASN d   2    2410.720 736.717-2502.825  0.00  0.00    -0.274 OA
ENDBRANCH  56  57
ENDBRANCH  43  56
ENDBRANCH  38  43
ENDBRANCH  33  36
ENDBRANCH  31  32
BRANCH  31  62
ATOM     62  CB  GLU d   4    2408.625 739.264-2511.121  0.00  0.00     0.045 C 
BRANCH  62  63
ATOM     63  CG  GLU d   4    2408.078 740.268-2512.187  0.00  0.00     0.116 C 
BRANCH  63  64
ATOM     64  CD  GLU d   4    2406.651 740.765-2512.044  0.00  0.00     0.172 C 
ATOM     65  OE1 GLU d   4    2405.924 740.367-2511.113  0.00  0.00    -0.648 OA
ATOM     66  OE2 GLU d   4    2406.262 741.594-2512.892  0.00  0.00    -0.648 OA
ENDBRANCH  63  64
ENDBRANCH  62  63
ENDBRANCH  31  62
ENDBRANCH  28  31
ENDBRANCH  26  27
BRANCH  26  67
ATOM     67  CB  SER d   5    2412.221 742.311-2508.577  0.00  0.00     0.199 C 
BRANCH  67  68
ATOM     68  OG  SER d   5    2412.952 741.432-2507.716  0.00  0.00    -0.398 OA
ATOM     69  HG  SER d   5    2412.463 740.607-2507.665  0.00  0.00     0.209 HD
ENDBRANCH  67  68
ENDBRANCH  26  67
ENDBRANCH  23  26
ENDBRANCH  21  22
BRANCH  21  70
ATOM     70  CB  ILE d   6    2415.985 738.758-2510.224  0.00  0.00     0.013 C 
ATOM     71  CG2 ILE d   6    2417.426 738.456-2510.739  0.00  0.00     0.012 C 
BRANCH  70  72
ATOM     72  CG1 ILE d   6    2416.004 738.696-2508.663  0.00  0.00     0.002 C 
ATOM     73  CD1 ILE d   6    2416.273 737.307-2508.048  0.00  0.00     0.005 C 
ENDBRANCH  70  72
ENDBRANCH  21  70
ENDBRANCH  18  21
ENDBRANCH  16  17
BRANCH  16  74
ATOM     74  CB  LEU d   7    2413.125 738.498-2514.844  0.00  0.00     0.038 C 
BRANCH  74  75
ATOM     75  CG  LEU d   7    2413.051 737.018-2514.378  0.00  0.00    -0.020 C 
ATOM     76  CD1 LEU d   7    2411.861 736.313-2515.043  0.00  0.00     0.009 C 
ATOM     77  CD2 LEU d   7    2414.345 736.239-2514.669  0.00  0.00     0.009 C 
ENDBRANCH  74  75
ENDBRANCH  16  74
ENDBRANCH  13  16
ENDBRANCH  11  12
BRANCH  11  78
ATOM     78  CB  ASP d   8    2412.271 743.783-2514.244  0.00  0.00     0.147 C 
BRANCH  78  79
ATOM     79  CG  ASP d   8    2412.053 745.204-2514.785  0.00  0.00     0.175 C 
ATOM     80  OD1 ASP d   8    2412.118 745.402-2516.016  0.00  0.00    -0.648 OA
ATOM     81  OD2 ASP d   8    2411.862 746.130-2513.970  0.00  0.00    -0.648 OA
ENDBRANCH  78  79
ENDBRANCH  11  78
ENDBRANCH   8  11
ENDBRANCH   6   7
BRANCH   6  82
ATOM     82  CB  GLU d   9    2417.313 744.022-2512.373  0.00  0.00     0.045 C 
BRANCH  82  83
ATOM     83  CG  GLU d   9    2418.696 744.714-2512.144  0.00  0.00     0.116 C 
BRANCH  83  84
ATOM     84  CD  GLU d   9    2419.398 744.501-2510.816  0.00  0.00     0.172 C 
ATOM     85  OE1 GLU d   9    2418.876 743.811-2509.919  0.00  0.00    -0.648 OA
ATOM     86  OE2 GLU d   9    2420.517 745.039-2510.685  0.00  0.00    -0.648 OA
ENDBRANCH  83  84
ENDBRANCH  82  83
ENDBRANCH   6  82
ENDBRANCH   3   6
ENDBRANCH   1   2
BRANCH   1  87
ATOM     87  C   HIS d  10    2418.213 742.478-2517.415  0.00  0.00     0.241 C 
ATOM     88  O   HIS d  10    2419.066 742.942-2518.187  0.00  0.00    -0.271 OA
ATOM     89  N   VAL d  11    2416.975 742.477-2517.778  0.00  0.00    -0.346 N 
ATOM     90  H   VAL d  11    2416.262 742.105-2517.167  0.00  0.00     0.163 HD
BRANCH  89  91
ATOM     91  CA  VAL d  11    2416.620 743.023-2519.085  0.00  0.00     0.180 C 
BRANCH  91  92
ATOM     92  C   VAL d  11    2417.085 744.453-2519.218  0.00  0.00     0.241 C 
ATOM     93  O   VAL d  11    2417.687 744.857-2520.221  0.00  0.00    -0.271 OA
ATOM     94  N   GLN d  12    2416.849 745.279-2518.256  0.00  0.00    -0.346 N 
ATOM     95  H   GLN d  12    2416.360 744.974-2517.427  0.00  0.00     0.163 HD
BRANCH  94  96
ATOM     96  CA  GLN d  12    2417.298 746.662-2518.384  0.00  0.00     0.177 C 
BRANCH  96  97
ATOM     97  C   GLN d  12    2418.788 746.728-2518.622  0.00  0.00     0.241 C 
ATOM     98  O   GLN d  12    2419.275 747.436-2519.501  0.00  0.00    -0.271 OA
ATOM     99  N   ARG d  13    2419.573 746.022-2517.881  0.00  0.00    -0.346 N 
ATOM    100  H   ARG d  13    2419.196 745.432-2517.152  0.00  0.00     0.163 HD
BRANCH  99 101
ATOM    101  CA  ARG d  13    2421.013 746.087-2518.112  0.00  0.00     0.176 C 
BRANCH 101 102
ATOM    102  C   ARG d  13    2421.349 745.714-2519.537  0.00  0.00     0.241 C 
ATOM    103  O   ARG d  13    2422.117 746.385-2520.222  0.00  0.00    -0.271 OA
ATOM    104  N   VAL d  14    2420.812 744.660-2520.051  0.00  0.00    -0.346 N 
ATOM    105  H   VAL d  14    2420.177 744.091-2519.508  0.00  0.00     0.163 HD
BRANCH 104 106
ATOM    106  CA  VAL d  14    2421.136 744.299-2521.428  0.00  0.00     0.180 C 
BRANCH 106 107
ATOM    107  C   VAL d  14    2420.807 745.429-2522.374  0.00  0.00     0.241 C 
ATOM    108  O   VAL d  14    2421.600 745.810-2523.244  0.00  0.00    -0.271 OA
ATOM    109  N   TRP d  15    2419.662 746.015-2522.272  0.00  0.00    -0.346 N 
ATOM    110  H   TRP d  15    2418.997 745.723-2521.570  0.00  0.00     0.163 HD
BRANCH 109 111
ATOM    111  CA  TRP d  15    2419.342 747.108-2523.186  0.00  0.00     0.181 C 
BRANCH 111 112
ATOM    112  C   TRP d  15    2420.374 748.208-2523.098  0.00  0.00     0.241 C 
ATOM    113  O   TRP d  15    2420.874 748.714-2524.102  0.00  0.00    -0.271 OA
ATOM    114  N   ARG d  16    2420.743 748.628-2521.936  0.00  0.00    -0.347 N 
ATOM    115  H   ARG d  16    2420.347 748.229-2521.097  0.00  0.00     0.163 HD
BRANCH 114 116
ATOM    116  CA  ARG d  16    2421.740 749.691-2521.852  0.00  0.00     0.162 C 
BRANCH 116 117
ATOM    117  C   ARG d  16    2423.011 749.298-2522.567  0.00  0.00     0.219 C 
ATOM    118  O   ARG d  16    2423.124 748.221-2523.149  0.00  0.00    -0.287 OA
ENDBRANCH 116 117
BRANCH 116 119
ATOM    119  CB  ARG d  16    2422.009 750.009-2520.353  0.00  0.00     0.035 C 
BRANCH 119 120
ATOM    120  CG  ARG d  16    2422.835 751.297-2520.080  0.00  0.00     0.023 C 
BRANCH 120 121
ATOM    121  CD  ARG d  16    2423.084 751.517-2518.579  0.00  0.00     0.138 C 
BRANCH 121 122
ATOM    122  NE  ARG d  16    2423.862 752.775-2518.377  0.00  0.00    -0.227 N 
ATOM    123  CZ  ARG d  16    2424.253 753.257-2517.202  0.00  0.00     0.665 C 
ATOM    124  NH1 ARG d  16    2424.004 752.672-2516.063  0.00  0.00    -0.235 N 
ATOM    125  NH2 ARG d  16    2424.918 754.369-2517.183  0.00  0.00    -0.235 N 
ATOM    126 11HH ARG d  16    2423.478 751.800-2516.148  0.00  0.00     0.174 HD
ATOM    127 12HH ARG d  16    2424.339 753.108-2515.202  0.00  0.00     0.174 HD
ATOM    128 21HH ARG d  16    2425.104 754.812-2518.085  0.00  0.00     0.174 HD
ATOM    129 22HH ARG d  16    2425.208 754.724-2516.270  0.00  0.00     0.174 HD
ATOM    130  HE  ARG d  16    2424.141 753.356-2519.175  0.00  0.00     0.177 HD
ENDBRANCH 121 122
ENDBRANCH 120 121
ENDBRANCH 119 120
ENDBRANCH 116 119
ENDBRANCH 114 116
ENDBRANCH 111 112
BRANCH 111 131
ATOM    131  CB  TRP d  15    2417.939 747.674-2522.831  0.00  0.00     0.075 C 
BRANCH 131 132
ATOM    132  CG  TRP d  15    2416.778 746.705-2523.068  0.00  0.00    -0.028 A 
ATOM    133  CD2 TRP d  15    2416.166 746.378-2524.260  0.00  0.00    -0.002 A 
ATOM    134  CE3 TRP d  15    2416.374 746.847-2525.583  0.00  0.00     0.014 A 
ATOM    135  CE2 TRP d  15    2415.204 745.373-2523.994  0.00  0.00     0.042 A 
ATOM    136  CZ3 TRP d  15    2415.595 746.307-2526.607  0.00  0.00     0.001 A 
ATOM    137  CH2 TRP d  15    2414.636 745.318-2526.345  0.00  0.00     0.002 A 
ATOM    138  CZ2 TRP d  15    2414.433 744.837-2525.049  0.00  0.00     0.030 A 
ATOM    139  NE1 TRP d  15    2415.191 745.049-2522.646  0.00  0.00    -0.365 N 
ATOM    140  CD1 TRP d  15    2416.178 745.885-2522.089  0.00  0.00     0.096 A 
ATOM    141  1HE TRP d  15    2414.628 744.331-2522.177  0.00  0.00     0.165 HD
ENDBRANCH 131 132
ENDBRANCH 111 131
ENDBRANCH 109 111
ENDBRANCH 106 107
BRANCH 106 142
ATOM    142  CB  VAL d  14    2420.364 742.982-2521.834  0.00  0.00     0.009 C 
ATOM    143  CG1 VAL d  14    2420.452 742.563-2523.327  0.00  0.00     0.012 C 
ATOM    144  CG2 VAL d  14    2420.795 741.730-2521.033  0.00  0.00     0.012 C 
ENDBRANCH 106 142
ENDBRANCH 104 106
ENDBRANCH 101 102
BRANCH 101 145
ATOM    145  CB  ARG d  13    2421.726 745.148-2517.098  0.00  0.00     0.036 C 
BRANCH 145 146
ATOM    146  CG  ARG d  13    2423.271 745.301-2517.017  0.00  0.00     0.023 C 
BRANCH 146 147
ATOM    147  CD  ARG d  13    2423.898 744.314-2516.019  0.00  0.00     0.138 C 
BRANCH 147 148
ATOM    148  NE  ARG d  13    2425.375 744.521-2515.969  0.00  0.00    -0.227 N 
ATOM    149  CZ  ARG d  13    2426.224 743.830-2515.214  0.00  0.00     0.665 C 
ATOM    150  NH1 ARG d  13    2425.859 742.866-2514.415  0.00  0.00    -0.235 N 
ATOM    151  NH2 ARG d  13    2427.483 744.128-2515.271  0.00  0.00    -0.235 N 
ATOM    152 11HH ARG d  13    2424.853 742.680-2514.418  0.00  0.00     0.174 HD
ATOM    153 12HH ARG d  13    2426.572 742.383-2513.866  0.00  0.00     0.174 HD
ATOM    154 21HH ARG d  13    2427.751 744.886-2515.903  0.00  0.00     0.174 HD
ATOM    155 22HH ARG d  13    2428.119 743.587-2514.682  0.00  0.00     0.174 HD
ATOM    156  HE  ARG d  13    2425.827 745.242-2516.541  0.00  0.00     0.177 HD
ENDBRANCH 147 148
ENDBRANCH 146 147
ENDBRANCH 145 146
ENDBRANCH 101 145
ENDBRANCH  99 101
ENDBRANCH  96  97
BRANCH  96 157
ATOM    157  CB  GLN d  12    2416.908 747.430-2517.102  0.00  0.00     0.044 C 
BRANCH 157 158
ATOM    158  CG  GLN d  12    2417.269 748.952-2517.071  0.00  0.00     0.105 C 
BRANCH 158 159
ATOM    159  CD  GLN d  12    2416.968 749.766-2515.807  0.00  0.00     0.215 C 
ATOM    160  NE2 GLN d  12    2416.401 749.191-2514.778  0.00  0.00    -0.370 N 
ATOM    161 21HE GLN d  12    2416.294 749.786-2513.954  0.00  0.00     0.159 HD
ATOM    162 22HE GLN d  12    2416.236 748.187-2514.880  0.00  0.00     0.159 HD
ATOM    163  OE1 GLN d  12    2417.270 750.947-2515.730  0.00  0.00    -0.274 OA
ENDBRANCH 158 159
ENDBRANCH 157 158
ENDBRANCH  96 157
ENDBRANCH  94  96
ENDBRANCH  91  92
BRANCH  91 164
ATOM    164  CB  VAL d  11    2415.059 742.917-2519.304  0.00  0.00     0.009 C 
ATOM    165  CG1 VAL d  11    2414.490 743.620-2520.567  0.00  0.00     0.012 C 
ATOM    166  CG2 VAL d  11    2414.534 741.463-2519.376  0.00  0.00     0.012 C 
ENDBRANCH  91 164
ENDBRANCH  89  91
ENDBRANCH   1  87
BRANCH   1 167
ATOM    167  CB  HIS d  10    2418.416 740.385-2516.058  0.00  0.00     0.095 C 
BRANCH 167 168
ATOM    168  CG  HIS d  10    2419.701 739.674-2515.750  0.00  0.00     0.053 A 
ATOM    169  CD2 HIS d  10    2420.082 739.339-2514.457  0.00  0.00     0.116 A 
ATOM    170  NE2 HIS d  10    2421.297 738.707-2514.524  0.00  0.00    -0.359 N 
ATOM    171  CE1 HIS d  10    2421.559 738.709-2515.859  0.00  0.00     0.207 A 
ATOM    172  2HE HIS d  10    2421.864 738.330-2513.751  0.00  0.00     0.166 HD
ATOM    173  ND1 HIS d  10    2420.652 739.267-2516.682  0.00  0.00    -0.247 NA
ENDBRANCH 167 168
ENDBRANCH   1 167
TORSDOF 67
