@<TRIPOS>MOLECULE
9-3
257 258 16              
SMALL
USER_CHARGES
@<TRIPOS>ATOM
1	   N	1369.625	399.566	-1377.890	N.3	1	GLU1	-0.516	
2	  CA	1370.184	400.915	-1377.890	C.3	1	GLU1	0.040	
3	   C	1371.693	400.875	-1377.890	C.2	1	GLU1	0.537	
4	   O	1372.369	401.574	-1378.658	O.2	1	GLU1	-0.582	
5	  CB	1369.661	401.700	-1376.653	C.3	1	GLU1	0.056	
6	  CG	1370.136	403.185	-1376.542	C.3	1	GLU1	0.014	
7	  CD	1369.712	403.989	-1375.327	C.2	1	GLU1	0.805	
8	 OE1	1368.984	403.487	-1374.449	O.co2	1	GLU1	-0.819	
9	 OE2	1370.142	405.159	-1375.255	O.co2	1	GLU1	-0.819	
10	   H	1370.252	398.687	-1377.890	 H	1	GLU1	0.294	
11	  HA	1369.858	401.433	-1378.810	 H	1	GLU1	0.111	
12	 2HB	1369.950	401.169	-1375.723	 H	1	GLU1	-0.017	
13	 3HB	1368.554	401.690	-1376.640	 H	1	GLU1	-0.017	
14	 2HG	1369.826	403.770	-1377.423	 H	1	GLU1	-0.043	
15	 3HG	1371.236	403.252	-1376.513	 H	1	GLU1	-0.043	
16	   N	1372.297	400.089	-1377.065	N.am	2	ASN2	-0.416	
17	  CA	1373.757	400.050	-1377.065	C.3	2	ASN2	0.014	
18	   C	1374.288	399.695	-1378.433	C.2	2	ASN2	0.597	
19	   O	1375.203	400.325	-1378.962	O.2	2	ASN2	-0.568	
20	  CB	1374.249	399.027	-1376.000	C.3	2	ASN2	-0.204	
21	  CG	1373.786	399.251	-1374.557	C.2	2	ASN2	0.713	
22	 ND2	1374.380	400.166	-1373.839	N.pl3	2	ASN2	-0.919	
23	 OD1	1372.865	398.617	-1374.063	O.2	2	ASN2	-0.593	
24	   H	1371.769	399.509	-1376.428	 H	2	ASN2	0.272	
25	  HA	1374.134	401.060	-1376.819	 H	2	ASN2	0.105	
26	 2HB	1375.353	398.968	-1376.004	 H	2	ASN2	0.080	
27	 3HB	1373.920	398.009	-1376.286	 H	2	ASN2	0.080	
28	1HD2	1373.899	400.339	-1372.952	 H	2	ASN2	0.420	
29	2HD2	1375.082	400.738	-1374.308	 H	2	ASN2	0.420	
30	   N	1373.766	398.700	-1379.068	N.am	3	PRO3	-0.255	
31	  CA	1374.218	398.290	-1380.389	C.3	3	PRO3	-0.027	
32	   C	1373.820	399.314	-1381.466	C.2	3	PRO3	0.590	
33	   O	1374.643	399.697	-1382.297	O.2	3	PRO3	-0.575	
34	  CB	1373.514	396.936	-1380.558	C.3	3	PRO3	-0.007	
35	  CG	1372.231	397.088	-1379.728	C.3	3	PRO3	0.019	
36	  CD	1372.688	397.906	-1378.518	C.3	3	PRO3	0.019	
37	  HA	1375.304	398.170	-1380.403	 H	3	PRO3	0.064	
38	 2HB	1374.137	396.154	-1380.118	 H	3	PRO3	0.025	
39	 3HB	1373.316	396.687	-1381.604	 H	3	PRO3	0.025	
40	 2HG	1371.803	396.125	-1379.437	 H	3	PRO3	0.021	
41	 3HG	1371.493	397.659	-1380.295	 H	3	PRO3	0.021	
42	 2HD	1373.078	397.257	-1377.731	 H	3	PRO3	0.039	
43	 3HD	1371.892	398.542	-1378.125	 H	3	PRO3	0.039	
44	   N	1372.615	399.774	-1381.498	N.am	4	GLU4	-0.516	
45	  CA	1372.255	400.745	-1382.528	C.3	4	GLU4	0.040	
46	   C	1373.154	401.956	-1382.467	C.2	4	GLU4	0.537	
47	   O	1373.680	402.436	-1383.481	O.2	4	GLU4	-0.582	
48	  CB	1370.767	401.163	-1382.357	C.3	4	GLU4	0.056	
49	  CG	1370.218	402.167	-1383.423	C.3	4	GLU4	0.014	
50	  CD	1368.792	402.664	-1383.279	C.2	4	GLU4	0.805	
51	 OE1	1368.066	402.265	-1382.348	O.co2	4	GLU4	-0.819	
52	 OE2	1368.402	403.493	-1384.127	O.co2	4	GLU4	-0.819	
53	   H	1371.931	399.467	-1380.821	 H	4	GLU4	0.294	
54	  HA	1372.386	400.274	-1383.519	 H	4	GLU4	0.111	
55	 2HB	1370.614	401.603	-1381.350	 H	4	GLU4	-0.017	
56	 3HB	1370.119	400.266	-1382.363	 H	4	GLU4	-0.017	
57	 2HG	1370.300	401.752	-1384.440	 H	4	GLU4	-0.043	
58	 3HG	1370.806	403.099	-1383.434	 H	4	GLU4	-0.043	
59	   N	1373.382	402.509	-1381.323	N.am	5	SER5	-0.416	
60	  CA	1374.251	403.680	-1381.265	C.3	5	SER5	-0.025	
61	   C	1375.610	403.375	-1381.851	C.2	5	SER5	0.597	
62	   O	1376.157	404.128	-1382.656	O.2	5	SER5	-0.568	
63	  CB	1374.363	404.212	-1379.814	C.3	5	SER5	0.212	
64	  OG	1375.095	403.333	-1378.954	O.3	5	SER5	-0.655	
65	   H	1372.965	402.137	-1380.482	 H	5	SER5	0.272	
66	  HA	1373.802	404.470	-1381.894	 H	5	SER5	0.084	
67	 2HB	1373.363	404.406	-1379.381	 H	5	SER5	0.035	
68	 3HB	1374.868	405.198	-1379.817	 H	5	SER5	0.035	
69	  HG	1374.606	402.508	-1378.903	 H	5	SER5	0.428	
70	   N	1376.215	402.292	-1381.497	N.am	6	ILE6	-0.416	
71	  CA	1377.528	401.997	-1382.063	C.3	6	ILE6	-0.060	
72	   C	1377.470	401.960	-1383.571	C.2	6	ILE6	0.597	
73	   O	1378.305	402.547	-1384.275	O.2	6	ILE6	-0.568	
74	  CB	1378.128	400.661	-1381.464	C.3	6	ILE6	0.130	
75	 CG1	1378.147	400.598	-1379.902	C.3	6	ILE6	-0.043	
76	 CG2	1379.569	400.359	-1381.979	C.3	6	ILE6	-0.320	
77	 CD1	1378.417	399.209	-1379.288	C.3	6	ILE6	-0.066	
78	   H	1375.786	401.657	-1380.838	 H	6	ILE6	0.272	
79	  HA	1378.202	402.831	-1381.795	 H	6	ILE6	0.087	
80	  HB	1377.470	399.835	-1381.808	 H	6	ILE6	0.019	
81	2HG1	1377.165	400.918	-1379.507	 H	6	ILE6	0.024	
82	3HG1	1378.863	401.340	-1379.498	 H	6	ILE6	0.024	
83	1HG2	1379.628	400.266	-1383.077	 H	6	ILE6	0.088	
84	2HG2	1380.291	401.142	-1381.677	 H	6	ILE6	0.088	
85	3HG2	1379.959	399.397	-1381.600	 H	6	ILE6	0.088	
86	1HD1	1377.689	398.455	-1379.642	 H	6	ILE6	0.019	
87	2HD1	1379.428	398.831	-1379.524	 H	6	ILE6	0.019	
88	3HD1	1378.341	399.239	-1378.185	 H	6	ILE6	0.019	
89	   N	1376.525	401.296	-1384.145	N.am	7	LEU7	-0.416	
90	  CA	1376.469	401.260	-1385.603	C.3	7	LEU7	-0.052	
91	   C	1376.397	402.656	-1386.175	C.2	7	LEU7	0.597	
92	   O	1377.117	403.019	-1387.117	O.2	7	LEU7	-0.568	
93	  CB	1375.266	400.400	-1386.084	C.3	7	LEU7	-0.110	
94	  CG	1375.194	398.921	-1385.617	C.3	7	LEU7	0.353	
95	 CD1	1374.004	398.215	-1386.283	C.3	7	LEU7	-0.412	
96	 CD2	1376.487	398.142	-1385.909	C.3	7	LEU7	-0.412	
97	   H	1375.833	400.809	-1383.593	 H	7	LEU7	0.272	
98	  HA	1377.411	400.820	-1385.978	 H	7	LEU7	0.092	
99	 2HB	1375.243	400.416	-1387.191	 H	7	LEU7	0.046	
100	 3HB	1374.327	400.903	-1385.779	 H	7	LEU7	0.046	
101	  HG	1375.024	398.912	-1384.520	 H	7	LEU7	-0.036	
102	1HD1	1373.047	398.724	-1386.060	 H	7	LEU7	0.100	
103	2HD1	1374.103	398.175	-1387.384	 H	7	LEU7	0.100	
104	3HD1	1373.897	397.174	-1385.927	 H	7	LEU7	0.100	
105	1HD2	1376.762	398.172	-1386.979	 H	7	LEU7	0.100	
106	2HD2	1377.341	398.553	-1385.338	 H	7	LEU7	0.100	
107	3HD2	1376.406	397.079	-1385.613	 H	7	LEU7	0.100	
108	   N	1375.560	403.496	-1385.669	N.am	8	ASP8	-0.516	
109	  CA	1375.489	404.846	-1386.222	C.3	8	ASP8	0.038	
110	   C	1376.836	405.526	-1386.164	C.2	8	ASP8	0.537	
111	   O	1377.308	406.131	-1387.139	O.2	8	ASP8	-0.582	
112	  CB	1374.411	405.685	-1385.480	C.3	8	ASP8	-0.030	
113	  CG	1374.192	407.106	-1386.020	C.2	8	ASP8	0.799	
114	 OD1	1374.256	407.305	-1387.250	O.co2	8	ASP8	-0.801	
115	 OD2	1374.000	408.031	-1385.204	O.co2	8	ASP8	-0.801	
116	   H	1374.962	403.225	-1384.901	 H	8	ASP8	0.294	
117	  HA	1375.206	404.768	-1387.289	 H	8	ASP8	0.088	
118	 2HB	1374.668	405.768	-1384.408	 H	8	ASP8	-0.012	
119	 3HB	1373.432	405.179	-1385.513	 H	8	ASP8	-0.012	
120	   N	1377.516	405.476	-1385.069	N.am	9	GLY9	-0.416	
121	  CA	1378.818	406.133	-1385.014	C.3	9	GLY9	-0.025	
122	   C	1379.736	405.606	-1386.090	C.2	9	GLY9	0.597	
123	   O	1380.397	406.357	-1386.812	O.2	9	GLY9	-0.568	
124	   H	1377.152	404.989	-1384.262	 H	9	GLY9	0.272	
125	 3HA	1379.243	405.946	-1384.072	 H	9	GLY9	0.070	
126	  HA	1378.681	407.217	-1385.186	 H	9	GLY9	0.070	
127	   N	1379.833	404.331	-1386.260	N.am	10	HIS10	-0.416	
128	  CA	1380.721	403.820	-1387.300	C.3	10	HIS10	-0.058	
129	   C	1380.353	404.384	-1388.651	C.2	10	HIS10	0.597	
130	   O	1381.205	404.849	-1389.423	O.2	10	HIS10	-0.568	
131	  CB	1380.557	402.291	-1387.295	C.3	10	HIS10	-0.007	
132	  CG	1381.843	401.581	-1386.987	C.2	10	HIS10	0.187	
133	 CD2	1382.224	401.246	-1385.695	C.2	10	HIS10	-0.221	
134	 ND1	1382.795	401.175	-1387.920	N.2	10	HIS10	-0.543	
135	 CE1	1383.701	400.617	-1387.097	C.2	10	HIS10	0.163	
136	 NE2	1383.439	400.614	-1385.762	N.pl3	10	HIS10	-0.280	
137	   H	1379.302	403.695	-1385.681	 H	10	HIS10	0.272	
138	  HA	1381.740	404.177	-1387.075	 H	10	HIS10	0.136	
139	 2HB	1380.192	401.924	-1388.275	 H	10	HIS10	0.037	
140	 3HB	1379.802	401.954	-1386.555	 H	10	HIS10	0.037	
141	 2HD	1381.638	401.461	-1384.806	 H	10	HIS10	0.186	
142	 1HE	1384.592	400.197	-1387.544	 H	10	HIS10	0.144	
143	 2HE	1384.006	400.237	-1384.989	 H	10	HIS10	0.334	
144	   N	1379.115	404.383	-1389.014	N.am	11	VAL11	-0.416	
145	  CA	1378.760	404.929	-1390.320	C.3	11	VAL11	-0.087	
146	   C	1379.224	406.360	-1390.453	C.2	11	VAL11	0.597	
147	   O	1379.825	406.766	-1391.456	O.2	11	VAL11	-0.568	
148	  CB	1377.199	404.823	-1390.539	C.3	11	VAL11	0.299	
149	 CG1	1376.629	405.527	-1391.802	C.3	11	VAL11	-0.319	
150	 CG2	1376.674	403.368	-1390.612	C.3	11	VAL11	-0.319	
151	   H	1378.403	404.010	-1388.403	 H	11	VAL11	0.272	
152	  HA	1379.279	404.347	-1391.103	 H	11	VAL11	0.097	
153	  HB	1376.711	405.302	-1389.663	 H	11	VAL11	-0.030	
154	1HG1	1377.068	405.135	-1392.739	 H	11	VAL11	0.079	
155	2HG1	1375.531	405.419	-1391.883	 H	11	VAL11	0.079	
156	3HG1	1376.807	406.619	-1391.792	 H	11	VAL11	0.079	
157	1HG2	1376.964	402.781	-1389.722	 H	11	VAL11	0.079	
158	2HG2	1375.568	403.331	-1390.655	 H	11	VAL11	0.079	
159	3HG2	1377.056	402.828	-1391.499	 H	11	VAL11	0.079	
160	   N	1378.987	407.186	-1389.490	N.am	12	GLN12	-0.416	
161	  CA	1379.435	408.569	-1389.617	C.3	12	GLN12	-0.003	
162	   C	1380.925	408.637	-1389.855	C.2	12	GLN12	0.597	
163	   O	1381.412	409.345	-1390.734	O.2	12	GLN12	-0.568	
164	  CB	1379.044	409.336	-1388.334	C.3	12	GLN12	-0.004	
165	  CG	1379.404	410.858	-1388.303	C.3	12	GLN12	-0.064	
166	  CD	1379.101	411.671	-1387.037	C.2	12	GLN12	0.695	
167	 NE2	1378.535	411.094	-1386.009	N.pl3	12	GLN12	-0.941	
168	 OE1	1379.403	412.852	-1386.960	O.2	12	GLN12	-0.609	
169	   H	1378.498	406.879	-1388.661	 H	12	GLN12	0.272	
170	  HA	1378.935	409.025	-1390.492	 H	12	GLN12	0.085	
171	 2HB	1379.520	408.836	-1387.465	 H	12	GLN12	0.017	
172	 3HB	1377.954	409.228	-1388.171	 H	12	GLN12	0.017	
173	 2HG	1378.926	411.379	-1389.153	 H	12	GLN12	0.035	
174	 3HG	1380.487	411.000	-1388.469	 H	12	GLN12	0.035	
175	1HE2	1378.427	411.688	-1385.185	 H	12	GLN12	0.425	
176	2HE2	1378.371	410.091	-1386.112	 H	12	GLN12	0.425	
177	   N	1381.710	407.930	-1389.115	N.am	13	ARG13	-0.348	
178	  CA	1383.150	407.996	-1389.346	C.3	13	ARG13	-0.264	
179	   C	1383.486	407.625	-1390.771	C.2	13	ARG13	0.734	
180	   O	1384.254	408.297	-1391.455	O.2	13	ARG13	-0.589	
181	  CB	1383.864	407.057	-1388.332	C.3	13	ARG13	-0.001	
182	  CG	1385.409	407.211	-1388.251	C.3	13	ARG13	0.039	
183	  CD	1386.036	406.223	-1387.254	C.3	13	ARG13	0.049	
184	  NE	1387.514	406.431	-1387.204	N.pl3	13	ARG13	-0.530	
185	  CZ	1388.362	405.739	-1386.449	C.cat	13	ARG13	0.808	
186	 NH1	1387.997	404.775	-1385.652	N.pl3	13	ARG13	-0.863	
187	 NH2	1389.621	406.039	-1386.506	N.pl3	13	ARG13	-0.863	
188	   H	1381.334	407.340	-1388.386	 H	13	ARG13	0.275	
189	  HA	1383.474	409.042	-1389.187	 H	13	ARG13	0.156	
190	 2HB	1383.598	406.007	-1388.572	 H	13	ARG13	0.033	
191	 3HB	1383.439	407.223	-1387.321	 H	13	ARG13	0.033	
192	 2HG	1385.656	408.256	-1387.972	 H	13	ARG13	0.029	
193	 3HG	1385.859	407.055	-1389.253	 H	13	ARG13	0.029	
194	 2HD	1385.792	405.183	-1387.563	 H	13	ARG13	0.069	
195	 3HD	1385.580	406.368	-1386.251	 H	13	ARG13	0.069	
196	  HE	1387.964	407.153	-1387.775	 H	13	ARG13	0.346	
197	1HH1	1386.992	404.588	-1385.655	 H	13	ARG13	0.448	
198	2HH1	1388.711	404.292	-1385.104	 H	13	ARG13	0.448	
199	1HH2	1389.888	406.797	-1387.137	 H	13	ARG13	0.448	
200	2HH2	1390.257	405.497	-1385.918	 H	13	ARG13	0.448	
201	   N	1382.950	406.571	-1391.285	N.am	14	VAL14	-0.416	
202	  CA	1383.274	406.212	-1392.663	C.3	14	VAL14	-0.087	
203	   C	1382.944	407.342	-1393.608	C.2	14	VAL14	0.597	
204	   O	1383.737	407.723	-1394.478	O.2	14	VAL14	-0.568	
205	  CB	1382.502	404.895	-1393.070	C.3	14	VAL14	0.299	
206	 CG1	1382.591	404.477	-1394.563	C.3	14	VAL14	-0.319	
207	 CG2	1382.934	403.642	-1392.270	C.3	14	VAL14	-0.319	
208	   H	1382.315	406.002	-1390.743	 H	14	VAL14	0.272	
209	  HA	1384.363	406.035	-1392.738	 H	14	VAL14	0.097	
210	  HB	1381.426	405.065	-1392.853	 H	14	VAL14	-0.030	
211	1HG1	1383.632	404.300	-1394.893	 H	14	VAL14	0.079	
212	2HG1	1382.018	403.553	-1394.776	 H	14	VAL14	0.079	
213	3HG1	1382.161	405.239	-1395.241	 H	14	VAL14	0.079	
214	1HG2	1382.848	403.801	-1391.179	 H	14	VAL14	0.079	
215	2HG2	1382.299	402.766	-1392.502	 H	14	VAL14	0.079	
216	3HG2	1383.982	403.353	-1392.476	 H	14	VAL14	0.079	
217	   N	1381.799	407.928	-1393.506	N.am	15	MET15	-0.416	
218	  CA	1381.478	409.020	-1394.420	C.3	15	MET15	-0.024	
219	   C	1382.508	410.120	-1394.332	C.2	15	MET15	0.597	
220	   O	1383.011	410.631	-1395.345	O.2	15	MET15	-0.568	
221	  CB	1380.057	409.566	-1394.111	C.3	15	MET15	0.034	
222	  CG	1378.895	408.567	-1394.302	C.3	15	MET15	0.002	
223	  SD	1377.321	409.433	-1394.188	S.3	15	MET15	-0.274	
224	  CE	1376.240	408.003	-1394.051	C.3	15	MET15	-0.054	
225	   H	1381.134	407.635	-1392.805	 H	15	MET15	0.272	
226	  HA	1381.504	408.633	-1395.455	 H	15	MET15	0.088	
227	 2HB	1379.854	410.444	-1394.753	 H	15	MET15	0.024	
228	 3HB	1380.021	409.958	-1393.074	 H	15	MET15	0.024	
229	 2HG	1378.938	407.781	-1393.524	 H	15	MET15	0.044	
230	 3HG	1378.958	408.052	-1395.278	 H	15	MET15	0.044	
231	 1HE	1376.383	407.315	-1394.903	 H	15	MET15	0.068	
232	 2HE	1376.449	407.451	-1393.118	 H	15	MET15	0.068	
233	 3HE	1375.182	408.318	-1394.034	 H	15	MET15	0.068	
234	   N	1382.877	410.541	-1393.170	N.am	16	ARG16	-0.348	
235	  CA	1383.873	411.605	-1393.086	C.3	16	ARG16	-0.264	
236	   C	1385.144	411.213	-1393.803	C.2	16	ARG16	0.734	
237	   O	1385.258	410.136	-1394.384	O.2	16	ARG16	-0.589	
238	  CB	1384.143	411.923	-1391.588	C.3	16	ARG16	-0.001	
239	  CG	1384.968	413.212	-1391.315	C.3	16	ARG16	0.039	
240	  CD	1385.218	413.432	-1389.814	C.3	16	ARG16	0.049	
241	  NE	1385.994	414.691	-1389.613	N.pl3	16	ARG16	-0.530	
242	  CZ	1386.385	415.173	-1388.438	C.cat	16	ARG16	0.808	
243	 NH1	1386.138	414.589	-1387.299	N.pl3	16	ARG16	-0.863	
244	 NH2	1387.049	416.286	-1388.419	N.pl3	16	ARG16	-0.863	
245	   H	1382.483	410.141	-1392.331	 H	16	ARG16	0.275	
246	  HA	1383.464	412.498	-1393.596	 H	16	ARG16	0.156	
247	 2HB	1384.640	411.047	-1391.122	 H	16	ARG16	0.033	
248	 3HB	1383.174	412.004	-1391.054	 H	16	ARG16	0.033	
249	 2HG	1384.437	414.083	-1391.752	 H	16	ARG16	0.029	
250	 3HG	1385.941	413.160	-1391.845	 H	16	ARG16	0.029	
251	 2HD	1385.766	412.557	-1389.401	 H	16	ARG16	0.069	
252	 3HD	1384.245	413.474	-1389.279	 H	16	ARG16	0.069	
253	  HE	1386.272	415.272	-1390.411	 H	16	ARG16	0.346	
254	1HH1	1385.612	413.716	-1387.384	 H	16	ARG16	0.448	
255	2HH1	1386.472	415.024	-1386.438	 H	16	ARG16	0.448	
256	1HH2	1387.234	416.729	-1389.321	 H	16	ARG16	0.448	
257	2HH2	1387.339	416.641	-1387.507	 H	16	ARG16	0.448	
@<TRIPOS>BOND
1 1 2 1
2 1 10 1
3 2 3 1
4 2 5 1
5 2 11 1
6 3 4 2
7 3 16 1
8 5 6 1
9 6 7 1
10 7 8 2
11 7 9 1
12 5 12 1
13 5 13 1
14 6 14 1
15 6 15 1
16 16 17 1
17 16 24 1
18 17 18 1
19 17 20 1
20 17 25 1
21 18 19 2
22 18 30 1
23 20 21 1
24 21 22 1
25 21 23 2
26 20 26 1
27 20 27 1
28 22 28 1
29 22 29 1
30 30 31 1
31 30 36 1
32 31 32 1
33 31 34 1
34 31 37 1
35 32 33 2
36 32 44 1
37 34 35 1
38 35 36 1
39 34 38 1
40 34 39 1
41 35 40 1
42 35 41 1
43 36 42 1
44 36 43 1
45 44 45 1
46 44 53 1
47 45 46 1
48 45 48 1
49 45 54 1
50 46 47 2
51 46 59 1
52 48 49 1
53 49 50 1
54 50 51 2
55 50 52 1
56 48 55 1
57 48 56 1
58 49 57 1
59 49 58 1
60 59 60 1
61 59 65 1
62 60 61 1
63 60 63 1
64 60 66 1
65 61 62 2
66 61 70 1
67 63 64 1
68 63 67 1
69 63 68 1
70 64 69 1
71 70 71 1
72 70 78 1
73 71 72 1
74 71 74 1
75 71 79 1
76 72 73 2
77 72 89 1
78 74 75 1
79 74 76 1
80 75 77 1
81 74 80 1
82 75 81 1
83 75 82 1
84 76 83 1
85 76 84 1
86 76 85 1
87 77 86 1
88 77 87 1
89 77 88 1
90 89 90 1
91 89 97 1
92 90 91 1
93 90 93 1
94 90 98 1
95 91 92 2
96 91 108 1
97 93 94 1
98 94 95 1
99 94 96 1
100 93 99 1
101 93 100 1
102 94 101 1
103 95 102 1
104 95 103 1
105 95 104 1
106 96 105 1
107 96 106 1
108 96 107 1
109 108 109 1
110 108 116 1
111 109 110 1
112 109 112 1
113 109 117 1
114 110 111 2
115 110 120 1
116 112 113 1
117 113 114 2
118 113 115 1
119 112 118 1
120 112 119 1
121 120 121 1
122 120 124 1
123 121 122 1
124 121 125 1
125 121 126 1
126 122 123 2
127 122 127 1
128 127 128 1
129 127 137 1
130 128 129 1
131 128 131 1
132 128 138 1
133 129 130 2
134 129 144 1
135 131 132 1
136 132 133 2
137 133 136 1
138 132 134 1
139 134 135 2
140 135 136 1
141 131 139 1
142 131 140 1
143 133 141 1
144 135 142 1
145 136 143 1
146 144 145 1
147 144 151 1
148 145 146 1
149 145 148 1
150 145 152 1
151 146 147 2
152 146 160 1
153 148 149 1
154 148 150 1
155 148 153 1
156 149 154 1
157 149 155 1
158 149 156 1
159 150 157 1
160 150 158 1
161 150 159 1
162 160 161 1
163 160 169 1
164 161 162 1
165 161 164 1
166 161 170 1
167 162 163 2
168 162 177 1
169 164 165 1
170 165 166 1
171 166 167 1
172 166 168 2
173 164 171 1
174 164 172 1
175 165 173 1
176 165 174 1
177 167 175 1
178 167 176 1
179 177 178 1
180 177 188 1
181 178 179 1
182 178 181 1
183 178 189 1
184 179 180 2
185 179 201 1
186 181 182 1
187 182 183 1
188 183 184 1
189 184 185 1
190 185 186 2
191 185 187 1
192 181 190 1
193 181 191 1
194 182 192 1
195 182 193 1
196 183 194 1
197 183 195 1
198 184 196 1
199 186 197 1
200 186 198 1
201 187 199 1
202 187 200 1
203 201 202 1
204 201 208 1
205 202 203 1
206 202 205 1
207 202 209 1
208 203 204 2
209 203 217 1
210 205 206 1
211 205 207 1
212 205 210 1
213 206 211 1
214 206 212 1
215 206 213 1
216 207 214 1
217 207 215 1
218 207 216 1
219 217 218 1
220 217 225 1
221 218 219 1
222 218 221 1
223 218 226 1
224 219 220 2
225 219 234 1
226 221 222 1
227 222 223 1
228 223 224 1
229 221 227 1
230 221 228 1
231 222 229 1
232 222 230 1
233 224 231 1
234 224 232 1
235 224 233 1
236 234 235 1
237 234 245 1
238 235 236 1
239 235 238 1
240 235 246 1
241 236 237 2
242 238 239 1
243 239 240 1
244 240 241 1
245 241 242 1
246 242 243 2
247 242 244 1
248 238 247 1
249 238 248 1
250 239 249 1
251 239 250 1
252 240 251 1
253 240 252 1
254 241 253 1
255 243 254 1
256 243 255 1
257 244 256 1
258 244 257 1
@<TRIPOS>SUBSTRUCTURE
1	GLU1	1	RESIDUE	1 ****	GLU
2	ASN2	16	RESIDUE	1 ****	ASN
3	PRO3	30	RESIDUE	1 ****	PRO
4	GLU4	44	RESIDUE	1 ****	GLU
5	SER5	59	RESIDUE	1 ****	SER
6	ILE6	70	RESIDUE	1 ****	ILE
7	LEU7	89	RESIDUE	1 ****	LEU
8	ASP8	108	RESIDUE	1 ****	ASP
9	GLY9	120	RESIDUE	1 ****	GLY
10	HIS10	127	RESIDUE	1 ****	HIS
11	VAL11	144	RESIDUE	1 ****	VAL
12	GLN12	160	RESIDUE	1 ****	GLN
13	ARG13	177	RESIDUE	1 ****	ARG
14	VAL14	201	RESIDUE	1 ****	VAL
15	MET15	217	RESIDUE	1 ****	MET
16	ARG16	234	RESIDUE	1 ****	ARG
