@<TRIPOS>MOLECULE
9-12
261 262 16              
SMALL
USER_CHARGES
@<TRIPOS>ATOM
1	   N	1443.383	424.051	-1457.378	N.3	1	GLU1	-0.516	
2	  CA	1443.942	425.400	-1457.378	C.3	1	GLU1	0.040	
3	   C	1445.451	425.360	-1457.378	C.2	1	GLU1	0.537	
4	   O	1446.127	426.059	-1458.147	O.2	1	GLU1	-0.582	
5	  CB	1443.419	426.185	-1456.141	C.3	1	GLU1	0.056	
6	  CG	1443.894	427.670	-1456.030	C.3	1	GLU1	0.014	
7	  CD	1443.470	428.474	-1454.815	C.2	1	GLU1	0.805	
8	 OE1	1442.742	427.972	-1453.937	O.co2	1	GLU1	-0.819	
9	 OE2	1443.900	429.644	-1454.743	O.co2	1	GLU1	-0.819	
10	   H	1444.010	423.172	-1457.378	 H	1	GLU1	0.294	
11	  HA	1443.616	425.918	-1458.298	 H	1	GLU1	0.111	
12	 2HB	1443.708	425.654	-1455.211	 H	1	GLU1	-0.017	
13	 3HB	1442.312	426.175	-1456.128	 H	1	GLU1	-0.017	
14	 2HG	1443.584	428.255	-1456.911	 H	1	GLU1	-0.043	
15	 3HG	1444.994	427.737	-1456.001	 H	1	GLU1	-0.043	
16	   N	1446.056	424.574	-1456.553	N.am	2	ASN2	-0.416	
17	  CA	1447.515	424.536	-1456.553	C.3	2	ASN2	0.014	
18	   C	1448.046	424.180	-1457.922	C.2	2	ASN2	0.597	
19	   O	1448.961	424.811	-1458.450	O.2	2	ASN2	-0.568	
20	  CB	1448.007	423.513	-1455.489	C.3	2	ASN2	-0.204	
21	  CG	1447.544	423.737	-1454.045	C.2	2	ASN2	0.713	
22	 ND2	1448.138	424.652	-1453.327	N.pl3	2	ASN2	-0.919	
23	 OD1	1446.623	423.103	-1453.551	O.2	2	ASN2	-0.593	
24	   H	1445.527	423.995	-1455.917	 H	2	ASN2	0.272	
25	  HA	1447.892	425.546	-1456.308	 H	2	ASN2	0.105	
26	 2HB	1449.111	423.454	-1455.492	 H	2	ASN2	0.080	
27	 3HB	1447.678	422.495	-1455.774	 H	2	ASN2	0.080	
28	1HD2	1447.658	424.825	-1452.441	 H	2	ASN2	0.420	
29	2HD2	1448.840	425.223	-1453.797	 H	2	ASN2	0.420	
30	   N	1447.525	423.185	-1458.556	N.am	3	PRO3	-0.255	
31	  CA	1447.976	422.776	-1459.877	C.3	3	PRO3	-0.027	
32	   C	1447.578	423.799	-1460.954	C.2	3	PRO3	0.590	
33	   O	1448.401	424.183	-1461.786	O.2	3	PRO3	-0.575	
34	  CB	1447.272	421.421	-1460.047	C.3	3	PRO3	-0.007	
35	  CG	1445.989	421.573	-1459.216	C.3	3	PRO3	0.019	
36	  CD	1446.447	422.392	-1458.007	C.3	3	PRO3	0.019	
37	  HA	1449.062	422.656	-1459.891	 H	3	PRO3	0.064	
38	 2HB	1447.895	420.640	-1459.606	 H	3	PRO3	0.025	
39	 3HB	1447.074	421.173	-1461.092	 H	3	PRO3	0.025	
40	 2HG	1445.562	420.611	-1458.925	 H	3	PRO3	0.021	
41	 3HG	1445.251	422.144	-1459.784	 H	3	PRO3	0.021	
42	 2HD	1446.836	421.743	-1457.219	 H	3	PRO3	0.039	
43	 3HD	1445.650	423.028	-1457.614	 H	3	PRO3	0.039	
44	   N	1446.373	424.259	-1460.986	N.am	4	GLU4	-0.516	
45	  CA	1446.014	425.230	-1462.016	C.3	4	GLU4	0.040	
46	   C	1446.912	426.442	-1461.955	C.2	4	GLU4	0.537	
47	   O	1447.439	426.921	-1462.969	O.2	4	GLU4	-0.582	
48	  CB	1444.525	425.649	-1461.845	C.3	4	GLU4	0.056	
49	  CG	1443.977	426.653	-1462.911	C.3	4	GLU4	0.014	
50	  CD	1442.550	427.149	-1462.767	C.2	4	GLU4	0.805	
51	 OE1	1441.824	426.751	-1461.836	O.co2	4	GLU4	-0.819	
52	 OE2	1442.160	427.979	-1463.615	O.co2	4	GLU4	-0.819	
53	   H	1445.689	423.953	-1460.310	 H	4	GLU4	0.294	
54	  HA	1446.145	424.760	-1463.007	 H	4	GLU4	0.111	
55	 2HB	1444.373	426.089	-1460.839	 H	4	GLU4	-0.017	
56	 3HB	1443.877	424.751	-1461.852	 H	4	GLU4	-0.017	
57	 2HG	1444.058	426.238	-1463.929	 H	4	GLU4	-0.043	
58	 3HG	1444.565	427.585	-1462.922	 H	4	GLU4	-0.043	
59	   N	1447.140	426.994	-1460.812	N.am	5	SER5	-0.416	
60	  CA	1448.009	428.166	-1460.753	C.3	5	SER5	-0.025	
61	   C	1449.368	427.860	-1461.339	C.2	5	SER5	0.597	
62	   O	1449.915	428.614	-1462.144	O.2	5	SER5	-0.568	
63	  CB	1448.121	428.698	-1459.303	C.3	5	SER5	0.212	
64	  OG	1448.853	427.818	-1458.442	O.3	5	SER5	-0.655	
65	   H	1446.723	426.623	-1459.970	 H	5	SER5	0.272	
66	  HA	1447.560	428.956	-1461.382	 H	5	SER5	0.084	
67	 2HB	1447.121	428.891	-1458.869	 H	5	SER5	0.035	
68	 3HB	1448.626	429.684	-1459.305	 H	5	SER5	0.035	
69	  HG	1448.364	426.993	-1458.391	 H	5	SER5	0.428	
70	   N	1449.973	426.777	-1460.985	N.am	6	ILE6	-0.416	
71	  CA	1451.286	426.483	-1461.552	C.3	6	ILE6	-0.060	
72	   C	1451.229	426.445	-1463.059	C.2	6	ILE6	0.597	
73	   O	1452.063	427.033	-1463.763	O.2	6	ILE6	-0.568	
74	  CB	1451.886	425.146	-1460.952	C.3	6	ILE6	0.130	
75	 CG1	1451.906	425.084	-1459.391	C.3	6	ILE6	-0.043	
76	 CG2	1453.327	424.845	-1461.467	C.3	6	ILE6	-0.320	
77	 CD1	1452.176	423.695	-1458.776	C.3	6	ILE6	-0.066	
78	   H	1449.545	426.143	-1460.326	 H	6	ILE6	0.272	
79	  HA	1451.960	427.317	-1461.284	 H	6	ILE6	0.087	
80	  HB	1451.228	424.320	-1461.296	 H	6	ILE6	0.019	
81	2HG1	1450.923	425.404	-1458.995	 H	6	ILE6	0.024	
82	3HG1	1452.621	425.826	-1458.986	 H	6	ILE6	0.024	
83	1HG2	1453.386	424.751	-1462.566	 H	6	ILE6	0.088	
84	2HG2	1454.049	425.627	-1461.165	 H	6	ILE6	0.088	
85	3HG2	1453.717	423.883	-1461.089	 H	6	ILE6	0.088	
86	1HD1	1451.448	422.941	-1459.131	 H	6	ILE6	0.019	
87	2HD1	1453.186	423.316	-1459.012	 H	6	ILE6	0.019	
88	3HD1	1452.099	423.725	-1457.673	 H	6	ILE6	0.019	
89	   N	1450.283	425.782	-1463.633	N.am	7	LEU7	-0.416	
90	  CA	1450.228	425.746	-1465.092	C.3	7	LEU7	-0.052	
91	   C	1450.155	427.141	-1465.664	C.2	7	LEU7	0.597	
92	   O	1450.876	427.504	-1466.606	O.2	7	LEU7	-0.568	
93	  CB	1449.025	424.886	-1465.572	C.3	7	LEU7	-0.110	
94	  CG	1448.952	423.406	-1465.106	C.3	7	LEU7	0.353	
95	 CD1	1447.762	422.700	-1465.771	C.3	7	LEU7	-0.412	
96	 CD2	1450.246	422.627	-1465.397	C.3	7	LEU7	-0.412	
97	   H	1449.591	425.295	-1463.082	 H	7	LEU7	0.272	
98	  HA	1451.170	425.306	-1465.466	 H	7	LEU7	0.092	
99	 2HB	1449.001	424.902	-1466.679	 H	7	LEU7	0.046	
100	 3HB	1448.085	425.388	-1465.267	 H	7	LEU7	0.046	
101	  HG	1448.782	423.398	-1464.009	 H	7	LEU7	-0.036	
102	1HD1	1446.805	423.210	-1465.548	 H	7	LEU7	0.100	
103	2HD1	1447.861	422.660	-1466.872	 H	7	LEU7	0.100	
104	3HD1	1447.655	421.659	-1465.415	 H	7	LEU7	0.100	
105	1HD2	1450.521	422.658	-1466.467	 H	7	LEU7	0.100	
106	2HD2	1451.099	423.039	-1464.826	 H	7	LEU7	0.100	
107	3HD2	1450.164	421.565	-1465.102	 H	7	LEU7	0.100	
108	   N	1449.318	427.982	-1465.157	N.am	8	ASP8	-0.516	
109	  CA	1449.248	429.332	-1465.710	C.3	8	ASP8	0.038	
110	   C	1450.594	430.011	-1465.653	C.2	8	ASP8	0.537	
111	   O	1451.067	430.617	-1466.627	O.2	8	ASP8	-0.582	
112	  CB	1448.169	430.170	-1464.968	C.3	8	ASP8	-0.030	
113	  CG	1447.950	431.591	-1465.508	C.2	8	ASP8	0.799	
114	 OD1	1448.014	431.791	-1466.739	O.co2	8	ASP8	-0.801	
115	 OD2	1447.758	432.517	-1464.693	O.co2	8	ASP8	-0.801	
116	   H	1448.720	427.711	-1464.390	 H	8	ASP8	0.294	
117	  HA	1448.965	429.254	-1466.777	 H	8	ASP8	0.088	
118	 2HB	1448.427	430.253	-1463.896	 H	8	ASP8	-0.012	
119	 3HB	1447.190	429.665	-1465.001	 H	8	ASP8	-0.012	
120	   N	1451.274	429.961	-1464.557	N.am	9	CYS9	-0.416	
121	  CA	1452.577	430.619	-1464.502	C.3	9	CYS9	0.021	
122	   C	1453.496	430.091	-1465.578	C.2	9	CYS9	0.597	
123	   O	1454.160	430.846	-1466.303	O.2	9	CYS9	-0.568	
124	  CB	1453.159	430.433	-1463.087	C.3	9	CYS9	-0.123	
125	  SG	1454.688	431.377	-1462.896	S.3	9	CYS9	-0.312	
126	   H	1450.911	429.475	-1463.750	 H	9	CYS9	0.272	
127	  HA	1452.429	431.697	-1464.695	 H	9	CYS9	0.112	
128	 2HB	1453.357	429.364	-1462.866	 H	9	CYS9	0.111	
129	 3HB	1452.449	430.778	-1462.314	 H	9	CYS9	0.111	
130	  HG	1455.523	430.342	-1462.958	 H	9	CYS9	0.193	
131	   N	1453.592	428.816	-1465.748	N.am	10	HIS10	-0.416	
132	  CA	1454.481	428.306	-1466.788	C.3	10	HIS10	-0.058	
133	   C	1454.114	428.871	-1468.139	C.2	10	HIS10	0.597	
134	   O	1454.967	429.336	-1468.911	O.2	10	HIS10	-0.568	
135	  CB	1454.317	426.777	-1466.784	C.3	10	HIS10	-0.007	
136	  CG	1455.603	426.067	-1466.476	C.2	10	HIS10	0.187	
137	 CD2	1455.983	425.731	-1465.183	C.2	10	HIS10	-0.221	
138	 ND1	1456.555	425.661	-1467.409	N.2	10	HIS10	-0.543	
139	 CE1	1457.461	425.103	-1466.585	C.2	10	HIS10	0.163	
140	 NE2	1457.198	425.099	-1465.250	N.pl3	10	HIS10	-0.280	
141	   H	1453.062	428.181	-1465.170	 H	10	HIS10	0.272	
142	  HA	1455.500	428.663	-1466.563	 H	10	HIS10	0.136	
143	 2HB	1453.952	426.410	-1467.764	 H	10	HIS10	0.037	
144	 3HB	1453.561	426.439	-1466.045	 H	10	HIS10	0.037	
145	 2HD	1455.397	425.945	-1464.295	 H	10	HIS10	0.186	
146	 1HE	1458.352	424.682	-1467.032	 H	10	HIS10	0.144	
147	 2HE	1457.765	424.722	-1464.477	 H	10	HIS10	0.334	
148	   N	1452.876	428.870	-1468.502	N.am	11	VAL11	-0.416	
149	  CA	1452.521	429.416	-1469.809	C.3	11	VAL11	-0.087	
150	   C	1452.985	430.847	-1469.941	C.2	11	VAL11	0.597	
151	   O	1453.586	431.253	-1470.943	O.2	11	VAL11	-0.568	
152	  CB	1450.960	429.309	-1470.029	C.3	11	VAL11	0.299	
153	 CG1	1450.392	430.013	-1471.291	C.3	11	VAL11	-0.319	
154	 CG2	1450.436	427.855	-1470.103	C.3	11	VAL11	-0.319	
155	   H	1452.163	428.496	-1467.892	 H	11	VAL11	0.272	
156	  HA	1453.041	428.834	-1470.592	 H	11	VAL11	0.097	
157	  HB	1450.472	429.789	-1469.153	 H	11	VAL11	-0.030	
158	1HG1	1450.830	429.622	-1472.229	 H	11	VAL11	0.079	
159	2HG1	1449.293	429.906	-1471.374	 H	11	VAL11	0.079	
160	3HG1	1450.569	431.106	-1471.281	 H	11	VAL11	0.079	
161	1HG2	1450.726	427.267	-1469.212	 H	11	VAL11	0.079	
162	2HG2	1449.330	427.818	-1470.146	 H	11	VAL11	0.079	
163	3HG2	1450.818	427.315	-1470.989	 H	11	VAL11	0.079	
164	   N	1452.748	431.672	-1468.978	N.am	12	GLN12	-0.416	
165	  CA	1453.196	433.056	-1469.104	C.3	12	GLN12	-0.003	
166	   C	1454.686	433.124	-1469.342	C.2	12	GLN12	0.597	
167	   O	1455.173	433.832	-1470.220	O.2	12	GLN12	-0.568	
168	  CB	1452.805	433.822	-1467.822	C.3	12	GLN12	-0.004	
169	  CG	1453.164	435.344	-1467.790	C.3	12	GLN12	-0.064	
170	  CD	1452.862	436.157	-1466.524	C.2	12	GLN12	0.695	
171	 NE2	1452.295	435.580	-1465.496	N.pl3	12	GLN12	-0.941	
172	 OE1	1453.163	437.338	-1466.446	O.2	12	GLN12	-0.609	
173	   H	1452.259	431.366	-1468.149	 H	12	GLN12	0.272	
174	  HA	1452.696	433.512	-1469.979	 H	12	GLN12	0.085	
175	 2HB	1453.281	433.322	-1466.952	 H	12	GLN12	0.017	
176	 3HB	1451.714	433.714	-1467.658	 H	12	GLN12	0.017	
177	 2HG	1452.687	435.865	-1468.640	 H	12	GLN12	0.035	
178	 3HG	1454.248	435.487	-1467.955	 H	12	GLN12	0.035	
179	1HE2	1452.187	436.174	-1464.672	 H	12	GLN12	0.425	
180	2HE2	1452.131	434.576	-1465.600	 H	12	GLN12	0.425	
181	   N	1455.471	432.417	-1468.602	N.am	13	ARG13	-0.348	
182	  CA	1456.911	432.483	-1468.833	C.3	13	ARG13	-0.264	
183	   C	1457.247	432.113	-1470.258	C.2	13	ARG13	0.734	
184	   O	1458.015	432.785	-1470.942	O.2	13	ARG13	-0.589	
185	  CB	1457.625	431.544	-1467.819	C.3	13	ARG13	-0.001	
186	  CG	1459.170	431.698	-1467.738	C.3	13	ARG13	0.039	
187	  CD	1459.797	430.710	-1466.741	C.3	13	ARG13	0.049	
188	  NE	1461.274	430.918	-1466.691	N.pl3	13	ARG13	-0.530	
189	  CZ	1462.123	430.227	-1465.936	C.cat	13	ARG13	0.808	
190	 NH1	1461.758	429.262	-1465.139	N.pl3	13	ARG13	-0.863	
191	 NH2	1463.382	430.526	-1465.993	N.pl3	13	ARG13	-0.863	
192	   H	1455.095	431.826	-1467.874	 H	13	ARG13	0.275	
193	  HA	1457.235	433.529	-1468.674	 H	13	ARG13	0.156	
194	 2HB	1457.359	430.494	-1468.059	 H	13	ARG13	0.033	
195	 3HB	1457.200	431.710	-1466.808	 H	13	ARG13	0.033	
196	 2HG	1459.417	432.743	-1467.458	 H	13	ARG13	0.029	
197	 3HG	1459.620	431.543	-1468.740	 H	13	ARG13	0.029	
198	 2HD	1459.553	429.670	-1467.050	 H	13	ARG13	0.069	
199	 3HD	1459.341	430.855	-1465.738	 H	13	ARG13	0.069	
200	  HE	1461.725	431.641	-1467.261	 H	13	ARG13	0.346	
201	1HH1	1460.753	429.075	-1465.142	 H	13	ARG13	0.448	
202	2HH1	1462.472	428.779	-1464.590	 H	13	ARG13	0.448	
203	1HH2	1463.649	431.285	-1466.623	 H	13	ARG13	0.448	
204	2HH2	1464.018	429.985	-1465.404	 H	13	ARG13	0.448	
205	   N	1456.711	431.058	-1470.772	N.am	14	VAL14	-0.416	
206	  CA	1457.036	430.700	-1472.150	C.3	14	VAL14	-0.087	
207	   C	1456.705	431.830	-1473.095	C.2	14	VAL14	0.597	
208	   O	1457.498	432.212	-1473.965	O.2	14	VAL14	-0.568	
209	  CB	1456.264	429.382	-1472.557	C.3	14	VAL14	0.299	
210	 CG1	1456.353	428.965	-1474.051	C.3	14	VAL14	-0.319	
211	 CG2	1456.697	428.130	-1471.758	C.3	14	VAL14	-0.319	
212	   H	1456.077	430.489	-1470.231	 H	14	VAL14	0.272	
213	  HA	1458.124	430.523	-1472.225	 H	14	VAL14	0.097	
214	  HB	1455.188	429.553	-1472.341	 H	14	VAL14	-0.030	
215	1HG1	1457.394	428.788	-1474.380	 H	14	VAL14	0.079	
216	2HG1	1455.780	428.042	-1474.264	 H	14	VAL14	0.079	
217	3HG1	1455.923	429.727	-1474.729	 H	14	VAL14	0.079	
218	1HG2	1456.610	428.288	-1470.667	 H	14	VAL14	0.079	
219	2HG2	1456.061	427.253	-1471.990	 H	14	VAL14	0.079	
220	3HG2	1457.744	427.841	-1471.964	 H	14	VAL14	0.079	
221	   N	1455.560	432.415	-1472.993	N.am	15	MET15	-0.416	
222	  CA	1455.239	433.508	-1473.906	C.3	15	MET15	-0.024	
223	   C	1456.269	434.608	-1473.818	C.2	15	MET15	0.597	
224	   O	1456.771	435.120	-1474.830	O.2	15	MET15	-0.568	
225	  CB	1453.817	434.053	-1473.596	C.3	15	MET15	0.034	
226	  CG	1452.656	433.054	-1473.788	C.3	15	MET15	0.002	
227	  SD	1451.082	433.919	-1473.672	S.3	15	MET15	-0.274	
228	  CE	1450.001	432.489	-1473.536	C.3	15	MET15	-0.054	
229	   H	1454.896	432.121	-1472.291	 H	15	MET15	0.272	
230	  HA	1455.265	433.121	-1474.941	 H	15	MET15	0.088	
231	 2HB	1453.614	434.932	-1474.237	 H	15	MET15	0.024	
232	 3HB	1453.782	434.445	-1472.559	 H	15	MET15	0.024	
233	 2HG	1452.699	432.268	-1473.010	 H	15	MET15	0.044	
234	 3HG	1452.719	432.540	-1474.764	 H	15	MET15	0.044	
235	 1HE	1450.145	431.802	-1474.389	 H	15	MET15	0.068	
236	 2HE	1450.211	431.936	-1472.604	 H	15	MET15	0.068	
237	 3HE	1448.943	432.804	-1473.519	 H	15	MET15	0.068	
238	   N	1456.638	435.029	-1472.655	N.am	16	ARG16	-0.348	
239	  CA	1457.634	436.094	-1472.571	C.3	16	ARG16	-0.264	
240	   C	1458.904	435.702	-1473.288	C.2	16	ARG16	0.734	
241	   O	1459.018	434.626	-1473.870	O.2	16	ARG16	-0.589	
242	  CB	1457.903	436.411	-1471.073	C.3	16	ARG16	-0.001	
243	  CG	1458.727	437.700	-1470.800	C.3	16	ARG16	0.039	
244	  CD	1458.977	437.919	-1469.298	C.3	16	ARG16	0.049	
245	  NE	1459.753	439.178	-1469.097	N.pl3	16	ARG16	-0.530	
246	  CZ	1460.144	439.660	-1467.921	C.cat	16	ARG16	0.808	
247	 NH1	1459.897	439.075	-1466.783	N.pl3	16	ARG16	-0.863	
248	 NH2	1460.808	440.773	-1467.902	N.pl3	16	ARG16	-0.863	
249	   H	1456.243	434.629	-1471.816	 H	16	ARG16	0.275	
250	  HA	1457.224	436.987	-1473.080	 H	16	ARG16	0.156	
251	 2HB	1458.400	435.535	-1470.607	 H	16	ARG16	0.033	
252	 3HB	1456.934	436.491	-1470.539	 H	16	ARG16	0.033	
253	 2HG	1458.196	438.571	-1471.236	 H	16	ARG16	0.029	
254	 3HG	1459.701	437.648	-1471.329	 H	16	ARG16	0.029	
255	 2HD	1459.527	437.044	-1468.886	 H	16	ARG16	0.069	
256	 3HD	1458.005	437.960	-1468.763	 H	16	ARG16	0.069	
257	  HE	1460.031	439.759	-1469.894	 H	16	ARG16	0.346	
258	1HH1	1459.372	438.201	-1466.868	 H	16	ARG16	0.448	
259	2HH1	1460.232	439.510	-1465.922	 H	16	ARG16	0.448	
260	1HH2	1460.993	441.216	-1468.804	 H	16	ARG16	0.448	
261	2HH2	1461.098	441.127	-1466.989	 H	16	ARG16	0.448	
@<TRIPOS>BOND
1 1 2 1
2 1 10 1
3 2 3 1
4 2 5 1
5 2 11 1
6 3 4 2
7 3 16 1
8 5 6 1
9 6 7 1
10 7 8 2
11 7 9 1
12 5 12 1
13 5 13 1
14 6 14 1
15 6 15 1
16 16 17 1
17 16 24 1
18 17 18 1
19 17 20 1
20 17 25 1
21 18 19 2
22 18 30 1
23 20 21 1
24 21 22 1
25 21 23 2
26 20 26 1
27 20 27 1
28 22 28 1
29 22 29 1
30 30 31 1
31 30 36 1
32 31 32 1
33 31 34 1
34 31 37 1
35 32 33 2
36 32 44 1
37 34 35 1
38 35 36 1
39 34 38 1
40 34 39 1
41 35 40 1
42 35 41 1
43 36 42 1
44 36 43 1
45 44 45 1
46 44 53 1
47 45 46 1
48 45 48 1
49 45 54 1
50 46 47 2
51 46 59 1
52 48 49 1
53 49 50 1
54 50 51 2
55 50 52 1
56 48 55 1
57 48 56 1
58 49 57 1
59 49 58 1
60 59 60 1
61 59 65 1
62 60 61 1
63 60 63 1
64 60 66 1
65 61 62 2
66 61 70 1
67 63 64 1
68 63 67 1
69 63 68 1
70 64 69 1
71 70 71 1
72 70 78 1
73 71 72 1
74 71 74 1
75 71 79 1
76 72 73 2
77 72 89 1
78 74 75 1
79 74 76 1
80 75 77 1
81 74 80 1
82 75 81 1
83 75 82 1
84 76 83 1
85 76 84 1
86 76 85 1
87 77 86 1
88 77 87 1
89 77 88 1
90 89 90 1
91 89 97 1
92 90 91 1
93 90 93 1
94 90 98 1
95 91 92 2
96 91 108 1
97 93 94 1
98 94 95 1
99 94 96 1
100 93 99 1
101 93 100 1
102 94 101 1
103 95 102 1
104 95 103 1
105 95 104 1
106 96 105 1
107 96 106 1
108 96 107 1
109 108 109 1
110 108 116 1
111 109 110 1
112 109 112 1
113 109 117 1
114 110 111 2
115 110 120 1
116 112 113 1
117 113 114 2
118 113 115 1
119 112 118 1
120 112 119 1
121 120 121 1
122 120 126 1
123 121 122 1
124 121 124 1
125 121 127 1
126 122 123 2
127 122 131 1
128 124 125 1
129 124 128 1
130 124 129 1
131 125 130 1
132 131 132 1
133 131 141 1
134 132 133 1
135 132 135 1
136 132 142 1
137 133 134 2
138 133 148 1
139 135 136 1
140 136 137 2
141 137 140 1
142 136 138 1
143 138 139 2
144 139 140 1
145 135 143 1
146 135 144 1
147 137 145 1
148 139 146 1
149 140 147 1
150 148 149 1
151 148 155 1
152 149 150 1
153 149 152 1
154 149 156 1
155 150 151 2
156 150 164 1
157 152 153 1
158 152 154 1
159 152 157 1
160 153 158 1
161 153 159 1
162 153 160 1
163 154 161 1
164 154 162 1
165 154 163 1
166 164 165 1
167 164 173 1
168 165 166 1
169 165 168 1
170 165 174 1
171 166 167 2
172 166 181 1
173 168 169 1
174 169 170 1
175 170 171 1
176 170 172 2
177 168 175 1
178 168 176 1
179 169 177 1
180 169 178 1
181 171 179 1
182 171 180 1
183 181 182 1
184 181 192 1
185 182 183 1
186 182 185 1
187 182 193 1
188 183 184 2
189 183 205 1
190 185 186 1
191 186 187 1
192 187 188 1
193 188 189 1
194 189 190 2
195 189 191 1
196 185 194 1
197 185 195 1
198 186 196 1
199 186 197 1
200 187 198 1
201 187 199 1
202 188 200 1
203 190 201 1
204 190 202 1
205 191 203 1
206 191 204 1
207 205 206 1
208 205 212 1
209 206 207 1
210 206 209 1
211 206 213 1
212 207 208 2
213 207 221 1
214 209 210 1
215 209 211 1
216 209 214 1
217 210 215 1
218 210 216 1
219 210 217 1
220 211 218 1
221 211 219 1
222 211 220 1
223 221 222 1
224 221 229 1
225 222 223 1
226 222 225 1
227 222 230 1
228 223 224 2
229 223 238 1
230 225 226 1
231 226 227 1
232 227 228 1
233 225 231 1
234 225 232 1
235 226 233 1
236 226 234 1
237 228 235 1
238 228 236 1
239 228 237 1
240 238 239 1
241 238 249 1
242 239 240 1
243 239 242 1
244 239 250 1
245 240 241 2
246 242 243 1
247 243 244 1
248 244 245 1
249 245 246 1
250 246 247 2
251 246 248 1
252 242 251 1
253 242 252 1
254 243 253 1
255 243 254 1
256 244 255 1
257 244 256 1
258 245 257 1
259 247 258 1
260 247 259 1
261 248 260 1
262 248 261 1
@<TRIPOS>SUBSTRUCTURE
1	GLU1	1	RESIDUE	1 ****	GLU
2	ASN2	16	RESIDUE	1 ****	ASN
3	PRO3	30	RESIDUE	1 ****	PRO
4	GLU4	44	RESIDUE	1 ****	GLU
5	SER5	59	RESIDUE	1 ****	SER
6	ILE6	70	RESIDUE	1 ****	ILE
7	LEU7	89	RESIDUE	1 ****	LEU
8	ASP8	108	RESIDUE	1 ****	ASP
9	CYS9	120	RESIDUE	1 ****	CYS
10	HIS10	131	RESIDUE	1 ****	HIS
11	VAL11	148	RESIDUE	1 ****	VAL
12	GLN12	164	RESIDUE	1 ****	GLN
13	ARG13	181	RESIDUE	1 ****	ARG
14	VAL14	205	RESIDUE	1 ****	VAL
15	MET15	221	RESIDUE	1 ****	MET
16	ARG16	238	RESIDUE	1 ****	ARG
