@<TRIPOS>MOLECULE
16-20
265 266 16              
SMALL
USER_CHARGES
@<TRIPOS>ATOM
1	   N	2649.523	811.617	-2772.201	N.3	1	GLU1	-0.516	
2	  CA	2650.083	812.966	-2772.201	C.3	1	GLU1	0.040	
3	   C	2651.592	812.926	-2772.201	C.2	1	GLU1	0.537	
4	   O	2652.267	813.625	-2772.969	O.2	1	GLU1	-0.582	
5	  CB	2649.559	813.751	-2770.964	C.3	1	GLU1	0.056	
6	  CG	2650.034	815.236	-2770.853	C.3	1	GLU1	0.014	
7	  CD	2649.610	816.040	-2769.638	C.2	1	GLU1	0.805	
8	 OE1	2648.882	815.538	-2768.760	O.co2	1	GLU1	-0.819	
9	 OE2	2650.041	817.210	-2769.566	O.co2	1	GLU1	-0.819	
10	   H	2650.150	810.738	-2772.201	 H	1	GLU1	0.294	
11	  HA	2649.756	813.484	-2773.121	 H	1	GLU1	0.111	
12	 2HB	2649.848	813.220	-2770.034	 H	1	GLU1	-0.017	
13	 3HB	2648.452	813.741	-2770.951	 H	1	GLU1	-0.017	
14	 2HG	2649.724	815.821	-2771.734	 H	1	GLU1	-0.043	
15	 3HG	2651.135	815.303	-2770.824	 H	1	GLU1	-0.043	
16	   N	2652.196	812.141	-2771.376	N.am	2	ASN2	-0.416	
17	  CA	2653.655	812.102	-2771.375	C.3	2	ASN2	0.014	
18	   C	2654.187	811.746	-2772.744	C.2	2	ASN2	0.597	
19	   O	2655.102	812.376	-2773.272	O.2	2	ASN2	-0.568	
20	  CB	2654.147	811.079	-2770.311	C.3	2	ASN2	-0.204	
21	  CG	2653.684	811.302	-2768.868	C.2	2	ASN2	0.713	
22	 ND2	2654.278	812.217	-2768.149	N.pl3	2	ASN2	-0.919	
23	 OD1	2652.762	810.669	-2768.374	O.2	2	ASN2	-0.593	
24	   H	2651.668	811.561	-2770.739	 H	2	ASN2	0.272	
25	  HA	2654.033	813.111	-2771.130	 H	2	ASN2	0.105	
26	 2HB	2655.251	811.020	-2770.314	 H	2	ASN2	0.080	
27	 3HB	2653.818	810.060	-2770.597	 H	2	ASN2	0.080	
28	1HD2	2653.797	812.391	-2767.263	 H	2	ASN2	0.420	
29	2HD2	2654.979	812.789	-2768.618	 H	2	ASN2	0.420	
30	   N	2653.665	810.751	-2773.378	N.am	3	PRO3	-0.255	
31	  CA	2654.117	810.342	-2774.700	C.3	3	PRO3	-0.027	
32	   C	2653.720	811.365	-2775.777	C.2	3	PRO3	0.590	
33	   O	2654.543	811.748	-2776.608	O.2	3	PRO3	-0.575	
34	  CB	2653.413	808.987	-2774.869	C.3	3	PRO3	-0.007	
35	  CG	2652.129	809.140	-2774.040	C.3	3	PRO3	0.019	
36	  CD	2652.587	809.958	-2772.830	C.3	3	PRO3	0.019	
37	  HA	2655.203	810.222	-2774.713	 H	3	PRO3	0.064	
38	 2HB	2654.036	808.206	-2774.428	 H	3	PRO3	0.025	
39	 3HB	2653.215	808.739	-2775.915	 H	3	PRO3	0.025	
40	 2HG	2651.702	808.178	-2773.749	 H	3	PRO3	0.021	
41	 3HG	2651.392	809.711	-2774.607	 H	3	PRO3	0.021	
42	 2HD	2652.976	809.308	-2772.042	 H	3	PRO3	0.039	
43	 3HD	2651.790	810.594	-2772.437	 H	3	PRO3	0.039	
44	   N	2652.515	811.826	-2775.810	N.am	4	GLU4	-0.516	
45	  CA	2652.156	812.797	-2776.839	C.3	4	GLU4	0.040	
46	   C	2653.055	814.007	-2776.778	C.2	4	GLU4	0.537	
47	   O	2653.582	814.487	-2777.792	O.2	4	GLU4	-0.582	
48	  CB	2650.667	813.216	-2776.670	C.3	4	GLU4	0.056	
49	  CG	2650.120	814.220	-2777.735	C.3	4	GLU4	0.014	
50	  CD	2648.693	814.717	-2777.592	C.2	4	GLU4	0.805	
51	 OE1	2647.967	814.318	-2776.662	O.co2	4	GLU4	-0.819	
52	 OE2	2648.304	815.546	-2778.441	O.co2	4	GLU4	-0.819	
53	   H	2651.830	811.519	-2775.133	 H	4	GLU4	0.294	
54	  HA	2652.287	812.326	-2777.831	 H	4	GLU4	0.111	
55	 2HB	2650.514	813.655	-2775.663	 H	4	GLU4	-0.017	
56	 3HB	2650.019	812.318	-2776.676	 H	4	GLU4	-0.017	
57	 2HG	2650.202	813.805	-2778.753	 H	4	GLU4	-0.043	
58	 3HG	2650.708	815.152	-2777.746	 H	4	GLU4	-0.043	
59	   N	2653.282	814.560	-2775.635	N.am	5	SER5	-0.416	
60	  CA	2654.152	815.731	-2775.576	C.3	5	SER5	-0.025	
61	   C	2655.511	815.425	-2776.161	C.2	5	SER5	0.597	
62	   O	2656.059	816.178	-2776.966	O.2	5	SER5	-0.568	
63	  CB	2654.263	816.263	-2774.125	C.3	5	SER5	0.212	
64	  OG	2654.994	815.384	-2773.264	O.3	5	SER5	-0.655	
65	   H	2652.865	814.189	-2774.793	 H	5	SER5	0.272	
66	  HA	2653.703	816.522	-2776.205	 H	5	SER5	0.084	
67	 2HB	2653.263	816.457	-2773.692	 H	5	SER5	0.035	
68	 3HB	2654.769	817.249	-2774.127	 H	5	SER5	0.035	
69	  HG	2654.505	814.559	-2773.213	 H	5	SER5	0.428	
70	   N	2656.115	814.342	-2775.807	N.am	6	ILE6	-0.416	
71	  CA	2657.428	814.046	-2776.373	C.3	6	ILE6	-0.060	
72	   C	2657.371	814.009	-2777.880	C.2	6	ILE6	0.597	
73	   O	2658.206	814.596	-2778.584	O.2	6	ILE6	-0.568	
74	  CB	2658.027	812.710	-2775.772	C.3	6	ILE6	0.130	
75	 CG1	2658.046	812.648	-2774.211	C.3	6	ILE6	-0.043	
76	 CG2	2659.469	812.408	-2776.287	C.3	6	ILE6	-0.320	
77	 CD1	2658.316	811.258	-2773.596	C.3	6	ILE6	-0.066	
78	   H	2655.686	813.708	-2775.148	 H	6	ILE6	0.272	
79	  HA	2658.103	814.880	-2776.105	 H	6	ILE6	0.087	
80	  HB	2657.369	811.884	-2776.117	 H	6	ILE6	0.019	
81	2HG1	2657.064	812.968	-2773.816	 H	6	ILE6	0.024	
82	3HG1	2658.762	813.390	-2773.806	 H	6	ILE6	0.024	
83	1HG2	2659.528	812.314	-2777.385	 H	6	ILE6	0.088	
84	2HG2	2660.191	813.190	-2775.985	 H	6	ILE6	0.088	
85	3HG2	2659.858	811.445	-2775.908	 H	6	ILE6	0.088	
86	1HD1	2657.587	810.505	-2773.951	 H	6	ILE6	0.019	
87	2HD1	2659.326	810.879	-2773.832	 H	6	ILE6	0.019	
88	3HD1	2658.239	811.289	-2772.494	 H	6	ILE6	0.019	
89	   N	2656.425	813.346	-2778.454	N.am	7	LEU7	-0.416	
90	  CA	2656.370	813.309	-2779.912	C.3	7	LEU7	-0.052	
91	   C	2656.298	814.705	-2780.485	C.2	7	LEU7	0.597	
92	   O	2657.019	815.066	-2781.428	O.2	7	LEU7	-0.568	
93	  CB	2655.167	812.450	-2780.393	C.3	7	LEU7	-0.110	
94	  CG	2655.094	810.970	-2779.926	C.3	7	LEU7	0.353	
95	 CD1	2653.904	810.265	-2780.592	C.3	7	LEU7	-0.412	
96	 CD2	2656.387	810.190	-2780.218	C.3	7	LEU7	-0.412	
97	   H	2655.733	812.859	-2777.903	 H	7	LEU7	0.272	
98	  HA	2657.312	812.869	-2780.287	 H	7	LEU7	0.092	
99	 2HB	2655.144	812.465	-2781.500	 H	7	LEU7	0.046	
100	 3HB	2654.227	812.952	-2780.089	 H	7	LEU7	0.046	
101	  HG	2654.924	810.962	-2778.829	 H	7	LEU7	-0.036	
102	1HD1	2652.946	810.774	-2780.369	 H	7	LEU7	0.100	
103	2HD1	2654.003	810.224	-2781.693	 H	7	LEU7	0.100	
104	3HD1	2653.796	809.224	-2780.236	 H	7	LEU7	0.100	
105	1HD2	2656.662	810.221	-2781.288	 H	7	LEU7	0.100	
106	2HD2	2657.240	810.602	-2779.646	 H	7	LEU7	0.100	
107	3HD2	2656.305	809.128	-2779.922	 H	7	LEU7	0.100	
108	   N	2655.461	815.546	-2779.979	N.am	8	ASP8	-0.516	
109	  CA	2655.391	816.895	-2780.533	C.3	8	ASP8	0.038	
110	   C	2656.739	817.574	-2780.477	C.2	8	ASP8	0.537	
111	   O	2657.211	818.178	-2781.452	O.2	8	ASP8	-0.582	
112	  CB	2654.314	817.735	-2779.792	C.3	8	ASP8	-0.030	
113	  CG	2654.096	819.156	-2780.334	C.2	8	ASP8	0.799	
114	 OD1	2654.160	819.354	-2781.565	O.co2	8	ASP8	-0.801	
115	 OD2	2653.904	820.082	-2779.519	O.co2	8	ASP8	-0.801	
116	   H	2654.863	815.276	-2779.212	 H	8	ASP8	0.294	
117	  HA	2655.108	816.817	-2781.601	 H	8	ASP8	0.088	
118	 2HB	2654.571	817.819	-2778.721	 H	8	ASP8	-0.012	
119	 3HB	2653.334	817.230	-2779.825	 H	8	ASP8	-0.012	
120	   N	2657.418	817.525	-2779.382	N.am	9	GLU9	-0.516	
121	  CA	2658.722	818.182	-2779.327	C.3	9	GLU9	0.040	
122	   C	2659.639	817.653	-2780.403	C.2	9	GLU9	0.537	
123	   O	2660.303	818.407	-2781.129	O.2	9	GLU9	-0.582	
124	  CB	2659.355	817.974	-2777.922	C.3	9	GLU9	0.056	
125	  CG	2660.738	818.666	-2777.693	C.3	9	GLU9	0.014	
126	  CD	2661.440	818.453	-2776.365	C.2	9	GLU9	0.805	
127	 OE1	2660.918	817.763	-2775.468	O.co2	9	GLU9	-0.819	
128	 OE2	2662.560	818.991	-2776.233	O.co2	9	GLU9	-0.819	
129	   H	2657.055	817.039	-2778.574	 H	9	GLU9	0.294	
130	  HA	2658.580	819.263	-2779.503	 H	9	GLU9	0.111	
131	 2HB	2659.468	816.890	-2777.718	 H	9	GLU9	-0.017	
132	 3HB	2658.658	818.328	-2777.137	 H	9	GLU9	-0.017	
133	 2HG	2660.667	819.757	-2777.833	 H	9	GLU9	-0.043	
134	 3HG	2661.485	818.320	-2778.427	 H	9	GLU9	-0.043	
135	   N	2659.735	816.378	-2780.572	N.am	10	HIS10	-0.416	
136	  CA	2660.622	815.865	-2781.612	C.3	10	HIS10	-0.058	
137	   C	2660.255	816.430	-2782.963	C.2	10	HIS10	0.597	
138	   O	2661.108	816.893	-2783.736	O.2	10	HIS10	-0.568	
139	  CB	2660.458	814.337	-2781.606	C.3	10	HIS10	-0.007	
140	  CG	2661.743	813.626	-2781.298	C.2	10	HIS10	0.187	
141	 CD2	2662.125	813.291	-2780.006	C.2	10	HIS10	-0.221	
142	 ND1	2662.695	813.219	-2782.231	N.2	10	HIS10	-0.543	
143	 CE1	2663.601	812.661	-2781.408	C.2	10	HIS10	0.163	
144	 NE2	2663.339	812.659	-2780.073	N.pl3	10	HIS10	-0.280	
145	   H	2659.204	815.743	-2779.993	 H	10	HIS10	0.272	
146	  HA	2661.642	816.223	-2781.388	 H	10	HIS10	0.136	
147	 2HB	2660.092	813.969	-2782.586	 H	10	HIS10	0.037	
148	 3HB	2659.702	814.000	-2780.866	 H	10	HIS10	0.037	
149	 2HD	2661.539	813.507	-2779.117	 H	10	HIS10	0.186	
150	 1HE	2664.492	812.239	-2781.855	 H	10	HIS10	0.144	
151	 2HE	2663.906	812.282	-2779.299	 H	10	HIS10	0.334	
152	   N	2659.018	816.429	-2783.326	N.am	11	VAL11	-0.416	
153	  CA	2658.662	816.975	-2784.633	C.3	11	VAL11	-0.087	
154	   C	2659.128	818.405	-2784.767	C.2	11	VAL11	0.597	
155	   O	2659.729	818.809	-2785.770	O.2	11	VAL11	-0.568	
156	  CB	2657.101	816.869	-2784.852	C.3	11	VAL11	0.299	
157	 CG1	2656.533	817.572	-2786.115	C.3	11	VAL11	-0.319	
158	 CG2	2656.576	815.415	-2784.924	C.3	11	VAL11	-0.319	
159	   H	2658.304	816.057	-2782.715	 H	11	VAL11	0.272	
160	  HA	2659.182	816.391	-2785.416	 H	11	VAL11	0.097	
161	  HB	2656.614	817.350	-2783.977	 H	11	VAL11	-0.030	
162	1HG1	2656.971	817.180	-2787.052	 H	11	VAL11	0.079	
163	2HG1	2655.434	817.465	-2786.197	 H	11	VAL11	0.079	
164	3HG1	2656.711	818.664	-2786.107	 H	11	VAL11	0.079	
165	1HG2	2656.865	814.828	-2784.033	 H	11	VAL11	0.079	
166	2HG2	2655.470	815.378	-2784.967	 H	11	VAL11	0.079	
167	3HG2	2656.957	814.873	-2785.811	 H	11	VAL11	0.079	
168	   N	2658.891	819.231	-2783.804	N.am	12	GLN12	-0.416	
169	  CA	2659.341	820.614	-2783.932	C.3	12	GLN12	-0.003	
170	   C	2660.830	820.680	-2784.171	C.2	12	GLN12	0.597	
171	   O	2661.318	821.388	-2785.050	O.2	12	GLN12	-0.568	
172	  CB	2658.950	821.382	-2782.650	C.3	12	GLN12	-0.004	
173	  CG	2659.312	822.904	-2782.620	C.3	12	GLN12	-0.064	
174	  CD	2659.010	823.718	-2781.355	C.2	12	GLN12	0.695	
175	 NE2	2658.443	823.143	-2780.326	N.pl3	12	GLN12	-0.941	
176	 OE1	2659.312	824.899	-2781.279	O.2	12	GLN12	-0.609	
177	   H	2658.403	818.926	-2782.975	 H	12	GLN12	0.272	
178	  HA	2658.841	821.070	-2784.808	 H	12	GLN12	0.085	
179	 2HB	2659.426	820.882	-2781.781	 H	12	GLN12	0.017	
180	 3HB	2657.860	821.276	-2782.487	 H	12	GLN12	0.017	
181	 2HG	2658.834	823.424	-2783.471	 H	12	GLN12	0.035	
182	 3HG	2660.395	823.045	-2782.786	 H	12	GLN12	0.035	
183	1HE2	2658.336	823.737	-2779.503	 H	12	GLN12	0.425	
184	2HE2	2658.279	822.139	-2780.429	 H	12	GLN12	0.425	
185	   N	2661.615	819.974	-2783.429	N.am	13	ARG13	-0.348	
186	  CA	2663.055	820.039	-2783.661	C.3	13	ARG13	-0.264	
187	   C	2663.391	819.666	-2785.085	C.2	13	ARG13	0.734	
188	   O	2664.160	820.337	-2785.770	O.2	13	ARG13	-0.589	
189	  CB	2663.768	819.100	-2782.646	C.3	13	ARG13	-0.001	
190	  CG	2665.313	819.253	-2782.566	C.3	13	ARG13	0.039	
191	  CD	2665.940	818.266	-2781.568	C.3	13	ARG13	0.049	
192	  NE	2667.417	818.473	-2781.518	N.pl3	13	ARG13	-0.530	
193	  CZ	2668.266	817.781	-2780.762	C.cat	13	ARG13	0.808	
194	 NH1	2667.901	816.818	-2779.964	N.pl3	13	ARG13	-0.863	
195	 NH2	2669.525	818.080	-2780.820	N.pl3	13	ARG13	-0.863	
196	   H	2661.239	819.384	-2782.700	 H	13	ARG13	0.275	
197	  HA	2663.380	821.085	-2783.503	 H	13	ARG13	0.156	
198	 2HB	2663.502	818.050	-2782.885	 H	13	ARG13	0.033	
199	 3HB	2663.344	819.268	-2781.636	 H	13	ARG13	0.033	
200	 2HG	2665.562	820.298	-2782.287	 H	13	ARG13	0.029	
201	 3HG	2665.764	819.096	-2783.567	 H	13	ARG13	0.029	
202	 2HD	2665.696	817.226	-2781.876	 H	13	ARG13	0.069	
203	 3HD	2665.485	818.412	-2780.565	 H	13	ARG13	0.069	
204	  HE	2667.869	819.194	-2782.089	 H	13	ARG13	0.346	
205	1HH1	2666.895	816.632	-2779.967	 H	13	ARG13	0.448	
206	2HH1	2668.614	816.335	-2779.415	 H	13	ARG13	0.448	
207	1HH2	2669.793	818.837	-2781.451	 H	13	ARG13	0.448	
208	2HH2	2670.161	817.539	-2780.231	 H	13	ARG13	0.448	
209	   N	2662.854	818.612	-2785.599	N.am	14	VAL14	-0.416	
210	  CA	2663.179	818.251	-2786.977	C.3	14	VAL14	-0.087	
211	   C	2662.849	819.381	-2787.923	C.2	14	VAL14	0.597	
212	   O	2663.642	819.762	-2788.792	O.2	14	VAL14	-0.568	
213	  CB	2662.406	816.934	-2787.383	C.3	14	VAL14	0.299	
214	 CG1	2662.494	816.515	-2788.876	C.3	14	VAL14	-0.319	
215	 CG2	2662.837	815.682	-2786.582	C.3	14	VAL14	-0.319	
216	   H	2662.219	818.043	-2785.057	 H	14	VAL14	0.272	
217	  HA	2664.267	818.074	-2787.052	 H	14	VAL14	0.097	
218	  HB	2661.330	817.106	-2787.166	 H	14	VAL14	-0.030	
219	1HG1	2663.536	816.338	-2789.205	 H	14	VAL14	0.079	
220	2HG1	2661.921	815.592	-2789.088	 H	14	VAL14	0.079	
221	3HG1	2662.065	817.277	-2789.554	 H	14	VAL14	0.079	
222	1HG2	2662.750	815.842	-2785.491	 H	14	VAL14	0.079	
223	2HG2	2662.201	814.806	-2786.813	 H	14	VAL14	0.079	
224	3HG2	2663.885	815.392	-2786.787	 H	14	VAL14	0.079	
225	   N	2661.704	819.967	-2787.821	N.am	15	MET15	-0.416	
226	  CA	2661.384	821.060	-2788.735	C.3	15	MET15	-0.024	
227	   C	2662.414	822.160	-2788.647	C.2	15	MET15	0.597	
228	   O	2662.917	822.670	-2789.660	O.2	15	MET15	-0.568	
229	  CB	2659.963	821.605	-2788.426	C.3	15	MET15	0.034	
230	  CG	2658.800	820.607	-2788.617	C.3	15	MET15	0.002	
231	  SD	2657.227	821.474	-2788.502	S.3	15	MET15	-0.274	
232	  CE	2656.146	820.044	-2788.365	C.3	15	MET15	-0.054	
233	   H	2661.039	819.675	-2787.119	 H	15	MET15	0.272	
234	  HA	2661.409	820.672	-2789.770	 H	15	MET15	0.088	
235	 2HB	2659.760	822.484	-2789.068	 H	15	MET15	0.024	
236	 3HB	2659.927	821.998	-2787.389	 H	15	MET15	0.024	
237	 2HG	2658.844	819.822	-2787.839	 H	15	MET15	0.044	
238	 3HG	2658.863	820.092	-2789.593	 H	15	MET15	0.044	
239	 1HE	2656.289	819.356	-2789.217	 H	15	MET15	0.068	
240	 2HE	2656.355	819.492	-2787.432	 H	15	MET15	0.068	
241	 3HE	2655.088	820.360	-2788.348	 H	15	MET15	0.068	
242	   N	2662.783	822.581	-2787.485	N.am	16	ARG16	-0.348	
243	  CA	2663.780	823.645	-2787.402	C.3	16	ARG16	-0.264	
244	   C	2665.050	823.252	-2788.119	C.2	16	ARG16	0.734	
245	   O	2665.164	822.175	-2788.699	O.2	16	ARG16	-0.589	
246	  CB	2664.049	823.963	-2785.904	C.3	16	ARG16	-0.001	
247	  CG	2664.875	825.252	-2785.632	C.3	16	ARG16	0.039	
248	  CD	2665.124	825.472	-2784.131	C.3	16	ARG16	0.049	
249	  NE	2665.900	826.731	-2783.930	N.pl3	16	ARG16	-0.530	
250	  CZ	2666.292	827.214	-2782.755	C.cat	16	ARG16	0.808	
251	 NH1	2666.044	826.630	-2781.616	N.pl3	16	ARG16	-0.863	
252	 NH2	2666.956	828.326	-2782.737	N.pl3	16	ARG16	-0.863	
253	   H	2662.389	822.181	-2786.646	 H	16	ARG16	0.275	
254	  HA	2663.371	824.537	-2787.912	 H	16	ARG16	0.156	
255	 2HB	2664.546	823.087	-2785.438	 H	16	ARG16	0.033	
256	 3HB	2663.081	824.044	-2785.370	 H	16	ARG16	0.033	
257	 2HG	2664.344	826.123	-2786.069	 H	16	ARG16	0.029	
258	 3HG	2665.848	825.199	-2786.161	 H	16	ARG16	0.029	
259	 2HD	2665.673	824.598	-2783.717	 H	16	ARG16	0.069	
260	 3HD	2664.152	825.515	-2783.595	 H	16	ARG16	0.069	
261	  HE	2666.179	827.312	-2784.728	 H	16	ARG16	0.346	
262	1HH1	2665.519	825.757	-2781.700	 H	16	ARG16	0.448	
263	2HH1	2666.379	827.066	-2780.755	 H	16	ARG16	0.448	
264	1HH2	2667.141	828.769	-2783.639	 H	16	ARG16	0.448	
265	2HH2	2667.246	828.682	-2781.824	 H	16	ARG16	0.448	
@<TRIPOS>BOND
1 1 2 1
2 1 10 1
3 2 3 1
4 2 5 1
5 2 11 1
6 3 4 2
7 3 16 1
8 5 6 1
9 6 7 1
10 7 8 2
11 7 9 1
12 5 12 1
13 5 13 1
14 6 14 1
15 6 15 1
16 16 17 1
17 16 24 1
18 17 18 1
19 17 20 1
20 17 25 1
21 18 19 2
22 18 30 1
23 20 21 1
24 21 22 1
25 21 23 2
26 20 26 1
27 20 27 1
28 22 28 1
29 22 29 1
30 30 31 1
31 30 36 1
32 31 32 1
33 31 34 1
34 31 37 1
35 32 33 2
36 32 44 1
37 34 35 1
38 35 36 1
39 34 38 1
40 34 39 1
41 35 40 1
42 35 41 1
43 36 42 1
44 36 43 1
45 44 45 1
46 44 53 1
47 45 46 1
48 45 48 1
49 45 54 1
50 46 47 2
51 46 59 1
52 48 49 1
53 49 50 1
54 50 51 2
55 50 52 1
56 48 55 1
57 48 56 1
58 49 57 1
59 49 58 1
60 59 60 1
61 59 65 1
62 60 61 1
63 60 63 1
64 60 66 1
65 61 62 2
66 61 70 1
67 63 64 1
68 63 67 1
69 63 68 1
70 64 69 1
71 70 71 1
72 70 78 1
73 71 72 1
74 71 74 1
75 71 79 1
76 72 73 2
77 72 89 1
78 74 75 1
79 74 76 1
80 75 77 1
81 74 80 1
82 75 81 1
83 75 82 1
84 76 83 1
85 76 84 1
86 76 85 1
87 77 86 1
88 77 87 1
89 77 88 1
90 89 90 1
91 89 97 1
92 90 91 1
93 90 93 1
94 90 98 1
95 91 92 2
96 91 108 1
97 93 94 1
98 94 95 1
99 94 96 1
100 93 99 1
101 93 100 1
102 94 101 1
103 95 102 1
104 95 103 1
105 95 104 1
106 96 105 1
107 96 106 1
108 96 107 1
109 108 109 1
110 108 116 1
111 109 110 1
112 109 112 1
113 109 117 1
114 110 111 2
115 110 120 1
116 112 113 1
117 113 114 2
118 113 115 1
119 112 118 1
120 112 119 1
121 120 121 1
122 120 129 1
123 121 122 1
124 121 124 1
125 121 130 1
126 122 123 2
127 122 135 1
128 124 125 1
129 125 126 1
130 126 127 2
131 126 128 1
132 124 131 1
133 124 132 1
134 125 133 1
135 125 134 1
136 135 136 1
137 135 145 1
138 136 137 1
139 136 139 1
140 136 146 1
141 137 138 2
142 137 152 1
143 139 140 1
144 140 141 2
145 141 144 1
146 140 142 1
147 142 143 2
148 143 144 1
149 139 147 1
150 139 148 1
151 141 149 1
152 143 150 1
153 144 151 1
154 152 153 1
155 152 159 1
156 153 154 1
157 153 156 1
158 153 160 1
159 154 155 2
160 154 168 1
161 156 157 1
162 156 158 1
163 156 161 1
164 157 162 1
165 157 163 1
166 157 164 1
167 158 165 1
168 158 166 1
169 158 167 1
170 168 169 1
171 168 177 1
172 169 170 1
173 169 172 1
174 169 178 1
175 170 171 2
176 170 185 1
177 172 173 1
178 173 174 1
179 174 175 1
180 174 176 2
181 172 179 1
182 172 180 1
183 173 181 1
184 173 182 1
185 175 183 1
186 175 184 1
187 185 186 1
188 185 196 1
189 186 187 1
190 186 189 1
191 186 197 1
192 187 188 2
193 187 209 1
194 189 190 1
195 190 191 1
196 191 192 1
197 192 193 1
198 193 194 2
199 193 195 1
200 189 198 1
201 189 199 1
202 190 200 1
203 190 201 1
204 191 202 1
205 191 203 1
206 192 204 1
207 194 205 1
208 194 206 1
209 195 207 1
210 195 208 1
211 209 210 1
212 209 216 1
213 210 211 1
214 210 213 1
215 210 217 1
216 211 212 2
217 211 225 1
218 213 214 1
219 213 215 1
220 213 218 1
221 214 219 1
222 214 220 1
223 214 221 1
224 215 222 1
225 215 223 1
226 215 224 1
227 225 226 1
228 225 233 1
229 226 227 1
230 226 229 1
231 226 234 1
232 227 228 2
233 227 242 1
234 229 230 1
235 230 231 1
236 231 232 1
237 229 235 1
238 229 236 1
239 230 237 1
240 230 238 1
241 232 239 1
242 232 240 1
243 232 241 1
244 242 243 1
245 242 253 1
246 243 244 1
247 243 246 1
248 243 254 1
249 244 245 2
250 246 247 1
251 247 248 1
252 248 249 1
253 249 250 1
254 250 251 2
255 250 252 1
256 246 255 1
257 246 256 1
258 247 257 1
259 247 258 1
260 248 259 1
261 248 260 1
262 249 261 1
263 251 262 1
264 251 263 1
265 252 264 1
266 252 265 1
@<TRIPOS>SUBSTRUCTURE
1	GLU1	1	RESIDUE	1 ****	GLU
2	ASN2	16	RESIDUE	1 ****	ASN
3	PRO3	30	RESIDUE	1 ****	PRO
4	GLU4	44	RESIDUE	1 ****	GLU
5	SER5	59	RESIDUE	1 ****	SER
6	ILE6	70	RESIDUE	1 ****	ILE
7	LEU7	89	RESIDUE	1 ****	LEU
8	ASP8	108	RESIDUE	1 ****	ASP
9	GLU9	120	RESIDUE	1 ****	GLU
10	HIS10	135	RESIDUE	1 ****	HIS
11	VAL11	152	RESIDUE	1 ****	VAL
12	GLN12	168	RESIDUE	1 ****	GLN
13	ARG13	185	RESIDUE	1 ****	ARG
14	VAL14	209	RESIDUE	1 ****	VAL
15	MET15	225	RESIDUE	1 ****	MET
16	ARG16	242	RESIDUE	1 ****	ARG
