REMARK WARNING: 32 MAX_TORS EXCEEDED!!!
REMARK  68 active torsions:
REMARK  status: ('A' for Active; 'I' for Inactive)
REMARK    1  A    between atoms: N_1  and  CA_2 
REMARK    2  A    between atoms: CA_2  and  C_3 
REMARK    3  A    between atoms: CA_2  and  CB_5 
REMARK       I    between atoms: C_3  and  N_11 
REMARK    4  A    between atoms: CB_5  and  CG_6 
REMARK    5  A    between atoms: CG_6  and  CD_7 
REMARK    6  A    between atoms: N_11  and  CA_12 
REMARK    7  A    between atoms: CA_12  and  C_13 
REMARK    8  A    between atoms: CA_12  and  CB_15 
REMARK       I    between atoms: C_13  and  N_22 
REMARK    9  A    between atoms: CB_15  and  CG_16 
REMARK       I    between atoms: CG_16  and  ND2_17 
REMARK   10  A    between atoms: CA_23  and  C_24 
REMARK       I    between atoms: C_24  and  N_29 
REMARK   11  A    between atoms: N_29  and  CA_30 
REMARK   12  A    between atoms: CA_30  and  C_31 
REMARK   13  A    between atoms: CA_30  and  CB_33 
REMARK       I    between atoms: C_31  and  N_39 
REMARK   14  A    between atoms: CB_33  and  CG_34 
REMARK   15  A    between atoms: CG_34  and  CD_35 
REMARK   16  A    between atoms: N_39  and  CA_40 
REMARK   17  A    between atoms: CA_40  and  C_41 
REMARK   18  A    between atoms: CA_40  and  CB_43 
REMARK       I    between atoms: C_41  and  N_47 
REMARK   19  A    between atoms: CB_43  and  OG_44 
REMARK   20  A    between atoms: N_47  and  CA_48 
REMARK   21  A    between atoms: CA_48  and  C_49 
REMARK   22  A    between atoms: CA_48  and  CB_51 
REMARK       I    between atoms: C_49  and  N_56 
REMARK   23  A    between atoms: CB_51  and  CG1_52 
REMARK   24  A    between atoms: N_56  and  CA_57 
REMARK   25  A    between atoms: CA_57  and  C_58 
REMARK   26  A    between atoms: CA_57  and  CB_60 
REMARK       I    between atoms: C_58  and  N_65 
REMARK   27  A    between atoms: CB_60  and  CG_61 
REMARK   28  A    between atoms: N_65  and  CA_66 
REMARK   29  A    between atoms: CA_66  and  C_67 
REMARK   30  A    between atoms: CA_66  and  CB_69 
REMARK       I    between atoms: C_67  and  N_77 
REMARK   31  A    between atoms: CB_69  and  CG_70 
REMARK   32  A    between atoms: N_77  and  CA_78 
REMARK   33  A    between atoms: CA_78  and  C_79 
REMARK   34  A    between atoms: CA_78  and  CB_81 
REMARK       I    between atoms: C_79  and  N_87 
REMARK   35  A    between atoms: CB_81  and  CG_82 
REMARK   36  A    between atoms: CG_82  and  CD_83 
REMARK   37  A    between atoms: N_87  and  CA_88 
REMARK   38  A    between atoms: CA_88  and  C_89 
REMARK   39  A    between atoms: CA_88  and  CB_91 
REMARK       I    between atoms: C_89  and  N_99 
REMARK   40  A    between atoms: CB_91  and  CG_92 
REMARK   41  A    between atoms: N_99  and  CA_100 
REMARK   42  A    between atoms: CA_100  and  C_101 
REMARK   43  A    between atoms: CA_100  and  CB_103 
REMARK       I    between atoms: C_101  and  N_107 
REMARK   44  A    between atoms: N_107  and  CA_108 
REMARK   45  A    between atoms: CA_108  and  C_109 
REMARK   46  A    between atoms: CA_108  and  CB_111 
REMARK       I    between atoms: C_109  and  N_119 
REMARK   47  A    between atoms: CB_111  and  CG_112 
REMARK   48  A    between atoms: CG_112  and  CD_113 
REMARK       I    between atoms: CD_113  and  NE2_114 
REMARK   49  A    between atoms: N_119  and  CA_120 
REMARK   50  A    between atoms: CA_120  and  C_121 
REMARK   51  A    between atoms: CA_120  and  CB_123 
REMARK       I    between atoms: C_121  and  N_136 
REMARK   52  A    between atoms: CB_123  and  CG_124 
REMARK   53  A    between atoms: CG_124  and  CD_125 
REMARK   54  A    between atoms: CD_125  and  NE_126 
REMARK       I    between atoms: NE_126  and  CZ_127 
REMARK       I    between atoms: CZ_127  and  NH1_128 
REMARK       I    between atoms: CZ_127  and  NH2_129 
REMARK   55  A    between atoms: N_136  and  CA_137 
REMARK   56  A    between atoms: CA_137  and  C_138 
REMARK   57  A    between atoms: CA_137  and  CB_140 
REMARK       I    between atoms: C_138  and  N_144 
REMARK   58  A    between atoms: N_144  and  CA_145 
REMARK   59  A    between atoms: CA_145  and  C_146 
REMARK   60  A    between atoms: CA_145  and  CB_148 
REMARK       I    between atoms: C_146  and  N_153 
REMARK   61  A    between atoms: CB_148  and  CG_149 
REMARK   62  A    between atoms: CG_149  and  SD_150 
REMARK   63  A    between atoms: N_153  and  CA_154 
REMARK   64  A    between atoms: CA_154  and  C_155 
REMARK   65  A    between atoms: CA_154  and  CB_157 
REMARK   66  A    between atoms: CB_157  and  CG_158 
REMARK   67  A    between atoms: CG_158  and  CD_159 
REMARK   68  A    between atoms: CD_159  and  NE_160 
REMARK       I    between atoms: NE_160  and  CZ_161 
REMARK       I    between atoms: CZ_161  and  NH1_162 
ROOT
ATOM      1  C   GLU d   9    1281.307 373.604-1279.527  0.00  0.00     0.241 C 
ATOM      2  O   GLU d   9    1281.970 374.360-1280.252  0.00  0.00    -0.271 OA
ATOM      3  N   HIS d  10    1281.404 372.329-1279.697  0.00  0.00    -0.346 N 
ATOM      4  H   HIS d  10    1280.874 371.693-1279.120  0.00  0.00     0.163 HD
ENDROOT
BRANCH   1   5
ATOM      5  CA  GLU d   9    1280.388 374.130-1278.451  0.00  0.00     0.177 C 
BRANCH   5   6
ATOM      6  N   GLU d   9    1279.086 373.472-1278.507  0.00  0.00    -0.346 N 
ATOM      7  C   HIS d   8    1278.406 373.522-1279.602  0.00  0.00     0.241 C 
ATOM      8  O   HIS d   8    1278.879 374.128-1280.576  0.00  0.00    -0.271 OA
ATOM      9  H   GLU d   9    1278.723 372.985-1277.700  0.00  0.00     0.163 HD
BRANCH   7  10
ATOM     10  CA  HIS d   8    1277.060 372.842-1279.659  0.00  0.00     0.182 C 
BRANCH  10  11
ATOM     11  N   HIS d   8    1277.131 371.492-1279.107  0.00  0.00    -0.346 N 
ATOM     12  C   LEU d   7    1277.968 370.651-1279.613  0.00  0.00     0.241 C 
ATOM     13  O   LEU d   7    1278.689 371.015-1280.555  0.00  0.00    -0.271 OA
ATOM     14  H   HIS d   8    1276.533 371.220-1278.339  0.00  0.00     0.163 HD
BRANCH  12  15
ATOM     15  CA  LEU d   7    1278.041 369.256-1279.041  0.00  0.00     0.177 C 
BRANCH  15  16
ATOM     16  N   LEU d   7    1278.096 369.292-1277.583  0.00  0.00    -0.346 N 
ATOM     17  C   ILE d   6    1279.042 369.955-1277.009  0.00  0.00     0.241 C 
ATOM     18  O   ILE d   6    1279.877 370.543-1277.713  0.00  0.00    -0.271 OA
ATOM     19  H   LEU d   7    1277.404 368.805-1277.031  0.00  0.00     0.163 HD
BRANCH  17  20
ATOM     20  CA  ILE d   6    1279.099 369.993-1275.501  0.00  0.00     0.180 C 
BRANCH  20  21
ATOM     21  N   ILE d   6    1277.786 370.287-1274.935  0.00  0.00    -0.346 N 
ATOM     22  C   SER d   5    1277.181 371.370-1275.289  0.00  0.00     0.243 C 
ATOM     23  O   SER d   5    1277.728 372.124-1276.094  0.00  0.00    -0.271 OA
ATOM     24  H   ILE d   6    1277.358 369.653-1274.276  0.00  0.00     0.163 HD
BRANCH  22  25
ATOM     25  CA  SER d   5    1275.823 371.676-1274.703  0.00  0.00     0.200 C 
BRANCH  25  26
ATOM     26  N   SER d   5    1274.953 370.505-1274.761  0.00  0.00    -0.344 N 
ATOM     27  C   GLU d   4    1274.726 369.952-1275.905  0.00  0.00     0.241 C 
ATOM     28  O   GLU d   4    1275.252 370.431-1276.919  0.00  0.00    -0.271 OA
ATOM     29  H   SER d   5    1274.536 370.133-1273.920  0.00  0.00     0.163 HD
BRANCH  27  30
ATOM     30  CA  GLU d   4    1273.827 368.741-1275.966  0.00  0.00     0.177 C 
BRANCH  30  31
ATOM     31  N   GLU d   4    1274.187 367.770-1274.936  0.00  0.00    -0.346 N 
ATOM     32  C   PRO d   3    1275.391 367.309-1274.904  0.00  0.00     0.241 C 
ATOM     33  O   PRO d   3    1276.214 367.693-1275.735  0.00  0.00    -0.271 OA
ATOM     34  H   GLU d   4    1273.502 367.463-1274.259  0.00  0.00     0.163 HD
BRANCH  32  35
ATOM     35  CA  PRO d   3    1275.789 366.286-1273.827  0.00  0.00     0.179 C 
ATOM     36  N   PRO d   3    1275.338 366.695-1272.505  0.00  0.00    -0.337 N 
ATOM     37  C   ASN d   2    1275.859 367.690-1271.871  0.00  0.00     0.243 C 
ATOM     38  CD  PRO d   3    1274.260 365.902-1271.956  0.00  0.00     0.127 C 
ATOM     39  O   ASN d   2    1276.774 368.321-1272.400  0.00  0.00    -0.271 OA
ATOM     40  CG  PRO d   3    1273.802 365.084-1273.166  0.00  0.00     0.022 C 
ATOM     41  CB  PRO d   3    1275.085 364.931-1273.996  0.00  0.00     0.037 C 
BRANCH  37  42
ATOM     42  CA  ASN d   2    1275.328 368.046-1270.503  0.00  0.00     0.185 C 
BRANCH  42  43
ATOM     43  N   ASN d   2    1273.869 368.085-1270.503  0.00  0.00    -0.346 N 
ATOM     44  C   GLU d   1    1273.264 368.870-1271.328  0.00  0.00     0.242 C 
ATOM     45  O   GLU d   1    1273.940 369.570-1272.096  0.00  0.00    -0.271 OA
ATOM     46  H   ASN d   2    1273.341 367.505-1269.866  0.00  0.00     0.163 HD
BRANCH  44  47
ATOM     47  CA  GLU d   1    1271.755 368.910-1271.328  0.00  0.00     0.191 C 
BRANCH  47  48
ATOM     48  N   GLU d   1    1271.196 367.561-1271.328  0.00  0.00    -0.326 NA
ATOM     49  H   GLU d   1    1271.823 366.682-1271.328  0.00  0.00     0.180 HD
ENDBRANCH  47  48
BRANCH  47  50
ATOM     50  CB  GLU d   1    1271.232 369.695-1270.091  0.00  0.00     0.047 C 
BRANCH  50  51
ATOM     51  CG  GLU d   1    1271.707 371.180-1269.980  0.00  0.00     0.116 C 
BRANCH  51  52
ATOM     52  CD  GLU d   1    1271.283 371.984-1268.765  0.00  0.00     0.172 C 
ATOM     53  OE1 GLU d   1    1270.555 371.482-1267.887  0.00  0.00    -0.648 OA
ATOM     54  OE2 GLU d   1    1271.713 373.154-1268.693  0.00  0.00    -0.648 OA
ENDBRANCH  51  52
ENDBRANCH  50  51
ENDBRANCH  47  50
ENDBRANCH  44  47
ENDBRANCH  42  43
BRANCH  42  55
ATOM     55  CB  ASN d   2    1275.820 367.023-1269.438  0.00  0.00     0.137 C 
BRANCH  55  56
ATOM     56  CG  ASN d   2    1275.357 367.247-1267.995  0.00  0.00     0.217 C 
ATOM     57  ND2 ASN d   2    1275.951 368.162-1267.277  0.00  0.00    -0.370 N 
ATOM     58 21HD ASN d   2    1275.471 368.335-1266.390  0.00  0.00     0.159 HD
ATOM     59 22HD ASN d   2    1276.653 368.733-1267.746  0.00  0.00     0.159 HD
ATOM     60  OD1 ASN d   2    1274.436 366.613-1267.501  0.00  0.00    -0.274 OA
ENDBRANCH  55  56
ENDBRANCH  42  55
ENDBRANCH  37  42
ENDBRANCH  32  35
ENDBRANCH  30  31
BRANCH  30  61
ATOM     61  CB  GLU d   4    1272.338 369.159-1275.795  0.00  0.00     0.045 C 
BRANCH  61  62
ATOM     62  CG  GLU d   4    1271.790 370.163-1276.861  0.00  0.00     0.116 C 
BRANCH  62  63
ATOM     63  CD  GLU d   4    1270.363 370.659-1276.717  0.00  0.00     0.172 C 
ATOM     64  OE1 GLU d   4    1269.637 370.261-1275.786  0.00  0.00    -0.648 OA
ATOM     65  OE2 GLU d   4    1269.974 371.489-1277.565  0.00  0.00    -0.648 OA
ENDBRANCH  62  63
ENDBRANCH  61  62
ENDBRANCH  30  61
ENDBRANCH  27  30
ENDBRANCH  25  26
BRANCH  25  66
ATOM     66  CB  SER d   5    1275.934 372.208-1273.252  0.00  0.00     0.199 C 
BRANCH  66  67
ATOM     67  OG  SER d   5    1276.666 371.329-1272.392  0.00  0.00    -0.398 OA
ATOM     68  HG  SER d   5    1276.177 370.504-1272.341  0.00  0.00     0.209 HD
ENDBRANCH  66  67
ENDBRANCH  25  66
ENDBRANCH  22  25
ENDBRANCH  20  21
BRANCH  20  69
ATOM     69  CB  ILE d   6    1279.699 368.657-1274.901  0.00  0.00     0.013 C 
ATOM     70  CG2 ILE d   6    1281.140 368.355-1275.417  0.00  0.00     0.012 C 
BRANCH  69  71
ATOM     71  CG1 ILE d   6    1279.719 368.594-1273.340  0.00  0.00     0.002 C 
ATOM     72  CD1 ILE d   6    1279.989 367.205-1272.726  0.00  0.00     0.005 C 
ENDBRANCH  69  71
ENDBRANCH  20  69
ENDBRANCH  17  20
ENDBRANCH  15  16
BRANCH  15  73
ATOM     73  CB  LEU d   7    1276.838 368.396-1279.522  0.00  0.00     0.038 C 
BRANCH  73  74
ATOM     74  CG  LEU d   7    1276.765 366.916-1279.055  0.00  0.00    -0.020 C 
ATOM     75  CD1 LEU d   7    1275.575 366.211-1279.721  0.00  0.00     0.009 C 
ATOM     76  CD2 LEU d   7    1278.059 366.137-1279.347  0.00  0.00     0.009 C 
ENDBRANCH  73  74
ENDBRANCH  15  73
ENDBRANCH  12  15
ENDBRANCH  10  11
BRANCH  10  77
ATOM     77  CB  HIS d   8    1276.036 373.606-1278.804  0.00  0.00     0.095 C 
BRANCH  77  78
ATOM     78  CG  HIS d   8    1274.867 374.091-1279.611  0.00  0.00     0.053 A 
ATOM     79  CD2 HIS d   8    1273.713 373.339-1279.787  0.00  0.00     0.116 A 
ATOM     80  NE2 HIS d   8    1272.852 374.063-1280.570  0.00  0.00    -0.359 N 
ATOM     81  CE1 HIS d   8    1273.555 375.204-1280.809  0.00  0.00     0.207 A 
ATOM     82  2HE HIS d   8    1271.909 373.801-1280.893  0.00  0.00     0.166 HD
ATOM     83  ND1 HIS d   8    1274.782 375.316-1280.268  0.00  0.00    -0.247 NA
ENDBRANCH  77  78
ENDBRANCH  10  77
ENDBRANCH   7  10
ENDBRANCH   5   6
BRANCH   5  84
ATOM     84  CB  GLU d   9    1281.022 373.922-1277.046  0.00  0.00     0.045 C 
BRANCH  84  85
ATOM     85  CG  GLU d   9    1282.404 374.615-1276.816  0.00  0.00     0.116 C 
BRANCH  85  86
ATOM     86  CD  GLU d   9    1283.106 374.401-1275.487  0.00  0.00     0.172 C 
ATOM     87  OE1 GLU d   9    1282.585 373.709-1274.592  0.00  0.00    -0.648 OA
ATOM     88  OE2 GLU d   9    1284.225 374.939-1275.355  0.00  0.00    -0.648 OA
ENDBRANCH  85  86
ENDBRANCH  84  85
ENDBRANCH   5  84
ENDBRANCH   1   5
BRANCH   3  89
ATOM     89  CA  HIS d  10    1282.293 371.819-1280.738  0.00  0.00     0.182 C 
BRANCH  89  90
ATOM     90  C   HIS d  10    1281.926 372.384-1282.089  0.00  0.00     0.241 C 
ATOM     91  O   HIS d  10    1282.778 372.850-1282.860  0.00  0.00    -0.271 OA
ATOM     92  N   VAL d  11    1280.688 372.383-1282.452  0.00  0.00    -0.346 N 
ATOM     93  H   VAL d  11    1279.975 372.009-1281.842  0.00  0.00     0.163 HD
BRANCH  92  94
ATOM     94  CA  VAL d  11    1280.333 372.930-1283.759  0.00  0.00     0.180 C 
BRANCH  94  95
ATOM     95  C   VAL d  11    1280.796 374.361-1283.890  0.00  0.00     0.241 C 
ATOM     96  O   VAL d  11    1281.397 374.767-1284.893  0.00  0.00    -0.271 OA
ATOM     97  N   GLN d  12    1280.558 375.186-1282.927  0.00  0.00    -0.346 N 
ATOM     98  H   GLN d  12    1280.070 374.879-1282.098  0.00  0.00     0.163 HD
BRANCH  97  99
ATOM     99  CA  GLN d  12    1281.006 376.569-1283.054  0.00  0.00     0.177 C 
BRANCH  99 100
ATOM    100  C   GLN d  12    1282.496 376.637-1283.292  0.00  0.00     0.241 C 
ATOM    101  O   GLN d  12    1282.983 377.346-1284.170  0.00  0.00    -0.271 OA
ATOM    102  N   ARG d  13    1283.281 375.931-1282.551  0.00  0.00    -0.346 N 
ATOM    103  H   ARG d  13    1282.905 375.340-1281.823  0.00  0.00     0.163 HD
BRANCH 102 104
ATOM    104  CA  ARG d  13    1284.721 375.997-1282.781  0.00  0.00     0.176 C 
BRANCH 104 105
ATOM    105  C   ARG d  13    1285.058 375.626-1284.206  0.00  0.00     0.241 C 
ATOM    106  O   ARG d  13    1285.826 376.299-1284.890  0.00  0.00    -0.271 OA
ATOM    107  N   VAL d  14    1284.522 374.572-1284.721  0.00  0.00    -0.346 N 
ATOM    108  H   VAL d  14    1283.887 374.003-1284.180  0.00  0.00     0.163 HD
BRANCH 107 109
ATOM    109  CA  VAL d  14    1284.847 374.213-1286.099  0.00  0.00     0.180 C 
BRANCH 109 110
ATOM    110  C   VAL d  14    1284.517 375.343-1287.044  0.00  0.00     0.241 C 
ATOM    111  O   VAL d  14    1285.310 375.726-1287.914  0.00  0.00    -0.271 OA
ATOM    112  N   MET d  15    1283.372 375.929-1286.942  0.00  0.00    -0.346 N 
ATOM    113  H   MET d  15    1282.707 375.635-1286.241  0.00  0.00     0.163 HD
BRANCH 112 114
ATOM    114  CA  MET d  15    1283.051 377.022-1287.856  0.00  0.00     0.177 C 
BRANCH 114 115
ATOM    115  C   MET d  15    1284.081 378.122-1287.767  0.00  0.00     0.241 C 
ATOM    116  O   MET d  15    1284.583 378.633-1288.780  0.00  0.00    -0.271 OA
ATOM    117  N   ARG d  16    1284.449 378.543-1286.605  0.00  0.00    -0.347 N 
ATOM    118  H   ARG d  16    1284.055 378.142-1285.766  0.00  0.00     0.163 HD
BRANCH 117 119
ATOM    119  CA  ARG d  16    1285.445 379.607-1286.521  0.00  0.00     0.162 C 
BRANCH 119 120
ATOM    120  C   ARG d  16    1286.716 379.215-1287.237  0.00  0.00     0.219 C 
ATOM    121  O   ARG d  16    1286.830 378.139-1287.819  0.00  0.00    -0.287 OA
ENDBRANCH 119 120
BRANCH 119 122
ATOM    122  CB  ARG d  16    1285.714 379.924-1285.022  0.00  0.00     0.035 C 
BRANCH 122 123
ATOM    123  CG  ARG d  16    1286.538 381.214-1284.749  0.00  0.00     0.023 C 
BRANCH 123 124
ATOM    124  CD  ARG d  16    1286.788 381.433-1283.248  0.00  0.00     0.138 C 
BRANCH 124 125
ATOM    125  NE  ARG d  16    1287.563 382.692-1283.046  0.00  0.00    -0.227 N 
ATOM    126  CZ  ARG d  16    1287.954 383.175-1281.870  0.00  0.00     0.665 C 
ATOM    127  NH1 ARG d  16    1287.707 382.590-1280.732  0.00  0.00    -0.235 N 
ATOM    128  NH2 ARG d  16    1288.617 384.287-1281.852  0.00  0.00    -0.235 N 
ATOM    129 11HH ARG d  16    1287.182 381.716-1280.817  0.00  0.00     0.174 HD
ATOM    130 12HH ARG d  16    1288.041 383.025-1279.871  0.00  0.00     0.174 HD
ATOM    131 21HH ARG d  16    1288.803 384.731-1282.753  0.00  0.00     0.174 HD
ATOM    132 22HH ARG d  16    1288.907 384.642-1280.939  0.00  0.00     0.174 HD
ATOM    133  HE  ARG d  16    1287.841 383.274-1283.843  0.00  0.00     0.177 HD
ENDBRANCH 124 125
ENDBRANCH 123 124
ENDBRANCH 122 123
ENDBRANCH 119 122
ENDBRANCH 117 119
ENDBRANCH 114 115
BRANCH 114 134
ATOM    134  CB  MET d  15    1281.629 377.566-1287.546  0.00  0.00     0.045 C 
BRANCH 134 135
ATOM    135  CG  MET d  15    1280.468 376.568-1287.739  0.00  0.00     0.076 C 
BRANCH 135 136
ATOM    136  SD  MET d  15    1278.893 377.433-1287.624  0.00  0.00    -0.173 SA
ATOM    137  CE  MET d  15    1277.813 376.003-1287.488  0.00  0.00     0.089 C 
ENDBRANCH 135 136
ENDBRANCH 134 135
ENDBRANCH 114 134
ENDBRANCH 112 114
ENDBRANCH 109 110
BRANCH 109 138
ATOM    138  CB  VAL d  14    1284.075 372.896-1286.506  0.00  0.00     0.009 C 
ATOM    139  CG1 VAL d  14    1284.165 372.478-1288.000  0.00  0.00     0.012 C 
ATOM    140  CG2 VAL d  14    1284.508 371.644-1285.707  0.00  0.00     0.012 C 
ENDBRANCH 109 138
ENDBRANCH 107 109
ENDBRANCH 104 105
BRANCH 104 141
ATOM    141  CB  ARG d  13    1285.435 375.058-1281.768  0.00  0.00     0.036 C 
BRANCH 141 142
ATOM    142  CG  ARG d  13    1286.980 375.212-1281.686  0.00  0.00     0.023 C 
BRANCH 142 143
ATOM    143  CD  ARG d  13    1287.607 374.224-1280.689  0.00  0.00     0.138 C 
BRANCH 143 144
ATOM    144  NE  ARG d  13    1289.084 374.432-1280.638  0.00  0.00    -0.227 N 
ATOM    145  CZ  ARG d  13    1289.932 373.740-1279.883  0.00  0.00     0.665 C 
ATOM    146  NH1 ARG d  13    1289.568 372.775-1279.086  0.00  0.00    -0.235 N 
ATOM    147  NH2 ARG d  13    1291.191 374.040-1279.940  0.00  0.00    -0.235 N 
ATOM    148 11HH ARG d  13    1288.562 372.589-1279.090  0.00  0.00     0.174 HD
ATOM    149 12HH ARG d  13    1290.281 372.293-1278.538  0.00  0.00     0.174 HD
ATOM    150 21HH ARG d  13    1291.459 374.798-1280.570  0.00  0.00     0.174 HD
ATOM    151 22HH ARG d  13    1291.827 373.499-1279.351  0.00  0.00     0.174 HD
ATOM    152  HE  ARG d  13    1289.535 375.155-1281.209  0.00  0.00     0.177 HD
ENDBRANCH 143 144
ENDBRANCH 142 143
ENDBRANCH 141 142
ENDBRANCH 104 141
ENDBRANCH 102 104
ENDBRANCH  99 100
BRANCH  99 153
ATOM    153  CB  GLN d  12    1280.615 377.335-1281.771  0.00  0.00     0.044 C 
BRANCH 153 154
ATOM    154  CG  GLN d  12    1280.974 378.857-1281.738  0.00  0.00     0.105 C 
BRANCH 154 155
ATOM    155  CD  GLN d  12    1280.671 379.670-1280.473  0.00  0.00     0.215 C 
ATOM    156  NE2 GLN d  12    1280.104 379.092-1279.445  0.00  0.00    -0.370 N 
ATOM    157 21HE GLN d  12    1279.997 379.686-1278.621  0.00  0.00     0.159 HD
ATOM    158 22HE GLN d  12    1279.941 378.089-1279.549  0.00  0.00     0.159 HD
ATOM    159  OE1 GLN d  12    1280.972 380.851-1280.395  0.00  0.00    -0.274 OA
ENDBRANCH 154 155
ENDBRANCH 153 154
ENDBRANCH  99 153
ENDBRANCH  97  99
ENDBRANCH  94  95
BRANCH  94 160
ATOM    160  CB  VAL d  11    1278.772 372.822-1283.979  0.00  0.00     0.009 C 
ATOM    161  CG1 VAL d  11    1278.203 373.527-1285.241  0.00  0.00     0.012 C 
ATOM    162  CG2 VAL d  11    1278.248 371.368-1284.053  0.00  0.00     0.012 C 
ENDBRANCH  94 160
ENDBRANCH  92  94
ENDBRANCH  89  90
BRANCH  89 163
ATOM    163  CB  HIS d  10    1282.130 370.290-1280.734  0.00  0.00     0.095 C 
BRANCH 163 164
ATOM    164  CG  HIS d  10    1283.416 369.580-1280.427  0.00  0.00     0.053 A 
ATOM    165  CD2 HIS d  10    1283.797 369.244-1279.134  0.00  0.00     0.116 A 
ATOM    166  NE2 HIS d  10    1285.012 368.614-1279.201  0.00  0.00    -0.359 N 
ATOM    167  CE1 HIS d  10    1285.275 368.618-1280.536  0.00  0.00     0.207 A 
ATOM    168  2HE HIS d  10    1285.579 368.236-1278.428  0.00  0.00     0.166 HD
ATOM    169  ND1 HIS d  10    1284.368 369.176-1281.359  0.00  0.00    -0.247 NA
ENDBRANCH 163 164
ENDBRANCH  89 163
ENDBRANCH   3  89
TORSDOF 68
