@<TRIPOS>MOLECULE
10-3
255 255 16              
SMALL
USER_CHARGES
@<TRIPOS>ATOM
1	   N	1533.577	453.456	-1555.456	N.3	1	GLU1	-0.516	
2	  CA	1534.136	454.805	-1555.456	C.3	1	GLU1	0.040	
3	   C	1535.645	454.765	-1555.456	C.2	1	GLU1	0.537	
4	   O	1536.321	455.464	-1556.225	O.2	1	GLU1	-0.582	
5	  CB	1533.613	455.590	-1554.219	C.3	1	GLU1	0.056	
6	  CG	1534.088	457.075	-1554.108	C.3	1	GLU1	0.014	
7	  CD	1533.664	457.879	-1552.893	C.2	1	GLU1	0.805	
8	 OE1	1532.936	457.377	-1552.015	O.co2	1	GLU1	-0.819	
9	 OE2	1534.094	459.049	-1552.821	O.co2	1	GLU1	-0.819	
10	   H	1534.204	452.577	-1555.456	 H	1	GLU1	0.294	
11	  HA	1533.810	455.323	-1556.376	 H	1	GLU1	0.111	
12	 2HB	1533.902	455.059	-1553.289	 H	1	GLU1	-0.017	
13	 3HB	1532.506	455.580	-1554.206	 H	1	GLU1	-0.017	
14	 2HG	1533.778	457.660	-1554.989	 H	1	GLU1	-0.043	
15	 3HG	1535.188	457.142	-1554.079	 H	1	GLU1	-0.043	
16	   N	1536.249	453.979	-1554.631	N.am	2	ASN2	-0.416	
17	  CA	1537.709	453.940	-1554.631	C.3	2	ASN2	0.014	
18	   C	1538.240	453.585	-1556.000	C.2	2	ASN2	0.597	
19	   O	1539.155	454.215	-1556.529	O.2	2	ASN2	-0.568	
20	  CB	1538.201	452.917	-1553.567	C.3	2	ASN2	-0.204	
21	  CG	1537.738	453.141	-1552.124	C.2	2	ASN2	0.713	
22	 ND2	1538.332	454.056	-1551.405	N.pl3	2	ASN2	-0.919	
23	 OD1	1536.817	452.507	-1551.629	O.2	2	ASN2	-0.593	
24	   H	1535.721	453.399	-1553.995	 H	2	ASN2	0.272	
25	  HA	1538.086	454.950	-1554.386	 H	2	ASN2	0.105	
26	 2HB	1539.305	452.858	-1553.571	 H	2	ASN2	0.080	
27	 3HB	1537.872	451.899	-1553.853	 H	2	ASN2	0.080	
28	1HD2	1537.851	454.229	-1550.519	 H	2	ASN2	0.420	
29	2HD2	1539.034	454.628	-1551.875	 H	2	ASN2	0.420	
30	   N	1537.718	452.590	-1556.634	N.am	3	PRO3	-0.255	
31	  CA	1538.170	452.180	-1557.956	C.3	3	PRO3	-0.027	
32	   C	1537.772	453.204	-1559.032	C.2	3	PRO3	0.590	
33	   O	1538.595	453.587	-1559.864	O.2	3	PRO3	-0.575	
34	  CB	1537.466	450.826	-1558.125	C.3	3	PRO3	-0.007	
35	  CG	1536.183	450.978	-1557.295	C.3	3	PRO3	0.019	
36	  CD	1536.640	451.796	-1556.085	C.3	3	PRO3	0.019	
37	  HA	1539.256	452.060	-1557.969	 H	3	PRO3	0.064	
38	 2HB	1538.089	450.044	-1557.684	 H	3	PRO3	0.025	
39	 3HB	1537.268	450.577	-1559.170	 H	3	PRO3	0.025	
40	 2HG	1535.755	450.015	-1557.004	 H	3	PRO3	0.021	
41	 3HG	1535.445	451.549	-1557.862	 H	3	PRO3	0.021	
42	 2HD	1537.030	451.147	-1555.297	 H	3	PRO3	0.039	
43	 3HD	1535.844	452.432	-1555.692	 H	3	PRO3	0.039	
44	   N	1536.567	453.664	-1559.065	N.am	4	GLU4	-0.516	
45	  CA	1536.207	454.635	-1560.094	C.3	4	GLU4	0.040	
46	   C	1537.106	455.846	-1560.033	C.2	4	GLU4	0.537	
47	   O	1537.632	456.326	-1561.048	O.2	4	GLU4	-0.582	
48	  CB	1534.719	455.053	-1559.924	C.3	4	GLU4	0.056	
49	  CG	1534.170	456.057	-1560.989	C.3	4	GLU4	0.014	
50	  CD	1532.744	456.554	-1560.845	C.2	4	GLU4	0.805	
51	 OE1	1532.018	456.155	-1559.914	O.co2	4	GLU4	-0.819	
52	 OE2	1532.354	457.383	-1561.694	O.co2	4	GLU4	-0.819	
53	   H	1535.883	453.357	-1558.388	 H	4	GLU4	0.294	
54	  HA	1536.338	454.164	-1561.085	 H	4	GLU4	0.111	
55	 2HB	1534.566	455.493	-1558.917	 H	4	GLU4	-0.017	
56	 3HB	1534.071	454.156	-1559.930	 H	4	GLU4	-0.017	
57	 2HG	1534.252	455.642	-1562.007	 H	4	GLU4	-0.043	
58	 3HG	1534.758	456.989	-1561.000	 H	4	GLU4	-0.043	
59	   N	1537.334	456.399	-1558.890	N.am	5	SER5	-0.416	
60	  CA	1538.203	457.570	-1558.832	C.3	5	SER5	-0.025	
61	   C	1539.562	457.265	-1559.417	C.2	5	SER5	0.597	
62	   O	1540.109	458.018	-1560.222	O.2	5	SER5	-0.568	
63	  CB	1538.315	458.102	-1557.381	C.3	5	SER5	0.212	
64	  OG	1539.047	457.223	-1556.520	O.3	5	SER5	-0.655	
65	   H	1536.917	456.027	-1558.048	 H	5	SER5	0.272	
66	  HA	1537.754	458.360	-1559.461	 H	5	SER5	0.084	
67	 2HB	1537.315	458.296	-1556.948	 H	5	SER5	0.035	
68	 3HB	1538.820	459.088	-1557.383	 H	5	SER5	0.035	
69	  HG	1538.558	456.398	-1556.469	 H	5	SER5	0.428	
70	   N	1540.167	456.182	-1559.063	N.am	6	ILE6	-0.416	
71	  CA	1541.480	455.887	-1559.630	C.3	6	ILE6	-0.060	
72	   C	1541.422	455.850	-1561.138	C.2	6	ILE6	0.597	
73	   O	1542.257	456.438	-1561.842	O.2	6	ILE6	-0.568	
74	  CB	1542.080	454.551	-1559.030	C.3	6	ILE6	0.130	
75	 CG1	1542.099	454.488	-1557.469	C.3	6	ILE6	-0.043	
76	 CG2	1543.521	454.249	-1559.545	C.3	6	ILE6	-0.320	
77	 CD1	1542.369	453.099	-1556.854	C.3	6	ILE6	-0.066	
78	   H	1539.738	455.547	-1558.404	 H	6	ILE6	0.272	
79	  HA	1542.154	456.721	-1559.362	 H	6	ILE6	0.087	
80	  HB	1541.422	453.725	-1559.374	 H	6	ILE6	0.019	
81	2HG1	1541.117	454.808	-1557.073	 H	6	ILE6	0.024	
82	3HG1	1542.815	455.230	-1557.064	 H	6	ILE6	0.024	
83	1HG2	1543.580	454.156	-1560.644	 H	6	ILE6	0.088	
84	2HG2	1544.243	455.032	-1559.243	 H	6	ILE6	0.088	
85	3HG2	1543.911	453.287	-1559.167	 H	6	ILE6	0.088	
86	1HD1	1541.641	452.345	-1557.209	 H	6	ILE6	0.019	
87	2HD1	1543.380	452.721	-1557.090	 H	6	ILE6	0.019	
88	3HD1	1542.293	453.129	-1555.752	 H	6	ILE6	0.019	
89	   N	1540.477	455.186	-1561.711	N.am	7	LEU7	-0.416	
90	  CA	1540.422	455.150	-1563.170	C.3	7	LEU7	-0.052	
91	   C	1540.349	456.546	-1563.742	C.2	7	LEU7	0.597	
92	   O	1541.069	456.909	-1564.684	O.2	7	LEU7	-0.568	
93	  CB	1539.219	454.290	-1563.650	C.3	7	LEU7	-0.110	
94	  CG	1539.146	452.811	-1563.184	C.3	7	LEU7	0.353	
95	 CD1	1537.956	452.105	-1563.849	C.3	7	LEU7	-0.412	
96	 CD2	1540.439	452.032	-1563.476	C.3	7	LEU7	-0.412	
97	   H	1539.785	454.699	-1561.160	 H	7	LEU7	0.272	
98	  HA	1541.363	454.710	-1563.544	 H	7	LEU7	0.092	
99	 2HB	1539.195	454.306	-1564.758	 H	7	LEU7	0.046	
100	 3HB	1538.279	454.793	-1563.346	 H	7	LEU7	0.046	
101	  HG	1538.976	452.802	-1562.087	 H	7	LEU7	-0.036	
102	1HD1	1536.999	452.614	-1563.627	 H	7	LEU7	0.100	
103	2HD1	1538.055	452.065	-1564.951	 H	7	LEU7	0.100	
104	3HD1	1537.849	451.064	-1563.494	 H	7	LEU7	0.100	
105	1HD2	1540.714	452.062	-1564.546	 H	7	LEU7	0.100	
106	2HD2	1541.293	452.443	-1562.904	 H	7	LEU7	0.100	
107	3HD2	1540.358	450.969	-1563.180	 H	7	LEU7	0.100	
108	   N	1539.512	457.386	-1563.235	N.am	8	ASP8	-0.516	
109	  CA	1539.441	458.736	-1563.788	C.3	8	ASP8	0.038	
110	   C	1540.788	459.416	-1563.731	C.2	8	ASP8	0.537	
111	   O	1541.260	460.021	-1564.705	O.2	8	ASP8	-0.582	
112	  CB	1538.363	459.575	-1563.046	C.3	8	ASP8	-0.030	
113	  CG	1538.144	460.996	-1563.586	C.2	8	ASP8	0.799	
114	 OD1	1538.208	461.195	-1564.817	O.co2	8	ASP8	-0.801	
115	 OD2	1537.952	461.921	-1562.771	O.co2	8	ASP8	-0.801	
116	   H	1538.914	457.115	-1562.468	 H	8	ASP8	0.294	
117	  HA	1539.158	458.658	-1564.855	 H	8	ASP8	0.088	
118	 2HB	1538.620	459.658	-1561.974	 H	8	ASP8	-0.012	
119	 3HB	1537.384	459.069	-1563.079	 H	8	ASP8	-0.012	
120	   N	1541.468	459.366	-1562.636	N.am	9	GLU9	-0.516	
121	  CA	1542.770	460.023	-1562.580	C.3	9	GLU9	0.040	
122	   C	1543.688	459.496	-1563.657	C.2	9	GLU9	0.537	
123	   O	1544.352	460.251	-1564.382	O.2	9	GLU9	-0.582	
124	  CB	1543.404	459.815	-1561.175	C.3	9	GLU9	0.056	
125	  CG	1544.786	460.508	-1560.946	C.3	9	GLU9	0.014	
126	  CD	1545.489	460.294	-1559.617	C.2	9	GLU9	0.805	
127	 OE1	1544.967	459.602	-1558.721	O.co2	9	GLU9	-0.819	
128	 OE2	1546.608	460.832	-1559.486	O.co2	9	GLU9	-0.819	
129	   H	1541.104	458.879	-1561.829	 H	9	GLU9	0.294	
130	  HA	1542.628	461.105	-1562.755	 H	9	GLU9	0.111	
131	 2HB	1543.517	458.731	-1560.972	 H	9	GLU9	-0.017	
132	 3HB	1542.707	460.168	-1560.391	 H	9	GLU9	-0.017	
133	 2HG	1544.715	461.598	-1561.085	 H	9	GLU9	-0.043	
134	 3HG	1545.533	460.163	-1561.680	 H	9	GLU9	-0.043	
135	   N	1543.785	458.221	-1563.827	N.am	10	GLY10	-0.416	
136	  CA	1544.673	457.712	-1564.868	C.3	10	GLY10	-0.025	
137	   C	1544.305	458.278	-1566.218	C.2	10	GLY10	0.597	
138	   O	1545.152	458.742	-1566.985	O.2	10	GLY10	-0.568	
139	   H	1543.254	457.585	-1563.249	 H	10	GLY10	0.272	
140	 3HA	1544.585	456.666	-1564.894	 H	10	GLY10	0.070	
141	  HA	1545.709	458.023	-1564.640	 H	10	GLY10	0.070	
142	   N	1543.067	458.277	-1566.580	N.am	11	VAL11	-0.416	
143	  CA	1542.710	458.825	-1567.885	C.3	11	VAL11	-0.087	
144	   C	1543.173	460.256	-1568.016	C.2	11	VAL11	0.597	
145	   O	1543.773	460.663	-1569.018	O.2	11	VAL11	-0.568	
146	  CB	1541.149	458.717	-1568.104	C.3	11	VAL11	0.299	
147	 CG1	1540.579	459.423	-1569.365	C.3	11	VAL11	-0.319	
148	 CG2	1540.625	457.263	-1568.179	C.3	11	VAL11	-0.319	
149	   H	1542.354	457.902	-1565.969	 H	11	VAL11	0.272	
150	  HA	1543.230	458.244	-1568.669	 H	11	VAL11	0.097	
151	  HB	1540.661	459.195	-1567.228	 H	11	VAL11	-0.030	
152	1HG1	1541.017	459.033	-1570.303	 H	11	VAL11	0.079	
153	2HG1	1539.480	459.315	-1569.446	 H	11	VAL11	0.079	
154	3HG1	1540.756	460.515	-1569.354	 H	11	VAL11	0.079	
155	1HG2	1540.916	456.674	-1567.290	 H	11	VAL11	0.079	
156	2HG2	1539.520	457.225	-1568.221	 H	11	VAL11	0.079	
157	3HG2	1541.007	456.724	-1569.067	 H	11	VAL11	0.079	
158	   N	1542.936	461.080	-1567.052	N.am	12	GLN12	-0.416	
159	  CA	1543.383	462.463	-1567.177	C.3	12	GLN12	-0.003	
160	   C	1544.873	462.533	-1567.415	C.2	12	GLN12	0.597	
161	   O	1545.359	463.243	-1568.293	O.2	12	GLN12	-0.568	
162	  CB	1542.992	463.228	-1565.892	C.3	12	GLN12	-0.004	
163	  CG	1543.351	464.750	-1565.859	C.3	12	GLN12	-0.064	
164	  CD	1543.049	465.561	-1564.592	C.2	12	GLN12	0.695	
165	 NE2	1542.483	464.982	-1563.564	N.pl3	12	GLN12	-0.941	
166	 OE1	1543.349	466.742	-1564.512	O.2	12	GLN12	-0.609	
167	   H	1542.448	460.772	-1566.223	 H	12	GLN12	0.272	
168	  HA	1542.883	462.921	-1568.051	 H	12	GLN12	0.085	
169	 2HB	1543.469	462.727	-1565.024	 H	12	GLN12	0.017	
170	 3HB	1541.902	463.119	-1565.729	 H	12	GLN12	0.017	
171	 2HG	1542.873	465.272	-1566.708	 H	12	GLN12	0.035	
172	 3HG	1544.434	464.893	-1566.025	 H	12	GLN12	0.035	
173	1HE2	1542.375	465.575	-1562.739	 H	12	GLN12	0.425	
174	2HE2	1542.320	463.979	-1563.669	 H	12	GLN12	0.425	
175	   N	1545.658	461.825	-1566.676	N.am	13	ARG13	-0.348	
176	  CA	1547.099	461.893	-1566.907	C.3	13	ARG13	-0.264	
177	   C	1547.434	461.524	-1568.333	C.2	13	ARG13	0.734	
178	   O	1548.202	462.198	-1569.016	O.2	13	ARG13	-0.589	
179	  CB	1547.813	460.952	-1565.895	C.3	13	ARG13	-0.001	
180	  CG	1549.358	461.106	-1565.815	C.3	13	ARG13	0.039	
181	  CD	1549.986	460.117	-1564.819	C.3	13	ARG13	0.049	
182	  NE	1551.463	460.326	-1564.769	N.pl3	13	ARG13	-0.530	
183	  CZ	1552.312	459.633	-1564.015	C.cat	13	ARG13	0.808	
184	 NH1	1551.948	458.667	-1563.220	N.pl3	13	ARG13	-0.863	
185	 NH2	1553.571	459.933	-1564.072	N.pl3	13	ARG13	-0.863	
186	   H	1545.283	461.234	-1565.948	 H	13	ARG13	0.275	
187	  HA	1547.422	462.939	-1566.747	 H	13	ARG13	0.156	
188	 2HB	1547.547	459.902	-1566.136	 H	13	ARG13	0.033	
189	 3HB	1547.388	461.116	-1564.884	 H	13	ARG13	0.033	
190	 2HG	1549.605	462.151	-1565.533	 H	13	ARG13	0.029	
191	 3HG	1549.808	460.953	-1566.817	 H	13	ARG13	0.029	
192	 2HD	1549.742	459.078	-1565.130	 H	13	ARG13	0.069	
193	 3HD	1549.530	460.261	-1563.816	 H	13	ARG13	0.069	
194	  HE	1551.913	461.049	-1565.338	 H	13	ARG13	0.346	
195	1HH1	1550.943	458.480	-1563.223	 H	13	ARG13	0.448	
196	2HH1	1552.662	458.183	-1562.672	 H	13	ARG13	0.448	
197	1HH2	1553.838	460.693	-1564.702	 H	13	ARG13	0.448	
198	2HH2	1554.207	459.391	-1563.485	 H	13	ARG13	0.448	
199	   N	1546.899	460.470	-1568.849	N.am	14	VAL14	-0.416	
200	  CA	1547.224	460.114	-1570.228	C.3	14	VAL14	-0.087	
201	   C	1546.892	461.245	-1571.171	C.2	14	VAL14	0.597	
202	   O	1547.685	461.629	-1572.040	O.2	14	VAL14	-0.568	
203	  CB	1546.452	458.797	-1570.637	C.3	14	VAL14	0.299	
204	 CG1	1546.541	458.382	-1572.131	C.3	14	VAL14	-0.319	
205	 CG2	1546.885	457.543	-1569.839	C.3	14	VAL14	-0.319	
206	   H	1546.265	459.900	-1568.308	 H	14	VAL14	0.272	
207	  HA	1548.312	459.938	-1570.303	 H	14	VAL14	0.097	
208	  HB	1545.376	458.967	-1570.420	 H	14	VAL14	-0.030	
209	1HG1	1547.583	458.206	-1572.461	 H	14	VAL14	0.079	
210	2HG1	1545.969	457.458	-1572.345	 H	14	VAL14	0.079	
211	3HG1	1546.111	459.145	-1572.808	 H	14	VAL14	0.079	
212	1HG2	1546.799	457.700	-1568.748	 H	14	VAL14	0.079	
213	2HG2	1546.250	456.667	-1570.073	 H	14	VAL14	0.079	
214	3HG2	1547.933	457.255	-1570.046	 H	14	VAL14	0.079	
215	   N	1545.747	461.830	-1571.068	N.am	15	MET15	-0.416	
216	  CA	1545.426	462.924	-1571.979	C.3	15	MET15	-0.024	
217	   C	1546.455	464.025	-1571.890	C.2	15	MET15	0.597	
218	   O	1546.957	464.538	-1572.901	O.2	15	MET15	-0.568	
219	  CB	1544.004	463.468	-1571.669	C.3	15	MET15	0.034	
220	  CG	1542.843	462.469	-1571.862	C.3	15	MET15	0.002	
221	  SD	1541.268	463.334	-1571.746	S.3	15	MET15	-0.274	
222	  CE	1540.188	461.903	-1571.612	C.3	15	MET15	-0.054	
223	   H	1545.083	461.535	-1570.367	 H	15	MET15	0.272	
224	  HA	1545.451	462.539	-1573.016	 H	15	MET15	0.088	
225	 2HB	1543.801	464.348	-1572.309	 H	15	MET15	0.024	
226	 3HB	1543.968	463.859	-1570.632	 H	15	MET15	0.024	
227	 2HG	1542.886	461.682	-1571.086	 H	15	MET15	0.044	
228	 3HG	1542.906	461.956	-1572.840	 H	15	MET15	0.044	
229	 1HE	1540.332	461.217	-1572.466	 H	15	MET15	0.068	
230	 2HE	1540.398	461.349	-1570.680	 H	15	MET15	0.068	
231	 3HE	1539.130	462.218	-1571.594	 H	15	MET15	0.068	
232	   N	1546.824	464.444	-1570.727	N.am	16	ARG16	-0.348	
233	  CA	1547.819	465.508	-1570.641	C.3	16	ARG16	-0.264	
234	   C	1549.090	465.118	-1571.358	C.2	16	ARG16	0.734	
235	   O	1549.205	464.043	-1571.942	O.2	16	ARG16	-0.589	
236	  CB	1548.088	465.824	-1569.142	C.3	16	ARG16	-0.001	
237	  CG	1548.913	467.113	-1568.867	C.3	16	ARG16	0.039	
238	  CD	1549.162	467.329	-1567.365	C.3	16	ARG16	0.049	
239	  NE	1549.938	468.589	-1567.162	N.pl3	16	ARG16	-0.530	
240	  CZ	1550.329	469.069	-1565.986	C.cat	16	ARG16	0.808	
241	 NH1	1550.082	468.482	-1564.848	N.pl3	16	ARG16	-0.863	
242	 NH2	1550.992	470.182	-1565.965	N.pl3	16	ARG16	-0.863	
243	   H	1546.429	464.042	-1569.888	 H	16	ARG16	0.275	
244	  HA	1547.410	466.402	-1571.149	 H	16	ARG16	0.156	
245	 2HB	1548.586	464.947	-1568.677	 H	16	ARG16	0.033	
246	 3HB	1547.120	465.903	-1568.608	 H	16	ARG16	0.033	
247	 2HG	1548.381	467.984	-1569.303	 H	16	ARG16	0.029	
248	 3HG	1549.886	467.062	-1569.396	 H	16	ARG16	0.029	
249	 2HD	1549.712	466.454	-1566.954	 H	16	ARG16	0.069	
250	 3HD	1548.190	467.370	-1566.830	 H	16	ARG16	0.069	
251	  HE	1550.215	469.171	-1567.958	 H	16	ARG16	0.346	
252	1HH1	1549.557	467.609	-1564.934	 H	16	ARG16	0.448	
253	2HH1	1550.416	468.917	-1563.986	 H	16	ARG16	0.448	
254	1HH2	1551.177	470.627	-1566.866	 H	16	ARG16	0.448	
255	2HH2	1551.282	470.536	-1565.052	 H	16	ARG16	0.448	
@<TRIPOS>BOND
1 1 2 1
2 1 10 1
3 2 3 1
4 2 5 1
5 2 11 1
6 3 4 2
7 3 16 1
8 5 6 1
9 6 7 1
10 7 8 2
11 7 9 1
12 5 12 1
13 5 13 1
14 6 14 1
15 6 15 1
16 16 17 1
17 16 24 1
18 17 18 1
19 17 20 1
20 17 25 1
21 18 19 2
22 18 30 1
23 20 21 1
24 21 22 1
25 21 23 2
26 20 26 1
27 20 27 1
28 22 28 1
29 22 29 1
30 30 31 1
31 30 36 1
32 31 32 1
33 31 34 1
34 31 37 1
35 32 33 2
36 32 44 1
37 34 35 1
38 35 36 1
39 34 38 1
40 34 39 1
41 35 40 1
42 35 41 1
43 36 42 1
44 36 43 1
45 44 45 1
46 44 53 1
47 45 46 1
48 45 48 1
49 45 54 1
50 46 47 2
51 46 59 1
52 48 49 1
53 49 50 1
54 50 51 2
55 50 52 1
56 48 55 1
57 48 56 1
58 49 57 1
59 49 58 1
60 59 60 1
61 59 65 1
62 60 61 1
63 60 63 1
64 60 66 1
65 61 62 2
66 61 70 1
67 63 64 1
68 63 67 1
69 63 68 1
70 64 69 1
71 70 71 1
72 70 78 1
73 71 72 1
74 71 74 1
75 71 79 1
76 72 73 2
77 72 89 1
78 74 75 1
79 74 76 1
80 75 77 1
81 74 80 1
82 75 81 1
83 75 82 1
84 76 83 1
85 76 84 1
86 76 85 1
87 77 86 1
88 77 87 1
89 77 88 1
90 89 90 1
91 89 97 1
92 90 91 1
93 90 93 1
94 90 98 1
95 91 92 2
96 91 108 1
97 93 94 1
98 94 95 1
99 94 96 1
100 93 99 1
101 93 100 1
102 94 101 1
103 95 102 1
104 95 103 1
105 95 104 1
106 96 105 1
107 96 106 1
108 96 107 1
109 108 109 1
110 108 116 1
111 109 110 1
112 109 112 1
113 109 117 1
114 110 111 2
115 110 120 1
116 112 113 1
117 113 114 2
118 113 115 1
119 112 118 1
120 112 119 1
121 120 121 1
122 120 129 1
123 121 122 1
124 121 124 1
125 121 130 1
126 122 123 2
127 122 135 1
128 124 125 1
129 125 126 1
130 126 127 2
131 126 128 1
132 124 131 1
133 124 132 1
134 125 133 1
135 125 134 1
136 135 136 1
137 135 139 1
138 136 137 1
139 136 140 1
140 136 141 1
141 137 138 2
142 137 142 1
143 142 143 1
144 142 149 1
145 143 144 1
146 143 146 1
147 143 150 1
148 144 145 2
149 144 158 1
150 146 147 1
151 146 148 1
152 146 151 1
153 147 152 1
154 147 153 1
155 147 154 1
156 148 155 1
157 148 156 1
158 148 157 1
159 158 159 1
160 158 167 1
161 159 160 1
162 159 162 1
163 159 168 1
164 160 161 2
165 160 175 1
166 162 163 1
167 163 164 1
168 164 165 1
169 164 166 2
170 162 169 1
171 162 170 1
172 163 171 1
173 163 172 1
174 165 173 1
175 165 174 1
176 175 176 1
177 175 186 1
178 176 177 1
179 176 179 1
180 176 187 1
181 177 178 2
182 177 199 1
183 179 180 1
184 180 181 1
185 181 182 1
186 182 183 1
187 183 184 2
188 183 185 1
189 179 188 1
190 179 189 1
191 180 190 1
192 180 191 1
193 181 192 1
194 181 193 1
195 182 194 1
196 184 195 1
197 184 196 1
198 185 197 1
199 185 198 1
200 199 200 1
201 199 206 1
202 200 201 1
203 200 203 1
204 200 207 1
205 201 202 2
206 201 215 1
207 203 204 1
208 203 205 1
209 203 208 1
210 204 209 1
211 204 210 1
212 204 211 1
213 205 212 1
214 205 213 1
215 205 214 1
216 215 216 1
217 215 223 1
218 216 217 1
219 216 219 1
220 216 224 1
221 217 218 2
222 217 232 1
223 219 220 1
224 220 221 1
225 221 222 1
226 219 225 1
227 219 226 1
228 220 227 1
229 220 228 1
230 222 229 1
231 222 230 1
232 222 231 1
233 232 233 1
234 232 243 1
235 233 234 1
236 233 236 1
237 233 244 1
238 234 235 2
239 236 237 1
240 237 238 1
241 238 239 1
242 239 240 1
243 240 241 2
244 240 242 1
245 236 245 1
246 236 246 1
247 237 247 1
248 237 248 1
249 238 249 1
250 238 250 1
251 239 251 1
252 241 252 1
253 241 253 1
254 242 254 1
255 242 255 1
@<TRIPOS>SUBSTRUCTURE
1	GLU1	1	RESIDUE	1 ****	GLU
2	ASN2	16	RESIDUE	1 ****	ASN
3	PRO3	30	RESIDUE	1 ****	PRO
4	GLU4	44	RESIDUE	1 ****	GLU
5	SER5	59	RESIDUE	1 ****	SER
6	ILE6	70	RESIDUE	1 ****	ILE
7	LEU7	89	RESIDUE	1 ****	LEU
8	ASP8	108	RESIDUE	1 ****	ASP
9	GLU9	120	RESIDUE	1 ****	GLU
10	GLY10	135	RESIDUE	1 ****	GLY
11	VAL11	142	RESIDUE	1 ****	VAL
12	GLN12	158	RESIDUE	1 ****	GLN
13	ARG13	175	RESIDUE	1 ****	ARG
14	VAL14	199	RESIDUE	1 ****	VAL
15	MET15	215	RESIDUE	1 ****	MET
16	ARG16	232	RESIDUE	1 ****	ARG
