@<TRIPOS>MOLECULE
10-5
265 265 16              
SMALL
USER_CHARGES
@<TRIPOS>ATOM
1	   N	1549.859	458.979	-1573.242	N.3	1	GLU1	-0.516	
2	  CA	1550.417	460.328	-1573.242	C.3	1	GLU1	0.040	
3	   C	1551.927	460.288	-1573.242	C.2	1	GLU1	0.537	
4	   O	1552.602	460.987	-1574.010	O.2	1	GLU1	-0.582	
5	  CB	1549.895	461.113	-1572.005	C.3	1	GLU1	0.056	
6	  CG	1550.370	462.598	-1571.894	C.3	1	GLU1	0.014	
7	  CD	1549.946	463.402	-1570.679	C.2	1	GLU1	0.805	
8	 OE1	1549.218	462.900	-1569.801	O.co2	1	GLU1	-0.819	
9	 OE2	1550.375	464.572	-1570.607	O.co2	1	GLU1	-0.819	
10	   H	1550.485	458.100	-1573.242	 H	1	GLU1	0.294	
11	  HA	1550.092	460.846	-1574.162	 H	1	GLU1	0.111	
12	 2HB	1550.183	460.582	-1571.075	 H	1	GLU1	-0.017	
13	 3HB	1548.787	461.103	-1571.992	 H	1	GLU1	-0.017	
14	 2HG	1550.060	463.183	-1572.775	 H	1	GLU1	-0.043	
15	 3HG	1551.469	462.665	-1571.865	 H	1	GLU1	-0.043	
16	   N	1552.531	459.502	-1572.417	N.am	2	ASN2	-0.416	
17	  CA	1553.990	459.463	-1572.417	C.3	2	ASN2	0.014	
18	   C	1554.522	459.108	-1573.786	C.2	2	ASN2	0.597	
19	   O	1555.436	459.738	-1574.314	O.2	2	ASN2	-0.568	
20	  CB	1554.482	458.440	-1571.352	C.3	2	ASN2	-0.204	
21	  CG	1554.020	458.664	-1569.909	C.2	2	ASN2	0.713	
22	 ND2	1554.614	459.579	-1569.191	N.pl3	2	ASN2	-0.919	
23	 OD1	1553.099	458.030	-1569.415	O.2	2	ASN2	-0.593	
24	   H	1552.003	458.922	-1571.780	 H	2	ASN2	0.272	
25	  HA	1554.368	460.474	-1572.171	 H	2	ASN2	0.105	
26	 2HB	1555.587	458.381	-1571.356	 H	2	ASN2	0.080	
27	 3HB	1554.154	457.422	-1571.638	 H	2	ASN2	0.080	
28	1HD2	1554.133	459.752	-1568.304	 H	2	ASN2	0.420	
29	2HD2	1555.315	460.151	-1569.660	 H	2	ASN2	0.420	
30	   N	1554.000	458.113	-1574.420	N.am	3	PRO3	-0.255	
31	  CA	1554.452	457.704	-1575.741	C.3	3	PRO3	-0.027	
32	   C	1554.054	458.727	-1576.818	C.2	3	PRO3	0.590	
33	   O	1554.877	459.110	-1577.650	O.2	3	PRO3	-0.575	
34	  CB	1553.748	456.349	-1575.910	C.3	3	PRO3	-0.007	
35	  CG	1552.464	456.501	-1575.080	C.3	3	PRO3	0.019	
36	  CD	1552.922	457.320	-1573.870	C.3	3	PRO3	0.019	
37	  HA	1555.538	457.584	-1575.755	 H	3	PRO3	0.064	
38	 2HB	1554.371	455.568	-1575.470	 H	3	PRO3	0.025	
39	 3HB	1553.550	456.100	-1576.956	 H	3	PRO3	0.025	
40	 2HG	1552.037	455.539	-1574.789	 H	3	PRO3	0.021	
41	 3HG	1551.727	457.072	-1575.647	 H	3	PRO3	0.021	
42	 2HD	1553.312	456.670	-1573.083	 H	3	PRO3	0.039	
43	 3HD	1552.126	457.956	-1573.477	 H	3	PRO3	0.039	
44	   N	1552.849	459.187	-1576.850	N.am	4	GLU4	-0.516	
45	  CA	1552.489	460.158	-1577.880	C.3	4	GLU4	0.040	
46	   C	1553.388	461.369	-1577.819	C.2	4	GLU4	0.537	
47	   O	1553.914	461.849	-1578.833	O.2	4	GLU4	-0.582	
48	  CB	1551.000	460.577	-1577.709	C.3	4	GLU4	0.056	
49	  CG	1550.452	461.580	-1578.775	C.3	4	GLU4	0.014	
50	  CD	1549.026	462.077	-1578.631	C.2	4	GLU4	0.805	
51	 OE1	1548.300	461.678	-1577.700	O.co2	4	GLU4	-0.819	
52	 OE2	1548.636	462.906	-1579.479	O.co2	4	GLU4	-0.819	
53	   H	1552.165	458.880	-1576.173	 H	4	GLU4	0.294	
54	  HA	1552.620	459.688	-1578.871	 H	4	GLU4	0.111	
55	 2HB	1550.848	461.017	-1576.702	 H	4	GLU4	-0.017	
56	 3HB	1550.353	459.679	-1577.715	 H	4	GLU4	-0.017	
57	 2HG	1550.534	461.166	-1579.792	 H	4	GLU4	-0.043	
58	 3HG	1551.040	462.513	-1578.786	 H	4	GLU4	-0.043	
59	   N	1553.615	461.922	-1576.676	N.am	5	SER5	-0.416	
60	  CA	1554.485	463.093	-1576.617	C.3	5	SER5	-0.025	
61	   C	1555.844	462.788	-1577.203	C.2	5	SER5	0.597	
62	   O	1556.391	463.542	-1578.008	O.2	5	SER5	-0.568	
63	  CB	1554.597	463.625	-1575.166	C.3	5	SER5	0.212	
64	  OG	1555.328	462.746	-1574.306	O.3	5	SER5	-0.655	
65	   H	1553.199	461.550	-1575.834	 H	5	SER5	0.272	
66	  HA	1554.035	463.884	-1577.246	 H	5	SER5	0.084	
67	 2HB	1553.597	463.819	-1574.733	 H	5	SER5	0.035	
68	 3HB	1555.102	464.611	-1575.169	 H	5	SER5	0.035	
69	  HG	1554.840	461.921	-1574.255	 H	5	SER5	0.428	
70	   N	1556.448	461.705	-1576.849	N.am	6	ILE6	-0.416	
71	  CA	1557.762	461.410	-1577.415	C.3	6	ILE6	-0.060	
72	   C	1557.704	461.373	-1578.923	C.2	6	ILE6	0.597	
73	   O	1558.539	461.961	-1579.627	O.2	6	ILE6	-0.568	
74	  CB	1558.361	460.074	-1576.816	C.3	6	ILE6	0.130	
75	 CG1	1558.381	460.012	-1575.255	C.3	6	ILE6	-0.043	
76	 CG2	1559.803	459.773	-1577.331	C.3	6	ILE6	-0.320	
77	 CD1	1558.651	458.622	-1574.640	C.3	6	ILE6	-0.066	
78	   H	1556.020	461.070	-1576.190	 H	6	ILE6	0.272	
79	  HA	1558.436	462.245	-1577.147	 H	6	ILE6	0.087	
80	  HB	1557.704	459.248	-1577.160	 H	6	ILE6	0.019	
81	2HG1	1557.399	460.331	-1574.859	 H	6	ILE6	0.024	
82	3HG1	1559.097	460.754	-1574.850	 H	6	ILE6	0.024	
83	1HG2	1559.861	459.679	-1578.429	 H	6	ILE6	0.088	
84	2HG2	1560.525	460.555	-1577.029	 H	6	ILE6	0.088	
85	3HG2	1560.193	458.810	-1576.952	 H	6	ILE6	0.088	
86	1HD1	1557.923	457.868	-1574.995	 H	6	ILE6	0.019	
87	2HD1	1559.662	458.244	-1574.876	 H	6	ILE6	0.019	
88	3HD1	1558.575	458.652	-1573.537	 H	6	ILE6	0.019	
89	   N	1556.758	460.709	-1579.497	N.am	7	LEU7	-0.416	
90	  CA	1556.703	460.674	-1580.955	C.3	7	LEU7	-0.052	
91	   C	1556.631	462.069	-1581.527	C.2	7	LEU7	0.597	
92	   O	1557.351	462.432	-1582.469	O.2	7	LEU7	-0.568	
93	  CB	1555.500	459.813	-1581.436	C.3	7	LEU7	-0.110	
94	  CG	1555.427	458.334	-1580.969	C.3	7	LEU7	0.353	
95	 CD1	1554.238	457.628	-1581.635	C.3	7	LEU7	-0.412	
96	 CD2	1556.721	457.555	-1581.261	C.3	7	LEU7	-0.412	
97	   H	1556.066	460.222	-1578.945	 H	7	LEU7	0.272	
98	  HA	1557.645	460.234	-1581.330	 H	7	LEU7	0.092	
99	 2HB	1555.477	459.830	-1582.543	 H	7	LEU7	0.046	
100	 3HB	1554.560	460.316	-1581.131	 H	7	LEU7	0.046	
101	  HG	1555.258	458.326	-1579.872	 H	7	LEU7	-0.036	
102	1HD1	1553.280	458.137	-1581.412	 H	7	LEU7	0.100	
103	2HD1	1554.337	457.588	-1582.736	 H	7	LEU7	0.100	
104	3HD1	1554.131	456.587	-1581.279	 H	7	LEU7	0.100	
105	1HD2	1556.996	457.585	-1582.331	 H	7	LEU7	0.100	
106	2HD2	1557.574	457.966	-1580.690	 H	7	LEU7	0.100	
107	3HD2	1556.640	456.492	-1580.965	 H	7	LEU7	0.100	
108	   N	1555.793	462.909	-1581.021	N.am	8	ASP8	-0.516	
109	  CA	1555.723	464.259	-1581.574	C.3	8	ASP8	0.038	
110	   C	1557.070	464.939	-1581.516	C.2	8	ASP8	0.537	
111	   O	1557.542	465.544	-1582.491	O.2	8	ASP8	-0.582	
112	  CB	1554.645	465.098	-1580.832	C.3	8	ASP8	-0.030	
113	  CG	1554.426	466.519	-1581.372	C.2	8	ASP8	0.799	
114	 OD1	1554.490	466.718	-1582.603	O.co2	8	ASP8	-0.801	
115	 OD2	1554.234	467.444	-1580.556	O.co2	8	ASP8	-0.801	
116	   H	1555.196	462.638	-1580.253	 H	8	ASP8	0.294	
117	  HA	1555.440	464.182	-1582.641	 H	8	ASP8	0.088	
118	 2HB	1554.902	465.181	-1579.760	 H	8	ASP8	-0.012	
119	 3HB	1553.666	464.593	-1580.865	 H	8	ASP8	-0.012	
120	   N	1557.749	464.889	-1580.421	N.am	9	GLU9	-0.516	
121	  CA	1559.052	465.547	-1580.366	C.3	9	GLU9	0.040	
122	   C	1559.970	465.019	-1581.442	C.2	9	GLU9	0.537	
123	   O	1560.634	465.774	-1582.167	O.2	9	GLU9	-0.582	
124	  CB	1559.686	465.338	-1578.961	C.3	9	GLU9	0.056	
125	  CG	1561.068	466.031	-1578.731	C.3	9	GLU9	0.014	
126	  CD	1561.770	465.817	-1577.403	C.2	9	GLU9	0.805	
127	 OE1	1561.249	465.126	-1576.507	O.co2	9	GLU9	-0.819	
128	 OE2	1562.889	466.355	-1577.271	O.co2	9	GLU9	-0.819	
129	   H	1557.386	464.402	-1579.614	 H	9	GLU9	0.294	
130	  HA	1558.910	466.628	-1580.541	 H	9	GLU9	0.111	
131	 2HB	1559.799	464.254	-1578.758	 H	9	GLU9	-0.017	
132	 3HB	1558.989	465.691	-1578.176	 H	9	GLU9	-0.017	
133	 2HG	1560.996	467.122	-1578.870	 H	9	GLU9	-0.043	
134	 3HG	1561.815	465.686	-1579.465	 H	9	GLU9	-0.043	
135	   N	1560.067	463.744	-1581.612	N.am	10	MET10	-0.416	
136	  CA	1560.954	463.234	-1582.653	C.3	10	MET10	-0.024	
137	   C	1560.587	463.799	-1584.004	C.2	10	MET10	0.597	
138	   O	1561.441	464.264	-1584.775	O.2	10	MET10	-0.568	
139	  CB	1560.908	461.681	-1582.670	C.3	10	MET10	0.034	
140	  CG	1561.396	460.977	-1581.386	C.3	10	MET10	0.002	
141	  SD	1561.551	459.208	-1581.680	S.3	10	MET10	-0.274	
142	  CE	1561.730	458.669	-1579.974	C.3	10	MET10	-0.054	
143	   H	1559.536	463.109	-1581.034	 H	10	MET10	0.272	
144	  HA	1561.986	463.566	-1582.431	 H	10	MET10	0.088	
145	 2HB	1561.520	461.306	-1583.513	 H	10	MET10	0.024	
146	 3HB	1559.877	461.338	-1582.894	 H	10	MET10	0.024	
147	 2HG	1560.679	461.151	-1580.562	 H	10	MET10	0.044	
148	 3HG	1562.370	461.377	-1581.048	 H	10	MET10	0.044	
149	 1HE	1562.577	459.182	-1579.484	 H	10	MET10	0.068	
150	 2HE	1560.811	458.891	-1579.402	 H	10	MET10	0.068	
151	 3HE	1561.909	457.581	-1579.929	 H	10	MET10	0.068	
152	   N	1559.350	463.798	-1584.367	N.am	11	VAL11	-0.416	
153	  CA	1558.995	464.345	-1585.674	C.3	11	VAL11	-0.087	
154	   C	1559.460	465.775	-1585.806	C.2	11	VAL11	0.597	
155	   O	1560.062	466.181	-1586.808	O.2	11	VAL11	-0.568	
156	  CB	1557.434	464.238	-1585.895	C.3	11	VAL11	0.299	
157	 CG1	1556.866	464.943	-1587.157	C.3	11	VAL11	-0.319	
158	 CG2	1556.910	462.784	-1585.969	C.3	11	VAL11	-0.319	
159	   H	1558.636	463.425	-1583.757	 H	11	VAL11	0.272	
160	  HA	1559.515	463.763	-1586.457	 H	11	VAL11	0.097	
161	  HB	1556.946	464.718	-1585.019	 H	11	VAL11	-0.030	
162	1HG1	1557.305	464.552	-1588.094	 H	11	VAL11	0.079	
163	2HG1	1555.768	464.836	-1587.240	 H	11	VAL11	0.079	
164	3HG1	1557.045	466.035	-1587.147	 H	11	VAL11	0.079	
165	1HG2	1557.199	462.197	-1585.078	 H	11	VAL11	0.079	
166	2HG2	1555.804	462.747	-1586.012	 H	11	VAL11	0.079	
167	3HG2	1557.292	462.244	-1586.855	 H	11	VAL11	0.079	
168	   N	1559.222	466.601	-1584.843	N.am	12	GLN12	-0.416	
169	  CA	1559.671	467.984	-1584.969	C.3	12	GLN12	-0.003	
170	   C	1561.161	468.051	-1585.206	C.2	12	GLN12	0.597	
171	   O	1561.649	468.760	-1586.084	O.2	12	GLN12	-0.568	
172	  CB	1559.280	468.751	-1583.687	C.3	12	GLN12	-0.004	
173	  CG	1559.640	470.272	-1583.655	C.3	12	GLN12	-0.064	
174	  CD	1559.337	471.085	-1582.390	C.2	12	GLN12	0.695	
175	 NE2	1558.769	470.509	-1581.361	N.pl3	12	GLN12	-0.941	
176	 OE1	1559.639	472.266	-1582.312	O.2	12	GLN12	-0.609	
177	   H	1558.733	466.294	-1584.014	 H	12	GLN12	0.272	
178	  HA	1559.172	468.440	-1585.844	 H	12	GLN12	0.085	
179	 2HB	1559.755	468.250	-1582.817	 H	12	GLN12	0.017	
180	 3HB	1558.189	468.643	-1583.524	 H	12	GLN12	0.017	
181	 2HG	1559.163	470.794	-1584.506	 H	12	GLN12	0.035	
182	 3HG	1560.724	470.414	-1583.820	 H	12	GLN12	0.035	
183	1HE2	1558.662	471.103	-1580.538	 H	12	GLN12	0.425	
184	2HE2	1558.606	469.505	-1581.465	 H	12	GLN12	0.425	
185	   N	1561.945	467.344	-1584.465	N.am	13	ARG13	-0.348	
186	  CA	1563.386	467.409	-1584.695	C.3	13	ARG13	-0.264	
187	   C	1563.723	467.039	-1586.120	C.2	13	ARG13	0.734	
188	   O	1564.492	467.710	-1586.804	O.2	13	ARG13	-0.589	
189	  CB	1564.098	466.469	-1583.681	C.3	13	ARG13	-0.001	
190	  CG	1565.643	466.622	-1583.599	C.3	13	ARG13	0.039	
191	  CD	1566.269	465.634	-1582.602	C.3	13	ARG13	0.049	
192	  NE	1567.746	465.841	-1582.550	N.pl3	13	ARG13	-0.530	
193	  CZ	1568.594	465.148	-1581.795	C.cat	13	ARG13	0.808	
194	 NH1	1568.228	464.184	-1580.998	N.pl3	13	ARG13	-0.863	
195	 NH2	1569.853	465.447	-1581.851	N.pl3	13	ARG13	-0.863	
196	   H	1561.568	466.754	-1583.737	 H	13	ARG13	0.275	
197	  HA	1563.710	468.455	-1584.536	 H	13	ARG13	0.156	
198	 2HB	1563.832	465.419	-1583.922	 H	13	ARG13	0.033	
199	 3HB	1563.672	466.636	-1582.671	 H	13	ARG13	0.033	
200	 2HG	1565.891	467.667	-1583.319	 H	13	ARG13	0.029	
201	 3HG	1566.094	466.467	-1584.601	 H	13	ARG13	0.029	
202	 2HD	1566.025	464.594	-1582.912	 H	13	ARG13	0.069	
203	 3HD	1565.812	465.779	-1581.599	 H	13	ARG13	0.069	
204	  HE	1568.198	466.563	-1583.120	 H	13	ARG13	0.346	
205	1HH1	1567.222	463.998	-1581.002	 H	13	ARG13	0.448	
206	2HH1	1568.941	463.700	-1580.449	 H	13	ARG13	0.448	
207	1HH2	1570.121	466.205	-1582.481	 H	13	ARG13	0.448	
208	2HH2	1570.488	464.905	-1581.262	 H	13	ARG13	0.448	
209	   N	1563.187	465.984	-1586.635	N.am	14	VAL14	-0.416	
210	  CA	1563.512	465.626	-1588.013	C.3	14	VAL14	-0.087	
211	   C	1563.183	466.756	-1588.958	C.2	14	VAL14	0.597	
212	   O	1563.977	467.138	-1589.827	O.2	14	VAL14	-0.568	
213	  CB	1562.740	464.309	-1588.421	C.3	14	VAL14	0.299	
214	 CG1	1562.830	463.892	-1589.914	C.3	14	VAL14	-0.319	
215	 CG2	1563.171	463.056	-1587.621	C.3	14	VAL14	-0.319	
216	   H	1562.551	465.416	-1586.094	 H	14	VAL14	0.272	
217	  HA	1564.600	465.449	-1588.087	 H	14	VAL14	0.097	
218	  HB	1561.663	464.480	-1588.205	 H	14	VAL14	-0.030	
219	1HG1	1563.871	463.715	-1590.243	 H	14	VAL14	0.079	
220	2HG1	1562.257	462.969	-1590.128	 H	14	VAL14	0.079	
221	3HG1	1562.401	464.654	-1590.593	 H	14	VAL14	0.079	
222	1HG2	1563.083	463.214	-1586.530	 H	14	VAL14	0.079	
223	2HG2	1562.535	462.180	-1587.854	 H	14	VAL14	0.079	
224	3HG2	1564.219	462.766	-1587.826	 H	14	VAL14	0.079	
225	   N	1562.038	467.342	-1588.856	N.am	15	MET15	-0.416	
226	  CA	1561.718	468.436	-1589.770	C.3	15	MET15	-0.024	
227	   C	1562.749	469.535	-1589.681	C.2	15	MET15	0.597	
228	   O	1563.252	470.046	-1590.693	O.2	15	MET15	-0.568	
229	  CB	1560.297	468.981	-1589.461	C.3	15	MET15	0.034	
230	  CG	1559.135	467.984	-1589.654	C.3	15	MET15	0.002	
231	  SD	1557.561	468.850	-1589.540	S.3	15	MET15	-0.274	
232	  CE	1556.479	467.420	-1589.405	C.3	15	MET15	-0.054	
233	   H	1561.373	467.049	-1588.155	 H	15	MET15	0.272	
234	  HA	1561.745	468.049	-1590.805	 H	15	MET15	0.088	
235	 2HB	1560.095	469.861	-1590.103	 H	15	MET15	0.024	
236	 3HB	1560.261	469.373	-1588.425	 H	15	MET15	0.024	
237	 2HG	1559.177	467.197	-1588.877	 H	15	MET15	0.044	
238	 3HG	1559.198	467.469	-1590.630	 H	15	MET15	0.044	
239	 1HE	1556.623	466.733	-1590.257	 H	15	MET15	0.068	
240	 2HE	1556.688	466.867	-1588.472	 H	15	MET15	0.068	
241	 3HE	1555.422	467.736	-1589.388	 H	15	MET15	0.068	
242	   N	1563.117	469.956	-1588.518	N.am	16	ARG16	-0.348	
243	  CA	1564.114	471.019	-1588.433	C.3	16	ARG16	-0.264	
244	   C	1565.385	470.627	-1589.149	C.2	16	ARG16	0.734	
245	   O	1565.499	469.550	-1589.731	O.2	16	ARG16	-0.589	
246	  CB	1564.382	471.336	-1586.935	C.3	16	ARG16	-0.001	
247	  CG	1565.208	472.625	-1586.661	C.3	16	ARG16	0.039	
248	  CD	1565.457	472.843	-1585.159	C.3	16	ARG16	0.049	
249	  NE	1566.233	474.102	-1584.957	N.pl3	16	ARG16	-0.530	
250	  CZ	1566.624	474.583	-1583.781	C.cat	16	ARG16	0.808	
251	 NH1	1566.375	473.998	-1582.643	N.pl3	16	ARG16	-0.863	
252	 NH2	1567.288	475.696	-1583.762	N.pl3	16	ARG16	-0.863	
253	   H	1562.722	469.555	-1587.679	 H	16	ARG16	0.275	
254	  HA	1563.705	471.912	-1588.943	 H	16	ARG16	0.156	
255	 2HB	1564.879	470.460	-1586.469	 H	16	ARG16	0.033	
256	 3HB	1563.413	471.417	-1586.401	 H	16	ARG16	0.033	
257	 2HG	1564.678	473.496	-1587.098	 H	16	ARG16	0.029	
258	 3HG	1566.181	472.572	-1587.189	 H	16	ARG16	0.029	
259	 2HD	1566.005	471.968	-1584.746	 H	16	ARG16	0.069	
260	 3HD	1564.484	472.886	-1584.624	 H	16	ARG16	0.069	
261	  HE	1566.512	474.683	-1585.754	 H	16	ARG16	0.346	
262	1HH1	1565.850	473.126	-1582.728	 H	16	ARG16	0.448	
263	2HH1	1566.709	474.433	-1581.781	 H	16	ARG16	0.448	
264	1HH2	1567.474	476.139	-1584.663	 H	16	ARG16	0.448	
265	2HH2	1567.578	476.050	-1582.849	 H	16	ARG16	0.448	
@<TRIPOS>BOND
1 1 2 1
2 1 10 1
3 2 3 1
4 2 5 1
5 2 11 1
6 3 4 2
7 3 16 1
8 5 6 1
9 6 7 1
10 7 8 2
11 7 9 1
12 5 12 1
13 5 13 1
14 6 14 1
15 6 15 1
16 16 17 1
17 16 24 1
18 17 18 1
19 17 20 1
20 17 25 1
21 18 19 2
22 18 30 1
23 20 21 1
24 21 22 1
25 21 23 2
26 20 26 1
27 20 27 1
28 22 28 1
29 22 29 1
30 30 31 1
31 30 36 1
32 31 32 1
33 31 34 1
34 31 37 1
35 32 33 2
36 32 44 1
37 34 35 1
38 35 36 1
39 34 38 1
40 34 39 1
41 35 40 1
42 35 41 1
43 36 42 1
44 36 43 1
45 44 45 1
46 44 53 1
47 45 46 1
48 45 48 1
49 45 54 1
50 46 47 2
51 46 59 1
52 48 49 1
53 49 50 1
54 50 51 2
55 50 52 1
56 48 55 1
57 48 56 1
58 49 57 1
59 49 58 1
60 59 60 1
61 59 65 1
62 60 61 1
63 60 63 1
64 60 66 1
65 61 62 2
66 61 70 1
67 63 64 1
68 63 67 1
69 63 68 1
70 64 69 1
71 70 71 1
72 70 78 1
73 71 72 1
74 71 74 1
75 71 79 1
76 72 73 2
77 72 89 1
78 74 75 1
79 74 76 1
80 75 77 1
81 74 80 1
82 75 81 1
83 75 82 1
84 76 83 1
85 76 84 1
86 76 85 1
87 77 86 1
88 77 87 1
89 77 88 1
90 89 90 1
91 89 97 1
92 90 91 1
93 90 93 1
94 90 98 1
95 91 92 2
96 91 108 1
97 93 94 1
98 94 95 1
99 94 96 1
100 93 99 1
101 93 100 1
102 94 101 1
103 95 102 1
104 95 103 1
105 95 104 1
106 96 105 1
107 96 106 1
108 96 107 1
109 108 109 1
110 108 116 1
111 109 110 1
112 109 112 1
113 109 117 1
114 110 111 2
115 110 120 1
116 112 113 1
117 113 114 2
118 113 115 1
119 112 118 1
120 112 119 1
121 120 121 1
122 120 129 1
123 121 122 1
124 121 124 1
125 121 130 1
126 122 123 2
127 122 135 1
128 124 125 1
129 125 126 1
130 126 127 2
131 126 128 1
132 124 131 1
133 124 132 1
134 125 133 1
135 125 134 1
136 135 136 1
137 135 143 1
138 136 137 1
139 136 139 1
140 136 144 1
141 137 138 2
142 137 152 1
143 139 140 1
144 140 141 1
145 141 142 1
146 139 145 1
147 139 146 1
148 140 147 1
149 140 148 1
150 142 149 1
151 142 150 1
152 142 151 1
153 152 153 1
154 152 159 1
155 153 154 1
156 153 156 1
157 153 160 1
158 154 155 2
159 154 168 1
160 156 157 1
161 156 158 1
162 156 161 1
163 157 162 1
164 157 163 1
165 157 164 1
166 158 165 1
167 158 166 1
168 158 167 1
169 168 169 1
170 168 177 1
171 169 170 1
172 169 172 1
173 169 178 1
174 170 171 2
175 170 185 1
176 172 173 1
177 173 174 1
178 174 175 1
179 174 176 2
180 172 179 1
181 172 180 1
182 173 181 1
183 173 182 1
184 175 183 1
185 175 184 1
186 185 186 1
187 185 196 1
188 186 187 1
189 186 189 1
190 186 197 1
191 187 188 2
192 187 209 1
193 189 190 1
194 190 191 1
195 191 192 1
196 192 193 1
197 193 194 2
198 193 195 1
199 189 198 1
200 189 199 1
201 190 200 1
202 190 201 1
203 191 202 1
204 191 203 1
205 192 204 1
206 194 205 1
207 194 206 1
208 195 207 1
209 195 208 1
210 209 210 1
211 209 216 1
212 210 211 1
213 210 213 1
214 210 217 1
215 211 212 2
216 211 225 1
217 213 214 1
218 213 215 1
219 213 218 1
220 214 219 1
221 214 220 1
222 214 221 1
223 215 222 1
224 215 223 1
225 215 224 1
226 225 226 1
227 225 233 1
228 226 227 1
229 226 229 1
230 226 234 1
231 227 228 2
232 227 242 1
233 229 230 1
234 230 231 1
235 231 232 1
236 229 235 1
237 229 236 1
238 230 237 1
239 230 238 1
240 232 239 1
241 232 240 1
242 232 241 1
243 242 243 1
244 242 253 1
245 243 244 1
246 243 246 1
247 243 254 1
248 244 245 2
249 246 247 1
250 247 248 1
251 248 249 1
252 249 250 1
253 250 251 2
254 250 252 1
255 246 255 1
256 246 256 1
257 247 257 1
258 247 258 1
259 248 259 1
260 248 260 1
261 249 261 1
262 251 262 1
263 251 263 1
264 252 264 1
265 252 265 1
@<TRIPOS>SUBSTRUCTURE
1	GLU1	1	RESIDUE	1 ****	GLU
2	ASN2	16	RESIDUE	1 ****	ASN
3	PRO3	30	RESIDUE	1 ****	PRO
4	GLU4	44	RESIDUE	1 ****	GLU
5	SER5	59	RESIDUE	1 ****	SER
6	ILE6	70	RESIDUE	1 ****	ILE
7	LEU7	89	RESIDUE	1 ****	LEU
8	ASP8	108	RESIDUE	1 ****	ASP
9	GLU9	120	RESIDUE	1 ****	GLU
10	MET10	135	RESIDUE	1 ****	MET
11	VAL11	152	RESIDUE	1 ****	VAL
12	GLN12	168	RESIDUE	1 ****	GLN
13	ARG13	185	RESIDUE	1 ****	ARG
14	VAL14	209	RESIDUE	1 ****	VAL
15	MET15	225	RESIDUE	1 ****	MET
16	ARG16	242	RESIDUE	1 ****	ARG
