@<TRIPOS>MOLECULE
16-14
255 256 16              
SMALL
USER_CHARGES
@<TRIPOS>ATOM
1	   N	2601.588	797.688	-2719.292	N.3	1	GLU1	-0.516	
2	  CA	2602.147	799.037	-2719.292	C.3	1	GLU1	0.040	
3	   C	2603.656	798.997	-2719.292	C.2	1	GLU1	0.537	
4	   O	2604.332	799.696	-2720.061	O.2	1	GLU1	-0.582	
5	  CB	2601.624	799.822	-2718.055	C.3	1	GLU1	0.056	
6	  CG	2602.099	801.307	-2717.944	C.3	1	GLU1	0.014	
7	  CD	2601.675	802.111	-2716.729	C.2	1	GLU1	0.805	
8	 OE1	2600.947	801.609	-2715.851	O.co2	1	GLU1	-0.819	
9	 OE2	2602.105	803.281	-2716.657	O.co2	1	GLU1	-0.819	
10	   H	2602.215	796.809	-2719.292	 H	1	GLU1	0.294	
11	  HA	2601.821	799.555	-2720.212	 H	1	GLU1	0.111	
12	 2HB	2601.913	799.291	-2717.125	 H	1	GLU1	-0.017	
13	 3HB	2600.517	799.812	-2718.042	 H	1	GLU1	-0.017	
14	 2HG	2601.789	801.892	-2718.825	 H	1	GLU1	-0.043	
15	 3HG	2603.199	801.374	-2717.915	 H	1	GLU1	-0.043	
16	   N	2604.261	798.211	-2718.467	N.am	2	ASN2	-0.416	
17	  CA	2605.720	798.172	-2718.467	C.3	2	ASN2	0.014	
18	   C	2606.251	797.816	-2719.835	C.2	2	ASN2	0.597	
19	   O	2607.167	798.447	-2720.364	O.2	2	ASN2	-0.568	
20	  CB	2606.212	797.149	-2717.402	C.3	2	ASN2	-0.204	
21	  CG	2605.748	797.373	-2715.959	C.2	2	ASN2	0.713	
22	 ND2	2606.342	798.288	-2715.241	N.pl3	2	ASN2	-0.919	
23	 OD1	2604.827	796.739	-2715.465	O.2	2	ASN2	-0.593	
24	   H	2603.732	797.631	-2717.831	 H	2	ASN2	0.272	
25	  HA	2606.098	799.182	-2718.221	 H	2	ASN2	0.105	
26	 2HB	2607.316	797.090	-2717.406	 H	2	ASN2	0.080	
27	 3HB	2605.883	796.131	-2717.688	 H	2	ASN2	0.080	
28	1HD2	2605.861	798.461	-2714.354	 H	2	ASN2	0.420	
29	2HD2	2607.044	798.859	-2715.710	 H	2	ASN2	0.420	
30	   N	2605.730	796.822	-2720.470	N.am	3	PRO3	-0.255	
31	  CA	2606.182	796.412	-2721.791	C.3	3	PRO3	-0.027	
32	   C	2605.784	797.436	-2722.868	C.2	3	PRO3	0.590	
33	   O	2606.608	797.819	-2723.699	O.2	3	PRO3	-0.575	
34	  CB	2605.478	795.058	-2721.961	C.3	3	PRO3	-0.007	
35	  CG	2604.194	795.210	-2721.131	C.3	3	PRO3	0.019	
36	  CD	2604.652	796.029	-2719.921	C.3	3	PRO3	0.019	
37	  HA	2607.268	796.292	-2721.804	 H	3	PRO3	0.064	
38	 2HB	2606.101	794.276	-2721.520	 H	3	PRO3	0.025	
39	 3HB	2605.280	794.809	-2723.006	 H	3	PRO3	0.025	
40	 2HG	2603.766	794.248	-2720.840	 H	3	PRO3	0.021	
41	 3HG	2603.457	795.781	-2721.698	 H	3	PRO3	0.021	
42	 2HD	2605.041	795.379	-2719.134	 H	3	PRO3	0.039	
43	 3HD	2603.855	796.664	-2719.528	 H	3	PRO3	0.039	
44	   N	2604.580	797.896	-2722.901	N.am	4	GLU4	-0.516	
45	  CA	2604.220	798.867	-2723.931	C.3	4	GLU4	0.040	
46	   C	2605.120	800.078	-2723.869	C.2	4	GLU4	0.537	
47	   O	2605.646	800.557	-2724.883	O.2	4	GLU4	-0.582	
48	  CB	2602.732	799.286	-2723.761	C.3	4	GLU4	0.056	
49	  CG	2602.185	800.290	-2724.827	C.3	4	GLU4	0.014	
50	  CD	2600.758	800.787	-2724.684	C.2	4	GLU4	0.805	
51	 OE1	2600.031	800.389	-2723.753	O.co2	4	GLU4	-0.819	
52	 OE2	2600.369	801.616	-2725.532	O.co2	4	GLU4	-0.819	
53	   H	2603.895	797.590	-2722.224	 H	4	GLU4	0.294	
54	  HA	2604.352	798.397	-2724.922	 H	4	GLU4	0.111	
55	 2HB	2602.579	799.726	-2722.754	 H	4	GLU4	-0.017	
56	 3HB	2602.084	798.388	-2723.767	 H	4	GLU4	-0.017	
57	 2HG	2602.266	799.875	-2725.845	 H	4	GLU4	-0.043	
58	 3HG	2602.773	801.222	-2724.838	 H	4	GLU4	-0.043	
59	   N	2605.347	800.630	-2722.726	N.am	5	SER5	-0.416	
60	  CA	2606.217	801.802	-2722.667	C.3	5	SER5	-0.025	
61	   C	2607.575	801.495	-2723.252	C.2	5	SER5	0.597	
62	   O	2608.123	802.249	-2724.057	O.2	5	SER5	-0.568	
63	  CB	2606.328	802.334	-2721.217	C.3	5	SER5	0.212	
64	  OG	2607.059	801.454	-2720.355	O.3	5	SER5	-0.655	
65	   H	2604.929	800.259	-2721.885	 H	5	SER5	0.272	
66	  HA	2605.768	802.592	-2723.296	 H	5	SER5	0.084	
67	 2HB	2605.328	802.528	-2720.783	 H	5	SER5	0.035	
68	 3HB	2606.833	803.319	-2721.219	 H	5	SER5	0.035	
69	  HG	2606.570	800.629	-2720.305	 H	5	SER5	0.428	
70	   N	2608.180	800.412	-2722.898	N.am	6	ILE6	-0.416	
71	  CA	2609.493	800.117	-2723.464	C.3	6	ILE6	-0.060	
72	   C	2609.436	800.079	-2724.972	C.2	6	ILE6	0.597	
73	   O	2610.271	800.666	-2725.676	O.2	6	ILE6	-0.568	
74	  CB	2610.092	798.780	-2722.864	C.3	6	ILE6	0.130	
75	 CG1	2610.111	798.718	-2721.303	C.3	6	ILE6	-0.043	
76	 CG2	2611.533	798.478	-2723.379	C.3	6	ILE6	-0.320	
77	 CD1	2610.380	797.329	-2720.688	C.3	6	ILE6	-0.066	
78	   H	2607.751	799.778	-2722.239	 H	6	ILE6	0.272	
79	  HA	2610.167	800.951	-2723.196	 H	6	ILE6	0.087	
80	  HB	2609.434	797.954	-2723.208	 H	6	ILE6	0.019	
81	2HG1	2609.129	799.038	-2720.907	 H	6	ILE6	0.024	
82	3HG1	2610.827	799.460	-2720.898	 H	6	ILE6	0.024	
83	1HG2	2611.592	798.385	-2724.477	 H	6	ILE6	0.088	
84	2HG2	2612.256	799.260	-2723.076	 H	6	ILE6	0.088	
85	3HG2	2611.923	797.516	-2723.000	 H	6	ILE6	0.088	
86	1HD1	2609.652	796.575	-2721.042	 H	6	ILE6	0.019	
87	2HD1	2611.391	796.950	-2720.923	 H	6	ILE6	0.019	
88	3HD1	2610.304	797.359	-2719.585	 H	6	ILE6	0.019	
89	   N	2608.490	799.416	-2725.545	N.am	7	LEU7	-0.416	
90	  CA	2608.435	799.380	-2727.004	C.3	7	LEU7	-0.052	
91	   C	2608.363	800.775	-2727.577	C.2	7	LEU7	0.597	
92	   O	2609.084	801.137	-2728.519	O.2	7	LEU7	-0.568	
93	  CB	2607.231	798.520	-2727.484	C.3	7	LEU7	-0.110	
94	  CG	2607.158	797.040	-2727.018	C.3	7	LEU7	0.353	
95	 CD1	2605.968	796.335	-2727.683	C.3	7	LEU7	-0.412	
96	 CD2	2608.452	796.261	-2727.309	C.3	7	LEU7	-0.412	
97	   H	2607.798	798.929	-2724.994	 H	7	LEU7	0.272	
98	  HA	2609.376	798.939	-2727.378	 H	7	LEU7	0.092	
99	 2HB	2607.208	798.536	-2728.592	 H	7	LEU7	0.046	
100	 3HB	2606.292	799.023	-2727.180	 H	7	LEU7	0.046	
101	  HG	2606.988	797.033	-2725.920	 H	7	LEU7	-0.036	
102	1HD1	2605.011	796.844	-2727.460	 H	7	LEU7	0.100	
103	2HD1	2606.067	796.294	-2728.784	 H	7	LEU7	0.100	
104	3HD1	2605.861	795.294	-2727.327	 H	7	LEU7	0.100	
105	1HD2	2608.727	796.291	-2728.379	 H	7	LEU7	0.100	
106	2HD2	2609.305	796.672	-2726.738	 H	7	LEU7	0.100	
107	3HD2	2608.370	795.199	-2727.013	 H	7	LEU7	0.100	
108	   N	2607.526	801.616	-2727.071	N.am	8	ASP8	-0.516	
109	  CA	2607.456	802.965	-2727.625	C.3	8	ASP8	0.038	
110	   C	2608.803	803.645	-2727.568	C.2	8	ASP8	0.537	
111	   O	2609.276	804.249	-2728.543	O.2	8	ASP8	-0.582	
112	  CB	2606.378	803.805	-2726.884	C.3	8	ASP8	-0.030	
113	  CG	2606.160	805.226	-2727.425	C.2	8	ASP8	0.799	
114	 OD1	2606.225	805.424	-2728.656	O.co2	8	ASP8	-0.801	
115	 OD2	2605.969	806.152	-2726.610	O.co2	8	ASP8	-0.801	
116	   H	2606.928	801.346	-2726.303	 H	8	ASP8	0.294	
117	  HA	2607.173	802.887	-2728.692	 H	8	ASP8	0.088	
118	 2HB	2606.636	803.889	-2725.812	 H	8	ASP8	-0.012	
119	 3HB	2605.399	803.301	-2726.917	 H	8	ASP8	-0.012	
120	   N	2609.483	803.595	-2726.473	N.am	9	GLU9	-0.516	
121	  CA	2610.786	804.252	-2726.418	C.3	9	GLU9	0.040	
122	   C	2611.704	803.723	-2727.494	C.2	9	GLU9	0.537	
123	   O	2612.368	804.477	-2728.220	O.2	9	GLU9	-0.582	
124	  CB	2611.420	804.045	-2725.013	C.3	9	GLU9	0.056	
125	  CG	2612.803	804.737	-2724.784	C.3	9	GLU9	0.014	
126	  CD	2613.505	804.523	-2723.456	C.2	9	GLU9	0.805	
127	 OE1	2612.983	803.833	-2722.559	O.co2	9	GLU9	-0.819	
128	 OE2	2614.624	805.061	-2723.325	O.co2	9	GLU9	-0.819	
129	   H	2609.120	803.109	-2725.666	 H	9	GLU9	0.294	
130	  HA	2610.645	805.334	-2726.594	 H	9	GLU9	0.111	
131	 2HB	2611.532	802.960	-2724.809	 H	9	GLU9	-0.017	
132	 3HB	2610.723	804.399	-2724.229	 H	9	GLU9	-0.017	
133	 2HG	2612.731	805.827	-2724.924	 H	9	GLU9	-0.043	
134	 3HG	2613.549	804.391	-2725.518	 H	9	GLU9	-0.043	
135	   N	2611.800	802.448	-2727.663	N.am	10	HIS10	-0.416	
136	  CA	2612.687	801.936	-2728.703	C.3	10	HIS10	-0.058	
137	   C	2612.320	802.500	-2730.055	C.2	10	HIS10	0.597	
138	   O	2613.173	802.964	-2730.827	O.2	10	HIS10	-0.568	
139	  CB	2612.522	800.407	-2728.698	C.3	10	HIS10	-0.007	
140	  CG	2613.808	799.696	-2728.390	C.2	10	HIS10	0.187	
141	 CD2	2614.189	799.362	-2727.097	C.2	10	HIS10	-0.221	
142	 ND1	2614.759	799.289	-2729.322	N.2	10	HIS10	-0.543	
143	 CE1	2615.666	798.731	-2728.499	C.2	10	HIS10	0.163	
144	 NE2	2615.404	798.729	-2727.164	N.pl3	10	HIS10	-0.280	
145	   H	2611.269	801.813	-2727.084	 H	10	HIS10	0.272	
146	  HA	2613.707	802.293	-2728.479	 H	10	HIS10	0.136	
147	 2HB	2612.156	800.040	-2729.677	 H	10	HIS10	0.037	
148	 3HB	2611.767	800.071	-2727.957	 H	10	HIS10	0.037	
149	 2HD	2613.604	799.577	-2726.208	 H	10	HIS10	0.186	
150	 1HE	2616.556	798.310	-2728.946	 H	10	HIS10	0.144	
151	 2HE	2615.970	798.352	-2726.391	 H	10	HIS10	0.334	
152	   N	2611.082	802.499	-2730.417	N.am	11	VAL11	-0.416	
153	  CA	2610.727	803.045	-2731.725	C.3	11	VAL11	-0.087	
154	   C	2611.192	804.475	-2731.858	C.2	11	VAL11	0.597	
155	   O	2611.793	804.880	-2732.861	O.2	11	VAL11	-0.568	
156	  CB	2609.166	802.939	-2731.944	C.3	11	VAL11	0.299	
157	 CG1	2608.597	803.642	-2733.207	C.3	11	VAL11	-0.319	
158	 CG2	2608.641	801.485	-2732.016	C.3	11	VAL11	-0.319	
159	   H	2610.369	802.127	-2729.807	 H	11	VAL11	0.272	
160	  HA	2611.246	802.462	-2732.507	 H	11	VAL11	0.097	
161	  HB	2608.679	803.420	-2731.069	 H	11	VAL11	-0.030	
162	1HG1	2609.036	803.250	-2734.144	 H	11	VAL11	0.079	
163	2HG1	2607.498	803.536	-2733.289	 H	11	VAL11	0.079	
164	3HG1	2608.776	804.735	-2733.198	 H	11	VAL11	0.079	
165	1HG2	2608.930	800.898	-2731.125	 H	11	VAL11	0.079	
166	2HG2	2607.535	801.449	-2732.058	 H	11	VAL11	0.079	
167	3HG2	2609.022	800.943	-2732.902	 H	11	VAL11	0.079	
168	   N	2610.956	805.301	-2730.896	N.am	12	GLN12	-0.416	
169	  CA	2611.405	806.684	-2731.024	C.3	12	GLN12	-0.003	
170	   C	2612.895	806.751	-2731.262	C.2	12	GLN12	0.597	
171	   O	2613.382	807.458	-2732.141	O.2	12	GLN12	-0.568	
172	  CB	2611.015	807.453	-2729.741	C.3	12	GLN12	-0.004	
173	  CG	2611.376	808.974	-2729.711	C.3	12	GLN12	-0.064	
174	  CD	2611.075	809.788	-2728.447	C.2	12	GLN12	0.695	
175	 NE2	2610.508	809.213	-2727.417	N.pl3	12	GLN12	-0.941	
176	 OE1	2611.377	810.969	-2728.370	O.2	12	GLN12	-0.609	
177	   H	2610.467	804.996	-2730.066	 H	12	GLN12	0.272	
178	  HA	2610.906	807.140	-2731.899	 H	12	GLN12	0.085	
179	 2HB	2611.491	806.952	-2728.872	 H	12	GLN12	0.017	
180	 3HB	2609.925	807.346	-2729.578	 H	12	GLN12	0.017	
181	 2HG	2610.899	809.495	-2730.562	 H	12	GLN12	0.035	
182	 3HG	2612.460	809.116	-2729.877	 H	12	GLN12	0.035	
183	1HE2	2610.401	809.808	-2726.594	 H	12	GLN12	0.425	
184	2HE2	2610.343	808.209	-2727.520	 H	12	GLN12	0.425	
185	   N	2613.680	806.044	-2730.521	N.am	13	ARG13	-0.348	
186	  CA	2615.120	806.109	-2730.752	C.3	13	ARG13	-0.264	
187	   C	2615.456	805.737	-2732.177	C.2	13	ARG13	0.734	
188	   O	2616.224	806.408	-2732.862	O.2	13	ARG13	-0.589	
189	  CB	2615.833	805.171	-2729.738	C.3	13	ARG13	-0.001	
190	  CG	2617.378	805.323	-2729.657	C.3	13	ARG13	0.039	
191	  CD	2618.005	804.336	-2728.659	C.3	13	ARG13	0.049	
192	  NE	2619.482	804.543	-2728.609	N.pl3	13	ARG13	-0.530	
193	  CZ	2620.331	803.852	-2727.854	C.cat	13	ARG13	0.808	
194	 NH1	2619.966	802.888	-2727.055	N.pl3	13	ARG13	-0.863	
195	 NH2	2621.590	804.150	-2727.911	N.pl3	13	ARG13	-0.863	
196	   H	2613.303	805.455	-2729.792	 H	13	ARG13	0.275	
197	  HA	2615.445	807.155	-2730.594	 H	13	ARG13	0.156	
198	 2HB	2615.567	804.120	-2729.976	 H	13	ARG13	0.033	
199	 3HB	2615.408	805.338	-2728.727	 H	13	ARG13	0.033	
200	 2HG	2617.627	806.368	-2729.379	 H	13	ARG13	0.029	
201	 3HG	2617.829	805.166	-2730.659	 H	13	ARG13	0.029	
202	 2HD	2617.760	803.296	-2728.967	 H	13	ARG13	0.069	
203	 3HD	2617.549	804.483	-2727.656	 H	13	ARG13	0.069	
204	  HE	2619.934	805.265	-2729.180	 H	13	ARG13	0.346	
205	1HH1	2618.960	802.702	-2727.058	 H	13	ARG13	0.448	
206	2HH1	2620.679	802.405	-2726.506	 H	13	ARG13	0.448	
207	1HH2	2621.858	804.908	-2728.543	 H	13	ARG13	0.448	
208	2HH2	2622.226	803.609	-2727.322	 H	13	ARG13	0.448	
209	   N	2614.919	804.682	-2732.690	N.am	14	VAL14	-0.416	
210	  CA	2615.243	804.322	-2734.068	C.3	14	VAL14	-0.087	
211	   C	2614.914	805.451	-2735.014	C.2	14	VAL14	0.597	
212	   O	2615.707	805.832	-2735.884	O.2	14	VAL14	-0.568	
213	  CB	2614.470	803.005	-2734.474	C.3	14	VAL14	0.299	
214	 CG1	2614.559	802.585	-2735.967	C.3	14	VAL14	-0.319	
215	 CG2	2614.902	801.753	-2733.673	C.3	14	VAL14	-0.319	
216	   H	2614.284	804.114	-2732.148	 H	14	VAL14	0.272	
217	  HA	2616.332	804.144	-2734.143	 H	14	VAL14	0.097	
218	  HB	2613.394	803.176	-2734.258	 H	14	VAL14	-0.030	
219	1HG1	2615.600	802.408	-2736.296	 H	14	VAL14	0.079	
220	2HG1	2613.986	801.662	-2736.179	 H	14	VAL14	0.079	
221	3HG1	2614.130	803.347	-2736.646	 H	14	VAL14	0.079	
222	1HG2	2614.815	801.912	-2732.582	 H	14	VAL14	0.079	
223	2HG2	2614.266	800.876	-2733.904	 H	14	VAL14	0.079	
224	3HG2	2615.950	801.462	-2733.879	 H	14	VAL14	0.079	
225	   N	2613.769	806.037	-2734.912	N.am	15	MET15	-0.416	
226	  CA	2613.448	807.130	-2735.826	C.3	15	MET15	-0.024	
227	   C	2614.479	808.230	-2735.739	C.2	15	MET15	0.597	
228	   O	2614.981	808.740	-2736.752	O.2	15	MET15	-0.568	
229	  CB	2612.027	807.676	-2735.517	C.3	15	MET15	0.034	
230	  CG	2610.865	806.678	-2735.708	C.3	15	MET15	0.002	
231	  SD	2609.291	807.544	-2735.594	S.3	15	MET15	-0.274	
232	  CE	2608.210	806.115	-2735.456	C.3	15	MET15	-0.054	
233	   H	2613.104	805.745	-2734.210	 H	15	MET15	0.272	
234	  HA	2613.474	806.742	-2736.862	 H	15	MET15	0.088	
235	 2HB	2611.825	808.554	-2736.159	 H	15	MET15	0.024	
236	 3HB	2611.992	808.069	-2734.481	 H	15	MET15	0.024	
237	 2HG	2610.908	805.892	-2734.930	 H	15	MET15	0.044	
238	 3HG	2610.927	806.162	-2736.684	 H	15	MET15	0.044	
239	 1HE	2608.353	805.426	-2736.309	 H	15	MET15	0.068	
240	 2HE	2608.419	805.562	-2734.523	 H	15	MET15	0.068	
241	 3HE	2607.153	806.430	-2735.440	 H	15	MET15	0.068	
242	   N	2614.848	808.651	-2734.577	N.am	16	THR16	-0.416	
243	  CA	2615.844	809.714	-2734.494	C.3	16	THR16	-0.039	
244	   C	2617.115	809.323	-2735.209	C.2	16	THR16	0.597	
245	   O	2617.236	808.250	-2735.765	O.2	16	THR16	-0.568	
246	  CB	2616.140	810.075	-2732.998	C.3	16	THR16	0.365	
247	 CG2	2617.187	811.183	-2732.756	C.3	16	THR16	-0.244	
248	 OG1	2614.963	810.551	-2732.357	O.3	16	THR16	-0.676	
249	   H	2614.454	808.251	-2733.737	 H	16	THR16	0.272	
250	  HA	2615.442	810.610	-2735.001	 H	16	THR16	0.101	
251	  HB	2616.479	809.154	-2732.477	 H	16	THR16	0.004	
252	 1HG	2615.197	810.684	-2731.435	 H	16	THR16	0.410	
253	1HG2	2617.325	811.398	-2731.680	 H	16	THR16	0.064	
254	2HG2	2618.189	810.910	-2733.137	 H	16	THR16	0.064	
255	3HG2	2616.901	812.133	-2733.246	 H	16	THR16	0.064	
@<TRIPOS>BOND
1 1 2 1
2 1 10 1
3 2 3 1
4 2 5 1
5 2 11 1
6 3 4 2
7 3 16 1
8 5 6 1
9 6 7 1
10 7 8 2
11 7 9 1
12 5 12 1
13 5 13 1
14 6 14 1
15 6 15 1
16 16 17 1
17 16 24 1
18 17 18 1
19 17 20 1
20 17 25 1
21 18 19 2
22 18 30 1
23 20 21 1
24 21 22 1
25 21 23 2
26 20 26 1
27 20 27 1
28 22 28 1
29 22 29 1
30 30 31 1
31 30 36 1
32 31 32 1
33 31 34 1
34 31 37 1
35 32 33 2
36 32 44 1
37 34 35 1
38 35 36 1
39 34 38 1
40 34 39 1
41 35 40 1
42 35 41 1
43 36 42 1
44 36 43 1
45 44 45 1
46 44 53 1
47 45 46 1
48 45 48 1
49 45 54 1
50 46 47 2
51 46 59 1
52 48 49 1
53 49 50 1
54 50 51 2
55 50 52 1
56 48 55 1
57 48 56 1
58 49 57 1
59 49 58 1
60 59 60 1
61 59 65 1
62 60 61 1
63 60 63 1
64 60 66 1
65 61 62 2
66 61 70 1
67 63 64 1
68 63 67 1
69 63 68 1
70 64 69 1
71 70 71 1
72 70 78 1
73 71 72 1
74 71 74 1
75 71 79 1
76 72 73 2
77 72 89 1
78 74 75 1
79 74 76 1
80 75 77 1
81 74 80 1
82 75 81 1
83 75 82 1
84 76 83 1
85 76 84 1
86 76 85 1
87 77 86 1
88 77 87 1
89 77 88 1
90 89 90 1
91 89 97 1
92 90 91 1
93 90 93 1
94 90 98 1
95 91 92 2
96 91 108 1
97 93 94 1
98 94 95 1
99 94 96 1
100 93 99 1
101 93 100 1
102 94 101 1
103 95 102 1
104 95 103 1
105 95 104 1
106 96 105 1
107 96 106 1
108 96 107 1
109 108 109 1
110 108 116 1
111 109 110 1
112 109 112 1
113 109 117 1
114 110 111 2
115 110 120 1
116 112 113 1
117 113 114 2
118 113 115 1
119 112 118 1
120 112 119 1
121 120 121 1
122 120 129 1
123 121 122 1
124 121 124 1
125 121 130 1
126 122 123 2
127 122 135 1
128 124 125 1
129 125 126 1
130 126 127 2
131 126 128 1
132 124 131 1
133 124 132 1
134 125 133 1
135 125 134 1
136 135 136 1
137 135 145 1
138 136 137 1
139 136 139 1
140 136 146 1
141 137 138 2
142 137 152 1
143 139 140 1
144 140 141 2
145 141 144 1
146 140 142 1
147 142 143 2
148 143 144 1
149 139 147 1
150 139 148 1
151 141 149 1
152 143 150 1
153 144 151 1
154 152 153 1
155 152 159 1
156 153 154 1
157 153 156 1
158 153 160 1
159 154 155 2
160 154 168 1
161 156 157 1
162 156 158 1
163 156 161 1
164 157 162 1
165 157 163 1
166 157 164 1
167 158 165 1
168 158 166 1
169 158 167 1
170 168 169 1
171 168 177 1
172 169 170 1
173 169 172 1
174 169 178 1
175 170 171 2
176 170 185 1
177 172 173 1
178 173 174 1
179 174 175 1
180 174 176 2
181 172 179 1
182 172 180 1
183 173 181 1
184 173 182 1
185 175 183 1
186 175 184 1
187 185 186 1
188 185 196 1
189 186 187 1
190 186 189 1
191 186 197 1
192 187 188 2
193 187 209 1
194 189 190 1
195 190 191 1
196 191 192 1
197 192 193 1
198 193 194 2
199 193 195 1
200 189 198 1
201 189 199 1
202 190 200 1
203 190 201 1
204 191 202 1
205 191 203 1
206 192 204 1
207 194 205 1
208 194 206 1
209 195 207 1
210 195 208 1
211 209 210 1
212 209 216 1
213 210 211 1
214 210 213 1
215 210 217 1
216 211 212 2
217 211 225 1
218 213 214 1
219 213 215 1
220 213 218 1
221 214 219 1
222 214 220 1
223 214 221 1
224 215 222 1
225 215 223 1
226 215 224 1
227 225 226 1
228 225 233 1
229 226 227 1
230 226 229 1
231 226 234 1
232 227 228 2
233 227 242 1
234 229 230 1
235 230 231 1
236 231 232 1
237 229 235 1
238 229 236 1
239 230 237 1
240 230 238 1
241 232 239 1
242 232 240 1
243 232 241 1
244 242 243 1
245 242 249 1
246 243 244 1
247 243 246 1
248 243 250 1
249 244 245 2
250 246 247 1
251 246 248 1
252 246 251 1
253 248 252 1
254 247 253 1
255 247 254 1
256 247 255 1
@<TRIPOS>SUBSTRUCTURE
1	GLU1	1	RESIDUE	1 ****	GLU
2	ASN2	16	RESIDUE	1 ****	ASN
3	PRO3	30	RESIDUE	1 ****	PRO
4	GLU4	44	RESIDUE	1 ****	GLU
5	SER5	59	RESIDUE	1 ****	SER
6	ILE6	70	RESIDUE	1 ****	ILE
7	LEU7	89	RESIDUE	1 ****	LEU
8	ASP8	108	RESIDUE	1 ****	ASP
9	GLU9	120	RESIDUE	1 ****	GLU
10	HIS10	135	RESIDUE	1 ****	HIS
11	VAL11	152	RESIDUE	1 ****	VAL
12	GLN12	168	RESIDUE	1 ****	GLN
13	ARG13	185	RESIDUE	1 ****	ARG
14	VAL14	209	RESIDUE	1 ****	VAL
15	MET15	225	RESIDUE	1 ****	MET
16	THR16	242	RESIDUE	1 ****	THR
