@<TRIPOS>MOLECULE
13-15
255 256 16              
SMALL
USER_CHARGES
@<TRIPOS>ATOM
1	   N	2120.223	644.980	-2195.569	N.3	1	GLU1	-0.516	
2	  CA	2120.782	646.329	-2195.569	C.3	1	GLU1	0.040	
3	   C	2122.292	646.289	-2195.569	C.2	1	GLU1	0.537	
4	   O	2122.967	646.988	-2196.338	O.2	1	GLU1	-0.582	
5	  CB	2120.259	647.114	-2194.333	C.3	1	GLU1	0.056	
6	  CG	2120.734	648.599	-2194.221	C.3	1	GLU1	0.014	
7	  CD	2120.310	649.403	-2193.006	C.2	1	GLU1	0.805	
8	 OE1	2119.582	648.901	-2192.128	O.co2	1	GLU1	-0.819	
9	 OE2	2120.740	650.573	-2192.934	O.co2	1	GLU1	-0.819	
10	   H	2120.850	644.101	-2195.569	 H	1	GLU1	0.294	
11	  HA	2120.456	646.847	-2196.490	 H	1	GLU1	0.111	
12	 2HB	2120.548	646.583	-2193.402	 H	1	GLU1	-0.017	
13	 3HB	2119.152	647.104	-2194.319	 H	1	GLU1	-0.017	
14	 2HG	2120.424	649.184	-2195.102	 H	1	GLU1	-0.043	
15	 3HG	2121.834	648.666	-2194.192	 H	1	GLU1	-0.043	
16	   N	2122.896	645.503	-2194.744	N.am	2	ASN2	-0.416	
17	  CA	2124.355	645.464	-2194.744	C.3	2	ASN2	0.014	
18	   C	2124.887	645.108	-2196.113	C.2	2	ASN2	0.597	
19	   O	2125.802	645.739	-2196.641	O.2	2	ASN2	-0.568	
20	  CB	2124.847	644.441	-2193.679	C.3	2	ASN2	-0.204	
21	  CG	2124.384	644.665	-2192.236	C.2	2	ASN2	0.713	
22	 ND2	2124.978	645.580	-2191.518	N.pl3	2	ASN2	-0.919	
23	 OD1	2123.462	644.031	-2191.742	O.2	2	ASN2	-0.593	
24	   H	2122.368	644.923	-2194.108	 H	2	ASN2	0.272	
25	  HA	2124.733	646.474	-2194.499	 H	2	ASN2	0.105	
26	 2HB	2125.951	644.382	-2193.683	 H	2	ASN2	0.080	
27	 3HB	2124.518	643.423	-2193.965	 H	2	ASN2	0.080	
28	1HD2	2124.497	645.753	-2190.631	 H	2	ASN2	0.420	
29	2HD2	2125.679	646.151	-2191.987	 H	2	ASN2	0.420	
30	   N	2124.365	644.114	-2196.747	N.am	3	PRO3	-0.255	
31	  CA	2124.817	643.704	-2198.068	C.3	3	PRO3	-0.027	
32	   C	2124.420	644.728	-2199.145	C.2	3	PRO3	0.590	
33	   O	2125.243	645.111	-2199.977	O.2	3	PRO3	-0.575	
34	  CB	2124.113	642.350	-2198.238	C.3	3	PRO3	-0.007	
35	  CG	2122.829	642.502	-2197.408	C.3	3	PRO3	0.019	
36	  CD	2123.287	643.321	-2196.198	C.3	3	PRO3	0.019	
37	  HA	2125.903	643.584	-2198.082	 H	3	PRO3	0.064	
38	 2HB	2124.736	641.569	-2197.797	 H	3	PRO3	0.025	
39	 3HB	2123.915	642.101	-2199.283	 H	3	PRO3	0.025	
40	 2HG	2122.402	641.540	-2197.117	 H	3	PRO3	0.021	
41	 3HG	2122.092	643.073	-2197.976	 H	3	PRO3	0.021	
42	 2HD	2123.676	642.671	-2195.411	 H	3	PRO3	0.039	
43	 3HD	2122.490	643.957	-2195.805	 H	3	PRO3	0.039	
44	   N	2123.215	645.188	-2199.178	N.am	4	GLU4	-0.516	
45	  CA	2122.856	646.159	-2200.208	C.3	4	GLU4	0.040	
46	   C	2123.755	647.370	-2200.146	C.2	4	GLU4	0.537	
47	   O	2124.282	647.849	-2201.160	O.2	4	GLU4	-0.582	
48	  CB	2121.367	646.578	-2200.038	C.3	4	GLU4	0.056	
49	  CG	2120.820	647.582	-2201.104	C.3	4	GLU4	0.014	
50	  CD	2119.393	648.079	-2200.961	C.2	4	GLU4	0.805	
51	 OE1	2118.667	647.681	-2200.030	O.co2	4	GLU4	-0.819	
52	 OE2	2119.004	648.908	-2201.809	O.co2	4	GLU4	-0.819	
53	   H	2122.530	644.882	-2198.501	 H	4	GLU4	0.294	
54	  HA	2122.987	645.689	-2201.199	 H	4	GLU4	0.111	
55	 2HB	2121.214	647.018	-2199.031	 H	4	GLU4	-0.017	
56	 3HB	2120.719	645.680	-2200.044	 H	4	GLU4	-0.017	
57	 2HG	2120.902	647.167	-2202.122	 H	4	GLU4	-0.043	
58	 3HG	2121.408	648.514	-2201.115	 H	4	GLU4	-0.043	
59	   N	2123.982	647.922	-2199.003	N.am	5	SER5	-0.416	
60	  CA	2124.852	649.094	-2198.944	C.3	5	SER5	-0.025	
61	   C	2126.211	648.787	-2199.529	C.2	5	SER5	0.597	
62	   O	2126.759	649.541	-2200.334	O.2	5	SER5	-0.568	
63	  CB	2124.963	649.626	-2197.494	C.3	5	SER5	0.212	
64	  OG	2125.694	648.746	-2196.633	O.3	5	SER5	-0.655	
65	   H	2123.564	647.551	-2198.162	 H	5	SER5	0.272	
66	  HA	2124.403	649.884	-2199.573	 H	5	SER5	0.084	
67	 2HB	2123.963	649.820	-2197.061	 H	5	SER5	0.035	
68	 3HB	2125.469	650.611	-2197.496	 H	5	SER5	0.035	
69	  HG	2125.205	647.921	-2196.582	 H	5	SER5	0.428	
70	   N	2126.815	647.704	-2199.175	N.am	6	ILE6	-0.416	
71	  CA	2128.128	647.409	-2199.741	C.3	6	ILE6	-0.060	
72	   C	2128.071	647.371	-2201.249	C.2	6	ILE6	0.597	
73	   O	2128.906	647.958	-2201.953	O.2	6	ILE6	-0.568	
74	  CB	2128.727	646.072	-2199.141	C.3	6	ILE6	0.130	
75	 CG1	2128.746	646.010	-2197.580	C.3	6	ILE6	-0.043	
76	 CG2	2130.168	645.770	-2199.656	C.3	6	ILE6	-0.320	
77	 CD1	2129.016	644.621	-2196.965	C.3	6	ILE6	-0.066	
78	   H	2126.386	647.070	-2198.516	 H	6	ILE6	0.272	
79	  HA	2128.802	648.243	-2199.473	 H	6	ILE6	0.087	
80	  HB	2128.069	645.247	-2199.485	 H	6	ILE6	0.019	
81	2HG1	2127.764	646.330	-2197.184	 H	6	ILE6	0.024	
82	3HG1	2129.462	646.752	-2197.175	 H	6	ILE6	0.024	
83	1HG2	2130.228	645.677	-2200.754	 H	6	ILE6	0.088	
84	2HG2	2130.891	646.552	-2199.353	 H	6	ILE6	0.088	
85	3HG2	2130.558	644.808	-2199.277	 H	6	ILE6	0.088	
86	1HD1	2128.287	643.867	-2197.320	 H	6	ILE6	0.019	
87	2HD1	2130.026	644.242	-2197.200	 H	6	ILE6	0.019	
88	3HD1	2128.939	644.651	-2195.862	 H	6	ILE6	0.019	
89	   N	2127.125	646.708	-2201.822	N.am	7	LEU7	-0.416	
90	  CA	2127.070	646.672	-2203.281	C.3	7	LEU7	-0.052	
91	   C	2126.998	648.067	-2203.854	C.2	7	LEU7	0.597	
92	   O	2127.719	648.429	-2204.796	O.2	7	LEU7	-0.568	
93	  CB	2125.867	645.812	-2203.761	C.3	7	LEU7	-0.110	
94	  CG	2125.793	644.333	-2203.295	C.3	7	LEU7	0.353	
95	 CD1	2124.604	643.627	-2203.960	C.3	7	LEU7	-0.412	
96	 CD2	2127.087	643.553	-2203.586	C.3	7	LEU7	-0.412	
97	   H	2126.433	646.221	-2201.271	 H	7	LEU7	0.272	
98	  HA	2128.012	646.231	-2203.655	 H	7	LEU7	0.092	
99	 2HB	2125.844	645.828	-2204.869	 H	7	LEU7	0.046	
100	 3HB	2124.927	646.315	-2203.457	 H	7	LEU7	0.046	
101	  HG	2125.624	644.325	-2202.198	 H	7	LEU7	-0.036	
102	1HD1	2123.646	644.136	-2203.738	 H	7	LEU7	0.100	
103	2HD1	2124.703	643.586	-2205.062	 H	7	LEU7	0.100	
104	3HD1	2124.496	642.586	-2203.604	 H	7	LEU7	0.100	
105	1HD2	2127.362	643.583	-2204.656	 H	7	LEU7	0.100	
106	2HD2	2127.940	643.964	-2203.015	 H	7	LEU7	0.100	
107	3HD2	2127.005	642.491	-2203.290	 H	7	LEU7	0.100	
108	   N	2126.161	648.908	-2203.348	N.am	8	ASP8	-0.516	
109	  CA	2126.091	650.258	-2203.902	C.3	8	ASP8	0.038	
110	   C	2127.438	650.937	-2203.845	C.2	8	ASP8	0.537	
111	   O	2127.911	651.541	-2204.820	O.2	8	ASP8	-0.582	
112	  CB	2125.014	651.098	-2203.161	C.3	8	ASP8	-0.030	
113	  CG	2124.796	652.518	-2203.702	C.2	8	ASP8	0.799	
114	 OD1	2124.860	652.716	-2204.933	O.co2	8	ASP8	-0.801	
115	 OD2	2124.604	653.445	-2202.887	O.co2	8	ASP8	-0.801	
116	   H	2125.563	648.638	-2202.580	 H	8	ASP8	0.294	
117	  HA	2125.808	650.179	-2204.969	 H	8	ASP8	0.088	
118	 2HB	2125.271	651.181	-2202.089	 H	8	ASP8	-0.012	
119	 3HB	2124.034	650.593	-2203.194	 H	8	ASP8	-0.012	
120	   N	2128.118	650.887	-2202.750	N.am	9	GLU9	-0.516	
121	  CA	2129.422	651.544	-2202.695	C.3	9	GLU9	0.040	
122	   C	2130.339	651.015	-2203.771	C.2	9	GLU9	0.537	
123	   O	2131.003	651.769	-2204.497	O.2	9	GLU9	-0.582	
124	  CB	2130.055	651.337	-2201.290	C.3	9	GLU9	0.056	
125	  CG	2131.438	652.029	-2201.061	C.3	9	GLU9	0.014	
126	  CD	2132.140	651.815	-2199.733	C.2	9	GLU9	0.805	
127	 OE1	2131.618	651.125	-2198.836	O.co2	9	GLU9	-0.819	
128	 OE2	2133.260	652.353	-2199.602	O.co2	9	GLU9	-0.819	
129	   H	2127.755	650.401	-2201.943	 H	9	GLU9	0.294	
130	  HA	2129.280	652.626	-2202.871	 H	9	GLU9	0.111	
131	 2HB	2130.167	650.252	-2201.086	 H	9	GLU9	-0.017	
132	 3HB	2129.358	651.691	-2200.506	 H	9	GLU9	-0.017	
133	 2HG	2131.366	653.119	-2201.201	 H	9	GLU9	-0.043	
134	 3HG	2132.185	651.683	-2201.795	 H	9	GLU9	-0.043	
135	   N	2130.435	649.740	-2203.940	N.am	10	HIS10	-0.416	
136	  CA	2131.322	649.228	-2204.980	C.3	10	HIS10	-0.058	
137	   C	2130.955	649.792	-2206.332	C.2	10	HIS10	0.597	
138	   O	2131.808	650.256	-2207.104	O.2	10	HIS10	-0.568	
139	  CB	2131.158	647.699	-2204.975	C.3	10	HIS10	-0.007	
140	  CG	2132.443	646.988	-2204.667	C.2	10	HIS10	0.187	
141	 CD2	2132.824	646.654	-2203.374	C.2	10	HIS10	-0.221	
142	 ND1	2133.395	646.581	-2205.599	N.2	10	HIS10	-0.543	
143	 CE1	2134.301	646.023	-2204.776	C.2	10	HIS10	0.163	
144	 NE2	2134.039	646.021	-2203.441	N.pl3	10	HIS10	-0.280	
145	   H	2129.904	649.105	-2203.361	 H	10	HIS10	0.272	
146	  HA	2132.342	649.585	-2204.756	 H	10	HIS10	0.136	
147	 2HB	2130.792	647.332	-2205.954	 H	10	HIS10	0.037	
148	 3HB	2130.402	647.363	-2204.234	 H	10	HIS10	0.037	
149	 2HD	2132.239	646.869	-2202.485	 H	10	HIS10	0.186	
150	 1HE	2135.192	645.602	-2205.223	 H	10	HIS10	0.144	
151	 2HE	2134.606	645.644	-2202.668	 H	10	HIS10	0.334	
152	   N	2129.718	649.792	-2206.695	N.am	11	VAL11	-0.416	
153	  CA	2129.362	650.337	-2208.002	C.3	11	VAL11	-0.087	
154	   C	2129.828	651.767	-2208.135	C.2	11	VAL11	0.597	
155	   O	2130.429	652.172	-2209.138	O.2	11	VAL11	-0.568	
156	  CB	2127.801	650.231	-2208.221	C.3	11	VAL11	0.299	
157	 CG1	2127.233	650.935	-2209.484	C.3	11	VAL11	-0.319	
158	 CG2	2127.276	648.777	-2208.293	C.3	11	VAL11	-0.319	
159	   H	2129.004	649.419	-2206.084	 H	11	VAL11	0.272	
160	  HA	2129.882	649.754	-2208.784	 H	11	VAL11	0.097	
161	  HB	2127.314	650.712	-2207.346	 H	11	VAL11	-0.030	
162	1HG1	2127.671	650.542	-2210.421	 H	11	VAL11	0.079	
163	2HG1	2126.134	650.828	-2209.566	 H	11	VAL11	0.079	
164	3HG1	2127.411	652.027	-2209.475	 H	11	VAL11	0.079	
165	1HG2	2127.565	648.190	-2207.402	 H	11	VAL11	0.079	
166	2HG2	2126.170	648.741	-2208.335	 H	11	VAL11	0.079	
167	3HG2	2127.657	648.236	-2209.179	 H	11	VAL11	0.079	
168	   N	2129.591	652.594	-2207.173	N.am	12	GLN12	-0.416	
169	  CA	2130.041	653.976	-2207.301	C.3	12	GLN12	-0.003	
170	   C	2131.530	654.043	-2207.539	C.2	12	GLN12	0.597	
171	   O	2132.018	654.750	-2208.418	O.2	12	GLN12	-0.568	
172	  CB	2129.650	654.745	-2206.019	C.3	12	GLN12	-0.004	
173	  CG	2130.011	656.266	-2205.988	C.3	12	GLN12	-0.064	
174	  CD	2129.710	657.081	-2204.724	C.2	12	GLN12	0.695	
175	 NE2	2129.143	656.505	-2203.695	N.pl3	12	GLN12	-0.941	
176	 OE1	2130.012	658.261	-2204.647	O.2	12	GLN12	-0.609	
177	   H	2129.103	652.288	-2206.344	 H	12	GLN12	0.272	
178	  HA	2129.541	654.432	-2208.176	 H	12	GLN12	0.085	
179	 2HB	2130.126	654.245	-2205.149	 H	12	GLN12	0.017	
180	 3HB	2128.560	654.638	-2205.855	 H	12	GLN12	0.017	
181	 2HG	2129.534	656.787	-2206.839	 H	12	GLN12	0.035	
182	 3HG	2131.095	656.408	-2206.154	 H	12	GLN12	0.035	
183	1HE2	2129.036	657.100	-2202.871	 H	12	GLN12	0.425	
184	2HE2	2128.979	655.502	-2203.797	 H	12	GLN12	0.425	
185	   N	2132.315	653.336	-2206.798	N.am	13	ASN13	-0.416	
186	  CA	2133.755	653.400	-2207.029	C.3	13	ASN13	0.014	
187	   C	2134.091	653.028	-2208.454	C.2	13	ASN13	0.597	
188	   O	2134.861	653.699	-2209.139	O.2	13	ASN13	-0.568	
189	  CB	2134.483	652.458	-2206.027	C.3	13	ASN13	-0.204	
190	  CG	2134.236	652.708	-2204.536	C.2	13	ASN13	0.713	
191	 ND2	2134.864	653.690	-2203.948	N.pl3	13	ASN13	-0.919	
192	 OD1	2133.455	652.031	-2203.883	O.2	13	ASN13	-0.593	
193	   H	2131.938	652.746	-2206.069	 H	13	ASN13	0.272	
194	  HA	2134.088	654.443	-2206.876	 H	13	ASN13	0.105	
195	 2HB	2135.575	652.477	-2206.205	 H	13	ASN13	0.080	
196	 3HB	2134.192	651.409	-2206.228	 H	13	ASN13	0.080	
197	1HD2	2134.516	653.865	-2203.002	 H	13	ASN13	0.420	
198	2HD2	2135.438	654.291	-2204.539	 H	13	ASN13	0.420	
199	   N	2133.554	651.973	-2208.968	N.am	14	VAL14	-0.416	
200	  CA	2133.879	651.613	-2210.345	C.3	14	VAL14	-0.087	
201	   C	2133.550	652.743	-2211.292	C.2	14	VAL14	0.597	
202	   O	2134.344	653.123	-2212.161	O.2	14	VAL14	-0.568	
203	  CB	2133.105	650.296	-2210.751	C.3	14	VAL14	0.299	
204	 CG1	2133.195	649.877	-2212.245	C.3	14	VAL14	-0.319	
205	 CG2	2133.536	649.044	-2209.950	C.3	14	VAL14	-0.319	
206	   H	2132.919	651.405	-2208.426	 H	14	VAL14	0.272	
207	  HA	2134.967	651.435	-2210.420	 H	14	VAL14	0.097	
208	  HB	2132.029	650.469	-2210.536	 H	14	VAL14	-0.030	
209	1HG1	2134.236	649.699	-2212.573	 H	14	VAL14	0.079	
210	2HG1	2132.621	648.954	-2212.457	 H	14	VAL14	0.079	
211	3HG1	2132.766	650.639	-2212.924	 H	14	VAL14	0.079	
212	1HG2	2133.449	649.203	-2208.860	 H	14	VAL14	0.079	
213	2HG2	2132.900	648.168	-2210.182	 H	14	VAL14	0.079	
214	3HG2	2134.584	648.753	-2210.156	 H	14	VAL14	0.079	
215	   N	2132.406	653.330	-2211.191	N.am	15	MET15	-0.416	
216	  CA	2132.086	654.422	-2212.105	C.3	15	MET15	-0.024	
217	   C	2133.117	655.521	-2212.018	C.2	15	MET15	0.597	
218	   O	2133.620	656.031	-2213.031	O.2	15	MET15	-0.568	
219	  CB	2130.665	654.969	-2211.797	C.3	15	MET15	0.034	
220	  CG	2129.503	653.971	-2211.988	C.3	15	MET15	0.002	
221	  SD	2127.929	654.838	-2211.875	S.3	15	MET15	-0.274	
222	  CE	2126.847	653.410	-2211.738	C.3	15	MET15	-0.054	
223	   H	2131.740	653.038	-2210.489	 H	15	MET15	0.272	
224	  HA	2132.112	654.034	-2213.141	 H	15	MET15	0.088	
225	 2HB	2130.464	655.847	-2212.440	 H	15	MET15	0.024	
226	 3HB	2130.630	655.362	-2210.761	 H	15	MET15	0.024	
227	 2HG	2129.545	653.186	-2211.210	 H	15	MET15	0.044	
228	 3HG	2129.565	653.455	-2212.964	 H	15	MET15	0.044	
229	 1HE	2126.991	652.721	-2212.590	 H	15	MET15	0.068	
230	 2HE	2127.056	652.857	-2210.804	 H	15	MET15	0.068	
231	 3HE	2125.790	653.726	-2211.721	 H	15	MET15	0.068	
232	   N	2133.486	655.943	-2210.856	N.am	16	ARG16	-0.348	
233	  CA	2134.483	657.007	-2210.773	C.3	16	ARG16	-0.264	
234	   C	2135.753	656.612	-2211.489	C.2	16	ARG16	0.734	
235	   O	2135.867	655.535	-2212.069	O.2	16	ARG16	-0.589	
236	  CB	2134.751	657.326	-2209.275	C.3	16	ARG16	-0.001	
237	  CG	2135.578	658.615	-2209.003	C.3	16	ARG16	0.039	
238	  CD	2135.827	658.835	-2207.502	C.3	16	ARG16	0.049	
239	  NE	2136.604	660.094	-2207.302	N.pl3	16	ARG16	-0.530	
240	  CZ	2136.995	660.577	-2206.127	C.cat	16	ARG16	0.808	
241	 NH1	2136.747	659.994	-2204.988	N.pl3	16	ARG16	-0.863	
242	 NH2	2137.659	661.689	-2206.109	N.pl3	16	ARG16	-0.863	
243	   H	2133.091	655.544	-2210.017	 H	16	ARG16	0.275	
244	  HA	2134.074	657.899	-2211.284	 H	16	ARG16	0.156	
245	 2HB	2135.248	656.450	-2208.808	 H	16	ARG16	0.033	
246	 3HB	2133.783	657.407	-2208.742	 H	16	ARG16	0.033	
247	 2HG	2135.048	659.485	-2209.441	 H	16	ARG16	0.029	
248	 3HG	2136.551	658.560	-2209.532	 H	16	ARG16	0.029	
249	 2HD	2136.375	657.960	-2207.088	 H	16	ARG16	0.069	
250	 3HD	2134.854	658.879	-2206.967	 H	16	ARG16	0.069	
251	  HE	2136.883	660.674	-2208.100	 H	16	ARG16	0.346	
252	1HH1	2136.220	659.121	-2205.072	 H	16	ARG16	0.448	
253	2HH1	2137.081	660.430	-2204.127	 H	16	ARG16	0.448	
254	1HH2	2137.845	662.132	-2207.011	 H	16	ARG16	0.448	
255	2HH2	2137.950	662.045	-2205.197	 H	16	ARG16	0.448	
@<TRIPOS>BOND
1 1 2 1
2 1 10 1
3 2 3 1
4 2 5 1
5 2 11 1
6 3 4 2
7 3 16 1
8 5 6 1
9 6 7 1
10 7 8 2
11 7 9 1
12 5 12 1
13 5 13 1
14 6 14 1
15 6 15 1
16 16 17 1
17 16 24 1
18 17 18 1
19 17 20 1
20 17 25 1
21 18 19 2
22 18 30 1
23 20 21 1
24 21 22 1
25 21 23 2
26 20 26 1
27 20 27 1
28 22 28 1
29 22 29 1
30 30 31 1
31 30 36 1
32 31 32 1
33 31 34 1
34 31 37 1
35 32 33 2
36 32 44 1
37 34 35 1
38 35 36 1
39 34 38 1
40 34 39 1
41 35 40 1
42 35 41 1
43 36 42 1
44 36 43 1
45 44 45 1
46 44 53 1
47 45 46 1
48 45 48 1
49 45 54 1
50 46 47 2
51 46 59 1
52 48 49 1
53 49 50 1
54 50 51 2
55 50 52 1
56 48 55 1
57 48 56 1
58 49 57 1
59 49 58 1
60 59 60 1
61 59 65 1
62 60 61 1
63 60 63 1
64 60 66 1
65 61 62 2
66 61 70 1
67 63 64 1
68 63 67 1
69 63 68 1
70 64 69 1
71 70 71 1
72 70 78 1
73 71 72 1
74 71 74 1
75 71 79 1
76 72 73 2
77 72 89 1
78 74 75 1
79 74 76 1
80 75 77 1
81 74 80 1
82 75 81 1
83 75 82 1
84 76 83 1
85 76 84 1
86 76 85 1
87 77 86 1
88 77 87 1
89 77 88 1
90 89 90 1
91 89 97 1
92 90 91 1
93 90 93 1
94 90 98 1
95 91 92 2
96 91 108 1
97 93 94 1
98 94 95 1
99 94 96 1
100 93 99 1
101 93 100 1
102 94 101 1
103 95 102 1
104 95 103 1
105 95 104 1
106 96 105 1
107 96 106 1
108 96 107 1
109 108 109 1
110 108 116 1
111 109 110 1
112 109 112 1
113 109 117 1
114 110 111 2
115 110 120 1
116 112 113 1
117 113 114 2
118 113 115 1
119 112 118 1
120 112 119 1
121 120 121 1
122 120 129 1
123 121 122 1
124 121 124 1
125 121 130 1
126 122 123 2
127 122 135 1
128 124 125 1
129 125 126 1
130 126 127 2
131 126 128 1
132 124 131 1
133 124 132 1
134 125 133 1
135 125 134 1
136 135 136 1
137 135 145 1
138 136 137 1
139 136 139 1
140 136 146 1
141 137 138 2
142 137 152 1
143 139 140 1
144 140 141 2
145 141 144 1
146 140 142 1
147 142 143 2
148 143 144 1
149 139 147 1
150 139 148 1
151 141 149 1
152 143 150 1
153 144 151 1
154 152 153 1
155 152 159 1
156 153 154 1
157 153 156 1
158 153 160 1
159 154 155 2
160 154 168 1
161 156 157 1
162 156 158 1
163 156 161 1
164 157 162 1
165 157 163 1
166 157 164 1
167 158 165 1
168 158 166 1
169 158 167 1
170 168 169 1
171 168 177 1
172 169 170 1
173 169 172 1
174 169 178 1
175 170 171 2
176 170 185 1
177 172 173 1
178 173 174 1
179 174 175 1
180 174 176 2
181 172 179 1
182 172 180 1
183 173 181 1
184 173 182 1
185 175 183 1
186 175 184 1
187 185 186 1
188 185 193 1
189 186 187 1
190 186 189 1
191 186 194 1
192 187 188 2
193 187 199 1
194 189 190 1
195 190 191 1
196 190 192 2
197 189 195 1
198 189 196 1
199 191 197 1
200 191 198 1
201 199 200 1
202 199 206 1
203 200 201 1
204 200 203 1
205 200 207 1
206 201 202 2
207 201 215 1
208 203 204 1
209 203 205 1
210 203 208 1
211 204 209 1
212 204 210 1
213 204 211 1
214 205 212 1
215 205 213 1
216 205 214 1
217 215 216 1
218 215 223 1
219 216 217 1
220 216 219 1
221 216 224 1
222 217 218 2
223 217 232 1
224 219 220 1
225 220 221 1
226 221 222 1
227 219 225 1
228 219 226 1
229 220 227 1
230 220 228 1
231 222 229 1
232 222 230 1
233 222 231 1
234 232 233 1
235 232 243 1
236 233 234 1
237 233 236 1
238 233 244 1
239 234 235 2
240 236 237 1
241 237 238 1
242 238 239 1
243 239 240 1
244 240 241 2
245 240 242 1
246 236 245 1
247 236 246 1
248 237 247 1
249 237 248 1
250 238 249 1
251 238 250 1
252 239 251 1
253 241 252 1
254 241 253 1
255 242 254 1
256 242 255 1
@<TRIPOS>SUBSTRUCTURE
1	GLU1	1	RESIDUE	1 ****	GLU
2	ASN2	16	RESIDUE	1 ****	ASN
3	PRO3	30	RESIDUE	1 ****	PRO
4	GLU4	44	RESIDUE	1 ****	GLU
5	SER5	59	RESIDUE	1 ****	SER
6	ILE6	70	RESIDUE	1 ****	ILE
7	LEU7	89	RESIDUE	1 ****	LEU
8	ASP8	108	RESIDUE	1 ****	ASP
9	GLU9	120	RESIDUE	1 ****	GLU
10	HIS10	135	RESIDUE	1 ****	HIS
11	VAL11	152	RESIDUE	1 ****	VAL
12	GLN12	168	RESIDUE	1 ****	GLN
13	ASN13	185	RESIDUE	1 ****	ASN
14	VAL14	199	RESIDUE	1 ****	VAL
15	MET15	215	RESIDUE	1 ****	MET
16	ARG16	232	RESIDUE	1 ****	ARG
