@<TRIPOS>MOLECULE
11-6
268 269 16              
SMALL
USER_CHARGES
@<TRIPOS>ATOM
1	   N	1722.318	515.240	-1759.770	N.3	1	GLU1	-0.516	
2	  CA	1722.876	516.589	-1759.770	C.3	1	GLU1	0.040	
3	   C	1724.385	516.549	-1759.770	C.2	1	GLU1	0.537	
4	   O	1725.061	517.248	-1760.538	O.2	1	GLU1	-0.582	
5	  CB	1722.354	517.374	-1758.533	C.3	1	GLU1	0.056	
6	  CG	1722.828	518.859	-1758.422	C.3	1	GLU1	0.014	
7	  CD	1722.405	519.663	-1757.207	C.2	1	GLU1	0.805	
8	 OE1	1721.677	519.161	-1756.329	O.co2	1	GLU1	-0.819	
9	 OE2	1722.834	520.833	-1757.135	O.co2	1	GLU1	-0.819	
10	   H	1722.944	514.361	-1759.770	 H	1	GLU1	0.294	
11	  HA	1722.551	517.107	-1760.690	 H	1	GLU1	0.111	
12	 2HB	1722.642	516.843	-1757.603	 H	1	GLU1	-0.017	
13	 3HB	1721.246	517.364	-1758.520	 H	1	GLU1	-0.017	
14	 2HG	1722.519	519.444	-1759.303	 H	1	GLU1	-0.043	
15	 3HG	1723.928	518.926	-1758.393	 H	1	GLU1	-0.043	
16	   N	1724.990	515.763	-1758.944	N.am	2	ASN2	-0.416	
17	  CA	1726.449	515.724	-1758.944	C.3	2	ASN2	0.014	
18	   C	1726.981	515.369	-1760.313	C.2	2	ASN2	0.597	
19	   O	1727.896	515.999	-1760.842	O.2	2	ASN2	-0.568	
20	  CB	1726.941	514.701	-1757.880	C.3	2	ASN2	-0.204	
21	  CG	1726.478	514.925	-1756.437	C.2	2	ASN2	0.713	
22	 ND2	1727.073	515.840	-1755.719	N.pl3	2	ASN2	-0.919	
23	 OD1	1725.557	514.291	-1755.943	O.2	2	ASN2	-0.593	
24	   H	1724.462	515.183	-1758.308	 H	2	ASN2	0.272	
25	  HA	1726.827	516.734	-1758.699	 H	2	ASN2	0.105	
26	 2HB	1728.046	514.642	-1757.884	 H	2	ASN2	0.080	
27	 3HB	1726.612	513.683	-1758.166	 H	2	ASN2	0.080	
28	1HD2	1726.592	516.013	-1754.832	 H	2	ASN2	0.420	
29	2HD2	1727.774	516.412	-1756.188	 H	2	ASN2	0.420	
30	   N	1726.459	514.374	-1760.947	N.am	3	PRO3	-0.255	
31	  CA	1726.911	513.964	-1762.269	C.3	3	PRO3	-0.027	
32	   C	1726.513	514.988	-1763.346	C.2	3	PRO3	0.590	
33	   O	1727.336	515.371	-1764.177	O.2	3	PRO3	-0.575	
34	  CB	1726.207	512.610	-1762.438	C.3	3	PRO3	-0.007	
35	  CG	1724.923	512.762	-1761.608	C.3	3	PRO3	0.019	
36	  CD	1725.381	513.581	-1760.398	C.3	3	PRO3	0.019	
37	  HA	1727.997	513.845	-1762.282	 H	3	PRO3	0.064	
38	 2HB	1726.829	511.828	-1761.997	 H	3	PRO3	0.025	
39	 3HB	1726.008	512.361	-1763.483	 H	3	PRO3	0.025	
40	 2HG	1724.496	511.800	-1761.317	 H	3	PRO3	0.021	
41	 3HG	1724.186	513.333	-1762.175	 H	3	PRO3	0.021	
42	 2HD	1725.770	512.931	-1759.610	 H	3	PRO3	0.039	
43	 3HD	1724.585	514.217	-1760.005	 H	3	PRO3	0.039	
44	   N	1725.308	515.448	-1763.378	N.am	4	GLU4	-0.516	
45	  CA	1724.948	516.419	-1764.407	C.3	4	GLU4	0.040	
46	   C	1725.847	517.630	-1764.346	C.2	4	GLU4	0.537	
47	   O	1726.374	518.109	-1765.361	O.2	4	GLU4	-0.582	
48	  CB	1723.460	516.838	-1764.237	C.3	4	GLU4	0.056	
49	  CG	1722.912	517.841	-1765.303	C.3	4	GLU4	0.014	
50	  CD	1721.485	518.338	-1765.159	C.2	4	GLU4	0.805	
51	 OE1	1720.759	517.940	-1764.228	O.co2	4	GLU4	-0.819	
52	 OE2	1721.096	519.167	-1766.007	O.co2	4	GLU4	-0.819	
53	   H	1724.624	515.141	-1762.701	 H	4	GLU4	0.294	
54	  HA	1725.079	515.948	-1765.399	 H	4	GLU4	0.111	
55	 2HB	1723.307	517.278	-1763.230	 H	4	GLU4	-0.017	
56	 3HB	1722.812	515.940	-1764.244	 H	4	GLU4	-0.017	
57	 2HG	1722.993	517.427	-1766.321	 H	4	GLU4	-0.043	
58	 3HG	1723.500	518.774	-1765.314	 H	4	GLU4	-0.043	
59	   N	1726.075	518.183	-1763.203	N.am	5	SER5	-0.416	
60	  CA	1726.944	519.354	-1763.145	C.3	5	SER5	-0.025	
61	   C	1728.303	519.048	-1763.730	C.2	5	SER5	0.597	
62	   O	1728.850	519.802	-1764.535	O.2	5	SER5	-0.568	
63	  CB	1727.056	519.886	-1761.694	C.3	5	SER5	0.212	
64	  OG	1727.787	519.007	-1760.833	O.3	5	SER5	-0.655	
65	   H	1725.658	517.811	-1762.362	 H	5	SER5	0.272	
66	  HA	1726.495	520.144	-1763.774	 H	5	SER5	0.084	
67	 2HB	1726.056	520.080	-1761.261	 H	5	SER5	0.035	
68	 3HB	1727.561	520.872	-1761.697	 H	5	SER5	0.035	
69	  HG	1727.299	518.182	-1760.783	 H	5	SER5	0.428	
70	   N	1728.908	517.965	-1763.376	N.am	6	ILE6	-0.416	
71	  CA	1730.221	517.671	-1763.942	C.3	6	ILE6	-0.060	
72	   C	1730.164	517.633	-1765.450	C.2	6	ILE6	0.597	
73	   O	1730.999	518.221	-1766.154	O.2	6	ILE6	-0.568	
74	  CB	1730.821	516.334	-1763.342	C.3	6	ILE6	0.130	
75	 CG1	1730.841	516.272	-1761.781	C.3	6	ILE6	-0.043	
76	 CG2	1732.262	516.033	-1763.858	C.3	6	ILE6	-0.320	
77	 CD1	1731.110	514.883	-1761.166	C.3	6	ILE6	-0.066	
78	   H	1728.480	517.331	-1762.717	 H	6	ILE6	0.272	
79	  HA	1730.895	518.505	-1763.675	 H	6	ILE6	0.087	
80	  HB	1730.163	515.509	-1763.686	 H	6	ILE6	0.019	
81	2HG1	1729.858	516.592	-1761.385	 H	6	ILE6	0.024	
82	3HG1	1731.556	517.015	-1761.377	 H	6	ILE6	0.024	
83	1HG2	1732.321	515.939	-1764.956	 H	6	ILE6	0.088	
84	2HG2	1732.984	516.815	-1763.556	 H	6	ILE6	0.088	
85	3HG2	1732.652	515.071	-1763.479	 H	6	ILE6	0.088	
86	1HD1	1730.382	514.129	-1761.521	 H	6	ILE6	0.019	
87	2HD1	1732.121	514.505	-1761.402	 H	6	ILE6	0.019	
88	3HD1	1731.034	514.913	-1760.064	 H	6	ILE6	0.019	
89	   N	1729.218	516.970	-1766.024	N.am	7	LEU7	-0.416	
90	  CA	1729.163	516.934	-1767.482	C.3	7	LEU7	-0.052	
91	   C	1729.091	518.329	-1768.055	C.2	7	LEU7	0.597	
92	   O	1729.811	518.692	-1768.997	O.2	7	LEU7	-0.568	
93	  CB	1727.960	516.073	-1767.963	C.3	7	LEU7	-0.110	
94	  CG	1727.888	514.594	-1767.496	C.3	7	LEU7	0.353	
95	 CD1	1726.698	513.888	-1768.162	C.3	7	LEU7	-0.412	
96	 CD2	1729.182	513.815	-1767.788	C.3	7	LEU7	-0.412	
97	   H	1728.526	516.482	-1765.473	 H	7	LEU7	0.272	
98	  HA	1730.105	516.494	-1767.857	 H	7	LEU7	0.092	
99	 2HB	1727.937	516.089	-1769.070	 H	7	LEU7	0.046	
100	 3HB	1727.020	516.576	-1767.659	 H	7	LEU7	0.046	
101	  HG	1727.718	514.586	-1766.399	 H	7	LEU7	-0.036	
102	1HD1	1725.741	514.397	-1767.939	 H	7	LEU7	0.100	
103	2HD1	1726.797	513.847	-1769.263	 H	7	LEU7	0.100	
104	3HD1	1726.591	512.847	-1767.806	 H	7	LEU7	0.100	
105	1HD2	1729.457	513.845	-1768.858	 H	7	LEU7	0.100	
106	2HD2	1730.035	514.227	-1767.217	 H	7	LEU7	0.100	
107	3HD2	1729.100	512.752	-1767.492	 H	7	LEU7	0.100	
108	   N	1728.253	519.169	-1767.549	N.am	8	ASP8	-0.516	
109	  CA	1728.182	520.519	-1768.102	C.3	8	ASP8	0.038	
110	   C	1729.529	521.199	-1768.044	C.2	8	ASP8	0.537	
111	   O	1730.001	521.804	-1769.019	O.2	8	ASP8	-0.582	
112	  CB	1727.104	521.357	-1767.360	C.3	8	ASP8	-0.030	
113	  CG	1726.885	522.778	-1767.900	C.2	8	ASP8	0.799	
114	 OD1	1726.949	522.977	-1769.131	O.co2	8	ASP8	-0.801	
115	 OD2	1726.693	523.704	-1767.084	O.co2	8	ASP8	-0.801	
116	   H	1727.655	518.898	-1766.781	 H	8	ASP8	0.294	
117	  HA	1727.900	520.441	-1769.169	 H	8	ASP8	0.088	
118	 2HB	1727.361	521.441	-1766.288	 H	8	ASP8	-0.012	
119	 3HB	1726.125	520.852	-1767.393	 H	8	ASP8	-0.012	
120	   N	1730.209	521.149	-1766.949	N.am	9	GLU9	-0.516	
121	  CA	1731.511	521.807	-1766.894	C.3	9	GLU9	0.040	
122	   C	1732.429	521.280	-1767.970	C.2	9	GLU9	0.537	
123	   O	1733.093	522.035	-1768.695	O.2	9	GLU9	-0.582	
124	  CB	1732.145	521.599	-1765.488	C.3	9	GLU9	0.056	
125	  CG	1733.527	522.292	-1765.259	C.3	9	GLU9	0.014	
126	  CD	1734.229	522.079	-1763.931	C.2	9	GLU9	0.805	
127	 OE1	1733.708	521.388	-1763.035	O.co2	9	GLU9	-0.819	
128	 OE2	1735.348	522.617	-1763.799	O.co2	9	GLU9	-0.819	
129	   H	1729.846	520.662	-1766.142	 H	9	GLU9	0.294	
130	  HA	1731.369	522.889	-1767.069	 H	9	GLU9	0.111	
131	 2HB	1732.259	520.515	-1765.285	 H	9	GLU9	-0.017	
132	 3HB	1731.448	521.952	-1764.704	 H	9	GLU9	-0.017	
133	 2HG	1733.455	523.383	-1765.399	 H	9	GLU9	-0.043	
134	 3HG	1734.274	521.948	-1765.993	 H	9	GLU9	-0.043	
135	   N	1732.527	520.005	-1768.140	N.am	10	HIS10	-0.416	
136	  CA	1733.415	519.494	-1769.180	C.3	10	HIS10	-0.058	
137	   C	1733.047	520.059	-1770.531	C.2	10	HIS10	0.597	
138	   O	1733.899	520.524	-1771.303	O.2	10	HIS10	-0.568	
139	  CB	1733.251	517.965	-1769.176	C.3	10	HIS10	-0.007	
140	  CG	1734.537	517.256	-1768.868	C.2	10	HIS10	0.187	
141	 CD2	1734.919	516.920	-1767.576	C.2	10	HIS10	-0.221	
142	 ND1	1735.490	516.850	-1769.801	N.2	10	HIS10	-0.543	
143	 CE1	1736.396	516.292	-1768.978	C.2	10	HIS10	0.163	
144	 NE2	1736.134	516.289	-1767.643	N.pl3	10	HIS10	-0.280	
145	   H	1731.996	519.369	-1767.561	 H	10	HIS10	0.272	
146	  HA	1734.433	519.852	-1768.955	 H	10	HIS10	0.136	
147	 2HB	1732.886	517.598	-1770.156	 H	10	HIS10	0.037	
148	 3HB	1732.496	517.627	-1768.436	 H	10	HIS10	0.037	
149	 2HD	1734.333	517.135	-1766.686	 H	10	HIS10	0.186	
150	 1HE	1737.288	515.872	-1769.425	 H	10	HIS10	0.144	
151	 2HE	1736.701	515.912	-1766.870	 H	10	HIS10	0.334	
152	   N	1731.809	520.057	-1770.894	N.am	11	ILE11	-0.416	
153	  CA	1731.454	520.604	-1772.201	C.3	11	ILE11	-0.060	
154	   C	1731.917	522.034	-1772.333	C.2	11	ILE11	0.597	
155	   O	1732.519	522.439	-1773.339	O.2	11	ILE11	-0.568	
156	  CB	1729.904	520.458	-1772.484	C.3	11	ILE11	0.130	
157	 CG1	1729.339	519.014	-1772.291	C.3	11	ILE11	-0.043	
158	 CG2	1729.500	520.951	-1773.908	C.3	11	ILE11	-0.320	
159	 CD1	1727.801	518.895	-1772.242	C.3	11	ILE11	-0.066	
160	   H	1731.097	519.684	-1770.283	 H	11	ILE11	0.272	
161	  HA	1732.003	520.024	-1772.965	 H	11	ILE11	0.087	
162	  HB	1729.384	521.106	-1771.746	 H	11	ILE11	0.019	
163	2HG1	1729.705	518.598	-1771.334	 H	11	ILE11	0.024	
164	3HG1	1729.749	518.335	-1773.063	 H	11	ILE11	0.024	
165	1HG2	1729.756	522.009	-1774.092	 H	11	ILE11	0.088	
166	2HG2	1729.980	520.353	-1774.707	 H	11	ILE11	0.088	
167	3HG2	1728.409	520.899	-1774.079	 H	11	ILE11	0.088	
168	1HD1	1727.365	519.532	-1771.449	 H	11	ILE11	0.019	
169	2HD1	1727.323	519.180	-1773.196	 H	11	ILE11	0.019	
170	3HD1	1727.488	517.855	-1772.030	 H	11	ILE11	0.019	
171	   N	1731.680	522.860	-1771.371	N.am	12	GLN12	-0.416	
172	  CA	1732.128	524.243	-1771.499	C.3	12	GLN12	-0.003	
173	   C	1733.618	524.311	-1771.737	C.2	12	GLN12	0.597	
174	   O	1734.105	525.019	-1772.615	O.2	12	GLN12	-0.568	
175	  CB	1731.737	525.011	-1770.216	C.3	12	GLN12	-0.004	
176	  CG	1732.096	526.533	-1770.185	C.3	12	GLN12	-0.064	
177	  CD	1731.794	527.346	-1768.921	C.2	12	GLN12	0.695	
178	 NE2	1731.227	526.770	-1767.892	N.pl3	12	GLN12	-0.941	
179	 OE1	1732.095	528.527	-1768.844	O.2	12	GLN12	-0.609	
180	   H	1731.192	522.554	-1770.542	 H	12	GLN12	0.272	
181	  HA	1731.628	524.699	-1772.374	 H	12	GLN12	0.085	
182	 2HB	1732.213	524.511	-1769.347	 H	12	GLN12	0.017	
183	 3HB	1730.647	524.903	-1770.053	 H	12	GLN12	0.017	
184	 2HG	1731.619	527.053	-1771.036	 H	12	GLN12	0.035	
185	 3HG	1733.180	526.675	-1770.351	 H	12	GLN12	0.035	
186	1HE2	1731.120	527.365	-1767.068	 H	12	GLN12	0.425	
187	2HE2	1731.064	525.766	-1767.995	 H	12	GLN12	0.425	
188	   N	1734.403	523.605	-1770.996	N.am	13	ARG13	-0.348	
189	  CA	1735.843	523.671	-1771.227	C.3	13	ARG13	-0.264	
190	   C	1736.179	523.300	-1772.652	C.2	13	ARG13	0.734	
191	   O	1736.947	523.971	-1773.336	O.2	13	ARG13	-0.589	
192	  CB	1736.557	522.733	-1770.213	C.3	13	ARG13	-0.001	
193	  CG	1738.102	522.886	-1770.132	C.3	13	ARG13	0.039	
194	  CD	1738.730	521.899	-1769.134	C.3	13	ARG13	0.049	
195	  NE	1740.207	522.107	-1769.084	N.pl3	13	ARG13	-0.530	
196	  CZ	1741.055	521.416	-1768.329	C.cat	13	ARG13	0.808	
197	 NH1	1740.691	520.451	-1767.532	N.pl3	13	ARG13	-0.863	
198	 NH2	1742.315	521.716	-1768.386	N.pl3	13	ARG13	-0.863	
199	   H	1734.027	523.015	-1770.267	 H	13	ARG13	0.275	
200	  HA	1736.167	524.717	-1771.068	 H	13	ARG13	0.156	
201	 2HB	1736.291	521.682	-1770.452	 H	13	ARG13	0.033	
202	 3HB	1736.132	522.899	-1769.202	 H	13	ARG13	0.033	
203	 2HG	1738.349	523.931	-1769.853	 H	13	ARG13	0.029	
204	 3HG	1738.552	522.731	-1771.134	 H	13	ARG13	0.029	
205	 2HD	1738.486	520.859	-1769.443	 H	13	ARG13	0.069	
206	 3HD	1738.273	522.045	-1768.132	 H	13	ARG13	0.069	
207	  HE	1740.657	522.829	-1769.655	 H	13	ARG13	0.346	
208	1HH1	1739.685	520.265	-1767.534	 H	13	ARG13	0.448	
209	2HH1	1741.404	519.969	-1766.983	 H	13	ARG13	0.448	
210	1HH2	1742.582	522.473	-1769.017	 H	13	ARG13	0.448	
211	2HH2	1742.950	521.175	-1767.797	 H	13	ARG13	0.448	
212	   N	1735.643	522.245	-1773.166	N.am	14	VAL14	-0.416	
213	  CA	1735.968	521.885	-1774.543	C.3	14	VAL14	-0.087	
214	   C	1735.637	523.015	-1775.489	C.2	14	VAL14	0.597	
215	   O	1736.430	523.397	-1776.359	O.2	14	VAL14	-0.568	
216	  CB	1735.196	520.568	-1774.950	C.3	14	VAL14	0.299	
217	 CG1	1735.285	520.150	-1776.443	C.3	14	VAL14	-0.319	
218	 CG2	1735.629	519.316	-1774.150	C.3	14	VAL14	-0.319	
219	   H	1735.009	521.676	-1772.624	 H	14	VAL14	0.272	
220	  HA	1737.057	521.709	-1774.618	 H	14	VAL14	0.097	
221	  HB	1734.120	520.739	-1774.734	 H	14	VAL14	-0.030	
222	1HG1	1736.327	519.973	-1776.773	 H	14	VAL14	0.079	
223	2HG1	1734.713	519.226	-1776.656	 H	14	VAL14	0.079	
224	3HG1	1734.856	520.912	-1777.122	 H	14	VAL14	0.079	
225	1HG2	1735.542	519.475	-1773.059	 H	14	VAL14	0.079	
226	2HG2	1734.994	518.439	-1774.382	 H	14	VAL14	0.079	
227	3HG2	1736.677	519.027	-1774.355	 H	14	VAL14	0.079	
228	   N	1734.492	523.601	-1775.387	N.am	15	MET15	-0.416	
229	  CA	1734.171	524.693	-1776.300	C.3	15	MET15	-0.024	
230	   C	1735.201	525.793	-1776.213	C.2	15	MET15	0.597	
231	   O	1735.703	526.304	-1777.226	O.2	15	MET15	-0.568	
232	  CB	1732.750	525.238	-1775.991	C.3	15	MET15	0.034	
233	  CG	1731.588	524.239	-1776.182	C.3	15	MET15	0.002	
234	  SD	1730.014	525.104	-1776.068	S.3	15	MET15	-0.274	
235	  CE	1728.933	523.674	-1775.931	C.3	15	MET15	-0.054	
236	   H	1733.828	523.307	-1774.685	 H	15	MET15	0.272	
237	  HA	1734.197	524.306	-1777.336	 H	15	MET15	0.088	
238	 2HB	1732.547	526.116	-1776.633	 H	15	MET15	0.024	
239	 3HB	1732.714	525.630	-1774.955	 H	15	MET15	0.024	
240	 2HG	1731.632	523.453	-1775.405	 H	15	MET15	0.044	
241	 3HG	1731.651	523.724	-1777.159	 H	15	MET15	0.044	
242	 1HE	1729.077	522.986	-1776.783	 H	15	MET15	0.068	
243	 2HE	1729.143	523.121	-1774.998	 H	15	MET15	0.068	
244	 3HE	1727.875	523.989	-1775.914	 H	15	MET15	0.068	
245	   N	1735.569	526.215	-1775.051	N.am	16	ARG16	-0.348	
246	  CA	1736.566	527.279	-1774.968	C.3	16	ARG16	-0.264	
247	   C	1737.836	526.887	-1775.684	C.2	16	ARG16	0.734	
248	   O	1737.950	525.811	-1776.266	O.2	16	ARG16	-0.589	
249	  CB	1736.835	527.598	-1773.470	C.3	16	ARG16	-0.001	
250	  CG	1737.659	528.887	-1773.197	C.3	16	ARG16	0.039	
251	  CD	1737.910	529.107	-1771.696	C.3	16	ARG16	0.049	
252	  NE	1738.685	530.366	-1771.496	N.pl3	16	ARG16	-0.530	
253	  CZ	1739.077	530.849	-1770.320	C.cat	16	ARG16	0.808	
254	 NH1	1738.830	530.265	-1769.182	N.pl3	16	ARG16	-0.863	
255	 NH2	1739.740	531.962	-1770.302	N.pl3	16	ARG16	-0.863	
256	   H	1735.175	525.815	-1774.211	 H	16	ARG16	0.275	
257	  HA	1736.156	528.172	-1775.478	 H	16	ARG16	0.156	
258	 2HB	1737.333	526.722	-1773.003	 H	16	ARG16	0.033	
259	 3HB	1735.866	527.678	-1772.935	 H	16	ARG16	0.033	
260	 2HG	1737.128	529.758	-1773.634	 H	16	ARG16	0.029	
261	 3HG	1738.633	528.835	-1773.727	 H	16	ARG16	0.029	
262	 2HD	1738.459	528.233	-1771.283	 H	16	ARG16	0.069	
263	 3HD	1736.937	529.149	-1771.161	 H	16	ARG16	0.069	
264	  HE	1738.963	530.947	-1772.293	 H	16	ARG16	0.346	
265	1HH1	1738.304	529.391	-1769.266	 H	16	ARG16	0.448	
266	2HH1	1739.164	530.701	-1768.321	 H	16	ARG16	0.448	
267	1HH2	1739.925	532.405	-1771.204	 H	16	ARG16	0.448	
268	2HH2	1740.030	532.318	-1769.390	 H	16	ARG16	0.448	
@<TRIPOS>BOND
1 1 2 1
2 1 10 1
3 2 3 1
4 2 5 1
5 2 11 1
6 3 4 2
7 3 16 1
8 5 6 1
9 6 7 1
10 7 8 2
11 7 9 1
12 5 12 1
13 5 13 1
14 6 14 1
15 6 15 1
16 16 17 1
17 16 24 1
18 17 18 1
19 17 20 1
20 17 25 1
21 18 19 2
22 18 30 1
23 20 21 1
24 21 22 1
25 21 23 2
26 20 26 1
27 20 27 1
28 22 28 1
29 22 29 1
30 30 31 1
31 30 36 1
32 31 32 1
33 31 34 1
34 31 37 1
35 32 33 2
36 32 44 1
37 34 35 1
38 35 36 1
39 34 38 1
40 34 39 1
41 35 40 1
42 35 41 1
43 36 42 1
44 36 43 1
45 44 45 1
46 44 53 1
47 45 46 1
48 45 48 1
49 45 54 1
50 46 47 2
51 46 59 1
52 48 49 1
53 49 50 1
54 50 51 2
55 50 52 1
56 48 55 1
57 48 56 1
58 49 57 1
59 49 58 1
60 59 60 1
61 59 65 1
62 60 61 1
63 60 63 1
64 60 66 1
65 61 62 2
66 61 70 1
67 63 64 1
68 63 67 1
69 63 68 1
70 64 69 1
71 70 71 1
72 70 78 1
73 71 72 1
74 71 74 1
75 71 79 1
76 72 73 2
77 72 89 1
78 74 75 1
79 74 76 1
80 75 77 1
81 74 80 1
82 75 81 1
83 75 82 1
84 76 83 1
85 76 84 1
86 76 85 1
87 77 86 1
88 77 87 1
89 77 88 1
90 89 90 1
91 89 97 1
92 90 91 1
93 90 93 1
94 90 98 1
95 91 92 2
96 91 108 1
97 93 94 1
98 94 95 1
99 94 96 1
100 93 99 1
101 93 100 1
102 94 101 1
103 95 102 1
104 95 103 1
105 95 104 1
106 96 105 1
107 96 106 1
108 96 107 1
109 108 109 1
110 108 116 1
111 109 110 1
112 109 112 1
113 109 117 1
114 110 111 2
115 110 120 1
116 112 113 1
117 113 114 2
118 113 115 1
119 112 118 1
120 112 119 1
121 120 121 1
122 120 129 1
123 121 122 1
124 121 124 1
125 121 130 1
126 122 123 2
127 122 135 1
128 124 125 1
129 125 126 1
130 126 127 2
131 126 128 1
132 124 131 1
133 124 132 1
134 125 133 1
135 125 134 1
136 135 136 1
137 135 145 1
138 136 137 1
139 136 139 1
140 136 146 1
141 137 138 2
142 137 152 1
143 139 140 1
144 140 141 2
145 141 144 1
146 140 142 1
147 142 143 2
148 143 144 1
149 139 147 1
150 139 148 1
151 141 149 1
152 143 150 1
153 144 151 1
154 152 153 1
155 152 160 1
156 153 154 1
157 153 156 1
158 153 161 1
159 154 155 2
160 154 171 1
161 156 157 1
162 156 158 1
163 157 159 1
164 156 162 1
165 157 163 1
166 157 164 1
167 158 165 1
168 158 166 1
169 158 167 1
170 159 168 1
171 159 169 1
172 159 170 1
173 171 172 1
174 171 180 1
175 172 173 1
176 172 175 1
177 172 181 1
178 173 174 2
179 173 188 1
180 175 176 1
181 176 177 1
182 177 178 1
183 177 179 2
184 175 182 1
185 175 183 1
186 176 184 1
187 176 185 1
188 178 186 1
189 178 187 1
190 188 189 1
191 188 199 1
192 189 190 1
193 189 192 1
194 189 200 1
195 190 191 2
196 190 212 1
197 192 193 1
198 193 194 1
199 194 195 1
200 195 196 1
201 196 197 2
202 196 198 1
203 192 201 1
204 192 202 1
205 193 203 1
206 193 204 1
207 194 205 1
208 194 206 1
209 195 207 1
210 197 208 1
211 197 209 1
212 198 210 1
213 198 211 1
214 212 213 1
215 212 219 1
216 213 214 1
217 213 216 1
218 213 220 1
219 214 215 2
220 214 228 1
221 216 217 1
222 216 218 1
223 216 221 1
224 217 222 1
225 217 223 1
226 217 224 1
227 218 225 1
228 218 226 1
229 218 227 1
230 228 229 1
231 228 236 1
232 229 230 1
233 229 232 1
234 229 237 1
235 230 231 2
236 230 245 1
237 232 233 1
238 233 234 1
239 234 235 1
240 232 238 1
241 232 239 1
242 233 240 1
243 233 241 1
244 235 242 1
245 235 243 1
246 235 244 1
247 245 246 1
248 245 256 1
249 246 247 1
250 246 249 1
251 246 257 1
252 247 248 2
253 249 250 1
254 250 251 1
255 251 252 1
256 252 253 1
257 253 254 2
258 253 255 1
259 249 258 1
260 249 259 1
261 250 260 1
262 250 261 1
263 251 262 1
264 251 263 1
265 252 264 1
266 254 265 1
267 254 266 1
268 255 267 1
269 255 268 1
@<TRIPOS>SUBSTRUCTURE
1	GLU1	1	RESIDUE	1 ****	GLU
2	ASN2	16	RESIDUE	1 ****	ASN
3	PRO3	30	RESIDUE	1 ****	PRO
4	GLU4	44	RESIDUE	1 ****	GLU
5	SER5	59	RESIDUE	1 ****	SER
6	ILE6	70	RESIDUE	1 ****	ILE
7	LEU7	89	RESIDUE	1 ****	LEU
8	ASP8	108	RESIDUE	1 ****	ASP
9	GLU9	120	RESIDUE	1 ****	GLU
10	HIS10	135	RESIDUE	1 ****	HIS
11	ILE11	152	RESIDUE	1 ****	ILE
12	GLN12	171	RESIDUE	1 ****	GLN
13	ARG13	188	RESIDUE	1 ****	ARG
14	VAL14	212	RESIDUE	1 ****	VAL
15	MET15	228	RESIDUE	1 ****	MET
16	ARG16	245	RESIDUE	1 ****	ARG
