@<TRIPOS>MOLECULE
16-12
252 253 16              
SMALL
USER_CHARGES
@<TRIPOS>ATOM
1	   N	2585.874	793.405	-2701.816	N.3	1	GLU1	-0.516	
2	  CA	2586.433	794.754	-2701.816	C.3	1	GLU1	0.040	
3	   C	2587.942	794.714	-2701.816	C.2	1	GLU1	0.537	
4	   O	2588.618	795.413	-2702.584	O.2	1	GLU1	-0.582	
5	  CB	2585.910	795.539	-2700.579	C.3	1	GLU1	0.056	
6	  CG	2586.385	797.024	-2700.468	C.3	1	GLU1	0.014	
7	  CD	2585.961	797.828	-2699.253	C.2	1	GLU1	0.805	
8	 OE1	2585.233	797.326	-2698.375	O.co2	1	GLU1	-0.819	
9	 OE2	2586.391	798.998	-2699.181	O.co2	1	GLU1	-0.819	
10	   H	2586.501	792.526	-2701.816	 H	1	GLU1	0.294	
11	  HA	2586.107	795.272	-2702.736	 H	1	GLU1	0.111	
12	 2HB	2586.199	795.008	-2699.649	 H	1	GLU1	-0.017	
13	 3HB	2584.803	795.529	-2700.566	 H	1	GLU1	-0.017	
14	 2HG	2586.075	797.609	-2701.349	 H	1	GLU1	-0.043	
15	 3HG	2587.485	797.091	-2700.439	 H	1	GLU1	-0.043	
16	   N	2588.547	793.928	-2700.990	N.am	2	ASN2	-0.416	
17	  CA	2590.006	793.889	-2700.990	C.3	2	ASN2	0.014	
18	   C	2590.537	793.534	-2702.359	C.2	2	ASN2	0.597	
19	   O	2591.452	794.164	-2702.887	O.2	2	ASN2	-0.568	
20	  CB	2590.498	792.866	-2699.926	C.3	2	ASN2	-0.204	
21	  CG	2590.034	793.090	-2698.483	C.2	2	ASN2	0.713	
22	 ND2	2590.628	794.005	-2697.764	N.pl3	2	ASN2	-0.919	
23	 OD1	2589.113	792.457	-2697.989	O.2	2	ASN2	-0.593	
24	   H	2588.018	793.349	-2700.354	 H	2	ASN2	0.272	
25	  HA	2590.384	794.899	-2700.745	 H	2	ASN2	0.105	
26	 2HB	2591.602	792.807	-2699.929	 H	2	ASN2	0.080	
27	 3HB	2590.168	791.848	-2700.212	 H	2	ASN2	0.080	
28	1HD2	2590.147	794.178	-2696.878	 H	2	ASN2	0.420	
29	2HD2	2591.330	794.576	-2698.233	 H	2	ASN2	0.420	
30	   N	2590.016	792.539	-2702.993	N.am	3	PRO3	-0.255	
31	  CA	2590.468	792.129	-2704.314	C.3	3	PRO3	-0.027	
32	   C	2590.070	793.153	-2705.392	C.2	3	PRO3	0.590	
33	   O	2590.894	793.536	-2706.223	O.2	3	PRO3	-0.575	
34	  CB	2589.764	790.775	-2704.484	C.3	3	PRO3	-0.007	
35	  CG	2588.480	790.927	-2703.654	C.3	3	PRO3	0.019	
36	  CD	2588.938	791.746	-2702.444	C.3	3	PRO3	0.019	
37	  HA	2591.554	792.009	-2704.328	 H	3	PRO3	0.064	
38	 2HB	2590.386	789.994	-2704.043	 H	3	PRO3	0.025	
39	 3HB	2589.566	790.526	-2705.530	 H	3	PRO3	0.025	
40	 2HG	2588.052	789.965	-2703.363	 H	3	PRO3	0.021	
41	 3HG	2587.743	791.498	-2704.222	 H	3	PRO3	0.021	
42	 2HD	2589.326	791.096	-2701.657	 H	3	PRO3	0.039	
43	 3HD	2588.141	792.382	-2702.052	 H	3	PRO3	0.039	
44	   N	2588.865	793.613	-2705.424	N.am	4	GLU4	-0.516	
45	  CA	2588.506	794.584	-2706.454	C.3	4	GLU4	0.040	
46	   C	2589.406	795.795	-2706.393	C.2	4	GLU4	0.537	
47	   O	2589.932	796.274	-2707.407	O.2	4	GLU4	-0.582	
48	  CB	2587.018	795.003	-2706.284	C.3	4	GLU4	0.056	
49	  CG	2586.470	796.007	-2707.350	C.3	4	GLU4	0.014	
50	  CD	2585.044	796.504	-2707.207	C.2	4	GLU4	0.805	
51	 OE1	2584.317	796.106	-2706.277	O.co2	4	GLU4	-0.819	
52	 OE2	2584.655	797.333	-2708.056	O.co2	4	GLU4	-0.819	
53	   H	2588.181	793.307	-2704.748	 H	4	GLU4	0.294	
54	  HA	2588.638	794.114	-2707.445	 H	4	GLU4	0.111	
55	 2HB	2586.865	795.443	-2705.278	 H	4	GLU4	-0.017	
56	 3HB	2586.370	794.106	-2706.291	 H	4	GLU4	-0.017	
57	 2HG	2586.552	795.592	-2708.368	 H	4	GLU4	-0.043	
58	 3HG	2587.059	796.939	-2707.361	 H	4	GLU4	-0.043	
59	   N	2589.633	796.348	-2705.249	N.am	5	SER5	-0.416	
60	  CA	2590.502	797.519	-2705.190	C.3	5	SER5	-0.025	
61	   C	2591.861	797.213	-2705.776	C.2	5	SER5	0.597	
62	   O	2592.409	797.966	-2706.580	O.2	5	SER5	-0.568	
63	  CB	2590.614	798.051	-2703.740	C.3	5	SER5	0.212	
64	  OG	2591.345	797.171	-2702.879	O.3	5	SER5	-0.655	
65	   H	2589.215	795.976	-2704.408	 H	5	SER5	0.272	
66	  HA	2590.053	798.309	-2705.820	 H	5	SER5	0.084	
67	 2HB	2589.614	798.245	-2703.307	 H	5	SER5	0.035	
68	 3HB	2591.119	799.036	-2703.742	 H	5	SER5	0.035	
69	  HG	2590.856	796.346	-2702.828	 H	5	SER5	0.428	
70	   N	2592.466	796.129	-2705.421	N.am	6	ILE6	-0.416	
71	  CA	2593.779	795.834	-2705.987	C.3	6	ILE6	-0.060	
72	   C	2593.722	795.796	-2707.495	C.2	6	ILE6	0.597	
73	   O	2594.556	796.383	-2708.199	O.2	6	ILE6	-0.568	
74	  CB	2594.378	794.497	-2705.387	C.3	6	ILE6	0.130	
75	 CG1	2594.397	794.435	-2703.826	C.3	6	ILE6	-0.043	
76	 CG2	2595.819	794.195	-2705.902	C.3	6	ILE6	-0.320	
77	 CD1	2594.666	793.046	-2703.211	C.3	6	ILE6	-0.066	
78	   H	2592.037	795.495	-2704.763	 H	6	ILE6	0.272	
79	  HA	2594.453	796.668	-2705.719	 H	6	ILE6	0.087	
80	  HB	2593.720	793.672	-2705.731	 H	6	ILE6	0.019	
81	2HG1	2593.415	794.755	-2703.430	 H	6	ILE6	0.024	
82	3HG1	2595.113	795.177	-2703.421	 H	6	ILE6	0.024	
83	1HG2	2595.878	794.102	-2707.000	 H	6	ILE6	0.088	
84	2HG2	2596.542	794.977	-2705.599	 H	6	ILE6	0.088	
85	3HG2	2596.209	793.233	-2705.523	 H	6	ILE6	0.088	
86	1HD1	2593.938	792.292	-2703.566	 H	6	ILE6	0.019	
87	2HD1	2595.677	792.667	-2703.447	 H	6	ILE6	0.019	
88	3HD1	2594.590	793.076	-2702.108	 H	6	ILE6	0.019	
89	   N	2592.776	795.133	-2708.069	N.am	7	LEU7	-0.416	
90	  CA	2592.721	795.097	-2709.527	C.3	7	LEU7	-0.052	
91	   C	2592.649	796.492	-2710.100	C.2	7	LEU7	0.597	
92	   O	2593.370	796.854	-2711.042	O.2	7	LEU7	-0.568	
93	  CB	2591.517	794.237	-2710.008	C.3	7	LEU7	-0.110	
94	  CG	2591.444	792.758	-2709.541	C.3	7	LEU7	0.353	
95	 CD1	2590.254	792.052	-2710.206	C.3	7	LEU7	-0.412	
96	 CD2	2592.738	791.978	-2709.833	C.3	7	LEU7	-0.412	
97	   H	2592.083	794.646	-2707.517	 H	7	LEU7	0.272	
98	  HA	2593.662	794.657	-2709.902	 H	7	LEU7	0.092	
99	 2HB	2591.494	794.253	-2711.115	 H	7	LEU7	0.046	
100	 3HB	2590.578	794.740	-2709.704	 H	7	LEU7	0.046	
101	  HG	2591.274	792.750	-2708.444	 H	7	LEU7	-0.036	
102	1HD1	2589.297	792.561	-2709.984	 H	7	LEU7	0.100	
103	2HD1	2590.353	792.012	-2711.308	 H	7	LEU7	0.100	
104	3HD1	2590.147	791.011	-2709.850	 H	7	LEU7	0.100	
105	1HD2	2593.013	792.008	-2710.902	 H	7	LEU7	0.100	
106	2HD2	2593.591	792.389	-2709.261	 H	7	LEU7	0.100	
107	3HD2	2592.656	790.916	-2709.536	 H	7	LEU7	0.100	
108	   N	2591.812	797.333	-2709.594	N.am	8	ASP8	-0.516	
109	  CA	2591.742	798.683	-2710.148	C.3	8	ASP8	0.038	
110	   C	2593.089	799.362	-2710.092	C.2	8	ASP8	0.537	
111	   O	2593.562	799.966	-2711.067	O.2	8	ASP8	-0.582	
112	  CB	2590.664	799.523	-2709.407	C.3	8	ASP8	-0.030	
113	  CG	2590.446	800.943	-2709.948	C.2	8	ASP8	0.799	
114	 OD1	2590.511	801.141	-2711.179	O.co2	8	ASP8	-0.801	
115	 OD2	2590.255	801.870	-2709.134	O.co2	8	ASP8	-0.801	
116	   H	2591.214	797.063	-2708.826	 H	8	ASP8	0.294	
117	  HA	2591.459	798.604	-2711.215	 H	8	ASP8	0.088	
118	 2HB	2590.922	799.606	-2708.335	 H	8	ASP8	-0.012	
119	 3HB	2589.685	799.018	-2709.440	 H	8	ASP8	-0.012	
120	   N	2593.769	799.312	-2708.996	N.am	9	GLU9	-0.516	
121	  CA	2595.072	799.969	-2708.942	C.3	9	GLU9	0.040	
122	   C	2595.990	799.441	-2710.018	C.2	9	GLU9	0.537	
123	   O	2596.654	800.194	-2710.744	O.2	9	GLU9	-0.582	
124	  CB	2595.706	799.762	-2707.536	C.3	9	GLU9	0.056	
125	  CG	2597.089	800.454	-2707.308	C.3	9	GLU9	0.014	
126	  CD	2597.791	800.241	-2705.979	C.2	9	GLU9	0.805	
127	 OE1	2597.269	799.550	-2705.083	O.co2	9	GLU9	-0.819	
128	 OE2	2598.910	800.778	-2705.848	O.co2	9	GLU9	-0.819	
129	   H	2593.406	798.826	-2708.189	 H	9	GLU9	0.294	
130	  HA	2594.930	801.051	-2709.117	 H	9	GLU9	0.111	
131	 2HB	2595.818	798.677	-2707.333	 H	9	GLU9	-0.017	
132	 3HB	2595.009	800.116	-2706.752	 H	9	GLU9	-0.017	
133	 2HG	2597.017	801.544	-2707.448	 H	9	GLU9	-0.043	
134	 3HG	2597.835	800.108	-2708.042	 H	9	GLU9	-0.043	
135	   N	2596.086	798.165	-2710.186	N.am	10	HIS10	-0.416	
136	  CA	2596.973	797.653	-2711.227	C.3	10	HIS10	-0.058	
137	   C	2596.606	798.217	-2712.578	C.2	10	HIS10	0.597	
138	   O	2597.459	798.681	-2713.350	O.2	10	HIS10	-0.568	
139	  CB	2596.808	796.124	-2711.221	C.3	10	HIS10	-0.007	
140	  CG	2598.094	795.413	-2710.913	C.2	10	HIS10	0.187	
141	 CD2	2598.475	795.079	-2709.621	C.2	10	HIS10	-0.221	
142	 ND1	2599.045	795.007	-2711.846	N.2	10	HIS10	-0.543	
143	 CE1	2599.952	794.449	-2711.022	C.2	10	HIS10	0.163	
144	 NE2	2599.689	794.446	-2709.687	N.pl3	10	HIS10	-0.280	
145	   H	2595.555	797.530	-2709.607	 H	10	HIS10	0.272	
146	  HA	2597.992	798.010	-2711.002	 H	10	HIS10	0.136	
147	 2HB	2596.442	795.757	-2712.201	 H	10	HIS10	0.037	
148	 3HB	2596.053	795.788	-2710.480	 H	10	HIS10	0.037	
149	 2HD	2597.890	795.294	-2708.731	 H	10	HIS10	0.186	
150	 1HE	2600.842	794.027	-2711.470	 H	10	HIS10	0.144	
151	 2HE	2600.256	794.069	-2708.914	 H	10	HIS10	0.334	
152	   N	2595.368	798.217	-2712.941	N.am	11	VAL11	-0.416	
153	  CA	2595.013	798.762	-2714.248	C.3	11	VAL11	-0.087	
154	   C	2595.478	800.192	-2714.381	C.2	11	VAL11	0.597	
155	   O	2596.079	800.597	-2715.385	O.2	11	VAL11	-0.568	
156	  CB	2593.452	798.656	-2714.467	C.3	11	VAL11	0.299	
157	 CG1	2592.883	799.360	-2715.730	C.3	11	VAL11	-0.319	
158	 CG2	2592.927	797.202	-2714.539	C.3	11	VAL11	-0.319	
159	   H	2594.655	797.844	-2712.330	 H	11	VAL11	0.272	
160	  HA	2595.532	798.179	-2715.030	 H	11	VAL11	0.097	
161	  HB	2592.965	799.137	-2713.592	 H	11	VAL11	-0.030	
162	1HG1	2593.322	798.967	-2716.667	 H	11	VAL11	0.079	
163	2HG1	2591.784	799.253	-2715.812	 H	11	VAL11	0.079	
164	3HG1	2593.062	800.452	-2715.721	 H	11	VAL11	0.079	
165	1HG2	2593.216	796.615	-2713.648	 H	11	VAL11	0.079	
166	2HG2	2591.821	797.166	-2714.582	 H	11	VAL11	0.079	
167	3HG2	2593.308	796.661	-2715.425	 H	11	VAL11	0.079	
168	   N	2595.242	801.019	-2713.419	N.am	12	GLN12	-0.416	
169	  CA	2595.691	802.401	-2713.547	C.3	12	GLN12	-0.003	
170	   C	2597.181	802.468	-2713.785	C.2	12	GLN12	0.597	
171	   O	2597.668	803.175	-2714.665	O.2	12	GLN12	-0.568	
172	  CB	2595.301	803.170	-2712.265	C.3	12	GLN12	-0.004	
173	  CG	2595.662	804.691	-2712.235	C.3	12	GLN12	-0.064	
174	  CD	2595.361	805.506	-2710.970	C.2	12	GLN12	0.695	
175	 NE2	2594.793	804.930	-2709.941	N.pl3	12	GLN12	-0.941	
176	 OE1	2595.663	806.686	-2710.893	O.2	12	GLN12	-0.609	
177	   H	2594.753	800.713	-2712.590	 H	12	GLN12	0.272	
178	  HA	2595.192	802.857	-2714.422	 H	12	GLN12	0.085	
179	 2HB	2595.777	802.670	-2711.395	 H	12	GLN12	0.017	
180	 3HB	2594.211	803.063	-2712.101	 H	12	GLN12	0.017	
181	 2HG	2595.185	805.212	-2713.085	 H	12	GLN12	0.035	
182	 3HG	2596.746	804.833	-2712.401	 H	12	GLN12	0.035	
183	1HE2	2594.687	805.525	-2709.118	 H	12	GLN12	0.425	
184	2HE2	2594.629	803.927	-2710.044	 H	12	GLN12	0.425	
185	   N	2597.966	801.761	-2713.044	N.am	13	ARG13	-0.348	
186	  CA	2599.406	801.826	-2713.275	C.3	13	ARG13	-0.264	
187	   C	2599.741	801.454	-2714.700	C.2	13	ARG13	0.734	
188	   O	2600.510	802.125	-2715.385	O.2	13	ARG13	-0.589	
189	  CB	2600.119	800.888	-2712.261	C.3	13	ARG13	-0.001	
190	  CG	2601.664	801.041	-2712.181	C.3	13	ARG13	0.039	
191	  CD	2602.291	800.053	-2711.182	C.3	13	ARG13	0.049	
192	  NE	2603.768	800.260	-2711.132	N.pl3	13	ARG13	-0.530	
193	  CZ	2604.616	799.569	-2710.377	C.cat	13	ARG13	0.808	
194	 NH1	2604.251	798.605	-2709.579	N.pl3	13	ARG13	-0.863	
195	 NH2	2605.876	799.867	-2710.434	N.pl3	13	ARG13	-0.863	
196	   H	2597.589	801.172	-2712.315	 H	13	ARG13	0.275	
197	  HA	2599.730	802.872	-2713.118	 H	13	ARG13	0.156	
198	 2HB	2599.853	799.837	-2712.499	 H	13	ARG13	0.033	
199	 3HB	2599.694	801.055	-2711.250	 H	13	ARG13	0.033	
200	 2HG	2601.913	802.086	-2711.902	 H	13	ARG13	0.029	
201	 3HG	2602.115	800.883	-2713.182	 H	13	ARG13	0.029	
202	 2HD	2602.046	799.013	-2711.490	 H	13	ARG13	0.069	
203	 3HD	2601.835	800.200	-2710.180	 H	13	ARG13	0.069	
204	  HE	2604.219	800.982	-2711.704	 H	13	ARG13	0.346	
205	1HH1	2603.246	798.419	-2709.581	 H	13	ARG13	0.448	
206	2HH1	2604.965	798.122	-2709.030	 H	13	ARG13	0.448	
207	1HH2	2606.144	800.625	-2711.066	 H	13	ARG13	0.448	
208	2HH2	2606.511	799.326	-2709.846	 H	13	ARG13	0.448	
209	   N	2599.205	800.399	-2715.214	N.am	14	VAL14	-0.416	
210	  CA	2599.529	800.039	-2716.591	C.3	14	VAL14	-0.087	
211	   C	2599.199	801.169	-2717.537	C.2	14	VAL14	0.597	
212	   O	2599.992	801.550	-2718.407	O.2	14	VAL14	-0.568	
213	  CB	2598.756	798.722	-2716.997	C.3	14	VAL14	0.299	
214	 CG1	2598.845	798.302	-2718.491	C.3	14	VAL14	-0.319	
215	 CG2	2599.188	797.470	-2716.197	C.3	14	VAL14	-0.319	
216	   H	2598.570	799.831	-2714.671	 H	14	VAL14	0.272	
217	  HA	2600.617	799.861	-2716.666	 H	14	VAL14	0.097	
218	  HB	2597.680	798.893	-2716.781	 H	14	VAL14	-0.030	
219	1HG1	2599.886	798.125	-2718.820	 H	14	VAL14	0.079	
220	2HG1	2598.272	797.379	-2718.702	 H	14	VAL14	0.079	
221	3HG1	2598.416	799.065	-2719.169	 H	14	VAL14	0.079	
222	1HG2	2599.101	797.629	-2715.106	 H	14	VAL14	0.079	
223	2HG2	2598.552	796.594	-2716.428	 H	14	VAL14	0.079	
224	3HG2	2600.236	797.179	-2716.402	 H	14	VAL14	0.079	
225	   N	2598.055	801.755	-2717.436	N.am	15	MET15	-0.416	
226	  CA	2597.734	802.847	-2718.350	C.3	15	MET15	-0.024	
227	   C	2598.765	803.947	-2718.262	C.2	15	MET15	0.597	
228	   O	2599.267	804.457	-2719.275	O.2	15	MET15	-0.568	
229	  CB	2596.313	803.393	-2718.041	C.3	15	MET15	0.034	
230	  CG	2595.151	802.395	-2718.231	C.3	15	MET15	0.002	
231	  SD	2593.577	803.261	-2718.117	S.3	15	MET15	-0.274	
232	  CE	2592.496	801.832	-2717.980	C.3	15	MET15	-0.054	
233	   H	2597.390	801.462	-2716.734	 H	15	MET15	0.272	
234	  HA	2597.760	802.459	-2719.385	 H	15	MET15	0.088	
235	 2HB	2596.111	804.272	-2718.683	 H	15	MET15	0.024	
236	 3HB	2596.278	803.786	-2717.004	 H	15	MET15	0.024	
237	 2HG	2595.194	801.609	-2717.454	 H	15	MET15	0.044	
238	 3HG	2595.213	801.880	-2719.208	 H	15	MET15	0.044	
239	 1HE	2592.639	801.143	-2718.832	 H	15	MET15	0.068	
240	 2HE	2592.705	801.279	-2717.047	 H	15	MET15	0.068	
241	 3HE	2591.438	802.147	-2717.963	 H	15	MET15	0.068	
242	   N	2599.134	804.368	-2717.100	N.am	16	CYS16	-0.416	
243	  CA	2600.130	805.432	-2717.016	C.3	16	CYS16	0.021	
244	   C	2601.402	805.041	-2717.732	C.2	16	CYS16	0.597	
245	   O	2601.526	803.945	-2718.299	O.2	16	CYS16	-0.568	
246	  CB	2600.369	805.763	-2715.530	C.3	16	CYS16	-0.123	
247	  SG	2601.458	807.196	-2715.361	S.3	16	CYS16	-0.312	
248	   H	2598.739	803.968	-2716.261	 H	16	CYS16	0.272	
249	  HA	2599.728	806.326	-2717.527	 H	16	CYS16	0.112	
250	 2HB	2600.809	804.902	-2714.988	 H	16	CYS16	0.111	
251	 3HB	2599.420	805.996	-2715.015	 H	16	CYS16	0.111	
252	  HG	2602.546	806.526	-2714.990	 H	16	CYS16	0.193	
@<TRIPOS>BOND
1 1 2 1
2 1 10 1
3 2 3 1
4 2 5 1
5 2 11 1
6 3 4 2
7 3 16 1
8 5 6 1
9 6 7 1
10 7 8 2
11 7 9 1
12 5 12 1
13 5 13 1
14 6 14 1
15 6 15 1
16 16 17 1
17 16 24 1
18 17 18 1
19 17 20 1
20 17 25 1
21 18 19 2
22 18 30 1
23 20 21 1
24 21 22 1
25 21 23 2
26 20 26 1
27 20 27 1
28 22 28 1
29 22 29 1
30 30 31 1
31 30 36 1
32 31 32 1
33 31 34 1
34 31 37 1
35 32 33 2
36 32 44 1
37 34 35 1
38 35 36 1
39 34 38 1
40 34 39 1
41 35 40 1
42 35 41 1
43 36 42 1
44 36 43 1
45 44 45 1
46 44 53 1
47 45 46 1
48 45 48 1
49 45 54 1
50 46 47 2
51 46 59 1
52 48 49 1
53 49 50 1
54 50 51 2
55 50 52 1
56 48 55 1
57 48 56 1
58 49 57 1
59 49 58 1
60 59 60 1
61 59 65 1
62 60 61 1
63 60 63 1
64 60 66 1
65 61 62 2
66 61 70 1
67 63 64 1
68 63 67 1
69 63 68 1
70 64 69 1
71 70 71 1
72 70 78 1
73 71 72 1
74 71 74 1
75 71 79 1
76 72 73 2
77 72 89 1
78 74 75 1
79 74 76 1
80 75 77 1
81 74 80 1
82 75 81 1
83 75 82 1
84 76 83 1
85 76 84 1
86 76 85 1
87 77 86 1
88 77 87 1
89 77 88 1
90 89 90 1
91 89 97 1
92 90 91 1
93 90 93 1
94 90 98 1
95 91 92 2
96 91 108 1
97 93 94 1
98 94 95 1
99 94 96 1
100 93 99 1
101 93 100 1
102 94 101 1
103 95 102 1
104 95 103 1
105 95 104 1
106 96 105 1
107 96 106 1
108 96 107 1
109 108 109 1
110 108 116 1
111 109 110 1
112 109 112 1
113 109 117 1
114 110 111 2
115 110 120 1
116 112 113 1
117 113 114 2
118 113 115 1
119 112 118 1
120 112 119 1
121 120 121 1
122 120 129 1
123 121 122 1
124 121 124 1
125 121 130 1
126 122 123 2
127 122 135 1
128 124 125 1
129 125 126 1
130 126 127 2
131 126 128 1
132 124 131 1
133 124 132 1
134 125 133 1
135 125 134 1
136 135 136 1
137 135 145 1
138 136 137 1
139 136 139 1
140 136 146 1
141 137 138 2
142 137 152 1
143 139 140 1
144 140 141 2
145 141 144 1
146 140 142 1
147 142 143 2
148 143 144 1
149 139 147 1
150 139 148 1
151 141 149 1
152 143 150 1
153 144 151 1
154 152 153 1
155 152 159 1
156 153 154 1
157 153 156 1
158 153 160 1
159 154 155 2
160 154 168 1
161 156 157 1
162 156 158 1
163 156 161 1
164 157 162 1
165 157 163 1
166 157 164 1
167 158 165 1
168 158 166 1
169 158 167 1
170 168 169 1
171 168 177 1
172 169 170 1
173 169 172 1
174 169 178 1
175 170 171 2
176 170 185 1
177 172 173 1
178 173 174 1
179 174 175 1
180 174 176 2
181 172 179 1
182 172 180 1
183 173 181 1
184 173 182 1
185 175 183 1
186 175 184 1
187 185 186 1
188 185 196 1
189 186 187 1
190 186 189 1
191 186 197 1
192 187 188 2
193 187 209 1
194 189 190 1
195 190 191 1
196 191 192 1
197 192 193 1
198 193 194 2
199 193 195 1
200 189 198 1
201 189 199 1
202 190 200 1
203 190 201 1
204 191 202 1
205 191 203 1
206 192 204 1
207 194 205 1
208 194 206 1
209 195 207 1
210 195 208 1
211 209 210 1
212 209 216 1
213 210 211 1
214 210 213 1
215 210 217 1
216 211 212 2
217 211 225 1
218 213 214 1
219 213 215 1
220 213 218 1
221 214 219 1
222 214 220 1
223 214 221 1
224 215 222 1
225 215 223 1
226 215 224 1
227 225 226 1
228 225 233 1
229 226 227 1
230 226 229 1
231 226 234 1
232 227 228 2
233 227 242 1
234 229 230 1
235 230 231 1
236 231 232 1
237 229 235 1
238 229 236 1
239 230 237 1
240 230 238 1
241 232 239 1
242 232 240 1
243 232 241 1
244 242 243 1
245 242 248 1
246 243 244 1
247 243 246 1
248 243 249 1
249 244 245 2
250 246 247 1
251 246 250 1
252 246 251 1
253 247 252 1
@<TRIPOS>SUBSTRUCTURE
1	GLU1	1	RESIDUE	1 ****	GLU
2	ASN2	16	RESIDUE	1 ****	ASN
3	PRO3	30	RESIDUE	1 ****	PRO
4	GLU4	44	RESIDUE	1 ****	GLU
5	SER5	59	RESIDUE	1 ****	SER
6	ILE6	70	RESIDUE	1 ****	ILE
7	LEU7	89	RESIDUE	1 ****	LEU
8	ASP8	108	RESIDUE	1 ****	ASP
9	GLU9	120	RESIDUE	1 ****	GLU
10	HIS10	135	RESIDUE	1 ****	HIS
11	VAL11	152	RESIDUE	1 ****	VAL
12	GLN12	168	RESIDUE	1 ****	GLN
13	ARG13	185	RESIDUE	1 ****	ARG
14	VAL14	209	RESIDUE	1 ****	VAL
15	MET15	225	RESIDUE	1 ****	MET
16	CYS16	242	RESIDUE	1 ****	CYS
