REMARK WARNING: 32 MAX_TORS EXCEEDED!!!
REMARK  68 active torsions:
REMARK  status: ('A' for Active; 'I' for Inactive)
REMARK    1  A    between atoms: N_1  and  CA_2 
REMARK    2  A    between atoms: CA_2  and  C_3 
REMARK    3  A    between atoms: CA_2  and  CB_5 
REMARK       I    between atoms: C_3  and  N_11 
REMARK    4  A    between atoms: CB_5  and  CG_6 
REMARK    5  A    between atoms: CG_6  and  CD_7 
REMARK    6  A    between atoms: N_11  and  CA_12 
REMARK    7  A    between atoms: CA_12  and  C_13 
REMARK    8  A    between atoms: CA_12  and  CB_15 
REMARK       I    between atoms: C_13  and  N_22 
REMARK    9  A    between atoms: CB_15  and  CG_16 
REMARK       I    between atoms: CG_16  and  ND2_17 
REMARK   10  A    between atoms: CA_23  and  C_24 
REMARK       I    between atoms: C_24  and  N_29 
REMARK   11  A    between atoms: N_29  and  CA_30 
REMARK   12  A    between atoms: CA_30  and  C_31 
REMARK   13  A    between atoms: CA_30  and  CB_33 
REMARK       I    between atoms: C_31  and  N_39 
REMARK   14  A    between atoms: CB_33  and  CG_34 
REMARK   15  A    between atoms: CG_34  and  CD_35 
REMARK   16  A    between atoms: N_39  and  CA_40 
REMARK   17  A    between atoms: CA_40  and  C_41 
REMARK   18  A    between atoms: CA_40  and  CB_43 
REMARK       I    between atoms: C_41  and  N_47 
REMARK   19  A    between atoms: CB_43  and  OG_44 
REMARK   20  A    between atoms: N_47  and  CA_48 
REMARK   21  A    between atoms: CA_48  and  C_49 
REMARK   22  A    between atoms: CA_48  and  CB_51 
REMARK       I    between atoms: C_49  and  N_56 
REMARK   23  A    between atoms: CB_51  and  CG1_52 
REMARK   24  A    between atoms: N_56  and  CA_57 
REMARK   25  A    between atoms: CA_57  and  C_58 
REMARK   26  A    between atoms: CA_57  and  CB_60 
REMARK       I    between atoms: C_58  and  N_65 
REMARK   27  A    between atoms: CB_60  and  CG_61 
REMARK   28  A    between atoms: N_65  and  CA_66 
REMARK   29  A    between atoms: CA_66  and  C_67 
REMARK   30  A    between atoms: CA_66  and  CB_69 
REMARK       I    between atoms: C_67  and  N_74 
REMARK   31  A    between atoms: CB_69  and  CG_70 
REMARK   32  A    between atoms: N_74  and  CA_75 
REMARK   33  A    between atoms: CA_75  and  C_76 
REMARK   34  A    between atoms: CA_75  and  CB_78 
REMARK       I    between atoms: C_76  and  N_84 
REMARK   35  A    between atoms: CB_78  and  CG_79 
REMARK   36  A    between atoms: CG_79  and  CD_80 
REMARK   37  A    between atoms: N_84  and  CA_85 
REMARK   38  A    between atoms: CA_85  and  C_86 
REMARK   39  A    between atoms: CA_85  and  CB_88 
REMARK       I    between atoms: C_86  and  N_96 
REMARK   40  A    between atoms: CB_88  and  CG_89 
REMARK   41  A    between atoms: N_96  and  CA_97 
REMARK   42  A    between atoms: CA_97  and  C_98 
REMARK   43  A    between atoms: CA_97  and  CB_100 
REMARK       I    between atoms: C_98  and  N_104 
REMARK   44  A    between atoms: N_104  and  CA_105 
REMARK   45  A    between atoms: CA_105  and  C_106 
REMARK   46  A    between atoms: CA_105  and  CB_108 
REMARK       I    between atoms: C_106  and  N_114 
REMARK   47  A    between atoms: CB_108  and  CG_109 
REMARK   48  A    between atoms: CG_109  and  CD_110 
REMARK   49  A    between atoms: N_114  and  CA_115 
REMARK   50  A    between atoms: CA_115  and  C_116 
REMARK   51  A    between atoms: CA_115  and  CB_118 
REMARK       I    between atoms: C_116  and  N_131 
REMARK   52  A    between atoms: CB_118  and  CG_119 
REMARK   53  A    between atoms: CG_119  and  CD_120 
REMARK   54  A    between atoms: CD_120  and  NE_121 
REMARK       I    between atoms: NE_121  and  CZ_122 
REMARK       I    between atoms: CZ_122  and  NH1_123 
REMARK       I    between atoms: CZ_122  and  NH2_124 
REMARK   55  A    between atoms: N_131  and  CA_132 
REMARK   56  A    between atoms: CA_132  and  C_133 
REMARK   57  A    between atoms: CA_132  and  CB_135 
REMARK       I    between atoms: C_133  and  N_139 
REMARK   58  A    between atoms: N_139  and  CA_140 
REMARK   59  A    between atoms: CA_140  and  C_141 
REMARK   60  A    between atoms: CA_140  and  CB_143 
REMARK       I    between atoms: C_141  and  N_148 
REMARK   61  A    between atoms: CB_143  and  CG_144 
REMARK   62  A    between atoms: CG_144  and  SD_145 
REMARK   63  A    between atoms: N_148  and  CA_149 
REMARK   64  A    between atoms: CA_149  and  C_150 
REMARK   65  A    between atoms: CA_149  and  CB_152 
REMARK   66  A    between atoms: CB_152  and  CG_153 
REMARK   67  A    between atoms: CG_153  and  CD_154 
REMARK   68  A    between atoms: CD_154  and  NE_155 
REMARK       I    between atoms: NE_155  and  CZ_156 
REMARK       I    between atoms: CZ_156  and  NH1_157 
ROOT
ATOM      1  C   GLU d   9    1995.210 605.528-2053.149  0.00  0.00     0.241 C 
ATOM      2  O   GLU d   9    1995.874 606.283-2053.875  0.00  0.00    -0.271 OA
ATOM      3  N   HIS d  10    1995.307 604.253-2053.318  0.00  0.00    -0.346 N 
ATOM      4  H   HIS d  10    1994.776 603.618-2052.739  0.00  0.00     0.163 HD
ENDROOT
BRANCH   1   5
ATOM      5  CA  GLU d   9    1994.292 606.056-2052.073  0.00  0.00     0.177 C 
BRANCH   5   6
ATOM      6  N   GLU d   9    1992.990 605.398-2052.128  0.00  0.00    -0.346 N 
ATOM      7  C   ASP d   8    1992.309 605.448-2053.223  0.00  0.00     0.241 C 
ATOM      8  O   ASP d   8    1992.782 606.053-2054.197  0.00  0.00    -0.271 OA
ATOM      9  H   GLU d   9    1992.627 604.912-2051.320  0.00  0.00     0.163 HD
BRANCH   7  10
ATOM     10  CA  ASP d   8    1990.963 604.768-2053.279  0.00  0.00     0.186 C 
BRANCH  10  11
ATOM     11  N   ASP d   8    1991.034 603.418-2052.726  0.00  0.00    -0.346 N 
ATOM     12  C   LEU d   7    1991.871 602.578-2053.232  0.00  0.00     0.241 C 
ATOM     13  O   LEU d   7    1992.591 602.940-2054.175  0.00  0.00    -0.271 OA
ATOM     14  H   ASP d   8    1990.436 603.147-2051.958  0.00  0.00     0.163 HD
BRANCH  12  15
ATOM     15  CA  LEU d   7    1991.944 601.182-2052.660  0.00  0.00     0.177 C 
BRANCH  15  16
ATOM     16  N   LEU d   7    1991.999 601.218-2051.201  0.00  0.00    -0.346 N 
ATOM     17  C   ILE d   6    1992.945 601.882-2050.628  0.00  0.00     0.241 C 
ATOM     18  O   ILE d   6    1993.780 602.470-2051.332  0.00  0.00    -0.271 OA
ATOM     19  H   LEU d   7    1991.307 600.731-2050.650  0.00  0.00     0.163 HD
BRANCH  17  20
ATOM     20  CA  ILE d   6    1993.003 601.919-2049.120  0.00  0.00     0.180 C 
BRANCH  20  21
ATOM     21  N   ILE d   6    1991.690 602.214-2048.553  0.00  0.00    -0.346 N 
ATOM     22  C   SER d   5    1991.085 603.297-2048.907  0.00  0.00     0.243 C 
ATOM     23  O   SER d   5    1991.632 604.051-2049.712  0.00  0.00    -0.271 OA
ATOM     24  H   ILE d   6    1991.261 601.580-2047.894  0.00  0.00     0.163 HD
BRANCH  22  25
ATOM     25  CA  SER d   5    1989.726 603.603-2048.321  0.00  0.00     0.200 C 
BRANCH  25  26
ATOM     26  N   SER d   5    1988.856 602.431-2048.380  0.00  0.00    -0.344 N 
ATOM     27  C   GLU d   4    1988.629 601.879-2049.523  0.00  0.00     0.241 C 
ATOM     28  O   GLU d   4    1989.155 602.358-2050.538  0.00  0.00    -0.271 OA
ATOM     29  H   SER d   5    1988.439 602.059-2047.538  0.00  0.00     0.163 HD
BRANCH  27  30
ATOM     30  CA  GLU d   4    1987.730 600.668-2049.584  0.00  0.00     0.177 C 
BRANCH  30  31
ATOM     31  N   GLU d   4    1988.090 599.697-2048.555  0.00  0.00    -0.346 N 
ATOM     32  C   PRO d   3    1989.294 599.237-2048.523  0.00  0.00     0.241 C 
ATOM     33  O   PRO d   3    1990.118 599.620-2049.354  0.00  0.00    -0.271 OA
ATOM     34  H   GLU d   4    1987.405 599.390-2047.878  0.00  0.00     0.163 HD
BRANCH  32  35
ATOM     35  CA  PRO d   3    1989.693 598.213-2047.446  0.00  0.00     0.179 C 
ATOM     36  N   PRO d   3    1989.241 598.622-2046.124  0.00  0.00    -0.337 N 
ATOM     37  C   ASN d   2    1989.762 599.617-2045.490  0.00  0.00     0.243 C 
ATOM     38  CD  PRO d   3    1988.163 597.829-2045.575  0.00  0.00     0.127 C 
ATOM     39  O   ASN d   2    1990.677 600.248-2046.019  0.00  0.00    -0.271 OA
ATOM     40  CG  PRO d   3    1987.705 597.011-2046.785  0.00  0.00     0.022 C 
ATOM     41  CB  PRO d   3    1988.988 596.858-2047.615  0.00  0.00     0.037 C 
BRANCH  37  42
ATOM     42  CA  ASN d   2    1989.231 599.973-2044.122  0.00  0.00     0.185 C 
BRANCH  42  43
ATOM     43  N   ASN d   2    1987.772 600.012-2044.122  0.00  0.00    -0.346 N 
ATOM     44  C   GLU d   1    1987.167 600.798-2044.947  0.00  0.00     0.242 C 
ATOM     45  O   GLU d   1    1987.843 601.497-2045.715  0.00  0.00    -0.271 OA
ATOM     46  H   ASN d   2    1987.244 599.432-2043.485  0.00  0.00     0.163 HD
BRANCH  44  47
ATOM     47  CA  GLU d   1    1985.658 600.838-2044.947  0.00  0.00     0.191 C 
BRANCH  47  48
ATOM     48  N   GLU d   1    1985.099 599.489-2044.947  0.00  0.00    -0.326 NA
ATOM     49  H   GLU d   1    1985.726 598.610-2044.947  0.00  0.00     0.180 HD
ENDBRANCH  47  48
BRANCH  47  50
ATOM     50  CB  GLU d   1    1985.135 601.623-2043.710  0.00  0.00     0.047 C 
BRANCH  50  51
ATOM     51  CG  GLU d   1    1985.610 603.108-2043.599  0.00  0.00     0.116 C 
BRANCH  51  52
ATOM     52  CD  GLU d   1    1985.186 603.912-2042.384  0.00  0.00     0.172 C 
ATOM     53  OE1 GLU d   1    1984.458 603.410-2041.506  0.00  0.00    -0.648 OA
ATOM     54  OE2 GLU d   1    1985.616 605.082-2042.312  0.00  0.00    -0.648 OA
ENDBRANCH  51  52
ENDBRANCH  50  51
ENDBRANCH  47  50
ENDBRANCH  44  47
ENDBRANCH  42  43
BRANCH  42  55
ATOM     55  CB  ASN d   2    1989.723 598.950-2043.057  0.00  0.00     0.137 C 
BRANCH  55  56
ATOM     56  CG  ASN d   2    1989.260 599.174-2041.614  0.00  0.00     0.217 C 
ATOM     57  ND2 ASN d   2    1989.854 600.089-2040.896  0.00  0.00    -0.370 N 
ATOM     58 21HD ASN d   2    1989.374 600.262-2040.009  0.00  0.00     0.159 HD
ATOM     59 22HD ASN d   2    1990.556 600.660-2041.365  0.00  0.00     0.159 HD
ATOM     60  OD1 ASN d   2    1988.339 598.540-2041.120  0.00  0.00    -0.274 OA
ENDBRANCH  55  56
ENDBRANCH  42  55
ENDBRANCH  37  42
ENDBRANCH  32  35
ENDBRANCH  30  31
BRANCH  30  61
ATOM     61  CB  GLU d   4    1986.241 601.087-2049.414  0.00  0.00     0.045 C 
BRANCH  61  62
ATOM     62  CG  GLU d   4    1985.693 602.090-2050.479  0.00  0.00     0.116 C 
BRANCH  62  63
ATOM     63  CD  GLU d   4    1984.267 602.587-2050.336  0.00  0.00     0.172 C 
ATOM     64  OE1 GLU d   4    1983.541 602.188-2049.405  0.00  0.00    -0.648 OA
ATOM     65  OE2 GLU d   4    1983.877 603.416-2051.184  0.00  0.00    -0.648 OA
ENDBRANCH  62  63
ENDBRANCH  61  62
ENDBRANCH  30  61
ENDBRANCH  27  30
ENDBRANCH  25  26
BRANCH  25  66
ATOM     66  CB  SER d   5    1989.838 604.135-2046.871  0.00  0.00     0.199 C 
BRANCH  66  67
ATOM     67  OG  SER d   5    1990.570 603.255-2046.010  0.00  0.00    -0.398 OA
ATOM     68  HG  SER d   5    1990.081 602.430-2045.959  0.00  0.00     0.209 HD
ENDBRANCH  66  67
ENDBRANCH  25  66
ENDBRANCH  22  25
ENDBRANCH  20  21
BRANCH  20  69
ATOM     69  CB  ILE d   6    1993.603 600.583-2048.521  0.00  0.00     0.013 C 
ATOM     70  CG2 ILE d   6    1995.044 600.281-2049.036  0.00  0.00     0.012 C 
BRANCH  69  71
ATOM     71  CG1 ILE d   6    1993.622 600.521-2046.959  0.00  0.00     0.002 C 
ATOM     72  CD1 ILE d   6    1993.892 599.131-2046.345  0.00  0.00     0.005 C 
ENDBRANCH  69  71
ENDBRANCH  20  69
ENDBRANCH  17  20
ENDBRANCH  15  16
BRANCH  15  73
ATOM     73  CB  LEU d   7    1990.740 600.322-2053.140  0.00  0.00     0.038 C 
BRANCH  73  74
ATOM     74  CG  LEU d   7    1990.668 598.843-2052.673  0.00  0.00    -0.020 C 
ATOM     75  CD1 LEU d   7    1989.478 598.137-2053.339  0.00  0.00     0.009 C 
ATOM     76  CD2 LEU d   7    1991.961 598.063-2052.965  0.00  0.00     0.009 C 
ENDBRANCH  73  74
ENDBRANCH  15  73
ENDBRANCH  12  15
ENDBRANCH  10  11
BRANCH  10  77
ATOM     77  CB  ASP d   8    1989.885 605.607-2052.537  0.00  0.00     0.147 C 
BRANCH  77  78
ATOM     78  CG  ASP d   8    1989.665 607.027-2053.078  0.00  0.00     0.175 C 
ATOM     79  OD1 ASP d   8    1989.729 607.226-2054.308  0.00  0.00    -0.648 OA
ATOM     80  OD2 ASP d   8    1989.474 607.953-2052.262  0.00  0.00    -0.648 OA
ENDBRANCH  77  78
ENDBRANCH  10  77
ENDBRANCH   7  10
ENDBRANCH   5   6
BRANCH   5  81
ATOM     81  CB  GLU d   9    1994.926 605.849-2050.668  0.00  0.00     0.045 C 
BRANCH  81  82
ATOM     82  CG  GLU d   9    1996.309 606.541-2050.439  0.00  0.00     0.116 C 
BRANCH  82  83
ATOM     83  CD  GLU d   9    1997.011 606.328-2049.111  0.00  0.00     0.172 C 
ATOM     84  OE1 GLU d   9    1996.490 605.637-2048.214  0.00  0.00    -0.648 OA
ATOM     85  OE2 GLU d   9    1998.130 606.866-2048.980  0.00  0.00    -0.648 OA
ENDBRANCH  82  83
ENDBRANCH  81  82
ENDBRANCH   5  81
ENDBRANCH   1   5
BRANCH   3  86
ATOM     86  CA  HIS d  10    1996.195 603.741-2054.358  0.00  0.00     0.182 C 
BRANCH  86  87
ATOM     87  C   HIS d  10    1995.827 604.306-2055.710  0.00  0.00     0.241 C 
ATOM     88  O   HIS d  10    1996.679 604.770-2056.482  0.00  0.00    -0.271 OA
ATOM     89  N   VAL d  11    1994.589 604.304-2056.072  0.00  0.00    -0.346 N 
ATOM     90  H   VAL d  11    1993.876 603.931-2055.461  0.00  0.00     0.163 HD
BRANCH  89  91
ATOM     91  CA  VAL d  11    1994.233 604.849-2057.379  0.00  0.00     0.180 C 
BRANCH  91  92
ATOM     92  C   VAL d  11    1994.697 606.280-2057.512  0.00  0.00     0.241 C 
ATOM     93  O   VAL d  11    1995.297 606.686-2058.515  0.00  0.00    -0.271 OA
ATOM     94  N   GLU d  12    1994.459 607.106-2056.550  0.00  0.00    -0.346 N 
ATOM     95  H   GLU d  12    1993.971 606.800-2055.720  0.00  0.00     0.163 HD
BRANCH  94  96
ATOM     96  CA  GLU d  12    1994.907 608.490-2056.677  0.00  0.00     0.177 C 
BRANCH  96  97
ATOM     97  C   GLU d  12    1996.396 608.557-2056.916  0.00  0.00     0.241 C 
ATOM     98  O   GLU d  12    1996.888 609.270-2057.802  0.00  0.00    -0.271 OA
ATOM     99  N   ARG d  13    1997.181 607.850-2056.175  0.00  0.00    -0.346 N 
ATOM    100  H   ARG d  13    1996.804 607.261-2055.446  0.00  0.00     0.163 HD
BRANCH  99 101
ATOM    101  CA  ARG d  13    1998.621 607.915-2056.406  0.00  0.00     0.176 C 
BRANCH 101 102
ATOM    102  C   ARG d  13    1998.956 607.543-2057.831  0.00  0.00     0.241 C 
ATOM    103  O   ARG d  13    1999.725 608.214-2058.516  0.00  0.00    -0.271 OA
ATOM    104  N   VAL d  14    1998.420 606.488-2058.345  0.00  0.00    -0.346 N 
ATOM    105  H   VAL d  14    1997.784 605.920-2057.802  0.00  0.00     0.163 HD
BRANCH 104 106
ATOM    106  CA  VAL d  14    1998.744 606.128-2059.722  0.00  0.00     0.180 C 
BRANCH 106 107
ATOM    107  C   VAL d  14    1998.414 607.258-2060.668  0.00  0.00     0.241 C 
ATOM    108  O   VAL d  14    1999.207 607.639-2061.538  0.00  0.00    -0.271 OA
ATOM    109  N   MET d  15    1997.269 607.845-2060.566  0.00  0.00    -0.346 N 
ATOM    110  H   MET d  15    1996.605 607.552-2059.864  0.00  0.00     0.163 HD
BRANCH 109 111
ATOM    111  CA  MET d  15    1996.949 608.937-2061.480  0.00  0.00     0.177 C 
BRANCH 111 112
ATOM    112  C   MET d  15    1997.979 610.037-2061.393  0.00  0.00     0.241 C 
ATOM    113  O   MET d  15    1998.482 610.547-2062.406  0.00  0.00    -0.271 OA
ATOM    114  N   ARG d  16    1998.349 610.458-2060.231  0.00  0.00    -0.347 N 
ATOM    115  H   ARG d  16    1997.954 610.058-2059.392  0.00  0.00     0.163 HD
BRANCH 114 116
ATOM    116  CA  ARG d  16    1999.345 611.522-2060.148  0.00  0.00     0.162 C 
BRANCH 116 117
ATOM    117  C   ARG d  16    2000.616 611.129-2060.865  0.00  0.00     0.219 C 
ATOM    118  O   ARG d  16    2000.729 610.052-2061.446  0.00  0.00    -0.287 OA
ENDBRANCH 116 117
BRANCH 116 119
ATOM    119  CB  ARG d  16    1999.615 611.840-2058.650  0.00  0.00     0.035 C 
BRANCH 119 120
ATOM    120  CG  ARG d  16    2000.441 613.129-2058.378  0.00  0.00     0.023 C 
BRANCH 120 121
ATOM    121  CD  ARG d  16    2000.691 613.349-2056.877  0.00  0.00     0.138 C 
BRANCH 121 122
ATOM    122  NE  ARG d  16    2001.467 614.607-2056.677  0.00  0.00    -0.227 N 
ATOM    123  CZ  ARG d  16    2001.859 615.090-2055.501  0.00  0.00     0.665 C 
ATOM    124  NH1 ARG d  16    2001.612 614.506-2054.363  0.00  0.00    -0.235 N 
ATOM    125  NH2 ARG d  16    2002.524 616.202-2055.483  0.00  0.00    -0.235 N 
ATOM    126 11HH ARG d  16    2001.086 613.633-2054.447  0.00  0.00     0.174 HD
ATOM    127 12HH ARG d  16    2001.947 614.942-2053.502  0.00  0.00     0.174 HD
ATOM    128 21HH ARG d  16    2002.709 616.645-2056.385  0.00  0.00     0.174 HD
ATOM    129 22HH ARG d  16    2002.814 616.558-2054.571  0.00  0.00     0.174 HD
ATOM    130  HE  ARG d  16    2001.746 615.188-2057.474  0.00  0.00     0.177 HD
ENDBRANCH 121 122
ENDBRANCH 120 121
ENDBRANCH 119 120
ENDBRANCH 116 119
ENDBRANCH 114 116
ENDBRANCH 111 112
BRANCH 111 131
ATOM    131  CB  MET d  15    1995.528 609.483-2061.170  0.00  0.00     0.045 C 
BRANCH 131 132
ATOM    132  CG  MET d  15    1994.365 608.485-2061.361  0.00  0.00     0.076 C 
BRANCH 132 133
ATOM    133  SD  MET d  15    1992.792 609.352-2061.246  0.00  0.00    -0.173 SA
ATOM    134  CE  MET d  15    1991.710 607.922-2061.108  0.00  0.00     0.089 C 
ENDBRANCH 132 133
ENDBRANCH 131 132
ENDBRANCH 111 131
ENDBRANCH 109 111
ENDBRANCH 106 107
BRANCH 106 135
ATOM    135  CB  VAL d  14    1997.970 604.811-2060.128  0.00  0.00     0.009 C 
ATOM    136  CG1 VAL d  14    1998.059 604.392-2061.621  0.00  0.00     0.012 C 
ATOM    137  CG2 VAL d  14    1998.402 603.559-2059.327  0.00  0.00     0.012 C 
ENDBRANCH 106 135
ENDBRANCH 104 106
ENDBRANCH 101 102
BRANCH 101 138
ATOM    138  CB  ARG d  13    1999.334 606.976-2055.392  0.00  0.00     0.036 C 
BRANCH 138 139
ATOM    139  CG  ARG d  13    2000.879 607.128-2055.312  0.00  0.00     0.023 C 
BRANCH 139 140
ATOM    140  CD  ARG d  13    2001.506 606.141-2054.313  0.00  0.00     0.138 C 
BRANCH 140 141
ATOM    141  NE  ARG d  13    2002.983 606.347-2054.264  0.00  0.00    -0.227 N 
ATOM    142  CZ  ARG d  13    2003.831 605.655-2053.509  0.00  0.00     0.665 C 
ATOM    143  NH1 ARG d  13    2003.466 604.691-2052.711  0.00  0.00    -0.235 N 
ATOM    144  NH2 ARG d  13    2005.091 605.953-2053.566  0.00  0.00    -0.235 N 
ATOM    145 11HH ARG d  13    2002.460 604.506-2052.714  0.00  0.00     0.174 HD
ATOM    146 12HH ARG d  13    2004.179 604.208-2052.162  0.00  0.00     0.174 HD
ATOM    147 21HH ARG d  13    2005.358 606.711-2054.197  0.00  0.00     0.174 HD
ATOM    148 22HH ARG d  13    2005.726 605.412-2052.977  0.00  0.00     0.174 HD
ATOM    149  HE  ARG d  13    2003.435 607.068-2054.835  0.00  0.00     0.177 HD
ENDBRANCH 140 141
ENDBRANCH 139 140
ENDBRANCH 138 139
ENDBRANCH 101 138
ENDBRANCH  99 101
ENDBRANCH  96  97
BRANCH  96 150
ATOM    150  CB  GLU d  12    1994.526 609.286-2055.396  0.00  0.00     0.045 C 
BRANCH 150 151
ATOM    151  CG  GLU d  12    1994.898 610.804-2055.405  0.00  0.00     0.116 C 
BRANCH 151 152
ATOM    152  CD  GLU d  12    1994.609 611.625-2054.162  0.00  0.00     0.172 C 
ATOM    153  OE1 GLU d  12    1994.067 611.108-2053.165  0.00  0.00    -0.648 OA
ATOM    154  OE2 GLU d  12    1994.954 612.824-2054.193  0.00  0.00    -0.648 OA
ENDBRANCH 151 152
ENDBRANCH 150 151
ENDBRANCH  96 150
ENDBRANCH  94  96
ENDBRANCH  91  92
BRANCH  91 155
ATOM    155  CB  VAL d  11    1992.672 604.742-2057.598  0.00  0.00     0.009 C 
ATOM    156  CG1 VAL d  11    1992.102 605.445-2058.860  0.00  0.00     0.012 C 
ATOM    157  CG2 VAL d  11    1992.148 603.287-2057.670  0.00  0.00     0.012 C 
ENDBRANCH  91 155
ENDBRANCH  89  91
ENDBRANCH  86  87
BRANCH  86 158
ATOM    158  CB  HIS d  10    1996.031 602.213-2054.353  0.00  0.00     0.095 C 
BRANCH 158 159
ATOM    159  CG  HIS d  10    1997.317 601.503-2054.045  0.00  0.00     0.053 A 
ATOM    160  CD2 HIS d  10    1997.698 601.168-2052.752  0.00  0.00     0.116 A 
ATOM    161  NE2 HIS d  10    1998.913 600.536-2052.819  0.00  0.00    -0.359 N 
ATOM    162  CE1 HIS d  10    1999.175 600.539-2054.155  0.00  0.00     0.207 A 
ATOM    163  2HE HIS d  10    1999.480 600.160-2052.046  0.00  0.00     0.166 HD
ATOM    164  ND1 HIS d  10    1998.268 601.097-2054.978  0.00  0.00    -0.247 NA
ENDBRANCH 158 159
ENDBRANCH  86 158
ENDBRANCH   3  86
TORSDOF 68
