REMARK WARNING: 32 MAX_TORS EXCEEDED!!!
REMARK  66 active torsions:
REMARK  status: ('A' for Active; 'I' for Inactive)
REMARK    1  A    between atoms: N_1  and  CA_2 
REMARK    2  A    between atoms: CA_2  and  C_3 
REMARK    3  A    between atoms: CA_2  and  CB_5 
REMARK       I    between atoms: C_3  and  N_11 
REMARK    4  A    between atoms: CB_5  and  CG_6 
REMARK    5  A    between atoms: CG_6  and  CD_7 
REMARK    6  A    between atoms: N_11  and  CA_12 
REMARK    7  A    between atoms: CA_12  and  C_13 
REMARK    8  A    between atoms: CA_12  and  CB_15 
REMARK       I    between atoms: C_13  and  N_22 
REMARK    9  A    between atoms: CB_15  and  CG_16 
REMARK       I    between atoms: CG_16  and  ND2_17 
REMARK   10  A    between atoms: CA_23  and  C_24 
REMARK       I    between atoms: C_24  and  N_29 
REMARK   11  A    between atoms: N_29  and  CA_30 
REMARK   12  A    between atoms: CA_30  and  C_31 
REMARK   13  A    between atoms: CA_30  and  CB_33 
REMARK       I    between atoms: C_31  and  N_39 
REMARK   14  A    between atoms: CB_33  and  CG_34 
REMARK   15  A    between atoms: CG_34  and  CD_35 
REMARK   16  A    between atoms: N_39  and  CA_40 
REMARK   17  A    between atoms: CA_40  and  C_41 
REMARK   18  A    between atoms: CA_40  and  CB_43 
REMARK       I    between atoms: C_41  and  N_47 
REMARK   19  A    between atoms: CB_43  and  OG_44 
REMARK   20  A    between atoms: N_47  and  CA_48 
REMARK   21  A    between atoms: CA_48  and  C_49 
REMARK   22  A    between atoms: CA_48  and  CB_51 
REMARK       I    between atoms: C_49  and  N_56 
REMARK   23  A    between atoms: CB_51  and  CG1_52 
REMARK   24  A    between atoms: N_56  and  CA_57 
REMARK   25  A    between atoms: CA_57  and  C_58 
REMARK   26  A    between atoms: CA_57  and  CB_60 
REMARK       I    between atoms: C_58  and  N_65 
REMARK   27  A    between atoms: CB_60  and  CG_61 
REMARK   28  A    between atoms: N_65  and  CA_66 
REMARK   29  A    between atoms: CA_66  and  C_67 
REMARK       I    between atoms: C_67  and  N_71 
REMARK   30  A    between atoms: N_71  and  CA_72 
REMARK   31  A    between atoms: CA_72  and  C_73 
REMARK   32  A    between atoms: CA_72  and  CB_75 
REMARK       I    between atoms: C_73  and  N_81 
REMARK   33  A    between atoms: CB_75  and  CG_76 
REMARK   34  A    between atoms: CG_76  and  CD_77 
REMARK   35  A    between atoms: N_81  and  CA_82 
REMARK   36  A    between atoms: CA_82  and  C_83 
REMARK   37  A    between atoms: CA_82  and  CB_85 
REMARK       I    between atoms: C_83  and  N_93 
REMARK   38  A    between atoms: CB_85  and  CG_86 
REMARK   39  A    between atoms: N_93  and  CA_94 
REMARK   40  A    between atoms: CA_94  and  C_95 
REMARK   41  A    between atoms: CA_94  and  CB_97 
REMARK       I    between atoms: C_95  and  N_101 
REMARK   42  A    between atoms: N_101  and  CA_102 
REMARK   43  A    between atoms: CA_102  and  C_103 
REMARK   44  A    between atoms: CA_102  and  CB_105 
REMARK       I    between atoms: C_103  and  N_113 
REMARK   45  A    between atoms: CB_105  and  CG_106 
REMARK   46  A    between atoms: CG_106  and  CD_107 
REMARK       I    between atoms: CD_107  and  NE2_108 
REMARK   47  A    between atoms: N_113  and  CA_114 
REMARK   48  A    between atoms: CA_114  and  C_115 
REMARK   49  A    between atoms: CA_114  and  CB_117 
REMARK       I    between atoms: C_115  and  N_130 
REMARK   50  A    between atoms: CB_117  and  CG_118 
REMARK   51  A    between atoms: CG_118  and  CD_119 
REMARK   52  A    between atoms: CD_119  and  NE_120 
REMARK       I    between atoms: NE_120  and  CZ_121 
REMARK       I    between atoms: CZ_121  and  NH1_122 
REMARK       I    between atoms: CZ_121  and  NH2_123 
REMARK   53  A    between atoms: N_130  and  CA_131 
REMARK   54  A    between atoms: CA_131  and  C_132 
REMARK   55  A    between atoms: CA_131  and  CB_134 
REMARK       I    between atoms: C_132  and  N_138 
REMARK   56  A    between atoms: N_138  and  CA_139 
REMARK   57  A    between atoms: CA_139  and  C_140 
REMARK   58  A    between atoms: CA_139  and  CB_142 
REMARK       I    between atoms: C_140  and  N_147 
REMARK   59  A    between atoms: CB_142  and  CG_143 
REMARK   60  A    between atoms: CG_143  and  SD_144 
REMARK   61  A    between atoms: N_147  and  CA_148 
REMARK   62  A    between atoms: CA_148  and  C_149 
REMARK   63  A    between atoms: CA_148  and  CB_151 
REMARK   64  A    between atoms: CB_151  and  CG_152 
REMARK   65  A    between atoms: CG_152  and  CD_153 
REMARK   66  A    between atoms: CD_153  and  NE_154 
REMARK       I    between atoms: NE_154  and  CZ_155 
REMARK       I    between atoms: CZ_155  and  NH1_156 
ROOT
ATOM      1  C   GLU d   9    1200.108 346.409-1191.395  0.00  0.00     0.241 C 
ATOM      2  O   GLU d   9    1200.774 347.163-1192.120  0.00  0.00    -0.271 OA
ATOM      3  N   HIS d  10    1200.203 345.133-1191.564  0.00  0.00    -0.346 N 
ATOM      4  H   HIS d  10    1199.671 344.499-1190.986  0.00  0.00     0.163 HD
ENDROOT
BRANCH   3   5
ATOM      5  CA  HIS d  10    1201.091 344.621-1192.604  0.00  0.00     0.182 C 
BRANCH   5   6
ATOM      6  C   HIS d  10    1200.726 345.187-1193.956  0.00  0.00     0.241 C 
ATOM      7  O   HIS d  10    1201.580 345.651-1194.727  0.00  0.00    -0.271 OA
ATOM      8  N   VAL d  11    1199.489 345.187-1194.319  0.00  0.00    -0.346 N 
ATOM      9  H   VAL d  11    1198.775 344.815-1193.709  0.00  0.00     0.163 HD
BRANCH   8  10
ATOM     10  CA  VAL d  11    1199.135 345.734-1195.626  0.00  0.00     0.180 C 
BRANCH  10  11
ATOM     11  C   VAL d  11    1199.601 347.164-1195.758  0.00  0.00     0.241 C 
ATOM     12  O   VAL d  11    1200.203 347.569-1196.761  0.00  0.00    -0.271 OA
ATOM     13  N   GLN d  12    1199.364 347.990-1194.796  0.00  0.00    -0.346 N 
ATOM     14  H   GLN d  12    1198.874 347.684-1193.967  0.00  0.00     0.163 HD
BRANCH  13  15
ATOM     15  CA  GLN d  12    1199.814 349.372-1194.922  0.00  0.00     0.177 C 
BRANCH  15  16
ATOM     16  C   GLN d  12    1201.304 349.438-1195.159  0.00  0.00     0.241 C 
ATOM     17  O   GLN d  12    1201.793 350.146-1196.037  0.00  0.00    -0.271 OA
ATOM     18  N   ARG d  13    1202.088 348.730-1194.418  0.00  0.00    -0.346 N 
ATOM     19  H   ARG d  13    1201.710 348.141-1193.690  0.00  0.00     0.163 HD
BRANCH  18  20
ATOM     20  CA  ARG d  13    1203.528 348.795-1194.648  0.00  0.00     0.176 C 
BRANCH  20  21
ATOM     21  C   ARG d  13    1203.865 348.423-1196.073  0.00  0.00     0.241 C 
ATOM     22  O   ARG d  13    1204.635 349.094-1196.756  0.00  0.00    -0.271 OA
ATOM     23  N   VAL d  14    1203.328 347.370-1196.588  0.00  0.00    -0.346 N 
ATOM     24  H   VAL d  14    1202.692 346.802-1196.046  0.00  0.00     0.163 HD
BRANCH  23  25
ATOM     25  CA  VAL d  14    1203.653 347.010-1197.965  0.00  0.00     0.180 C 
BRANCH  25  26
ATOM     26  C   VAL d  14    1203.325 348.141-1198.911  0.00  0.00     0.241 C 
ATOM     27  O   VAL d  14    1204.119 348.522-1199.779  0.00  0.00    -0.271 OA
ATOM     28  N   MET d  15    1202.181 348.728-1198.809  0.00  0.00    -0.346 N 
ATOM     29  H   MET d  15    1201.515 348.436-1198.108  0.00  0.00     0.163 HD
BRANCH  28  30
ATOM     30  CA  MET d  15    1201.862 349.822-1199.723  0.00  0.00     0.177 C 
BRANCH  30  31
ATOM     31  C   MET d  15    1202.893 350.920-1199.634  0.00  0.00     0.241 C 
ATOM     32  O   MET d  15    1203.397 351.431-1200.646  0.00  0.00    -0.271 OA
ATOM     33  N   ARG d  16    1203.262 351.341-1198.471  0.00  0.00    -0.347 N 
ATOM     34  H   ARG d  16    1202.866 350.941-1197.632  0.00  0.00     0.163 HD
BRANCH  33  35
ATOM     35  CA  ARG d  16    1204.259 352.404-1198.387  0.00  0.00     0.162 C 
BRANCH  35  36
ATOM     36  C   ARG d  16    1205.530 352.010-1199.102  0.00  0.00     0.219 C 
ATOM     37  O   ARG d  16    1205.643 350.934-1199.684  0.00  0.00    -0.287 OA
ENDBRANCH  35  36
BRANCH  35  38
ATOM     38  CB  ARG d  16    1204.528 352.721-1196.888  0.00  0.00     0.035 C 
BRANCH  38  39
ATOM     39  CG  ARG d  16    1205.354 354.009-1196.614  0.00  0.00     0.023 C 
BRANCH  39  40
ATOM     40  CD  ARG d  16    1205.603 354.227-1195.113  0.00  0.00     0.138 C 
BRANCH  40  41
ATOM     41  NE  ARG d  16    1206.380 355.486-1194.911  0.00  0.00    -0.227 N 
ATOM     42  CZ  ARG d  16    1206.772 355.967-1193.735  0.00  0.00     0.665 C 
ATOM     43  NH1 ARG d  16    1206.523 355.383-1192.597  0.00  0.00    -0.235 N 
ATOM     44  NH2 ARG d  16    1207.437 357.079-1193.716  0.00  0.00    -0.235 N 
ATOM     45 11HH ARG d  16    1205.997 354.510-1192.682  0.00  0.00     0.174 HD
ATOM     46 12HH ARG d  16    1206.857 355.818-1191.735  0.00  0.00     0.174 HD
ATOM     47 21HH ARG d  16    1207.623 357.522-1194.617  0.00  0.00     0.174 HD
ATOM     48 22HH ARG d  16    1207.727 357.433-1192.803  0.00  0.00     0.174 HD
ATOM     49  HE  ARG d  16    1206.660 356.066-1195.708  0.00  0.00     0.177 HD
ENDBRANCH  40  41
ENDBRANCH  39  40
ENDBRANCH  38  39
ENDBRANCH  35  38
ENDBRANCH  33  35
ENDBRANCH  30  31
BRANCH  30  50
ATOM     50  CB  MET d  15    1200.441 350.369-1199.414  0.00  0.00     0.045 C 
BRANCH  50  51
ATOM     51  CG  MET d  15    1199.278 349.372-1199.607  0.00  0.00     0.076 C 
BRANCH  51  52
ATOM     52  SD  MET d  15    1197.705 350.239-1199.493  0.00  0.00    -0.173 SA
ATOM     53  CE  MET d  15    1196.622 348.811-1199.358  0.00  0.00     0.089 C 
ENDBRANCH  51  52
ENDBRANCH  50  51
ENDBRANCH  30  50
ENDBRANCH  28  30
ENDBRANCH  25  26
BRANCH  25  54
ATOM     54  CB  VAL d  14    1202.880 345.694-1198.373  0.00  0.00     0.009 C 
ATOM     55  CG1 VAL d  14    1202.969 345.276-1199.866  0.00  0.00     0.012 C 
ATOM     56  CG2 VAL d  14    1203.310 344.441-1197.573  0.00  0.00     0.012 C 
ENDBRANCH  25  54
ENDBRANCH  23  25
ENDBRANCH  20  21
BRANCH  20  57
ATOM     57  CB  ARG d  13    1204.240 347.855-1193.633  0.00  0.00     0.036 C 
BRANCH  57  58
ATOM     58  CG  ARG d  13    1205.785 348.006-1193.551  0.00  0.00     0.023 C 
BRANCH  58  59
ATOM     59  CD  ARG d  13    1206.410 347.017-1192.554  0.00  0.00     0.138 C 
BRANCH  59  60
ATOM     60  NE  ARG d  13    1207.887 347.223-1192.502  0.00  0.00    -0.227 N 
ATOM     61  CZ  ARG d  13    1208.734 346.530-1191.747  0.00  0.00     0.665 C 
ATOM     62  NH1 ARG d  13    1208.367 345.566-1190.950  0.00  0.00    -0.235 N 
ATOM     63  NH2 ARG d  13    1209.994 346.828-1191.803  0.00  0.00    -0.235 N 
ATOM     64 11HH ARG d  13    1207.362 345.381-1190.954  0.00  0.00     0.174 HD
ATOM     65 12HH ARG d  13    1209.080 345.082-1190.401  0.00  0.00     0.174 HD
ATOM     66 21HH ARG d  13    1210.263 347.585-1192.433  0.00  0.00     0.174 HD
ATOM     67 22HH ARG d  13    1210.628 346.285-1191.214  0.00  0.00     0.174 HD
ATOM     68  HE  ARG d  13    1208.340 347.945-1193.072  0.00  0.00     0.177 HD
ENDBRANCH  59  60
ENDBRANCH  58  59
ENDBRANCH  57  58
ENDBRANCH  20  57
ENDBRANCH  18  20
ENDBRANCH  15  16
BRANCH  15  69
ATOM     69  CB  GLN d  12    1199.423 350.140-1193.640  0.00  0.00     0.044 C 
BRANCH  69  70
ATOM     70  CG  GLN d  12    1199.785 351.661-1193.608  0.00  0.00     0.105 C 
BRANCH  70  71
ATOM     71  CD  GLN d  12    1199.482 352.475-1192.343  0.00  0.00     0.215 C 
ATOM     72  NE2 GLN d  12    1198.914 351.899-1191.315  0.00  0.00    -0.370 N 
ATOM     73 21HE GLN d  12    1198.807 352.493-1190.492  0.00  0.00     0.159 HD
ATOM     74 22HE GLN d  12    1198.749 350.896-1191.419  0.00  0.00     0.159 HD
ATOM     75  OE1 GLN d  12    1199.785 353.656-1192.266  0.00  0.00    -0.274 OA
ENDBRANCH  70  71
ENDBRANCH  69  70
ENDBRANCH  15  69
ENDBRANCH  13  15
ENDBRANCH  10  11
BRANCH  10  76
ATOM     76  CB  VAL d  11    1197.574 345.629-1195.847  0.00  0.00     0.009 C 
ATOM     77  CG1 VAL d  11    1197.007 346.334-1197.110  0.00  0.00     0.012 C 
ATOM     78  CG2 VAL d  11    1197.048 344.175-1195.921  0.00  0.00     0.012 C 
ENDBRANCH  10  76
ENDBRANCH   8  10
ENDBRANCH   5   6
BRANCH   5  79
ATOM     79  CB  HIS d  10    1200.926 343.093-1192.600  0.00  0.00     0.095 C 
BRANCH  79  80
ATOM     80  CG  HIS d  10    1202.211 342.381-1192.291  0.00  0.00     0.053 A 
ATOM     81  CD2 HIS d  10    1202.590 342.045-1190.998  0.00  0.00     0.116 A 
ATOM     82  NE2 HIS d  10    1203.805 341.412-1191.064  0.00  0.00    -0.359 N 
ATOM     83  CE1 HIS d  10    1204.068 341.415-1192.399  0.00  0.00     0.207 A 
ATOM     84  2HE HIS d  10    1204.370 341.034-1190.290  0.00  0.00     0.166 HD
ATOM     85  ND1 HIS d  10    1203.163 341.975-1193.223  0.00  0.00    -0.247 NA
ENDBRANCH  79  80
ENDBRANCH   5  79
ENDBRANCH   3   5
BRANCH   1  86
ATOM     86  CA  GLU d   9    1199.190 346.937-1190.320  0.00  0.00     0.177 C 
BRANCH  86  87
ATOM     87  N   GLU d   9    1197.886 346.282-1190.376  0.00  0.00    -0.346 N 
ATOM     88  C   ALA d   8    1197.208 346.333-1191.472  0.00  0.00     0.240 C 
ATOM     89  O   ALA d   8    1197.681 346.936-1192.443  0.00  0.00    -0.271 OA
ATOM     90  H   GLU d   9    1197.522 345.796-1189.569  0.00  0.00     0.163 HD
BRANCH  88  91
ATOM     91  CA  ALA d   8    1195.860 345.654-1191.530  0.00  0.00     0.172 C 
ATOM     92  CB  ALA d   8    1194.773 346.421-1190.756  0.00  0.00     0.042 C 
BRANCH  91  93
ATOM     93  N   ALA d   8    1195.930 344.305-1190.977  0.00  0.00    -0.346 N 
ATOM     94  C   LEU d   7    1196.767 343.464-1191.483  0.00  0.00     0.241 C 
ATOM     95  O   LEU d   7    1197.487 343.828-1192.425  0.00  0.00    -0.271 OA
ATOM     96  H   ALA d   8    1195.332 344.034-1190.209  0.00  0.00     0.163 HD
BRANCH  94  97
ATOM     97  CA  LEU d   7    1196.839 342.069-1190.911  0.00  0.00     0.177 C 
BRANCH  97  98
ATOM     98  N   LEU d   7    1196.894 342.105-1189.452  0.00  0.00    -0.346 N 
ATOM     99  C   ILE d   6    1197.840 342.768-1188.879  0.00  0.00     0.241 C 
ATOM    100  O   ILE d   6    1198.675 343.356-1189.583  0.00  0.00    -0.271 OA
ATOM    101  H   LEU d   7    1196.203 341.618-1188.901  0.00  0.00     0.163 HD
BRANCH  99 102
ATOM    102  CA  ILE d   6    1197.898 342.806-1187.371  0.00  0.00     0.180 C 
BRANCH 102 103
ATOM    103  N   ILE d   6    1196.585 343.100-1186.805  0.00  0.00    -0.346 N 
ATOM    104  C   SER d   5    1195.980 344.183-1187.159  0.00  0.00     0.243 C 
ATOM    105  O   SER d   5    1196.527 344.937-1187.963  0.00  0.00    -0.271 OA
ATOM    106  H   ILE d   6    1196.156 342.466-1186.146  0.00  0.00     0.163 HD
BRANCH 104 107
ATOM    107  CA  SER d   5    1194.621 344.489-1186.573  0.00  0.00     0.200 C 
BRANCH 107 108
ATOM    108  N   SER d   5    1193.752 343.318-1186.631  0.00  0.00    -0.344 N 
ATOM    109  C   GLU d   4    1193.524 342.765-1187.774  0.00  0.00     0.241 C 
ATOM    110  O   GLU d   4    1194.050 343.244-1188.789  0.00  0.00    -0.271 OA
ATOM    111  H   SER d   5    1193.335 342.946-1185.790  0.00  0.00     0.163 HD
BRANCH 109 112
ATOM    112  CA  GLU d   4    1192.625 341.554-1187.835  0.00  0.00     0.177 C 
BRANCH 112 113
ATOM    113  N   GLU d   4    1192.985 340.583-1186.806  0.00  0.00    -0.346 N 
ATOM    114  C   PRO d   3    1194.190 340.122-1186.774  0.00  0.00     0.241 C 
ATOM    115  O   PRO d   3    1195.013 340.506-1187.605  0.00  0.00    -0.271 OA
ATOM    116  H   GLU d   4    1192.301 340.276-1186.129  0.00  0.00     0.163 HD
BRANCH 114 117
ATOM    117  CA  PRO d   3    1194.588 339.099-1185.697  0.00  0.00     0.179 C 
ATOM    118  N   PRO d   3    1194.136 339.508-1184.375  0.00  0.00    -0.337 N 
ATOM    119  C   ASN d   2    1194.658 340.503-1183.741  0.00  0.00     0.243 C 
ATOM    120  CD  PRO d   3    1193.058 338.715-1183.826  0.00  0.00     0.127 C 
ATOM    121  O   ASN d   2    1195.572 341.134-1184.270  0.00  0.00    -0.271 OA
ATOM    122  CG  PRO d   3    1192.601 337.897-1185.036  0.00  0.00     0.022 C 
ATOM    123  CB  PRO d   3    1193.884 337.744-1185.866  0.00  0.00     0.037 C 
BRANCH 119 124
ATOM    124  CA  ASN d   2    1194.127 340.859-1182.372  0.00  0.00     0.185 C 
BRANCH 124 125
ATOM    125  N   ASN d   2    1192.667 340.898-1182.372  0.00  0.00    -0.346 N 
ATOM    126  C   GLU d   1    1192.063 341.683-1183.198  0.00  0.00     0.242 C 
ATOM    127  O   GLU d   1    1192.739 342.383-1183.966  0.00  0.00    -0.271 OA
ATOM    128  H   ASN d   2    1192.139 340.318-1181.736  0.00  0.00     0.163 HD
BRANCH 126 129
ATOM    129  CA  GLU d   1    1190.554 341.723-1183.198  0.00  0.00     0.191 C 
BRANCH 129 130
ATOM    130  N   GLU d   1    1189.995 340.374-1183.198  0.00  0.00    -0.326 NA
ATOM    131  H   GLU d   1    1190.622 339.495-1183.198  0.00  0.00     0.180 HD
ENDBRANCH 129 130
BRANCH 129 132
ATOM    132  CB  GLU d   1    1190.031 342.508-1181.961  0.00  0.00     0.047 C 
BRANCH 132 133
ATOM    133  CG  GLU d   1    1190.506 343.993-1181.850  0.00  0.00     0.116 C 
BRANCH 133 134
ATOM    134  CD  GLU d   1    1190.082 344.797-1180.635  0.00  0.00     0.172 C 
ATOM    135  OE1 GLU d   1    1189.354 344.295-1179.757  0.00  0.00    -0.648 OA
ATOM    136  OE2 GLU d   1    1190.512 345.967-1180.563  0.00  0.00    -0.648 OA
ENDBRANCH 133 134
ENDBRANCH 132 133
ENDBRANCH 129 132
ENDBRANCH 126 129
ENDBRANCH 124 125
BRANCH 124 137
ATOM    137  CB  ASN d   2    1194.619 339.836-1181.308  0.00  0.00     0.137 C 
BRANCH 137 138
ATOM    138  CG  ASN d   2    1194.156 340.060-1179.865  0.00  0.00     0.217 C 
ATOM    139  ND2 ASN d   2    1194.750 340.975-1179.147  0.00  0.00    -0.370 N 
ATOM    140 21HD ASN d   2    1194.269 341.148-1178.260  0.00  0.00     0.159 HD
ATOM    141 22HD ASN d   2    1195.451 341.546-1179.616  0.00  0.00     0.159 HD
ATOM    142  OD1 ASN d   2    1193.235 339.426-1179.371  0.00  0.00    -0.274 OA
ENDBRANCH 137 138
ENDBRANCH 124 137
ENDBRANCH 119 124
ENDBRANCH 114 117
ENDBRANCH 112 113
BRANCH 112 143
ATOM    143  CB  GLU d   4    1191.137 341.972-1187.665  0.00  0.00     0.045 C 
BRANCH 143 144
ATOM    144  CG  GLU d   4    1190.588 342.976-1188.730  0.00  0.00     0.116 C 
BRANCH 144 145
ATOM    145  CD  GLU d   4    1189.162 343.472-1188.587  0.00  0.00     0.172 C 
ATOM    146  OE1 GLU d   4    1188.436 343.074-1187.656  0.00  0.00    -0.648 OA
ATOM    147  OE2 GLU d   4    1188.772 344.302-1189.435  0.00  0.00    -0.648 OA
ENDBRANCH 144 145
ENDBRANCH 143 144
ENDBRANCH 112 143
ENDBRANCH 109 112
ENDBRANCH 107 108
BRANCH 107 148
ATOM    148  CB  SER d   5    1194.733 345.021-1185.122  0.00  0.00     0.199 C 
BRANCH 148 149
ATOM    149  OG  SER d   5    1195.465 344.142-1184.261  0.00  0.00    -0.398 OA
ATOM    150  HG  SER d   5    1194.976 343.317-1184.211  0.00  0.00     0.209 HD
ENDBRANCH 148 149
ENDBRANCH 107 148
ENDBRANCH 104 107
ENDBRANCH 102 103
BRANCH 102 151
ATOM    151  CB  ILE d   6    1198.497 341.470-1186.771  0.00  0.00     0.013 C 
ATOM    152  CG2 ILE d   6    1199.939 341.168-1187.287  0.00  0.00     0.012 C 
BRANCH 151 153
ATOM    153  CG1 ILE d   6    1198.517 341.407-1185.210  0.00  0.00     0.002 C 
ATOM    154  CD1 ILE d   6    1198.787 340.018-1184.595  0.00  0.00     0.005 C 
ENDBRANCH 151 153
ENDBRANCH 102 151
ENDBRANCH  99 102
ENDBRANCH  97  98
BRANCH  97 155
ATOM    155  CB  LEU d   7    1195.636 341.209-1191.391  0.00  0.00     0.038 C 
BRANCH 155 156
ATOM    156  CG  LEU d   7    1195.564 339.729-1190.925  0.00  0.00    -0.020 C 
ATOM    157  CD1 LEU d   7    1194.374 339.024-1191.591  0.00  0.00     0.009 C 
ATOM    158  CD2 LEU d   7    1196.857 338.950-1191.217  0.00  0.00     0.009 C 
ENDBRANCH 155 156
ENDBRANCH  97 155
ENDBRANCH  94  97
ENDBRANCH  91  93
ENDBRANCH  88  91
ENDBRANCH  86  87
BRANCH  86 159
ATOM    159  CB  GLU d   9    1199.822 346.729-1188.914  0.00  0.00     0.045 C 
BRANCH 159 160
ATOM    160  CG  GLU d   9    1201.205 347.419-1188.683  0.00  0.00     0.116 C 
BRANCH 160 161
ATOM    161  CD  GLU d   9    1201.906 347.205-1187.354  0.00  0.00     0.172 C 
ATOM    162  OE1 GLU d   9    1201.382 346.514-1186.458  0.00  0.00    -0.648 OA
ATOM    163  OE2 GLU d   9    1203.026 347.741-1187.222  0.00  0.00    -0.648 OA
ENDBRANCH 160 161
ENDBRANCH 159 160
ENDBRANCH  86 159
ENDBRANCH   1  86
TORSDOF 66
