REMARK WARNING: 32 MAX_TORS EXCEEDED!!!
REMARK  68 active torsions:
REMARK  status: ('A' for Active; 'I' for Inactive)
REMARK    1  A    between atoms: N_1  and  CA_2 
REMARK    2  A    between atoms: CA_2  and  C_3 
REMARK    3  A    between atoms: CA_2  and  CB_5 
REMARK       I    between atoms: C_3  and  N_11 
REMARK    4  A    between atoms: CB_5  and  CG_6 
REMARK    5  A    between atoms: CG_6  and  CD_7 
REMARK    6  A    between atoms: N_11  and  CA_12 
REMARK    7  A    between atoms: CA_12  and  C_13 
REMARK    8  A    between atoms: CA_12  and  CB_15 
REMARK       I    between atoms: C_13  and  N_22 
REMARK    9  A    between atoms: CB_15  and  CG_16 
REMARK       I    between atoms: CG_16  and  ND2_17 
REMARK   10  A    between atoms: CA_23  and  C_24 
REMARK       I    between atoms: C_24  and  N_29 
REMARK   11  A    between atoms: N_29  and  CA_30 
REMARK   12  A    between atoms: CA_30  and  C_31 
REMARK   13  A    between atoms: CA_30  and  CB_33 
REMARK       I    between atoms: C_31  and  N_39 
REMARK   14  A    between atoms: CB_33  and  CG_34 
REMARK   15  A    between atoms: CG_34  and  CD_35 
REMARK   16  A    between atoms: N_39  and  CA_40 
REMARK   17  A    between atoms: CA_40  and  C_41 
REMARK   18  A    between atoms: CA_40  and  CB_43 
REMARK       I    between atoms: C_41  and  N_47 
REMARK   19  A    between atoms: CB_43  and  OG_44 
REMARK   20  A    between atoms: N_47  and  CA_48 
REMARK   21  A    between atoms: CA_48  and  C_49 
REMARK   22  A    between atoms: CA_48  and  CB_51 
REMARK       I    between atoms: C_49  and  N_56 
REMARK   23  A    between atoms: CB_51  and  OG1_53 
REMARK   24  A    between atoms: N_56  and  CA_57 
REMARK   25  A    between atoms: CA_57  and  C_58 
REMARK   26  A    between atoms: CA_57  and  CB_60 
REMARK       I    between atoms: C_58  and  N_65 
REMARK   27  A    between atoms: CB_60  and  CG_61 
REMARK   28  A    between atoms: N_65  and  CA_66 
REMARK   29  A    between atoms: CA_66  and  C_67 
REMARK   30  A    between atoms: CA_66  and  CB_69 
REMARK       I    between atoms: C_67  and  N_74 
REMARK   31  A    between atoms: CB_69  and  CG_70 
REMARK   32  A    between atoms: N_74  and  CA_75 
REMARK   33  A    between atoms: CA_75  and  C_76 
REMARK   34  A    between atoms: CA_75  and  CB_78 
REMARK       I    between atoms: C_76  and  N_84 
REMARK   35  A    between atoms: CB_78  and  CG_79 
REMARK   36  A    between atoms: CG_79  and  CD_80 
REMARK   37  A    between atoms: N_84  and  CA_85 
REMARK   38  A    between atoms: CA_85  and  C_86 
REMARK   39  A    between atoms: CA_85  and  CB_88 
REMARK       I    between atoms: C_86  and  N_96 
REMARK   40  A    between atoms: CB_88  and  CG_89 
REMARK   41  A    between atoms: N_96  and  CA_97 
REMARK   42  A    between atoms: CA_97  and  C_98 
REMARK   43  A    between atoms: CA_97  and  CB_100 
REMARK       I    between atoms: C_98  and  N_104 
REMARK   44  A    between atoms: N_104  and  CA_105 
REMARK   45  A    between atoms: CA_105  and  C_106 
REMARK   46  A    between atoms: CA_105  and  CB_108 
REMARK       I    between atoms: C_106  and  N_116 
REMARK   47  A    between atoms: CB_108  and  CG_109 
REMARK   48  A    between atoms: CG_109  and  CD_110 
REMARK       I    between atoms: CD_110  and  NE2_111 
REMARK   49  A    between atoms: N_116  and  CA_117 
REMARK   50  A    between atoms: CA_117  and  C_118 
REMARK   51  A    between atoms: CA_117  and  CB_120 
REMARK       I    between atoms: C_118  and  N_133 
REMARK   52  A    between atoms: CB_120  and  CG_121 
REMARK   53  A    between atoms: CG_121  and  CD_122 
REMARK   54  A    between atoms: CD_122  and  NE_123 
REMARK       I    between atoms: NE_123  and  CZ_124 
REMARK       I    between atoms: CZ_124  and  NH1_125 
REMARK       I    between atoms: CZ_124  and  NH2_126 
REMARK   55  A    between atoms: N_133  and  CA_134 
REMARK   56  A    between atoms: CA_134  and  C_135 
REMARK   57  A    between atoms: CA_134  and  CB_137 
REMARK       I    between atoms: C_135  and  N_141 
REMARK   58  A    between atoms: N_141  and  CA_142 
REMARK   59  A    between atoms: CA_142  and  C_143 
REMARK   60  A    between atoms: CA_142  and  CB_145 
REMARK       I    between atoms: C_143  and  N_150 
REMARK   61  A    between atoms: CB_145  and  CG_146 
REMARK   62  A    between atoms: CG_146  and  SD_147 
REMARK   63  A    between atoms: N_150  and  CA_151 
REMARK   64  A    between atoms: CA_151  and  C_152 
REMARK   65  A    between atoms: CA_151  and  CB_154 
REMARK   66  A    between atoms: CB_154  and  CG_155 
REMARK   67  A    between atoms: CG_155  and  CD_156 
REMARK   68  A    between atoms: CD_156  and  NE_157 
REMARK       I    between atoms: NE_157  and  CZ_158 
REMARK       I    between atoms: CZ_158  and  NH1_159 
ROOT
ATOM      1  C   GLU d   9     977.696 272.134-949.868  0.00  0.00     0.241 C 
ATOM      2  O   GLU d   9     978.360 272.889-950.593  0.00  0.00    -0.271 OA
ATOM      3  N   HIS d  10     977.794 270.859-950.038  0.00  0.00    -0.346 N 
ATOM      4  H   HIS d  10     977.263 270.223-949.460  0.00  0.00     0.163 HD
ENDROOT
BRANCH   1   5
ATOM      5  CA  GLU d   9     976.777 272.661-948.793  0.00  0.00     0.177 C 
BRANCH   5   6
ATOM      6  N   GLU d   9     975.475 272.003-948.849  0.00  0.00    -0.346 N 
ATOM      7  C   ASP d   8     974.796 272.052-949.945  0.00  0.00     0.241 C 
ATOM      8  O   ASP d   8     975.269 272.658-950.919  0.00  0.00    -0.271 OA
ATOM      9  H   GLU d   9     975.111 271.516-948.043  0.00  0.00     0.163 HD
BRANCH   7  10
ATOM     10  CA  ASP d   8     973.450 271.372-950.003  0.00  0.00     0.186 C 
BRANCH  10  11
ATOM     11  N   ASP d   8     973.520 270.022-949.450  0.00  0.00    -0.346 N 
ATOM     12  C   LEU d   7     974.358 269.182-949.956  0.00  0.00     0.241 C 
ATOM     13  O   LEU d   7     975.079 269.546-950.898  0.00  0.00    -0.271 OA
ATOM     14  H   ASP d   8     972.922 269.751-948.683  0.00  0.00     0.163 HD
BRANCH  12  15
ATOM     15  CA  LEU d   7     974.431 267.787-949.384  0.00  0.00     0.177 C 
BRANCH  15  16
ATOM     16  N   LEU d   7     974.485 267.823-947.926  0.00  0.00    -0.346 N 
ATOM     17  C   THR d   6     975.430 268.487-947.351  0.00  0.00     0.243 C 
ATOM     18  O   THR d   6     976.248 269.063-948.040  0.00  0.00    -0.271 OA
ATOM     19  H   LEU d   7     973.793 267.335-947.375  0.00  0.00     0.163 HD
BRANCH  17  20
ATOM     20  CA  THR d   6     975.487 268.524-945.843  0.00  0.00     0.205 C 
BRANCH  20  21
ATOM     21  N   THR d   6     974.174 268.818-945.277  0.00  0.00    -0.344 N 
ATOM     22  C   SER d   5     973.569 269.901-945.631  0.00  0.00     0.243 C 
ATOM     23  O   SER d   5     974.116 270.655-946.436  0.00  0.00    -0.271 OA
ATOM     24  H   THR d   6     973.746 268.184-944.618  0.00  0.00     0.163 HD
BRANCH  22  25
ATOM     25  CA  SER d   5     972.210 270.207-945.046  0.00  0.00     0.200 C 
BRANCH  25  26
ATOM     26  N   SER d   5     971.341 269.035-945.104  0.00  0.00    -0.344 N 
ATOM     27  C   GLU d   4     971.114 268.482-946.247  0.00  0.00     0.241 C 
ATOM     28  O   GLU d   4     971.640 268.962-947.262  0.00  0.00    -0.271 OA
ATOM     29  H   SER d   5     970.924 268.664-944.263  0.00  0.00     0.163 HD
BRANCH  27  30
ATOM     30  CA  GLU d   4     970.215 267.271-946.309  0.00  0.00     0.177 C 
BRANCH  30  31
ATOM     31  N   GLU d   4     970.574 266.300-945.279  0.00  0.00    -0.346 N 
ATOM     32  C   PRO d   3     971.779 265.840-945.247  0.00  0.00     0.241 C 
ATOM     33  O   PRO d   3     972.603 266.224-946.078  0.00  0.00    -0.271 OA
ATOM     34  H   GLU d   4     969.890 265.994-944.602  0.00  0.00     0.163 HD
BRANCH  32  35
ATOM     35  CA  PRO d   3     972.177 264.817-944.170  0.00  0.00     0.179 C 
ATOM     36  N   PRO d   3     971.726 265.226-942.848  0.00  0.00    -0.337 N 
ATOM     37  C   ASN d   2     972.247 266.221-942.214  0.00  0.00     0.243 C 
ATOM     38  CD  PRO d   3     970.648 264.433-942.299  0.00  0.00     0.127 C 
ATOM     39  O   ASN d   2     973.162 266.852-942.743  0.00  0.00    -0.271 OA
ATOM     40  CG  PRO d   3     970.190 263.614-943.509  0.00  0.00     0.022 C 
ATOM     41  CB  PRO d   3     971.473 263.462-944.339  0.00  0.00     0.037 C 
BRANCH  37  42
ATOM     42  CA  ASN d   2     971.716 266.577-940.845  0.00  0.00     0.185 C 
BRANCH  42  43
ATOM     43  N   ASN d   2     970.256 266.616-940.845  0.00  0.00    -0.346 N 
ATOM     44  C   GLU d   1     969.652 267.401-941.671  0.00  0.00     0.242 C 
ATOM     45  O   GLU d   1     970.328 268.100-942.439  0.00  0.00    -0.271 OA
ATOM     46  H   ASN d   2     969.728 266.036-940.209  0.00  0.00     0.163 HD
BRANCH  44  47
ATOM     47  CA  GLU d   1     968.143 267.441-941.671  0.00  0.00     0.191 C 
BRANCH  47  48
ATOM     48  N   GLU d   1     967.584 266.092-941.671  0.00  0.00    -0.326 NA
ATOM     49  H   GLU d   1     968.211 265.213-941.671  0.00  0.00     0.180 HD
ENDBRANCH  47  48
BRANCH  47  50
ATOM     50  CB  GLU d   1     967.620 268.226-940.434  0.00  0.00     0.047 C 
BRANCH  50  51
ATOM     51  CG  GLU d   1     968.095 269.711-940.323  0.00  0.00     0.116 C 
BRANCH  51  52
ATOM     52  CD  GLU d   1     967.671 270.515-939.108  0.00  0.00     0.172 C 
ATOM     53  OE1 GLU d   1     966.943 270.013-938.230  0.00  0.00    -0.648 OA
ATOM     54  OE2 GLU d   1     968.101 271.685-939.036  0.00  0.00    -0.648 OA
ENDBRANCH  51  52
ENDBRANCH  50  51
ENDBRANCH  47  50
ENDBRANCH  44  47
ENDBRANCH  42  43
BRANCH  42  55
ATOM     55  CB  ASN d   2     972.208 265.554-939.781  0.00  0.00     0.137 C 
BRANCH  55  56
ATOM     56  CG  ASN d   2     971.745 265.778-938.338  0.00  0.00     0.217 C 
ATOM     57  ND2 ASN d   2     972.339 266.693-937.620  0.00  0.00    -0.370 N 
ATOM     58 21HD ASN d   2     971.858 266.866-936.733  0.00  0.00     0.159 HD
ATOM     59 22HD ASN d   2     973.041 267.264-938.089  0.00  0.00     0.159 HD
ATOM     60  OD1 ASN d   2     970.824 265.144-937.844  0.00  0.00    -0.274 OA
ENDBRANCH  55  56
ENDBRANCH  42  55
ENDBRANCH  37  42
ENDBRANCH  32  35
ENDBRANCH  30  31
BRANCH  30  61
ATOM     61  CB  GLU d   4     968.726 267.690-946.138  0.00  0.00     0.045 C 
BRANCH  61  62
ATOM     62  CG  GLU d   4     968.178 268.693-947.204  0.00  0.00     0.116 C 
BRANCH  62  63
ATOM     63  CD  GLU d   4     966.751 269.190-947.060  0.00  0.00     0.172 C 
ATOM     64  OE1 GLU d   4     966.025 268.791-946.130  0.00  0.00    -0.648 OA
ATOM     65  OE2 GLU d   4     966.362 270.019-947.909  0.00  0.00    -0.648 OA
ENDBRANCH  62  63
ENDBRANCH  61  62
ENDBRANCH  30  61
ENDBRANCH  27  30
ENDBRANCH  25  26
BRANCH  25  66
ATOM     66  CB  SER d   5     972.322 270.739-943.595  0.00  0.00     0.199 C 
BRANCH  66  67
ATOM     67  OG  SER d   5     973.053 269.860-942.734  0.00  0.00    -0.398 OA
ATOM     68  HG  SER d   5     972.565 269.035-942.683  0.00  0.00     0.209 HD
ENDBRANCH  66  67
ENDBRANCH  25  66
ENDBRANCH  22  25
ENDBRANCH  20  21
BRANCH  20  69
ATOM     69  CB  THR d   6     976.040 267.173-945.276  0.00  0.00     0.146 C 
ATOM     70  CG2 THR d   6     977.424 266.728-945.797  0.00  0.00     0.042 C 
BRANCH  69  71
ATOM     71  OG1 THR d   6     976.199 267.252-943.865  0.00  0.00    -0.393 OA
ATOM     72  1HG THR d   6     976.470 266.375-943.578  0.00  0.00     0.210 HD
ENDBRANCH  69  71
ENDBRANCH  20  69
ENDBRANCH  17  20
ENDBRANCH  15  16
BRANCH  15  73
ATOM     73  CB  LEU d   7     973.229 266.926-949.865  0.00  0.00     0.038 C 
BRANCH  73  74
ATOM     74  CG  LEU d   7     973.156 265.447-949.399  0.00  0.00    -0.020 C 
ATOM     75  CD1 LEU d   7     971.967 264.740-950.066  0.00  0.00     0.009 C 
ATOM     76  CD2 LEU d   7     974.450 264.668-949.690  0.00  0.00     0.009 C 
ENDBRANCH  73  74
ENDBRANCH  15  73
ENDBRANCH  12  15
ENDBRANCH  10  11
BRANCH  10  77
ATOM     77  CB  ASP d   8     972.371 272.210-949.262  0.00  0.00     0.147 C 
BRANCH  77  78
ATOM     78  CG  ASP d   8     972.151 273.631-949.802  0.00  0.00     0.175 C 
ATOM     79  OD1 ASP d   8     972.216 273.830-951.033  0.00  0.00    -0.648 OA
ATOM     80  OD2 ASP d   8     971.958 274.557-948.987  0.00  0.00    -0.648 OA
ENDBRANCH  77  78
ENDBRANCH  10  77
ENDBRANCH   7  10
ENDBRANCH   5   6
BRANCH   5  81
ATOM     81  CB  GLU d   9     977.410 272.453-947.387  0.00  0.00     0.045 C 
BRANCH  81  82
ATOM     82  CG  GLU d   9     978.792 273.146-947.157  0.00  0.00     0.116 C 
BRANCH  82  83
ATOM     83  CD  GLU d   9     979.493 272.933-945.828  0.00  0.00     0.172 C 
ATOM     84  OE1 GLU d   9     978.971 272.242-944.932  0.00  0.00    -0.648 OA
ATOM     85  OE2 GLU d   9     980.612 273.472-945.695  0.00  0.00    -0.648 OA
ENDBRANCH  82  83
ENDBRANCH  81  82
ENDBRANCH   5  81
ENDBRANCH   1   5
BRANCH   3  86
ATOM     86  CA  HIS d  10     978.683 270.349-951.078  0.00  0.00     0.182 C 
BRANCH  86  87
ATOM     87  C   HIS d  10     978.316 270.913-952.429  0.00  0.00     0.241 C 
ATOM     88  O   HIS d  10     979.169 271.379-953.200  0.00  0.00    -0.271 OA
ATOM     89  N   VAL d  11     977.079 270.912-952.793  0.00  0.00    -0.346 N 
ATOM     90  H   VAL d  11     976.366 270.538-952.183  0.00  0.00     0.163 HD
BRANCH  89  91
ATOM     91  CA  VAL d  11     976.724 271.458-954.100  0.00  0.00     0.180 C 
BRANCH  91  92
ATOM     92  C   VAL d  11     977.188 272.889-954.232  0.00  0.00     0.241 C 
ATOM     93  O   VAL d  11     977.789 273.295-955.234  0.00  0.00    -0.271 OA
ATOM     94  N   GLN d  12     976.950 273.714-953.269  0.00  0.00    -0.346 N 
ATOM     95  H   GLN d  12     976.460 273.408-952.440  0.00  0.00     0.163 HD
BRANCH  94  96
ATOM     96  CA  GLN d  12     977.397 275.098-953.396  0.00  0.00     0.177 C 
BRANCH  96  97
ATOM     97  C   GLN d  12     978.887 275.166-953.632  0.00  0.00     0.241 C 
ATOM     98  O   GLN d  12     979.375 275.875-954.510  0.00  0.00    -0.271 OA
ATOM     99  N   ARG d  13     979.672 274.459-952.891  0.00  0.00    -0.346 N 
ATOM    100  H   ARG d  13     979.295 273.869-952.163  0.00  0.00     0.163 HD
BRANCH  99 101
ATOM    101  CA  ARG d  13     981.112 274.526-953.121  0.00  0.00     0.176 C 
BRANCH 101 102
ATOM    102  C   ARG d  13     981.450 274.155-954.546  0.00  0.00     0.241 C 
ATOM    103  O   ARG d  13     982.218 274.828-955.229  0.00  0.00    -0.271 OA
ATOM    104  N   VAL d  14     980.915 273.101-955.061  0.00  0.00    -0.346 N 
ATOM    105  H   VAL d  14     980.280 272.532-954.520  0.00  0.00     0.163 HD
BRANCH 104 106
ATOM    106  CA  VAL d  14     981.241 272.742-956.438  0.00  0.00     0.180 C 
BRANCH 106 107
ATOM    107  C   VAL d  14     980.911 273.872-957.384  0.00  0.00     0.241 C 
ATOM    108  O   VAL d  14     981.704 274.255-958.253  0.00  0.00    -0.271 OA
ATOM    109  N   MET d  15     979.765 274.458-957.282  0.00  0.00    -0.346 N 
ATOM    110  H   MET d  15     979.100 274.164-956.581  0.00  0.00     0.163 HD
BRANCH 109 111
ATOM    111  CA  MET d  15     979.445 275.551-958.196  0.00  0.00     0.177 C 
BRANCH 111 112
ATOM    112  C   MET d  15     980.475 276.651-958.107  0.00  0.00     0.241 C 
ATOM    113  O   MET d  15     980.978 277.162-959.119  0.00  0.00    -0.271 OA
ATOM    114  N   ARG d  16     980.842 277.072-956.944  0.00  0.00    -0.347 N 
ATOM    115  H   ARG d  16     980.447 276.671-956.105  0.00  0.00     0.163 HD
BRANCH 114 116
ATOM    116  CA  ARG d  16     981.838 278.136-956.859  0.00  0.00     0.162 C 
BRANCH 116 117
ATOM    117  C   ARG d  16     983.110 277.744-957.575  0.00  0.00     0.219 C 
ATOM    118  O   ARG d  16     983.224 276.668-958.157  0.00  0.00    -0.287 OA
ENDBRANCH 116 117
BRANCH 116 119
ATOM    119  CB  ARG d  16     982.106 278.453-955.361  0.00  0.00     0.035 C 
BRANCH 119 120
ATOM    120  CG  ARG d  16     982.931 279.742-955.087  0.00  0.00     0.023 C 
BRANCH 120 121
ATOM    121  CD  ARG d  16     983.179 279.961-953.585  0.00  0.00     0.138 C 
BRANCH 121 122
ATOM    122  NE  ARG d  16     983.955 281.220-953.383  0.00  0.00    -0.227 N 
ATOM    123  CZ  ARG d  16     984.345 281.702-952.207  0.00  0.00     0.665 C 
ATOM    124  NH1 ARG d  16     984.097 281.117-951.069  0.00  0.00    -0.235 N 
ATOM    125  NH2 ARG d  16     985.008 282.815-952.187  0.00  0.00    -0.235 N 
ATOM    126 11HH ARG d  16     983.572 280.244-951.154  0.00  0.00     0.174 HD
ATOM    127 12HH ARG d  16     984.430 281.553-950.207  0.00  0.00     0.174 HD
ATOM    128 21HH ARG d  16     985.194 283.259-953.089  0.00  0.00     0.174 HD
ATOM    129 22HH ARG d  16     985.298 283.170-951.275  0.00  0.00     0.174 HD
ATOM    130  HE  ARG d  16     984.233 281.802-954.180  0.00  0.00     0.177 HD
ENDBRANCH 121 122
ENDBRANCH 120 121
ENDBRANCH 119 120
ENDBRANCH 116 119
ENDBRANCH 114 116
ENDBRANCH 111 112
BRANCH 111 131
ATOM    131  CB  MET d  15     978.023 276.095-957.888  0.00  0.00     0.045 C 
BRANCH 131 132
ATOM    132  CG  MET d  15     976.862 275.097-958.081  0.00  0.00     0.076 C 
BRANCH 132 133
ATOM    133  SD  MET d  15     975.287 275.962-957.967  0.00  0.00    -0.173 SA
ATOM    134  CE  MET d  15     974.207 274.532-957.832  0.00  0.00     0.089 C 
ENDBRANCH 132 133
ENDBRANCH 131 132
ENDBRANCH 111 131
ENDBRANCH 109 111
ENDBRANCH 106 107
BRANCH 106 135
ATOM    135  CB  VAL d  14     980.469 271.425-956.846  0.00  0.00     0.009 C 
ATOM    136  CG1 VAL d  14     980.559 271.007-958.340  0.00  0.00     0.012 C 
ATOM    137  CG2 VAL d  14     980.901 270.173-956.046  0.00  0.00     0.012 C 
ENDBRANCH 106 135
ENDBRANCH 104 106
ENDBRANCH 101 102
BRANCH 101 138
ATOM    138  CB  ARG d  13     981.826 273.587-952.107  0.00  0.00     0.036 C 
BRANCH 138 139
ATOM    139  CG  ARG d  13     983.370 273.741-952.024  0.00  0.00     0.023 C 
BRANCH 139 140
ATOM    140  CD  ARG d  13     983.997 272.753-951.027  0.00  0.00     0.138 C 
BRANCH 140 141
ATOM    141  NE  ARG d  13     985.474 272.961-950.975  0.00  0.00    -0.227 N 
ATOM    142  CZ  ARG d  13     986.322 272.270-950.219  0.00  0.00     0.665 C 
ATOM    143  NH1 ARG d  13     985.957 271.305-949.423  0.00  0.00    -0.235 N 
ATOM    144  NH2 ARG d  13     987.581 272.569-950.275  0.00  0.00    -0.235 N 
ATOM    145 11HH ARG d  13     984.951 271.118-949.427  0.00  0.00     0.174 HD
ATOM    146 12HH ARG d  13     986.670 270.822-948.874  0.00  0.00     0.174 HD
ATOM    147 21HH ARG d  13     987.849 273.328-950.906  0.00  0.00     0.174 HD
ATOM    148 22HH ARG d  13     988.216 272.028-949.686  0.00  0.00     0.174 HD
ATOM    149  HE  ARG d  13     985.925 273.684-951.545  0.00  0.00     0.177 HD
ENDBRANCH 140 141
ENDBRANCH 139 140
ENDBRANCH 138 139
ENDBRANCH 101 138
ENDBRANCH  99 101
ENDBRANCH  96  97
BRANCH  96 150
ATOM    150  CB  GLN d  12     977.005 275.864-952.113  0.00  0.00     0.044 C 
BRANCH 150 151
ATOM    151  CG  GLN d  12     977.364 277.386-952.081  0.00  0.00     0.105 C 
BRANCH 151 152
ATOM    152  CD  GLN d  12     977.061 278.199-950.816  0.00  0.00     0.215 C 
ATOM    153  NE2 GLN d  12     976.493 277.622-949.788  0.00  0.00    -0.370 N 
ATOM    154 21HE GLN d  12     976.385 278.217-948.964  0.00  0.00     0.159 HD
ATOM    155 22HE GLN d  12     976.330 276.619-949.892  0.00  0.00     0.159 HD
ATOM    156  OE1 GLN d  12     977.362 279.380-950.738  0.00  0.00    -0.274 OA
ENDBRANCH 151 152
ENDBRANCH 150 151
ENDBRANCH  96 150
ENDBRANCH  94  96
ENDBRANCH  91  92
BRANCH  91 157
ATOM    157  CB  VAL d  11     975.163 271.350-954.320  0.00  0.00     0.009 C 
ATOM    158  CG1 VAL d  11     974.595 272.055-955.583  0.00  0.00     0.012 C 
ATOM    159  CG2 VAL d  11     974.640 269.896-954.394  0.00  0.00     0.012 C 
ENDBRANCH  91 157
ENDBRANCH  89  91
ENDBRANCH  86  87
BRANCH  86 160
ATOM    160  CB  HIS d  10     978.520 268.820-951.074  0.00  0.00     0.095 C 
BRANCH 160 161
ATOM    161  CG  HIS d  10     979.806 268.110-950.765  0.00  0.00     0.053 A 
ATOM    162  CD2 HIS d  10     980.186 267.775-949.472  0.00  0.00     0.116 A 
ATOM    163  NE2 HIS d  10     981.401 267.144-949.538  0.00  0.00    -0.359 N 
ATOM    164  CE1 HIS d  10     981.665 267.147-950.873  0.00  0.00     0.207 A 
ATOM    165  2HE HIS d  10     981.967 266.766-948.765  0.00  0.00     0.166 HD
ATOM    166  ND1 HIS d  10     980.758 267.705-951.697  0.00  0.00    -0.247 NA
ENDBRANCH 160 161
ENDBRANCH  86 160
ENDBRANCH   3  86
TORSDOF 68
