@<TRIPOS>MOLECULE
16-18
256 257 16              
SMALL
USER_CHARGES
@<TRIPOS>ATOM
1	   N	2633.341	806.745	-2754.482	N.3	1	GLU1	-0.516	
2	  CA	2633.900	808.094	-2754.482	C.3	1	GLU1	0.040	
3	   C	2635.409	808.054	-2754.482	C.2	1	GLU1	0.537	
4	   O	2636.084	808.753	-2755.251	O.2	1	GLU1	-0.582	
5	  CB	2633.376	808.879	-2753.245	C.3	1	GLU1	0.056	
6	  CG	2633.852	810.364	-2753.134	C.3	1	GLU1	0.014	
7	  CD	2633.427	811.168	-2751.919	C.2	1	GLU1	0.805	
8	 OE1	2632.699	810.666	-2751.041	O.co2	1	GLU1	-0.819	
9	 OE2	2633.858	812.338	-2751.847	O.co2	1	GLU1	-0.819	
10	   H	2633.968	805.866	-2754.482	 H	1	GLU1	0.294	
11	  HA	2633.573	808.612	-2755.402	 H	1	GLU1	0.111	
12	 2HB	2633.666	808.348	-2752.315	 H	1	GLU1	-0.017	
13	 3HB	2632.270	808.869	-2753.232	 H	1	GLU1	-0.017	
14	 2HG	2633.542	810.949	-2754.015	 H	1	GLU1	-0.043	
15	 3HG	2634.952	810.431	-2753.105	 H	1	GLU1	-0.043	
16	   N	2636.013	807.268	-2753.657	N.am	2	ASN2	-0.416	
17	  CA	2637.472	807.229	-2753.657	C.3	2	ASN2	0.014	
18	   C	2638.004	806.873	-2755.025	C.2	2	ASN2	0.597	
19	   O	2638.919	807.503	-2755.553	O.2	2	ASN2	-0.568	
20	  CB	2637.964	806.206	-2752.592	C.3	2	ASN2	-0.204	
21	  CG	2637.501	806.430	-2751.149	C.2	2	ASN2	0.713	
22	 ND2	2638.095	807.344	-2750.431	N.pl3	2	ASN2	-0.919	
23	 OD1	2636.580	805.796	-2750.655	O.2	2	ASN2	-0.593	
24	   H	2635.485	806.688	-2753.021	 H	2	ASN2	0.272	
25	  HA	2637.850	808.238	-2753.411	 H	2	ASN2	0.105	
26	 2HB	2639.068	806.147	-2752.595	 H	2	ASN2	0.080	
27	 3HB	2637.635	805.187	-2752.878	 H	2	ASN2	0.080	
28	1HD2	2637.614	807.518	-2749.544	 H	2	ASN2	0.420	
29	2HD2	2638.797	807.916	-2750.900	 H	2	ASN2	0.420	
30	   N	2637.482	805.878	-2755.660	N.am	3	PRO3	-0.255	
31	  CA	2637.935	805.469	-2756.981	C.3	3	PRO3	-0.027	
32	   C	2637.537	806.493	-2758.058	C.2	3	PRO3	0.590	
33	   O	2638.360	806.876	-2758.889	O.2	3	PRO3	-0.575	
34	  CB	2637.230	804.114	-2757.151	C.3	3	PRO3	-0.007	
35	  CG	2635.947	804.267	-2756.321	C.3	3	PRO3	0.019	
36	  CD	2636.404	805.085	-2755.111	C.3	3	PRO3	0.019	
37	  HA	2639.021	805.349	-2756.994	 H	3	PRO3	0.064	
38	 2HB	2637.853	803.333	-2756.710	 H	3	PRO3	0.025	
39	 3HB	2637.032	803.866	-2758.196	 H	3	PRO3	0.025	
40	 2HG	2635.519	803.305	-2756.030	 H	3	PRO3	0.021	
41	 3HG	2635.209	804.838	-2756.888	 H	3	PRO3	0.021	
42	 2HD	2636.793	804.436	-2754.323	 H	3	PRO3	0.039	
43	 3HD	2635.607	805.721	-2754.718	 H	3	PRO3	0.039	
44	   N	2636.332	806.953	-2758.091	N.am	4	GLU4	-0.516	
45	  CA	2635.973	807.924	-2759.121	C.3	4	GLU4	0.040	
46	   C	2636.872	809.135	-2759.059	C.2	4	GLU4	0.537	
47	   O	2637.399	809.614	-2760.073	O.2	4	GLU4	-0.582	
48	  CB	2634.484	808.343	-2758.951	C.3	4	GLU4	0.056	
49	  CG	2633.937	809.347	-2760.017	C.3	4	GLU4	0.014	
50	  CD	2632.510	809.844	-2759.874	C.2	4	GLU4	0.805	
51	 OE1	2631.784	809.445	-2758.943	O.co2	4	GLU4	-0.819	
52	 OE2	2632.122	810.673	-2760.722	O.co2	4	GLU4	-0.819	
53	   H	2635.647	806.646	-2757.414	 H	4	GLU4	0.294	
54	  HA	2636.104	807.453	-2760.112	 H	4	GLU4	0.111	
55	 2HB	2634.332	808.783	-2757.944	 H	4	GLU4	-0.017	
56	 3HB	2633.836	807.445	-2758.957	 H	4	GLU4	-0.017	
57	 2HG	2634.019	808.932	-2761.035	 H	4	GLU4	-0.043	
58	 3HG	2634.525	810.279	-2760.028	 H	4	GLU4	-0.043	
59	   N	2637.099	809.687	-2757.916	N.am	5	SER5	-0.416	
60	  CA	2637.969	810.858	-2757.857	C.3	5	SER5	-0.025	
61	   C	2639.328	810.552	-2758.442	C.2	5	SER5	0.597	
62	   O	2639.876	811.306	-2759.247	O.2	5	SER5	-0.568	
63	  CB	2638.080	811.390	-2756.406	C.3	5	SER5	0.212	
64	  OG	2638.811	810.511	-2755.545	O.3	5	SER5	-0.655	
65	   H	2636.682	809.316	-2757.074	 H	5	SER5	0.272	
66	  HA	2637.520	811.649	-2758.486	 H	5	SER5	0.084	
67	 2HB	2637.080	811.584	-2755.973	 H	5	SER5	0.035	
68	 3HB	2638.586	812.376	-2756.408	 H	5	SER5	0.035	
69	  HG	2638.322	809.686	-2755.495	 H	5	SER5	0.428	
70	   N	2639.932	809.469	-2758.088	N.am	6	ILE6	-0.416	
71	  CA	2641.245	809.173	-2758.654	C.3	6	ILE6	-0.060	
72	   C	2641.188	809.136	-2760.162	C.2	6	ILE6	0.597	
73	   O	2642.023	809.723	-2760.865	O.2	6	ILE6	-0.568	
74	  CB	2641.844	807.837	-2758.053	C.3	6	ILE6	0.130	
75	 CG1	2641.863	807.775	-2756.493	C.3	6	ILE6	-0.043	
76	 CG2	2643.286	807.535	-2758.569	C.3	6	ILE6	-0.320	
77	 CD1	2642.133	806.385	-2755.877	C.3	6	ILE6	-0.066	
78	   H	2639.503	808.835	-2757.429	 H	6	ILE6	0.272	
79	  HA	2641.920	810.007	-2758.386	 H	6	ILE6	0.087	
80	  HB	2641.186	807.011	-2758.398	 H	6	ILE6	0.019	
81	2HG1	2640.881	808.095	-2756.097	 H	6	ILE6	0.024	
82	3HG1	2642.579	808.517	-2756.088	 H	6	ILE6	0.024	
83	1HG2	2643.345	807.441	-2759.667	 H	6	ILE6	0.088	
84	2HG2	2644.008	808.317	-2758.266	 H	6	ILE6	0.088	
85	3HG2	2643.675	806.573	-2758.190	 H	6	ILE6	0.088	
86	1HD1	2641.404	805.632	-2756.232	 H	6	ILE6	0.019	
87	2HD1	2643.143	806.007	-2756.113	 H	6	ILE6	0.019	
88	3HD1	2642.056	806.416	-2754.775	 H	6	ILE6	0.019	
89	   N	2640.242	808.473	-2760.735	N.am	7	LEU7	-0.416	
90	  CA	2640.187	808.436	-2762.194	C.3	7	LEU7	-0.052	
91	   C	2640.115	809.832	-2762.767	C.2	7	LEU7	0.597	
92	   O	2640.836	810.193	-2763.709	O.2	7	LEU7	-0.568	
93	  CB	2638.984	807.577	-2762.674	C.3	7	LEU7	-0.110	
94	  CG	2638.911	806.097	-2762.208	C.3	7	LEU7	0.353	
95	 CD1	2637.721	805.392	-2762.873	C.3	7	LEU7	-0.412	
96	 CD2	2640.204	805.318	-2762.499	C.3	7	LEU7	-0.412	
97	   H	2639.550	807.986	-2760.184	 H	7	LEU7	0.272	
98	  HA	2641.129	807.996	-2762.568	 H	7	LEU7	0.092	
99	 2HB	2638.961	807.592	-2763.782	 H	7	LEU7	0.046	
100	 3HB	2638.044	808.079	-2762.370	 H	7	LEU7	0.046	
101	  HG	2638.741	806.089	-2761.110	 H	7	LEU7	-0.036	
102	1HD1	2636.763	805.901	-2762.650	 H	7	LEU7	0.100	
103	2HD1	2637.820	805.351	-2763.974	 H	7	LEU7	0.100	
104	3HD1	2637.613	804.351	-2762.517	 H	7	LEU7	0.100	
105	1HD2	2640.479	805.348	-2763.569	 H	7	LEU7	0.100	
106	2HD2	2641.057	805.729	-2761.927	 H	7	LEU7	0.100	
107	3HD2	2640.122	804.255	-2762.203	 H	7	LEU7	0.100	
108	   N	2639.278	810.673	-2762.261	N.am	8	ASP8	-0.516	
109	  CA	2639.208	812.022	-2762.815	C.3	8	ASP8	0.038	
110	   C	2640.556	812.701	-2762.758	C.2	8	ASP8	0.537	
111	   O	2641.029	813.305	-2763.733	O.2	8	ASP8	-0.582	
112	  CB	2638.131	812.862	-2762.074	C.3	8	ASP8	-0.030	
113	  CG	2637.913	814.283	-2762.615	C.2	8	ASP8	0.799	
114	 OD1	2637.977	814.481	-2763.846	O.co2	8	ASP8	-0.801	
115	 OD2	2637.721	815.209	-2761.800	O.co2	8	ASP8	-0.801	
116	   H	2638.680	810.403	-2761.493	 H	8	ASP8	0.294	
117	  HA	2638.926	811.944	-2763.882	 H	8	ASP8	0.088	
118	 2HB	2638.388	812.946	-2761.002	 H	8	ASP8	-0.012	
119	 3HB	2637.152	812.357	-2762.106	 H	8	ASP8	-0.012	
120	   N	2641.236	812.652	-2761.663	N.am	9	GLU9	-0.516	
121	  CA	2642.539	813.309	-2761.608	C.3	9	GLU9	0.040	
122	   C	2643.456	812.780	-2762.684	C.2	9	GLU9	0.537	
123	   O	2644.120	813.534	-2763.410	O.2	9	GLU9	-0.582	
124	  CB	2643.172	813.101	-2760.203	C.3	9	GLU9	0.056	
125	  CG	2644.555	813.793	-2759.974	C.3	9	GLU9	0.014	
126	  CD	2645.257	813.580	-2758.646	C.2	9	GLU9	0.805	
127	 OE1	2644.736	812.890	-2757.749	O.co2	9	GLU9	-0.819	
128	 OE2	2646.377	814.118	-2758.515	O.co2	9	GLU9	-0.819	
129	   H	2640.872	812.166	-2760.855	 H	9	GLU9	0.294	
130	  HA	2642.397	814.391	-2761.784	 H	9	GLU9	0.111	
131	 2HB	2643.285	812.017	-2759.999	 H	9	GLU9	-0.017	
132	 3HB	2642.476	813.456	-2759.418	 H	9	GLU9	-0.017	
133	 2HG	2644.484	814.884	-2760.114	 H	9	GLU9	-0.043	
134	 3HG	2645.302	813.448	-2760.708	 H	9	GLU9	-0.043	
135	   N	2643.552	811.505	-2762.853	N.am	10	HIS10	-0.416	
136	  CA	2644.439	810.992	-2763.893	C.3	10	HIS10	-0.058	
137	   C	2644.073	811.557	-2765.245	C.2	10	HIS10	0.597	
138	   O	2644.925	812.021	-2766.017	O.2	10	HIS10	-0.568	
139	  CB	2644.275	809.464	-2763.888	C.3	10	HIS10	-0.007	
140	  CG	2645.560	808.753	-2763.580	C.2	10	HIS10	0.187	
141	 CD2	2645.942	808.418	-2762.287	C.2	10	HIS10	-0.221	
142	 ND1	2646.512	808.346	-2764.512	N.2	10	HIS10	-0.543	
143	 CE1	2647.418	807.788	-2763.689	C.2	10	HIS10	0.163	
144	 NE2	2647.156	807.786	-2762.354	N.pl3	10	HIS10	-0.280	
145	   H	2643.021	810.870	-2762.274	 H	10	HIS10	0.272	
146	  HA	2645.459	811.350	-2763.669	 H	10	HIS10	0.136	
147	 2HB	2643.909	809.096	-2764.867	 H	10	HIS10	0.037	
148	 3HB	2643.519	809.127	-2763.147	 H	10	HIS10	0.037	
149	 2HD	2645.356	808.634	-2761.398	 H	10	HIS10	0.186	
150	 1HE	2648.309	807.366	-2764.136	 H	10	HIS10	0.144	
151	 2HE	2647.723	807.409	-2761.581	 H	10	HIS10	0.334	
152	   N	2642.835	811.556	-2765.607	N.am	11	VAL11	-0.416	
153	  CA	2642.479	812.102	-2766.915	C.3	11	VAL11	-0.087	
154	   C	2642.945	813.532	-2767.048	C.2	11	VAL11	0.597	
155	   O	2643.546	813.936	-2768.051	O.2	11	VAL11	-0.568	
156	  CB	2640.918	811.996	-2767.134	C.3	11	VAL11	0.299	
157	 CG1	2640.350	812.699	-2768.396	C.3	11	VAL11	-0.319	
158	 CG2	2640.393	810.542	-2767.206	C.3	11	VAL11	-0.319	
159	   H	2642.122	811.184	-2764.997	 H	11	VAL11	0.272	
160	  HA	2642.999	811.518	-2767.697	 H	11	VAL11	0.097	
161	  HB	2640.431	812.477	-2766.259	 H	11	VAL11	-0.030	
162	1HG1	2640.788	812.307	-2769.333	 H	11	VAL11	0.079	
163	2HG1	2639.251	812.592	-2768.479	 H	11	VAL11	0.079	
164	3HG1	2640.529	813.792	-2768.388	 H	11	VAL11	0.079	
165	1HG2	2640.683	809.955	-2766.315	 H	11	VAL11	0.079	
166	2HG2	2639.287	810.505	-2767.248	 H	11	VAL11	0.079	
167	3HG2	2640.774	810.000	-2768.092	 H	11	VAL11	0.079	
168	   N	2642.708	814.358	-2766.086	N.am	12	GLN12	-0.416	
169	  CA	2643.158	815.741	-2766.214	C.3	12	GLN12	-0.003	
170	   C	2644.647	815.807	-2766.452	C.2	12	GLN12	0.597	
171	   O	2645.135	816.515	-2767.331	O.2	12	GLN12	-0.568	
172	  CB	2642.767	816.509	-2764.931	C.3	12	GLN12	-0.004	
173	  CG	2643.129	818.031	-2764.901	C.3	12	GLN12	-0.064	
174	  CD	2642.827	818.845	-2763.637	C.2	12	GLN12	0.695	
175	 NE2	2642.260	818.270	-2762.607	N.pl3	12	GLN12	-0.941	
176	 OE1	2643.130	820.026	-2763.560	O.2	12	GLN12	-0.609	
177	   H	2642.220	814.053	-2765.256	 H	12	GLN12	0.272	
178	  HA	2642.658	816.197	-2767.089	 H	12	GLN12	0.085	
179	 2HB	2643.243	816.009	-2764.062	 H	12	GLN12	0.017	
180	 3HB	2641.677	816.403	-2764.768	 H	12	GLN12	0.017	
181	 2HG	2642.651	818.552	-2765.752	 H	12	GLN12	0.035	
182	 3HG	2644.212	818.172	-2765.067	 H	12	GLN12	0.035	
183	1HE2	2642.154	818.865	-2761.784	 H	12	GLN12	0.425	
184	2HE2	2642.096	817.266	-2762.710	 H	12	GLN12	0.425	
185	   N	2645.432	815.101	-2765.711	N.am	13	ARG13	-0.348	
186	  CA	2646.872	815.166	-2765.942	C.3	13	ARG13	-0.264	
187	   C	2647.208	814.793	-2767.367	C.2	13	ARG13	0.734	
188	   O	2647.977	815.464	-2768.052	O.2	13	ARG13	-0.589	
189	  CB	2647.585	814.227	-2764.927	C.3	13	ARG13	-0.001	
190	  CG	2649.131	814.380	-2764.847	C.3	13	ARG13	0.039	
191	  CD	2649.758	813.393	-2763.849	C.3	13	ARG13	0.049	
192	  NE	2651.235	813.600	-2763.799	N.pl3	13	ARG13	-0.530	
193	  CZ	2652.083	812.909	-2763.043	C.cat	13	ARG13	0.808	
194	 NH1	2651.718	811.945	-2762.245	N.pl3	13	ARG13	-0.863	
195	 NH2	2653.343	813.207	-2763.101	N.pl3	13	ARG13	-0.863	
196	   H	2645.056	814.511	-2764.982	 H	13	ARG13	0.275	
197	  HA	2647.197	816.212	-2765.784	 H	13	ARG13	0.156	
198	 2HB	2647.319	813.177	-2765.166	 H	13	ARG13	0.033	
199	 3HB	2647.161	814.395	-2763.917	 H	13	ARG13	0.033	
200	 2HG	2649.379	815.425	-2764.569	 H	13	ARG13	0.029	
201	 3HG	2649.581	814.223	-2765.849	 H	13	ARG13	0.029	
202	 2HD	2649.513	812.353	-2764.157	 H	13	ARG13	0.069	
203	 3HD	2649.302	813.540	-2762.846	 H	13	ARG13	0.069	
204	  HE	2651.686	814.321	-2764.370	 H	13	ARG13	0.346	
205	1HH1	2650.712	811.759	-2762.248	 H	13	ARG13	0.448	
206	2HH1	2652.431	811.462	-2761.696	 H	13	ARG13	0.448	
207	1HH2	2653.610	813.965	-2763.733	 H	13	ARG13	0.448	
208	2HH2	2653.978	812.666	-2762.512	 H	13	ARG13	0.448	
209	   N	2646.671	813.739	-2767.880	N.am	14	VAL14	-0.416	
210	  CA	2646.996	813.378	-2769.258	C.3	14	VAL14	-0.087	
211	   C	2646.666	814.508	-2770.204	C.2	14	VAL14	0.597	
212	   O	2647.459	814.889	-2771.073	O.2	14	VAL14	-0.568	
213	  CB	2646.223	812.061	-2769.664	C.3	14	VAL14	0.299	
214	 CG1	2646.312	811.642	-2771.157	C.3	14	VAL14	-0.319	
215	 CG2	2646.655	810.809	-2768.863	C.3	14	VAL14	-0.319	
216	   H	2646.036	813.170	-2767.338	 H	14	VAL14	0.272	
217	  HA	2648.084	813.201	-2769.333	 H	14	VAL14	0.097	
218	  HB	2645.147	812.233	-2769.448	 H	14	VAL14	-0.030	
219	1HG1	2647.353	811.465	-2771.486	 H	14	VAL14	0.079	
220	2HG1	2645.738	810.719	-2771.369	 H	14	VAL14	0.079	
221	3HG1	2645.883	812.404	-2771.835	 H	14	VAL14	0.079	
222	1HG2	2646.568	810.969	-2767.772	 H	14	VAL14	0.079	
223	2HG2	2646.018	809.933	-2769.094	 H	14	VAL14	0.079	
224	3HG2	2647.702	810.519	-2769.069	 H	14	VAL14	0.079	
225	   N	2645.521	815.094	-2770.102	N.am	15	MET15	-0.416	
226	  CA	2645.201	816.187	-2771.016	C.3	15	MET15	-0.024	
227	   C	2646.231	817.287	-2770.929	C.2	15	MET15	0.597	
228	   O	2646.734	817.797	-2771.942	O.2	15	MET15	-0.568	
229	  CB	2643.780	816.732	-2770.707	C.3	15	MET15	0.034	
230	  CG	2642.617	815.735	-2770.898	C.3	15	MET15	0.002	
231	  SD	2641.044	816.601	-2770.784	S.3	15	MET15	-0.274	
232	  CE	2639.963	815.171	-2770.646	C.3	15	MET15	-0.054	
233	   H	2644.856	814.802	-2769.400	 H	15	MET15	0.272	
234	  HA	2645.227	815.799	-2772.052	 H	15	MET15	0.088	
235	 2HB	2643.577	817.611	-2771.349	 H	15	MET15	0.024	
236	 3HB	2643.744	817.126	-2769.671	 H	15	MET15	0.024	
237	 2HG	2642.661	814.949	-2770.120	 H	15	MET15	0.044	
238	 3HG	2642.680	815.219	-2771.874	 H	15	MET15	0.044	
239	 1HE	2640.106	814.483	-2771.499	 H	15	MET15	0.068	
240	 2HE	2640.172	814.619	-2769.713	 H	15	MET15	0.068	
241	 3HE	2638.905	815.487	-2770.630	 H	15	MET15	0.068	
242	   N	2646.600	817.708	-2769.767	N.am	16	GLU16	-0.516	
243	  CA	2647.597	818.772	-2769.683	C.3	16	GLU16	0.040	
244	   C	2648.867	818.380	-2770.398	C.2	16	GLU16	0.537	
245	   O	2648.991	817.286	-2770.965	O.2	16	GLU16	-0.582	
246	  CB	2647.892	819.099	-2768.191	C.3	16	GLU16	0.056	
247	  CG	2648.908	820.259	-2767.939	C.3	16	GLU16	0.014	
248	  CD	2649.287	820.588	-2766.507	C.2	16	GLU16	0.805	
249	 OE1	2648.784	819.965	-2765.552	O.co2	16	GLU16	-0.819	
250	 OE2	2650.130	821.495	-2766.348	O.co2	16	GLU16	-0.819	
251	   H	2646.206	817.308	-2768.927	 H	16	GLU16	0.294	
252	  HA	2647.193	819.674	-2770.177	 H	16	GLU16	0.111	
253	 2HB	2648.262	818.190	-2767.675	 H	16	GLU16	-0.017	
254	 3HB	2646.949	819.346	-2767.665	 H	16	GLU16	-0.017	
255	 2HG	2648.558	821.202	-2768.390	 H	16	GLU16	-0.043	
256	 3HG	2649.882	820.047	-2768.411	 H	16	GLU16	-0.043	
@<TRIPOS>BOND
1 1 2 1
2 1 10 1
3 2 3 1
4 2 5 1
5 2 11 1
6 3 4 2
7 3 16 1
8 5 6 1
9 6 7 1
10 7 8 2
11 7 9 1
12 5 12 1
13 5 13 1
14 6 14 1
15 6 15 1
16 16 17 1
17 16 24 1
18 17 18 1
19 17 20 1
20 17 25 1
21 18 19 2
22 18 30 1
23 20 21 1
24 21 22 1
25 21 23 2
26 20 26 1
27 20 27 1
28 22 28 1
29 22 29 1
30 30 31 1
31 30 36 1
32 31 32 1
33 31 34 1
34 31 37 1
35 32 33 2
36 32 44 1
37 34 35 1
38 35 36 1
39 34 38 1
40 34 39 1
41 35 40 1
42 35 41 1
43 36 42 1
44 36 43 1
45 44 45 1
46 44 53 1
47 45 46 1
48 45 48 1
49 45 54 1
50 46 47 2
51 46 59 1
52 48 49 1
53 49 50 1
54 50 51 2
55 50 52 1
56 48 55 1
57 48 56 1
58 49 57 1
59 49 58 1
60 59 60 1
61 59 65 1
62 60 61 1
63 60 63 1
64 60 66 1
65 61 62 2
66 61 70 1
67 63 64 1
68 63 67 1
69 63 68 1
70 64 69 1
71 70 71 1
72 70 78 1
73 71 72 1
74 71 74 1
75 71 79 1
76 72 73 2
77 72 89 1
78 74 75 1
79 74 76 1
80 75 77 1
81 74 80 1
82 75 81 1
83 75 82 1
84 76 83 1
85 76 84 1
86 76 85 1
87 77 86 1
88 77 87 1
89 77 88 1
90 89 90 1
91 89 97 1
92 90 91 1
93 90 93 1
94 90 98 1
95 91 92 2
96 91 108 1
97 93 94 1
98 94 95 1
99 94 96 1
100 93 99 1
101 93 100 1
102 94 101 1
103 95 102 1
104 95 103 1
105 95 104 1
106 96 105 1
107 96 106 1
108 96 107 1
109 108 109 1
110 108 116 1
111 109 110 1
112 109 112 1
113 109 117 1
114 110 111 2
115 110 120 1
116 112 113 1
117 113 114 2
118 113 115 1
119 112 118 1
120 112 119 1
121 120 121 1
122 120 129 1
123 121 122 1
124 121 124 1
125 121 130 1
126 122 123 2
127 122 135 1
128 124 125 1
129 125 126 1
130 126 127 2
131 126 128 1
132 124 131 1
133 124 132 1
134 125 133 1
135 125 134 1
136 135 136 1
137 135 145 1
138 136 137 1
139 136 139 1
140 136 146 1
141 137 138 2
142 137 152 1
143 139 140 1
144 140 141 2
145 141 144 1
146 140 142 1
147 142 143 2
148 143 144 1
149 139 147 1
150 139 148 1
151 141 149 1
152 143 150 1
153 144 151 1
154 152 153 1
155 152 159 1
156 153 154 1
157 153 156 1
158 153 160 1
159 154 155 2
160 154 168 1
161 156 157 1
162 156 158 1
163 156 161 1
164 157 162 1
165 157 163 1
166 157 164 1
167 158 165 1
168 158 166 1
169 158 167 1
170 168 169 1
171 168 177 1
172 169 170 1
173 169 172 1
174 169 178 1
175 170 171 2
176 170 185 1
177 172 173 1
178 173 174 1
179 174 175 1
180 174 176 2
181 172 179 1
182 172 180 1
183 173 181 1
184 173 182 1
185 175 183 1
186 175 184 1
187 185 186 1
188 185 196 1
189 186 187 1
190 186 189 1
191 186 197 1
192 187 188 2
193 187 209 1
194 189 190 1
195 190 191 1
196 191 192 1
197 192 193 1
198 193 194 2
199 193 195 1
200 189 198 1
201 189 199 1
202 190 200 1
203 190 201 1
204 191 202 1
205 191 203 1
206 192 204 1
207 194 205 1
208 194 206 1
209 195 207 1
210 195 208 1
211 209 210 1
212 209 216 1
213 210 211 1
214 210 213 1
215 210 217 1
216 211 212 2
217 211 225 1
218 213 214 1
219 213 215 1
220 213 218 1
221 214 219 1
222 214 220 1
223 214 221 1
224 215 222 1
225 215 223 1
226 215 224 1
227 225 226 1
228 225 233 1
229 226 227 1
230 226 229 1
231 226 234 1
232 227 228 2
233 227 242 1
234 229 230 1
235 230 231 1
236 231 232 1
237 229 235 1
238 229 236 1
239 230 237 1
240 230 238 1
241 232 239 1
242 232 240 1
243 232 241 1
244 242 243 1
245 242 251 1
246 243 244 1
247 243 246 1
248 243 252 1
249 244 245 2
250 246 247 1
251 247 248 1
252 248 249 2
253 248 250 1
254 246 253 1
255 246 254 1
256 247 255 1
257 247 256 1
@<TRIPOS>SUBSTRUCTURE
1	GLU1	1	RESIDUE	1 ****	GLU
2	ASN2	16	RESIDUE	1 ****	ASN
3	PRO3	30	RESIDUE	1 ****	PRO
4	GLU4	44	RESIDUE	1 ****	GLU
5	SER5	59	RESIDUE	1 ****	SER
6	ILE6	70	RESIDUE	1 ****	ILE
7	LEU7	89	RESIDUE	1 ****	LEU
8	ASP8	108	RESIDUE	1 ****	ASP
9	GLU9	120	RESIDUE	1 ****	GLU
10	HIS10	135	RESIDUE	1 ****	HIS
11	VAL11	152	RESIDUE	1 ****	VAL
12	GLN12	168	RESIDUE	1 ****	GLN
13	ARG13	185	RESIDUE	1 ****	ARG
14	VAL14	209	RESIDUE	1 ****	VAL
15	MET15	225	RESIDUE	1 ****	MET
16	GLU16	242	RESIDUE	1 ****	GLU
