REMARK WARNING: 32 MAX_TORS EXCEEDED!!!
REMARK  66 active torsions:
REMARK  status: ('A' for Active; 'I' for Inactive)
REMARK    1  A    between atoms: N_1  and  CA_2 
REMARK    2  A    between atoms: CA_2  and  C_3 
REMARK    3  A    between atoms: CA_2  and  CB_5 
REMARK       I    between atoms: C_3  and  N_11 
REMARK    4  A    between atoms: CB_5  and  CG_6 
REMARK    5  A    between atoms: CG_6  and  CD_7 
REMARK    6  A    between atoms: N_11  and  CA_12 
REMARK    7  A    between atoms: CA_12  and  C_13 
REMARK    8  A    between atoms: CA_12  and  CB_15 
REMARK       I    between atoms: C_13  and  N_22 
REMARK    9  A    between atoms: CB_15  and  CG_16 
REMARK       I    between atoms: CG_16  and  ND2_17 
REMARK   10  A    between atoms: CA_23  and  C_24 
REMARK       I    between atoms: C_24  and  N_29 
REMARK   11  A    between atoms: N_29  and  CA_30 
REMARK   12  A    between atoms: CA_30  and  C_31 
REMARK   13  A    between atoms: CA_30  and  CB_33 
REMARK       I    between atoms: C_31  and  N_39 
REMARK   14  A    between atoms: CB_33  and  CG_34 
REMARK   15  A    between atoms: CG_34  and  CD_35 
REMARK   16  A    between atoms: N_39  and  CA_40 
REMARK   17  A    between atoms: CA_40  and  C_41 
REMARK   18  A    between atoms: CA_40  and  CB_43 
REMARK       I    between atoms: C_41  and  N_47 
REMARK   19  A    between atoms: CB_43  and  OG_44 
REMARK   20  A    between atoms: N_47  and  CA_48 
REMARK   21  A    between atoms: CA_48  and  C_49 
REMARK   22  A    between atoms: CA_48  and  CB_51 
REMARK       I    between atoms: C_49  and  N_56 
REMARK   23  A    between atoms: CB_51  and  CG1_52 
REMARK   24  A    between atoms: N_56  and  CA_57 
REMARK   25  A    between atoms: CA_57  and  C_58 
REMARK   26  A    between atoms: CA_57  and  CB_60 
REMARK       I    between atoms: C_58  and  N_65 
REMARK   27  A    between atoms: CB_60  and  CG_61 
REMARK   28  A    between atoms: N_65  and  CA_66 
REMARK   29  A    between atoms: CA_66  and  C_67 
REMARK   30  A    between atoms: CA_66  and  CB_69 
REMARK       I    between atoms: C_67  and  N_74 
REMARK   31  A    between atoms: CB_69  and  CG_70 
REMARK   32  A    between atoms: N_74  and  CA_75 
REMARK   33  A    between atoms: CA_75  and  C_76 
REMARK   34  A    between atoms: CA_75  and  CB_78 
REMARK       I    between atoms: C_76  and  N_84 
REMARK   35  A    between atoms: CB_78  and  CG_79 
REMARK   36  A    between atoms: CG_79  and  CD_80 
REMARK   37  A    between atoms: N_84  and  CA_85 
REMARK   38  A    between atoms: CA_85  and  C_86 
REMARK   39  A    between atoms: CA_85  and  CB_88 
REMARK       I    between atoms: C_86  and  N_96 
REMARK   40  A    between atoms: CB_88  and  CG_89 
REMARK   41  A    between atoms: N_96  and  CA_97 
REMARK   42  A    between atoms: CA_97  and  C_98 
REMARK   43  A    between atoms: CA_97  and  CB_100 
REMARK       I    between atoms: C_98  and  N_104 
REMARK   44  A    between atoms: N_104  and  CA_105 
REMARK   45  A    between atoms: CA_105  and  C_106 
REMARK   46  A    between atoms: CA_105  and  CB_108 
REMARK       I    between atoms: C_106  and  N_116 
REMARK   47  A    between atoms: CB_108  and  CG_109 
REMARK   48  A    between atoms: CG_109  and  CD_110 
REMARK       I    between atoms: CD_110  and  NE2_111 
REMARK   49  A    between atoms: N_116  and  CA_117 
REMARK   50  A    between atoms: CA_117  and  C_118 
REMARK   51  A    between atoms: CA_117  and  CB_120 
REMARK       I    between atoms: C_118  and  N_133 
REMARK   52  A    between atoms: CB_120  and  CG_121 
REMARK   53  A    between atoms: CG_121  and  CD_122 
REMARK   54  A    between atoms: CD_122  and  NE_123 
REMARK       I    between atoms: NE_123  and  CZ_124 
REMARK       I    between atoms: CZ_124  and  NH1_125 
REMARK   55  A    between atoms: N_133  and  CA_134 
REMARK   56  A    between atoms: CA_134  and  C_135 
REMARK   57  A    between atoms: CA_134  and  CB_137 
REMARK       I    between atoms: C_135  and  N_141 
REMARK   58  A    between atoms: N_141  and  CA_142 
REMARK   59  A    between atoms: CA_142  and  C_143 
REMARK   60  A    between atoms: CA_142  and  CB_145 
REMARK       I    between atoms: C_143  and  N_150 
REMARK   61  A    between atoms: CB_145  and  CG_146 
REMARK   62  A    between atoms: CG_146  and  SD_147 
REMARK   63  A    between atoms: N_150  and  CA_151 
REMARK   64  A    between atoms: CA_151  and  C_152 
REMARK   65  A    between atoms: CA_151  and  CB_154 
REMARK   66  A    between atoms: CB_154  and  CG_155 
ROOT
ATOM      1  CA  GLU d   9    2634.651 811.121-2752.847  0.00  0.00     0.177 C 
ENDROOT
BRANCH   1   2
ATOM      2  N   GLU d   9    2633.348 810.464-2752.902  0.00  0.00    -0.346 N 
ATOM      3  C   ASP d   8    2632.668 810.514-2753.997  0.00  0.00     0.241 C 
ATOM      4  O   ASP d   8    2633.141 811.118-2754.972  0.00  0.00    -0.271 OA
ATOM      5  H   GLU d   9    2632.984 809.978-2752.094  0.00  0.00     0.163 HD
BRANCH   3   6
ATOM      6  CA  ASP d   8    2631.321 809.835-2754.053  0.00  0.00     0.186 C 
BRANCH   6   7
ATOM      7  N   ASP d   8    2631.390 808.485-2753.500  0.00  0.00    -0.346 N 
ATOM      8  C   LEU d   7    2632.227 807.644-2754.005  0.00  0.00     0.241 C 
ATOM      9  O   LEU d   7    2632.948 808.006-2754.948  0.00  0.00    -0.271 OA
ATOM     10  H   ASP d   8    2630.792 808.215-2752.732  0.00  0.00     0.163 HD
BRANCH   8  11
ATOM     11  CA  LEU d   7    2632.299 806.249-2753.432  0.00  0.00     0.177 C 
BRANCH  11  12
ATOM     12  N   LEU d   7    2632.354 806.285-2751.974  0.00  0.00    -0.346 N 
ATOM     13  C   ILE d   6    2633.300 806.948-2751.400  0.00  0.00     0.241 C 
ATOM     14  O   ILE d   6    2634.135 807.535-2752.104  0.00  0.00    -0.271 OA
ATOM     15  H   LEU d   7    2631.662 805.798-2751.423  0.00  0.00     0.163 HD
BRANCH  13  16
ATOM     16  CA  ILE d   6    2633.357 806.986-2749.893  0.00  0.00     0.180 C 
BRANCH  16  17
ATOM     17  N   ILE d   6    2632.044 807.281-2749.327  0.00  0.00    -0.346 N 
ATOM     18  C   SER d   5    2631.440 808.365-2749.681  0.00  0.00     0.243 C 
ATOM     19  O   SER d   5    2631.988 809.118-2750.486  0.00  0.00    -0.271 OA
ATOM     20  H   ILE d   6    2631.615 806.647-2748.668  0.00  0.00     0.163 HD
BRANCH  18  21
ATOM     21  CA  SER d   5    2630.081 808.671-2749.096  0.00  0.00     0.200 C 
BRANCH  21  22
ATOM     22  N   SER d   5    2629.211 807.500-2749.155  0.00  0.00    -0.344 N 
ATOM     23  C   GLU d   4    2628.984 806.947-2750.298  0.00  0.00     0.241 C 
ATOM     24  O   GLU d   4    2629.511 807.426-2751.312  0.00  0.00    -0.271 OA
ATOM     25  H   SER d   5    2628.794 807.128-2748.313  0.00  0.00     0.163 HD
BRANCH  23  26
ATOM     26  CA  GLU d   4    2628.085 805.736-2750.359  0.00  0.00     0.177 C 
BRANCH  26  27
ATOM     27  N   GLU d   4    2628.444 804.765-2749.330  0.00  0.00    -0.346 N 
ATOM     28  C   PRO d   3    2629.649 804.305-2749.297  0.00  0.00     0.241 C 
ATOM     29  O   PRO d   3    2630.472 804.688-2750.128  0.00  0.00    -0.271 OA
ATOM     30  H   GLU d   4    2627.760 804.459-2748.653  0.00  0.00     0.163 HD
BRANCH  28  31
ATOM     31  CA  PRO d   3    2630.047 803.281-2748.220  0.00  0.00     0.179 C 
ATOM     32  N   PRO d   3    2629.594 803.691-2746.898  0.00  0.00    -0.337 N 
ATOM     33  C   ASN d   2    2630.116 804.685-2746.264  0.00  0.00     0.243 C 
ATOM     34  CD  PRO d   3    2628.516 802.898-2746.350  0.00  0.00     0.127 C 
ATOM     35  O   ASN d   2    2631.031 805.316-2746.792  0.00  0.00    -0.271 OA
ATOM     36  CG  PRO d   3    2628.059 802.079-2747.560  0.00  0.00     0.022 C 
ATOM     37  CB  PRO d   3    2629.342 801.927-2748.389  0.00  0.00     0.037 C 
BRANCH  33  38
ATOM     38  CA  ASN d   2    2629.584 805.041-2744.896  0.00  0.00     0.185 C 
BRANCH  38  39
ATOM     39  N   ASN d   2    2628.125 805.080-2744.896  0.00  0.00    -0.346 N 
ATOM     40  C   GLU d   1    2627.521 805.866-2745.721  0.00  0.00     0.242 C 
ATOM     41  O   GLU d   1    2628.197 806.565-2746.490  0.00  0.00    -0.271 OA
ATOM     42  H   ASN d   2    2627.597 804.500-2744.259  0.00  0.00     0.163 HD
BRANCH  40  43
ATOM     43  CA  GLU d   1    2626.012 805.906-2745.721  0.00  0.00     0.191 C 
BRANCH  43  44
ATOM     44  N   GLU d   1    2625.453 804.557-2745.721  0.00  0.00    -0.326 NA
ATOM     45  H   GLU d   1    2626.080 803.678-2745.721  0.00  0.00     0.180 HD
ENDBRANCH  43  44
BRANCH  43  46
ATOM     46  CB  GLU d   1    2625.489 806.691-2744.484  0.00  0.00     0.047 C 
BRANCH  46  47
ATOM     47  CG  GLU d   1    2625.964 808.176-2744.373  0.00  0.00     0.116 C 
BRANCH  47  48
ATOM     48  CD  GLU d   1    2625.540 808.980-2743.158  0.00  0.00     0.172 C 
ATOM     49  OE1 GLU d   1    2624.812 808.478-2742.280  0.00  0.00    -0.648 OA
ATOM     50  OE2 GLU d   1    2625.970 810.150-2743.086  0.00  0.00    -0.648 OA
ENDBRANCH  47  48
ENDBRANCH  46  47
ENDBRANCH  43  46
ENDBRANCH  40  43
ENDBRANCH  38  39
BRANCH  38  51
ATOM     51  CB  ASN d   2    2630.076 804.018-2743.831  0.00  0.00     0.137 C 
BRANCH  51  52
ATOM     52  CG  ASN d   2    2629.613 804.242-2742.388  0.00  0.00     0.217 C 
ATOM     53  ND2 ASN d   2    2630.207 805.157-2741.669  0.00  0.00    -0.370 N 
ATOM     54 21HD ASN d   2    2629.726 805.330-2740.783  0.00  0.00     0.159 HD
ATOM     55 22HD ASN d   2    2630.909 805.728-2742.138  0.00  0.00     0.159 HD
ATOM     56  OD1 ASN d   2    2628.692 803.609-2741.894  0.00  0.00    -0.274 OA
ENDBRANCH  51  52
ENDBRANCH  38  51
ENDBRANCH  33  38
ENDBRANCH  28  31
ENDBRANCH  26  27
BRANCH  26  57
ATOM     57  CB  GLU d   4    2626.596 806.155-2750.190  0.00  0.00     0.045 C 
BRANCH  57  58
ATOM     58  CG  GLU d   4    2626.049 807.159-2751.255  0.00  0.00     0.116 C 
BRANCH  58  59
ATOM     59  CD  GLU d   4    2624.623 807.656-2751.112  0.00  0.00     0.172 C 
ATOM     60  OE1 GLU d   4    2623.896 807.258-2750.182  0.00  0.00    -0.648 OA
ATOM     61  OE2 GLU d   4    2624.234 808.485-2751.961  0.00  0.00    -0.648 OA
ENDBRANCH  58  59
ENDBRANCH  57  58
ENDBRANCH  26  57
ENDBRANCH  23  26
ENDBRANCH  21  22
BRANCH  21  62
ATOM     62  CB  SER d   5    2630.192 809.203-2747.645  0.00  0.00     0.199 C 
BRANCH  62  63
ATOM     63  OG  SER d   5    2630.923 808.323-2746.784  0.00  0.00    -0.398 OA
ATOM     64  HG  SER d   5    2630.434 807.498-2746.733  0.00  0.00     0.209 HD
ENDBRANCH  62  63
ENDBRANCH  21  62
ENDBRANCH  18  21
ENDBRANCH  16  17
BRANCH  16  65
ATOM     65  CB  ILE d   6    2633.957 805.649-2749.292  0.00  0.00     0.013 C 
ATOM     66  CG2 ILE d   6    2635.398 805.347-2749.807  0.00  0.00     0.012 C 
BRANCH  65  67
ATOM     67  CG1 ILE d   6    2633.975 805.587-2747.731  0.00  0.00     0.002 C 
ATOM     68  CD1 ILE d   6    2634.245 804.198-2747.116  0.00  0.00     0.005 C 
ENDBRANCH  65  67
ENDBRANCH  16  65
ENDBRANCH  13  16
ENDBRANCH  11  12
BRANCH  11  69
ATOM     69  CB  LEU d   7    2631.096 805.389-2753.913  0.00  0.00     0.038 C 
BRANCH  69  70
ATOM     70  CG  LEU d   7    2631.023 803.910-2753.446  0.00  0.00    -0.020 C 
ATOM     71  CD1 LEU d   7    2629.833 803.204-2754.112  0.00  0.00     0.009 C 
ATOM     72  CD2 LEU d   7    2632.316 803.130-2753.738  0.00  0.00     0.009 C 
ENDBRANCH  69  70
ENDBRANCH  11  69
ENDBRANCH   8  11
ENDBRANCH   6   7
BRANCH   6  73
ATOM     73  CB  ASP d   8    2630.243 810.675-2753.312  0.00  0.00     0.147 C 
BRANCH  73  74
ATOM     74  CG  ASP d   8    2630.025 812.095-2753.854  0.00  0.00     0.175 C 
ATOM     75  OD1 ASP d   8    2630.089 812.293-2755.085  0.00  0.00    -0.648 OA
ATOM     76  OD2 ASP d   8    2629.833 813.022-2753.039  0.00  0.00    -0.648 OA
ENDBRANCH  73  74
ENDBRANCH   6  73
ENDBRANCH   3   6
ENDBRANCH   1   2
BRANCH   1  77
ATOM     77  C   GLU d   9    2635.568 810.593-2753.923  0.00  0.00     0.241 C 
ATOM     78  O   GLU d   9    2636.232 811.346-2754.649  0.00  0.00    -0.271 OA
ATOM     79  N   HIS d  10    2635.664 809.317-2754.092  0.00  0.00    -0.346 N 
ATOM     80  H   HIS d  10    2635.134 808.682-2753.513  0.00  0.00     0.163 HD
BRANCH  79  81
ATOM     81  CA  HIS d  10    2636.552 808.805-2755.132  0.00  0.00     0.182 C 
BRANCH  81  82
ATOM     82  C   HIS d  10    2636.185 809.369-2756.483  0.00  0.00     0.241 C 
ATOM     83  O   HIS d  10    2637.037 809.833-2757.256  0.00  0.00    -0.271 OA
ATOM     84  N   VAL d  11    2634.947 809.369-2756.846  0.00  0.00    -0.346 N 
ATOM     85  H   VAL d  11    2634.234 808.996-2756.235  0.00  0.00     0.163 HD
BRANCH  84  86
ATOM     86  CA  VAL d  11    2634.592 809.914-2758.153  0.00  0.00     0.180 C 
BRANCH  86  87
ATOM     87  C   VAL d  11    2635.057 811.344-2758.287  0.00  0.00     0.241 C 
ATOM     88  O   VAL d  11    2635.658 811.749-2759.290  0.00  0.00    -0.271 OA
ATOM     89  N   GLN d  12    2634.821 812.171-2757.324  0.00  0.00    -0.346 N 
ATOM     90  H   GLN d  12    2634.332 811.865-2756.495  0.00  0.00     0.163 HD
BRANCH  89  91
ATOM     91  CA  GLN d  12    2635.270 813.553-2757.452  0.00  0.00     0.177 C 
BRANCH  91  92
ATOM     92  C   GLN d  12    2636.760 813.620-2757.691  0.00  0.00     0.241 C 
ATOM     93  O   GLN d  12    2637.247 814.327-2758.570  0.00  0.00    -0.271 OA
ATOM     94  N   ARG d  13    2637.544 812.913-2756.949  0.00  0.00    -0.346 N 
ATOM     95  H   ARG d  13    2637.168 812.324-2756.220  0.00  0.00     0.163 HD
BRANCH  94  96
ATOM     96  CA  ARG d  13    2638.984 812.978-2757.181  0.00  0.00     0.176 C 
BRANCH  96  97
ATOM     97  C   ARG d  13    2639.320 812.606-2758.605  0.00  0.00     0.241 C 
ATOM     98  O   ARG d  13    2640.089 813.277-2759.290  0.00  0.00    -0.271 OA
ATOM     99  N   VAL d  14    2638.783 811.551-2759.119  0.00  0.00    -0.346 N 
ATOM    100  H   VAL d  14    2638.148 810.983-2758.577  0.00  0.00     0.163 HD
BRANCH  99 101
ATOM    101  CA  VAL d  14    2639.108 811.191-2760.497  0.00  0.00     0.180 C 
BRANCH 101 102
ATOM    102  C   VAL d  14    2638.778 812.320-2761.443  0.00  0.00     0.241 C 
ATOM    103  O   VAL d  14    2639.571 812.702-2762.312  0.00  0.00    -0.271 OA
ATOM    104  N   MET d  15    2637.634 812.907-2761.341  0.00  0.00    -0.346 N 
ATOM    105  H   MET d  15    2636.969 812.614-2760.639  0.00  0.00     0.163 HD
BRANCH 104 106
ATOM    106  CA  MET d  15    2637.313 813.999-2762.255  0.00  0.00     0.177 C 
BRANCH 106 107
ATOM    107  C   MET d  15    2638.344 815.099-2762.167  0.00  0.00     0.241 C 
ATOM    108  O   MET d  15    2638.846 815.609-2763.180  0.00  0.00    -0.271 OA
ATOM    109  N   ASP d  16    2638.712 815.520-2761.005  0.00  0.00    -0.347 N 
ATOM    110  H   ASP d  16    2638.318 815.121-2760.166  0.00  0.00     0.163 HD
BRANCH 109 111
ATOM    111  CA  ASP d  16    2639.709 816.584-2760.922  0.00  0.00     0.172 C 
BRANCH 111 112
ATOM    112  C   ASP d  16    2640.980 816.194-2761.637  0.00  0.00     0.220 C 
ATOM    113  O   ASP d  16    2641.104 815.097-2762.205  0.00  0.00    -0.287 OA
ENDBRANCH 111 112
BRANCH 111 114
ATOM    114  CB  ASP d  16    2639.996 816.949-2759.438  0.00  0.00     0.146 C 
BRANCH 114 115
ATOM    115  CG  ASP d  16    2640.979 818.109-2759.221  0.00  0.00     0.174 C 
ATOM    116  OD1 ASP d  16    2640.956 819.080-2760.005  0.00  0.00    -0.648 OA
ATOM    117  OD2 ASP d  16    2641.806 818.024-2758.290  0.00  0.00    -0.648 OA
ENDBRANCH 114 115
ENDBRANCH 111 114
ENDBRANCH 109 111
ENDBRANCH 106 107
BRANCH 106 118
ATOM    118  CB  MET d  15    2635.892 814.545-2761.946  0.00  0.00     0.045 C 
BRANCH 118 119
ATOM    119  CG  MET d  15    2634.729 813.547-2762.137  0.00  0.00     0.076 C 
BRANCH 119 120
ATOM    120  SD  MET d  15    2633.156 814.413-2762.022  0.00  0.00    -0.173 SA
ATOM    121  CE  MET d  15    2632.075 812.984-2761.885  0.00  0.00     0.089 C 
ENDBRANCH 119 120
ENDBRANCH 118 119
ENDBRANCH 106 118
ENDBRANCH 104 106
ENDBRANCH 101 102
BRANCH 101 122
ATOM    122  CB  VAL d  14    2638.335 809.874-2760.903  0.00  0.00     0.009 C 
ATOM    123  CG1 VAL d  14    2638.424 809.454-2762.396  0.00  0.00     0.012 C 
ATOM    124  CG2 VAL d  14    2638.767 808.622-2760.102  0.00  0.00     0.012 C 
ENDBRANCH 101 122
ENDBRANCH  99 101
ENDBRANCH  96  97
BRANCH  96 125
ATOM    125  CB  ARG d  13    2639.698 812.040-2756.166  0.00  0.00     0.036 C 
BRANCH 125 126
ATOM    126  CG  ARG d  13    2641.243 812.193-2756.086  0.00  0.00     0.023 C 
BRANCH 126 127
ATOM    127  CD  ARG d  13    2641.870 811.205-2755.088  0.00  0.00     0.138 C 
BRANCH 127 128
ATOM    128  NE  ARG d  13    2643.347 811.412-2755.038  0.00  0.00    -0.227 N 
ATOM    129  CZ  ARG d  13    2644.195 810.721-2754.282  0.00  0.00     0.665 C 
ATOM    130  NH1 ARG d  13    2643.830 809.757-2753.484  0.00  0.00    -0.235 N 
ATOM    131  NH2 ARG d  13    2645.455 811.019-2754.340  0.00  0.00    -0.235 N 
ATOM    132 11HH ARG d  13    2642.824 809.571-2753.487  0.00  0.00     0.174 HD
ATOM    133 12HH ARG d  13    2644.543 809.274-2752.935  0.00  0.00     0.174 HD
ATOM    134 21HH ARG d  13    2645.722 811.777-2754.971  0.00  0.00     0.174 HD
ATOM    135 22HH ARG d  13    2646.090 810.478-2753.751  0.00  0.00     0.174 HD
ATOM    136  HE  ARG d  13    2643.798 812.134-2755.609  0.00  0.00     0.177 HD
ENDBRANCH 127 128
ENDBRANCH 126 127
ENDBRANCH 125 126
ENDBRANCH  96 125
ENDBRANCH  94  96
ENDBRANCH  91  92
BRANCH  91 137
ATOM    137  CB  GLN d  12    2634.879 814.322-2756.170  0.00  0.00     0.044 C 
BRANCH 137 138
ATOM    138  CG  GLN d  12    2635.241 815.843-2756.140  0.00  0.00     0.105 C 
BRANCH 138 139
ATOM    139  CD  GLN d  12    2634.939 816.658-2754.875  0.00  0.00     0.215 C 
ATOM    140  NE2 GLN d  12    2634.372 816.082-2753.846  0.00  0.00    -0.370 N 
ATOM    141 21HE GLN d  12    2634.266 816.677-2753.023  0.00  0.00     0.159 HD
ATOM    142 22HE GLN d  12    2634.208 815.079-2753.949  0.00  0.00     0.159 HD
ATOM    143  OE1 GLN d  12    2635.242 817.838-2754.799  0.00  0.00    -0.274 OA
ENDBRANCH 138 139
ENDBRANCH 137 138
ENDBRANCH  91 137
ENDBRANCH  89  91
ENDBRANCH  86  87
BRANCH  86 144
ATOM    144  CB  VAL d  11    2633.030 809.808-2758.372  0.00  0.00     0.009 C 
ATOM    145  CG1 VAL d  11    2632.462 810.512-2759.635  0.00  0.00     0.012 C 
ATOM    146  CG2 VAL d  11    2632.505 808.354-2758.444  0.00  0.00     0.012 C 
ENDBRANCH  86 144
ENDBRANCH  84  86
ENDBRANCH  81  82
BRANCH  81 147
ATOM    147  CB  HIS d  10    2636.387 807.276-2755.126  0.00  0.00     0.095 C 
BRANCH 147 148
ATOM    148  CG  HIS d  10    2637.672 806.565-2754.818  0.00  0.00     0.053 A 
ATOM    149  CD2 HIS d  10    2638.054 806.231-2753.526  0.00  0.00     0.116 A 
ATOM    150  NE2 HIS d  10    2639.268 805.598-2753.593  0.00  0.00    -0.359 N 
ATOM    151  CE1 HIS d  10    2639.530 805.601-2754.928  0.00  0.00     0.207 A 
ATOM    152  2HE HIS d  10    2639.835 805.221-2752.819  0.00  0.00     0.166 HD
ATOM    153  ND1 HIS d  10    2638.624 806.159-2755.751  0.00  0.00    -0.247 NA
ENDBRANCH 147 148
ENDBRANCH  81 147
ENDBRANCH  79  81
ENDBRANCH   1  77
BRANCH   1 154
ATOM    154  CB  GLU d   9    2635.284 810.914-2751.442  0.00  0.00     0.045 C 
BRANCH 154 155
ATOM    155  CG  GLU d   9    2636.667 811.606-2751.213  0.00  0.00     0.116 C 
BRANCH 155 156
ATOM    156  CD  GLU d   9    2637.369 811.393-2749.885  0.00  0.00     0.172 C 
ATOM    157  OE1 GLU d   9    2636.848 810.702-2748.988  0.00  0.00    -0.648 OA
ATOM    158  OE2 GLU d   9    2638.489 811.930-2749.753  0.00  0.00    -0.648 OA
ENDBRANCH 155 156
ENDBRANCH 154 155
ENDBRANCH   1 154
TORSDOF 66
