@<TRIPOS>MOLECULE
4-17
262 263 16              
SMALL
USER_CHARGES
@<TRIPOS>ATOM
1	   N	664.008	166.877	-615.283	N.3	1	GLU1	-0.516	
2	  CA	664.568	168.226	-615.283	C.3	1	GLU1	0.040	
3	   C	666.076	168.186	-615.283	C.2	1	GLU1	0.537	
4	   O	666.752	168.886	-616.052	O.2	1	GLU1	-0.582	
5	  CB	664.044	169.011	-614.046	C.3	1	GLU1	0.056	
6	  CG	664.519	170.496	-613.935	C.3	1	GLU1	0.014	
7	  CD	664.095	171.300	-612.720	C.2	1	GLU1	0.805	
8	 OE1	663.367	170.798	-611.842	O.co2	1	GLU1	-0.819	
9	 OE2	664.526	172.470	-612.648	O.co2	1	GLU1	-0.819	
10	   H	664.635	165.998	-615.283	 H	1	GLU1	0.294	
11	  HA	664.241	168.744	-616.203	 H	1	GLU1	0.111	
12	 2HB	664.333	168.480	-613.116	 H	1	GLU1	-0.017	
13	 3HB	662.938	169.001	-614.033	 H	1	GLU1	-0.017	
14	 2HG	664.209	171.081	-614.816	 H	1	GLU1	-0.043	
15	 3HG	665.620	170.563	-613.906	 H	1	GLU1	-0.043	
16	   N	666.681	167.401	-614.458	N.am	2	ASN2	-0.416	
17	  CA	668.140	167.362	-614.458	C.3	2	ASN2	0.014	
18	   C	668.672	167.007	-615.827	C.2	2	ASN2	0.597	
19	   O	669.587	167.637	-616.355	O.2	2	ASN2	-0.568	
20	  CB	668.633	166.339	-613.394	C.3	2	ASN2	-0.204	
21	  CG	668.169	166.563	-611.950	C.2	2	ASN2	0.713	
22	 ND2	668.764	167.478	-611.232	N.pl3	2	ASN2	-0.919	
23	 OD1	667.249	165.929	-611.456	O.2	2	ASN2	-0.593	
24	   H	666.153	166.821	-613.822	 H	2	ASN2	0.272	
25	  HA	668.518	168.372	-614.213	 H	2	ASN2	0.105	
26	 2HB	669.737	166.280	-613.397	 H	2	ASN2	0.080	
27	 3HB	668.304	165.321	-613.680	 H	2	ASN2	0.080	
28	1HD2	668.283	167.651	-610.346	 H	2	ASN2	0.420	
29	2HD2	669.465	168.050	-611.702	 H	2	ASN2	0.420	
30	   N	668.150	166.012	-616.461	N.am	3	PRO3	-0.255	
31	  CA	668.602	165.602	-617.782	C.3	3	PRO3	-0.027	
32	   C	668.204	166.626	-618.859	C.2	3	PRO3	0.590	
33	   O	669.027	167.009	-619.691	O.2	3	PRO3	-0.575	
34	  CB	667.898	164.247	-617.952	C.3	3	PRO3	-0.007	
35	  CG	666.615	164.399	-617.122	C.3	3	PRO3	0.019	
36	  CD	667.072	165.218	-615.912	C.3	3	PRO3	0.019	
37	  HA	669.688	165.483	-617.796	 H	3	PRO3	0.064	
38	 2HB	668.521	163.466	-617.511	 H	3	PRO3	0.025	
39	 3HB	667.700	163.999	-618.997	 H	3	PRO3	0.025	
40	 2HG	666.188	163.437	-616.831	 H	3	PRO3	0.021	
41	 3HG	665.877	164.970	-617.689	 H	3	PRO3	0.021	
42	 2HD	667.462	164.569	-615.124	 H	3	PRO3	0.039	
43	 3HD	666.276	165.854	-615.519	 H	3	PRO3	0.039	
44	   N	666.999	167.086	-618.892	N.am	4	ASP4	-0.516	
45	  CA	666.639	168.057	-619.921	C.3	4	ASP4	0.038	
46	   C	667.538	169.268	-619.861	C.2	4	ASP4	0.537	
47	   O	668.064	169.748	-620.877	O.2	4	ASP4	-0.582	
48	  CB	665.146	168.465	-619.789	C.3	4	ASP4	-0.030	
49	  CG	664.627	169.431	-620.864	C.2	4	ASP4	0.799	
50	 OD1	665.036	169.312	-622.037	O.co2	4	ASP4	-0.801	
51	 OD2	663.842	170.340	-620.521	O.co2	4	ASP4	-0.801	
52	   H	666.315	166.779	-618.215	 H	4	ASP4	0.294	
53	  HA	666.792	167.584	-620.911	 H	4	ASP4	0.088	
54	 2HB	664.967	168.931	-618.802	 H	4	ASP4	-0.012	
55	 3HB	664.493	167.577	-619.821	 H	4	ASP4	-0.012	
56	   N	667.765	169.822	-618.718	N.am	5	SER5	-0.416	
57	  CA	668.634	170.994	-618.661	C.3	5	SER5	-0.025	
58	   C	669.993	170.688	-619.247	C.2	5	SER5	0.597	
59	   O	670.540	171.442	-620.052	O.2	5	SER5	-0.568	
60	  CB	668.746	171.527	-617.211	C.3	5	SER5	0.212	
61	  OG	669.478	170.648	-616.349	O.3	5	SER5	-0.655	
62	   H	667.349	169.450	-617.876	 H	5	SER5	0.272	
63	  HA	668.184	171.783	-619.290	 H	5	SER5	0.084	
64	 2HB	667.746	171.720	-616.777	 H	5	SER5	0.035	
65	 3HB	669.250	172.513	-617.214	 H	5	SER5	0.035	
66	  HG	668.990	169.823	-616.298	 H	5	SER5	0.428	
67	   N	670.599	169.606	-618.892	N.am	6	ILE6	-0.416	
68	  CA	671.912	169.312	-619.458	C.3	6	ILE6	-0.060	
69	   C	671.854	169.273	-620.966	C.2	6	ILE6	0.597	
70	   O	672.688	169.861	-621.670	O.2	6	ILE6	-0.568	
71	  CB	672.512	167.976	-618.858	C.3	6	ILE6	0.130	
72	 CG1	672.532	167.915	-617.296	C.3	6	ILE6	-0.043	
73	 CG2	673.954	167.675	-619.373	C.3	6	ILE6	-0.320	
74	 CD1	672.803	166.527	-616.681	C.3	6	ILE6	-0.066	
75	   H	670.171	168.972	-618.232	 H	6	ILE6	0.272	
76	  HA	672.585	170.147	-619.191	 H	6	ILE6	0.087	
77	  HB	671.855	167.150	-619.201	 H	6	ILE6	0.019	
78	2HG1	671.550	168.235	-616.901	 H	6	ILE6	0.024	
79	3HG1	673.248	168.658	-616.892	 H	6	ILE6	0.024	
80	1HG2	674.013	167.581	-620.471	 H	6	ILE6	0.088	
81	2HG2	674.676	168.458	-619.071	 H	6	ILE6	0.088	
82	3HG2	674.345	166.714	-618.994	 H	6	ILE6	0.088	
83	1HD1	672.076	165.772	-617.035	 H	6	ILE6	0.019	
84	2HD1	673.814	166.148	-616.916	 H	6	ILE6	0.019	
85	3HD1	672.727	166.557	-615.578	 H	6	ILE6	0.019	
86	   N	670.909	168.608	-621.539	N.am	7	LEU7	-0.416	
87	  CA	670.854	168.571	-622.998	C.3	7	LEU7	-0.052	
88	   C	670.780	169.966	-623.571	C.2	7	LEU7	0.597	
89	   O	671.500	170.329	-624.513	O.2	7	LEU7	-0.568	
90	  CB	669.651	167.710	-623.477	C.3	7	LEU7	-0.110	
91	  CG	669.580	166.231	-623.010	C.3	7	LEU7	0.353	
92	 CD1	668.390	165.523	-623.675	C.3	7	LEU7	-0.412	
93	 CD2	670.874	165.452	-623.301	C.3	7	LEU7	-0.412	
94	   H	670.217	168.121	-620.987	 H	7	LEU7	0.272	
95	  HA	671.796	168.132	-623.372	 H	7	LEU7	0.092	
96	 2HB	669.628	167.725	-624.585	 H	7	LEU7	0.046	
97	 3HB	668.711	168.212	-623.173	 H	7	LEU7	0.046	
98	  HG	669.410	166.223	-621.913	 H	7	LEU7	-0.036	
99	1HD1	667.433	166.032	-623.452	 H	7	LEU7	0.100	
100	2HD1	668.489	165.482	-624.776	 H	7	LEU7	0.100	
101	3HD1	668.284	164.482	-623.318	 H	7	LEU7	0.100	
102	1HD2	671.149	165.482	-624.371	 H	7	LEU7	0.100	
103	2HD2	671.727	165.865	-622.730	 H	7	LEU7	0.100	
104	3HD2	670.793	164.390	-623.004	 H	7	LEU7	0.100	
105	   N	669.942	170.807	-623.065	N.am	8	ASP8	-0.516	
106	  CA	669.871	172.156	-623.619	C.3	8	ASP8	0.038	
107	   C	671.217	172.837	-623.563	C.2	8	ASP8	0.537	
108	   O	671.689	173.442	-624.538	O.2	8	ASP8	-0.582	
109	  CB	668.792	172.994	-622.878	C.3	8	ASP8	-0.030	
110	  CG	668.572	174.414	-623.419	C.2	8	ASP8	0.799	
111	 OD1	668.635	174.613	-624.650	O.co2	8	ASP8	-0.801	
112	 OD2	668.379	175.341	-622.604	O.co2	8	ASP8	-0.801	
113	   H	669.345	170.535	-622.297	 H	8	ASP8	0.294	
114	  HA	669.588	172.077	-624.686	 H	8	ASP8	0.088	
115	 2HB	669.049	173.078	-621.806	 H	8	ASP8	-0.012	
116	 3HB	667.813	172.488	-622.910	 H	8	ASP8	-0.012	
117	   N	671.897	172.788	-622.467	N.am	9	GLU9	-0.516	
118	  CA	673.199	173.447	-622.413	C.3	9	GLU9	0.040	
119	   C	674.117	172.919	-623.488	C.2	9	GLU9	0.537	
120	   O	674.781	173.674	-624.214	O.2	9	GLU9	-0.582	
121	  CB	673.833	173.241	-621.007	C.3	9	GLU9	0.056	
122	  CG	675.215	173.934	-620.778	C.3	9	GLU9	0.014	
123	  CD	675.917	173.722	-619.450	C.2	9	GLU9	0.805	
124	 OE1	675.396	173.031	-618.553	O.co2	9	GLU9	-0.819	
125	 OE2	677.035	174.261	-619.319	O.co2	9	GLU9	-0.819	
126	   H	671.534	172.302	-621.660	 H	9	GLU9	0.294	
127	  HA	673.056	174.528	-622.589	 H	9	GLU9	0.111	
128	 2HB	673.947	172.156	-620.803	 H	9	GLU9	-0.017	
129	 3HB	673.135	173.594	-620.223	 H	9	GLU9	-0.017	
130	 2HG	675.142	175.025	-620.919	 H	9	GLU9	-0.043	
131	 3HG	675.961	173.589	-621.512	 H	9	GLU9	-0.043	
132	   N	674.215	171.644	-623.657	N.am	10	HIS10	-0.416	
133	  CA	675.103	171.133	-624.697	C.3	10	HIS10	-0.058	
134	   C	674.736	171.697	-626.049	C.2	10	HIS10	0.597	
135	   O	675.588	172.162	-626.821	O.2	10	HIS10	-0.568	
136	  CB	674.940	169.604	-624.692	C.3	10	HIS10	-0.007	
137	  CG	676.227	168.895	-624.383	C.2	10	HIS10	0.187	
138	 CD2	676.608	168.561	-623.091	C.2	10	HIS10	-0.221	
139	 ND1	677.179	168.490	-625.316	N.2	10	HIS10	-0.543	
140	 CE1	678.086	167.933	-624.492	C.2	10	HIS10	0.163	
141	 NE2	677.823	167.930	-623.157	N.pl3	10	HIS10	-0.280	
142	   H	673.685	171.008	-623.078	 H	10	HIS10	0.272	
143	  HA	676.122	171.491	-624.472	 H	10	HIS10	0.136	
144	 2HB	674.576	169.236	-625.671	 H	10	HIS10	0.037	
145	 3HB	674.185	169.266	-623.951	 H	10	HIS10	0.037	
146	 2HD	676.022	168.776	-622.202	 H	10	HIS10	0.186	
147	 1HE	678.977	167.512	-624.939	 H	10	HIS10	0.144	
148	 2HE	678.391	167.554	-622.384	 H	10	HIS10	0.334	
149	   N	673.498	171.694	-626.411	N.am	11	VAL11	-0.416	
150	  CA	673.142	172.239	-627.719	C.3	11	VAL11	-0.087	
151	   C	673.605	173.671	-627.852	C.2	11	VAL11	0.597	
152	   O	674.206	174.076	-628.855	O.2	11	VAL11	-0.568	
153	  CB	671.581	172.131	-627.938	C.3	11	VAL11	0.299	
154	 CG1	671.011	172.834	-629.201	C.3	11	VAL11	-0.319	
155	 CG2	671.058	170.676	-628.010	C.3	11	VAL11	-0.319	
156	   H	672.785	171.321	-625.801	 H	11	VAL11	0.272	
157	  HA	673.662	171.657	-628.501	 H	11	VAL11	0.097	
158	  HB	671.093	172.611	-627.063	 H	11	VAL11	-0.030	
159	1HG1	671.450	172.442	-630.138	 H	11	VAL11	0.079	
160	2HG1	669.913	172.726	-629.282	 H	11	VAL11	0.079	
161	3HG1	671.188	173.927	-629.192	 H	11	VAL11	0.079	
162	1HG2	671.348	170.090	-627.119	 H	11	VAL11	0.079	
163	2HG2	669.952	170.638	-628.053	 H	11	VAL11	0.079	
164	3HG2	671.440	170.136	-628.896	 H	11	VAL11	0.079	
165	   N	673.367	174.496	-626.890	N.am	12	GLN12	-0.416	
166	  CA	673.814	175.880	-627.018	C.3	12	GLN12	-0.003	
167	   C	675.304	175.948	-627.256	C.2	12	GLN12	0.597	
168	   O	675.791	176.657	-628.135	O.2	12	GLN12	-0.568	
169	  CB	673.423	176.647	-625.735	C.3	12	GLN12	-0.004	
170	  CG	673.782	178.170	-625.705	C.3	12	GLN12	-0.064	
171	  CD	673.479	178.983	-624.440	C.2	12	GLN12	0.695	
172	 NE2	672.913	178.407	-623.411	N.pl3	12	GLN12	-0.941	
173	 OE1	673.780	180.165	-624.363	O.2	12	GLN12	-0.609	
174	   H	672.879	174.190	-626.060	 H	12	GLN12	0.272	
175	  HA	673.314	176.335	-627.893	 H	12	GLN12	0.085	
176	 2HB	673.900	176.148	-624.866	 H	12	GLN12	0.017	
177	 3HB	672.333	176.539	-625.572	 H	12	GLN12	0.017	
178	 2HG	673.304	178.689	-626.556	 H	12	GLN12	0.035	
179	 3HG	674.865	178.313	-625.871	 H	12	GLN12	0.035	
180	1HE2	672.805	179.002	-622.588	 H	12	GLN12	0.425	
181	2HE2	672.750	177.403	-623.514	 H	12	GLN12	0.425	
182	   N	676.090	175.243	-626.515	N.am	13	ARG13	-0.348	
183	  CA	677.530	175.310	-626.746	C.3	13	ARG13	-0.264	
184	   C	677.866	174.938	-628.171	C.2	13	ARG13	0.734	
185	   O	678.634	175.610	-628.855	O.2	13	ARG13	-0.589	
186	  CB	678.244	174.372	-625.731	C.3	13	ARG13	-0.001	
187	  CG	679.789	174.527	-625.651	C.3	13	ARG13	0.039	
188	  CD	680.417	173.540	-624.653	C.3	13	ARG13	0.049	
189	  NE	681.894	173.749	-624.603	N.pl3	13	ARG13	-0.530	
190	  CZ	682.743	173.059	-623.847	C.cat	13	ARG13	0.808	
191	 NH1	682.379	172.094	-623.049	N.pl3	13	ARG13	-0.863	
192	 NH2	684.002	173.359	-623.904	N.pl3	13	ARG13	-0.863	
193	   H	675.714	174.653	-625.786	 H	13	ARG13	0.275	
194	  HA	677.853	176.356	-626.588	 H	13	ARG13	0.156	
195	 2HB	677.979	173.321	-625.970	 H	13	ARG13	0.033	
196	 3HB	677.819	174.539	-624.721	 H	13	ARG13	0.033	
197	 2HG	680.036	175.572	-625.372	 H	13	ARG13	0.029	
198	 3HG	680.240	174.371	-626.652	 H	13	ARG13	0.029	
199	 2HD	680.174	172.500	-624.961	 H	13	ARG13	0.069	
200	 3HD	679.961	173.686	-623.650	 H	13	ARG13	0.069	
201	  HE	682.345	174.471	-625.174	 H	13	ARG13	0.346	
202	1HH1	681.374	171.907	-623.052	 H	13	ARG13	0.448	
203	2HH1	683.093	171.612	-622.500	 H	13	ARG13	0.448	
204	1HH2	684.269	174.117	-624.536	 H	13	ARG13	0.448	
205	2HH2	684.638	172.819	-623.316	 H	13	ARG13	0.448	
206	   N	677.331	173.883	-628.684	N.am	14	VAL14	-0.416	
207	  CA	677.656	173.523	-630.062	C.3	14	VAL14	-0.087	
208	   C	677.325	174.653	-631.008	C.2	14	VAL14	0.597	
209	   O	678.118	175.034	-631.878	O.2	14	VAL14	-0.568	
210	  CB	676.885	172.205	-630.468	C.3	14	VAL14	0.299	
211	 CG1	676.974	171.786	-631.961	C.3	14	VAL14	-0.319	
212	 CG2	677.318	170.954	-629.667	C.3	14	VAL14	-0.319	
213	   H	676.697	173.314	-628.142	 H	14	VAL14	0.272	
214	  HA	678.744	173.348	-630.137	 H	14	VAL14	0.097	
215	  HB	675.808	172.375	-630.252	 H	14	VAL14	-0.030	
216	1HG1	678.016	171.610	-632.291	 H	14	VAL14	0.079	
217	2HG1	676.402	170.863	-632.174	 H	14	VAL14	0.079	
218	3HG1	676.544	172.548	-632.640	 H	14	VAL14	0.079	
219	1HG2	677.231	171.113	-628.577	 H	14	VAL14	0.079	
220	2HG2	676.683	170.077	-629.899	 H	14	VAL14	0.079	
221	3HG2	678.366	170.665	-629.873	 H	14	VAL14	0.079	
222	   N	676.179	175.237	-630.906	N.am	15	MET15	-0.416	
223	  CA	675.858	176.329	-631.820	C.3	15	MET15	-0.024	
224	   C	676.887	177.430	-631.733	C.2	15	MET15	0.597	
225	   O	677.389	177.941	-632.746	O.2	15	MET15	-0.568	
226	  CB	674.436	176.874	-631.511	C.3	15	MET15	0.034	
227	  CG	673.275	175.874	-631.702	C.3	15	MET15	0.002	
228	  SD	671.700	176.739	-631.588	S.3	15	MET15	-0.274	
229	  CE	670.620	175.308	-631.450	C.3	15	MET15	-0.054	
230	   H	675.515	174.944	-630.204	 H	15	MET15	0.272	
231	  HA	675.884	175.942	-632.856	 H	15	MET15	0.088	
232	 2HB	674.232	177.752	-632.153	 H	15	MET15	0.024	
233	 3HB	674.400	177.267	-630.475	 H	15	MET15	0.024	
234	 2HG	673.319	175.089	-630.924	 H	15	MET15	0.044	
235	 3HG	673.338	175.359	-632.678	 H	15	MET15	0.044	
236	 1HE	670.764	174.620	-632.303	 H	15	MET15	0.068	
237	 2HE	670.830	174.756	-630.517	 H	15	MET15	0.068	
238	 3HE	669.562	175.622	-631.434	 H	15	MET15	0.068	
239	   N	677.255	177.852	-630.571	N.am	16	ARG16	-0.348	
240	  CA	678.251	178.917	-630.488	C.3	16	ARG16	-0.264	
241	   C	679.522	178.525	-631.204	C.2	16	ARG16	0.734	
242	   O	679.636	177.449	-631.785	O.2	16	ARG16	-0.589	
243	  CB	678.520	179.236	-628.990	C.3	16	ARG16	-0.001	
244	  CG	679.344	180.526	-628.717	C.3	16	ARG16	0.039	
245	  CD	679.594	180.746	-627.216	C.3	16	ARG16	0.049	
246	  NE	680.369	182.005	-627.016	N.pl3	16	ARG16	-0.530	
247	  CZ	680.760	182.489	-625.841	C.cat	16	ARG16	0.808	
248	 NH1	680.513	181.904	-624.702	N.pl3	16	ARG16	-0.863	
249	 NH2	681.423	183.602	-625.823	N.pl3	16	ARG16	-0.863	
250	   H	676.861	177.452	-629.731	 H	16	ARG16	0.275	
251	  HA	677.841	179.809	-630.998	 H	16	ARG16	0.156	
252	 2HB	679.018	178.360	-628.523	 H	16	ARG16	0.033	
253	 3HB	677.551	179.316	-628.456	 H	16	ARG16	0.033	
254	 2HG	678.813	181.396	-629.155	 H	16	ARG16	0.029	
255	 3HG	680.317	180.473	-629.247	 H	16	ARG16	0.029	
256	 2HD	680.144	179.872	-626.803	 H	16	ARG16	0.069	
257	 3HD	678.621	180.788	-626.681	 H	16	ARG16	0.069	
258	  HE	680.646	182.586	-627.813	 H	16	ARG16	0.346	
259	1HH1	679.988	181.031	-624.786	 H	16	ARG16	0.448	
260	2HH1	680.847	182.341	-623.841	 H	16	ARG16	0.448	
261	1HH2	681.608	184.045	-626.725	 H	16	ARG16	0.448	
262	2HH2	681.713	183.958	-624.910	 H	16	ARG16	0.448	
@<TRIPOS>BOND
1 1 2 1
2 1 10 1
3 2 3 1
4 2 5 1
5 2 11 1
6 3 4 2
7 3 16 1
8 5 6 1
9 6 7 1
10 7 8 2
11 7 9 1
12 5 12 1
13 5 13 1
14 6 14 1
15 6 15 1
16 16 17 1
17 16 24 1
18 17 18 1
19 17 20 1
20 17 25 1
21 18 19 2
22 18 30 1
23 20 21 1
24 21 22 1
25 21 23 2
26 20 26 1
27 20 27 1
28 22 28 1
29 22 29 1
30 30 31 1
31 30 36 1
32 31 32 1
33 31 34 1
34 31 37 1
35 32 33 2
36 32 44 1
37 34 35 1
38 35 36 1
39 34 38 1
40 34 39 1
41 35 40 1
42 35 41 1
43 36 42 1
44 36 43 1
45 44 45 1
46 44 52 1
47 45 46 1
48 45 48 1
49 45 53 1
50 46 47 2
51 46 56 1
52 48 49 1
53 49 50 2
54 49 51 1
55 48 54 1
56 48 55 1
57 56 57 1
58 56 62 1
59 57 58 1
60 57 60 1
61 57 63 1
62 58 59 2
63 58 67 1
64 60 61 1
65 60 64 1
66 60 65 1
67 61 66 1
68 67 68 1
69 67 75 1
70 68 69 1
71 68 71 1
72 68 76 1
73 69 70 2
74 69 86 1
75 71 72 1
76 71 73 1
77 72 74 1
78 71 77 1
79 72 78 1
80 72 79 1
81 73 80 1
82 73 81 1
83 73 82 1
84 74 83 1
85 74 84 1
86 74 85 1
87 86 87 1
88 86 94 1
89 87 88 1
90 87 90 1
91 87 95 1
92 88 89 2
93 88 105 1
94 90 91 1
95 91 92 1
96 91 93 1
97 90 96 1
98 90 97 1
99 91 98 1
100 92 99 1
101 92 100 1
102 92 101 1
103 93 102 1
104 93 103 1
105 93 104 1
106 105 106 1
107 105 113 1
108 106 107 1
109 106 109 1
110 106 114 1
111 107 108 2
112 107 117 1
113 109 110 1
114 110 111 2
115 110 112 1
116 109 115 1
117 109 116 1
118 117 118 1
119 117 126 1
120 118 119 1
121 118 121 1
122 118 127 1
123 119 120 2
124 119 132 1
125 121 122 1
126 122 123 1
127 123 124 2
128 123 125 1
129 121 128 1
130 121 129 1
131 122 130 1
132 122 131 1
133 132 133 1
134 132 142 1
135 133 134 1
136 133 136 1
137 133 143 1
138 134 135 2
139 134 149 1
140 136 137 1
141 137 138 2
142 138 141 1
143 137 139 1
144 139 140 2
145 140 141 1
146 136 144 1
147 136 145 1
148 138 146 1
149 140 147 1
150 141 148 1
151 149 150 1
152 149 156 1
153 150 151 1
154 150 153 1
155 150 157 1
156 151 152 2
157 151 165 1
158 153 154 1
159 153 155 1
160 153 158 1
161 154 159 1
162 154 160 1
163 154 161 1
164 155 162 1
165 155 163 1
166 155 164 1
167 165 166 1
168 165 174 1
169 166 167 1
170 166 169 1
171 166 175 1
172 167 168 2
173 167 182 1
174 169 170 1
175 170 171 1
176 171 172 1
177 171 173 2
178 169 176 1
179 169 177 1
180 170 178 1
181 170 179 1
182 172 180 1
183 172 181 1
184 182 183 1
185 182 193 1
186 183 184 1
187 183 186 1
188 183 194 1
189 184 185 2
190 184 206 1
191 186 187 1
192 187 188 1
193 188 189 1
194 189 190 1
195 190 191 2
196 190 192 1
197 186 195 1
198 186 196 1
199 187 197 1
200 187 198 1
201 188 199 1
202 188 200 1
203 189 201 1
204 191 202 1
205 191 203 1
206 192 204 1
207 192 205 1
208 206 207 1
209 206 213 1
210 207 208 1
211 207 210 1
212 207 214 1
213 208 209 2
214 208 222 1
215 210 211 1
216 210 212 1
217 210 215 1
218 211 216 1
219 211 217 1
220 211 218 1
221 212 219 1
222 212 220 1
223 212 221 1
224 222 223 1
225 222 230 1
226 223 224 1
227 223 226 1
228 223 231 1
229 224 225 2
230 224 239 1
231 226 227 1
232 227 228 1
233 228 229 1
234 226 232 1
235 226 233 1
236 227 234 1
237 227 235 1
238 229 236 1
239 229 237 1
240 229 238 1
241 239 240 1
242 239 250 1
243 240 241 1
244 240 243 1
245 240 251 1
246 241 242 2
247 243 244 1
248 244 245 1
249 245 246 1
250 246 247 1
251 247 248 2
252 247 249 1
253 243 252 1
254 243 253 1
255 244 254 1
256 244 255 1
257 245 256 1
258 245 257 1
259 246 258 1
260 248 259 1
261 248 260 1
262 249 261 1
263 249 262 1
@<TRIPOS>SUBSTRUCTURE
1	GLU1	1	RESIDUE	1 ****	GLU
2	ASN2	16	RESIDUE	1 ****	ASN
3	PRO3	30	RESIDUE	1 ****	PRO
4	ASP4	44	RESIDUE	1 ****	ASP
5	SER5	56	RESIDUE	1 ****	SER
6	ILE6	67	RESIDUE	1 ****	ILE
7	LEU7	86	RESIDUE	1 ****	LEU
8	ASP8	105	RESIDUE	1 ****	ASP
9	GLU9	117	RESIDUE	1 ****	GLU
10	HIS10	132	RESIDUE	1 ****	HIS
11	VAL11	149	RESIDUE	1 ****	VAL
12	GLN12	165	RESIDUE	1 ****	GLN
13	ARG13	182	RESIDUE	1 ****	ARG
14	VAL14	206	RESIDUE	1 ****	VAL
15	MET15	222	RESIDUE	1 ****	MET
16	ARG16	239	RESIDUE	1 ****	ARG
