REMARK WARNING: 32 MAX_TORS EXCEEDED!!!
REMARK  68 active torsions:
REMARK  status: ('A' for Active; 'I' for Inactive)
REMARK    1  A    between atoms: N_1  and  CA_2 
REMARK    2  A    between atoms: CA_2  and  C_3 
REMARK    3  A    between atoms: CA_2  and  CB_5 
REMARK       I    between atoms: C_3  and  N_11 
REMARK    4  A    between atoms: CB_5  and  CG_6 
REMARK    5  A    between atoms: CG_6  and  CD_7 
REMARK    6  A    between atoms: N_11  and  CA_12 
REMARK    7  A    between atoms: CA_12  and  C_13 
REMARK    8  A    between atoms: CA_12  and  CB_15 
REMARK       I    between atoms: C_13  and  N_22 
REMARK    9  A    between atoms: CB_15  and  CG_16 
REMARK       I    between atoms: CG_16  and  ND2_17 
REMARK   10  A    between atoms: CA_23  and  C_24 
REMARK       I    between atoms: C_24  and  N_29 
REMARK   11  A    between atoms: N_29  and  CA_30 
REMARK   12  A    between atoms: CA_30  and  C_31 
REMARK   13  A    between atoms: CA_30  and  CB_33 
REMARK       I    between atoms: C_31  and  N_39 
REMARK   14  A    between atoms: CB_33  and  CG_34 
REMARK   15  A    between atoms: CG_34  and  CD_35 
REMARK   16  A    between atoms: N_39  and  CA_40 
REMARK   17  A    between atoms: CA_40  and  C_41 
REMARK   18  A    between atoms: CA_40  and  CB_43 
REMARK       I    between atoms: C_41  and  N_47 
REMARK   19  A    between atoms: CB_43  and  OG_44 
REMARK   20  A    between atoms: N_47  and  CA_48 
REMARK   21  A    between atoms: CA_48  and  C_49 
REMARK   22  A    between atoms: CA_48  and  CB_51 
REMARK       I    between atoms: C_49  and  N_56 
REMARK   23  A    between atoms: CB_51  and  CG1_52 
REMARK   24  A    between atoms: N_56  and  CA_57 
REMARK   25  A    between atoms: CA_57  and  C_58 
REMARK   26  A    between atoms: CA_57  and  CB_60 
REMARK       I    between atoms: C_58  and  N_65 
REMARK   27  A    between atoms: CB_60  and  CG_61 
REMARK   28  A    between atoms: N_65  and  CA_66 
REMARK   29  A    between atoms: CA_66  and  C_67 
REMARK   30  A    between atoms: CA_66  and  CB_69 
REMARK       I    between atoms: C_67  and  N_74 
REMARK   31  A    between atoms: CB_69  and  CG_70 
REMARK   32  A    between atoms: N_74  and  CA_75 
REMARK   33  A    between atoms: CA_75  and  C_76 
REMARK   34  A    between atoms: CA_75  and  CB_78 
REMARK       I    between atoms: C_76  and  N_84 
REMARK   35  A    between atoms: CB_78  and  CG_79 
REMARK   36  A    between atoms: CG_79  and  CD_80 
REMARK   37  A    between atoms: N_84  and  CA_85 
REMARK   38  A    between atoms: CA_85  and  C_86 
REMARK   39  A    between atoms: CA_85  and  CB_88 
REMARK       I    between atoms: C_86  and  N_96 
REMARK   40  A    between atoms: CB_88  and  CG_89 
REMARK   41  A    between atoms: N_96  and  CA_97 
REMARK   42  A    between atoms: CA_97  and  C_98 
REMARK   43  A    between atoms: CA_97  and  CB_100 
REMARK       I    between atoms: C_98  and  N_104 
REMARK   44  A    between atoms: N_104  and  CA_105 
REMARK   45  A    between atoms: CA_105  and  C_106 
REMARK   46  A    between atoms: CA_105  and  CB_108 
REMARK       I    between atoms: C_106  and  N_116 
REMARK   47  A    between atoms: CB_108  and  CG_109 
REMARK   48  A    between atoms: CG_109  and  CD_110 
REMARK       I    between atoms: CD_110  and  NE2_111 
REMARK   49  A    between atoms: N_116  and  CA_117 
REMARK   50  A    between atoms: CA_117  and  C_118 
REMARK   51  A    between atoms: CA_117  and  CB_120 
REMARK       I    between atoms: C_118  and  N_133 
REMARK   52  A    between atoms: CB_120  and  CG_121 
REMARK   53  A    between atoms: CG_121  and  CD_122 
REMARK   54  A    between atoms: CD_122  and  NE_123 
REMARK       I    between atoms: NE_123  and  CZ_124 
REMARK       I    between atoms: CZ_124  and  NH1_125 
REMARK       I    between atoms: CZ_124  and  NH2_126 
REMARK   55  A    between atoms: N_133  and  CA_134 
REMARK   56  A    between atoms: CA_134  and  C_135 
REMARK   57  A    between atoms: CA_134  and  CB_137 
REMARK       I    between atoms: C_135  and  N_141 
REMARK   58  A    between atoms: N_141  and  CA_142 
REMARK   59  A    between atoms: CA_142  and  C_143 
REMARK   60  A    between atoms: CA_142  and  CB_145 
REMARK       I    between atoms: C_143  and  N_150 
REMARK   61  A    between atoms: CB_145  and  CG_146 
REMARK   62  A    between atoms: CG_146  and  SD_147 
REMARK   63  A    between atoms: N_150  and  CA_151 
REMARK   64  A    between atoms: CA_151  and  C_152 
REMARK   65  A    between atoms: CA_151  and  CB_154 
REMARK   66  A    between atoms: CB_154  and  CG_155 
REMARK   67  A    between atoms: CG_155  and  CD_156 
REMARK   68  A    between atoms: CD_156  and  NE_157 
REMARK       I    between atoms: NE_157  and  CZ_158 
REMARK       I    between atoms: CZ_158  and  NH1_159 
ROOT
ATOM      1  C   GLU d   9    1978.720 600.306-2035.360  0.00  0.00     0.241 C 
ATOM      2  O   GLU d   9    1979.384 601.061-2036.086  0.00  0.00    -0.271 OA
ATOM      3  N   HIS d  10    1978.818 599.031-2035.530  0.00  0.00    -0.346 N 
ATOM      4  H   HIS d  10    1978.287 598.395-2034.952  0.00  0.00     0.163 HD
ENDROOT
BRANCH   1   5
ATOM      5  CA  GLU d   9    1977.802 600.833-2034.284  0.00  0.00     0.177 C 
BRANCH   5   6
ATOM      6  N   GLU d   9    1976.500 600.175-2034.339  0.00  0.00    -0.346 N 
ATOM      7  C   ASP d   8    1975.820 600.225-2035.435  0.00  0.00     0.241 C 
ATOM      8  O   ASP d   8    1976.292 600.831-2036.409  0.00  0.00    -0.271 OA
ATOM      9  H   GLU d   9    1976.137 599.689-2033.532  0.00  0.00     0.163 HD
BRANCH   7  10
ATOM     10  CA  ASP d   8    1974.473 599.545-2035.492  0.00  0.00     0.186 C 
BRANCH  10  11
ATOM     11  N   ASP d   8    1974.544 598.196-2034.939  0.00  0.00    -0.346 N 
ATOM     12  C   LEU d   7    1975.381 597.355-2035.445  0.00  0.00     0.241 C 
ATOM     13  O   LEU d   7    1976.102 597.718-2036.387  0.00  0.00    -0.271 OA
ATOM     14  H   ASP d   8    1973.946 597.924-2034.171  0.00  0.00     0.163 HD
BRANCH  12  15
ATOM     15  CA  LEU d   7    1975.454 595.960-2034.873  0.00  0.00     0.177 C 
BRANCH  15  16
ATOM     16  N   LEU d   7    1975.509 595.996-2033.414  0.00  0.00    -0.346 N 
ATOM     17  C   ILE d   6    1976.455 596.660-2032.840  0.00  0.00     0.241 C 
ATOM     18  O   ILE d   6    1977.289 597.247-2033.544  0.00  0.00    -0.271 OA
ATOM     19  H   LEU d   7    1974.817 595.509-2032.863  0.00  0.00     0.163 HD
BRANCH  17  20
ATOM     20  CA  ILE d   6    1976.512 596.697-2031.333  0.00  0.00     0.180 C 
BRANCH  20  21
ATOM     21  N   ILE d   6    1975.199 596.992-2030.766  0.00  0.00    -0.346 N 
ATOM     22  C   SER d   5    1974.594 598.075-2031.121  0.00  0.00     0.243 C 
ATOM     23  O   SER d   5    1975.141 598.828-2031.926  0.00  0.00    -0.271 OA
ATOM     24  H   ILE d   6    1974.771 596.357-2030.107  0.00  0.00     0.163 HD
BRANCH  22  25
ATOM     25  CA  SER d   5    1973.235 598.380-2030.535  0.00  0.00     0.200 C 
BRANCH  25  26
ATOM     26  N   SER d   5    1972.366 597.209-2030.593  0.00  0.00    -0.344 N 
ATOM     27  C   GLU d   4    1972.138 596.656-2031.737  0.00  0.00     0.241 C 
ATOM     28  O   GLU d   4    1972.665 597.136-2032.751  0.00  0.00    -0.271 OA
ATOM     29  H   SER d   5    1971.949 596.838-2029.752  0.00  0.00     0.163 HD
BRANCH  27  30
ATOM     30  CA  GLU d   4    1971.239 595.445-2031.798  0.00  0.00     0.177 C 
BRANCH  30  31
ATOM     31  N   GLU d   4    1971.599 594.474-2030.768  0.00  0.00    -0.346 N 
ATOM     32  C   PRO d   3    1972.804 594.014-2030.736  0.00  0.00     0.241 C 
ATOM     33  O   PRO d   3    1973.627 594.397-2031.567  0.00  0.00    -0.271 OA
ATOM     34  H   GLU d   4    1970.915 594.168-2030.091  0.00  0.00     0.163 HD
BRANCH  32  35
ATOM     35  CA  PRO d   3    1973.202 592.991-2029.659  0.00  0.00     0.179 C 
ATOM     36  N   PRO d   3    1972.750 593.400-2028.337  0.00  0.00    -0.337 N 
ATOM     37  C   ASN d   2    1973.271 594.395-2027.703  0.00  0.00     0.243 C 
ATOM     38  CD  PRO d   3    1971.672 592.607-2027.788  0.00  0.00     0.127 C 
ATOM     39  O   ASN d   2    1974.186 595.026-2028.232  0.00  0.00    -0.271 OA
ATOM     40  CG  PRO d   3    1971.214 591.788-2028.998  0.00  0.00     0.022 C 
ATOM     41  CB  PRO d   3    1972.498 591.636-2029.828  0.00  0.00     0.037 C 
BRANCH  37  42
ATOM     42  CA  ASN d   2    1972.740 594.751-2026.335  0.00  0.00     0.185 C 
BRANCH  42  43
ATOM     43  N   ASN d   2    1971.281 594.789-2026.335  0.00  0.00    -0.346 N 
ATOM     44  C   GLU d   1    1970.676 595.575-2027.160  0.00  0.00     0.242 C 
ATOM     45  O   GLU d   1    1971.352 596.274-2027.928  0.00  0.00    -0.271 OA
ATOM     46  H   ASN d   2    1970.753 594.210-2025.698  0.00  0.00     0.163 HD
BRANCH  44  47
ATOM     47  CA  GLU d   1    1969.167 595.615-2027.160  0.00  0.00     0.191 C 
BRANCH  47  48
ATOM     48  N   GLU d   1    1968.608 594.266-2027.160  0.00  0.00    -0.326 NA
ATOM     49  H   GLU d   1    1969.235 593.387-2027.160  0.00  0.00     0.180 HD
ENDBRANCH  47  48
BRANCH  47  50
ATOM     50  CB  GLU d   1    1968.644 596.400-2025.923  0.00  0.00     0.047 C 
BRANCH  50  51
ATOM     51  CG  GLU d   1    1969.119 597.885-2025.812  0.00  0.00     0.116 C 
BRANCH  51  52
ATOM     52  CD  GLU d   1    1968.695 598.689-2024.597  0.00  0.00     0.172 C 
ATOM     53  OE1 GLU d   1    1967.967 598.187-2023.719  0.00  0.00    -0.648 OA
ATOM     54  OE2 GLU d   1    1969.125 599.859-2024.525  0.00  0.00    -0.648 OA
ENDBRANCH  51  52
ENDBRANCH  50  51
ENDBRANCH  47  50
ENDBRANCH  44  47
ENDBRANCH  42  43
BRANCH  42  55
ATOM     55  CB  ASN d   2    1973.232 593.728-2025.270  0.00  0.00     0.137 C 
BRANCH  55  56
ATOM     56  CG  ASN d   2    1972.769 593.952-2023.827  0.00  0.00     0.217 C 
ATOM     57  ND2 ASN d   2    1973.363 594.867-2023.109  0.00  0.00    -0.370 N 
ATOM     58 21HD ASN d   2    1972.883 595.039-2022.222  0.00  0.00     0.159 HD
ATOM     59 22HD ASN d   2    1974.065 595.438-2023.578  0.00  0.00     0.159 HD
ATOM     60  OD1 ASN d   2    1971.848 593.318-2023.333  0.00  0.00    -0.274 OA
ENDBRANCH  55  56
ENDBRANCH  42  55
ENDBRANCH  37  42
ENDBRANCH  32  35
ENDBRANCH  30  31
BRANCH  30  61
ATOM     61  CB  GLU d   4    1969.751 595.864-2031.627  0.00  0.00     0.045 C 
BRANCH  61  62
ATOM     62  CG  GLU d   4    1969.203 596.868-2032.693  0.00  0.00     0.116 C 
BRANCH  62  63
ATOM     63  CD  GLU d   4    1967.776 597.365-2032.549  0.00  0.00     0.172 C 
ATOM     64  OE1 GLU d   4    1967.050 596.966-2031.619  0.00  0.00    -0.648 OA
ATOM     65  OE2 GLU d   4    1967.386 598.194-2033.398  0.00  0.00    -0.648 OA
ENDBRANCH  62  63
ENDBRANCH  61  62
ENDBRANCH  30  61
ENDBRANCH  27  30
ENDBRANCH  25  26
BRANCH  25  66
ATOM     66  CB  SER d   5    1973.347 598.913-2029.084  0.00  0.00     0.199 C 
BRANCH  66  67
ATOM     67  OG  SER d   5    1974.078 598.034-2028.223  0.00  0.00    -0.398 OA
ATOM     68  HG  SER d   5    1973.590 597.209-2028.173  0.00  0.00     0.209 HD
ENDBRANCH  66  67
ENDBRANCH  25  66
ENDBRANCH  22  25
ENDBRANCH  20  21
BRANCH  20  69
ATOM     69  CB  ILE d   6    1977.112 595.361-2030.733  0.00  0.00     0.013 C 
ATOM     70  CG2 ILE d   6    1978.553 595.059-2031.248  0.00  0.00     0.012 C 
BRANCH  69  71
ATOM     71  CG1 ILE d   6    1977.131 595.299-2029.172  0.00  0.00     0.002 C 
ATOM     72  CD1 ILE d   6    1977.401 593.910-2028.557  0.00  0.00     0.005 C 
ENDBRANCH  69  71
ENDBRANCH  20  69
ENDBRANCH  17  20
ENDBRANCH  15  16
BRANCH  15  73
ATOM     73  CB  LEU d   7    1974.251 595.099-2035.353  0.00  0.00     0.038 C 
BRANCH  73  74
ATOM     74  CG  LEU d   7    1974.179 593.620-2034.886  0.00  0.00    -0.020 C 
ATOM     75  CD1 LEU d   7    1972.989 592.914-2035.552  0.00  0.00     0.009 C 
ATOM     76  CD2 LEU d   7    1975.472 592.841-2035.178  0.00  0.00     0.009 C 
ENDBRANCH  73  74
ENDBRANCH  15  73
ENDBRANCH  12  15
ENDBRANCH  10  11
BRANCH  10  77
ATOM     77  CB  ASP d   8    1973.395 600.384-2034.750  0.00  0.00     0.147 C 
BRANCH  77  78
ATOM     78  CG  ASP d   8    1973.176 601.805-2035.290  0.00  0.00     0.175 C 
ATOM     79  OD1 ASP d   8    1973.240 602.004-2036.521  0.00  0.00    -0.648 OA
ATOM     80  OD2 ASP d   8    1972.984 602.730-2034.475  0.00  0.00    -0.648 OA
ENDBRANCH  77  78
ENDBRANCH  10  77
ENDBRANCH   7  10
ENDBRANCH   5   6
BRANCH   5  81
ATOM     81  CB  GLU d   9    1978.436 600.626-2032.879  0.00  0.00     0.045 C 
BRANCH  81  82
ATOM     82  CG  GLU d   9    1979.818 601.319-2032.649  0.00  0.00     0.116 C 
BRANCH  82  83
ATOM     83  CD  GLU d   9    1980.520 601.105-2031.321  0.00  0.00     0.172 C 
ATOM     84  OE1 GLU d   9    1979.999 600.414-2030.425  0.00  0.00    -0.648 OA
ATOM     85  OE2 GLU d   9    1981.639 601.644-2031.190  0.00  0.00    -0.648 OA
ENDBRANCH  82  83
ENDBRANCH  81  82
ENDBRANCH   5  81
ENDBRANCH   1   5
BRANCH   3  86
ATOM     86  CA  HIS d  10    1979.706 598.521-2036.571  0.00  0.00     0.182 C 
BRANCH  86  87
ATOM     87  C   HIS d  10    1979.338 599.085-2037.922  0.00  0.00     0.241 C 
ATOM     88  O   HIS d  10    1980.190 599.551-2038.693  0.00  0.00    -0.271 OA
ATOM     89  N   VAL d  11    1978.100 599.084-2038.284  0.00  0.00    -0.346 N 
ATOM     90  H   VAL d  11    1977.388 598.710-2037.674  0.00  0.00     0.163 HD
BRANCH  89  91
ATOM     91  CA  VAL d  11    1977.745 599.630-2039.591  0.00  0.00     0.180 C 
BRANCH  91  92
ATOM     92  C   VAL d  11    1978.208 601.061-2039.723  0.00  0.00     0.241 C 
ATOM     93  O   VAL d  11    1978.808 601.466-2040.726  0.00  0.00    -0.271 OA
ATOM     94  N   GLN d  12    1977.971 601.886-2038.760  0.00  0.00    -0.346 N 
ATOM     95  H   GLN d  12    1977.482 601.579-2037.931  0.00  0.00     0.163 HD
BRANCH  94  96
ATOM     96  CA  GLN d  12    1978.418 603.269-2038.887  0.00  0.00     0.177 C 
BRANCH  96  97
ATOM     97  C   GLN d  12    1979.908 603.338-2039.126  0.00  0.00     0.241 C 
ATOM     98  O   GLN d  12    1980.394 604.047-2040.005  0.00  0.00    -0.271 OA
ATOM     99  N   ARG d  13    1980.693 602.632-2038.385  0.00  0.00    -0.346 N 
ATOM    100  H   ARG d  13    1980.318 602.041-2037.657  0.00  0.00     0.163 HD
BRANCH  99 101
ATOM    101  CA  ARG d  13    1982.134 602.699-2038.617  0.00  0.00     0.176 C 
BRANCH 101 102
ATOM    102  C   ARG d  13    1982.469 602.328-2040.042  0.00  0.00     0.241 C 
ATOM    103  O   ARG d  13    1983.237 603.000-2040.726  0.00  0.00    -0.271 OA
ATOM    104  N   VAL d  14    1981.934 601.273-2040.556  0.00  0.00    -0.346 N 
ATOM    105  H   VAL d  14    1981.300 600.704-2040.014  0.00  0.00     0.163 HD
BRANCH 104 106
ATOM    106  CA  VAL d  14    1982.259 600.914-2041.934  0.00  0.00     0.180 C 
BRANCH 106 107
ATOM    107  C   VAL d  14    1981.927 602.044-2042.879  0.00  0.00     0.241 C 
ATOM    108  O   VAL d  14    1982.720 602.426-2043.749  0.00  0.00    -0.271 OA
ATOM    109  N   MET d  15    1980.782 602.629-2042.777  0.00  0.00    -0.346 N 
ATOM    110  H   MET d  15    1980.118 602.335-2042.075  0.00  0.00     0.163 HD
BRANCH 109 111
ATOM    111  CA  MET d  15    1980.460 603.722-2043.690  0.00  0.00     0.177 C 
BRANCH 111 112
ATOM    112  C   MET d  15    1981.490 604.822-2043.602  0.00  0.00     0.241 C 
ATOM    113  O   MET d  15    1981.991 605.334-2044.615  0.00  0.00    -0.271 OA
ATOM    114  N   ARG d  16    1981.858 605.243-2042.440  0.00  0.00    -0.347 N 
ATOM    115  H   ARG d  16    1981.464 604.843-2041.601  0.00  0.00     0.163 HD
BRANCH 114 116
ATOM    116  CA  ARG d  16    1982.854 606.308-2042.356  0.00  0.00     0.162 C 
BRANCH 116 117
ATOM    117  C   ARG d  16    1984.124 605.917-2043.073  0.00  0.00     0.219 C 
ATOM    118  O   ARG d  16    1984.239 604.841-2043.655  0.00  0.00    -0.287 OA
ENDBRANCH 116 117
BRANCH 116 119
ATOM    119  CB  ARG d  16    1983.123 606.626-2040.858  0.00  0.00     0.035 C 
BRANCH 119 120
ATOM    120  CG  ARG d  16    1983.947 607.916-2040.585  0.00  0.00     0.023 C 
BRANCH 120 121
ATOM    121  CD  ARG d  16    1984.197 608.135-2039.084  0.00  0.00     0.138 C 
BRANCH 121 122
ATOM    122  NE  ARG d  16    1984.971 609.395-2038.883  0.00  0.00    -0.227 N 
ATOM    123  CZ  ARG d  16    1985.363 609.877-2037.707  0.00  0.00     0.665 C 
ATOM    124  NH1 ARG d  16    1985.116 609.292-2036.568  0.00  0.00    -0.235 N 
ATOM    125  NH2 ARG d  16    1986.026 610.990-2037.688  0.00  0.00    -0.235 N 
ATOM    126 11HH ARG d  16    1984.591 608.419-2036.653  0.00  0.00     0.174 HD
ATOM    127 12HH ARG d  16    1985.450 609.728-2035.707  0.00  0.00     0.174 HD
ATOM    128 21HH ARG d  16    1986.210 611.434-2038.590  0.00  0.00     0.174 HD
ATOM    129 22HH ARG d  16    1986.316 611.345-2036.776  0.00  0.00     0.174 HD
ATOM    130  HE  ARG d  16    1985.249 609.976-2039.680  0.00  0.00     0.177 HD
ENDBRANCH 121 122
ENDBRANCH 120 121
ENDBRANCH 119 120
ENDBRANCH 116 119
ENDBRANCH 114 116
ENDBRANCH 111 112
BRANCH 111 131
ATOM    131  CB  MET d  15    1979.039 604.266-2043.380  0.00  0.00     0.045 C 
BRANCH 131 132
ATOM    132  CG  MET d  15    1977.877 603.266-2043.572  0.00  0.00     0.076 C 
BRANCH 132 133
ATOM    133  SD  MET d  15    1976.303 604.131-2043.457  0.00  0.00    -0.173 SA
ATOM    134  CE  MET d  15    1975.223 602.700-2043.321  0.00  0.00     0.089 C 
ENDBRANCH 132 133
ENDBRANCH 131 132
ENDBRANCH 111 131
ENDBRANCH 109 111
ENDBRANCH 106 107
BRANCH 106 135
ATOM    135  CB  VAL d  14    1981.487 599.596-2042.341  0.00  0.00     0.009 C 
ATOM    136  CG1 VAL d  14    1981.576 599.178-2043.834  0.00  0.00     0.012 C 
ATOM    137  CG2 VAL d  14    1981.920 598.344-2041.541  0.00  0.00     0.012 C 
ENDBRANCH 106 135
ENDBRANCH 104 106
ENDBRANCH 101 102
BRANCH 101 138
ATOM    138  CB  ARG d  13    1982.848 601.760-2037.603  0.00  0.00     0.036 C 
BRANCH 138 139
ATOM    139  CG  ARG d  13    1984.393 601.914-2037.523  0.00  0.00     0.023 C 
BRANCH 139 140
ATOM    140  CD  ARG d  13    1985.021 600.927-2036.525  0.00  0.00     0.138 C 
BRANCH 140 141
ATOM    141  NE  ARG d  13    1986.498 601.135-2036.475  0.00  0.00    -0.227 N 
ATOM    142  CZ  ARG d  13    1987.347 600.444-2035.721  0.00  0.00     0.665 C 
ATOM    143  NH1 ARG d  13    1986.983 599.479-2034.923  0.00  0.00    -0.235 N 
ATOM    144  NH2 ARG d  13    1988.606 600.744-2035.778  0.00  0.00    -0.235 N 
ATOM    145 11HH ARG d  13    1985.977 599.292-2034.926  0.00  0.00     0.174 HD
ATOM    146 12HH ARG d  13    1987.696 598.996-2034.375  0.00  0.00     0.174 HD
ATOM    147 21HH ARG d  13    1988.873 601.502-2036.409  0.00  0.00     0.174 HD
ATOM    148 22HH ARG d  13    1989.242 600.203-2035.189  0.00  0.00     0.174 HD
ATOM    149  HE  ARG d  13    1986.948 601.858-2037.046  0.00  0.00     0.177 HD
ENDBRANCH 140 141
ENDBRANCH 139 140
ENDBRANCH 138 139
ENDBRANCH 101 138
ENDBRANCH  99 101
ENDBRANCH  96  97
BRANCH  96 150
ATOM    150  CB  GLN d  12    1978.027 604.036-2037.604  0.00  0.00     0.044 C 
BRANCH 150 151
ATOM    151  CG  GLN d  12    1978.386 605.558-2037.573  0.00  0.00     0.105 C 
BRANCH 151 152
ATOM    152  CD  GLN d  12    1978.083 606.371-2036.308  0.00  0.00     0.215 C 
ATOM    153  NE2 GLN d  12    1977.517 605.794-2035.279  0.00  0.00    -0.370 N 
ATOM    154 21HE GLN d  12    1977.410 606.388-2034.455  0.00  0.00     0.159 HD
ATOM    155 22HE GLN d  12    1977.354 604.791-2035.383  0.00  0.00     0.159 HD
ATOM    156  OE1 GLN d  12    1978.384 607.552-2036.230  0.00  0.00    -0.274 OA
ENDBRANCH 151 152
ENDBRANCH 150 151
ENDBRANCH  96 150
ENDBRANCH  94  96
ENDBRANCH  91  92
BRANCH  91 157
ATOM    157  CB  VAL d  11    1976.183 599.522-2039.810  0.00  0.00     0.009 C 
ATOM    158  CG1 VAL d  11    1975.614 600.226-2041.073  0.00  0.00     0.012 C 
ATOM    159  CG2 VAL d  11    1975.660 598.068-2039.883  0.00  0.00     0.012 C 
ENDBRANCH  91 157
ENDBRANCH  89  91
ENDBRANCH  86  87
BRANCH  86 160
ATOM    160  CB  HIS d  10    1979.542 596.992-2036.566  0.00  0.00     0.095 C 
BRANCH 160 161
ATOM    161  CG  HIS d  10    1980.828 596.282-2036.258  0.00  0.00     0.053 A 
ATOM    162  CD2 HIS d  10    1981.210 595.946-2034.966  0.00  0.00     0.116 A 
ATOM    163  NE2 HIS d  10    1982.425 595.315-2035.033  0.00  0.00    -0.359 N 
ATOM    164  CE1 HIS d  10    1982.687 595.319-2036.368  0.00  0.00     0.207 A 
ATOM    165  2HE HIS d  10    1982.992 594.938-2034.260  0.00  0.00     0.166 HD
ATOM    166  ND1 HIS d  10    1981.780 595.877-2037.191  0.00  0.00    -0.247 NA
ENDBRANCH 160 161
ENDBRANCH  86 160
ENDBRANCH   3  86
TORSDOF 68
