@<TRIPOS>MOLECULE
13-1
251 252 16              
SMALL
USER_CHARGES
@<TRIPOS>ATOM
1	   N	2009.882	607.914	-2071.693	N.3	1	GLU1	-0.516	
2	  CA	2010.441	609.263	-2071.693	C.3	1	GLU1	0.040	
3	   C	2011.950	609.223	-2071.693	C.2	1	GLU1	0.537	
4	   O	2012.626	609.922	-2072.461	O.2	1	GLU1	-0.582	
5	  CB	2009.918	610.048	-2070.456	C.3	1	GLU1	0.056	
6	  CG	2010.393	611.533	-2070.345	C.3	1	GLU1	0.014	
7	  CD	2009.969	612.337	-2069.130	C.2	1	GLU1	0.805	
8	 OE1	2009.241	611.835	-2068.252	O.co2	1	GLU1	-0.819	
9	 OE2	2010.399	613.507	-2069.058	O.co2	1	GLU1	-0.819	
10	   H	2010.509	607.035	-2071.693	 H	1	GLU1	0.294	
11	  HA	2010.115	609.781	-2072.613	 H	1	GLU1	0.111	
12	 2HB	2010.207	609.517	-2069.526	 H	1	GLU1	-0.017	
13	 3HB	2008.811	610.038	-2070.443	 H	1	GLU1	-0.017	
14	 2HG	2010.083	612.118	-2071.226	 H	1	GLU1	-0.043	
15	 3HG	2011.493	611.600	-2070.316	 H	1	GLU1	-0.043	
16	   N	2012.555	608.437	-2070.867	N.am	2	ASN2	-0.416	
17	  CA	2014.014	608.399	-2070.867	C.3	2	ASN2	0.014	
18	   C	2014.545	608.043	-2072.236	C.2	2	ASN2	0.597	
19	   O	2015.460	608.674	-2072.765	O.2	2	ASN2	-0.568	
20	  CB	2014.506	607.376	-2069.803	C.3	2	ASN2	-0.204	
21	  CG	2014.043	607.599	-2068.360	C.2	2	ASN2	0.713	
22	 ND2	2014.637	608.514	-2067.642	N.pl3	2	ASN2	-0.919	
23	 OD1	2013.122	606.966	-2067.866	O.2	2	ASN2	-0.593	
24	   H	2012.027	607.858	-2070.231	 H	2	ASN2	0.272	
25	  HA	2014.391	609.409	-2070.622	 H	2	ASN2	0.105	
26	 2HB	2015.610	607.317	-2069.807	 H	2	ASN2	0.080	
27	 3HB	2014.177	606.357	-2070.089	 H	2	ASN2	0.080	
28	1HD2	2014.156	608.688	-2066.755	 H	2	ASN2	0.420	
29	2HD2	2015.339	609.086	-2068.111	 H	2	ASN2	0.420	
30	   N	2014.024	607.048	-2072.870	N.am	3	PRO3	-0.255	
31	  CA	2014.475	606.639	-2074.191	C.3	3	PRO3	-0.027	
32	   C	2014.077	607.662	-2075.269	C.2	3	PRO3	0.590	
33	   O	2014.901	608.045	-2076.100	O.2	3	PRO3	-0.575	
34	  CB	2013.771	605.284	-2074.361	C.3	3	PRO3	-0.007	
35	  CG	2012.488	605.436	-2073.531	C.3	3	PRO3	0.019	
36	  CD	2012.946	606.255	-2072.321	C.3	3	PRO3	0.019	
37	  HA	2015.561	606.519	-2074.205	 H	3	PRO3	0.064	
38	 2HB	2014.394	604.503	-2073.920	 H	3	PRO3	0.025	
39	 3HB	2013.573	605.035	-2075.406	 H	3	PRO3	0.025	
40	 2HG	2012.060	604.474	-2073.240	 H	3	PRO3	0.021	
41	 3HG	2011.750	606.007	-2074.098	 H	3	PRO3	0.021	
42	 2HD	2013.335	605.605	-2071.533	 H	3	PRO3	0.039	
43	 3HD	2012.149	606.891	-2071.928	 H	3	PRO3	0.039	
44	   N	2012.873	608.122	-2075.301	N.am	4	GLU4	-0.516	
45	  CA	2012.513	609.093	-2076.331	C.3	4	GLU4	0.040	
46	   C	2013.412	610.304	-2076.270	C.2	4	GLU4	0.537	
47	   O	2013.938	610.783	-2077.284	O.2	4	GLU4	-0.582	
48	  CB	2011.024	609.512	-2076.161	C.3	4	GLU4	0.056	
49	  CG	2010.476	610.515	-2077.227	C.3	4	GLU4	0.014	
50	  CD	2009.050	611.012	-2077.083	C.2	4	GLU4	0.805	
51	 OE1	2008.323	610.613	-2076.153	O.co2	4	GLU4	-0.819	
52	 OE2	2008.660	611.840	-2077.932	O.co2	4	GLU4	-0.819	
53	   H	2012.188	607.816	-2074.625	 H	4	GLU4	0.294	
54	  HA	2012.644	608.622	-2077.322	 H	4	GLU4	0.111	
55	 2HB	2010.872	609.952	-2075.154	 H	4	GLU4	-0.017	
56	 3HB	2010.377	608.614	-2076.167	 H	4	GLU4	-0.017	
57	 2HG	2010.558	610.100	-2078.245	 H	4	GLU4	-0.043	
58	 3HG	2011.064	611.447	-2077.238	 H	4	GLU4	-0.043	
59	   N	2013.639	610.857	-2075.127	N.am	5	SER5	-0.416	
60	  CA	2014.509	612.028	-2075.068	C.3	5	SER5	-0.025	
61	   C	2015.868	611.722	-2075.654	C.2	5	SER5	0.597	
62	   O	2016.415	612.475	-2076.459	O.2	5	SER5	-0.568	
63	  CB	2014.621	612.560	-2073.618	C.3	5	SER5	0.212	
64	  OG	2015.352	611.680	-2072.757	O.3	5	SER5	-0.655	
65	   H	2013.222	610.485	-2074.285	 H	5	SER5	0.272	
66	  HA	2014.060	612.818	-2075.698	 H	5	SER5	0.084	
67	 2HB	2013.621	612.754	-2073.185	 H	5	SER5	0.035	
68	 3HB	2015.126	613.545	-2073.620	 H	5	SER5	0.035	
69	  HG	2014.863	610.856	-2072.706	 H	5	SER5	0.428	
70	   N	2016.472	610.638	-2075.300	N.am	6	ILE6	-0.416	
71	  CA	2017.785	610.343	-2075.866	C.3	6	ILE6	-0.060	
72	   C	2017.728	610.306	-2077.374	C.2	6	ILE6	0.597	
73	   O	2018.563	610.894	-2078.077	O.2	6	ILE6	-0.568	
74	  CB	2018.384	609.007	-2075.266	C.3	6	ILE6	0.130	
75	 CG1	2018.404	608.944	-2073.705	C.3	6	ILE6	-0.043	
76	 CG2	2019.826	608.705	-2075.781	C.3	6	ILE6	-0.320	
77	 CD1	2018.673	607.555	-2073.091	C.3	6	ILE6	-0.066	
78	   H	2016.043	610.004	-2074.641	 H	6	ILE6	0.272	
79	  HA	2018.460	611.177	-2075.598	 H	6	ILE6	0.087	
80	  HB	2017.726	608.181	-2075.611	 H	6	ILE6	0.019	
81	2HG1	2017.422	609.264	-2073.310	 H	6	ILE6	0.024	
82	3HG1	2019.120	609.686	-2073.300	 H	6	ILE6	0.024	
83	1HG2	2019.885	608.611	-2076.880	 H	6	ILE6	0.088	
84	2HG2	2020.548	609.487	-2075.479	 H	6	ILE6	0.088	
85	3HG2	2020.215	607.742	-2075.403	 H	6	ILE6	0.088	
86	1HD1	2017.944	606.801	-2073.446	 H	6	ILE6	0.019	
87	2HD1	2019.684	607.176	-2073.326	 H	6	ILE6	0.019	
88	3HD1	2018.597	607.585	-2071.988	 H	6	ILE6	0.019	
89	   N	2016.782	609.643	-2077.948	N.am	7	LEU7	-0.416	
90	  CA	2016.728	609.608	-2079.407	C.3	7	LEU7	-0.052	
91	   C	2016.656	611.003	-2079.979	C.2	7	LEU7	0.597	
92	   O	2017.377	611.366	-2080.920	O.2	7	LEU7	-0.568	
93	  CB	2015.524	608.748	-2079.888	C.3	7	LEU7	-0.110	
94	  CG	2015.451	607.269	-2079.422	C.3	7	LEU7	0.353	
95	 CD1	2014.261	606.563	-2080.088	C.3	7	LEU7	-0.412	
96	 CD2	2016.744	606.489	-2079.713	C.3	7	LEU7	-0.412	
97	   H	2016.090	609.156	-2077.397	 H	7	LEU7	0.272	
98	  HA	2017.670	609.168	-2079.781	 H	7	LEU7	0.092	
99	 2HB	2015.502	608.765	-2080.995	 H	7	LEU7	0.046	
100	 3HB	2014.585	609.251	-2079.584	 H	7	LEU7	0.046	
101	  HG	2015.281	607.260	-2078.325	 H	7	LEU7	-0.036	
102	1HD1	2013.304	607.073	-2079.865	 H	7	LEU7	0.100	
103	2HD1	2014.360	606.523	-2081.189	 H	7	LEU7	0.100	
104	3HD1	2014.154	605.522	-2079.732	 H	7	LEU7	0.100	
105	1HD2	2017.020	606.519	-2080.783	 H	7	LEU7	0.100	
106	2HD2	2017.598	606.900	-2079.142	 H	7	LEU7	0.100	
107	3HD2	2016.662	605.427	-2079.417	 H	7	LEU7	0.100	
108	   N	2015.819	611.844	-2079.472	N.am	8	ASP8	-0.516	
109	  CA	2015.749	613.194	-2080.025	C.3	8	ASP8	0.038	
110	   C	2017.096	613.873	-2079.967	C.2	8	ASP8	0.537	
111	   O	2017.569	614.479	-2080.941	O.2	8	ASP8	-0.582	
112	  CB	2014.671	614.033	-2079.283	C.3	8	ASP8	-0.030	
113	  CG	2014.453	615.454	-2079.823	C.2	8	ASP8	0.799	
114	 OD1	2014.517	615.653	-2081.053	O.co2	8	ASP8	-0.801	
115	 OD2	2014.260	616.379	-2079.007	O.co2	8	ASP8	-0.801	
116	   H	2015.221	611.572	-2078.705	 H	8	ASP8	0.294	
117	  HA	2015.467	613.117	-2081.092	 H	8	ASP8	0.088	
118	 2HB	2014.928	614.115	-2078.211	 H	8	ASP8	-0.012	
119	 3HB	2013.692	613.528	-2079.317	 H	8	ASP8	-0.012	
120	   N	2017.775	613.822	-2078.871	N.am	9	GLU9	-0.516	
121	  CA	2019.078	614.480	-2078.815	C.3	9	GLU9	0.040	
122	   C	2019.996	613.952	-2079.891	C.2	9	GLU9	0.537	
123	   O	2020.661	614.707	-2080.615	O.2	9	GLU9	-0.582	
124	  CB	2019.711	614.271	-2077.409	C.3	9	GLU9	0.056	
125	  CG	2021.094	614.962	-2077.179	C.3	9	GLU9	0.014	
126	  CD	2021.795	614.748	-2075.851	C.2	9	GLU9	0.805	
127	 OE1	2021.273	614.057	-2074.955	O.co2	9	GLU9	-0.819	
128	 OE2	2022.914	615.285	-2075.718	O.co2	9	GLU9	-0.819	
129	   H	2017.411	613.335	-2078.065	 H	9	GLU9	0.294	
130	  HA	2018.936	615.562	-2078.990	 H	9	GLU9	0.111	
131	 2HB	2019.823	613.186	-2077.207	 H	9	GLU9	-0.017	
132	 3HB	2019.014	614.624	-2076.625	 H	9	GLU9	-0.017	
133	 2HG	2021.022	616.053	-2077.318	 H	9	GLU9	-0.043	
134	 3HG	2021.841	614.618	-2077.913	 H	9	GLU9	-0.043	
135	   N	2020.093	612.677	-2080.061	N.am	10	HIS10	-0.416	
136	  CA	2020.981	612.167	-2081.102	C.3	10	HIS10	-0.058	
137	   C	2020.615	612.732	-2082.453	C.2	10	HIS10	0.597	
138	   O	2021.467	613.197	-2083.224	O.2	10	HIS10	-0.568	
139	  CB	2020.816	610.638	-2081.098	C.3	10	HIS10	-0.007	
140	  CG	2022.102	609.927	-2080.790	C.2	10	HIS10	0.187	
141	 CD2	2022.482	609.591	-2079.497	C.2	10	HIS10	-0.221	
142	 ND1	2023.054	609.522	-2081.722	N.2	10	HIS10	-0.543	
143	 CE1	2023.960	608.963	-2080.899	C.2	10	HIS10	0.163	
144	 NE2	2023.697	608.959	-2079.564	N.pl3	10	HIS10	-0.280	
145	   H	2019.561	612.042	-2079.483	 H	10	HIS10	0.272	
146	  HA	2022.000	612.523	-2080.876	 H	10	HIS10	0.136	
147	 2HB	2020.452	610.271	-2082.078	 H	10	HIS10	0.037	
148	 3HB	2020.061	610.300	-2080.358	 H	10	HIS10	0.037	
149	 2HD	2021.896	609.805	-2078.608	 H	10	HIS10	0.186	
150	 1HE	2024.851	608.542	-2081.346	 H	10	HIS10	0.144	
151	 2HE	2024.264	608.581	-2078.791	 H	10	HIS10	0.334	
152	   N	2019.377	612.732	-2082.816	N.am	11	VAL11	-0.416	
153	  CA	2019.022	613.279	-2084.123	C.3	11	VAL11	-0.087	
154	   C	2019.487	614.709	-2084.254	C.2	11	VAL11	0.597	
155	   O	2020.088	615.115	-2085.256	O.2	11	VAL11	-0.568	
156	  CB	2017.461	613.173	-2084.342	C.3	11	VAL11	0.299	
157	 CG1	2016.893	613.878	-2085.605	C.3	11	VAL11	-0.319	
158	 CG2	2016.936	611.719	-2084.417	C.3	11	VAL11	-0.319	
159	   H	2018.664	612.359	-2082.206	 H	11	VAL11	0.272	
160	  HA	2019.542	612.697	-2084.905	 H	11	VAL11	0.097	
161	  HB	2016.973	613.652	-2083.467	 H	11	VAL11	-0.030	
162	1HG1	2017.331	613.487	-2086.542	 H	11	VAL11	0.079	
163	2HG1	2015.794	613.771	-2085.687	 H	11	VAL11	0.079	
164	3HG1	2017.071	614.970	-2085.594	 H	11	VAL11	0.079	
165	1HG2	2017.226	611.131	-2083.527	 H	11	VAL11	0.079	
166	2HG2	2015.830	611.682	-2084.460	 H	11	VAL11	0.079	
167	3HG2	2017.318	611.179	-2085.304	 H	11	VAL11	0.079	
168	   N	2019.250	615.534	-2083.291	N.am	12	GLN12	-0.416	
169	  CA	2019.698	616.917	-2083.417	C.3	12	GLN12	-0.003	
170	   C	2021.189	616.984	-2083.654	C.2	12	GLN12	0.597	
171	   O	2021.676	617.693	-2084.531	O.2	12	GLN12	-0.568	
172	  CB	2019.308	617.684	-2082.133	C.3	12	GLN12	-0.004	
173	  CG	2019.668	619.205	-2082.101	C.3	12	GLN12	-0.064	
174	  CD	2019.366	620.018	-2080.835	C.2	12	GLN12	0.695	
175	 NE2	2018.798	619.441	-2079.807	N.pl3	12	GLN12	-0.941	
176	 OE1	2019.668	621.199	-2080.757	O.2	12	GLN12	-0.609	
177	   H	2018.761	615.227	-2082.462	 H	12	GLN12	0.272	
178	  HA	2019.199	617.374	-2084.291	 H	12	GLN12	0.085	
179	 2HB	2019.783	617.183	-2081.264	 H	12	GLN12	0.017	
180	 3HB	2018.217	617.576	-2081.970	 H	12	GLN12	0.017	
181	 2HG	2019.191	619.727	-2082.951	 H	12	GLN12	0.035	
182	 3HG	2020.752	619.347	-2082.266	 H	12	GLN12	0.035	
183	1HE2	2018.691	620.035	-2078.983	 H	12	GLN12	0.425	
184	2HE2	2018.635	618.437	-2079.911	 H	12	GLN12	0.425	
185	   N	2021.973	616.277	-2082.913	N.am	13	ALA13	-0.416	
186	  CA	2023.413	616.342	-2083.144	C.3	13	ALA13	0.034	
187	   C	2023.750	615.972	-2084.569	C.2	13	ALA13	0.597	
188	   O	2024.523	616.648	-2085.257	O.2	13	ALA13	-0.568	
189	  CB	2024.093	615.425	-2082.113	C.3	13	ALA13	-0.183	
190	   H	2021.596	615.686	-2082.186	 H	13	ALA13	0.272	
191	  HA	2023.749	617.385	-2082.987	 H	13	ALA13	0.082	
192	 1HB	2023.865	615.734	-2081.075	 H	13	ALA13	0.060	
193	 2HB	2023.768	614.371	-2082.215	 H	13	ALA13	0.060	
194	 3HB	2025.193	615.437	-2082.213	 H	13	ALA13	0.060	
195	   N	2023.214	614.918	-2085.084	N.am	14	VAL14	-0.416	
196	  CA	2023.539	614.560	-2086.462	C.3	14	VAL14	-0.087	
197	   C	2023.209	615.690	-2087.407	C.2	14	VAL14	0.597	
198	   O	2024.004	616.072	-2088.276	O.2	14	VAL14	-0.568	
199	  CB	2022.766	613.243	-2086.870	C.3	14	VAL14	0.299	
200	 CG1	2022.856	612.826	-2088.363	C.3	14	VAL14	-0.319	
201	 CG2	2023.198	611.990	-2086.070	C.3	14	VAL14	-0.319	
202	   H	2022.578	614.349	-2084.542	 H	14	VAL14	0.272	
203	  HA	2024.627	614.383	-2086.536	 H	14	VAL14	0.097	
204	  HB	2021.690	613.414	-2086.654	 H	14	VAL14	-0.030	
205	1HG1	2023.898	612.649	-2088.692	 H	14	VAL14	0.079	
206	2HG1	2022.283	611.903	-2088.577	 H	14	VAL14	0.079	
207	3HG1	2022.427	613.588	-2089.041	 H	14	VAL14	0.079	
208	1HG2	2023.110	612.148	-2084.979	 H	14	VAL14	0.079	
209	2HG2	2022.562	611.114	-2086.303	 H	14	VAL14	0.079	
210	3HG2	2024.245	611.700	-2086.275	 H	14	VAL14	0.079	
211	   N	2022.065	616.276	-2087.305	N.am	15	MET15	-0.416	
212	  CA	2021.745	617.370	-2088.219	C.3	15	MET15	-0.024	
213	   C	2022.776	618.469	-2088.129	C.2	15	MET15	0.597	
214	   O	2023.279	618.981	-2089.142	O.2	15	MET15	-0.568	
215	  CB	2020.324	617.915	-2087.910	C.3	15	MET15	0.034	
216	  CG	2019.162	616.918	-2088.103	C.3	15	MET15	0.002	
217	  SD	2017.588	617.784	-2087.989	S.3	15	MET15	-0.274	
218	  CE	2016.506	616.354	-2087.854	C.3	15	MET15	-0.054	
219	   H	2021.399	615.983	-2086.604	 H	15	MET15	0.272	
220	  HA	2021.772	616.983	-2089.254	 H	15	MET15	0.088	
221	 2HB	2020.122	618.795	-2088.552	 H	15	MET15	0.024	
222	 3HB	2020.288	618.307	-2086.874	 H	15	MET15	0.024	
223	 2HG	2019.204	616.131	-2087.326	 H	15	MET15	0.044	
224	 3HG	2019.225	616.403	-2089.080	 H	15	MET15	0.044	
225	 1HE	2016.650	615.667	-2088.707	 H	15	MET15	0.068	
226	 2HE	2016.715	615.801	-2086.922	 H	15	MET15	0.068	
227	 3HE	2015.449	616.670	-2087.838	 H	15	MET15	0.068	
228	   N	2023.144	618.890	-2086.967	N.am	16	ARG16	-0.348	
229	  CA	2024.141	619.953	-2086.882	C.3	16	ARG16	-0.264	
230	   C	2025.412	619.561	-2087.598	C.2	16	ARG16	0.734	
231	   O	2025.525	618.485	-2088.180	O.2	16	ARG16	-0.589	
232	  CB	2024.409	620.270	-2085.383	C.3	16	ARG16	-0.001	
233	  CG	2025.234	621.559	-2085.109	C.3	16	ARG16	0.039	
234	  CD	2025.483	621.777	-2083.608	C.3	16	ARG16	0.049	
235	  NE	2026.260	623.036	-2083.406	N.pl3	16	ARG16	-0.530	
236	  CZ	2026.650	623.517	-2082.229	C.cat	16	ARG16	0.808	
237	 NH1	2026.402	622.932	-2081.091	N.pl3	16	ARG16	-0.863	
238	 NH2	2027.315	624.630	-2082.210	N.pl3	16	ARG16	-0.863	
239	   H	2022.749	618.489	-2086.128	 H	16	ARG16	0.275	
240	  HA	2023.732	620.846	-2087.391	 H	16	ARG16	0.156	
241	 2HB	2024.905	619.394	-2084.917	 H	16	ARG16	0.033	
242	 3HB	2023.440	620.351	-2084.850	 H	16	ARG16	0.033	
243	 2HG	2024.704	622.430	-2085.546	 H	16	ARG16	0.029	
244	 3HG	2026.208	621.506	-2085.638	 H	16	ARG16	0.029	
245	 2HD	2026.031	620.902	-2083.195	 H	16	ARG16	0.069	
246	 3HD	2024.510	621.820	-2083.073	 H	16	ARG16	0.069	
247	  HE	2026.539	623.617	-2084.202	 H	16	ARG16	0.346	
248	1HH1	2025.876	622.059	-2081.177	 H	16	ARG16	0.448	
249	2HH1	2026.736	623.367	-2080.229	 H	16	ARG16	0.448	
250	1HH2	2027.501	625.073	-2083.111	 H	16	ARG16	0.448	
251	2HH2	2027.604	624.984	-2081.297	 H	16	ARG16	0.448	
@<TRIPOS>BOND
1 1 2 1
2 1 10 1
3 2 3 1
4 2 5 1
5 2 11 1
6 3 4 2
7 3 16 1
8 5 6 1
9 6 7 1
10 7 8 2
11 7 9 1
12 5 12 1
13 5 13 1
14 6 14 1
15 6 15 1
16 16 17 1
17 16 24 1
18 17 18 1
19 17 20 1
20 17 25 1
21 18 19 2
22 18 30 1
23 20 21 1
24 21 22 1
25 21 23 2
26 20 26 1
27 20 27 1
28 22 28 1
29 22 29 1
30 30 31 1
31 30 36 1
32 31 32 1
33 31 34 1
34 31 37 1
35 32 33 2
36 32 44 1
37 34 35 1
38 35 36 1
39 34 38 1
40 34 39 1
41 35 40 1
42 35 41 1
43 36 42 1
44 36 43 1
45 44 45 1
46 44 53 1
47 45 46 1
48 45 48 1
49 45 54 1
50 46 47 2
51 46 59 1
52 48 49 1
53 49 50 1
54 50 51 2
55 50 52 1
56 48 55 1
57 48 56 1
58 49 57 1
59 49 58 1
60 59 60 1
61 59 65 1
62 60 61 1
63 60 63 1
64 60 66 1
65 61 62 2
66 61 70 1
67 63 64 1
68 63 67 1
69 63 68 1
70 64 69 1
71 70 71 1
72 70 78 1
73 71 72 1
74 71 74 1
75 71 79 1
76 72 73 2
77 72 89 1
78 74 75 1
79 74 76 1
80 75 77 1
81 74 80 1
82 75 81 1
83 75 82 1
84 76 83 1
85 76 84 1
86 76 85 1
87 77 86 1
88 77 87 1
89 77 88 1
90 89 90 1
91 89 97 1
92 90 91 1
93 90 93 1
94 90 98 1
95 91 92 2
96 91 108 1
97 93 94 1
98 94 95 1
99 94 96 1
100 93 99 1
101 93 100 1
102 94 101 1
103 95 102 1
104 95 103 1
105 95 104 1
106 96 105 1
107 96 106 1
108 96 107 1
109 108 109 1
110 108 116 1
111 109 110 1
112 109 112 1
113 109 117 1
114 110 111 2
115 110 120 1
116 112 113 1
117 113 114 2
118 113 115 1
119 112 118 1
120 112 119 1
121 120 121 1
122 120 129 1
123 121 122 1
124 121 124 1
125 121 130 1
126 122 123 2
127 122 135 1
128 124 125 1
129 125 126 1
130 126 127 2
131 126 128 1
132 124 131 1
133 124 132 1
134 125 133 1
135 125 134 1
136 135 136 1
137 135 145 1
138 136 137 1
139 136 139 1
140 136 146 1
141 137 138 2
142 137 152 1
143 139 140 1
144 140 141 2
145 141 144 1
146 140 142 1
147 142 143 2
148 143 144 1
149 139 147 1
150 139 148 1
151 141 149 1
152 143 150 1
153 144 151 1
154 152 153 1
155 152 159 1
156 153 154 1
157 153 156 1
158 153 160 1
159 154 155 2
160 154 168 1
161 156 157 1
162 156 158 1
163 156 161 1
164 157 162 1
165 157 163 1
166 157 164 1
167 158 165 1
168 158 166 1
169 158 167 1
170 168 169 1
171 168 177 1
172 169 170 1
173 169 172 1
174 169 178 1
175 170 171 2
176 170 185 1
177 172 173 1
178 173 174 1
179 174 175 1
180 174 176 2
181 172 179 1
182 172 180 1
183 173 181 1
184 173 182 1
185 175 183 1
186 175 184 1
187 185 186 1
188 185 190 1
189 186 187 1
190 186 189 1
191 186 191 1
192 187 188 2
193 187 195 1
194 189 192 1
195 189 193 1
196 189 194 1
197 195 196 1
198 195 202 1
199 196 197 1
200 196 199 1
201 196 203 1
202 197 198 2
203 197 211 1
204 199 200 1
205 199 201 1
206 199 204 1
207 200 205 1
208 200 206 1
209 200 207 1
210 201 208 1
211 201 209 1
212 201 210 1
213 211 212 1
214 211 219 1
215 212 213 1
216 212 215 1
217 212 220 1
218 213 214 2
219 213 228 1
220 215 216 1
221 216 217 1
222 217 218 1
223 215 221 1
224 215 222 1
225 216 223 1
226 216 224 1
227 218 225 1
228 218 226 1
229 218 227 1
230 228 229 1
231 228 239 1
232 229 230 1
233 229 232 1
234 229 240 1
235 230 231 2
236 232 233 1
237 233 234 1
238 234 235 1
239 235 236 1
240 236 237 2
241 236 238 1
242 232 241 1
243 232 242 1
244 233 243 1
245 233 244 1
246 234 245 1
247 234 246 1
248 235 247 1
249 237 248 1
250 237 249 1
251 238 250 1
252 238 251 1
@<TRIPOS>SUBSTRUCTURE
1	GLU1	1	RESIDUE	1 ****	GLU
2	ASN2	16	RESIDUE	1 ****	ASN
3	PRO3	30	RESIDUE	1 ****	PRO
4	GLU4	44	RESIDUE	1 ****	GLU
5	SER5	59	RESIDUE	1 ****	SER
6	ILE6	70	RESIDUE	1 ****	ILE
7	LEU7	89	RESIDUE	1 ****	LEU
8	ASP8	108	RESIDUE	1 ****	ASP
9	GLU9	120	RESIDUE	1 ****	GLU
10	HIS10	135	RESIDUE	1 ****	HIS
11	VAL11	152	RESIDUE	1 ****	VAL
12	GLN12	168	RESIDUE	1 ****	GLN
13	ALA13	185	RESIDUE	1 ****	ALA
14	VAL14	195	RESIDUE	1 ****	VAL
15	MET15	211	RESIDUE	1 ****	MET
16	ARG16	228	RESIDUE	1 ****	ARG
