@<TRIPOS>MOLECULE
12-9
269 271 16              
SMALL
USER_CHARGES
@<TRIPOS>ATOM
1	   N	1911.280	575.893	-1964.712	N.3	1	GLU1	-0.516	
2	  CA	1911.839	577.242	-1964.712	C.3	1	GLU1	0.040	
3	   C	1913.348	577.202	-1964.712	C.2	1	GLU1	0.537	
4	   O	1914.024	577.901	-1965.480	O.2	1	GLU1	-0.582	
5	  CB	1911.316	578.027	-1963.475	C.3	1	GLU1	0.056	
6	  CG	1911.791	579.512	-1963.364	C.3	1	GLU1	0.014	
7	  CD	1911.367	580.316	-1962.149	C.2	1	GLU1	0.805	
8	 OE1	1910.639	579.814	-1961.271	O.co2	1	GLU1	-0.819	
9	 OE2	1911.797	581.486	-1962.077	O.co2	1	GLU1	-0.819	
10	   H	1911.907	575.014	-1964.712	 H	1	GLU1	0.294	
11	  HA	1911.513	577.760	-1965.632	 H	1	GLU1	0.111	
12	 2HB	1911.605	577.496	-1962.545	 H	1	GLU1	-0.017	
13	 3HB	1910.209	578.017	-1963.462	 H	1	GLU1	-0.017	
14	 2HG	1911.481	580.097	-1964.245	 H	1	GLU1	-0.043	
15	 3HG	1912.891	579.579	-1963.335	 H	1	GLU1	-0.043	
16	   N	1913.953	576.416	-1963.887	N.am	2	ASN2	-0.416	
17	  CA	1915.412	576.377	-1963.887	C.3	2	ASN2	0.014	
18	   C	1915.943	576.021	-1965.255	C.2	2	ASN2	0.597	
19	   O	1916.858	576.652	-1965.784	O.2	2	ASN2	-0.568	
20	  CB	1915.904	575.354	-1962.822	C.3	2	ASN2	-0.204	
21	  CG	1915.441	575.578	-1961.379	C.2	2	ASN2	0.713	
22	 ND2	1916.035	576.493	-1960.661	N.pl3	2	ASN2	-0.919	
23	 OD1	1914.520	574.944	-1960.885	O.2	2	ASN2	-0.593	
24	   H	1913.424	575.836	-1963.250	 H	2	ASN2	0.272	
25	  HA	1915.789	577.387	-1963.641	 H	2	ASN2	0.105	
26	 2HB	1917.008	575.295	-1962.826	 H	2	ASN2	0.080	
27	 3HB	1915.575	574.336	-1963.108	 H	2	ASN2	0.080	
28	1HD2	1915.554	576.666	-1959.774	 H	2	ASN2	0.420	
29	2HD2	1916.737	577.064	-1961.130	 H	2	ASN2	0.420	
30	   N	1915.422	575.026	-1965.889	N.am	3	PRO3	-0.255	
31	  CA	1915.873	574.617	-1967.211	C.3	3	PRO3	-0.027	
32	   C	1915.475	575.641	-1968.288	C.2	3	PRO3	0.590	
33	   O	1916.299	576.024	-1969.119	O.2	3	PRO3	-0.575	
34	  CB	1915.169	573.262	-1967.380	C.3	3	PRO3	-0.007	
35	  CG	1913.886	573.415	-1966.550	C.3	3	PRO3	0.019	
36	  CD	1914.344	574.233	-1965.340	C.3	3	PRO3	0.019	
37	  HA	1916.959	574.497	-1967.225	 H	3	PRO3	0.064	
38	 2HB	1915.792	572.481	-1966.939	 H	3	PRO3	0.025	
39	 3HB	1914.971	573.014	-1968.426	 H	3	PRO3	0.025	
40	 2HG	1913.458	572.452	-1966.259	 H	3	PRO3	0.021	
41	 3HG	1913.148	573.985	-1967.117	 H	3	PRO3	0.021	
42	 2HD	1914.733	573.584	-1964.553	 H	3	PRO3	0.039	
43	 3HD	1913.547	574.869	-1964.947	 H	3	PRO3	0.039	
44	   N	1914.271	576.101	-1968.320	N.am	4	GLU4	-0.516	
45	  CA	1913.911	577.072	-1969.350	C.3	4	GLU4	0.040	
46	   C	1914.810	578.283	-1969.289	C.2	4	GLU4	0.537	
47	   O	1915.336	578.762	-1970.303	O.2	4	GLU4	-0.582	
48	  CB	1912.422	577.490	-1969.179	C.3	4	GLU4	0.056	
49	  CG	1911.874	578.494	-1970.245	C.3	4	GLU4	0.014	
50	  CD	1910.448	578.991	-1970.101	C.2	4	GLU4	0.805	
51	 OE1	1909.721	578.592	-1969.171	O.co2	4	GLU4	-0.819	
52	 OE2	1910.058	579.820	-1970.950	O.co2	4	GLU4	-0.819	
53	   H	1913.586	575.794	-1967.643	 H	4	GLU4	0.294	
54	  HA	1914.042	576.601	-1970.341	 H	4	GLU4	0.111	
55	 2HB	1912.270	577.930	-1968.173	 H	4	GLU4	-0.017	
56	 3HB	1911.774	576.593	-1969.186	 H	4	GLU4	-0.017	
57	 2HG	1911.956	578.079	-1971.263	 H	4	GLU4	-0.043	
58	 3HG	1912.462	579.426	-1970.256	 H	4	GLU4	-0.043	
59	   N	1915.037	578.835	-1968.145	N.am	5	SER5	-0.416	
60	  CA	1915.907	580.007	-1968.087	C.3	5	SER5	-0.025	
61	   C	1917.266	579.701	-1968.673	C.2	5	SER5	0.597	
62	   O	1917.813	580.454	-1969.478	O.2	5	SER5	-0.568	
63	  CB	1916.018	580.539	-1966.636	C.3	5	SER5	0.212	
64	  OG	1916.750	579.660	-1965.775	O.3	5	SER5	-0.655	
65	   H	1914.620	578.464	-1967.304	 H	5	SER5	0.272	
66	  HA	1915.457	580.797	-1968.716	 H	5	SER5	0.084	
67	 2HB	1915.018	580.733	-1966.203	 H	5	SER5	0.035	
68	 3HB	1916.523	581.525	-1966.639	 H	5	SER5	0.035	
69	  HG	1916.261	578.835	-1965.725	 H	5	SER5	0.428	
70	   N	1917.870	578.618	-1968.318	N.am	6	ILE6	-0.416	
71	  CA	1919.184	578.323	-1968.885	C.3	6	ILE6	-0.060	
72	   C	1919.126	578.286	-1970.392	C.2	6	ILE6	0.597	
73	   O	1919.961	578.874	-1971.096	O.2	6	ILE6	-0.568	
74	  CB	1919.783	576.987	-1968.285	C.3	6	ILE6	0.130	
75	 CG1	1919.803	576.925	-1966.724	C.3	6	ILE6	-0.043	
76	 CG2	1921.225	576.686	-1968.800	C.3	6	ILE6	-0.320	
77	 CD1	1920.073	575.536	-1966.109	C.3	6	ILE6	-0.066	
78	   H	1917.442	577.984	-1967.659	 H	6	ILE6	0.272	
79	  HA	1919.858	579.158	-1968.617	 H	6	ILE6	0.087	
80	  HB	1919.126	576.161	-1968.629	 H	6	ILE6	0.019	
81	2HG1	1918.821	577.245	-1966.328	 H	6	ILE6	0.024	
82	3HG1	1920.519	577.667	-1966.319	 H	6	ILE6	0.024	
83	1HG2	1921.284	576.592	-1969.898	 H	6	ILE6	0.088	
84	2HG2	1921.947	577.468	-1968.498	 H	6	ILE6	0.088	
85	3HG2	1921.615	575.724	-1968.421	 H	6	ILE6	0.088	
86	1HD1	1919.345	574.782	-1966.463	 H	6	ILE6	0.019	
87	2HD1	1921.084	575.157	-1966.344	 H	6	ILE6	0.019	
88	3HD1	1919.997	575.566	-1965.006	 H	6	ILE6	0.019	
89	   N	1918.181	577.622	-1970.966	N.am	7	LEU7	-0.416	
90	  CA	1918.126	577.586	-1972.425	C.3	7	LEU7	-0.052	
91	   C	1918.053	578.981	-1972.997	C.2	7	LEU7	0.597	
92	   O	1918.774	579.344	-1973.939	O.2	7	LEU7	-0.568	
93	  CB	1916.923	576.726	-1972.905	C.3	7	LEU7	-0.110	
94	  CG	1916.850	575.246	-1972.438	C.3	7	LEU7	0.353	
95	 CD1	1915.661	574.540	-1973.104	C.3	7	LEU7	-0.412	
96	 CD2	1918.144	574.467	-1972.730	C.3	7	LEU7	-0.412	
97	   H	1917.489	577.135	-1970.415	 H	7	LEU7	0.272	
98	  HA	1919.068	577.146	-1972.799	 H	7	LEU7	0.092	
99	 2HB	1916.900	576.742	-1974.012	 H	7	LEU7	0.046	
100	 3HB	1915.983	577.228	-1972.601	 H	7	LEU7	0.046	
101	  HG	1916.680	575.238	-1971.341	 H	7	LEU7	-0.036	
102	1HD1	1914.703	575.049	-1972.881	 H	7	LEU7	0.100	
103	2HD1	1915.760	574.500	-1974.205	 H	7	LEU7	0.100	
104	3HD1	1915.554	573.499	-1972.748	 H	7	LEU7	0.100	
105	1HD2	1918.419	574.498	-1973.800	 H	7	LEU7	0.100	
106	2HD2	1918.997	574.879	-1972.159	 H	7	LEU7	0.100	
107	3HD2	1918.063	573.405	-1972.434	 H	7	LEU7	0.100	
108	   N	1917.216	579.822	-1972.491	N.am	8	ASP8	-0.516	
109	  CA	1917.145	581.171	-1973.044	C.3	8	ASP8	0.038	
110	   C	1918.491	581.851	-1972.987	C.2	8	ASP8	0.537	
111	   O	1918.964	582.457	-1973.961	O.2	8	ASP8	-0.582	
112	  CB	1916.067	582.010	-1972.302	C.3	8	ASP8	-0.030	
113	  CG	1915.848	583.431	-1972.842	C.2	8	ASP8	0.799	
114	 OD1	1915.912	583.630	-1974.073	O.co2	8	ASP8	-0.801	
115	 OD2	1915.655	584.357	-1972.027	O.co2	8	ASP8	-0.801	
116	   H	1916.618	579.550	-1971.723	 H	8	ASP8	0.294	
117	  HA	1916.862	581.094	-1974.111	 H	8	ASP8	0.088	
118	 2HB	1916.324	582.093	-1971.230	 H	8	ASP8	-0.012	
119	 3HB	1915.088	581.505	-1972.335	 H	8	ASP8	-0.012	
120	   N	1919.171	581.802	-1971.891	N.am	9	GLU9	-0.516	
121	  CA	1920.474	582.459	-1971.836	C.3	9	GLU9	0.040	
122	   C	1921.392	581.932	-1972.911	C.2	9	GLU9	0.537	
123	   O	1922.056	582.687	-1973.637	O.2	9	GLU9	-0.582	
124	  CB	1921.107	582.252	-1970.430	C.3	9	GLU9	0.056	
125	  CG	1922.489	582.944	-1970.201	C.3	9	GLU9	0.014	
126	  CD	1923.191	582.731	-1968.872	C.2	9	GLU9	0.805	
127	 OE1	1922.670	582.040	-1967.976	O.co2	9	GLU9	-0.819	
128	 OE2	1924.310	583.269	-1968.740	O.co2	9	GLU9	-0.819	
129	   H	1918.808	581.315	-1971.084	 H	9	GLU9	0.294	
130	  HA	1920.331	583.541	-1972.011	 H	9	GLU9	0.111	
131	 2HB	1921.220	581.167	-1970.227	 H	9	GLU9	-0.017	
132	 3HB	1920.410	582.605	-1969.646	 H	9	GLU9	-0.017	
133	 2HG	1922.417	584.035	-1970.340	 H	9	GLU9	-0.043	
134	 3HG	1923.236	582.600	-1970.935	 H	9	GLU9	-0.043	
135	   N	1921.489	580.657	-1973.081	N.am	10	HIS10	-0.416	
136	  CA	1922.377	580.147	-1974.122	C.3	10	HIS10	-0.058	
137	   C	1922.010	580.711	-1975.473	C.2	10	HIS10	0.597	
138	   O	1922.863	581.177	-1976.244	O.2	10	HIS10	-0.568	
139	  CB	1922.214	578.618	-1974.117	C.3	10	HIS10	-0.007	
140	  CG	1923.499	577.908	-1973.809	C.2	10	HIS10	0.187	
141	 CD2	1923.880	577.572	-1972.517	C.2	10	HIS10	-0.221	
142	 ND1	1924.452	577.502	-1974.742	N.2	10	HIS10	-0.543	
143	 CE1	1925.358	576.944	-1973.918	C.2	10	HIS10	0.163	
144	 NE2	1925.095	576.941	-1972.583	N.pl3	10	HIS10	-0.280	
145	   H	1920.958	580.022	-1972.503	 H	10	HIS10	0.272	
146	  HA	1923.396	580.504	-1973.896	 H	10	HIS10	0.136	
147	 2HB	1921.849	578.251	-1975.097	 H	10	HIS10	0.037	
148	 3HB	1921.458	578.280	-1973.378	 H	10	HIS10	0.037	
149	 2HD	1923.294	577.787	-1971.628	 H	10	HIS10	0.186	
150	 1HE	1926.249	576.523	-1974.365	 H	10	HIS10	0.144	
151	 2HE	1925.662	576.563	-1971.810	 H	10	HIS10	0.334	
152	   N	1920.773	580.710	-1975.836	N.am	11	VAL11	-0.416	
153	  CA	1920.418	581.256	-1977.143	C.3	11	VAL11	-0.087	
154	   C	1920.882	582.687	-1977.275	C.2	11	VAL11	0.597	
155	   O	1921.483	583.093	-1978.277	O.2	11	VAL11	-0.568	
156	  CB	1918.857	581.149	-1977.363	C.3	11	VAL11	0.299	
157	 CG1	1918.288	581.854	-1978.625	C.3	11	VAL11	-0.319	
158	 CG2	1918.333	579.695	-1977.436	C.3	11	VAL11	-0.319	
159	   H	1920.060	580.337	-1975.226	 H	11	VAL11	0.272	
160	  HA	1920.938	580.674	-1977.925	 H	11	VAL11	0.097	
161	  HB	1918.369	581.629	-1976.487	 H	11	VAL11	-0.030	
162	1HG1	1918.727	581.462	-1979.562	 H	11	VAL11	0.079	
163	2HG1	1917.189	581.746	-1978.708	 H	11	VAL11	0.079	
164	3HG1	1918.466	582.946	-1978.616	 H	11	VAL11	0.079	
165	1HG2	1918.622	579.108	-1976.546	 H	11	VAL11	0.079	
166	2HG2	1917.227	579.658	-1977.479	 H	11	VAL11	0.079	
167	3HG2	1918.715	579.155	-1978.323	 H	11	VAL11	0.079	
168	   N	1920.644	583.512	-1976.312	N.am	12	TYR12	-0.416	
169	  CA	1921.092	584.896	-1976.439	C.3	12	TYR12	-0.001	
170	   C	1922.581	584.962	-1976.676	C.2	12	TYR12	0.597	
171	   O	1923.072	585.673	-1977.558	O.2	12	TYR12	-0.568	
172	  CB	1920.776	585.703	-1975.146	C.3	12	TYR12	-0.015	
173	  CG	1919.297	585.838	-1974.763	C.2	12	TYR12	-0.001	
174	 CD1	1918.471	586.756	-1975.420	C.2	12	TYR12	-0.191	
175	 CD2	1918.765	585.029	-1973.755	C.2	12	TYR12	-0.191	
176	 CE1	1917.127	586.858	-1975.073	C.2	12	TYR12	-0.234	
177	 CE2	1917.421	585.133	-1973.410	C.2	12	TYR12	-0.234	
178	  CZ	1916.602	586.048	-1974.069	C.2	12	TYR12	0.323	
179	  OH	1915.282	586.149	-1973.734	O.3	12	TYR12	-0.558	
180	   H	1920.155	583.206	-1975.483	 H	12	TYR12	0.272	
181	  HA	1920.589	585.358	-1977.309	 H	12	TYR12	0.088	
182	 2HB	1921.191	586.727	-1975.235	 H	12	TYR12	0.030	
183	 3HB	1921.341	585.270	-1974.295	 H	12	TYR12	0.030	
184	 1HD	1918.869	587.385	-1976.204	 H	12	TYR12	0.170	
185	 2HD	1919.391	584.309	-1973.246	 H	12	TYR12	0.170	
186	 1HE	1916.486	587.561	-1975.583	 H	12	TYR12	0.166	
187	 2HE	1917.020	584.498	-1972.634	 H	12	TYR12	0.166	
188	  HH	1915.097	585.521	-1973.033	 H	12	TYR12	0.399	
189	   N	1923.365	584.255	-1975.935	N.am	13	ARG13	-0.348	
190	  CA	1924.805	584.319	-1976.165	C.3	13	ARG13	-0.264	
191	   C	1925.142	583.947	-1977.590	C.2	13	ARG13	0.734	
192	   O	1925.911	584.618	-1978.273	O.2	13	ARG13	-0.589	
193	  CB	1925.517	583.379	-1975.151	C.3	13	ARG13	-0.001	
194	  CG	1927.062	583.531	-1975.069	C.3	13	ARG13	0.039	
195	  CD	1927.688	582.543	-1974.071	C.3	13	ARG13	0.049	
196	  NE	1929.165	582.749	-1974.020	N.pl3	13	ARG13	-0.530	
197	  CZ	1930.012	582.056	-1973.264	C.cat	13	ARG13	0.808	
198	 NH1	1929.646	581.092	-1972.467	N.pl3	13	ARG13	-0.863	
199	 NH2	1931.272	582.354	-1973.320	N.pl3	13	ARG13	-0.863	
200	   H	1922.988	583.665	-1975.207	 H	13	ARG13	0.275	
201	  HA	1925.131	585.365	-1976.006	 H	13	ARG13	0.156	
202	 2HB	1925.250	582.329	-1975.390	 H	13	ARG13	0.033	
203	 3HB	1925.092	583.546	-1974.140	 H	13	ARG13	0.033	
204	 2HG	1927.311	584.575	-1974.789	 H	13	ARG13	0.029	
205	 3HG	1927.513	583.375	-1976.070	 H	13	ARG13	0.029	
206	 2HD	1927.443	581.503	-1974.380	 H	13	ARG13	0.069	
207	 3HD	1927.231	582.689	-1973.068	 H	13	ARG13	0.069	
208	  HE	1929.617	583.470	-1974.590	 H	13	ARG13	0.346	
209	1HH1	1928.640	580.907	-1972.470	 H	13	ARG13	0.448	
210	2HH1	1930.358	580.608	-1971.918	 H	13	ARG13	0.448	
211	1HH2	1931.540	583.111	-1973.951	 H	13	ARG13	0.448	
212	2HH2	1931.906	581.812	-1972.731	 H	13	ARG13	0.448	
213	   N	1924.605	582.893	-1978.104	N.am	14	VAL14	-0.416	
214	  CA	1924.930	582.534	-1979.482	C.3	14	VAL14	-0.087	
215	   C	1924.602	583.664	-1980.428	C.2	14	VAL14	0.597	
216	   O	1925.396	584.045	-1981.297	O.2	14	VAL14	-0.568	
217	  CB	1924.156	581.217	-1979.889	C.3	14	VAL14	0.299	
218	 CG1	1924.245	580.799	-1981.382	C.3	14	VAL14	-0.319	
219	 CG2	1924.586	579.965	-1979.088	C.3	14	VAL14	-0.319	
220	   H	1923.969	582.326	-1977.563	 H	14	VAL14	0.272	
221	  HA	1926.018	582.356	-1979.556	 H	14	VAL14	0.097	
222	  HB	1923.080	581.390	-1979.674	 H	14	VAL14	-0.030	
223	1HG1	1925.287	580.621	-1981.711	 H	14	VAL14	0.079	
224	2HG1	1923.672	579.877	-1981.595	 H	14	VAL14	0.079	
225	3HG1	1923.818	581.562	-1982.061	 H	14	VAL14	0.079	
226	1HG2	1924.499	580.124	-1977.998	 H	14	VAL14	0.079	
227	2HG2	1923.950	579.089	-1979.321	 H	14	VAL14	0.079	
228	3HG2	1925.634	579.674	-1979.294	 H	14	VAL14	0.079	
229	   N	1923.457	584.251	-1980.326	N.am	15	MET15	-0.416	
230	  CA	1923.139	585.344	-1981.240	C.3	15	MET15	-0.024	
231	   C	1924.170	586.443	-1981.152	C.2	15	MET15	0.597	
232	   O	1924.673	586.953	-1982.165	O.2	15	MET15	-0.568	
233	  CB	1921.717	585.891	-1980.932	C.3	15	MET15	0.034	
234	  CG	1920.554	584.894	-1981.124	C.3	15	MET15	0.002	
235	  SD	1918.981	585.762	-1981.010	S.3	15	MET15	-0.274	
236	  CE	1917.899	584.333	-1980.874	C.3	15	MET15	-0.054	
237	   H	1922.792	583.959	-1979.625	 H	15	MET15	0.272	
238	  HA	1923.164	584.957	-1982.276	 H	15	MET15	0.088	
239	 2HB	1921.516	586.770	-1981.574	 H	15	MET15	0.024	
240	 3HB	1921.682	586.284	-1979.896	 H	15	MET15	0.024	
241	 2HG	1920.596	584.108	-1980.346	 H	15	MET15	0.044	
242	 3HG	1920.617	584.379	-1982.100	 H	15	MET15	0.044	
243	 1HE	1918.042	583.645	-1981.726	 H	15	MET15	0.068	
244	 2HE	1918.107	583.780	-1979.941	 H	15	MET15	0.068	
245	 3HE	1916.841	584.650	-1980.858	 H	15	MET15	0.068	
246	   N	1924.538	586.864	-1979.990	N.am	16	ARG16	-0.348	
247	  CA	1925.536	587.927	-1979.906	C.3	16	ARG16	-0.264	
248	   C	1926.806	587.533	-1980.622	C.2	16	ARG16	0.734	
249	   O	1926.919	586.456	-1981.203	O.2	16	ARG16	-0.589	
250	  CB	1925.805	588.245	-1978.408	C.3	16	ARG16	-0.001	
251	  CG	1926.631	589.533	-1978.135	C.3	16	ARG16	0.039	
252	  CD	1926.881	589.753	-1976.634	C.3	16	ARG16	0.049	
253	  NE	1927.658	591.011	-1976.433	N.pl3	16	ARG16	-0.530	
254	  CZ	1928.050	591.493	-1975.258	C.cat	16	ARG16	0.808	
255	 NH1	1927.801	590.909	-1974.119	N.pl3	16	ARG16	-0.863	
256	 NH2	1928.715	592.605	-1975.239	N.pl3	16	ARG16	-0.863	
257	   H	1924.143	586.465	-1979.151	 H	16	ARG16	0.275	
258	  HA	1925.128	588.820	-1980.417	 H	16	ARG16	0.156	
259	 2HB	1926.301	587.369	-1977.941	 H	16	ARG16	0.033	
260	 3HB	1924.836	588.327	-1977.874	 H	16	ARG16	0.033	
261	 2HG	1926.102	590.405	-1978.573	 H	16	ARG16	0.029	
262	 3HG	1927.605	589.479	-1978.664	 H	16	ARG16	0.029	
263	 2HD	1927.429	588.878	-1976.220	 H	16	ARG16	0.069	
264	 3HD	1925.908	589.796	-1976.099	 H	16	ARG16	0.069	
265	  HE	1927.938	591.591	-1977.230	 H	16	ARG16	0.346	
266	1HH1	1927.275	590.037	-1974.203	 H	16	ARG16	0.448	
267	2HH1	1928.136	591.345	-1973.258	 H	16	ARG16	0.448	
268	1HH2	1928.901	593.048	-1976.141	 H	16	ARG16	0.448	
269	2HH2	1929.005	592.960	-1974.327	 H	16	ARG16	0.448	
@<TRIPOS>BOND
1 1 2 1
2 1 10 1
3 2 3 1
4 2 5 1
5 2 11 1
6 3 4 2
7 3 16 1
8 5 6 1
9 6 7 1
10 7 8 2
11 7 9 1
12 5 12 1
13 5 13 1
14 6 14 1
15 6 15 1
16 16 17 1
17 16 24 1
18 17 18 1
19 17 20 1
20 17 25 1
21 18 19 2
22 18 30 1
23 20 21 1
24 21 22 1
25 21 23 2
26 20 26 1
27 20 27 1
28 22 28 1
29 22 29 1
30 30 31 1
31 30 36 1
32 31 32 1
33 31 34 1
34 31 37 1
35 32 33 2
36 32 44 1
37 34 35 1
38 35 36 1
39 34 38 1
40 34 39 1
41 35 40 1
42 35 41 1
43 36 42 1
44 36 43 1
45 44 45 1
46 44 53 1
47 45 46 1
48 45 48 1
49 45 54 1
50 46 47 2
51 46 59 1
52 48 49 1
53 49 50 1
54 50 51 2
55 50 52 1
56 48 55 1
57 48 56 1
58 49 57 1
59 49 58 1
60 59 60 1
61 59 65 1
62 60 61 1
63 60 63 1
64 60 66 1
65 61 62 2
66 61 70 1
67 63 64 1
68 63 67 1
69 63 68 1
70 64 69 1
71 70 71 1
72 70 78 1
73 71 72 1
74 71 74 1
75 71 79 1
76 72 73 2
77 72 89 1
78 74 75 1
79 74 76 1
80 75 77 1
81 74 80 1
82 75 81 1
83 75 82 1
84 76 83 1
85 76 84 1
86 76 85 1
87 77 86 1
88 77 87 1
89 77 88 1
90 89 90 1
91 89 97 1
92 90 91 1
93 90 93 1
94 90 98 1
95 91 92 2
96 91 108 1
97 93 94 1
98 94 95 1
99 94 96 1
100 93 99 1
101 93 100 1
102 94 101 1
103 95 102 1
104 95 103 1
105 95 104 1
106 96 105 1
107 96 106 1
108 96 107 1
109 108 109 1
110 108 116 1
111 109 110 1
112 109 112 1
113 109 117 1
114 110 111 2
115 110 120 1
116 112 113 1
117 113 114 2
118 113 115 1
119 112 118 1
120 112 119 1
121 120 121 1
122 120 129 1
123 121 122 1
124 121 124 1
125 121 130 1
126 122 123 2
127 122 135 1
128 124 125 1
129 125 126 1
130 126 127 2
131 126 128 1
132 124 131 1
133 124 132 1
134 125 133 1
135 125 134 1
136 135 136 1
137 135 145 1
138 136 137 1
139 136 139 1
140 136 146 1
141 137 138 2
142 137 152 1
143 139 140 1
144 140 141 2
145 141 144 1
146 140 142 1
147 142 143 2
148 143 144 1
149 139 147 1
150 139 148 1
151 141 149 1
152 143 150 1
153 144 151 1
154 152 153 1
155 152 159 1
156 153 154 1
157 153 156 1
158 153 160 1
159 154 155 2
160 154 168 1
161 156 157 1
162 156 158 1
163 156 161 1
164 157 162 1
165 157 163 1
166 157 164 1
167 158 165 1
168 158 166 1
169 158 167 1
170 168 169 1
171 168 180 1
172 169 170 1
173 169 172 1
174 169 181 1
175 170 171 2
176 170 189 1
177 172 173 1
178 173 174 2
179 173 175 1
180 175 177 2
181 174 176 1
182 177 178 1
183 176 178 2
184 178 179 1
185 172 182 1
186 172 183 1
187 174 184 1
188 175 185 1
189 176 186 1
190 177 187 1
191 179 188 1
192 189 190 1
193 189 200 1
194 190 191 1
195 190 193 1
196 190 201 1
197 191 192 2
198 191 213 1
199 193 194 1
200 194 195 1
201 195 196 1
202 196 197 1
203 197 198 2
204 197 199 1
205 193 202 1
206 193 203 1
207 194 204 1
208 194 205 1
209 195 206 1
210 195 207 1
211 196 208 1
212 198 209 1
213 198 210 1
214 199 211 1
215 199 212 1
216 213 214 1
217 213 220 1
218 214 215 1
219 214 217 1
220 214 221 1
221 215 216 2
222 215 229 1
223 217 218 1
224 217 219 1
225 217 222 1
226 218 223 1
227 218 224 1
228 218 225 1
229 219 226 1
230 219 227 1
231 219 228 1
232 229 230 1
233 229 237 1
234 230 231 1
235 230 233 1
236 230 238 1
237 231 232 2
238 231 246 1
239 233 234 1
240 234 235 1
241 235 236 1
242 233 239 1
243 233 240 1
244 234 241 1
245 234 242 1
246 236 243 1
247 236 244 1
248 236 245 1
249 246 247 1
250 246 257 1
251 247 248 1
252 247 250 1
253 247 258 1
254 248 249 2
255 250 251 1
256 251 252 1
257 252 253 1
258 253 254 1
259 254 255 2
260 254 256 1
261 250 259 1
262 250 260 1
263 251 261 1
264 251 262 1
265 252 263 1
266 252 264 1
267 253 265 1
268 255 266 1
269 255 267 1
270 256 268 1
271 256 269 1
@<TRIPOS>SUBSTRUCTURE
1	GLU1	1	RESIDUE	1 ****	GLU
2	ASN2	16	RESIDUE	1 ****	ASN
3	PRO3	30	RESIDUE	1 ****	PRO
4	GLU4	44	RESIDUE	1 ****	GLU
5	SER5	59	RESIDUE	1 ****	SER
6	ILE6	70	RESIDUE	1 ****	ILE
7	LEU7	89	RESIDUE	1 ****	LEU
8	ASP8	108	RESIDUE	1 ****	ASP
9	GLU9	120	RESIDUE	1 ****	GLU
10	HIS10	135	RESIDUE	1 ****	HIS
11	VAL11	152	RESIDUE	1 ****	VAL
12	TYR12	168	RESIDUE	1 ****	TYR
13	ARG13	189	RESIDUE	1 ****	ARG
14	VAL14	213	RESIDUE	1 ****	VAL
15	MET15	229	RESIDUE	1 ****	MET
16	ARG16	246	RESIDUE	1 ****	ARG
