@<TRIPOS>MOLECULE
5-15
268 269 16              
SMALL
USER_CHARGES
@<TRIPOS>ATOM
1	   N	811.447	215.077	-772.552	N.3	1	GLU1	-0.516	
2	  CA	812.006	216.426	-772.552	C.3	1	GLU1	0.040	
3	   C	813.515	216.386	-772.552	C.2	1	GLU1	0.537	
4	   O	814.190	217.085	-773.321	O.2	1	GLU1	-0.582	
5	  CB	811.483	217.211	-771.315	C.3	1	GLU1	0.056	
6	  CG	811.958	218.696	-771.204	C.3	1	GLU1	0.014	
7	  CD	811.534	219.500	-769.989	C.2	1	GLU1	0.805	
8	 OE1	810.806	218.998	-769.111	O.co2	1	GLU1	-0.819	
9	 OE2	811.964	220.670	-769.917	O.co2	1	GLU1	-0.819	
10	   H	812.074	214.198	-772.552	 H	1	GLU1	0.294	
11	  HA	811.680	216.944	-773.472	 H	1	GLU1	0.111	
12	 2HB	811.772	216.680	-770.385	 H	1	GLU1	-0.017	
13	 3HB	810.376	217.201	-771.302	 H	1	GLU1	-0.017	
14	 2HG	811.648	219.281	-772.085	 H	1	GLU1	-0.043	
15	 3HG	813.058	218.763	-771.175	 H	1	GLU1	-0.043	
16	   N	814.119	215.600	-771.727	N.am	2	ASN2	-0.416	
17	  CA	815.578	215.561	-771.727	C.3	2	ASN2	0.014	
18	   C	816.110	215.206	-773.096	C.2	2	ASN2	0.597	
19	   O	817.025	215.837	-773.625	O.2	2	ASN2	-0.568	
20	  CB	816.071	214.538	-770.663	C.3	2	ASN2	-0.204	
21	  CG	815.608	214.762	-769.220	C.2	2	ASN2	0.713	
22	 ND2	816.202	215.677	-768.501	N.pl3	2	ASN2	-0.919	
23	 OD1	814.687	214.128	-768.725	O.2	2	ASN2	-0.593	
24	   H	813.591	215.020	-771.091	 H	2	ASN2	0.272	
25	  HA	815.956	216.571	-771.482	 H	2	ASN2	0.105	
26	 2HB	817.175	214.479	-770.667	 H	2	ASN2	0.080	
27	 3HB	815.742	213.520	-770.949	 H	2	ASN2	0.080	
28	1HD2	815.721	215.850	-767.615	 H	2	ASN2	0.420	
29	2HD2	816.904	216.249	-768.971	 H	2	ASN2	0.420	
30	   N	815.588	214.211	-773.730	N.am	3	PRO3	-0.255	
31	  CA	816.040	213.802	-775.052	C.3	3	PRO3	-0.027	
32	   C	815.642	214.825	-776.129	C.2	3	PRO3	0.590	
33	   O	816.465	215.208	-776.960	O.2	3	PRO3	-0.575	
34	  CB	815.336	212.447	-775.221	C.3	3	PRO3	-0.007	
35	  CG	814.053	212.599	-774.391	C.3	3	PRO3	0.019	
36	  CD	814.510	213.418	-773.181	C.3	3	PRO3	0.019	
37	  HA	817.126	213.682	-775.065	 H	3	PRO3	0.064	
38	 2HB	815.959	211.666	-774.780	 H	3	PRO3	0.025	
39	 3HB	815.138	212.198	-776.266	 H	3	PRO3	0.025	
40	 2HG	813.626	211.637	-774.100	 H	3	PRO3	0.021	
41	 3HG	813.315	213.170	-774.958	 H	3	PRO3	0.021	
42	 2HD	814.900	212.768	-772.394	 H	3	PRO3	0.039	
43	 3HD	813.714	214.053	-772.788	 H	3	PRO3	0.039	
44	   N	814.437	215.285	-776.161	N.am	4	GLU4	-0.516	
45	  CA	814.077	216.256	-777.191	C.3	4	GLU4	0.040	
46	   C	814.976	217.467	-777.129	C.2	4	GLU4	0.537	
47	   O	815.503	217.947	-778.144	O.2	4	GLU4	-0.582	
48	  CB	812.589	216.674	-777.020	C.3	4	GLU4	0.056	
49	  CG	812.041	217.678	-778.086	C.3	4	GLU4	0.014	
50	  CD	810.614	218.174	-777.943	C.2	4	GLU4	0.805	
51	 OE1	809.888	217.776	-777.012	O.co2	4	GLU4	-0.819	
52	 OE2	810.224	219.003	-778.791	O.co2	4	GLU4	-0.819	
53	   H	813.753	214.978	-775.484	 H	4	GLU4	0.294	
54	  HA	814.209	215.785	-778.182	 H	4	GLU4	0.111	
55	 2HB	812.436	217.114	-776.014	 H	4	GLU4	-0.017	
56	 3HB	811.941	215.776	-777.027	 H	4	GLU4	-0.017	
57	 2HG	812.122	217.263	-779.104	 H	4	GLU4	-0.043	
58	 3HG	812.629	218.610	-778.097	 H	4	GLU4	-0.043	
59	   N	815.203	218.020	-775.986	N.am	5	ASN5	-0.416	
60	  CA	816.073	219.191	-775.927	C.3	5	ASN5	0.014	
61	   C	817.431	218.886	-776.513	C.2	5	ASN5	0.597	
62	   O	817.979	219.639	-777.317	O.2	5	ASN5	-0.568	
63	  CB	816.203	219.667	-774.452	C.3	5	ASN5	-0.204	
64	  CG	814.904	220.010	-773.716	C.2	5	ASN5	0.713	
65	 ND2	814.329	221.159	-773.954	N.pl3	5	ASN5	-0.919	
66	 OD1	814.376	219.236	-772.931	O.2	5	ASN5	-0.593	
67	   H	814.786	217.648	-775.145	 H	5	ASN5	0.272	
68	  HA	815.624	219.992	-776.543	 H	5	ASN5	0.105	
69	 2HB	816.878	220.541	-774.386	 H	5	ASN5	0.080	
70	 3HB	816.710	218.884	-773.854	 H	5	ASN5	0.080	
71	1HD2	813.398	221.224	-773.533	 H	5	ASN5	0.420	
72	2HD2	814.745	221.742	-774.679	 H	5	ASN5	0.420	
73	   N	818.036	217.803	-776.158	N.am	6	ILE6	-0.416	
74	  CA	819.349	217.508	-776.724	C.3	6	ILE6	-0.060	
75	   C	819.293	217.470	-778.232	C.2	6	ILE6	0.597	
76	   O	820.128	218.058	-778.935	O.2	6	ILE6	-0.568	
77	  CB	819.948	216.171	-776.123	C.3	6	ILE6	0.130	
78	 CG1	819.967	216.109	-774.562	C.3	6	ILE6	-0.043	
79	 CG2	821.390	215.869	-776.638	C.3	6	ILE6	-0.320	
80	 CD1	820.236	214.720	-773.947	C.3	6	ILE6	-0.066	
81	   H	817.607	217.169	-775.499	 H	6	ILE6	0.272	
82	  HA	820.023	218.342	-776.456	 H	6	ILE6	0.087	
83	  HB	819.290	215.346	-776.468	 H	6	ILE6	0.019	
84	2HG1	818.985	216.429	-774.167	 H	6	ILE6	0.024	
85	3HG1	820.683	216.851	-774.157	 H	6	ILE6	0.024	
86	1HG2	821.449	215.776	-777.736	 H	6	ILE6	0.088	
87	2HG2	822.112	216.652	-776.335	 H	6	ILE6	0.088	
88	3HG2	821.779	214.907	-776.259	 H	6	ILE6	0.088	
89	1HD1	819.508	213.966	-774.302	 H	6	ILE6	0.019	
90	2HD1	821.247	214.341	-774.182	 H	6	ILE6	0.019	
91	3HD1	820.160	214.750	-772.844	 H	6	ILE6	0.019	
92	   N	818.347	216.807	-778.806	N.am	7	LEU7	-0.416	
93	  CA	818.293	216.771	-780.264	C.3	7	LEU7	-0.052	
94	   C	818.221	218.166	-780.837	C.2	7	LEU7	0.597	
95	   O	818.942	218.529	-781.778	O.2	7	LEU7	-0.568	
96	  CB	817.090	215.911	-780.745	C.3	7	LEU7	-0.110	
97	  CG	817.016	214.431	-780.279	C.3	7	LEU7	0.353	
98	 CD1	815.826	213.726	-780.945	C.3	7	LEU7	-0.412	
99	 CD2	818.310	213.652	-780.569	C.3	7	LEU7	-0.412	
100	   H	817.655	216.320	-778.255	 H	7	LEU7	0.272	
101	  HA	819.235	216.330	-780.638	 H	7	LEU7	0.092	
102	 2HB	817.067	215.927	-781.853	 H	7	LEU7	0.046	
103	 3HB	816.150	216.414	-780.441	 H	7	LEU7	0.046	
104	  HG	816.846	214.424	-779.181	 H	7	LEU7	-0.036	
105	1HD1	814.869	214.235	-780.722	 H	7	LEU7	0.100	
106	2HD1	815.926	213.685	-782.046	 H	7	LEU7	0.100	
107	3HD1	815.719	212.685	-780.589	 H	7	LEU7	0.100	
108	1HD2	818.585	213.682	-781.639	 H	7	LEU7	0.100	
109	2HD2	819.163	214.063	-779.998	 H	7	LEU7	0.100	
110	3HD2	818.228	212.590	-780.273	 H	7	LEU7	0.100	
111	   N	817.384	219.007	-780.331	N.am	8	ASP8	-0.516	
112	  CA	817.314	220.356	-780.884	C.3	8	ASP8	0.038	
113	   C	818.661	221.036	-780.826	C.2	8	ASP8	0.537	
114	   O	819.134	221.641	-781.800	O.2	8	ASP8	-0.582	
115	  CB	816.236	221.195	-780.143	C.3	8	ASP8	-0.030	
116	  CG	816.017	222.616	-780.683	C.2	8	ASP8	0.799	
117	 OD1	816.082	222.815	-781.914	O.co2	8	ASP8	-0.801	
118	 OD2	815.825	223.542	-779.868	O.co2	8	ASP8	-0.801	
119	   H	816.785	218.736	-779.564	 H	8	ASP8	0.294	
120	  HA	817.031	220.279	-781.951	 H	8	ASP8	0.088	
121	 2HB	816.492	221.279	-779.071	 H	8	ASP8	-0.012	
122	 3HB	815.256	220.691	-780.176	 H	8	ASP8	-0.012	
123	   N	819.340	220.986	-779.730	N.am	9	GLU9	-0.516	
124	  CA	820.643	221.643	-779.674	C.3	9	GLU9	0.040	
125	   C	821.561	221.115	-780.750	C.2	9	GLU9	0.537	
126	   O	822.226	221.870	-781.475	O.2	9	GLU9	-0.582	
127	  CB	821.275	221.435	-778.269	C.3	9	GLU9	0.056	
128	  CG	822.658	222.127	-778.038	C.3	9	GLU9	0.014	
129	  CD	823.359	221.913	-776.710	C.2	9	GLU9	0.805	
130	 OE1	822.837	221.222	-775.814	O.co2	9	GLU9	-0.819	
131	 OE2	824.478	222.451	-776.577	O.co2	9	GLU9	-0.819	
132	   H	818.976	220.499	-778.924	 H	9	GLU9	0.294	
133	  HA	820.501	222.725	-779.849	 H	9	GLU9	0.111	
134	 2HB	821.388	220.350	-778.065	 H	9	GLU9	-0.017	
135	 3HB	820.578	221.788	-777.485	 H	9	GLU9	-0.017	
136	 2HG	822.586	223.218	-778.178	 H	9	GLU9	-0.043	
137	 3HG	823.405	221.782	-778.772	 H	9	GLU9	-0.043	
138	   N	821.657	219.840	-780.919	N.am	10	HIS10	-0.416	
139	  CA	822.546	219.329	-781.959	C.3	10	HIS10	-0.058	
140	   C	822.180	219.894	-783.311	C.2	10	HIS10	0.597	
141	   O	823.033	220.358	-784.082	O.2	10	HIS10	-0.568	
142	  CB	822.381	217.800	-781.955	C.3	10	HIS10	-0.007	
143	  CG	823.667	217.089	-781.646	C.2	10	HIS10	0.187	
144	 CD2	824.047	216.753	-780.353	C.2	10	HIS10	-0.221	
145	 ND1	824.619	216.683	-782.578	N.2	10	HIS10	-0.543	
146	 CE1	825.525	216.124	-781.755	C.2	10	HIS10	0.163	
147	 NE2	825.261	216.121	-780.420	N.pl3	10	HIS10	-0.280	
148	   H	821.126	219.205	-780.341	 H	10	HIS10	0.272	
149	  HA	823.565	219.686	-781.734	 H	10	HIS10	0.136	
150	 2HB	822.017	217.433	-782.935	 H	10	HIS10	0.037	
151	 3HB	821.625	217.463	-781.215	 H	10	HIS10	0.037	
152	 2HD	823.461	216.969	-779.465	 H	10	HIS10	0.186	
153	 1HE	826.416	215.703	-782.201	 H	10	HIS10	0.144	
154	 2HE	825.827	215.744	-779.646	 H	10	HIS10	0.334	
155	   N	820.942	219.893	-783.674	N.am	11	VAL11	-0.416	
156	  CA	820.588	220.439	-784.981	C.3	11	VAL11	-0.087	
157	   C	821.053	221.870	-785.113	C.2	11	VAL11	0.597	
158	   O	821.655	222.275	-786.116	O.2	11	VAL11	-0.568	
159	  CB	819.027	220.333	-785.202	C.3	11	VAL11	0.299	
160	 CG1	818.459	221.038	-786.464	C.3	11	VAL11	-0.319	
161	 CG2	818.502	218.879	-785.275	C.3	11	VAL11	-0.319	
162	   H	820.229	219.520	-783.064	 H	11	VAL11	0.272	
163	  HA	821.108	219.857	-785.763	 H	11	VAL11	0.097	
164	  HB	818.539	220.813	-784.326	 H	11	VAL11	-0.030	
165	1HG1	818.898	220.646	-787.401	 H	11	VAL11	0.079	
166	2HG1	817.360	220.931	-786.547	 H	11	VAL11	0.079	
167	3HG1	818.638	222.130	-786.455	 H	11	VAL11	0.079	
168	1HG2	818.791	218.292	-784.385	 H	11	VAL11	0.079	
169	2HG2	817.396	218.843	-785.319	 H	11	VAL11	0.079	
170	3HG2	818.884	218.339	-786.162	 H	11	VAL11	0.079	
171	   N	820.815	222.695	-784.151	N.am	12	GLN12	-0.416	
172	  CA	821.264	224.078	-784.277	C.3	12	GLN12	-0.003	
173	   C	822.754	224.146	-784.514	C.2	12	GLN12	0.597	
174	   O	823.242	224.854	-785.392	O.2	12	GLN12	-0.568	
175	  CB	820.873	224.846	-782.994	C.3	12	GLN12	-0.004	
176	  CG	821.233	226.367	-782.963	C.3	12	GLN12	-0.064	
177	  CD	820.930	227.180	-781.698	C.2	12	GLN12	0.695	
178	 NE2	820.362	226.604	-780.669	N.pl3	12	GLN12	-0.941	
179	 OE1	821.232	228.361	-781.619	O.2	12	GLN12	-0.609	
180	   H	820.326	222.389	-783.322	 H	12	GLN12	0.272	
181	  HA	820.766	224.535	-785.152	 H	12	GLN12	0.085	
182	 2HB	821.348	224.345	-782.125	 H	12	GLN12	0.017	
183	 3HB	819.782	224.738	-782.832	 H	12	GLN12	0.017	
184	 2HG	820.756	226.888	-783.813	 H	12	GLN12	0.035	
185	 3HG	822.317	226.509	-783.127	 H	12	GLN12	0.035	
186	1HE2	820.255	227.198	-779.846	 H	12	GLN12	0.425	
187	2HE2	820.199	225.600	-780.773	 H	12	GLN12	0.425	
188	   N	823.538	223.438	-783.773	N.am	13	ARG13	-0.348	
189	  CA	824.979	223.504	-784.003	C.3	13	ARG13	-0.264	
190	   C	825.316	223.133	-785.428	C.2	13	ARG13	0.734	
191	   O	826.085	223.805	-786.111	O.2	13	ARG13	-0.589	
192	  CB	825.691	222.564	-782.989	C.3	13	ARG13	-0.001	
193	  CG	827.236	222.717	-782.906	C.3	13	ARG13	0.039	
194	  CD	827.862	221.729	-781.909	C.3	13	ARG13	0.049	
195	  NE	829.340	221.936	-781.857	N.pl3	13	ARG13	-0.530	
196	  CZ	830.187	221.244	-781.102	C.cat	13	ARG13	0.808	
197	 NH1	829.821	220.279	-780.305	N.pl3	13	ARG13	-0.863	
198	 NH2	831.446	221.542	-781.158	N.pl3	13	ARG13	-0.863	
199	   H	823.161	222.848	-783.045	 H	13	ARG13	0.275	
200	  HA	825.303	224.550	-783.844	 H	13	ARG13	0.156	
201	 2HB	825.425	221.514	-783.228	 H	13	ARG13	0.033	
202	 3HB	825.265	222.731	-781.978	 H	13	ARG13	0.033	
203	 2HG	827.484	223.762	-782.627	 H	13	ARG13	0.029	
204	 3HG	827.687	222.561	-783.908	 H	13	ARG13	0.029	
205	 2HD	827.618	220.689	-782.218	 H	13	ARG13	0.069	
206	 3HD	827.405	221.874	-780.906	 H	13	ARG13	0.069	
207	  HE	829.791	222.658	-782.427	 H	13	ARG13	0.346	
208	1HH1	828.816	220.093	-780.309	 H	13	ARG13	0.448	
209	2HH1	830.534	219.796	-779.756	 H	13	ARG13	0.448	
210	1HH2	831.715	222.301	-781.788	 H	13	ARG13	0.448	
211	2HH2	832.081	221.001	-780.569	 H	13	ARG13	0.448	
212	   N	824.780	222.079	-785.943	N.am	14	VAL14	-0.416	
213	  CA	825.105	221.720	-787.320	C.3	14	VAL14	-0.087	
214	   C	824.776	222.850	-788.266	C.2	14	VAL14	0.597	
215	   O	825.570	223.232	-789.134	O.2	14	VAL14	-0.568	
216	  CB	824.333	220.403	-787.728	C.3	14	VAL14	0.299	
217	 CG1	824.423	219.986	-789.222	C.3	14	VAL14	-0.319	
218	 CG2	824.764	219.150	-786.928	C.3	14	VAL14	-0.319	
219	   H	824.144	221.510	-785.402	 H	14	VAL14	0.272	
220	  HA	826.194	221.543	-787.394	 H	14	VAL14	0.097	
221	  HB	823.257	220.575	-787.513	 H	14	VAL14	-0.030	
222	1HG1	825.465	219.808	-789.550	 H	14	VAL14	0.079	
223	2HG1	823.850	219.063	-789.435	 H	14	VAL14	0.079	
224	3HG1	823.995	220.748	-789.900	 H	14	VAL14	0.079	
225	1HG2	824.676	219.309	-785.838	 H	14	VAL14	0.079	
226	2HG2	824.128	218.274	-787.161	 H	14	VAL14	0.079	
227	3HG2	825.812	218.861	-787.133	 H	14	VAL14	0.079	
228	   N	823.631	223.437	-788.164	N.am	15	MET15	-0.416	
229	  CA	823.312	224.530	-789.077	C.3	15	MET15	-0.024	
230	   C	824.342	225.629	-788.989	C.2	15	MET15	0.597	
231	   O	824.845	226.140	-790.001	O.2	15	MET15	-0.568	
232	  CB	821.890	225.075	-788.769	C.3	15	MET15	0.034	
233	  CG	820.728	224.078	-788.962	C.3	15	MET15	0.002	
234	  SD	819.154	224.944	-788.848	S.3	15	MET15	-0.274	
235	  CE	818.073	223.514	-788.713	C.3	15	MET15	-0.054	
236	   H	822.966	223.143	-787.463	 H	15	MET15	0.272	
237	  HA	823.338	224.143	-790.113	 H	15	MET15	0.088	
238	 2HB	821.688	225.955	-789.411	 H	15	MET15	0.024	
239	 3HB	821.854	225.467	-787.732	 H	15	MET15	0.024	
240	 2HG	820.771	223.292	-788.184	 H	15	MET15	0.044	
241	 3HG	820.792	223.563	-789.938	 H	15	MET15	0.044	
242	 1HE	818.217	222.827	-789.565	 H	15	MET15	0.068	
243	 2HE	818.281	222.961	-787.780	 H	15	MET15	0.068	
244	 3HE	817.015	223.830	-788.696	 H	15	MET15	0.068	
245	   N	824.710	226.050	-787.826	N.am	16	ARG16	-0.348	
246	  CA	825.707	227.113	-787.741	C.3	16	ARG16	-0.264	
247	   C	826.978	226.721	-788.457	C.2	16	ARG16	0.734	
248	   O	827.092	225.645	-789.039	O.2	16	ARG16	-0.589	
249	  CB	825.975	227.431	-786.243	C.3	16	ARG16	-0.001	
250	  CG	826.800	228.719	-785.969	C.3	16	ARG16	0.039	
251	  CD	827.049	228.938	-784.467	C.3	16	ARG16	0.049	
252	  NE	827.826	230.197	-784.265	N.pl3	16	ARG16	-0.530	
253	  CZ	828.216	230.679	-783.089	C.cat	16	ARG16	0.808	
254	 NH1	827.968	230.094	-781.951	N.pl3	16	ARG16	-0.863	
255	 NH2	828.880	231.791	-783.070	N.pl3	16	ARG16	-0.863	
256	   H	824.315	225.649	-786.987	 H	16	ARG16	0.275	
257	  HA	825.298	228.007	-788.251	 H	16	ARG16	0.156	
258	 2HB	826.472	226.554	-785.776	 H	16	ARG16	0.033	
259	 3HB	825.006	227.512	-785.709	 H	16	ARG16	0.033	
260	 2HG	826.270	229.591	-786.406	 H	16	ARG16	0.029	
261	 3HG	827.774	228.667	-786.497	 H	16	ARG16	0.029	
262	 2HD	827.598	228.063	-784.054	 H	16	ARG16	0.069	
263	 3HD	826.076	228.981	-783.932	 H	16	ARG16	0.069	
264	  HE	828.105	230.778	-785.062	 H	16	ARG16	0.346	
265	1HH1	827.442	229.221	-782.036	 H	16	ARG16	0.448	
266	2HH1	828.302	230.529	-781.090	 H	16	ARG16	0.448	
267	1HH2	829.066	232.235	-783.971	 H	16	ARG16	0.448	
268	2HH2	829.170	232.146	-782.157	 H	16	ARG16	0.448	
@<TRIPOS>BOND
1 1 2 1
2 1 10 1
3 2 3 1
4 2 5 1
5 2 11 1
6 3 4 2
7 3 16 1
8 5 6 1
9 6 7 1
10 7 8 2
11 7 9 1
12 5 12 1
13 5 13 1
14 6 14 1
15 6 15 1
16 16 17 1
17 16 24 1
18 17 18 1
19 17 20 1
20 17 25 1
21 18 19 2
22 18 30 1
23 20 21 1
24 21 22 1
25 21 23 2
26 20 26 1
27 20 27 1
28 22 28 1
29 22 29 1
30 30 31 1
31 30 36 1
32 31 32 1
33 31 34 1
34 31 37 1
35 32 33 2
36 32 44 1
37 34 35 1
38 35 36 1
39 34 38 1
40 34 39 1
41 35 40 1
42 35 41 1
43 36 42 1
44 36 43 1
45 44 45 1
46 44 53 1
47 45 46 1
48 45 48 1
49 45 54 1
50 46 47 2
51 46 59 1
52 48 49 1
53 49 50 1
54 50 51 2
55 50 52 1
56 48 55 1
57 48 56 1
58 49 57 1
59 49 58 1
60 59 60 1
61 59 67 1
62 60 61 1
63 60 63 1
64 60 68 1
65 61 62 2
66 61 73 1
67 63 64 1
68 64 65 1
69 64 66 2
70 63 69 1
71 63 70 1
72 65 71 1
73 65 72 1
74 73 74 1
75 73 81 1
76 74 75 1
77 74 77 1
78 74 82 1
79 75 76 2
80 75 92 1
81 77 78 1
82 77 79 1
83 78 80 1
84 77 83 1
85 78 84 1
86 78 85 1
87 79 86 1
88 79 87 1
89 79 88 1
90 80 89 1
91 80 90 1
92 80 91 1
93 92 93 1
94 92 100 1
95 93 94 1
96 93 96 1
97 93 101 1
98 94 95 2
99 94 111 1
100 96 97 1
101 97 98 1
102 97 99 1
103 96 102 1
104 96 103 1
105 97 104 1
106 98 105 1
107 98 106 1
108 98 107 1
109 99 108 1
110 99 109 1
111 99 110 1
112 111 112 1
113 111 119 1
114 112 113 1
115 112 115 1
116 112 120 1
117 113 114 2
118 113 123 1
119 115 116 1
120 116 117 2
121 116 118 1
122 115 121 1
123 115 122 1
124 123 124 1
125 123 132 1
126 124 125 1
127 124 127 1
128 124 133 1
129 125 126 2
130 125 138 1
131 127 128 1
132 128 129 1
133 129 130 2
134 129 131 1
135 127 134 1
136 127 135 1
137 128 136 1
138 128 137 1
139 138 139 1
140 138 148 1
141 139 140 1
142 139 142 1
143 139 149 1
144 140 141 2
145 140 155 1
146 142 143 1
147 143 144 2
148 144 147 1
149 143 145 1
150 145 146 2
151 146 147 1
152 142 150 1
153 142 151 1
154 144 152 1
155 146 153 1
156 147 154 1
157 155 156 1
158 155 162 1
159 156 157 1
160 156 159 1
161 156 163 1
162 157 158 2
163 157 171 1
164 159 160 1
165 159 161 1
166 159 164 1
167 160 165 1
168 160 166 1
169 160 167 1
170 161 168 1
171 161 169 1
172 161 170 1
173 171 172 1
174 171 180 1
175 172 173 1
176 172 175 1
177 172 181 1
178 173 174 2
179 173 188 1
180 175 176 1
181 176 177 1
182 177 178 1
183 177 179 2
184 175 182 1
185 175 183 1
186 176 184 1
187 176 185 1
188 178 186 1
189 178 187 1
190 188 189 1
191 188 199 1
192 189 190 1
193 189 192 1
194 189 200 1
195 190 191 2
196 190 212 1
197 192 193 1
198 193 194 1
199 194 195 1
200 195 196 1
201 196 197 2
202 196 198 1
203 192 201 1
204 192 202 1
205 193 203 1
206 193 204 1
207 194 205 1
208 194 206 1
209 195 207 1
210 197 208 1
211 197 209 1
212 198 210 1
213 198 211 1
214 212 213 1
215 212 219 1
216 213 214 1
217 213 216 1
218 213 220 1
219 214 215 2
220 214 228 1
221 216 217 1
222 216 218 1
223 216 221 1
224 217 222 1
225 217 223 1
226 217 224 1
227 218 225 1
228 218 226 1
229 218 227 1
230 228 229 1
231 228 236 1
232 229 230 1
233 229 232 1
234 229 237 1
235 230 231 2
236 230 245 1
237 232 233 1
238 233 234 1
239 234 235 1
240 232 238 1
241 232 239 1
242 233 240 1
243 233 241 1
244 235 242 1
245 235 243 1
246 235 244 1
247 245 246 1
248 245 256 1
249 246 247 1
250 246 249 1
251 246 257 1
252 247 248 2
253 249 250 1
254 250 251 1
255 251 252 1
256 252 253 1
257 253 254 2
258 253 255 1
259 249 258 1
260 249 259 1
261 250 260 1
262 250 261 1
263 251 262 1
264 251 263 1
265 252 264 1
266 254 265 1
267 254 266 1
268 255 267 1
269 255 268 1
@<TRIPOS>SUBSTRUCTURE
1	GLU1	1	RESIDUE	1 ****	GLU
2	ASN2	16	RESIDUE	1 ****	ASN
3	PRO3	30	RESIDUE	1 ****	PRO
4	GLU4	44	RESIDUE	1 ****	GLU
5	ASN5	59	RESIDUE	1 ****	ASN
6	ILE6	73	RESIDUE	1 ****	ILE
7	LEU7	92	RESIDUE	1 ****	LEU
8	ASP8	111	RESIDUE	1 ****	ASP
9	GLU9	123	RESIDUE	1 ****	GLU
10	HIS10	138	RESIDUE	1 ****	HIS
11	VAL11	155	RESIDUE	1 ****	VAL
12	GLN12	171	RESIDUE	1 ****	GLN
13	ARG13	188	RESIDUE	1 ****	ARG
14	VAL14	212	RESIDUE	1 ****	VAL
15	MET15	228	RESIDUE	1 ****	MET
16	ARG16	245	RESIDUE	1 ****	ARG
