@<TRIPOS>MOLECULE
9-2
264 266 16              
SMALL
USER_CHARGES
@<TRIPOS>ATOM
1	   N	1361.050	397.406	-1369.228	N.3	1	GLU1	-0.516	
2	  CA	1361.609	398.755	-1369.228	C.3	1	GLU1	0.040	
3	   C	1363.118	398.715	-1369.228	C.2	1	GLU1	0.537	
4	   O	1363.793	399.414	-1369.996	O.2	1	GLU1	-0.582	
5	  CB	1361.086	399.540	-1367.991	C.3	1	GLU1	0.056	
6	  CG	1361.561	401.025	-1367.880	C.3	1	GLU1	0.014	
7	  CD	1361.137	401.829	-1366.665	C.2	1	GLU1	0.805	
8	 OE1	1360.409	401.327	-1365.787	O.co2	1	GLU1	-0.819	
9	 OE2	1361.567	402.999	-1366.593	O.co2	1	GLU1	-0.819	
10	   H	1361.677	396.527	-1369.228	 H	1	GLU1	0.294	
11	  HA	1361.283	399.273	-1370.148	 H	1	GLU1	0.111	
12	 2HB	1361.375	399.009	-1367.061	 H	1	GLU1	-0.017	
13	 3HB	1359.979	399.530	-1367.978	 H	1	GLU1	-0.017	
14	 2HG	1361.251	401.610	-1368.761	 H	1	GLU1	-0.043	
15	 3HG	1362.661	401.092	-1367.851	 H	1	GLU1	-0.043	
16	   N	1363.722	397.930	-1368.402	N.am	2	ASN2	-0.416	
17	  CA	1365.182	397.891	-1368.402	C.3	2	ASN2	0.014	
18	   C	1365.713	397.535	-1369.771	C.2	2	ASN2	0.597	
19	   O	1366.627	398.166	-1370.300	O.2	2	ASN2	-0.568	
20	  CB	1365.673	396.868	-1367.338	C.3	2	ASN2	-0.204	
21	  CG	1365.211	397.092	-1365.895	C.2	2	ASN2	0.713	
22	 ND2	1365.805	398.007	-1365.177	N.pl3	2	ASN2	-0.919	
23	 OD1	1364.290	396.458	-1365.401	O.2	2	ASN2	-0.593	
24	   H	1363.194	397.350	-1367.766	 H	2	ASN2	0.272	
25	  HA	1365.559	398.901	-1368.157	 H	2	ASN2	0.105	
26	 2HB	1366.778	396.809	-1367.342	 H	2	ASN2	0.080	
27	 3HB	1365.345	395.850	-1367.624	 H	2	ASN2	0.080	
28	1HD2	1365.324	398.180	-1364.290	 H	2	ASN2	0.420	
29	2HD2	1366.506	398.578	-1365.646	 H	2	ASN2	0.420	
30	   N	1365.191	396.540	-1370.405	N.am	3	PRO3	-0.255	
31	  CA	1365.643	396.131	-1371.727	C.3	3	PRO3	-0.027	
32	   C	1365.245	397.154	-1372.804	C.2	3	PRO3	0.590	
33	   O	1366.068	397.538	-1373.635	O.2	3	PRO3	-0.575	
34	  CB	1364.939	394.776	-1371.896	C.3	3	PRO3	-0.007	
35	  CG	1363.656	394.928	-1371.066	C.3	3	PRO3	0.019	
36	  CD	1364.113	395.747	-1369.856	C.3	3	PRO3	0.019	
37	  HA	1366.729	396.011	-1371.741	 H	3	PRO3	0.064	
38	 2HB	1365.562	393.995	-1371.455	 H	3	PRO3	0.025	
39	 3HB	1364.741	394.528	-1372.941	 H	3	PRO3	0.025	
40	 2HG	1363.228	393.966	-1370.775	 H	3	PRO3	0.021	
41	 3HG	1362.918	395.499	-1371.633	 H	3	PRO3	0.021	
42	 2HD	1364.503	395.098	-1369.068	 H	3	PRO3	0.039	
43	 3HD	1363.317	396.383	-1369.463	 H	3	PRO3	0.039	
44	   N	1364.040	397.614	-1372.836	N.am	4	GLU4	-0.516	
45	  CA	1363.680	398.586	-1373.865	C.3	4	GLU4	0.040	
46	   C	1364.579	399.797	-1373.804	C.2	4	GLU4	0.537	
47	   O	1365.105	400.276	-1374.819	O.2	4	GLU4	-0.582	
48	  CB	1362.192	399.004	-1373.695	C.3	4	GLU4	0.056	
49	  CG	1361.643	400.008	-1374.760	C.3	4	GLU4	0.014	
50	  CD	1360.217	400.504	-1374.617	C.2	4	GLU4	0.805	
51	 OE1	1359.491	400.106	-1373.686	O.co2	4	GLU4	-0.819	
52	 OE2	1359.827	401.334	-1375.465	O.co2	4	GLU4	-0.819	
53	   H	1363.356	397.308	-1372.159	 H	4	GLU4	0.294	
54	  HA	1363.811	398.115	-1374.857	 H	4	GLU4	0.111	
55	 2HB	1362.039	399.444	-1372.688	 H	4	GLU4	-0.017	
56	 3HB	1361.544	398.106	-1373.701	 H	4	GLU4	-0.017	
57	 2HG	1361.725	399.593	-1375.778	 H	4	GLU4	-0.043	
58	 3HG	1362.231	400.940	-1374.772	 H	4	GLU4	-0.043	
59	   N	1364.807	400.350	-1372.661	N.am	5	SER5	-0.416	
60	  CA	1365.676	401.521	-1372.603	C.3	5	SER5	-0.025	
61	   C	1367.035	401.215	-1373.189	C.2	5	SER5	0.597	
62	   O	1367.582	401.969	-1373.993	O.2	5	SER5	-0.568	
63	  CB	1365.788	402.053	-1371.152	C.3	5	SER5	0.212	
64	  OG	1366.520	401.174	-1370.291	O.3	5	SER5	-0.655	
65	   H	1364.390	399.978	-1371.820	 H	5	SER5	0.272	
66	  HA	1365.226	402.311	-1373.232	 H	5	SER5	0.084	
67	 2HB	1364.788	402.247	-1370.719	 H	5	SER5	0.035	
68	 3HB	1366.293	403.039	-1371.154	 H	5	SER5	0.035	
69	  HG	1366.031	400.349	-1370.241	 H	5	SER5	0.428	
70	   N	1367.640	400.132	-1372.835	N.am	6	ILE6	-0.416	
71	  CA	1368.953	399.838	-1373.401	C.3	6	ILE6	-0.060	
72	   C	1368.895	399.800	-1374.909	C.2	6	ILE6	0.597	
73	   O	1369.730	400.388	-1375.613	O.2	6	ILE6	-0.568	
74	  CB	1369.552	398.501	-1372.801	C.3	6	ILE6	0.130	
75	 CG1	1369.572	398.439	-1371.240	C.3	6	ILE6	-0.043	
76	 CG2	1370.994	398.200	-1373.317	C.3	6	ILE6	-0.320	
77	 CD1	1369.842	397.050	-1370.625	C.3	6	ILE6	-0.066	
78	   H	1367.211	399.498	-1372.176	 H	6	ILE6	0.272	
79	  HA	1369.627	400.672	-1373.133	 H	6	ILE6	0.087	
80	  HB	1368.895	397.675	-1373.145	 H	6	ILE6	0.019	
81	2HG1	1368.590	398.759	-1370.844	 H	6	ILE6	0.024	
82	3HG1	1370.288	399.181	-1370.835	 H	6	ILE6	0.024	
83	1HG2	1371.052	398.107	-1374.415	 H	6	ILE6	0.088	
84	2HG2	1371.716	398.982	-1373.015	 H	6	ILE6	0.088	
85	3HG2	1371.384	397.238	-1372.938	 H	6	ILE6	0.088	
86	1HD1	1369.114	396.296	-1370.980	 H	6	ILE6	0.019	
87	2HD1	1370.853	396.671	-1370.861	 H	6	ILE6	0.019	
88	3HD1	1369.766	397.080	-1369.523	 H	6	ILE6	0.019	
89	   N	1367.949	399.137	-1375.482	N.am	7	LEU7	-0.416	
90	  CA	1367.894	399.101	-1376.941	C.3	7	LEU7	-0.052	
91	   C	1367.822	400.496	-1377.513	C.2	7	LEU7	0.597	
92	   O	1368.542	400.859	-1378.455	O.2	7	LEU7	-0.568	
93	  CB	1366.691	398.241	-1377.421	C.3	7	LEU7	-0.110	
94	  CG	1366.619	396.761	-1376.955	C.3	7	LEU7	0.353	
95	 CD1	1365.429	396.056	-1377.621	C.3	7	LEU7	-0.412	
96	 CD2	1367.912	395.982	-1377.247	C.3	7	LEU7	-0.412	
97	   H	1367.257	398.650	-1374.931	 H	7	LEU7	0.272	
98	  HA	1368.836	398.661	-1377.315	 H	7	LEU7	0.092	
99	 2HB	1366.668	398.257	-1378.529	 H	7	LEU7	0.046	
100	 3HB	1365.751	398.743	-1377.117	 H	7	LEU7	0.046	
101	  HG	1366.449	396.753	-1375.858	 H	7	LEU7	-0.036	
102	1HD1	1364.471	396.565	-1377.398	 H	7	LEU7	0.100	
103	2HD1	1365.528	396.015	-1378.722	 H	7	LEU7	0.100	
104	3HD1	1365.322	395.014	-1377.265	 H	7	LEU7	0.100	
105	1HD2	1368.187	396.013	-1378.317	 H	7	LEU7	0.100	
106	2HD2	1368.766	396.394	-1376.676	 H	7	LEU7	0.100	
107	3HD2	1367.831	394.920	-1376.951	 H	7	LEU7	0.100	
108	   N	1366.984	401.337	-1377.007	N.am	8	ASP8	-0.516	
109	  CA	1366.914	402.687	-1377.560	C.3	8	ASP8	0.038	
110	   C	1368.261	403.366	-1377.502	C.2	8	ASP8	0.537	
111	   O	1368.733	403.972	-1378.477	O.2	8	ASP8	-0.582	
112	  CB	1365.836	403.525	-1376.818	C.3	8	ASP8	-0.030	
113	  CG	1365.617	404.946	-1377.358	C.2	8	ASP8	0.799	
114	 OD1	1365.681	405.146	-1378.588	O.co2	8	ASP8	-0.801	
115	 OD2	1365.425	405.872	-1376.542	O.co2	8	ASP8	-0.801	
116	   H	1366.387	401.066	-1376.239	 H	8	ASP8	0.294	
117	  HA	1366.631	402.609	-1378.627	 H	8	ASP8	0.088	
118	 2HB	1366.093	403.608	-1375.746	 H	8	ASP8	-0.012	
119	 3HB	1364.857	403.020	-1376.851	 H	8	ASP8	-0.012	
120	   N	1368.940	403.316	-1376.407	N.am	9	PRO9	-0.255	
121	  CA	1370.246	403.944	-1376.267	C.3	9	PRO9	-0.027	
122	   C	1371.320	403.207	-1377.084	C.2	9	PRO9	0.590	
123	   O	1372.101	403.835	-1377.799	O.2	9	PRO9	-0.575	
124	  CB	1370.478	403.856	-1374.751	C.3	9	PRO9	-0.007	
125	  CG	1369.710	402.591	-1374.340	C.3	9	PRO9	0.019	
126	  CD	1368.463	402.632	-1375.225	C.3	9	PRO9	0.019	
127	  HA	1370.208	404.986	-1376.596	 H	9	PRO9	0.064	
128	 2HB	1370.023	404.725	-1374.271	 H	9	PRO9	0.025	
129	 3HB	1371.537	403.815	-1374.485	 H	9	PRO9	0.025	
130	 2HG	1369.461	402.579	-1373.276	 H	9	PRO9	0.021	
131	 3HG	1370.302	401.707	-1374.586	 H	9	PRO9	0.021	
132	 2HD	1367.670	403.221	-1374.758	 H	9	PRO9	0.039	
133	 3HD	1368.097	401.632	-1375.470	 H	9	PRO9	0.039	
134	   N	1371.403	401.921	-1377.020	N.am	10	HIS10	-0.416	
135	  CA	1372.429	401.237	-1377.802	C.3	10	HIS10	-0.058	
136	   C	1372.299	401.565	-1379.270	C.2	10	HIS10	0.597	
137	   O	1373.277	401.889	-1379.960	O.2	10	HIS10	-0.568	
138	  CB	1372.219	399.732	-1377.568	C.3	10	HIS10	-0.007	
139	  CG	1373.417	399.080	-1376.941	C.2	10	HIS10	0.187	
140	 CD2	1373.578	398.969	-1375.567	C.2	10	HIS10	-0.221	
141	 ND1	1374.493	398.519	-1377.626	N.2	10	HIS10	-0.543	
142	 CE1	1375.239	398.106	-1376.585	C.2	10	HIS10	0.163	
143	 NE2	1374.768	398.331	-1375.329	N.pl3	10	HIS10	-0.280	
144	   H	1370.768	401.395	-1376.437	 H	10	HIS10	0.272	
145	  HA	1373.410	401.624	-1377.478	 H	10	HIS10	0.136	
146	 2HB	1372.004	399.205	-1378.518	 H	10	HIS10	0.037	
147	 3HB	1371.346	399.528	-1376.914	 H	10	HIS10	0.037	
148	 2HD	1372.865	399.334	-1374.833	 H	10	HIS10	0.186	
149	 1HE	1376.177	397.612	-1376.805	 H	10	HIS10	0.144	
150	 2HE	1375.193	398.089	-1374.422	 H	10	HIS10	0.334	
151	   N	1371.135	401.506	-1379.823	N.am	11	VAL11	-0.416	
152	  CA	1371.009	401.823	-1381.243	C.3	11	VAL11	-0.087	
153	   C	1371.532	403.209	-1381.536	C.2	11	VAL11	0.597	
154	   O	1372.297	403.435	-1382.482	O.2	11	VAL11	-0.568	
155	  CB	1369.500	401.685	-1381.691	C.3	11	VAL11	0.299	
156	 CG1	1369.161	402.166	-1383.129	C.3	11	VAL11	-0.319	
157	 CG2	1368.949	400.241	-1381.603	C.3	11	VAL11	-0.319	
158	   H	1370.323	401.245	-1379.282	 H	11	VAL11	0.272	
159	  HA	1371.628	401.114	-1381.822	 H	11	VAL11	0.097	
160	  HB	1368.894	402.309	-1380.999	 H	11	VAL11	-0.030	
161	1HG1	1369.730	401.619	-1383.903	 H	11	VAL11	0.079	
162	2HG1	1368.086	402.050	-1383.368	 H	11	VAL11	0.079	
163	3HG1	1369.368	403.243	-1383.274	 H	11	VAL11	0.079	
164	1HG2	1369.076	399.814	-1380.592	 H	11	VAL11	0.079	
165	2HG2	1367.864	400.201	-1381.817	 H	11	VAL11	0.079	
166	3HG2	1369.450	399.557	-1382.313	 H	11	VAL11	0.079	
167	   N	1371.170	404.187	-1380.777	N.am	12	GLN12	-0.416	
168	  CA	1371.675	405.527	-1381.059	C.3	12	GLN12	-0.003	
169	   C	1373.185	405.548	-1381.061	C.2	12	GLN12	0.597	
170	   O	1373.828	406.095	-1381.955	O.2	12	GLN12	-0.568	
171	  CB	1371.109	406.502	-1380.003	C.3	12	GLN12	-0.004	
172	  CG	1371.506	408.006	-1380.170	C.3	12	GLN12	-0.064	
173	  CD	1371.031	409.024	-1379.125	C.2	12	GLN12	0.695	
174	 NE2	1370.291	408.633	-1378.120	N.pl3	12	GLN12	-0.941	
175	 OE1	1371.353	410.200	-1379.198	O.2	12	GLN12	-0.609	
176	   H	1370.547	404.028	-1379.998	 H	12	GLN12	0.272	
177	  HA	1371.335	405.829	-1382.068	 H	12	GLN12	0.085	
178	 2HB	1371.426	406.156	-1378.997	 H	12	GLN12	0.017	
179	 3HB	1370.004	406.427	-1380.003	 H	12	GLN12	0.017	
180	 2HG	1371.186	408.376	-1381.162	 H	12	GLN12	0.035	
181	 3HG	1372.606	408.115	-1380.179	 H	12	GLN12	0.035	
182	1HE2	1370.072	409.359	-1377.436	 H	12	GLN12	0.425	
183	2HE2	1370.115	407.627	-1378.078	 H	12	GLN12	0.425	
184	   N	1373.820	404.975	-1380.095	N.am	13	ARG13	-0.348	
185	  CA	1375.280	404.996	-1380.098	C.3	13	ARG13	-0.264	
186	   C	1375.827	404.387	-1381.367	C.2	13	ARG13	0.734	
187	   O	1376.715	404.930	-1382.020	O.2	13	ARG13	-0.589	
188	  CB	1375.795	404.241	-1378.839	C.3	13	ARG13	-0.001	
189	  CG	1377.311	404.401	-1378.536	C.3	13	ARG13	0.039	
190	  CD	1377.741	403.596	-1377.299	C.3	13	ARG13	0.049	
191	  NE	1379.197	403.804	-1377.045	N.pl3	13	ARG13	-0.530	
192	  CZ	1379.893	403.249	-1376.058	C.cat	13	ARG13	0.808	
193	 NH1	1379.377	402.435	-1375.180	N.pl3	13	ARG13	-0.863	
194	 NH2	1381.154	403.530	-1375.960	N.pl3	13	ARG13	-0.863	
195	   H	1373.315	404.519	-1379.349	 H	13	ARG13	0.275	
196	  HA	1375.607	406.053	-1380.066	 H	13	ARG13	0.156	
197	 2HB	1375.538	403.166	-1378.939	 H	13	ARG13	0.033	
198	 3HB	1375.220	404.579	-1377.953	 H	13	ARG13	0.033	
199	 2HG	1377.543	405.478	-1378.399	 H	13	ARG13	0.029	
200	 3HG	1377.910	404.076	-1379.411	 H	13	ARG13	0.029	
201	 2HD	1377.518	402.519	-1377.465	 H	13	ARG13	0.069	
202	 3HD	1377.136	403.911	-1376.422	 H	13	ARG13	0.069	
203	  HE	1379.755	404.418	-1377.649	 H	13	ARG13	0.346	
204	1HH1	1378.379	402.254	-1375.315	 H	13	ARG13	0.448	
205	2HH1	1379.979	402.050	-1374.450	 H	13	ARG13	0.448	
206	1HH2	1381.541	404.168	-1376.657	 H	13	ARG13	0.448	
207	2HH2	1381.671	403.095	-1375.194	 H	13	ARG13	0.448	
208	   N	1375.348	403.262	-1381.777	N.am	14	VAL14	-0.416	
209	  CA	1375.876	402.673	-1383.005	C.3	14	VAL14	-0.087	
210	   C	1375.735	403.627	-1384.167	C.2	14	VAL14	0.597	
211	   O	1376.667	403.853	-1384.948	O.2	14	VAL14	-0.568	
212	  CB	1375.138	401.308	-1383.305	C.3	14	VAL14	0.299	
213	 CG1	1375.451	400.642	-1384.673	C.3	14	VAL14	-0.319	
214	 CG2	1375.399	400.209	-1382.247	C.3	14	VAL14	-0.319	
215	   H	1374.618	402.796	-1381.258	 H	14	VAL14	0.272	
216	  HA	1376.956	402.483	-1382.872	 H	14	VAL14	0.097	
217	  HB	1374.047	401.517	-1383.297	 H	14	VAL14	-0.030	
218	1HG1	1376.525	400.408	-1384.795	 H	14	VAL14	0.079	
219	2HG1	1374.891	399.698	-1384.818	 H	14	VAL14	0.079	
220	3HG1	1375.158	401.279	-1385.530	 H	14	VAL14	0.079	
221	1HG2	1375.145	400.551	-1381.227	 H	14	VAL14	0.079	
222	2HG2	1374.782	399.308	-1382.429	 H	14	VAL14	0.079	
223	3HG2	1376.457	399.885	-1382.229	 H	14	VAL14	0.079	
224	   N	1374.607	404.225	-1384.350	N.am	15	MET15	-0.416	
225	  CA	1374.469	405.147	-1385.474	C.3	15	MET15	-0.024	
226	   C	1375.505	406.243	-1385.406	C.2	15	MET15	0.597	
227	   O	1376.177	406.573	-1386.395	O.2	15	MET15	-0.568	
228	  CB	1373.033	405.742	-1385.494	C.3	15	MET15	0.034	
229	  CG	1371.887	404.729	-1385.701	C.3	15	MET15	0.002	
230	  SD	1370.342	405.606	-1385.989	S.3	15	MET15	-0.274	
231	  CE	1369.210	404.224	-1385.792	C.3	15	MET15	-0.054	
232	   H	1373.830	404.057	-1383.727	 H	15	MET15	0.272	
233	  HA	1374.647	404.590	-1386.412	 H	15	MET15	0.088	
234	 2HB	1372.962	406.499	-1386.298	 H	15	MET15	0.024	
235	 3HB	1372.846	406.304	-1384.557	 H	15	MET15	0.024	
236	 2HG	1371.782	404.086	-1384.807	 H	15	MET15	0.044	
237	 3HG	1372.088	404.055	-1386.554	 H	15	MET15	0.044	
238	 1HE	1369.466	403.400	-1386.483	 H	15	MET15	0.068	
239	 2HE	1369.252	403.837	-1384.758	 H	15	MET15	0.068	
240	 3HE	1368.173	404.540	-1385.999	 H	15	MET15	0.068	
241	   N	1375.697	406.854	-1384.286	N.am	16	ARG16	-0.348	
242	  CA	1376.699	407.914	-1384.222	C.3	16	ARG16	-0.264	
243	   C	1378.055	407.402	-1384.647	C.2	16	ARG16	0.734	
244	   O	1378.227	406.242	-1385.014	O.2	16	ARG16	-0.589	
245	  CB	1376.736	408.481	-1382.774	C.3	16	ARG16	-0.001	
246	  CG	1377.547	409.795	-1382.591	C.3	16	ARG16	0.039	
247	  CD	1377.562	410.266	-1381.127	C.3	16	ARG16	0.049	
248	  NE	1378.334	411.538	-1381.017	N.pl3	16	ARG16	-0.530	
249	  CZ	1378.548	412.212	-1379.891	C.cat	16	ARG16	0.808	
250	 NH1	1378.105	411.830	-1378.726	N.pl3	16	ARG16	-0.863	
251	 NH2	1379.234	413.310	-1379.951	N.pl3	16	ARG16	-0.863	
252	   H	1375.162	406.604	-1383.467	 H	16	ARG16	0.275	
253	  HA	1376.403	408.708	-1384.933	 H	16	ARG16	0.156	
254	 2HB	1377.126	407.695	-1382.094	 H	16	ARG16	0.033	
255	 3HB	1375.698	408.654	-1382.425	 H	16	ARG16	0.033	
256	 2HG	1377.119	410.581	-1383.247	 H	16	ARG16	0.029	
257	 3HG	1378.590	409.650	-1382.939	 H	16	ARG16	0.029	
258	 2HD	1378.011	409.472	-1380.490	 H	16	ARG16	0.069	
259	 3HD	1376.518	410.401	-1380.771	 H	16	ARG16	0.069	
260	  HE	1378.753	411.975	-1381.844	 H	16	ARG16	0.346	
261	1HH1	1377.573	410.957	-1378.747	 H	16	ARG16	0.448	
262	2HH1	1378.312	412.405	-1377.907	 H	16	ARG16	0.448	
263	1HH2	1379.574	413.592	-1380.872	 H	16	ARG16	0.448	
264	2HH2	1379.386	413.814	-1379.076	 H	16	ARG16	0.448	
@<TRIPOS>BOND
1 1 2 1
2 1 10 1
3 2 3 1
4 2 5 1
5 2 11 1
6 3 4 2
7 3 16 1
8 5 6 1
9 6 7 1
10 7 8 2
11 7 9 1
12 5 12 1
13 5 13 1
14 6 14 1
15 6 15 1
16 16 17 1
17 16 24 1
18 17 18 1
19 17 20 1
20 17 25 1
21 18 19 2
22 18 30 1
23 20 21 1
24 21 22 1
25 21 23 2
26 20 26 1
27 20 27 1
28 22 28 1
29 22 29 1
30 30 31 1
31 30 36 1
32 31 32 1
33 31 34 1
34 31 37 1
35 32 33 2
36 32 44 1
37 34 35 1
38 35 36 1
39 34 38 1
40 34 39 1
41 35 40 1
42 35 41 1
43 36 42 1
44 36 43 1
45 44 45 1
46 44 53 1
47 45 46 1
48 45 48 1
49 45 54 1
50 46 47 2
51 46 59 1
52 48 49 1
53 49 50 1
54 50 51 2
55 50 52 1
56 48 55 1
57 48 56 1
58 49 57 1
59 49 58 1
60 59 60 1
61 59 65 1
62 60 61 1
63 60 63 1
64 60 66 1
65 61 62 2
66 61 70 1
67 63 64 1
68 63 67 1
69 63 68 1
70 64 69 1
71 70 71 1
72 70 78 1
73 71 72 1
74 71 74 1
75 71 79 1
76 72 73 2
77 72 89 1
78 74 75 1
79 74 76 1
80 75 77 1
81 74 80 1
82 75 81 1
83 75 82 1
84 76 83 1
85 76 84 1
86 76 85 1
87 77 86 1
88 77 87 1
89 77 88 1
90 89 90 1
91 89 97 1
92 90 91 1
93 90 93 1
94 90 98 1
95 91 92 2
96 91 108 1
97 93 94 1
98 94 95 1
99 94 96 1
100 93 99 1
101 93 100 1
102 94 101 1
103 95 102 1
104 95 103 1
105 95 104 1
106 96 105 1
107 96 106 1
108 96 107 1
109 108 109 1
110 108 116 1
111 109 110 1
112 109 112 1
113 109 117 1
114 110 111 2
115 110 120 1
116 112 113 1
117 113 114 2
118 113 115 1
119 112 118 1
120 112 119 1
121 120 121 1
122 120 126 1
123 121 122 1
124 121 124 1
125 121 127 1
126 122 123 2
127 122 134 1
128 124 125 1
129 125 126 1
130 124 128 1
131 124 129 1
132 125 130 1
133 125 131 1
134 126 132 1
135 126 133 1
136 134 135 1
137 134 144 1
138 135 136 1
139 135 138 1
140 135 145 1
141 136 137 2
142 136 151 1
143 138 139 1
144 139 140 2
145 140 143 1
146 139 141 1
147 141 142 2
148 142 143 1
149 138 146 1
150 138 147 1
151 140 148 1
152 142 149 1
153 143 150 1
154 151 152 1
155 151 158 1
156 152 153 1
157 152 155 1
158 152 159 1
159 153 154 2
160 153 167 1
161 155 156 1
162 155 157 1
163 155 160 1
164 156 161 1
165 156 162 1
166 156 163 1
167 157 164 1
168 157 165 1
169 157 166 1
170 167 168 1
171 167 176 1
172 168 169 1
173 168 171 1
174 168 177 1
175 169 170 2
176 169 184 1
177 171 172 1
178 172 173 1
179 173 174 1
180 173 175 2
181 171 178 1
182 171 179 1
183 172 180 1
184 172 181 1
185 174 182 1
186 174 183 1
187 184 185 1
188 184 195 1
189 185 186 1
190 185 188 1
191 185 196 1
192 186 187 2
193 186 208 1
194 188 189 1
195 189 190 1
196 190 191 1
197 191 192 1
198 192 193 2
199 192 194 1
200 188 197 1
201 188 198 1
202 189 199 1
203 189 200 1
204 190 201 1
205 190 202 1
206 191 203 1
207 193 204 1
208 193 205 1
209 194 206 1
210 194 207 1
211 208 209 1
212 208 215 1
213 209 210 1
214 209 212 1
215 209 216 1
216 210 211 2
217 210 224 1
218 212 213 1
219 212 214 1
220 212 217 1
221 213 218 1
222 213 219 1
223 213 220 1
224 214 221 1
225 214 222 1
226 214 223 1
227 224 225 1
228 224 232 1
229 225 226 1
230 225 228 1
231 225 233 1
232 226 227 2
233 226 241 1
234 228 229 1
235 229 230 1
236 230 231 1
237 228 234 1
238 228 235 1
239 229 236 1
240 229 237 1
241 231 238 1
242 231 239 1
243 231 240 1
244 241 242 1
245 241 252 1
246 242 243 1
247 242 245 1
248 242 253 1
249 243 244 2
250 245 246 1
251 246 247 1
252 247 248 1
253 248 249 1
254 249 250 2
255 249 251 1
256 245 254 1
257 245 255 1
258 246 256 1
259 246 257 1
260 247 258 1
261 247 259 1
262 248 260 1
263 250 261 1
264 250 262 1
265 251 263 1
266 251 264 1
@<TRIPOS>SUBSTRUCTURE
1	GLU1	1	RESIDUE	1 ****	GLU
2	ASN2	16	RESIDUE	1 ****	ASN
3	PRO3	30	RESIDUE	1 ****	PRO
4	GLU4	44	RESIDUE	1 ****	GLU
5	SER5	59	RESIDUE	1 ****	SER
6	ILE6	70	RESIDUE	1 ****	ILE
7	LEU7	89	RESIDUE	1 ****	LEU
8	ASP8	108	RESIDUE	1 ****	ASP
9	PRO9	120	RESIDUE	1 ****	PRO
10	HIS10	134	RESIDUE	1 ****	HIS
11	VAL11	151	RESIDUE	1 ****	VAL
12	GLN12	167	RESIDUE	1 ****	GLN
13	ARG13	184	RESIDUE	1 ****	ARG
14	VAL14	208	RESIDUE	1 ****	VAL
15	MET15	224	RESIDUE	1 ****	MET
16	ARG16	241	RESIDUE	1 ****	ARG
