REMARK WARNING: 32 MAX_TORS EXCEEDED!!!
REMARK  68 active torsions:
REMARK  status: ('A' for Active; 'I' for Inactive)
REMARK    1  A    between atoms: N_1  and  CA_2 
REMARK    2  A    between atoms: CA_2  and  C_3 
REMARK    3  A    between atoms: CA_2  and  CB_5 
REMARK       I    between atoms: C_3  and  N_11 
REMARK    4  A    between atoms: CB_5  and  CG_6 
REMARK    5  A    between atoms: CG_6  and  CD_7 
REMARK    6  A    between atoms: N_11  and  CA_12 
REMARK    7  A    between atoms: CA_12  and  C_13 
REMARK    8  A    between atoms: CA_12  and  CB_15 
REMARK       I    between atoms: C_13  and  N_22 
REMARK    9  A    between atoms: CB_15  and  CG_16 
REMARK       I    between atoms: CG_16  and  ND2_17 
REMARK   10  A    between atoms: CA_23  and  C_24 
REMARK       I    between atoms: C_24  and  N_29 
REMARK   11  A    between atoms: N_29  and  CA_30 
REMARK   12  A    between atoms: CA_30  and  C_31 
REMARK   13  A    between atoms: CA_30  and  CB_33 
REMARK       I    between atoms: C_31  and  N_39 
REMARK   14  A    between atoms: CB_33  and  CG_34 
REMARK   15  A    between atoms: CG_34  and  CD_35 
REMARK   16  A    between atoms: N_39  and  CA_40 
REMARK   17  A    between atoms: CA_40  and  C_41 
REMARK   18  A    between atoms: CA_40  and  CB_43 
REMARK       I    between atoms: C_41  and  N_47 
REMARK   19  A    between atoms: CB_43  and  OG_44 
REMARK   20  A    between atoms: N_47  and  CA_48 
REMARK   21  A    between atoms: CA_48  and  C_49 
REMARK   22  A    between atoms: CA_48  and  CB_51 
REMARK       I    between atoms: C_49  and  N_56 
REMARK   23  A    between atoms: CB_51  and  CG1_52 
REMARK   24  A    between atoms: N_56  and  CA_57 
REMARK   25  A    between atoms: CA_57  and  C_58 
REMARK   26  A    between atoms: CA_57  and  CB_60 
REMARK       I    between atoms: C_58  and  N_65 
REMARK   27  A    between atoms: CB_60  and  CG_61 
REMARK   28  A    between atoms: N_65  and  CA_66 
REMARK   29  A    between atoms: CA_66  and  C_67 
REMARK   30  A    between atoms: CA_66  and  CB_69 
REMARK       I    between atoms: C_67  and  N_74 
REMARK   31  A    between atoms: CB_69  and  CG_70 
REMARK   32  A    between atoms: N_74  and  CA_75 
REMARK   33  A    between atoms: CA_75  and  C_76 
REMARK   34  A    between atoms: CA_75  and  CB_78 
REMARK       I    between atoms: C_76  and  N_84 
REMARK   35  A    between atoms: CB_78  and  CG_79 
REMARK   36  A    between atoms: CG_79  and  CD_80 
REMARK   37  A    between atoms: N_84  and  CA_85 
REMARK   38  A    between atoms: CA_85  and  C_86 
REMARK   39  A    between atoms: CA_85  and  CB_88 
REMARK       I    between atoms: C_86  and  N_96 
REMARK   40  A    between atoms: CB_88  and  CG_89 
REMARK   41  A    between atoms: N_96  and  CA_97 
REMARK   42  A    between atoms: CA_97  and  C_98 
REMARK   43  A    between atoms: CA_97  and  CB_100 
REMARK       I    between atoms: C_98  and  N_104 
REMARK   44  A    between atoms: N_104  and  CA_105 
REMARK   45  A    between atoms: CA_105  and  C_106 
REMARK   46  A    between atoms: CA_105  and  CB_108 
REMARK       I    between atoms: C_106  and  N_118 
REMARK   47  A    between atoms: CB_108  and  CG_109 
REMARK   48  A    between atoms: CZ_114  and  OH_115 
REMARK   49  A    between atoms: N_118  and  CA_119 
REMARK   50  A    between atoms: CA_119  and  C_120 
REMARK   51  A    between atoms: CA_119  and  CB_122 
REMARK       I    between atoms: C_120  and  N_135 
REMARK   52  A    between atoms: CB_122  and  CG_123 
REMARK   53  A    between atoms: CG_123  and  CD_124 
REMARK   54  A    between atoms: CD_124  and  NE_125 
REMARK       I    between atoms: NE_125  and  CZ_126 
REMARK       I    between atoms: CZ_126  and  NH1_127 
REMARK       I    between atoms: CZ_126  and  NH2_128 
REMARK   55  A    between atoms: N_135  and  CA_136 
REMARK   56  A    between atoms: CA_136  and  C_137 
REMARK   57  A    between atoms: CA_136  and  CB_139 
REMARK       I    between atoms: C_137  and  N_143 
REMARK   58  A    between atoms: N_143  and  CA_144 
REMARK   59  A    between atoms: CA_144  and  C_145 
REMARK   60  A    between atoms: CA_144  and  CB_147 
REMARK       I    between atoms: C_145  and  N_152 
REMARK   61  A    between atoms: CB_147  and  CG_148 
REMARK   62  A    between atoms: CG_148  and  SD_149 
REMARK   63  A    between atoms: N_152  and  CA_153 
REMARK   64  A    between atoms: CA_153  and  C_154 
REMARK   65  A    between atoms: CA_153  and  CB_156 
REMARK   66  A    between atoms: CB_156  and  CG_157 
REMARK   67  A    between atoms: CG_157  and  CD_158 
REMARK   68  A    between atoms: CD_158  and  NE_159 
REMARK       I    between atoms: NE_159  and  CZ_160 
REMARK       I    between atoms: CZ_160  and  NH1_161 
ROOT
ATOM      1  C   GLU d   9    1921.392 581.932-1972.911  0.00  0.00     0.241 C 
ATOM      2  O   GLU d   9    1922.056 582.687-1973.637  0.00  0.00    -0.271 OA
ATOM      3  N   HIS d  10    1921.489 580.657-1973.081  0.00  0.00    -0.346 N 
ATOM      4  H   HIS d  10    1920.958 580.022-1972.503  0.00  0.00     0.163 HD
ENDROOT
BRANCH   3   5
ATOM      5  CA  HIS d  10    1922.377 580.147-1974.122  0.00  0.00     0.182 C 
BRANCH   5   6
ATOM      6  C   HIS d  10    1922.010 580.711-1975.473  0.00  0.00     0.241 C 
ATOM      7  O   HIS d  10    1922.863 581.177-1976.244  0.00  0.00    -0.271 OA
ATOM      8  N   VAL d  11    1920.773 580.710-1975.836  0.00  0.00    -0.346 N 
ATOM      9  H   VAL d  11    1920.060 580.337-1975.226  0.00  0.00     0.163 HD
BRANCH   8  10
ATOM     10  CA  VAL d  11    1920.418 581.256-1977.143  0.00  0.00     0.180 C 
BRANCH  10  11
ATOM     11  C   VAL d  11    1920.882 582.687-1977.275  0.00  0.00     0.241 C 
ATOM     12  O   VAL d  11    1921.483 583.093-1978.277  0.00  0.00    -0.271 OA
ATOM     13  N   TYR d  12    1920.644 583.512-1976.312  0.00  0.00    -0.346 N 
ATOM     14  H   TYR d  12    1920.155 583.206-1975.483  0.00  0.00     0.163 HD
BRANCH  13  15
ATOM     15  CA  TYR d  12    1921.092 584.896-1976.439  0.00  0.00     0.180 C 
BRANCH  15  16
ATOM     16  C   TYR d  12    1922.581 584.962-1976.676  0.00  0.00     0.241 C 
ATOM     17  O   TYR d  12    1923.072 585.673-1977.558  0.00  0.00    -0.271 OA
ATOM     18  N   ARG d  13    1923.365 584.255-1975.935  0.00  0.00    -0.346 N 
ATOM     19  H   ARG d  13    1922.988 583.665-1975.207  0.00  0.00     0.163 HD
BRANCH  18  20
ATOM     20  CA  ARG d  13    1924.805 584.319-1976.165  0.00  0.00     0.176 C 
BRANCH  20  21
ATOM     21  C   ARG d  13    1925.142 583.947-1977.590  0.00  0.00     0.241 C 
ATOM     22  O   ARG d  13    1925.911 584.618-1978.273  0.00  0.00    -0.271 OA
ATOM     23  N   VAL d  14    1924.605 582.893-1978.104  0.00  0.00    -0.346 N 
ATOM     24  H   VAL d  14    1923.969 582.326-1977.563  0.00  0.00     0.163 HD
BRANCH  23  25
ATOM     25  CA  VAL d  14    1924.930 582.534-1979.482  0.00  0.00     0.180 C 
BRANCH  25  26
ATOM     26  C   VAL d  14    1924.602 583.664-1980.428  0.00  0.00     0.241 C 
ATOM     27  O   VAL d  14    1925.396 584.045-1981.297  0.00  0.00    -0.271 OA
ATOM     28  N   MET d  15    1923.457 584.251-1980.326  0.00  0.00    -0.346 N 
ATOM     29  H   MET d  15    1922.792 583.959-1979.625  0.00  0.00     0.163 HD
BRANCH  28  30
ATOM     30  CA  MET d  15    1923.139 585.344-1981.240  0.00  0.00     0.177 C 
BRANCH  30  31
ATOM     31  C   MET d  15    1924.170 586.443-1981.152  0.00  0.00     0.241 C 
ATOM     32  O   MET d  15    1924.673 586.953-1982.165  0.00  0.00    -0.271 OA
ATOM     33  N   ARG d  16    1924.538 586.864-1979.990  0.00  0.00    -0.347 N 
ATOM     34  H   ARG d  16    1924.143 586.465-1979.151  0.00  0.00     0.163 HD
BRANCH  33  35
ATOM     35  CA  ARG d  16    1925.536 587.927-1979.906  0.00  0.00     0.162 C 
BRANCH  35  36
ATOM     36  C   ARG d  16    1926.806 587.533-1980.622  0.00  0.00     0.219 C 
ATOM     37  O   ARG d  16    1926.919 586.456-1981.203  0.00  0.00    -0.287 OA
ENDBRANCH  35  36
BRANCH  35  38
ATOM     38  CB  ARG d  16    1925.805 588.245-1978.408  0.00  0.00     0.035 C 
BRANCH  38  39
ATOM     39  CG  ARG d  16    1926.631 589.533-1978.135  0.00  0.00     0.023 C 
BRANCH  39  40
ATOM     40  CD  ARG d  16    1926.881 589.753-1976.634  0.00  0.00     0.138 C 
BRANCH  40  41
ATOM     41  NE  ARG d  16    1927.658 591.011-1976.433  0.00  0.00    -0.227 N 
ATOM     42  CZ  ARG d  16    1928.050 591.493-1975.258  0.00  0.00     0.665 C 
ATOM     43  NH1 ARG d  16    1927.801 590.909-1974.119  0.00  0.00    -0.235 N 
ATOM     44  NH2 ARG d  16    1928.715 592.605-1975.239  0.00  0.00    -0.235 N 
ATOM     45 11HH ARG d  16    1927.275 590.037-1974.203  0.00  0.00     0.174 HD
ATOM     46 12HH ARG d  16    1928.136 591.345-1973.258  0.00  0.00     0.174 HD
ATOM     47 21HH ARG d  16    1928.901 593.048-1976.141  0.00  0.00     0.174 HD
ATOM     48 22HH ARG d  16    1929.005 592.960-1974.327  0.00  0.00     0.174 HD
ATOM     49  HE  ARG d  16    1927.938 591.591-1977.230  0.00  0.00     0.177 HD
ENDBRANCH  40  41
ENDBRANCH  39  40
ENDBRANCH  38  39
ENDBRANCH  35  38
ENDBRANCH  33  35
ENDBRANCH  30  31
BRANCH  30  50
ATOM     50  CB  MET d  15    1921.717 585.891-1980.932  0.00  0.00     0.045 C 
BRANCH  50  51
ATOM     51  CG  MET d  15    1920.554 584.894-1981.124  0.00  0.00     0.076 C 
BRANCH  51  52
ATOM     52  SD  MET d  15    1918.981 585.762-1981.010  0.00  0.00    -0.173 SA
ATOM     53  CE  MET d  15    1917.899 584.333-1980.874  0.00  0.00     0.089 C 
ENDBRANCH  51  52
ENDBRANCH  50  51
ENDBRANCH  30  50
ENDBRANCH  28  30
ENDBRANCH  25  26
BRANCH  25  54
ATOM     54  CB  VAL d  14    1924.156 581.217-1979.889  0.00  0.00     0.009 C 
ATOM     55  CG1 VAL d  14    1924.245 580.799-1981.382  0.00  0.00     0.012 C 
ATOM     56  CG2 VAL d  14    1924.586 579.965-1979.088  0.00  0.00     0.012 C 
ENDBRANCH  25  54
ENDBRANCH  23  25
ENDBRANCH  20  21
BRANCH  20  57
ATOM     57  CB  ARG d  13    1925.517 583.379-1975.151  0.00  0.00     0.036 C 
BRANCH  57  58
ATOM     58  CG  ARG d  13    1927.062 583.531-1975.069  0.00  0.00     0.023 C 
BRANCH  58  59
ATOM     59  CD  ARG d  13    1927.688 582.543-1974.071  0.00  0.00     0.138 C 
BRANCH  59  60
ATOM     60  NE  ARG d  13    1929.165 582.749-1974.020  0.00  0.00    -0.227 N 
ATOM     61  CZ  ARG d  13    1930.012 582.056-1973.264  0.00  0.00     0.665 C 
ATOM     62  NH1 ARG d  13    1929.646 581.092-1972.467  0.00  0.00    -0.235 N 
ATOM     63  NH2 ARG d  13    1931.272 582.354-1973.320  0.00  0.00    -0.235 N 
ATOM     64 11HH ARG d  13    1928.640 580.907-1972.470  0.00  0.00     0.174 HD
ATOM     65 12HH ARG d  13    1930.358 580.608-1971.918  0.00  0.00     0.174 HD
ATOM     66 21HH ARG d  13    1931.540 583.111-1973.951  0.00  0.00     0.174 HD
ATOM     67 22HH ARG d  13    1931.906 581.812-1972.731  0.00  0.00     0.174 HD
ATOM     68  HE  ARG d  13    1929.617 583.470-1974.590  0.00  0.00     0.177 HD
ENDBRANCH  59  60
ENDBRANCH  58  59
ENDBRANCH  57  58
ENDBRANCH  20  57
ENDBRANCH  18  20
ENDBRANCH  15  16
BRANCH  15  69
ATOM     69  CB  TYR d  12    1920.776 585.703-1975.146  0.00  0.00     0.073 C 
BRANCH  69  70
ATOM     70  CG  TYR d  12    1919.297 585.838-1974.763  0.00  0.00    -0.056 A 
ATOM     71  CD1 TYR d  12    1918.471 586.756-1975.420  0.00  0.00     0.010 A 
ATOM     72  CE1 TYR d  12    1917.127 586.858-1975.073  0.00  0.00     0.037 A 
ATOM     73  CZ  TYR d  12    1916.602 586.048-1974.069  0.00  0.00     0.065 A 
ATOM     74  CE2 TYR d  12    1917.421 585.133-1973.410  0.00  0.00     0.037 A 
ATOM     75  CD2 TYR d  12    1918.765 585.029-1973.755  0.00  0.00     0.010 A 
BRANCH  73  76
ATOM     76  OH  TYR d  12    1915.282 586.149-1973.734  0.00  0.00    -0.361 OA
ATOM     77  HH  TYR d  12    1915.097 585.521-1973.033  0.00  0.00     0.217 HD
ENDBRANCH  73  76
ENDBRANCH  69  70
ENDBRANCH  15  69
ENDBRANCH  13  15
ENDBRANCH  10  11
BRANCH  10  78
ATOM     78  CB  VAL d  11    1918.857 581.149-1977.363  0.00  0.00     0.009 C 
ATOM     79  CG1 VAL d  11    1918.288 581.854-1978.625  0.00  0.00     0.012 C 
ATOM     80  CG2 VAL d  11    1918.333 579.695-1977.436  0.00  0.00     0.012 C 
ENDBRANCH  10  78
ENDBRANCH   8  10
ENDBRANCH   5   6
BRANCH   5  81
ATOM     81  CB  HIS d  10    1922.214 578.618-1974.117  0.00  0.00     0.095 C 
BRANCH  81  82
ATOM     82  CG  HIS d  10    1923.499 577.908-1973.809  0.00  0.00     0.053 A 
ATOM     83  CD2 HIS d  10    1923.880 577.572-1972.517  0.00  0.00     0.116 A 
ATOM     84  NE2 HIS d  10    1925.095 576.941-1972.583  0.00  0.00    -0.359 N 
ATOM     85  CE1 HIS d  10    1925.358 576.944-1973.918  0.00  0.00     0.207 A 
ATOM     86  2HE HIS d  10    1925.662 576.563-1971.810  0.00  0.00     0.166 HD
ATOM     87  ND1 HIS d  10    1924.452 577.502-1974.742  0.00  0.00    -0.247 NA
ENDBRANCH  81  82
ENDBRANCH   5  81
ENDBRANCH   3   5
BRANCH   1  88
ATOM     88  CA  GLU d   9    1920.474 582.459-1971.836  0.00  0.00     0.177 C 
BRANCH  88  89
ATOM     89  N   GLU d   9    1919.171 581.802-1971.891  0.00  0.00    -0.346 N 
ATOM     90  C   ASP d   8    1918.491 581.851-1972.987  0.00  0.00     0.241 C 
ATOM     91  O   ASP d   8    1918.964 582.457-1973.961  0.00  0.00    -0.271 OA
ATOM     92  H   GLU d   9    1918.808 581.315-1971.084  0.00  0.00     0.163 HD
BRANCH  90  93
ATOM     93  CA  ASP d   8    1917.145 581.171-1973.044  0.00  0.00     0.186 C 
BRANCH  93  94
ATOM     94  N   ASP d   8    1917.216 579.822-1972.491  0.00  0.00    -0.346 N 
ATOM     95  C   LEU d   7    1918.053 578.981-1972.997  0.00  0.00     0.241 C 
ATOM     96  O   LEU d   7    1918.774 579.344-1973.939  0.00  0.00    -0.271 OA
ATOM     97  H   ASP d   8    1916.618 579.550-1971.723  0.00  0.00     0.163 HD
BRANCH  95  98
ATOM     98  CA  LEU d   7    1918.126 577.586-1972.425  0.00  0.00     0.177 C 
BRANCH  98  99
ATOM     99  N   LEU d   7    1918.181 577.622-1970.966  0.00  0.00    -0.346 N 
ATOM    100  C   ILE d   6    1919.126 578.286-1970.392  0.00  0.00     0.241 C 
ATOM    101  O   ILE d   6    1919.961 578.874-1971.096  0.00  0.00    -0.271 OA
ATOM    102  H   LEU d   7    1917.489 577.135-1970.415  0.00  0.00     0.163 HD
BRANCH 100 103
ATOM    103  CA  ILE d   6    1919.184 578.323-1968.885  0.00  0.00     0.180 C 
BRANCH 103 104
ATOM    104  N   ILE d   6    1917.870 578.618-1968.318  0.00  0.00    -0.346 N 
ATOM    105  C   SER d   5    1917.266 579.701-1968.673  0.00  0.00     0.243 C 
ATOM    106  O   SER d   5    1917.813 580.454-1969.478  0.00  0.00    -0.271 OA
ATOM    107  H   ILE d   6    1917.442 577.984-1967.659  0.00  0.00     0.163 HD
BRANCH 105 108
ATOM    108  CA  SER d   5    1915.907 580.007-1968.087  0.00  0.00     0.200 C 
BRANCH 108 109
ATOM    109  N   SER d   5    1915.037 578.835-1968.145  0.00  0.00    -0.344 N 
ATOM    110  C   GLU d   4    1914.810 578.283-1969.289  0.00  0.00     0.241 C 
ATOM    111  O   GLU d   4    1915.336 578.762-1970.303  0.00  0.00    -0.271 OA
ATOM    112  H   SER d   5    1914.620 578.464-1967.304  0.00  0.00     0.163 HD
BRANCH 110 113
ATOM    113  CA  GLU d   4    1913.911 577.072-1969.350  0.00  0.00     0.177 C 
BRANCH 113 114
ATOM    114  N   GLU d   4    1914.271 576.101-1968.320  0.00  0.00    -0.346 N 
ATOM    115  C   PRO d   3    1915.475 575.641-1968.288  0.00  0.00     0.241 C 
ATOM    116  O   PRO d   3    1916.299 576.024-1969.119  0.00  0.00    -0.271 OA
ATOM    117  H   GLU d   4    1913.586 575.794-1967.643  0.00  0.00     0.163 HD
BRANCH 115 118
ATOM    118  CA  PRO d   3    1915.873 574.617-1967.211  0.00  0.00     0.179 C 
ATOM    119  N   PRO d   3    1915.422 575.026-1965.889  0.00  0.00    -0.337 N 
ATOM    120  C   ASN d   2    1915.943 576.021-1965.255  0.00  0.00     0.243 C 
ATOM    121  CD  PRO d   3    1914.344 574.233-1965.340  0.00  0.00     0.127 C 
ATOM    122  O   ASN d   2    1916.858 576.652-1965.784  0.00  0.00    -0.271 OA
ATOM    123  CG  PRO d   3    1913.886 573.415-1966.550  0.00  0.00     0.022 C 
ATOM    124  CB  PRO d   3    1915.169 573.262-1967.380  0.00  0.00     0.037 C 
BRANCH 120 125
ATOM    125  CA  ASN d   2    1915.412 576.377-1963.887  0.00  0.00     0.185 C 
BRANCH 125 126
ATOM    126  N   ASN d   2    1913.953 576.416-1963.887  0.00  0.00    -0.346 N 
ATOM    127  C   GLU d   1    1913.348 577.202-1964.712  0.00  0.00     0.242 C 
ATOM    128  O   GLU d   1    1914.024 577.901-1965.480  0.00  0.00    -0.271 OA
ATOM    129  H   ASN d   2    1913.424 575.836-1963.250  0.00  0.00     0.163 HD
BRANCH 127 130
ATOM    130  CA  GLU d   1    1911.839 577.242-1964.712  0.00  0.00     0.191 C 
BRANCH 130 131
ATOM    131  N   GLU d   1    1911.280 575.893-1964.712  0.00  0.00    -0.326 NA
ATOM    132  H   GLU d   1    1911.907 575.014-1964.712  0.00  0.00     0.180 HD
ENDBRANCH 130 131
BRANCH 130 133
ATOM    133  CB  GLU d   1    1911.316 578.027-1963.475  0.00  0.00     0.047 C 
BRANCH 133 134
ATOM    134  CG  GLU d   1    1911.791 579.512-1963.364  0.00  0.00     0.116 C 
BRANCH 134 135
ATOM    135  CD  GLU d   1    1911.367 580.316-1962.149  0.00  0.00     0.172 C 
ATOM    136  OE1 GLU d   1    1910.639 579.814-1961.271  0.00  0.00    -0.648 OA
ATOM    137  OE2 GLU d   1    1911.797 581.486-1962.077  0.00  0.00    -0.648 OA
ENDBRANCH 134 135
ENDBRANCH 133 134
ENDBRANCH 130 133
ENDBRANCH 127 130
ENDBRANCH 125 126
BRANCH 125 138
ATOM    138  CB  ASN d   2    1915.904 575.354-1962.822  0.00  0.00     0.137 C 
BRANCH 138 139
ATOM    139  CG  ASN d   2    1915.441 575.578-1961.379  0.00  0.00     0.217 C 
ATOM    140  ND2 ASN d   2    1916.035 576.493-1960.661  0.00  0.00    -0.370 N 
ATOM    141 21HD ASN d   2    1915.554 576.666-1959.774  0.00  0.00     0.159 HD
ATOM    142 22HD ASN d   2    1916.737 577.064-1961.130  0.00  0.00     0.159 HD
ATOM    143  OD1 ASN d   2    1914.520 574.944-1960.885  0.00  0.00    -0.274 OA
ENDBRANCH 138 139
ENDBRANCH 125 138
ENDBRANCH 120 125
ENDBRANCH 115 118
ENDBRANCH 113 114
BRANCH 113 144
ATOM    144  CB  GLU d   4    1912.422 577.490-1969.179  0.00  0.00     0.045 C 
BRANCH 144 145
ATOM    145  CG  GLU d   4    1911.874 578.494-1970.245  0.00  0.00     0.116 C 
BRANCH 145 146
ATOM    146  CD  GLU d   4    1910.448 578.991-1970.101  0.00  0.00     0.172 C 
ATOM    147  OE1 GLU d   4    1909.721 578.592-1969.171  0.00  0.00    -0.648 OA
ATOM    148  OE2 GLU d   4    1910.058 579.820-1970.950  0.00  0.00    -0.648 OA
ENDBRANCH 145 146
ENDBRANCH 144 145
ENDBRANCH 113 144
ENDBRANCH 110 113
ENDBRANCH 108 109
BRANCH 108 149
ATOM    149  CB  SER d   5    1916.018 580.539-1966.636  0.00  0.00     0.199 C 
BRANCH 149 150
ATOM    150  OG  SER d   5    1916.750 579.660-1965.775  0.00  0.00    -0.398 OA
ATOM    151  HG  SER d   5    1916.261 578.835-1965.725  0.00  0.00     0.209 HD
ENDBRANCH 149 150
ENDBRANCH 108 149
ENDBRANCH 105 108
ENDBRANCH 103 104
BRANCH 103 152
ATOM    152  CB  ILE d   6    1919.783 576.987-1968.285  0.00  0.00     0.013 C 
ATOM    153  CG2 ILE d   6    1921.225 576.686-1968.800  0.00  0.00     0.012 C 
BRANCH 152 154
ATOM    154  CG1 ILE d   6    1919.803 576.925-1966.724  0.00  0.00     0.002 C 
ATOM    155  CD1 ILE d   6    1920.073 575.536-1966.109  0.00  0.00     0.005 C 
ENDBRANCH 152 154
ENDBRANCH 103 152
ENDBRANCH 100 103
ENDBRANCH  98  99
BRANCH  98 156
ATOM    156  CB  LEU d   7    1916.923 576.726-1972.905  0.00  0.00     0.038 C 
BRANCH 156 157
ATOM    157  CG  LEU d   7    1916.850 575.246-1972.438  0.00  0.00    -0.020 C 
ATOM    158  CD1 LEU d   7    1915.661 574.540-1973.104  0.00  0.00     0.009 C 
ATOM    159  CD2 LEU d   7    1918.144 574.467-1972.730  0.00  0.00     0.009 C 
ENDBRANCH 156 157
ENDBRANCH  98 156
ENDBRANCH  95  98
ENDBRANCH  93  94
BRANCH  93 160
ATOM    160  CB  ASP d   8    1916.067 582.010-1972.302  0.00  0.00     0.147 C 
BRANCH 160 161
ATOM    161  CG  ASP d   8    1915.848 583.431-1972.842  0.00  0.00     0.175 C 
ATOM    162  OD1 ASP d   8    1915.912 583.630-1974.073  0.00  0.00    -0.648 OA
ATOM    163  OD2 ASP d   8    1915.655 584.357-1972.027  0.00  0.00    -0.648 OA
ENDBRANCH 160 161
ENDBRANCH  93 160
ENDBRANCH  90  93
ENDBRANCH  88  89
BRANCH  88 164
ATOM    164  CB  GLU d   9    1921.107 582.252-1970.430  0.00  0.00     0.045 C 
BRANCH 164 165
ATOM    165  CG  GLU d   9    1922.489 582.944-1970.201  0.00  0.00     0.116 C 
BRANCH 165 166
ATOM    166  CD  GLU d   9    1923.191 582.731-1968.872  0.00  0.00     0.172 C 
ATOM    167  OE1 GLU d   9    1922.670 582.040-1967.976  0.00  0.00    -0.648 OA
ATOM    168  OE2 GLU d   9    1924.310 583.269-1968.740  0.00  0.00    -0.648 OA
ENDBRANCH 165 166
ENDBRANCH 164 165
ENDBRANCH  88 164
ENDBRANCH   1  88
TORSDOF 68
