@<TRIPOS>MOLECULE
7-12
257 258 16              
SMALL
USER_CHARGES
@<TRIPOS>ATOM
1	   N	1115.585	315.316	-1102.642	N.3	1	GLU1	-0.516	
2	  CA	1116.144	316.665	-1102.642	C.3	1	GLU1	0.040	
3	   C	1117.653	316.625	-1102.642	C.2	1	GLU1	0.537	
4	   O	1118.329	317.324	-1103.410	O.2	1	GLU1	-0.582	
5	  CB	1115.621	317.450	-1101.405	C.3	1	GLU1	0.056	
6	  CG	1116.096	318.935	-1101.294	C.3	1	GLU1	0.014	
7	  CD	1115.672	319.739	-1100.078	C.2	1	GLU1	0.805	
8	 OE1	1114.944	319.237	-1099.201	O.co2	1	GLU1	-0.819	
9	 OE2	1116.102	320.909	-1100.007	O.co2	1	GLU1	-0.819	
10	   H	1116.212	314.437	-1102.642	 H	1	GLU1	0.294	
11	  HA	1115.818	317.183	-1103.562	 H	1	GLU1	0.111	
12	 2HB	1115.910	316.919	-1100.475	 H	1	GLU1	-0.017	
13	 3HB	1114.514	317.440	-1101.392	 H	1	GLU1	-0.017	
14	 2HG	1115.786	319.520	-1102.175	 H	1	GLU1	-0.043	
15	 3HG	1117.196	319.002	-1101.265	 H	1	GLU1	-0.043	
16	   N	1118.258	315.840	-1101.816	N.am	2	ASN2	-0.416	
17	  CA	1119.717	315.801	-1101.816	C.3	2	ASN2	0.014	
18	   C	1120.248	315.445	-1103.185	C.2	2	ASN2	0.597	
19	   O	1121.163	316.076	-1103.714	O.2	2	ASN2	-0.568	
20	  CB	1120.209	314.778	-1100.752	C.3	2	ASN2	-0.204	
21	  CG	1119.746	315.002	-1099.309	C.2	2	ASN2	0.713	
22	 ND2	1120.340	315.917	-1098.591	N.pl3	2	ASN2	-0.919	
23	 OD1	1118.825	314.368	-1098.815	O.2	2	ASN2	-0.593	
24	   H	1117.729	315.260	-1101.180	 H	2	ASN2	0.272	
25	  HA	1120.094	316.811	-1101.571	 H	2	ASN2	0.105	
26	 2HB	1121.313	314.719	-1100.756	 H	2	ASN2	0.080	
27	 3HB	1119.880	313.760	-1101.038	 H	2	ASN2	0.080	
28	1HD2	1119.860	316.090	-1097.704	 H	2	ASN2	0.420	
29	2HD2	1121.042	316.488	-1099.060	 H	2	ASN2	0.420	
30	   N	1119.727	314.450	-1103.819	N.am	3	PRO3	-0.255	
31	  CA	1120.178	314.041	-1105.141	C.3	3	PRO3	-0.027	
32	   C	1119.780	315.064	-1106.218	C.2	3	PRO3	0.590	
33	   O	1120.603	315.448	-1107.049	O.2	3	PRO3	-0.575	
34	  CB	1119.474	312.686	-1105.310	C.3	3	PRO3	-0.007	
35	  CG	1118.191	312.839	-1104.480	C.3	3	PRO3	0.019	
36	  CD	1118.649	313.657	-1103.270	C.3	3	PRO3	0.019	
37	  HA	1121.264	313.921	-1105.155	 H	3	PRO3	0.064	
38	 2HB	1120.097	311.905	-1104.869	 H	3	PRO3	0.025	
39	 3HB	1119.276	312.438	-1106.355	 H	3	PRO3	0.025	
40	 2HG	1117.764	311.876	-1104.189	 H	3	PRO3	0.021	
41	 3HG	1117.453	313.409	-1105.047	 H	3	PRO3	0.021	
42	 2HD	1119.038	313.008	-1102.482	 H	3	PRO3	0.039	
43	 3HD	1117.852	314.293	-1102.877	 H	3	PRO3	0.039	
44	   N	1118.575	315.525	-1106.250	N.am	4	GLU4	-0.516	
45	  CA	1118.216	316.496	-1107.279	C.3	4	GLU4	0.040	
46	   C	1119.115	317.707	-1107.218	C.2	4	GLU4	0.537	
47	   O	1119.641	318.186	-1108.233	O.2	4	GLU4	-0.582	
48	  CB	1116.727	316.914	-1107.109	C.3	4	GLU4	0.056	
49	  CG	1116.179	317.918	-1108.174	C.3	4	GLU4	0.014	
50	  CD	1114.752	318.414	-1108.031	C.2	4	GLU4	0.805	
51	 OE1	1114.026	318.016	-1107.100	O.co2	4	GLU4	-0.819	
52	 OE2	1114.362	319.244	-1108.879	O.co2	4	GLU4	-0.819	
53	   H	1117.891	315.218	-1105.573	 H	4	GLU4	0.294	
54	  HA	1118.347	316.025	-1108.271	 H	4	GLU4	0.111	
55	 2HB	1116.575	317.354	-1106.102	 H	4	GLU4	-0.017	
56	 3HB	1116.079	316.016	-1107.115	 H	4	GLU4	-0.017	
57	 2HG	1116.260	317.503	-1109.192	 H	4	GLU4	-0.043	
58	 3HG	1116.767	318.850	-1108.186	 H	4	GLU4	-0.043	
59	   N	1119.342	318.260	-1106.075	N.am	5	SER5	-0.416	
60	  CA	1120.211	319.431	-1106.017	C.3	5	SER5	-0.025	
61	   C	1121.570	319.125	-1106.603	C.2	5	SER5	0.597	
62	   O	1122.117	319.879	-1107.407	O.2	5	SER5	-0.568	
63	  CB	1120.323	319.963	-1104.566	C.3	5	SER5	0.212	
64	  OG	1121.055	319.084	-1103.705	O.3	5	SER5	-0.655	
65	   H	1118.925	317.888	-1105.234	 H	5	SER5	0.272	
66	  HA	1119.762	320.221	-1106.646	 H	5	SER5	0.084	
67	 2HB	1119.323	320.157	-1104.133	 H	5	SER5	0.035	
68	 3HB	1120.828	320.949	-1104.568	 H	5	SER5	0.035	
69	  HG	1120.566	318.259	-1103.655	 H	5	SER5	0.428	
70	   N	1122.175	318.042	-1106.249	N.am	6	ILE6	-0.416	
71	  CA	1123.488	317.748	-1106.815	C.3	6	ILE6	-0.060	
72	   C	1123.431	317.710	-1108.323	C.2	6	ILE6	0.597	
73	   O	1124.266	318.298	-1109.027	O.2	6	ILE6	-0.568	
74	  CB	1124.088	316.411	-1106.215	C.3	6	ILE6	0.130	
75	 CG1	1124.108	316.349	-1104.654	C.3	6	ILE6	-0.043	
76	 CG2	1125.529	316.110	-1106.731	C.3	6	ILE6	-0.320	
77	 CD1	1124.378	314.960	-1104.039	C.3	6	ILE6	-0.066	
78	   H	1121.747	317.408	-1105.590	 H	6	ILE6	0.272	
79	  HA	1124.162	318.582	-1106.547	 H	6	ILE6	0.087	
80	  HB	1123.430	315.586	-1106.559	 H	6	ILE6	0.019	
81	2HG1	1123.125	316.669	-1104.258	 H	6	ILE6	0.024	
82	3HG1	1124.823	317.091	-1104.249	 H	6	ILE6	0.024	
83	1HG2	1125.588	316.017	-1107.829	 H	6	ILE6	0.088	
84	2HG2	1126.251	316.892	-1106.428	 H	6	ILE6	0.088	
85	3HG2	1125.919	315.148	-1106.352	 H	6	ILE6	0.088	
86	1HD1	1123.650	314.206	-1104.394	 H	6	ILE6	0.019	
87	2HD1	1125.388	314.581	-1104.275	 H	6	ILE6	0.019	
88	3HD1	1124.302	314.990	-1102.937	 H	6	ILE6	0.019	
89	   N	1122.485	317.047	-1108.896	N.am	7	CYS7	-0.416	
90	  CA	1122.429	317.010	-1110.355	C.3	7	CYS7	0.021	
91	   C	1122.356	318.406	-1110.929	C.2	7	CYS7	0.597	
92	   O	1123.076	318.767	-1111.871	O.2	7	CYS7	-0.568	
93	  CB	1121.232	316.136	-1110.778	C.3	7	CYS7	-0.123	
94	  SG	1121.212	315.902	-1112.570	S.3	7	CYS7	-0.312	
95	   H	1121.793	316.560	-1108.345	 H	7	CYS7	0.272	
96	  HA	1123.363	316.551	-1110.727	 H	7	CYS7	0.112	
97	 2HB	1120.269	316.583	-1110.456	 H	7	CYS7	0.111	
98	 3HB	1121.279	315.139	-1110.306	 H	7	CYS7	0.111	
99	  HG	1120.205	316.732	-1112.828	 H	7	CYS7	0.193	
100	   N	1121.519	319.247	-1110.423	N.am	8	ASP8	-0.516	
101	  CA	1121.448	320.596	-1110.978	C.3	8	ASP8	0.038	
102	   C	1122.794	321.276	-1110.922	C.2	8	ASP8	0.537	
103	   O	1123.267	321.880	-1111.897	O.2	8	ASP8	-0.582	
104	  CB	1120.370	321.435	-1110.236	C.3	8	ASP8	-0.030	
105	  CG	1120.151	322.855	-1110.778	C.2	8	ASP8	0.799	
106	 OD1	1120.214	323.053	-1112.009	O.co2	8	ASP8	-0.801	
107	 OD2	1119.958	323.782	-1109.963	O.co2	8	ASP8	-0.801	
108	   H	1120.922	318.976	-1109.655	 H	8	ASP8	0.294	
109	  HA	1121.164	320.517	-1112.045	 H	8	ASP8	0.088	
110	 2HB	1120.628	321.520	-1109.165	 H	8	ASP8	-0.012	
111	 3HB	1119.391	320.930	-1110.268	 H	8	ASP8	-0.012	
112	   N	1123.475	321.227	-1109.827	N.am	9	GLU9	-0.516	
113	  CA	1124.777	321.885	-1109.773	C.3	9	GLU9	0.040	
114	   C	1125.695	321.357	-1110.849	C.2	9	GLU9	0.537	
115	   O	1126.358	322.111	-1111.575	O.2	9	GLU9	-0.582	
116	  CB	1125.412	321.679	-1108.368	C.3	9	GLU9	0.056	
117	  CG	1126.794	322.372	-1108.140	C.3	9	GLU9	0.014	
118	  CD	1127.497	322.161	-1106.812	C.2	9	GLU9	0.805	
119	 OE1	1126.976	321.470	-1105.915	O.co2	9	GLU9	-0.819	
120	 OE2	1128.616	322.699	-1106.681	O.co2	9	GLU9	-0.819	
121	   H	1123.112	320.742	-1109.019	 H	9	GLU9	0.294	
122	  HA	1124.635	322.967	-1109.949	 H	9	GLU9	0.111	
123	 2HB	1125.525	320.595	-1108.163	 H	9	GLU9	-0.017	
124	 3HB	1124.715	322.033	-1107.584	 H	9	GLU9	-0.017	
125	 2HG	1126.722	323.463	-1108.281	 H	9	GLU9	-0.043	
126	 3HG	1127.540	322.027	-1108.874	 H	9	GLU9	-0.043	
127	   N	1125.792	320.082	-1111.017	N.am	10	HIS10	-0.416	
128	  CA	1126.679	319.569	-1112.058	C.3	10	HIS10	-0.058	
129	   C	1126.312	320.133	-1113.409	C.2	10	HIS10	0.597	
130	   O	1127.164	320.597	-1114.182	O.2	10	HIS10	-0.568	
131	  CB	1126.516	318.040	-1112.051	C.3	10	HIS10	-0.007	
132	  CG	1127.802	317.331	-1111.743	C.2	10	HIS10	0.187	
133	 CD2	1128.184	316.997	-1110.450	C.2	10	HIS10	-0.221	
134	 ND1	1128.754	316.925	-1112.676	N.2	10	HIS10	-0.543	
135	 CE1	1129.661	316.368	-1111.852	C.2	10	HIS10	0.163	
136	 NE2	1129.399	316.366	-1110.517	N.pl3	10	HIS10	-0.280	
137	   H	1125.261	319.447	-1110.438	 H	10	HIS10	0.272	
138	  HA	1127.698	319.927	-1111.833	 H	10	HIS10	0.136	
139	 2HB	1126.150	317.673	-1113.030	 H	10	HIS10	0.037	
140	 3HB	1125.761	317.704	-1111.311	 H	10	HIS10	0.037	
141	 2HD	1127.599	317.213	-1109.561	 H	10	HIS10	0.186	
142	 1HE	1130.552	315.947	-1112.299	 H	10	HIS10	0.144	
143	 2HE	1129.966	315.990	-1109.744	 H	10	HIS10	0.334	
144	   N	1125.073	320.131	-1113.771	N.am	11	VAL11	-0.416	
145	  CA	1124.718	320.675	-1115.079	C.3	11	VAL11	-0.087	
146	   C	1125.182	322.106	-1115.212	C.2	11	VAL11	0.597	
147	   O	1125.782	322.511	-1116.216	O.2	11	VAL11	-0.568	
148	  CB	1123.156	320.568	-1115.297	C.3	11	VAL11	0.299	
149	 CG1	1122.587	321.271	-1116.560	C.3	11	VAL11	-0.319	
150	 CG2	1122.632	319.114	-1115.369	C.3	11	VAL11	-0.319	
151	   H	1124.361	319.758	-1113.160	 H	11	VAL11	0.272	
152	  HA	1125.237	320.093	-1115.861	 H	11	VAL11	0.097	
153	  HB	1122.669	321.049	-1114.422	 H	11	VAL11	-0.030	
154	1HG1	1123.025	320.878	-1117.497	 H	11	VAL11	0.079	
155	2HG1	1121.488	321.163	-1116.642	 H	11	VAL11	0.079	
156	3HG1	1122.765	322.363	-1116.552	 H	11	VAL11	0.079	
157	1HG2	1122.923	318.527	-1114.478	 H	11	VAL11	0.079	
158	2HG2	1121.526	319.076	-1115.411	 H	11	VAL11	0.079	
159	3HG2	1123.014	318.572	-1116.255	 H	11	VAL11	0.079	
160	   N	1124.944	322.933	-1114.251	N.am	12	GLN12	-0.416	
161	  CA	1125.392	324.316	-1114.379	C.3	12	GLN12	-0.003	
162	   C	1126.882	324.384	-1114.618	C.2	12	GLN12	0.597	
163	   O	1127.368	325.091	-1115.497	O.2	12	GLN12	-0.568	
164	  CB	1125.002	325.084	-1113.097	C.3	12	GLN12	-0.004	
165	  CG	1125.361	326.606	-1113.067	C.3	12	GLN12	-0.064	
166	  CD	1125.059	327.420	-1111.802	C.2	12	GLN12	0.695	
167	 NE2	1124.493	326.844	-1110.773	N.pl3	12	GLN12	-0.941	
168	 OE1	1125.360	328.601	-1111.726	O.2	12	GLN12	-0.609	
169	   H	1124.456	322.627	-1113.421	 H	12	GLN12	0.272	
170	  HA	1124.892	324.771	-1115.254	 H	12	GLN12	0.085	
171	 2HB	1125.478	324.585	-1112.227	 H	12	GLN12	0.017	
172	 3HB	1123.912	324.976	-1112.933	 H	12	GLN12	0.017	
173	 2HG	1124.883	327.126	-1113.917	 H	12	GLN12	0.035	
174	 3HG	1126.444	326.748	-1113.233	 H	12	GLN12	0.035	
175	1HE2	1124.386	327.439	-1109.950	 H	12	GLN12	0.425	
176	2HE2	1124.330	325.840	-1110.875	 H	12	GLN12	0.425	
177	   N	1127.667	323.678	-1113.877	N.am	13	ARG13	-0.348	
178	  CA	1129.108	323.744	-1114.108	C.3	13	ARG13	-0.264	
179	   C	1129.443	323.372	-1115.533	C.2	13	ARG13	0.734	
180	   O	1130.211	324.043	-1116.218	O.2	13	ARG13	-0.589	
181	  CB	1129.822	322.807	-1113.094	C.3	13	ARG13	-0.001	
182	  CG	1131.367	322.961	-1113.014	C.3	13	ARG13	0.039	
183	  CD	1131.995	321.975	-1112.015	C.3	13	ARG13	0.049	
184	  NE	1133.472	322.183	-1111.966	N.pl3	13	ARG13	-0.530	
185	  CZ	1134.321	321.493	-1111.210	C.cat	13	ARG13	0.808	
186	 NH1	1133.957	320.529	-1110.412	N.pl3	13	ARG13	-0.863	
187	 NH2	1135.580	321.792	-1111.268	N.pl3	13	ARG13	-0.863	
188	   H	1127.292	323.089	-1113.147	 H	13	ARG13	0.275	
189	  HA	1129.431	324.791	-1113.951	 H	13	ARG13	0.156	
190	 2HB	1129.556	321.756	-1113.332	 H	13	ARG13	0.033	
191	 3HB	1129.397	322.974	-1112.083	 H	13	ARG13	0.033	
192	 2HG	1131.614	324.006	-1112.735	 H	13	ARG13	0.029	
193	 3HG	1131.817	322.804	-1114.015	 H	13	ARG13	0.029	
194	 2HD	1131.751	320.934	-1112.323	 H	13	ARG13	0.069	
195	 3HD	1131.539	322.121	-1111.013	 H	13	ARG13	0.069	
196	  HE	1133.923	322.905	-1112.537	 H	13	ARG13	0.346	
197	1HH1	1132.952	320.342	-1110.414	 H	13	ARG13	0.448	
198	2HH1	1134.671	320.047	-1109.863	 H	13	ARG13	0.448	
199	1HH2	1135.847	322.550	-1111.900	 H	13	ARG13	0.448	
200	2HH2	1136.216	321.252	-1110.679	 H	13	ARG13	0.448	
201	   N	1128.907	322.316	-1116.046	N.am	14	VAL14	-0.416	
202	  CA	1129.232	321.956	-1117.423	C.3	14	VAL14	-0.087	
203	   C	1128.901	323.085	-1118.370	C.2	14	VAL14	0.597	
204	   O	1129.693	323.466	-1119.240	O.2	14	VAL14	-0.568	
205	  CB	1128.460	320.638	-1117.829	C.3	14	VAL14	0.299	
206	 CG1	1128.549	320.219	-1119.322	C.3	14	VAL14	-0.319	
207	 CG2	1128.893	319.387	-1117.028	C.3	14	VAL14	-0.319	
208	   H	1128.273	321.748	-1115.503	 H	14	VAL14	0.272	
209	  HA	1130.320	321.780	-1117.499	 H	14	VAL14	0.097	
210	  HB	1127.384	320.809	-1117.612	 H	14	VAL14	-0.030	
211	1HG1	1129.590	320.042	-1119.651	 H	14	VAL14	0.079	
212	2HG1	1127.976	319.295	-1119.534	 H	14	VAL14	0.079	
213	3HG1	1128.119	320.980	-1120.001	 H	14	VAL14	0.079	
214	1HG2	1128.807	319.546	-1115.937	 H	14	VAL14	0.079	
215	2HG2	1128.258	318.510	-1117.259	 H	14	VAL14	0.079	
216	3HG2	1129.941	319.098	-1117.234	 H	14	VAL14	0.079	
217	   N	1127.755	323.670	-1118.268	N.am	15	MET15	-0.416	
218	  CA	1127.434	324.762	-1119.183	C.3	15	MET15	-0.024	
219	   C	1128.463	325.863	-1119.096	C.2	15	MET15	0.597	
220	   O	1128.965	326.373	-1120.110	O.2	15	MET15	-0.568	
221	  CB	1126.012	325.307	-1118.874	C.3	15	MET15	0.034	
222	  CG	1124.851	324.308	-1119.064	C.3	15	MET15	0.002	
223	  SD	1123.276	325.173	-1118.950	S.3	15	MET15	-0.274	
224	  CE	1122.196	323.742	-1118.812	C.3	15	MET15	-0.054	
225	   H	1127.091	323.378	-1117.566	 H	15	MET15	0.272	
226	  HA	1127.460	324.374	-1120.218	 H	15	MET15	0.088	
227	 2HB	1125.809	326.185	-1119.517	 H	15	MET15	0.024	
228	 3HB	1125.977	325.700	-1117.838	 H	15	MET15	0.024	
229	 2HG	1124.895	323.523	-1118.286	 H	15	MET15	0.044	
230	 3HG	1124.914	323.792	-1120.040	 H	15	MET15	0.044	
231	 1HE	1122.340	323.053	-1119.664	 H	15	MET15	0.068	
232	 2HE	1122.406	323.191	-1117.879	 H	15	MET15	0.068	
233	 3HE	1121.139	324.057	-1118.795	 H	15	MET15	0.068	
234	   N	1128.832	326.285	-1117.935	N.am	16	ARG16	-0.348	
235	  CA	1129.828	327.350	-1117.852	C.3	16	ARG16	-0.264	
236	   C	1131.099	326.957	-1118.569	C.2	16	ARG16	0.734	
237	   O	1131.213	325.880	-1119.150	O.2	16	ARG16	-0.589	
238	  CB	1130.097	327.669	-1116.354	C.3	16	ARG16	-0.001	
239	  CG	1130.922	328.959	-1116.083	C.3	16	ARG16	0.039	
240	  CD	1131.172	329.180	-1114.582	C.3	16	ARG16	0.049	
241	  NE	1131.947	330.440	-1114.383	N.pl3	16	ARG16	-0.530	
242	  CZ	1132.339	330.923	-1113.208	C.cat	16	ARG16	0.808	
243	 NH1	1132.092	330.340	-1112.069	N.pl3	16	ARG16	-0.863	
244	 NH2	1133.002	332.037	-1113.191	N.pl3	16	ARG16	-0.863	
245	   H	1128.438	325.885	-1117.095	 H	16	ARG16	0.275	
246	  HA	1129.418	328.242	-1118.363	 H	16	ARG16	0.156	
247	 2HB	1130.595	326.794	-1115.888	 H	16	ARG16	0.033	
248	 3HB	1129.129	327.750	-1115.820	 H	16	ARG16	0.033	
249	 2HG	1130.390	329.829	-1116.521	 H	16	ARG16	0.029	
250	 3HG	1131.895	328.906	-1116.613	 H	16	ARG16	0.029	
251	 2HD	1131.722	328.306	-1114.168	 H	16	ARG16	0.069	
252	 3HD	1130.199	329.222	-1114.046	 H	16	ARG16	0.069	
253	  HE	1132.225	331.020	-1115.181	 H	16	ARG16	0.346	
254	1HH1	1131.567	329.466	-1112.152	 H	16	ARG16	0.448	
255	2HH1	1132.427	330.776	-1111.208	 H	16	ARG16	0.448	
256	1HH2	1133.187	332.479	-1114.093	 H	16	ARG16	0.448	
257	2HH2	1133.292	332.393	-1112.279	 H	16	ARG16	0.448	
@<TRIPOS>BOND
1 1 2 1
2 1 10 1
3 2 3 1
4 2 5 1
5 2 11 1
6 3 4 2
7 3 16 1
8 5 6 1
9 6 7 1
10 7 8 2
11 7 9 1
12 5 12 1
13 5 13 1
14 6 14 1
15 6 15 1
16 16 17 1
17 16 24 1
18 17 18 1
19 17 20 1
20 17 25 1
21 18 19 2
22 18 30 1
23 20 21 1
24 21 22 1
25 21 23 2
26 20 26 1
27 20 27 1
28 22 28 1
29 22 29 1
30 30 31 1
31 30 36 1
32 31 32 1
33 31 34 1
34 31 37 1
35 32 33 2
36 32 44 1
37 34 35 1
38 35 36 1
39 34 38 1
40 34 39 1
41 35 40 1
42 35 41 1
43 36 42 1
44 36 43 1
45 44 45 1
46 44 53 1
47 45 46 1
48 45 48 1
49 45 54 1
50 46 47 2
51 46 59 1
52 48 49 1
53 49 50 1
54 50 51 2
55 50 52 1
56 48 55 1
57 48 56 1
58 49 57 1
59 49 58 1
60 59 60 1
61 59 65 1
62 60 61 1
63 60 63 1
64 60 66 1
65 61 62 2
66 61 70 1
67 63 64 1
68 63 67 1
69 63 68 1
70 64 69 1
71 70 71 1
72 70 78 1
73 71 72 1
74 71 74 1
75 71 79 1
76 72 73 2
77 72 89 1
78 74 75 1
79 74 76 1
80 75 77 1
81 74 80 1
82 75 81 1
83 75 82 1
84 76 83 1
85 76 84 1
86 76 85 1
87 77 86 1
88 77 87 1
89 77 88 1
90 89 90 1
91 89 95 1
92 90 91 1
93 90 93 1
94 90 96 1
95 91 92 2
96 91 100 1
97 93 94 1
98 93 97 1
99 93 98 1
100 94 99 1
101 100 101 1
102 100 108 1
103 101 102 1
104 101 104 1
105 101 109 1
106 102 103 2
107 102 112 1
108 104 105 1
109 105 106 2
110 105 107 1
111 104 110 1
112 104 111 1
113 112 113 1
114 112 121 1
115 113 114 1
116 113 116 1
117 113 122 1
118 114 115 2
119 114 127 1
120 116 117 1
121 117 118 1
122 118 119 2
123 118 120 1
124 116 123 1
125 116 124 1
126 117 125 1
127 117 126 1
128 127 128 1
129 127 137 1
130 128 129 1
131 128 131 1
132 128 138 1
133 129 130 2
134 129 144 1
135 131 132 1
136 132 133 2
137 133 136 1
138 132 134 1
139 134 135 2
140 135 136 1
141 131 139 1
142 131 140 1
143 133 141 1
144 135 142 1
145 136 143 1
146 144 145 1
147 144 151 1
148 145 146 1
149 145 148 1
150 145 152 1
151 146 147 2
152 146 160 1
153 148 149 1
154 148 150 1
155 148 153 1
156 149 154 1
157 149 155 1
158 149 156 1
159 150 157 1
160 150 158 1
161 150 159 1
162 160 161 1
163 160 169 1
164 161 162 1
165 161 164 1
166 161 170 1
167 162 163 2
168 162 177 1
169 164 165 1
170 165 166 1
171 166 167 1
172 166 168 2
173 164 171 1
174 164 172 1
175 165 173 1
176 165 174 1
177 167 175 1
178 167 176 1
179 177 178 1
180 177 188 1
181 178 179 1
182 178 181 1
183 178 189 1
184 179 180 2
185 179 201 1
186 181 182 1
187 182 183 1
188 183 184 1
189 184 185 1
190 185 186 2
191 185 187 1
192 181 190 1
193 181 191 1
194 182 192 1
195 182 193 1
196 183 194 1
197 183 195 1
198 184 196 1
199 186 197 1
200 186 198 1
201 187 199 1
202 187 200 1
203 201 202 1
204 201 208 1
205 202 203 1
206 202 205 1
207 202 209 1
208 203 204 2
209 203 217 1
210 205 206 1
211 205 207 1
212 205 210 1
213 206 211 1
214 206 212 1
215 206 213 1
216 207 214 1
217 207 215 1
218 207 216 1
219 217 218 1
220 217 225 1
221 218 219 1
222 218 221 1
223 218 226 1
224 219 220 2
225 219 234 1
226 221 222 1
227 222 223 1
228 223 224 1
229 221 227 1
230 221 228 1
231 222 229 1
232 222 230 1
233 224 231 1
234 224 232 1
235 224 233 1
236 234 235 1
237 234 245 1
238 235 236 1
239 235 238 1
240 235 246 1
241 236 237 2
242 238 239 1
243 239 240 1
244 240 241 1
245 241 242 1
246 242 243 2
247 242 244 1
248 238 247 1
249 238 248 1
250 239 249 1
251 239 250 1
252 240 251 1
253 240 252 1
254 241 253 1
255 243 254 1
256 243 255 1
257 244 256 1
258 244 257 1
@<TRIPOS>SUBSTRUCTURE
1	GLU1	1	RESIDUE	1 ****	GLU
2	ASN2	16	RESIDUE	1 ****	ASN
3	PRO3	30	RESIDUE	1 ****	PRO
4	GLU4	44	RESIDUE	1 ****	GLU
5	SER5	59	RESIDUE	1 ****	SER
6	ILE6	70	RESIDUE	1 ****	ILE
7	CYS7	89	RESIDUE	1 ****	CYS
8	ASP8	100	RESIDUE	1 ****	ASP
9	GLU9	112	RESIDUE	1 ****	GLU
10	HIS10	127	RESIDUE	1 ****	HIS
11	VAL11	144	RESIDUE	1 ****	VAL
12	GLN12	160	RESIDUE	1 ****	GLN
13	ARG13	177	RESIDUE	1 ****	ARG
14	VAL14	201	RESIDUE	1 ****	VAL
15	MET15	217	RESIDUE	1 ****	MET
16	ARG16	234	RESIDUE	1 ****	ARG
