@<TRIPOS>MOLECULE
7-13
257 258 16              
SMALL
USER_CHARGES
@<TRIPOS>ATOM
1	   N	1123.928	318.204	-1111.550	N.3	1	GLU1	-0.516	
2	  CA	1124.487	319.553	-1111.550	C.3	1	GLU1	0.040	
3	   C	1125.996	319.513	-1111.550	C.2	1	GLU1	0.537	
4	   O	1126.672	320.212	-1112.318	O.2	1	GLU1	-0.582	
5	  CB	1123.964	320.337	-1110.312	C.3	1	GLU1	0.056	
6	  CG	1124.439	321.823	-1110.202	C.3	1	GLU1	0.014	
7	  CD	1124.015	322.626	-1108.986	C.2	1	GLU1	0.805	
8	 OE1	1123.287	322.125	-1108.109	O.co2	1	GLU1	-0.819	
9	 OE2	1124.445	323.797	-1108.915	O.co2	1	GLU1	-0.819	
10	   H	1124.555	317.324	-1111.550	 H	1	GLU1	0.294	
11	  HA	1124.161	320.070	-1112.469	 H	1	GLU1	0.111	
12	 2HB	1124.253	319.807	-1109.383	 H	1	GLU1	-0.017	
13	 3HB	1122.857	320.328	-1110.300	 H	1	GLU1	-0.017	
14	 2HG	1124.129	322.408	-1111.083	 H	1	GLU1	-0.043	
15	 3HG	1125.539	321.889	-1110.172	 H	1	GLU1	-0.043	
16	   N	1126.600	318.727	-1110.724	N.am	2	ASN2	-0.416	
17	  CA	1128.060	318.688	-1110.724	C.3	2	ASN2	0.014	
18	   C	1128.591	318.333	-1112.093	C.2	2	ASN2	0.597	
19	   O	1129.505	318.963	-1112.622	O.2	2	ASN2	-0.568	
20	  CB	1128.552	317.665	-1109.660	C.3	2	ASN2	-0.204	
21	  CG	1128.089	317.889	-1108.217	C.2	2	ASN2	0.713	
22	 ND2	1128.683	318.804	-1107.499	N.pl3	2	ASN2	-0.919	
23	 OD1	1127.168	317.255	-1107.723	O.2	2	ASN2	-0.593	
24	   H	1126.072	318.147	-1110.088	 H	2	ASN2	0.272	
25	  HA	1128.437	319.698	-1110.479	 H	2	ASN2	0.105	
26	 2HB	1129.656	317.606	-1109.664	 H	2	ASN2	0.080	
27	 3HB	1128.223	316.647	-1109.946	 H	2	ASN2	0.080	
28	1HD2	1128.202	318.977	-1106.612	 H	2	ASN2	0.420	
29	2HD2	1129.385	319.376	-1107.968	 H	2	ASN2	0.420	
30	   N	1128.069	317.337	-1112.727	N.am	3	PRO3	-0.255	
31	  CA	1128.521	316.928	-1114.049	C.3	3	PRO3	-0.027	
32	   C	1128.123	317.952	-1115.126	C.2	3	PRO3	0.590	
33	   O	1128.946	318.335	-1115.957	O.2	3	PRO3	-0.575	
34	  CB	1127.817	315.573	-1114.218	C.3	3	PRO3	-0.007	
35	  CG	1126.534	315.726	-1113.388	C.3	3	PRO3	0.019	
36	  CD	1126.991	316.544	-1112.178	C.3	3	PRO3	0.019	
37	  HA	1129.607	316.808	-1114.062	 H	3	PRO3	0.064	
38	 2HB	1128.440	314.792	-1113.777	 H	3	PRO3	0.025	
39	 3HB	1127.619	315.325	-1115.263	 H	3	PRO3	0.025	
40	 2HG	1126.106	314.763	-1113.097	 H	3	PRO3	0.021	
41	 3HG	1125.796	316.296	-1113.955	 H	3	PRO3	0.021	
42	 2HD	1127.381	315.895	-1111.390	 H	3	PRO3	0.039	
43	 3HD	1126.195	317.180	-1111.785	 H	3	PRO3	0.039	
44	   N	1126.918	318.412	-1115.158	N.am	4	GLU4	-0.516	
45	  CA	1126.558	319.383	-1116.187	C.3	4	GLU4	0.040	
46	   C	1127.457	320.594	-1116.126	C.2	4	GLU4	0.537	
47	   O	1127.983	321.074	-1117.141	O.2	4	GLU4	-0.582	
48	  CB	1125.070	319.801	-1116.017	C.3	4	GLU4	0.056	
49	  CG	1124.521	320.805	-1117.082	C.3	4	GLU4	0.014	
50	  CD	1123.095	321.302	-1116.938	C.2	4	GLU4	0.805	
51	 OE1	1122.369	320.903	-1116.008	O.co2	4	GLU4	-0.819	
52	 OE2	1122.705	322.131	-1117.787	O.co2	4	GLU4	-0.819	
53	   H	1126.234	318.105	-1114.481	 H	4	GLU4	0.294	
54	  HA	1126.689	318.912	-1117.179	 H	4	GLU4	0.111	
55	 2HB	1124.917	320.241	-1115.010	 H	4	GLU4	-0.017	
56	 3HB	1124.422	318.903	-1116.023	 H	4	GLU4	-0.017	
57	 2HG	1124.603	320.390	-1118.100	 H	4	GLU4	-0.043	
58	 3HG	1125.109	321.737	-1117.094	 H	4	GLU4	-0.043	
59	   N	1127.685	321.147	-1114.983	N.am	5	SER5	-0.416	
60	  CA	1128.554	322.318	-1114.925	C.3	5	SER5	-0.025	
61	   C	1129.913	322.013	-1115.510	C.2	5	SER5	0.597	
62	   O	1130.460	322.766	-1116.315	O.2	5	SER5	-0.568	
63	  CB	1128.666	322.850	-1113.474	C.3	5	SER5	0.212	
64	  OG	1129.398	321.971	-1112.613	O.3	5	SER5	-0.655	
65	   H	1127.268	320.775	-1114.142	 H	5	SER5	0.272	
66	  HA	1128.105	323.108	-1115.554	 H	5	SER5	0.084	
67	 2HB	1127.666	323.044	-1113.041	 H	5	SER5	0.035	
68	 3HB	1129.171	323.836	-1113.476	 H	5	SER5	0.035	
69	  HG	1128.909	321.146	-1112.563	 H	5	SER5	0.428	
70	   N	1130.518	320.930	-1115.156	N.am	6	ILE6	-0.416	
71	  CA	1131.831	320.635	-1115.723	C.3	6	ILE6	-0.060	
72	   C	1131.773	320.597	-1117.231	C.2	6	ILE6	0.597	
73	   O	1132.608	321.185	-1117.935	O.2	6	ILE6	-0.568	
74	  CB	1132.431	319.299	-1115.123	C.3	6	ILE6	0.130	
75	 CG1	1132.450	319.236	-1113.562	C.3	6	ILE6	-0.043	
76	 CG2	1133.872	318.997	-1115.639	C.3	6	ILE6	-0.320	
77	 CD1	1132.720	317.847	-1112.947	C.3	6	ILE6	-0.066	
78	   H	1130.089	320.295	-1114.498	 H	6	ILE6	0.272	
79	  HA	1132.505	321.469	-1115.455	 H	6	ILE6	0.087	
80	  HB	1131.773	318.473	-1115.467	 H	6	ILE6	0.019	
81	2HG1	1131.468	319.556	-1113.166	 H	6	ILE6	0.024	
82	3HG1	1133.166	319.978	-1113.157	 H	6	ILE6	0.024	
83	1HG2	1133.931	318.904	-1116.737	 H	6	ILE6	0.088	
84	2HG2	1134.594	319.779	-1115.336	 H	6	ILE6	0.088	
85	3HG2	1134.262	318.035	-1115.260	 H	6	ILE6	0.088	
86	1HD1	1131.992	317.093	-1113.302	 H	6	ILE6	0.019	
87	2HD1	1133.731	317.468	-1113.183	 H	6	ILE6	0.019	
88	3HD1	1132.644	317.877	-1111.845	 H	6	ILE6	0.019	
89	   N	1130.828	319.934	-1117.804	N.am	7	SER7	-0.416	
90	  CA	1130.773	319.898	-1119.263	C.3	7	SER7	-0.025	
91	   C	1130.700	321.294	-1119.836	C.2	7	SER7	0.597	
92	   O	1131.416	321.653	-1120.770	O.2	7	SER7	-0.568	
93	  CB	1129.592	319.021	-1119.749	C.3	7	SER7	0.212	
94	  OG	1128.314	319.608	-1119.480	O.3	7	SER7	-0.655	
95	   H	1130.136	319.447	-1117.253	 H	7	SER7	0.272	
96	  HA	1131.715	319.451	-1119.629	 H	7	SER7	0.084	
97	 2HB	1129.635	318.009	-1119.303	 H	7	SER7	0.035	
98	 3HB	1129.676	318.855	-1120.841	 H	7	SER7	0.035	
99	  HG	1128.225	319.679	-1118.527	 H	7	SER7	0.428	
100	   N	1129.863	322.136	-1119.330	N.am	8	ASP8	-0.516	
101	  CA	1129.793	323.485	-1119.884	C.3	8	ASP8	0.038	
102	   C	1131.140	324.164	-1119.826	C.2	8	ASP8	0.537	
103	   O	1131.613	324.769	-1120.801	O.2	8	ASP8	-0.582	
104	  CB	1128.715	324.325	-1119.143	C.3	8	ASP8	-0.030	
105	  CG	1128.497	325.745	-1119.684	C.2	8	ASP8	0.799	
106	 OD1	1128.562	325.944	-1120.915	O.co2	8	ASP8	-0.801	
107	 OD2	1128.305	326.671	-1118.869	O.co2	8	ASP8	-0.801	
108	   H	1129.265	321.865	-1118.562	 H	8	ASP8	0.294	
109	  HA	1129.511	323.407	-1120.951	 H	8	ASP8	0.088	
110	 2HB	1128.972	324.408	-1118.071	 H	8	ASP8	-0.012	
111	 3HB	1127.736	323.820	-1119.176	 H	8	ASP8	-0.012	
112	   N	1131.820	324.115	-1118.731	N.am	9	GLU9	-0.516	
113	  CA	1133.123	324.772	-1118.676	C.3	9	GLU9	0.040	
114	   C	1134.041	324.244	-1119.751	C.2	9	GLU9	0.537	
115	   O	1134.705	324.998	-1120.476	O.2	9	GLU9	-0.582	
116	  CB	1133.756	324.565	-1117.270	C.3	9	GLU9	0.056	
117	  CG	1135.139	325.257	-1117.040	C.3	9	GLU9	0.014	
118	  CD	1135.840	325.044	-1115.712	C.2	9	GLU9	0.805	
119	 OE1	1135.318	324.353	-1114.816	O.co2	9	GLU9	-0.819	
120	 OE2	1136.959	325.581	-1115.580	O.co2	9	GLU9	-0.819	
121	   H	1131.456	323.629	-1117.924	 H	9	GLU9	0.294	
122	  HA	1132.981	325.854	-1118.851	 H	9	GLU9	0.111	
123	 2HB	1133.868	323.480	-1117.066	 H	9	GLU9	-0.017	
124	 3HB	1133.059	324.918	-1116.486	 H	9	GLU9	-0.017	
125	 2HG	1135.067	326.347	-1117.181	 H	9	GLU9	-0.043	
126	 3HG	1135.885	324.911	-1117.774	 H	9	GLU9	-0.043	
127	   N	1134.137	322.968	-1119.920	N.am	10	HIS10	-0.416	
128	  CA	1135.025	322.457	-1120.960	C.3	10	HIS10	-0.058	
129	   C	1134.659	323.021	-1122.312	C.2	10	HIS10	0.597	
130	   O	1135.512	323.485	-1123.083	O.2	10	HIS10	-0.568	
131	  CB	1134.861	320.928	-1120.955	C.3	10	HIS10	-0.007	
132	  CG	1136.146	320.217	-1120.646	C.2	10	HIS10	0.187	
133	 CD2	1136.527	319.883	-1119.353	C.2	10	HIS10	-0.221	
134	 ND1	1137.099	319.811	-1121.578	N.2	10	HIS10	-0.543	
135	 CE1	1138.005	319.253	-1120.755	C.2	10	HIS10	0.163	
136	 NE2	1137.742	319.251	-1119.419	N.pl3	10	HIS10	-0.280	
137	   H	1133.606	322.333	-1119.342	 H	10	HIS10	0.272	
138	  HA	1136.044	322.814	-1120.735	 H	10	HIS10	0.136	
139	 2HB	1134.496	320.561	-1121.935	 H	10	HIS10	0.037	
140	 3HB	1134.105	320.591	-1120.215	 H	10	HIS10	0.037	
141	 2HD	1135.941	320.098	-1118.464	 H	10	HIS10	0.186	
142	 1HE	1138.896	318.832	-1121.201	 H	10	HIS10	0.144	
143	 2HE	1138.308	318.874	-1118.646	 H	10	HIS10	0.334	
144	   N	1133.421	323.020	-1122.675	N.am	11	VAL11	-0.416	
145	  CA	1133.067	323.566	-1123.982	C.3	11	VAL11	-0.087	
146	   C	1133.532	324.997	-1124.115	C.2	11	VAL11	0.597	
147	   O	1134.133	325.402	-1125.117	O.2	11	VAL11	-0.568	
148	  CB	1131.506	323.460	-1124.202	C.3	11	VAL11	0.299	
149	 CG1	1130.938	324.164	-1125.465	C.3	11	VAL11	-0.319	
150	 CG2	1130.981	322.006	-1124.275	C.3	11	VAL11	-0.319	
151	   H	1132.708	322.648	-1122.065	 H	11	VAL11	0.272	
152	  HA	1133.587	322.984	-1124.764	 H	11	VAL11	0.097	
153	  HB	1131.018	323.941	-1123.327	 H	11	VAL11	-0.030	
154	1HG1	1131.377	323.772	-1126.402	 H	11	VAL11	0.079	
155	2HG1	1129.839	324.057	-1125.548	 H	11	VAL11	0.079	
156	3HG1	1131.116	325.256	-1125.456	 H	11	VAL11	0.079	
157	1HG2	1131.270	321.419	-1123.384	 H	11	VAL11	0.079	
158	2HG2	1129.875	321.970	-1124.318	 H	11	VAL11	0.079	
159	3HG2	1131.363	321.465	-1125.162	 H	11	VAL11	0.079	
160	   N	1133.295	325.823	-1123.152	N.am	12	GLN12	-0.416	
161	  CA	1133.743	327.206	-1123.279	C.3	12	GLN12	-0.003	
162	   C	1135.233	327.273	-1123.517	C.2	12	GLN12	0.597	
163	   O	1135.721	327.981	-1124.395	O.2	12	GLN12	-0.568	
164	  CB	1133.352	327.973	-1121.997	C.3	12	GLN12	-0.004	
165	  CG	1133.713	329.495	-1121.966	C.3	12	GLN12	-0.064	
166	  CD	1133.410	330.309	-1120.701	C.2	12	GLN12	0.695	
167	 NE2	1132.842	329.732	-1119.672	N.pl3	12	GLN12	-0.941	
168	 OE1	1133.712	331.490	-1120.624	O.2	12	GLN12	-0.609	
169	   H	1132.805	325.517	-1122.323	 H	12	GLN12	0.272	
170	  HA	1133.244	327.662	-1124.155	 H	12	GLN12	0.085	
171	 2HB	1133.828	327.473	-1121.127	 H	12	GLN12	0.017	
172	 3HB	1132.262	327.866	-1121.834	 H	12	GLN12	0.017	
173	 2HG	1133.236	330.016	-1122.817	 H	12	GLN12	0.035	
174	 3HG	1134.796	329.637	-1122.131	 H	12	GLN12	0.035	
175	1HE2	1132.735	330.327	-1118.849	 H	12	GLN12	0.425	
176	2HE2	1132.679	328.729	-1119.776	 H	12	GLN12	0.425	
177	   N	1136.017	326.566	-1122.775	N.am	13	ARG13	-0.348	
178	  CA	1137.458	326.631	-1123.005	C.3	13	ARG13	-0.264	
179	   C	1137.795	326.260	-1124.431	C.2	13	ARG13	0.734	
180	   O	1138.563	326.931	-1125.114	O.2	13	ARG13	-0.589	
181	  CB	1138.171	325.692	-1121.991	C.3	13	ARG13	-0.001	
182	  CG	1139.715	325.845	-1121.910	C.3	13	ARG13	0.039	
183	  CD	1140.342	324.857	-1120.912	C.3	13	ARG13	0.049	
184	  NE	1141.819	325.064	-1120.861	N.pl3	13	ARG13	-0.530	
185	  CZ	1142.667	324.372	-1120.105	C.cat	13	ARG13	0.808	
186	 NH1	1142.301	323.407	-1119.308	N.pl3	13	ARG13	-0.863	
187	 NH2	1143.926	324.670	-1120.162	N.pl3	13	ARG13	-0.863	
188	   H	1135.641	325.976	-1122.047	 H	13	ARG13	0.275	
189	  HA	1137.782	327.677	-1122.847	 H	13	ARG13	0.156	
190	 2HB	1137.904	324.642	-1122.231	 H	13	ARG13	0.033	
191	 3HB	1137.745	325.859	-1120.981	 H	13	ARG13	0.033	
192	 2HG	1139.964	326.889	-1121.630	 H	13	ARG13	0.029	
193	 3HG	1140.166	325.689	-1122.911	 H	13	ARG13	0.029	
194	 2HD	1140.097	323.817	-1121.221	 H	13	ARG13	0.069	
195	 3HD	1139.885	325.002	-1119.909	 H	13	ARG13	0.069	
196	  HE	1142.271	325.786	-1121.431	 H	13	ARG13	0.346	
197	1HH1	1141.296	323.222	-1119.312	 H	13	ARG13	0.448	
198	2HH1	1143.014	322.924	-1118.759	 H	13	ARG13	0.448	
199	1HH2	1144.194	325.428	-1120.792	 H	13	ARG13	0.448	
200	2HH2	1144.561	324.129	-1119.573	 H	13	ARG13	0.448	
201	   N	1137.259	325.206	-1124.945	N.am	14	VAL14	-0.416	
202	  CA	1137.584	324.846	-1126.323	C.3	14	VAL14	-0.087	
203	   C	1137.254	325.976	-1127.269	C.2	14	VAL14	0.597	
204	   O	1138.048	326.358	-1128.138	O.2	14	VAL14	-0.568	
205	  CB	1136.811	323.529	-1126.730	C.3	14	VAL14	0.299	
206	 CG1	1136.901	323.111	-1128.223	C.3	14	VAL14	-0.319	
207	 CG2	1137.243	322.277	-1125.930	C.3	14	VAL14	-0.319	
208	   H	1136.623	324.637	-1124.404	 H	14	VAL14	0.272	
209	  HA	1138.672	324.669	-1126.397	 H	14	VAL14	0.097	
210	  HB	1135.735	323.701	-1126.515	 H	14	VAL14	-0.030	
211	1HG1	1137.943	322.934	-1128.552	 H	14	VAL14	0.079	
212	2HG1	1136.328	322.188	-1128.437	 H	14	VAL14	0.079	
213	3HG1	1136.473	323.874	-1128.902	 H	14	VAL14	0.079	
214	1HG2	1137.155	322.435	-1124.839	 H	14	VAL14	0.079	
215	2HG2	1136.607	321.401	-1126.162	 H	14	VAL14	0.079	
216	3HG2	1138.291	321.987	-1126.135	 H	14	VAL14	0.079	
217	   N	1136.110	326.563	-1127.167	N.am	15	MET15	-0.416	
218	  CA	1135.790	327.655	-1128.081	C.3	15	MET15	-0.024	
219	   C	1136.820	328.755	-1127.993	C.2	15	MET15	0.597	
220	   O	1137.324	329.266	-1129.006	O.2	15	MET15	-0.568	
221	  CB	1134.369	328.201	-1127.773	C.3	15	MET15	0.034	
222	  CG	1133.206	327.203	-1127.965	C.3	15	MET15	0.002	
223	  SD	1131.633	328.070	-1127.851	S.3	15	MET15	-0.274	
224	  CE	1130.551	326.640	-1127.715	C.3	15	MET15	-0.054	
225	   H	1135.444	326.270	-1126.466	 H	15	MET15	0.272	
226	  HA	1135.816	327.268	-1129.117	 H	15	MET15	0.088	
227	 2HB	1134.167	329.080	-1128.415	 H	15	MET15	0.024	
228	 3HB	1134.333	328.594	-1126.736	 H	15	MET15	0.024	
229	 2HG	1133.249	326.418	-1127.187	 H	15	MET15	0.044	
230	 3HG	1133.270	326.688	-1128.941	 H	15	MET15	0.044	
231	 1HE	1130.695	325.952	-1128.567	 H	15	MET15	0.068	
232	 2HE	1130.760	326.088	-1126.782	 H	15	MET15	0.068	
233	 3HE	1129.494	326.956	-1127.699	 H	15	MET15	0.068	
234	   N	1137.188	329.176	-1126.831	N.am	16	ARG16	-0.348	
235	  CA	1138.185	330.240	-1126.747	C.3	16	ARG16	-0.264	
236	   C	1139.456	329.847	-1127.462	C.2	16	ARG16	0.734	
237	   O	1139.570	328.770	-1128.043	O.2	16	ARG16	-0.589	
238	  CB	1138.453	330.558	-1125.248	C.3	16	ARG16	-0.001	
239	  CG	1139.279	331.846	-1124.975	C.3	16	ARG16	0.039	
240	  CD	1139.528	332.066	-1123.474	C.3	16	ARG16	0.049	
241	  NE	1140.304	333.325	-1123.272	N.pl3	16	ARG16	-0.530	
242	  CZ	1140.695	333.807	-1122.096	C.cat	16	ARG16	0.808	
243	 NH1	1140.446	333.223	-1120.958	N.pl3	16	ARG16	-0.863	
244	 NH2	1141.359	334.919	-1122.077	N.pl3	16	ARG16	-0.863	
245	   H	1136.793	328.776	-1125.992	 H	16	ARG16	0.275	
246	  HA	1137.776	331.133	-1127.256	 H	16	ARG16	0.156	
247	 2HB	1138.950	329.682	-1124.781	 H	16	ARG16	0.033	
248	 3HB	1137.484	330.639	-1124.715	 H	16	ARG16	0.033	
249	 2HG	1138.749	332.717	-1125.412	 H	16	ARG16	0.029	
250	 3HG	1140.253	331.794	-1125.503	 H	16	ARG16	0.029	
251	 2HD	1140.076	331.191	-1123.060	 H	16	ARG16	0.069	
252	 3HD	1138.555	332.109	-1122.939	 H	16	ARG16	0.069	
253	  HE	1140.583	333.906	-1124.069	 H	16	ARG16	0.346	
254	1HH1	1139.921	332.350	-1121.043	 H	16	ARG16	0.448	
255	2HH1	1140.781	333.658	-1120.097	 H	16	ARG16	0.448	
256	1HH2	1141.545	335.363	-1122.979	 H	16	ARG16	0.448	
257	2HH2	1141.649	335.275	-1121.165	 H	16	ARG16	0.448	
@<TRIPOS>BOND
1 1 2 1
2 1 10 1
3 2 3 1
4 2 5 1
5 2 11 1
6 3 4 2
7 3 16 1
8 5 6 1
9 6 7 1
10 7 8 2
11 7 9 1
12 5 12 1
13 5 13 1
14 6 14 1
15 6 15 1
16 16 17 1
17 16 24 1
18 17 18 1
19 17 20 1
20 17 25 1
21 18 19 2
22 18 30 1
23 20 21 1
24 21 22 1
25 21 23 2
26 20 26 1
27 20 27 1
28 22 28 1
29 22 29 1
30 30 31 1
31 30 36 1
32 31 32 1
33 31 34 1
34 31 37 1
35 32 33 2
36 32 44 1
37 34 35 1
38 35 36 1
39 34 38 1
40 34 39 1
41 35 40 1
42 35 41 1
43 36 42 1
44 36 43 1
45 44 45 1
46 44 53 1
47 45 46 1
48 45 48 1
49 45 54 1
50 46 47 2
51 46 59 1
52 48 49 1
53 49 50 1
54 50 51 2
55 50 52 1
56 48 55 1
57 48 56 1
58 49 57 1
59 49 58 1
60 59 60 1
61 59 65 1
62 60 61 1
63 60 63 1
64 60 66 1
65 61 62 2
66 61 70 1
67 63 64 1
68 63 67 1
69 63 68 1
70 64 69 1
71 70 71 1
72 70 78 1
73 71 72 1
74 71 74 1
75 71 79 1
76 72 73 2
77 72 89 1
78 74 75 1
79 74 76 1
80 75 77 1
81 74 80 1
82 75 81 1
83 75 82 1
84 76 83 1
85 76 84 1
86 76 85 1
87 77 86 1
88 77 87 1
89 77 88 1
90 89 90 1
91 89 95 1
92 90 91 1
93 90 93 1
94 90 96 1
95 91 92 2
96 91 100 1
97 93 94 1
98 93 97 1
99 93 98 1
100 94 99 1
101 100 101 1
102 100 108 1
103 101 102 1
104 101 104 1
105 101 109 1
106 102 103 2
107 102 112 1
108 104 105 1
109 105 106 2
110 105 107 1
111 104 110 1
112 104 111 1
113 112 113 1
114 112 121 1
115 113 114 1
116 113 116 1
117 113 122 1
118 114 115 2
119 114 127 1
120 116 117 1
121 117 118 1
122 118 119 2
123 118 120 1
124 116 123 1
125 116 124 1
126 117 125 1
127 117 126 1
128 127 128 1
129 127 137 1
130 128 129 1
131 128 131 1
132 128 138 1
133 129 130 2
134 129 144 1
135 131 132 1
136 132 133 2
137 133 136 1
138 132 134 1
139 134 135 2
140 135 136 1
141 131 139 1
142 131 140 1
143 133 141 1
144 135 142 1
145 136 143 1
146 144 145 1
147 144 151 1
148 145 146 1
149 145 148 1
150 145 152 1
151 146 147 2
152 146 160 1
153 148 149 1
154 148 150 1
155 148 153 1
156 149 154 1
157 149 155 1
158 149 156 1
159 150 157 1
160 150 158 1
161 150 159 1
162 160 161 1
163 160 169 1
164 161 162 1
165 161 164 1
166 161 170 1
167 162 163 2
168 162 177 1
169 164 165 1
170 165 166 1
171 166 167 1
172 166 168 2
173 164 171 1
174 164 172 1
175 165 173 1
176 165 174 1
177 167 175 1
178 167 176 1
179 177 178 1
180 177 188 1
181 178 179 1
182 178 181 1
183 178 189 1
184 179 180 2
185 179 201 1
186 181 182 1
187 182 183 1
188 183 184 1
189 184 185 1
190 185 186 2
191 185 187 1
192 181 190 1
193 181 191 1
194 182 192 1
195 182 193 1
196 183 194 1
197 183 195 1
198 184 196 1
199 186 197 1
200 186 198 1
201 187 199 1
202 187 200 1
203 201 202 1
204 201 208 1
205 202 203 1
206 202 205 1
207 202 209 1
208 203 204 2
209 203 217 1
210 205 206 1
211 205 207 1
212 205 210 1
213 206 211 1
214 206 212 1
215 206 213 1
216 207 214 1
217 207 215 1
218 207 216 1
219 217 218 1
220 217 225 1
221 218 219 1
222 218 221 1
223 218 226 1
224 219 220 2
225 219 234 1
226 221 222 1
227 222 223 1
228 223 224 1
229 221 227 1
230 221 228 1
231 222 229 1
232 222 230 1
233 224 231 1
234 224 232 1
235 224 233 1
236 234 235 1
237 234 245 1
238 235 236 1
239 235 238 1
240 235 246 1
241 236 237 2
242 238 239 1
243 239 240 1
244 240 241 1
245 241 242 1
246 242 243 2
247 242 244 1
248 238 247 1
249 238 248 1
250 239 249 1
251 239 250 1
252 240 251 1
253 240 252 1
254 241 253 1
255 243 254 1
256 243 255 1
257 244 256 1
258 244 257 1
@<TRIPOS>SUBSTRUCTURE
1	GLU1	1	RESIDUE	1 ****	GLU
2	ASN2	16	RESIDUE	1 ****	ASN
3	PRO3	30	RESIDUE	1 ****	PRO
4	GLU4	44	RESIDUE	1 ****	GLU
5	SER5	59	RESIDUE	1 ****	SER
6	ILE6	70	RESIDUE	1 ****	ILE
7	SER7	89	RESIDUE	1 ****	SER
8	ASP8	100	RESIDUE	1 ****	ASP
9	GLU9	112	RESIDUE	1 ****	GLU
10	HIS10	127	RESIDUE	1 ****	HIS
11	VAL11	144	RESIDUE	1 ****	VAL
12	GLN12	160	RESIDUE	1 ****	GLN
13	ARG13	177	RESIDUE	1 ****	ARG
14	VAL14	201	RESIDUE	1 ****	VAL
15	MET15	217	RESIDUE	1 ****	MET
16	ARG16	234	RESIDUE	1 ****	ARG
