@<TRIPOS>MOLECULE
3-15
265 265 16              
SMALL
USER_CHARGES
@<TRIPOS>ATOM
1	   N	474.605	109.626	-427.764	N.3	1	GLU1	-0.516	
2	  CA	475.164	110.975	-427.764	C.3	1	GLU1	0.040	
3	   C	476.673	110.935	-427.764	C.2	1	GLU1	0.537	
4	   O	477.349	111.634	-428.533	O.2	1	GLU1	-0.582	
5	  CB	474.641	111.760	-426.527	C.3	1	GLU1	0.056	
6	  CG	475.116	113.245	-426.416	C.3	1	GLU1	0.014	
7	  CD	474.692	114.049	-425.201	C.2	1	GLU1	0.805	
8	 OE1	473.964	113.547	-424.323	O.co2	1	GLU1	-0.819	
9	 OE2	475.122	115.219	-425.129	O.co2	1	GLU1	-0.819	
10	   H	475.232	108.747	-427.764	 H	1	GLU1	0.294	
11	  HA	474.838	111.493	-428.684	 H	1	GLU1	0.111	
12	 2HB	474.930	111.229	-425.597	 H	1	GLU1	-0.017	
13	 3HB	473.534	111.750	-426.514	 H	1	GLU1	-0.017	
14	 2HG	474.806	113.830	-427.297	 H	1	GLU1	-0.043	
15	 3HG	476.216	113.312	-426.387	 H	1	GLU1	-0.043	
16	   N	477.277	110.149	-426.939	N.am	2	ASN2	-0.416	
17	  CA	478.737	110.111	-426.939	C.3	2	ASN2	0.014	
18	   C	479.268	109.755	-428.308	C.2	2	ASN2	0.597	
19	   O	480.183	110.386	-428.837	O.2	2	ASN2	-0.568	
20	  CB	479.229	109.088	-425.875	C.3	2	ASN2	-0.204	
21	  CG	478.766	109.312	-424.431	C.2	2	ASN2	0.713	
22	 ND2	479.360	110.227	-423.713	N.pl3	2	ASN2	-0.919	
23	 OD1	477.845	108.678	-423.937	O.2	2	ASN2	-0.593	
24	   H	476.749	109.570	-426.302	 H	2	ASN2	0.272	
25	  HA	479.114	111.121	-426.694	 H	2	ASN2	0.105	
26	 2HB	480.333	109.029	-425.878	 H	2	ASN2	0.080	
27	 3HB	478.900	108.070	-426.161	 H	2	ASN2	0.080	
28	1HD2	478.880	110.400	-422.827	 H	2	ASN2	0.420	
29	2HD2	480.062	110.798	-424.183	 H	2	ASN2	0.420	
30	   N	478.746	108.760	-428.942	N.am	3	ASN3	-0.416	
31	  CA	479.260	108.417	-430.265	C.3	3	ASN3	0.014	
32	   C	479.166	109.596	-431.204	C.2	3	ASN3	0.597	
33	   O	480.107	109.938	-431.918	O.2	3	ASN3	-0.568	
34	  CB	478.470	107.200	-430.828	C.3	3	ASN3	-0.204	
35	  CG	478.466	105.923	-429.980	C.2	3	ASN3	0.713	
36	 ND2	479.519	105.150	-430.000	N.pl3	3	ASN3	-0.919	
37	 OD1	477.520	105.616	-429.271	O.2	3	ASN3	-0.593	
38	   H	477.995	108.227	-428.529	 H	3	ASN3	0.272	
39	  HA	480.331	108.160	-430.169	 H	3	ASN3	0.105	
40	 2HB	478.831	106.942	-431.841	 H	3	ASN3	0.080	
41	 3HB	477.411	107.485	-430.980	 H	3	ASN3	0.080	
42	1HD2	479.476	104.414	-429.290	 H	3	ASN3	0.420	
43	2HD2	480.324	105.481	-430.531	 H	3	ASN3	0.420	
44	   N	478.064	110.265	-431.259	N.am	4	GLU4	-0.516	
45	  CA	477.972	111.405	-432.166	C.3	4	GLU4	0.040	
46	   C	479.052	112.419	-431.873	C.2	4	GLU4	0.537	
47	   O	479.746	112.918	-432.770	O.2	4	GLU4	-0.582	
48	  CB	476.566	112.060	-432.047	C.3	4	GLU4	0.056	
49	  CG	476.299	113.270	-433.000	C.3	4	GLU4	0.014	
50	  CD	474.969	113.993	-432.892	C.2	4	GLU4	0.805	
51	 OE1	474.100	113.618	-432.080	O.co2	4	GLU4	-0.819	
52	 OE2	474.807	114.977	-433.642	O.co2	4	GLU4	-0.819	
53	   H	477.277	110.004	-430.682	 H	4	GLU4	0.294	
54	  HA	478.117	111.046	-433.201	 H	4	GLU4	0.111	
55	 2HB	476.395	112.391	-431.003	 H	4	GLU4	-0.017	
56	 3HB	475.780	111.300	-432.225	 H	4	GLU4	-0.017	
57	 2HG	476.406	112.977	-434.057	 H	4	GLU4	-0.043	
58	 3HG	477.033	114.076	-432.839	 H	4	GLU4	-0.043	
59	   N	479.259	112.775	-430.650	N.am	5	SER5	-0.416	
60	  CA	480.304	113.755	-430.367	C.3	5	SER5	-0.025	
61	   C	481.641	113.286	-430.890	C.2	5	SER5	0.597	
62	   O	482.382	114.023	-431.540	O.2	5	SER5	-0.568	
63	  CB	480.364	114.074	-428.852	C.3	5	SER5	0.212	
64	  OG	480.852	112.978	-428.071	O.3	5	SER5	-0.655	
65	   H	478.707	112.382	-429.901	 H	5	SER5	0.272	
66	  HA	480.055	114.685	-430.911	 H	5	SER5	0.084	
67	 2HB	479.374	114.388	-428.469	 H	5	SER5	0.035	
68	 3HB	481.026	114.946	-428.681	 H	5	SER5	0.035	
69	  HG	480.229	112.254	-428.171	 H	5	SER5	0.428	
70	   N	482.019	112.077	-430.647	N.am	6	ILE6	-0.416	
71	  CA	483.312	111.624	-431.152	C.3	6	ILE6	-0.060	
72	   C	483.393	111.785	-432.651	C.2	6	ILE6	0.597	
73	   O	484.378	112.297	-433.204	O.2	6	ILE6	-0.568	
74	  CB	483.618	110.138	-430.702	C.3	6	ILE6	0.130	
75	 CG1	483.478	109.880	-429.168	C.3	6	ILE6	-0.043	
76	 CG2	485.031	109.649	-431.149	C.3	6	ILE6	-0.320	
77	 CD1	483.451	108.399	-428.734	C.3	6	ILE6	-0.066	
78	   H	481.429	111.452	-430.115	 H	6	ILE6	0.272	
79	  HA	484.088	112.284	-430.723	 H	6	ILE6	0.087	
80	  HB	482.867	109.492	-431.204	 H	6	ILE6	0.019	
81	2HG1	482.531	110.319	-428.803	 H	6	ILE6	0.024	
82	3HG1	484.267	110.425	-428.613	 H	6	ILE6	0.024	
83	1HG2	485.178	109.684	-432.243	 H	6	ILE6	0.088	
84	2HG2	485.842	110.246	-430.690	 H	6	ILE6	0.088	
85	3HG2	485.216	108.593	-430.881	 H	6	ILE6	0.088	
86	1HD1	482.644	107.838	-429.242	 H	6	ILE6	0.019	
87	2HD1	484.401	107.878	-428.947	 H	6	ILE6	0.019	
88	3HD1	483.276	108.305	-427.646	 H	6	ILE6	0.019	
89	   N	482.408	111.378	-433.378	N.am	7	LEU7	-0.416	
90	  CA	482.488	111.534	-434.828	C.3	7	LEU7	-0.052	
91	   C	482.705	112.980	-435.204	C.2	7	LEU7	0.597	
92	   O	483.563	113.322	-436.032	O.2	7	LEU7	-0.568	
93	  CB	481.208	110.970	-435.509	C.3	7	LEU7	-0.110	
94	  CG	480.844	109.481	-435.259	C.3	7	LEU7	0.353	
95	 CD1	479.621	109.088	-436.100	C.3	7	LEU7	-0.412	
96	 CD2	482.010	108.525	-435.562	C.3	7	LEU7	-0.412	
97	   H	481.595	110.958	-432.951	 H	7	LEU7	0.272	
98	  HA	483.373	110.983	-435.190	 H	7	LEU7	0.092	
99	 2HB	481.294	111.128	-436.602	 H	7	LEU7	0.046	
100	 3HB	480.342	111.591	-435.206	 H	7	LEU7	0.046	
101	  HG	480.571	109.368	-434.189	 H	7	LEU7	-0.036	
102	1HD1	478.747	109.729	-435.879	 H	7	LEU7	0.100	
103	2HD1	479.817	109.168	-437.186	 H	7	LEU7	0.100	
104	3HD1	479.308	108.047	-435.901	 H	7	LEU7	0.100	
105	1HD2	482.387	108.639	-436.594	 H	7	LEU7	0.100	
106	2HD2	482.862	108.703	-434.879	 H	7	LEU7	0.100	
107	3HD2	481.723	107.466	-435.423	 H	7	LEU7	0.100	
108	   N	481.977	113.888	-434.648	N.am	8	ASP8	-0.516	
109	  CA	482.187	115.286	-435.011	C.3	8	ASP8	0.038	
110	   C	483.617	115.701	-434.763	C.2	8	ASP8	0.537	
111	   O	484.276	116.328	-435.607	O.2	8	ASP8	-0.582	
112	  CB	481.200	116.206	-434.240	C.3	8	ASP8	-0.030	
113	  CG	481.275	117.699	-434.592	C.2	8	ASP8	0.799	
114	 OD1	481.489	118.034	-435.775	O.co2	8	ASP8	-0.801	
115	 OD2	481.164	118.535	-433.671	O.co2	8	ASP8	-0.801	
116	   H	481.272	113.635	-433.970	 H	8	ASP8	0.294	
117	  HA	481.998	115.393	-436.096	 H	8	ASP8	0.088	
118	 2HB	481.364	116.107	-433.151	 H	8	ASP8	-0.012	
119	 3HB	480.157	115.892	-434.413	 H	8	ASP8	-0.012	
120	   N	484.171	115.395	-433.639	N.am	9	GLU9	-0.516	
121	  CA	485.555	115.796	-433.399	C.3	9	GLU9	0.040	
122	   C	486.469	115.250	-434.468	C.2	9	GLU9	0.537	
123	   O	487.317	115.958	-435.032	O.2	9	GLU9	-0.582	
124	  CB	486.007	115.305	-431.994	C.3	9	GLU9	0.056	
125	  CG	487.458	115.704	-431.571	C.3	9	GLU9	0.014	
126	  CD	487.984	115.205	-430.238	C.2	9	GLU9	0.805	
127	 OE1	487.271	114.513	-429.487	O.co2	9	GLU9	-0.819	
128	 OE2	489.160	115.513	-429.953	O.co2	9	GLU9	-0.819	
129	   H	483.656	114.884	-432.936	 H	9	GLU9	0.294	
130	  HA	485.614	116.899	-433.432	 H	9	GLU9	0.111	
131	 2HB	485.917	114.201	-431.936	 H	9	GLU9	-0.017	
132	 3HB	485.308	115.677	-431.221	 H	9	GLU9	-0.017	
133	 2HG	487.584	116.799	-431.563	 H	9	GLU9	-0.043	
134	 3HG	488.203	115.325	-432.290	 H	9	GLU9	-0.043	
135	   N	486.366	114.010	-434.806	N.am	10	HIS10	-0.416	
136	  CA	487.251	113.481	-435.841	C.3	10	HIS10	-0.058	
137	   C	487.115	114.266	-437.123	C.2	10	HIS10	0.597	
138	   O	488.103	114.663	-437.759	O.2	10	HIS10	-0.568	
139	  CB	486.833	112.018	-436.061	C.3	10	HIS10	-0.007	
140	  CG	487.946	111.056	-435.762	C.2	10	HIS10	0.187	
141	 CD2	488.140	110.500	-434.505	C.2	10	HIS10	-0.221	
142	 ND1	488.901	110.606	-436.671	N.2	10	HIS10	-0.543	
143	 CE1	489.618	109.796	-435.870	C.2	10	HIS10	0.163	
144	 NE2	489.232	109.674	-434.571	N.pl3	10	HIS10	-0.280	
145	   H	485.684	113.413	-434.362	 H	10	HIS10	0.272	
146	  HA	488.289	113.619	-435.495	 H	10	HIS10	0.136	
147	 2HB	486.507	111.847	-437.106	 H	10	HIS10	0.037	
148	 3HB	485.964	111.732	-435.431	 H	10	HIS10	0.037	
149	 2HD	487.516	110.704	-433.639	 H	10	HIS10	0.186	
150	 1HE	490.464	109.281	-436.306	 H	10	HIS10	0.144	
151	 2HE	489.651	109.108	-433.819	 H	10	HIS10	0.334	
152	   N	485.935	114.532	-437.571	N.am	11	VAL11	-0.416	
153	  CA	485.803	115.291	-438.812	C.3	11	VAL11	-0.087	
154	   C	486.511	116.620	-438.710	C.2	11	VAL11	0.597	
155	   O	487.265	117.033	-439.601	O.2	11	VAL11	-0.568	
156	  CB	484.274	115.494	-439.156	C.3	11	VAL11	0.299	
157	 CG1	483.955	116.440	-440.346	C.3	11	VAL11	-0.319	
158	 CG2	483.522	114.178	-439.469	C.3	11	VAL11	-0.319	
159	   H	485.114	114.220	-437.072	 H	11	VAL11	0.272	
160	  HA	486.289	114.727	-439.628	 H	11	VAL11	0.097	
161	  HB	483.793	115.941	-438.260	 H	11	VAL11	-0.030	
162	1HG1	484.409	116.095	-441.294	 H	11	VAL11	0.079	
163	2HG1	482.866	116.542	-440.521	 H	11	VAL11	0.079	
164	3HG1	484.312	117.473	-440.172	 H	11	VAL11	0.079	
165	1HG2	483.623	113.442	-438.650	 H	11	VAL11	0.079	
166	2HG2	482.435	114.345	-439.596	 H	11	VAL11	0.079	
167	3HG2	483.890	113.692	-440.392	 H	11	VAL11	0.079	
168	   N	486.325	117.349	-437.661	N.am	12	GLN12	-0.416	
169	  CA	487.010	118.634	-437.562	C.3	12	GLN12	-0.003	
170	   C	488.505	118.463	-437.680	C.2	12	GLN12	0.597	
171	   O	489.186	119.176	-438.414	O.2	12	GLN12	-0.568	
172	  CB	486.632	119.294	-436.217	C.3	12	GLN12	-0.004	
173	  CG	487.238	120.710	-435.948	C.3	12	GLN12	-0.064	
174	  CD	486.957	121.401	-434.608	C.2	12	GLN12	0.695	
175	 NE2	486.206	120.812	-433.713	N.pl3	12	GLN12	-0.941	
176	 OE1	487.445	122.490	-434.345	O.2	12	GLN12	-0.609	
177	   H	485.715	117.035	-436.921	 H	12	GLN12	0.272	
178	  HA	486.680	119.278	-438.399	 H	12	GLN12	0.085	
179	 2HB	486.933	118.612	-435.393	 H	12	GLN12	0.017	
180	 3HB	485.529	119.364	-436.149	 H	12	GLN12	0.017	
181	 2HG	486.938	121.410	-436.750	 H	12	GLN12	0.035	
182	 3HG	488.341	120.676	-436.014	 H	12	GLN12	0.035	
183	1HE2	486.122	121.309	-432.824	 H	12	GLN12	0.425	
184	2HE2	485.887	119.875	-433.966	 H	12	GLN12	0.425	
185	   N	489.086	117.540	-436.990	N.am	13	ARG13	-0.348	
186	  CA	490.532	117.375	-437.105	C.3	13	ARG13	-0.264	
187	   C	490.936	117.130	-438.540	C.2	13	ARG13	0.734	
188	   O	491.868	117.733	-439.066	O.2	13	ARG13	-0.589	
189	  CB	490.978	116.205	-436.183	C.3	13	ARG13	-0.001	
190	  CG	492.511	116.068	-435.970	C.3	13	ARG13	0.039	
191	  CD	492.866	114.867	-435.076	C.3	13	ARG13	0.049	
192	  NE	494.345	114.799	-434.891	N.pl3	13	ARG13	-0.530	
193	  CZ	494.989	113.878	-434.180	C.cat	13	ARG13	0.808	
194	 NH1	494.393	112.903	-433.553	N.pl3	13	ARG13	-0.863	
195	 NH2	496.280	113.951	-434.104	N.pl3	13	ARG13	-0.863	
196	   H	488.548	116.941	-436.380	 H	13	ARG13	0.275	
197	  HA	491.011	118.318	-436.779	 H	13	ARG13	0.156	
198	 2HB	490.563	115.257	-436.584	 H	13	ARG13	0.033	
199	 3HB	490.492	116.318	-435.192	 H	13	ARG13	0.033	
200	 2HG	492.904	117.008	-435.530	 H	13	ARG13	0.029	
201	 3HG	493.023	115.959	-436.948	 H	13	ARG13	0.029	
202	 2HD	492.481	113.934	-435.544	 H	13	ARG13	0.069	
203	 3HD	492.346	114.966	-434.099	 H	13	ARG13	0.069	
204	  HE	494.963	115.493	-435.322	 H	13	ARG13	0.346	
205	1HH1	493.375	112.901	-433.655	 H	13	ARG13	0.448	
206	2HH1	494.959	112.235	-433.027	 H	13	ARG13	0.448	
207	1HH2	496.730	114.721	-434.602	 H	13	ARG13	0.448	
208	2HH2	496.756	113.235	-433.552	 H	13	ARG13	0.448	
209	   N	490.282	116.261	-439.233	N.am	14	VAL14	-0.416	
210	  CA	490.672	116.023	-440.620	C.3	14	VAL14	-0.087	
211	   C	490.628	117.303	-441.421	C.2	14	VAL14	0.597	
212	   O	491.553	117.642	-442.169	O.2	14	VAL14	-0.568	
213	  CB	489.731	114.927	-441.261	C.3	14	VAL14	0.299	
214	 CG1	489.891	114.689	-442.788	C.3	14	VAL14	-0.319	
215	 CG2	489.869	113.528	-440.614	C.3	14	VAL14	-0.319	
216	   H	489.512	115.752	-438.823	 H	14	VAL14	0.272	
217	  HA	491.717	115.665	-440.640	 H	14	VAL14	0.097	
218	  HB	488.684	115.260	-441.102	 H	14	VAL14	-0.030	
219	1HG1	490.915	114.371	-443.062	 H	14	VAL14	0.079	
220	2HG1	489.194	113.917	-443.168	 H	14	VAL14	0.079	
221	3HG1	489.663	115.594	-443.383	 H	14	VAL14	0.079	
222	1HG2	489.706	113.563	-439.521	 H	14	VAL14	0.079	
223	2HG2	489.120	112.816	-441.011	 H	14	VAL14	0.079	
224	3HG2	490.868	113.083	-440.782	 H	14	VAL14	0.079	
225	   N	489.593	118.067	-441.321	N.am	15	MET15	-0.416	
226	  CA	489.549	119.305	-442.094	C.3	15	MET15	-0.024	
227	   C	490.736	120.183	-441.780	C.2	15	MET15	0.597	
228	   O	491.412	120.717	-442.673	O.2	15	MET15	-0.568	
229	  CB	488.217	120.053	-441.816	C.3	15	MET15	0.034	
230	  CG	486.927	119.311	-442.228	C.3	15	MET15	0.002	
231	  SD	485.518	120.424	-442.109	S.3	15	MET15	-0.274	
232	  CE	484.204	119.205	-442.251	C.3	15	MET15	-0.054	
233	   H	488.825	117.813	-440.717	 H	15	MET15	0.272	
234	  HA	489.608	119.051	-443.169	 H	15	MET15	0.088	
235	 2HB	488.227	121.027	-442.342	 H	15	MET15	0.024	
236	 3HB	488.149	120.314	-440.740	 H	15	MET15	0.024	
237	 2HG	486.763	118.440	-441.567	 H	15	MET15	0.044	
238	 3HG	486.996	118.919	-443.260	 H	15	MET15	0.044	
239	 1HE	484.311	118.614	-443.178	 H	15	MET15	0.068	
240	 2HE	484.227	118.512	-441.391	 H	15	MET15	0.068	
241	 3HE	483.217	119.700	-442.267	 H	15	MET15	0.068	
242	   N	491.058	120.383	-440.547	N.am	16	ARG16	-0.348	
243	  CA	492.206	121.232	-440.244	C.3	16	ARG16	-0.264	
244	   C	493.455	120.711	-440.915	C.2	16	ARG16	0.734	
245	   O	493.442	119.712	-441.630	O.2	16	ARG16	-0.589	
246	  CB	492.381	121.308	-438.701	C.3	16	ARG16	-0.001	
247	  CG	493.381	122.384	-438.192	C.3	16	ARG16	0.039	
248	  CD	493.519	122.366	-436.661	C.3	16	ARG16	0.049	
249	  NE	494.473	123.431	-436.231	N.pl3	16	ARG16	-0.530	
250	  CZ	494.826	123.685	-434.975	C.cat	16	ARG16	0.808	
251	 NH1	494.376	123.018	-433.949	N.pl3	16	ARG16	-0.863	
252	 NH2	495.662	124.650	-434.754	N.pl3	16	ARG16	-0.863	
253	   H	490.523	119.959	-439.802	 H	16	ARG16	0.275	
254	  HA	492.003	122.240	-440.653	 H	16	ARG16	0.156	
255	 2HB	492.677	120.306	-438.326	 H	16	ARG16	0.033	
256	 3HB	491.393	121.494	-438.232	 H	16	ARG16	0.033	
257	 2HG	493.048	123.383	-438.541	 H	16	ARG16	0.029	
258	 3HG	494.378	122.224	-438.652	 H	16	ARG16	0.029	
259	 2HD	493.871	121.363	-436.335	 H	16	ARG16	0.069	
260	 3HD	492.521	122.516	-436.197	 H	16	ARG16	0.069	
261	  HE	494.920	124.047	-436.917	 H	16	ARG16	0.346	
262	1HH1	493.722	122.270	-434.193	 H	16	ARG16	0.448	
263	2HH1	494.695	123.276	-433.014	 H	16	ARG16	0.448	
264	1HH2	496.005	125.161	-435.569	 H	16	ARG16	0.448	
265	2HH2	495.919	124.831	-433.782	 H	16	ARG16	0.448	
@<TRIPOS>BOND
1 1 2 1
2 1 10 1
3 2 3 1
4 2 5 1
5 2 11 1
6 3 4 2
7 3 16 1
8 5 6 1
9 6 7 1
10 7 8 2
11 7 9 1
12 5 12 1
13 5 13 1
14 6 14 1
15 6 15 1
16 16 17 1
17 16 24 1
18 17 18 1
19 17 20 1
20 17 25 1
21 18 19 2
22 18 30 1
23 20 21 1
24 21 22 1
25 21 23 2
26 20 26 1
27 20 27 1
28 22 28 1
29 22 29 1
30 30 31 1
31 30 38 1
32 31 32 1
33 31 34 1
34 31 39 1
35 32 33 2
36 32 44 1
37 34 35 1
38 35 36 1
39 35 37 2
40 34 40 1
41 34 41 1
42 36 42 1
43 36 43 1
44 44 45 1
45 44 53 1
46 45 46 1
47 45 48 1
48 45 54 1
49 46 47 2
50 46 59 1
51 48 49 1
52 49 50 1
53 50 51 2
54 50 52 1
55 48 55 1
56 48 56 1
57 49 57 1
58 49 58 1
59 59 60 1
60 59 65 1
61 60 61 1
62 60 63 1
63 60 66 1
64 61 62 2
65 61 70 1
66 63 64 1
67 63 67 1
68 63 68 1
69 64 69 1
70 70 71 1
71 70 78 1
72 71 72 1
73 71 74 1
74 71 79 1
75 72 73 2
76 72 89 1
77 74 75 1
78 74 76 1
79 75 77 1
80 74 80 1
81 75 81 1
82 75 82 1
83 76 83 1
84 76 84 1
85 76 85 1
86 77 86 1
87 77 87 1
88 77 88 1
89 89 90 1
90 89 97 1
91 90 91 1
92 90 93 1
93 90 98 1
94 91 92 2
95 91 108 1
96 93 94 1
97 94 95 1
98 94 96 1
99 93 99 1
100 93 100 1
101 94 101 1
102 95 102 1
103 95 103 1
104 95 104 1
105 96 105 1
106 96 106 1
107 96 107 1
108 108 109 1
109 108 116 1
110 109 110 1
111 109 112 1
112 109 117 1
113 110 111 2
114 110 120 1
115 112 113 1
116 113 114 2
117 113 115 1
118 112 118 1
119 112 119 1
120 120 121 1
121 120 129 1
122 121 122 1
123 121 124 1
124 121 130 1
125 122 123 2
126 122 135 1
127 124 125 1
128 125 126 1
129 126 127 2
130 126 128 1
131 124 131 1
132 124 132 1
133 125 133 1
134 125 134 1
135 135 136 1
136 135 145 1
137 136 137 1
138 136 139 1
139 136 146 1
140 137 138 2
141 137 152 1
142 139 140 1
143 140 141 2
144 141 144 1
145 140 142 1
146 142 143 2
147 143 144 1
148 139 147 1
149 139 148 1
150 141 149 1
151 143 150 1
152 144 151 1
153 152 153 1
154 152 159 1
155 153 154 1
156 153 156 1
157 153 160 1
158 154 155 2
159 154 168 1
160 156 157 1
161 156 158 1
162 156 161 1
163 157 162 1
164 157 163 1
165 157 164 1
166 158 165 1
167 158 166 1
168 158 167 1
169 168 169 1
170 168 177 1
171 169 170 1
172 169 172 1
173 169 178 1
174 170 171 2
175 170 185 1
176 172 173 1
177 173 174 1
178 174 175 1
179 174 176 2
180 172 179 1
181 172 180 1
182 173 181 1
183 173 182 1
184 175 183 1
185 175 184 1
186 185 186 1
187 185 196 1
188 186 187 1
189 186 189 1
190 186 197 1
191 187 188 2
192 187 209 1
193 189 190 1
194 190 191 1
195 191 192 1
196 192 193 1
197 193 194 2
198 193 195 1
199 189 198 1
200 189 199 1
201 190 200 1
202 190 201 1
203 191 202 1
204 191 203 1
205 192 204 1
206 194 205 1
207 194 206 1
208 195 207 1
209 195 208 1
210 209 210 1
211 209 216 1
212 210 211 1
213 210 213 1
214 210 217 1
215 211 212 2
216 211 225 1
217 213 214 1
218 213 215 1
219 213 218 1
220 214 219 1
221 214 220 1
222 214 221 1
223 215 222 1
224 215 223 1
225 215 224 1
226 225 226 1
227 225 233 1
228 226 227 1
229 226 229 1
230 226 234 1
231 227 228 2
232 227 242 1
233 229 230 1
234 230 231 1
235 231 232 1
236 229 235 1
237 229 236 1
238 230 237 1
239 230 238 1
240 232 239 1
241 232 240 1
242 232 241 1
243 242 243 1
244 242 253 1
245 243 244 1
246 243 246 1
247 243 254 1
248 244 245 2
249 246 247 1
250 247 248 1
251 248 249 1
252 249 250 1
253 250 251 2
254 250 252 1
255 246 255 1
256 246 256 1
257 247 257 1
258 247 258 1
259 248 259 1
260 248 260 1
261 249 261 1
262 251 262 1
263 251 263 1
264 252 264 1
265 252 265 1
@<TRIPOS>SUBSTRUCTURE
1	GLU1	1	RESIDUE	1 ****	GLU
2	ASN2	16	RESIDUE	1 ****	ASN
3	ASN3	30	RESIDUE	1 ****	ASN
4	GLU4	44	RESIDUE	1 ****	GLU
5	SER5	59	RESIDUE	1 ****	SER
6	ILE6	70	RESIDUE	1 ****	ILE
7	LEU7	89	RESIDUE	1 ****	LEU
8	ASP8	108	RESIDUE	1 ****	ASP
9	GLU9	120	RESIDUE	1 ****	GLU
10	HIS10	135	RESIDUE	1 ****	HIS
11	VAL11	152	RESIDUE	1 ****	VAL
12	GLN12	168	RESIDUE	1 ****	GLN
13	ARG13	185	RESIDUE	1 ****	ARG
14	VAL14	209	RESIDUE	1 ****	VAL
15	MET15	225	RESIDUE	1 ****	MET
16	ARG16	242	RESIDUE	1 ****	ARG
