REMARK WARNING: 32 MAX_TORS EXCEEDED!!!
REMARK  64 active torsions:
REMARK  status: ('A' for Active; 'I' for Inactive)
REMARK    1  A    between atoms: N_1  and  CA_2 
REMARK    2  A    between atoms: CA_2  and  C_3 
REMARK    3  A    between atoms: CA_2  and  CB_5 
REMARK       I    between atoms: C_3  and  N_11 
REMARK    4  A    between atoms: CB_5  and  CG_6 
REMARK    5  A    between atoms: CG_6  and  CD_7 
REMARK    6  A    between atoms: N_11  and  CA_12 
REMARK    7  A    between atoms: CA_12  and  C_13 
REMARK    8  A    between atoms: CA_12  and  CB_15 
REMARK       I    between atoms: C_13  and  N_22 
REMARK    9  A    between atoms: CB_15  and  CG_16 
REMARK       I    between atoms: CG_16  and  ND2_17 
REMARK   10  A    between atoms: CA_23  and  C_24 
REMARK       I    between atoms: C_24  and  N_29 
REMARK   11  A    between atoms: N_29  and  CA_30 
REMARK   12  A    between atoms: CA_30  and  C_31 
REMARK   13  A    between atoms: CA_30  and  CB_33 
REMARK       I    between atoms: C_31  and  N_39 
REMARK   14  A    between atoms: CB_33  and  CG_34 
REMARK   15  A    between atoms: CG_34  and  CD_35 
REMARK   16  A    between atoms: N_39  and  CA_40 
REMARK   17  A    between atoms: CA_40  and  C_41 
REMARK   18  A    between atoms: CA_40  and  CB_43 
REMARK       I    between atoms: C_41  and  N_47 
REMARK   19  A    between atoms: CB_43  and  OG_44 
REMARK   20  A    between atoms: N_47  and  CA_48 
REMARK   21  A    between atoms: CA_48  and  C_49 
REMARK   22  A    between atoms: CA_48  and  CB_51 
REMARK       I    between atoms: C_49  and  N_56 
REMARK   23  A    between atoms: CB_51  and  CG1_52 
REMARK   24  A    between atoms: N_56  and  CA_57 
REMARK   25  A    between atoms: CA_57  and  C_58 
REMARK   26  A    between atoms: CA_57  and  CB_60 
REMARK       I    between atoms: C_58  and  N_65 
REMARK   27  A    between atoms: CB_60  and  CG_61 
REMARK   28  A    between atoms: N_65  and  CA_66 
REMARK   29  A    between atoms: CA_66  and  C_67 
REMARK   30  A    between atoms: CA_66  and  CB_69 
REMARK       I    between atoms: C_67  and  N_74 
REMARK   31  A    between atoms: CB_69  and  CG_70 
REMARK   32  A    between atoms: N_74  and  CA_75 
REMARK   33  A    between atoms: CA_75  and  C_76 
REMARK   34  A    between atoms: CA_75  and  CB_78 
REMARK       I    between atoms: C_76  and  N_84 
REMARK   35  A    between atoms: CB_78  and  CG_79 
REMARK   36  A    between atoms: CG_79  and  CD_80 
REMARK   37  A    between atoms: N_84  and  CA_85 
REMARK   38  A    between atoms: CA_85  and  C_86 
REMARK   39  A    between atoms: CA_85  and  CB_88 
REMARK       I    between atoms: C_86  and  N_96 
REMARK   40  A    between atoms: CB_88  and  CG_89 
REMARK   41  A    between atoms: N_96  and  CA_97 
REMARK   42  A    between atoms: CA_97  and  C_98 
REMARK   43  A    between atoms: CA_97  and  CB_100 
REMARK       I    between atoms: C_98  and  N_104 
REMARK   44  A    between atoms: N_104  and  CA_105 
REMARK   45  A    between atoms: CA_105  and  C_106 
REMARK   46  A    between atoms: CA_105  and  CB_108 
REMARK       I    between atoms: C_106  and  N_116 
REMARK   47  A    between atoms: CB_108  and  CG_109 
REMARK   48  A    between atoms: CG_109  and  CD_110 
REMARK       I    between atoms: CD_110  and  NE2_111 
REMARK   49  A    between atoms: N_116  and  CA_117 
REMARK   50  A    between atoms: CA_117  and  C_118 
REMARK   51  A    between atoms: CA_117  and  CB_120 
REMARK       I    between atoms: C_118  and  N_133 
REMARK   52  A    between atoms: CB_120  and  CG_121 
REMARK   53  A    between atoms: CG_121  and  CD_122 
REMARK   54  A    between atoms: CD_122  and  NE_123 
REMARK       I    between atoms: NE_123  and  CZ_124 
REMARK       I    between atoms: CZ_124  and  NH1_125 
REMARK       I    between atoms: CZ_124  and  NH2_126 
REMARK   55  A    between atoms: N_133  and  CA_134 
REMARK   56  A    between atoms: CA_134  and  C_135 
REMARK   57  A    between atoms: CA_134  and  CB_137 
REMARK       I    between atoms: C_135  and  N_141 
REMARK   58  A    between atoms: CA_142  and  C_143 
REMARK       I    between atoms: C_143  and  N_148 
REMARK   59  A    between atoms: N_148  and  CA_149 
REMARK   60  A    between atoms: CA_149  and  C_150 
REMARK   61  A    between atoms: CA_149  and  CB_152 
REMARK   62  A    between atoms: CB_152  and  CG_153 
REMARK   63  A    between atoms: CG_153  and  CD_154 
REMARK   64  A    between atoms: CD_154  and  NE_155 
REMARK       I    between atoms: NE_155  and  CZ_156 
REMARK       I    between atoms: CZ_156  and  NH1_157 
ROOT
ATOM      1  C   GLU d   9    2351.518 722.324-2443.817  0.00  0.00     0.241 C 
ATOM      2  O   GLU d   9    2352.182 723.078-2444.543  0.00  0.00    -0.271 OA
ATOM      3  N   HIS d  10    2351.614 721.049-2443.986  0.00  0.00    -0.346 N 
ATOM      4  H   HIS d  10    2351.083 720.414-2443.407  0.00  0.00     0.163 HD
ENDROOT
BRANCH   1   5
ATOM      5  CA  GLU d   9    2350.601 722.853-2442.741  0.00  0.00     0.177 C 
BRANCH   5   6
ATOM      6  N   GLU d   9    2349.298 722.196-2442.796  0.00  0.00    -0.346 N 
ATOM      7  C   ASP d   8    2348.618 722.246-2443.891  0.00  0.00     0.241 C 
ATOM      8  O   ASP d   8    2349.091 722.850-2444.866  0.00  0.00    -0.271 OA
ATOM      9  H   GLU d   9    2348.934 721.710-2441.989  0.00  0.00     0.163 HD
BRANCH   7  10
ATOM     10  CA  ASP d   8    2347.271 721.566-2443.948  0.00  0.00     0.186 C 
BRANCH  10  11
ATOM     11  N   ASP d   8    2347.340 720.217-2443.394  0.00  0.00    -0.346 N 
ATOM     12  C   LEU d   7    2348.177 719.376-2443.900  0.00  0.00     0.241 C 
ATOM     13  O   LEU d   7    2348.898 719.738-2444.842  0.00  0.00    -0.271 OA
ATOM     14  H   ASP d   8    2346.742 719.947-2442.626  0.00  0.00     0.163 HD
BRANCH  12  15
ATOM     15  CA  LEU d   7    2348.249 717.981-2443.327  0.00  0.00     0.177 C 
BRANCH  15  16
ATOM     16  N   LEU d   7    2348.304 718.017-2441.868  0.00  0.00    -0.346 N 
ATOM     17  C   ILE d   6    2349.250 718.680-2441.295  0.00  0.00     0.241 C 
ATOM     18  O   ILE d   6    2350.085 719.267-2441.999  0.00  0.00    -0.271 OA
ATOM     19  H   LEU d   7    2347.612 717.530-2441.317  0.00  0.00     0.163 HD
BRANCH  17  20
ATOM     20  CA  ILE d   6    2349.307 718.718-2439.787  0.00  0.00     0.180 C 
BRANCH  20  21
ATOM     21  N   ILE d   6    2347.994 719.013-2439.221  0.00  0.00    -0.346 N 
ATOM     22  C   SER d   5    2347.390 720.096-2439.575  0.00  0.00     0.243 C 
ATOM     23  O   SER d   5    2347.938 720.850-2440.380  0.00  0.00    -0.271 OA
ATOM     24  H   ILE d   6    2347.565 718.379-2438.562  0.00  0.00     0.163 HD
BRANCH  22  25
ATOM     25  CA  SER d   5    2346.031 720.403-2438.990  0.00  0.00     0.200 C 
BRANCH  25  26
ATOM     26  N   SER d   5    2345.161 719.231-2439.049  0.00  0.00    -0.344 N 
ATOM     27  C   GLU d   4    2344.934 718.679-2440.192  0.00  0.00     0.241 C 
ATOM     28  O   GLU d   4    2345.461 719.158-2441.206  0.00  0.00    -0.271 OA
ATOM     29  H   SER d   5    2344.744 718.860-2438.208  0.00  0.00     0.163 HD
BRANCH  27  30
ATOM     30  CA  GLU d   4    2344.035 717.468-2440.254  0.00  0.00     0.177 C 
BRANCH  30  31
ATOM     31  N   GLU d   4    2344.394 716.497-2439.224  0.00  0.00    -0.346 N 
ATOM     32  C   PRO d   3    2345.599 716.037-2439.191  0.00  0.00     0.241 C 
ATOM     33  O   PRO d   3    2346.422 716.420-2440.022  0.00  0.00    -0.271 OA
ATOM     34  H   GLU d   4    2343.709 716.191-2438.547  0.00  0.00     0.163 HD
BRANCH  32  35
ATOM     35  CA  PRO d   3    2345.997 715.013-2438.114  0.00  0.00     0.179 C 
ATOM     36  N   PRO d   3    2345.544 715.423-2436.793  0.00  0.00    -0.337 N 
ATOM     37  C   ASN d   2    2346.066 716.417-2436.158  0.00  0.00     0.243 C 
ATOM     38  CD  PRO d   3    2344.466 714.630-2436.244  0.00  0.00     0.127 C 
ATOM     39  O   ASN d   2    2346.981 717.048-2436.687  0.00  0.00    -0.271 OA
ATOM     40  CG  PRO d   3    2344.009 713.811-2437.454  0.00  0.00     0.022 C 
ATOM     41  CB  PRO d   3    2345.292 713.659-2438.284  0.00  0.00     0.037 C 
BRANCH  37  42
ATOM     42  CA  ASN d   2    2345.534 716.773-2434.790  0.00  0.00     0.185 C 
BRANCH  42  43
ATOM     43  N   ASN d   2    2344.075 716.812-2434.790  0.00  0.00    -0.346 N 
ATOM     44  C   GLU d   1    2343.471 717.598-2435.615  0.00  0.00     0.242 C 
ATOM     45  O   GLU d   1    2344.146 718.297-2436.384  0.00  0.00    -0.271 OA
ATOM     46  H   ASN d   2    2343.547 716.232-2434.154  0.00  0.00     0.163 HD
BRANCH  44  47
ATOM     47  CA  GLU d   1    2341.962 717.638-2435.615  0.00  0.00     0.191 C 
BRANCH  47  48
ATOM     48  N   GLU d   1    2341.403 716.289-2435.615  0.00  0.00    -0.326 NA
ATOM     49  H   GLU d   1    2342.030 715.410-2435.615  0.00  0.00     0.180 HD
ENDBRANCH  47  48
BRANCH  47  50
ATOM     50  CB  GLU d   1    2341.438 718.423-2434.378  0.00  0.00     0.047 C 
BRANCH  50  51
ATOM     51  CG  GLU d   1    2341.914 719.908-2434.267  0.00  0.00     0.116 C 
BRANCH  51  52
ATOM     52  CD  GLU d   1    2341.490 720.712-2433.052  0.00  0.00     0.172 C 
ATOM     53  OE1 GLU d   1    2340.761 720.210-2432.174  0.00  0.00    -0.648 OA
ATOM     54  OE2 GLU d   1    2341.920 721.882-2432.980  0.00  0.00    -0.648 OA
ENDBRANCH  51  52
ENDBRANCH  50  51
ENDBRANCH  47  50
ENDBRANCH  44  47
ENDBRANCH  42  43
BRANCH  42  55
ATOM     55  CB  ASN d   2    2346.026 715.750-2433.725  0.00  0.00     0.137 C 
BRANCH  55  56
ATOM     56  CG  ASN d   2    2345.563 715.974-2432.282  0.00  0.00     0.217 C 
ATOM     57  ND2 ASN d   2    2346.157 716.889-2431.564  0.00  0.00    -0.370 N 
ATOM     58 21HD ASN d   2    2345.676 717.062-2430.677  0.00  0.00     0.159 HD
ATOM     59 22HD ASN d   2    2346.859 717.460-2432.033  0.00  0.00     0.159 HD
ATOM     60  OD1 ASN d   2    2344.642 715.340-2431.788  0.00  0.00    -0.274 OA
ENDBRANCH  55  56
ENDBRANCH  42  55
ENDBRANCH  37  42
ENDBRANCH  32  35
ENDBRANCH  30  31
BRANCH  30  61
ATOM     61  CB  GLU d   4    2342.546 717.887-2440.084  0.00  0.00     0.045 C 
BRANCH  61  62
ATOM     62  CG  GLU d   4    2341.999 718.891-2441.150  0.00  0.00     0.116 C 
BRANCH  62  63
ATOM     63  CD  GLU d   4    2340.573 719.388-2441.007  0.00  0.00     0.172 C 
ATOM     64  OE1 GLU d   4    2339.846 718.990-2440.076  0.00  0.00    -0.648 OA
ATOM     65  OE2 GLU d   4    2340.184 720.217-2441.855  0.00  0.00    -0.648 OA
ENDBRANCH  62  63
ENDBRANCH  61  62
ENDBRANCH  30  61
ENDBRANCH  27  30
ENDBRANCH  25  26
BRANCH  25  66
ATOM     66  CB  SER d   5    2346.142 720.935-2437.540  0.00  0.00     0.199 C 
BRANCH  66  67
ATOM     67  OG  SER d   5    2346.873 720.055-2436.678  0.00  0.00    -0.398 OA
ATOM     68  HG  SER d   5    2346.384 719.230-2436.628  0.00  0.00     0.209 HD
ENDBRANCH  66  67
ENDBRANCH  25  66
ENDBRANCH  22  25
ENDBRANCH  20  21
BRANCH  20  69
ATOM     69  CB  ILE d   6    2349.906 717.381-2439.187  0.00  0.00     0.013 C 
ATOM     70  CG2 ILE d   6    2351.348 717.079-2439.702  0.00  0.00     0.012 C 
BRANCH  69  71
ATOM     71  CG1 ILE d   6    2349.925 717.319-2437.626  0.00  0.00     0.002 C 
ATOM     72  CD1 ILE d   6    2350.195 715.930-2437.010  0.00  0.00     0.005 C 
ENDBRANCH  69  71
ENDBRANCH  20  69
ENDBRANCH  17  20
ENDBRANCH  15  16
BRANCH  15  73
ATOM     73  CB  LEU d   7    2347.046 717.121-2443.807  0.00  0.00     0.038 C 
BRANCH  73  74
ATOM     74  CG  LEU d   7    2346.973 715.641-2443.341  0.00  0.00    -0.020 C 
ATOM     75  CD1 LEU d   7    2345.783 714.936-2444.006  0.00  0.00     0.009 C 
ATOM     76  CD2 LEU d   7    2348.266 714.862-2443.632  0.00  0.00     0.009 C 
ENDBRANCH  73  74
ENDBRANCH  15  73
ENDBRANCH  12  15
ENDBRANCH  10  11
BRANCH  10  77
ATOM     77  CB  ASP d   8    2346.193 722.406-2443.207  0.00  0.00     0.147 C 
BRANCH  77  78
ATOM     78  CG  ASP d   8    2345.975 723.827-2443.748  0.00  0.00     0.175 C 
ATOM     79  OD1 ASP d   8    2346.039 724.025-2444.979  0.00  0.00    -0.648 OA
ATOM     80  OD2 ASP d   8    2345.783 724.753-2442.933  0.00  0.00    -0.648 OA
ENDBRANCH  77  78
ENDBRANCH  10  77
ENDBRANCH   7  10
ENDBRANCH   5   6
BRANCH   5  81
ATOM     81  CB  GLU d   9    2351.234 722.646-2441.336  0.00  0.00     0.045 C 
BRANCH  81  82
ATOM     82  CG  GLU d   9    2352.617 723.338-2441.107  0.00  0.00     0.116 C 
BRANCH  82  83
ATOM     83  CD  GLU d   9    2353.319 723.124-2439.779  0.00  0.00     0.172 C 
ATOM     84  OE1 GLU d   9    2352.798 722.434-2438.882  0.00  0.00    -0.648 OA
ATOM     85  OE2 GLU d   9    2354.439 723.662-2439.648  0.00  0.00    -0.648 OA
ENDBRANCH  82  83
ENDBRANCH  81  82
ENDBRANCH   5  81
ENDBRANCH   1   5
BRANCH   3  86
ATOM     86  CA  HIS d  10    2352.501 720.537-2445.026  0.00  0.00     0.182 C 
BRANCH  86  87
ATOM     87  C   HIS d  10    2352.135 721.101-2446.378  0.00  0.00     0.241 C 
ATOM     88  O   HIS d  10    2352.987 721.565-2447.150  0.00  0.00    -0.271 OA
ATOM     89  N   VAL d  11    2350.897 721.100-2446.740  0.00  0.00    -0.346 N 
ATOM     90  H   VAL d  11    2350.184 720.728-2446.130  0.00  0.00     0.163 HD
BRANCH  89  91
ATOM     91  CA  VAL d  11    2350.542 721.646-2448.048  0.00  0.00     0.180 C 
BRANCH  91  92
ATOM     92  C   VAL d  11    2351.007 723.076-2448.181  0.00  0.00     0.241 C 
ATOM     93  O   VAL d  11    2351.608 723.481-2449.184  0.00  0.00    -0.271 OA
ATOM     94  N   GLN d  12    2350.771 723.902-2447.219  0.00  0.00    -0.346 N 
ATOM     95  H   GLN d  12    2350.282 723.597-2446.389  0.00  0.00     0.163 HD
BRANCH  94  96
ATOM     96  CA  GLN d  12    2351.220 725.285-2447.347  0.00  0.00     0.177 C 
BRANCH  96  97
ATOM     97  C   GLN d  12    2352.709 725.352-2447.585  0.00  0.00     0.241 C 
ATOM     98  O   GLN d  12    2353.197 726.059-2448.464  0.00  0.00    -0.271 OA
ATOM     99  N   ARG d  13    2353.494 724.645-2446.844  0.00  0.00    -0.346 N 
ATOM    100  H   ARG d  13    2353.118 724.056-2446.115  0.00  0.00     0.163 HD
BRANCH  99 101
ATOM    101  CA  ARG d  13    2354.934 724.710-2447.075  0.00  0.00     0.176 C 
BRANCH 101 102
ATOM    102  C   ARG d  13    2355.270 724.338-2448.500  0.00  0.00     0.241 C 
ATOM    103  O   ARG d  13    2356.039 725.009-2449.185  0.00  0.00    -0.271 OA
ATOM    104  N   VAL d  14    2354.733 723.283-2449.013  0.00  0.00    -0.346 N 
ATOM    105  H   VAL d  14    2354.098 722.715-2448.471  0.00  0.00     0.163 HD
BRANCH 104 106
ATOM    106  CA  VAL d  14    2355.058 722.923-2450.391  0.00  0.00     0.180 C 
BRANCH 106 107
ATOM    107  C   VAL d  14    2354.728 724.052-2451.337  0.00  0.00     0.243 C 
ATOM    108  O   VAL d  14    2355.521 724.433-2452.207  0.00  0.00    -0.271 OA
ATOM    109  N   PRO d  15    2353.583 724.639-2451.235  0.00  0.00    -0.337 N 
ATOM    110  CA  PRO d  15    2353.186 725.735-2452.106  0.00  0.00     0.179 C 
ATOM    111  CD  PRO d  15    2352.599 724.256-2450.247  0.00  0.00     0.127 C 
ATOM    112  CB  PRO d  15    2351.689 725.867-2451.784  0.00  0.00     0.037 C 
ATOM    113  CG  PRO d  15    2351.590 725.405-2450.323  0.00  0.00     0.022 C 
BRANCH 110 114
ATOM    114  C   PRO d  15    2353.980 727.016-2451.802  0.00  0.00     0.241 C 
ATOM    115  O   PRO d  15    2354.482 727.671-2452.717  0.00  0.00    -0.271 OA
ATOM    116  N   ARG d  16    2354.123 727.408-2450.582  0.00  0.00    -0.347 N 
ATOM    117  H   ARG d  16    2353.716 726.880-2449.823  0.00  0.00     0.163 HD
BRANCH 116 118
ATOM    118  CA  ARG d  16    2354.881 728.627-2450.313  0.00  0.00     0.162 C 
BRANCH 118 119
ATOM    119  C   ARG d  16    2356.278 728.529-2450.879  0.00  0.00     0.219 C 
ATOM    120  O   ARG d  16    2356.663 727.539-2451.496  0.00  0.00    -0.287 OA
ENDBRANCH 118 119
BRANCH 118 121
ATOM    121  CB  ARG d  16    2354.906 728.874-2448.779  0.00  0.00     0.035 C 
BRANCH 121 122
ATOM    122  CG  ARG d  16    2355.431 730.268-2448.334  0.00  0.00     0.023 C 
BRANCH 122 123
ATOM    123  CD  ARG d  16    2355.456 730.414-2446.803  0.00  0.00     0.138 C 
BRANCH 123 124
ATOM    124  NE  ARG d  16    2355.948 731.775-2446.437  0.00  0.00    -0.227 N 
ATOM    125  CZ  ARG d  16    2356.099 732.230-2445.197  0.00  0.00     0.665 C 
ATOM    126  NH1 ARG d  16    2355.836 731.526-2444.133  0.00  0.00    -0.235 N 
ATOM    127  NH2 ARG d  16    2356.531 733.441-2445.034  0.00  0.00    -0.235 N 
ATOM    128 11HH ARG d  16    2355.500 730.580-2444.330  0.00  0.00     0.174 HD
ATOM    129 12HH ARG d  16    2355.977 731.948-2443.214  0.00  0.00     0.174 HD
ATOM    130 21HH ARG d  16    2356.733 733.978-2445.880  0.00  0.00     0.174 HD
ATOM    131 22HH ARG d  16    2356.639 733.773-2444.074  0.00  0.00     0.174 HD
ATOM    132  HE  ARG d  16    2356.202 732.456-2447.160  0.00  0.00     0.177 HD
ENDBRANCH 123 124
ENDBRANCH 122 123
ENDBRANCH 121 122
ENDBRANCH 118 121
ENDBRANCH 116 118
ENDBRANCH 110 114
ENDBRANCH 106 107
BRANCH 106 133
ATOM    133  CB  VAL d  14    2354.285 721.606-2450.797  0.00  0.00     0.009 C 
ATOM    134  CG1 VAL d  14    2354.374 721.186-2452.290  0.00  0.00     0.012 C 
ATOM    135  CG2 VAL d  14    2354.717 720.354-2449.996  0.00  0.00     0.012 C 
ENDBRANCH 106 133
ENDBRANCH 104 106
ENDBRANCH 101 102
BRANCH 101 136
ATOM    136  CB  ARG d  13    2355.647 723.772-2446.061  0.00  0.00     0.036 C 
BRANCH 136 137
ATOM    137  CG  ARG d  13    2357.193 723.924-2445.980  0.00  0.00     0.023 C 
BRANCH 137 138
ATOM    138  CD  ARG d  13    2357.820 722.937-2444.982  0.00  0.00     0.138 C 
BRANCH 138 139
ATOM    139  NE  ARG d  13    2359.297 723.144-2444.932  0.00  0.00    -0.227 N 
ATOM    140  CZ  ARG d  13    2360.145 722.453-2444.177  0.00  0.00     0.665 C 
ATOM    141  NH1 ARG d  13    2359.780 721.489-2443.378  0.00  0.00    -0.235 N 
ATOM    142  NH2 ARG d  13    2361.405 722.751-2444.234  0.00  0.00    -0.235 N 
ATOM    143 11HH ARG d  13    2358.774 721.303-2443.381  0.00  0.00     0.174 HD
ATOM    144 12HH ARG d  13    2360.493 721.006-2442.829  0.00  0.00     0.174 HD
ATOM    145 21HH ARG d  13    2361.672 723.509-2444.866  0.00  0.00     0.174 HD
ATOM    146 22HH ARG d  13    2362.040 722.210-2443.645  0.00  0.00     0.174 HD
ATOM    147  HE  ARG d  13    2359.748 723.866-2445.503  0.00  0.00     0.177 HD
ENDBRANCH 138 139
ENDBRANCH 137 138
ENDBRANCH 136 137
ENDBRANCH 101 136
ENDBRANCH  99 101
ENDBRANCH  96  97
BRANCH  96 148
ATOM    148  CB  GLN d  12    2350.829 726.054-2446.064  0.00  0.00     0.044 C 
BRANCH 148 149
ATOM    149  CG  GLN d  12    2351.191 727.575-2446.034  0.00  0.00     0.105 C 
BRANCH 149 150
ATOM    150  CD  GLN d  12    2350.889 728.389-2444.770  0.00  0.00     0.215 C 
ATOM    151  NE2 GLN d  12    2350.322 727.814-2443.740  0.00  0.00    -0.370 N 
ATOM    152 21HE GLN d  12    2350.216 728.409-2442.917  0.00  0.00     0.159 HD
ATOM    153 22HE GLN d  12    2350.158 726.810-2443.843  0.00  0.00     0.159 HD
ATOM    154  OE1 GLN d  12    2351.192 729.570-2444.693  0.00  0.00    -0.274 OA
ENDBRANCH 149 150
ENDBRANCH 148 149
ENDBRANCH  96 148
ENDBRANCH  94  96
ENDBRANCH  91  92
BRANCH  91 155
ATOM    155  CB  VAL d  11    2348.980 721.540-2448.267  0.00  0.00     0.009 C 
ATOM    156  CG1 VAL d  11    2348.412 722.243-2449.530  0.00  0.00     0.012 C 
ATOM    157  CG2 VAL d  11    2348.455 720.086-2448.339  0.00  0.00     0.012 C 
ENDBRANCH  91 155
ENDBRANCH  89  91
ENDBRANCH  86  87
BRANCH  86 158
ATOM    158  CB  HIS d  10    2352.337 719.008-2445.021  0.00  0.00     0.095 C 
BRANCH 158 159
ATOM    159  CG  HIS d  10    2353.622 718.297-2444.713  0.00  0.00     0.053 A 
ATOM    160  CD2 HIS d  10    2354.004 717.963-2443.420  0.00  0.00     0.116 A 
ATOM    161  NE2 HIS d  10    2355.218 717.330-2443.487  0.00  0.00    -0.359 N 
ATOM    162  CE1 HIS d  10    2355.480 717.332-2444.822  0.00  0.00     0.207 A 
ATOM    163  2HE HIS d  10    2355.785 716.953-2442.714  0.00  0.00     0.166 HD
ATOM    164  ND1 HIS d  10    2354.574 717.890-2445.645  0.00  0.00    -0.247 NA
ENDBRANCH 158 159
ENDBRANCH  86 158
ENDBRANCH   3  86
TORSDOF 64
