REMARK WARNING: 32 MAX_TORS EXCEEDED!!!
REMARK  69 active torsions:
REMARK  status: ('A' for Active; 'I' for Inactive)
REMARK    1  A    between atoms: N_1  and  CA_2 
REMARK    2  A    between atoms: CA_2  and  C_3 
REMARK    3  A    between atoms: CA_2  and  CB_5 
REMARK       I    between atoms: C_3  and  N_11 
REMARK    4  A    between atoms: CB_5  and  CG_6 
REMARK    5  A    between atoms: CG_6  and  CD_7 
REMARK    6  A    between atoms: N_11  and  CA_12 
REMARK    7  A    between atoms: CA_12  and  C_13 
REMARK    8  A    between atoms: CA_12  and  CB_15 
REMARK       I    between atoms: C_13  and  N_22 
REMARK    9  A    between atoms: CB_15  and  CG_16 
REMARK       I    between atoms: CG_16  and  ND2_17 
REMARK   10  A    between atoms: CA_23  and  C_24 
REMARK       I    between atoms: C_24  and  N_29 
REMARK   11  A    between atoms: N_29  and  CA_30 
REMARK   12  A    between atoms: CA_30  and  C_31 
REMARK   13  A    between atoms: CA_30  and  CB_33 
REMARK       I    between atoms: C_31  and  N_39 
REMARK   14  A    between atoms: CB_33  and  CG_34 
REMARK   15  A    between atoms: CG_34  and  CD_35 
REMARK   16  A    between atoms: N_39  and  CA_40 
REMARK   17  A    between atoms: CA_40  and  C_41 
REMARK   18  A    between atoms: CA_40  and  CB_43 
REMARK       I    between atoms: C_41  and  N_47 
REMARK   19  A    between atoms: CB_43  and  OG_44 
REMARK   20  A    between atoms: N_47  and  CA_48 
REMARK   21  A    between atoms: CA_48  and  C_49 
REMARK   22  A    between atoms: CA_48  and  CB_51 
REMARK       I    between atoms: C_49  and  N_56 
REMARK   23  A    between atoms: CB_51  and  CG1_52 
REMARK   24  A    between atoms: N_56  and  CA_57 
REMARK   25  A    between atoms: CA_57  and  C_58 
REMARK   26  A    between atoms: CA_57  and  CB_60 
REMARK       I    between atoms: C_58  and  N_65 
REMARK   27  A    between atoms: CB_60  and  CG_61 
REMARK   28  A    between atoms: N_65  and  CA_66 
REMARK   29  A    between atoms: CA_66  and  C_67 
REMARK   30  A    between atoms: CA_66  and  CB_69 
REMARK       I    between atoms: C_67  and  N_79 
REMARK   31  A    between atoms: CB_69  and  CG_70 
REMARK   32  A    between atoms: CZ_75  and  OH_76 
REMARK   33  A    between atoms: N_79  and  CA_80 
REMARK   34  A    between atoms: CA_80  and  C_81 
REMARK   35  A    between atoms: CA_80  and  CB_83 
REMARK       I    between atoms: C_81  and  N_89 
REMARK   36  A    between atoms: CB_83  and  CG_84 
REMARK   37  A    between atoms: CG_84  and  CD_85 
REMARK   38  A    between atoms: N_89  and  CA_90 
REMARK   39  A    between atoms: CA_90  and  C_91 
REMARK   40  A    between atoms: CA_90  and  CB_93 
REMARK       I    between atoms: C_91  and  N_101 
REMARK   41  A    between atoms: CB_93  and  CG_94 
REMARK   42  A    between atoms: N_101  and  CA_102 
REMARK   43  A    between atoms: CA_102  and  C_103 
REMARK   44  A    between atoms: CA_102  and  CB_105 
REMARK       I    between atoms: C_103  and  N_109 
REMARK   45  A    between atoms: N_109  and  CA_110 
REMARK   46  A    between atoms: CA_110  and  C_111 
REMARK   47  A    between atoms: CA_110  and  CB_113 
REMARK       I    between atoms: C_111  and  N_121 
REMARK   48  A    between atoms: CB_113  and  CG_114 
REMARK   49  A    between atoms: CG_114  and  CD_115 
REMARK       I    between atoms: CD_115  and  NE2_116 
REMARK   50  A    between atoms: N_121  and  CA_122 
REMARK   51  A    between atoms: CA_122  and  C_123 
REMARK   52  A    between atoms: CA_122  and  CB_125 
REMARK       I    between atoms: C_123  and  N_138 
REMARK   53  A    between atoms: CB_125  and  CG_126 
REMARK   54  A    between atoms: CG_126  and  CD_127 
REMARK   55  A    between atoms: CD_127  and  NE_128 
REMARK       I    between atoms: NE_128  and  CZ_129 
REMARK       I    between atoms: CZ_129  and  NH1_130 
REMARK       I    between atoms: CZ_129  and  NH2_131 
REMARK   56  A    between atoms: N_138  and  CA_139 
REMARK   57  A    between atoms: CA_139  and  C_140 
REMARK   58  A    between atoms: CA_139  and  CB_142 
REMARK       I    between atoms: C_140  and  N_146 
REMARK   59  A    between atoms: N_146  and  CA_147 
REMARK   60  A    between atoms: CA_147  and  C_148 
REMARK   61  A    between atoms: CA_147  and  CB_150 
REMARK       I    between atoms: C_148  and  N_155 
REMARK   62  A    between atoms: CB_150  and  CG_151 
REMARK   63  A    between atoms: CG_151  and  SD_152 
REMARK   64  A    between atoms: N_155  and  CA_156 
REMARK   65  A    between atoms: CA_156  and  C_157 
REMARK   66  A    between atoms: CA_156  and  CB_159 
REMARK   67  A    between atoms: CB_159  and  CG_160 
REMARK   68  A    between atoms: CG_160  and  CD_161 
REMARK   69  A    between atoms: CD_161  and  NE_162 
REMARK       I    between atoms: NE_162  and  CZ_163 
REMARK       I    between atoms: CZ_163  and  NH1_164 
ROOT
ATOM      1  CA  GLU d   9    1264.489 368.797-1260.620  0.00  0.00     0.177 C 
ENDROOT
BRANCH   1   2
ATOM      2  N   GLU d   9    1263.186 368.140-1260.676  0.00  0.00    -0.346 N 
ATOM      3  C   TYR d   8    1262.507 368.191-1261.771  0.00  0.00     0.241 C 
ATOM      4  O   TYR d   8    1262.978 368.793-1262.740  0.00  0.00    -0.271 OA
ATOM      5  H   GLU d   9    1262.823 367.653-1259.869  0.00  0.00     0.163 HD
BRANCH   3   6
ATOM      6  CA  TYR d   8    1261.160 367.512-1261.829  0.00  0.00     0.180 C 
BRANCH   6   7
ATOM      7  N   TYR d   8    1261.230 366.162-1261.276  0.00  0.00    -0.346 N 
ATOM      8  C   LEU d   7    1262.067 365.322-1261.782  0.00  0.00     0.241 C 
ATOM      9  O   LEU d   7    1262.788 365.685-1262.724  0.00  0.00    -0.271 OA
ATOM     10  H   TYR d   8    1260.632 365.891-1260.508  0.00  0.00     0.163 HD
BRANCH   8  11
ATOM     11  CA  LEU d   7    1262.140 363.926-1261.210  0.00  0.00     0.177 C 
BRANCH  11  12
ATOM     12  N   LEU d   7    1262.195 363.962-1259.751  0.00  0.00    -0.346 N 
ATOM     13  C   ILE d   6    1263.141 364.626-1259.178  0.00  0.00     0.241 C 
ATOM     14  O   ILE d   6    1263.976 365.214-1259.882  0.00  0.00    -0.271 OA
ATOM     15  H   LEU d   7    1261.503 363.475-1259.200  0.00  0.00     0.163 HD
BRANCH  13  16
ATOM     16  CA  ILE d   6    1263.198 364.663-1257.670  0.00  0.00     0.180 C 
BRANCH  16  17
ATOM     17  N   ILE d   6    1261.885 364.958-1257.104  0.00  0.00    -0.346 N 
ATOM     18  C   SER d   5    1261.280 366.041-1257.458  0.00  0.00     0.243 C 
ATOM     19  O   SER d   5    1261.827 366.794-1258.262  0.00  0.00    -0.271 OA
ATOM     20  H   ILE d   6    1261.457 364.323-1256.445  0.00  0.00     0.163 HD
BRANCH  18  21
ATOM     21  CA  SER d   5    1259.922 366.346-1256.872  0.00  0.00     0.200 C 
BRANCH  21  22
ATOM     22  N   SER d   5    1259.052 365.175-1256.930  0.00  0.00    -0.344 N 
ATOM     23  C   GLU d   4    1258.825 364.622-1258.073  0.00  0.00     0.241 C 
ATOM     24  O   GLU d   4    1259.351 365.102-1259.088  0.00  0.00    -0.271 OA
ATOM     25  H   SER d   5    1258.635 364.803-1256.089  0.00  0.00     0.163 HD
BRANCH  23  26
ATOM     26  CA  GLU d   4    1257.926 363.411-1258.135  0.00  0.00     0.177 C 
BRANCH  26  27
ATOM     27  N   GLU d   4    1258.286 362.440-1257.105  0.00  0.00    -0.346 N 
ATOM     28  C   PRO d   3    1259.490 361.980-1257.073  0.00  0.00     0.241 C 
ATOM     29  O   PRO d   3    1260.313 362.363-1257.904  0.00  0.00    -0.271 OA
ATOM     30  H   GLU d   4    1257.601 362.133-1256.428  0.00  0.00     0.163 HD
BRANCH  28  31
ATOM     31  CA  PRO d   3    1259.888 360.956-1255.996  0.00  0.00     0.179 C 
ATOM     32  N   PRO d   3    1259.437 361.366-1254.674  0.00  0.00    -0.337 N 
ATOM     33  C   ASN d   2    1259.958 362.361-1254.040  0.00  0.00     0.243 C 
ATOM     34  CD  PRO d   3    1258.359 360.572-1254.125  0.00  0.00     0.127 C 
ATOM     35  O   ASN d   2    1260.873 362.991-1254.569  0.00  0.00    -0.271 OA
ATOM     36  CG  PRO d   3    1257.901 359.754-1255.335  0.00  0.00     0.022 C 
ATOM     37  CB  PRO d   3    1259.184 359.602-1256.165  0.00  0.00     0.037 C 
BRANCH  33  38
ATOM     38  CA  ASN d   2    1259.427 362.716-1252.672  0.00  0.00     0.185 C 
BRANCH  38  39
ATOM     39  N   ASN d   2    1257.968 362.755-1252.672  0.00  0.00    -0.346 N 
ATOM     40  C   GLU d   1    1257.363 363.541-1253.497  0.00  0.00     0.242 C 
ATOM     41  O   GLU d   1    1258.039 364.240-1254.265  0.00  0.00    -0.271 OA
ATOM     42  H   ASN d   2    1257.440 362.175-1252.035  0.00  0.00     0.163 HD
BRANCH  40  43
ATOM     43  CA  GLU d   1    1255.854 363.581-1253.497  0.00  0.00     0.191 C 
BRANCH  43  44
ATOM     44  N   GLU d   1    1255.295 362.232-1253.497  0.00  0.00    -0.326 NA
ATOM     45  H   GLU d   1    1255.922 361.353-1253.497  0.00  0.00     0.180 HD
ENDBRANCH  43  44
BRANCH  43  46
ATOM     46  CB  GLU d   1    1255.331 364.366-1252.260  0.00  0.00     0.047 C 
BRANCH  46  47
ATOM     47  CG  GLU d   1    1255.806 365.851-1252.149  0.00  0.00     0.116 C 
BRANCH  47  48
ATOM     48  CD  GLU d   1    1255.382 366.655-1250.934  0.00  0.00     0.172 C 
ATOM     49  OE1 GLU d   1    1254.654 366.153-1250.056  0.00  0.00    -0.648 OA
ATOM     50  OE2 GLU d   1    1255.812 367.825-1250.862  0.00  0.00    -0.648 OA
ENDBRANCH  47  48
ENDBRANCH  46  47
ENDBRANCH  43  46
ENDBRANCH  40  43
ENDBRANCH  38  39
BRANCH  38  51
ATOM     51  CB  ASN d   2    1259.919 361.693-1251.607  0.00  0.00     0.137 C 
BRANCH  51  52
ATOM     52  CG  ASN d   2    1259.456 361.917-1250.164  0.00  0.00     0.217 C 
ATOM     53  ND2 ASN d   2    1260.050 362.832-1249.446  0.00  0.00    -0.370 N 
ATOM     54 21HD ASN d   2    1259.570 363.005-1248.559  0.00  0.00     0.159 HD
ATOM     55 22HD ASN d   2    1260.752 363.404-1249.915  0.00  0.00     0.159 HD
ATOM     56  OD1 ASN d   2    1258.535 361.283-1249.670  0.00  0.00    -0.274 OA
ENDBRANCH  51  52
ENDBRANCH  38  51
ENDBRANCH  33  38
ENDBRANCH  28  31
ENDBRANCH  26  27
BRANCH  26  57
ATOM     57  CB  GLU d   4    1256.437 363.829-1257.964  0.00  0.00     0.045 C 
BRANCH  57  58
ATOM     58  CG  GLU d   4    1255.889 364.833-1259.030  0.00  0.00     0.116 C 
BRANCH  58  59
ATOM     59  CD  GLU d   4    1254.462 365.330-1258.886  0.00  0.00     0.172 C 
ATOM     60  OE1 GLU d   4    1253.736 364.931-1257.955  0.00  0.00    -0.648 OA
ATOM     61  OE2 GLU d   4    1254.073 366.159-1259.734  0.00  0.00    -0.648 OA
ENDBRANCH  58  59
ENDBRANCH  57  58
ENDBRANCH  26  57
ENDBRANCH  23  26
ENDBRANCH  21  22
BRANCH  21  62
ATOM     62  CB  SER d   5    1260.033 366.878-1255.421  0.00  0.00     0.199 C 
BRANCH  62  63
ATOM     63  OG  SER d   5    1260.765 365.999-1254.560  0.00  0.00    -0.398 OA
ATOM     64  HG  SER d   5    1260.276 365.174-1254.510  0.00  0.00     0.209 HD
ENDBRANCH  62  63
ENDBRANCH  21  62
ENDBRANCH  18  21
ENDBRANCH  16  17
BRANCH  16  65
ATOM     65  CB  ILE d   6    1263.798 363.327-1257.070  0.00  0.00     0.013 C 
ATOM     66  CG2 ILE d   6    1265.239 363.025-1257.586  0.00  0.00     0.012 C 
BRANCH  65  67
ATOM     67  CG1 ILE d   6    1263.818 363.264-1255.509  0.00  0.00     0.002 C 
ATOM     68  CD1 ILE d   6    1264.088 361.875-1254.895  0.00  0.00     0.005 C 
ENDBRANCH  65  67
ENDBRANCH  16  65
ENDBRANCH  13  16
ENDBRANCH  11  12
BRANCH  11  69
ATOM     69  CB  LEU d   7    1260.937 363.066-1261.690  0.00  0.00     0.038 C 
BRANCH  69  70
ATOM     70  CG  LEU d   7    1260.864 361.587-1261.224  0.00  0.00    -0.020 C 
ATOM     71  CD1 LEU d   7    1259.674 360.881-1261.890  0.00  0.00     0.009 C 
ATOM     72  CD2 LEU d   7    1262.158 360.808-1261.516  0.00  0.00     0.009 C 
ENDBRANCH  69  70
ENDBRANCH  11  69
ENDBRANCH   8  11
ENDBRANCH   6   7
BRANCH   6  73
ATOM     73  CB  TYR d   8    1260.147 368.386-1261.032  0.00  0.00     0.073 C 
BRANCH  73  74
ATOM     74  CG  TYR d   8    1258.686 367.920-1261.033  0.00  0.00    -0.056 A 
ATOM     75  CD1 TYR d   8    1257.864 368.152-1262.140  0.00  0.00     0.010 A 
ATOM     76  CE1 TYR d   8    1256.544 367.710-1262.135  0.00  0.00     0.037 A 
ATOM     77  CZ  TYR d   8    1256.038 367.039-1261.024  0.00  0.00     0.065 A 
ATOM     78  CE2 TYR d   8    1256.851 366.808-1259.917  0.00  0.00     0.037 A 
ATOM     79  CD2 TYR d   8    1258.171 367.248-1259.921  0.00  0.00     0.010 A 
BRANCH  77  80
ATOM     80  OH  TYR d   8    1254.743 366.606-1261.024  0.00  0.00    -0.361 OA
ATOM     81  HH  TYR d   8    1254.569 366.167-1260.189  0.00  0.00     0.217 HD
ENDBRANCH  77  80
ENDBRANCH  73  74
ENDBRANCH   6  73
ENDBRANCH   3   6
ENDBRANCH   1   2
BRANCH   1  82
ATOM     82  C   GLU d   9    1265.407 368.269-1261.696  0.00  0.00     0.241 C 
ATOM     83  O   GLU d   9    1266.072 369.023-1262.421  0.00  0.00    -0.271 OA
ATOM     84  N   HIS d  10    1265.503 366.994-1261.866  0.00  0.00    -0.346 N 
ATOM     85  H   HIS d  10    1264.972 366.358-1261.288  0.00  0.00     0.163 HD
BRANCH  84  86
ATOM     86  CA  HIS d  10    1266.391 366.483-1262.906  0.00  0.00     0.182 C 
BRANCH  86  87
ATOM     87  C   HIS d  10    1266.025 367.048-1264.257  0.00  0.00     0.241 C 
ATOM     88  O   HIS d  10    1266.877 367.513-1265.029  0.00  0.00    -0.271 OA
ATOM     89  N   VAL d  11    1264.787 367.048-1264.620  0.00  0.00    -0.346 N 
ATOM     90  H   VAL d  11    1264.074 366.675-1264.010  0.00  0.00     0.163 HD
BRANCH  89  91
ATOM     91  CA  VAL d  11    1264.432 367.595-1265.927  0.00  0.00     0.180 C 
BRANCH  91  92
ATOM     92  C   VAL d  11    1264.897 369.026-1266.059  0.00  0.00     0.241 C 
ATOM     93  O   VAL d  11    1265.498 369.431-1267.061  0.00  0.00    -0.271 OA
ATOM     94  N   GLN d  12    1264.660 369.851-1265.096  0.00  0.00    -0.346 N 
ATOM     95  H   GLN d  12    1264.171 369.544-1264.267  0.00  0.00     0.163 HD
BRANCH  94  96
ATOM     96  CA  GLN d  12    1265.109 371.234-1265.222  0.00  0.00     0.177 C 
BRANCH  96  97
ATOM     97  C   GLN d  12    1266.599 371.301-1265.459  0.00  0.00     0.241 C 
ATOM     98  O   GLN d  12    1267.086 372.010-1266.338  0.00  0.00    -0.271 OA
ATOM     99  N   ARG d  13    1267.383 370.594-1264.719  0.00  0.00    -0.346 N 
ATOM    100  H   ARG d  13    1267.007 370.003-1263.991  0.00  0.00     0.163 HD
BRANCH  99 101
ATOM    101  CA  ARG d  13    1268.824 370.659-1264.950  0.00  0.00     0.176 C 
BRANCH 101 102
ATOM    102  C   ARG d  13    1269.160 370.289-1266.375  0.00  0.00     0.241 C 
ATOM    103  O   ARG d  13    1269.928 370.961-1267.058  0.00  0.00    -0.271 OA
ATOM    104  N   VAL d  14    1268.624 369.235-1266.890  0.00  0.00    -0.346 N 
ATOM    105  H   VAL d  14    1267.989 368.666-1266.349  0.00  0.00     0.163 HD
BRANCH 104 106
ATOM    106  CA  VAL d  14    1268.948 368.876-1268.268  0.00  0.00     0.180 C 
BRANCH 106 107
ATOM    107  C   VAL d  14    1268.619 370.007-1269.213  0.00  0.00     0.241 C 
ATOM    108  O   VAL d  14    1269.412 370.389-1270.082  0.00  0.00    -0.271 OA
ATOM    109  N   MET d  15    1267.474 370.593-1269.110  0.00  0.00    -0.346 N 
ATOM    110  H   MET d  15    1266.809 370.300-1268.409  0.00  0.00     0.163 HD
BRANCH 109 111
ATOM    111  CA  MET d  15    1267.154 371.687-1270.023  0.00  0.00     0.177 C 
BRANCH 111 112
ATOM    112  C   MET d  15    1268.184 372.786-1269.935  0.00  0.00     0.241 C 
ATOM    113  O   MET d  15    1268.687 373.298-1270.947  0.00  0.00    -0.271 OA
ATOM    114  N   ARG d  16    1268.553 373.206-1268.772  0.00  0.00    -0.347 N 
ATOM    115  H   ARG d  16    1268.158 372.806-1267.933  0.00  0.00     0.163 HD
BRANCH 114 116
ATOM    116  CA  ARG d  16    1269.549 374.270-1268.687  0.00  0.00     0.162 C 
BRANCH 116 117
ATOM    117  C   ARG d  16    1270.820 373.878-1269.403  0.00  0.00     0.219 C 
ATOM    118  O   ARG d  16    1270.934 372.802-1269.986  0.00  0.00    -0.287 OA
ENDBRANCH 116 117
BRANCH 116 119
ATOM    119  CB  ARG d  16    1269.818 374.587-1267.188  0.00  0.00     0.035 C 
BRANCH 119 120
ATOM    120  CG  ARG d  16    1270.644 375.875-1266.914  0.00  0.00     0.023 C 
BRANCH 120 121
ATOM    121  CD  ARG d  16    1270.893 376.093-1265.413  0.00  0.00     0.138 C 
BRANCH 121 122
ATOM    122  NE  ARG d  16    1271.669 377.352-1265.211  0.00  0.00    -0.227 N 
ATOM    123  CZ  ARG d  16    1272.061 377.833-1264.035  0.00  0.00     0.665 C 
ATOM    124  NH1 ARG d  16    1271.813 377.248-1262.897  0.00  0.00    -0.235 N 
ATOM    125  NH2 ARG d  16    1272.725 378.946-1264.015  0.00  0.00    -0.235 N 
ATOM    126 11HH ARG d  16    1271.287 376.375-1262.982  0.00  0.00     0.174 HD
ATOM    127 12HH ARG d  16    1272.147 377.683-1262.035  0.00  0.00     0.174 HD
ATOM    128 21HH ARG d  16    1272.911 379.389-1264.917  0.00  0.00     0.174 HD
ATOM    129 22HH ARG d  16    1273.015 379.300-1263.102  0.00  0.00     0.174 HD
ATOM    130  HE  ARG d  16    1271.948 377.934-1266.007  0.00  0.00     0.177 HD
ENDBRANCH 121 122
ENDBRANCH 120 121
ENDBRANCH 119 120
ENDBRANCH 116 119
ENDBRANCH 114 116
ENDBRANCH 111 112
BRANCH 111 131
ATOM    131  CB  MET d  15    1265.732 372.232-1269.714  0.00  0.00     0.045 C 
BRANCH 131 132
ATOM    132  CG  MET d  15    1264.570 371.234-1269.907  0.00  0.00     0.076 C 
BRANCH 132 133
ATOM    133  SD  MET d  15    1262.996 372.100-1269.792  0.00  0.00    -0.173 SA
ATOM    134  CE  MET d  15    1261.915 370.671-1269.656  0.00  0.00     0.089 C 
ENDBRANCH 132 133
ENDBRANCH 131 132
ENDBRANCH 111 131
ENDBRANCH 109 111
ENDBRANCH 106 107
BRANCH 106 135
ATOM    135  CB  VAL d  14    1268.176 367.560-1268.676  0.00  0.00     0.009 C 
ATOM    136  CG1 VAL d  14    1268.265 367.143-1270.170  0.00  0.00     0.012 C 
ATOM    137  CG2 VAL d  14    1268.608 366.307-1267.876  0.00  0.00     0.012 C 
ENDBRANCH 106 135
ENDBRANCH 104 106
ENDBRANCH 101 102
BRANCH 101 138
ATOM    138  CB  ARG d  13    1269.537 369.719-1263.936  0.00  0.00     0.036 C 
BRANCH 138 139
ATOM    139  CG  ARG d  13    1271.082 369.872-1263.855  0.00  0.00     0.023 C 
BRANCH 139 140
ATOM    140  CD  ARG d  13    1271.708 368.884-1262.858  0.00  0.00     0.138 C 
BRANCH 140 141
ATOM    141  NE  ARG d  13    1273.185 369.091-1262.807  0.00  0.00    -0.227 N 
ATOM    142  CZ  ARG d  13    1274.033 368.398-1262.052  0.00  0.00     0.665 C 
ATOM    143  NH1 ARG d  13    1273.668 367.433-1261.256  0.00  0.00    -0.235 N 
ATOM    144  NH2 ARG d  13    1275.293 368.697-1262.109  0.00  0.00    -0.235 N 
ATOM    145 11HH ARG d  13    1272.662 367.247-1261.259  0.00  0.00     0.174 HD
ATOM    146 12HH ARG d  13    1274.381 366.950-1260.707  0.00  0.00     0.174 HD
ATOM    147 21HH ARG d  13    1275.560 369.455-1262.739  0.00  0.00     0.174 HD
ATOM    148 22HH ARG d  13    1275.928 368.155-1261.521  0.00  0.00     0.174 HD
ATOM    149  HE  ARG d  13    1273.637 369.813-1263.377  0.00  0.00     0.177 HD
ENDBRANCH 140 141
ENDBRANCH 139 140
ENDBRANCH 138 139
ENDBRANCH 101 138
ENDBRANCH  99 101
ENDBRANCH  96  97
BRANCH  96 150
ATOM    150  CB  GLN d  12    1264.718 372.000-1263.939  0.00  0.00     0.044 C 
BRANCH 150 151
ATOM    151  CG  GLN d  12    1265.078 373.522-1263.906  0.00  0.00     0.105 C 
BRANCH 151 152
ATOM    152  CD  GLN d  12    1264.776 374.335-1262.641  0.00  0.00     0.215 C 
ATOM    153  NE2 GLN d  12    1264.208 373.758-1261.613  0.00  0.00    -0.370 N 
ATOM    154 21HE GLN d  12    1264.101 374.352-1260.789  0.00  0.00     0.159 HD
ATOM    155 22HE GLN d  12    1264.045 372.754-1261.717  0.00  0.00     0.159 HD
ATOM    156  OE1 GLN d  12    1265.078 375.516-1262.563  0.00  0.00    -0.274 OA
ENDBRANCH 151 152
ENDBRANCH 150 151
ENDBRANCH  96 150
ENDBRANCH  94  96
ENDBRANCH  91  92
BRANCH  91 157
ATOM    157  CB  VAL d  11    1262.871 367.489-1266.147  0.00  0.00     0.009 C 
ATOM    158  CG1 VAL d  11    1262.303 368.194-1267.409  0.00  0.00     0.012 C 
ATOM    159  CG2 VAL d  11    1262.346 366.035-1266.221  0.00  0.00     0.012 C 
ENDBRANCH  91 157
ENDBRANCH  89  91
ENDBRANCH  86  87
BRANCH  86 160
ATOM    160  CB  HIS d  10    1266.227 364.954-1262.903  0.00  0.00     0.095 C 
BRANCH 160 161
ATOM    161  CG  HIS d  10    1267.512 364.243-1262.595  0.00  0.00     0.053 A 
ATOM    162  CD2 HIS d  10    1267.892 363.907-1261.302  0.00  0.00     0.116 A 
ATOM    163  NE2 HIS d  10    1269.107 363.275-1261.369  0.00  0.00    -0.359 N 
ATOM    164  CE1 HIS d  10    1269.370 363.278-1262.704  0.00  0.00     0.207 A 
ATOM    165  2HE HIS d  10    1269.674 362.897-1260.596  0.00  0.00     0.166 HD
ATOM    166  ND1 HIS d  10    1268.464 363.837-1263.527  0.00  0.00    -0.247 NA
ENDBRANCH 160 161
ENDBRANCH  86 160
ENDBRANCH  84  86
ENDBRANCH   1  82
BRANCH   1 167
ATOM    167  CB  GLU d   9    1265.122 368.588-1259.214  0.00  0.00     0.045 C 
BRANCH 167 168
ATOM    168  CG  GLU d   9    1266.505 369.279-1258.984  0.00  0.00     0.116 C 
BRANCH 168 169
ATOM    169  CD  GLU d   9    1267.207 369.065-1257.656  0.00  0.00     0.172 C 
ATOM    170  OE1 GLU d   9    1266.685 368.374-1256.760  0.00  0.00    -0.648 OA
ATOM    171  OE2 GLU d   9    1268.326 369.602-1257.524  0.00  0.00    -0.648 OA
ENDBRANCH 168 169
ENDBRANCH 167 168
ENDBRANCH   1 167
TORSDOF 69
