@<TRIPOS>MOLECULE
4-11
267 269 16              
SMALL
USER_CHARGES
@<TRIPOS>ATOM
1	   N	614.308	150.919	-561.827	N.3	1	GLU1	-0.516	
2	  CA	614.867	152.268	-561.827	C.3	1	GLU1	0.040	
3	   C	616.376	152.228	-561.827	C.2	1	GLU1	0.537	
4	   O	617.052	152.927	-562.595	O.2	1	GLU1	-0.582	
5	  CB	614.344	153.053	-560.590	C.3	1	GLU1	0.056	
6	  CG	614.819	154.538	-560.479	C.3	1	GLU1	0.014	
7	  CD	614.395	155.342	-559.264	C.2	1	GLU1	0.805	
8	 OE1	613.667	154.840	-558.386	O.co2	1	GLU1	-0.819	
9	 OE2	614.825	156.512	-559.192	O.co2	1	GLU1	-0.819	
10	   H	614.935	150.040	-561.827	 H	1	GLU1	0.294	
11	  HA	614.541	152.786	-562.747	 H	1	GLU1	0.111	
12	 2HB	614.633	152.522	-559.660	 H	1	GLU1	-0.017	
13	 3HB	613.237	153.043	-560.577	 H	1	GLU1	-0.017	
14	 2HG	614.509	155.123	-561.360	 H	1	GLU1	-0.043	
15	 3HG	615.919	154.605	-560.450	 H	1	GLU1	-0.043	
16	   N	616.981	151.442	-561.001	N.am	2	ASN2	-0.416	
17	  CA	618.440	151.403	-561.001	C.3	2	ASN2	0.014	
18	   C	618.972	151.048	-562.370	C.2	2	ASN2	0.597	
19	   O	619.886	151.678	-562.899	O.2	2	ASN2	-0.568	
20	  CB	618.932	150.380	-559.937	C.3	2	ASN2	-0.204	
21	  CG	618.469	150.604	-558.494	C.2	2	ASN2	0.713	
22	 ND2	619.064	151.519	-557.776	N.pl3	2	ASN2	-0.919	
23	 OD1	617.549	149.970	-558.000	O.2	2	ASN2	-0.593	
24	   H	616.453	150.862	-560.365	 H	2	ASN2	0.272	
25	  HA	618.818	152.413	-560.756	 H	2	ASN2	0.105	
26	 2HB	620.037	150.321	-559.941	 H	2	ASN2	0.080	
27	 3HB	618.603	149.362	-560.223	 H	2	ASN2	0.080	
28	1HD2	618.583	151.692	-556.889	 H	2	ASN2	0.420	
29	2HD2	619.765	152.091	-558.245	 H	2	ASN2	0.420	
30	   N	618.450	150.053	-563.004	N.am	3	PRO3	-0.255	
31	  CA	618.902	149.643	-564.326	C.3	3	PRO3	-0.027	
32	   C	618.504	150.667	-565.403	C.2	3	PRO3	0.590	
33	   O	619.327	151.050	-566.234	O.2	3	PRO3	-0.575	
34	  CB	618.198	148.289	-564.495	C.3	3	PRO3	-0.007	
35	  CG	616.915	148.441	-563.665	C.3	3	PRO3	0.019	
36	  CD	617.372	149.259	-562.455	C.3	3	PRO3	0.019	
37	  HA	619.988	149.524	-564.340	 H	3	PRO3	0.064	
38	 2HB	618.821	147.507	-564.055	 H	3	PRO3	0.025	
39	 3HB	618.000	148.040	-565.541	 H	3	PRO3	0.025	
40	 2HG	616.487	147.478	-563.374	 H	3	PRO3	0.021	
41	 3HG	616.177	149.011	-564.232	 H	3	PRO3	0.021	
42	 2HD	617.762	148.610	-561.668	 H	3	PRO3	0.039	
43	 3HD	616.576	149.895	-562.062	 H	3	PRO3	0.039	
44	   N	617.299	151.127	-565.435	N.am	4	HIS4	-0.416	
45	  CA	616.939	152.098	-566.465	C.3	4	HIS4	-0.058	
46	   C	617.837	153.310	-566.404	C.2	4	HIS4	0.597	
47	   O	618.362	153.789	-567.420	O.2	4	HIS4	-0.568	
48	  CB	615.479	152.497	-566.190	C.3	4	HIS4	-0.007	
49	  CG	614.572	152.163	-567.338	C.2	4	HIS4	0.187	
50	 CD2	613.907	150.948	-567.440	C.2	4	HIS4	-0.221	
51	 ND1	614.281	152.994	-568.417	N.2	4	HIS4	-0.543	
52	 CE1	613.447	152.195	-569.106	C.2	4	HIS4	0.163	
53	 NE2	613.169	150.964	-568.595	N.pl3	4	HIS4	-0.280	
54	   H	616.615	150.820	-564.758	 H	4	HIS4	0.272	
55	  HA	617.113	151.624	-567.446	 H	4	HIS4	0.136	
56	 2HB	615.392	153.584	-565.992	 H	4	HIS4	0.037	
57	 3HB	615.073	152.000	-565.285	 H	4	HIS4	0.037	
58	 2HD	613.980	150.144	-566.713	 H	4	HIS4	0.186	
59	 1HE	613.037	152.576	-570.033	 H	4	HIS4	0.144	
60	 2HE	612.561	150.225	-568.974	 H	4	HIS4	0.334	
61	   N	618.064	153.863	-565.262	N.am	5	SER5	-0.416	
62	  CA	618.933	155.035	-565.204	C.3	5	SER5	-0.025	
63	   C	620.291	154.731	-565.791	C.2	5	SER5	0.597	
64	   O	620.838	155.484	-566.596	O.2	5	SER5	-0.568	
65	  CB	619.045	155.568	-563.754	C.3	5	SER5	0.212	
66	  OG	619.778	154.690	-562.893	O.3	5	SER5	-0.655	
67	   H	617.648	153.492	-564.420	 H	5	SER5	0.272	
68	  HA	618.482	155.825	-565.834	 H	5	SER5	0.084	
69	 2HB	618.045	155.761	-563.320	 H	5	SER5	0.035	
70	 3HB	619.549	156.554	-563.757	 H	5	SER5	0.035	
71	  HG	619.290	153.865	-562.842	 H	5	SER5	0.428	
72	   N	620.897	153.648	-565.436	N.am	6	ILE6	-0.416	
73	  CA	622.211	153.354	-566.003	C.3	6	ILE6	-0.060	
74	   C	622.152	153.316	-567.511	C.2	6	ILE6	0.597	
75	   O	622.986	153.904	-568.216	O.2	6	ILE6	-0.568	
76	  CB	622.812	152.019	-565.403	C.3	6	ILE6	0.130	
77	 CG1	622.832	151.958	-563.842	C.3	6	ILE6	-0.043	
78	 CG2	624.253	151.718	-565.919	C.3	6	ILE6	-0.320	
79	 CD1	623.104	150.569	-563.226	C.3	6	ILE6	-0.066	
80	   H	620.470	153.014	-564.777	 H	6	ILE6	0.272	
81	  HA	622.884	154.189	-565.736	 H	6	ILE6	0.087	
82	  HB	622.155	151.192	-565.746	 H	6	ILE6	0.019	
83	2HG1	621.850	152.277	-563.445	 H	6	ILE6	0.024	
84	3HG1	623.547	152.701	-563.438	 H	6	ILE6	0.024	
85	1HG2	624.311	151.624	-567.017	 H	6	ILE6	0.088	
86	2HG2	624.975	152.502	-565.617	 H	6	ILE6	0.088	
87	3HG2	624.644	150.757	-565.540	 H	6	ILE6	0.088	
88	1HD1	622.376	149.814	-563.580	 H	6	ILE6	0.019	
89	2HD1	624.115	150.191	-563.462	 H	6	ILE6	0.019	
90	3HD1	623.028	150.600	-562.123	 H	6	ILE6	0.019	
91	   N	621.207	152.651	-568.084	N.am	7	LEU7	-0.416	
92	  CA	621.151	152.614	-569.542	C.3	7	LEU7	-0.052	
93	   C	621.077	154.009	-570.115	C.2	7	LEU7	0.597	
94	   O	621.797	154.372	-571.058	O.2	7	LEU7	-0.568	
95	  CB	619.949	151.753	-570.021	C.3	7	LEU7	-0.110	
96	  CG	619.877	150.274	-569.554	C.3	7	LEU7	0.353	
97	 CD1	618.688	149.566	-570.218	C.3	7	LEU7	-0.412	
98	 CD2	621.172	149.495	-569.846	C.3	7	LEU7	-0.412	
99	   H	620.516	152.164	-567.532	 H	7	LEU7	0.272	
100	  HA	622.093	152.175	-569.917	 H	7	LEU7	0.092	
101	 2HB	619.925	151.768	-571.129	 H	7	LEU7	0.046	
102	 3HB	619.009	152.255	-569.717	 H	7	LEU7	0.046	
103	  HG	619.708	150.266	-568.457	 H	7	LEU7	-0.036	
104	1HD1	617.730	150.074	-569.995	 H	7	LEU7	0.100	
105	2HD1	618.787	149.525	-571.320	 H	7	LEU7	0.100	
106	3HD1	618.582	148.525	-569.862	 H	7	LEU7	0.100	
107	1HD2	621.446	149.525	-570.916	 H	7	LEU7	0.100	
108	2HD2	622.025	149.908	-569.275	 H	7	LEU7	0.100	
109	3HD2	621.091	148.433	-569.549	 H	7	LEU7	0.100	
110	   N	620.239	154.849	-569.609	N.am	8	ASP8	-0.516	
111	  CA	620.167	156.198	-570.163	C.3	8	ASP8	0.038	
112	   C	621.513	156.880	-570.107	C.2	8	ASP8	0.537	
113	   O	621.985	157.485	-571.082	O.2	8	ASP8	-0.582	
114	  CB	619.089	157.037	-569.421	C.3	8	ASP8	-0.030	
115	  CG	618.868	158.457	-569.962	C.2	8	ASP8	0.799	
116	 OD1	618.931	158.655	-571.193	O.co2	8	ASP8	-0.801	
117	 OD2	618.676	159.383	-569.147	O.co2	8	ASP8	-0.801	
118	   H	619.642	154.578	-568.841	 H	8	ASP8	0.294	
119	  HA	619.884	156.120	-571.230	 H	8	ASP8	0.088	
120	 2HB	619.347	157.121	-568.349	 H	8	ASP8	-0.012	
121	 3HB	618.110	156.531	-569.453	 H	8	ASP8	-0.012	
122	   N	622.194	156.831	-569.012	N.am	9	GLU9	-0.516	
123	  CA	623.496	157.490	-568.958	C.3	9	GLU9	0.040	
124	   C	624.414	156.963	-570.034	C.2	9	GLU9	0.537	
125	   O	625.076	157.718	-570.760	O.2	9	GLU9	-0.582	
126	  CB	624.130	157.283	-567.552	C.3	9	GLU9	0.056	
127	  CG	625.512	157.977	-567.324	C.3	9	GLU9	0.014	
128	  CD	626.215	157.765	-565.996	C.2	9	GLU9	0.805	
129	 OE1	625.695	157.074	-565.099	O.co2	9	GLU9	-0.819	
130	 OE2	627.334	158.304	-565.865	O.co2	9	GLU9	-0.819	
131	   H	621.831	156.344	-568.204	 H	9	GLU9	0.294	
132	  HA	623.352	158.571	-569.133	 H	9	GLU9	0.111	
133	 2HB	624.245	156.199	-567.349	 H	9	GLU9	-0.017	
134	 3HB	623.433	157.636	-566.768	 H	9	GLU9	-0.017	
135	 2HG	625.439	159.068	-567.464	 H	9	GLU9	-0.043	
136	 3HG	626.259	157.633	-568.059	 H	9	GLU9	-0.043	
137	   N	624.511	155.688	-570.203	N.am	10	HIS10	-0.416	
138	  CA	625.399	155.177	-571.244	C.3	10	HIS10	-0.058	
139	   C	625.031	155.741	-572.595	C.2	10	HIS10	0.597	
140	   O	625.883	156.206	-573.367	O.2	10	HIS10	-0.568	
141	  CB	625.237	153.648	-571.238	C.3	10	HIS10	-0.007	
142	  CG	626.524	152.939	-570.931	C.2	10	HIS10	0.187	
143	 CD2	626.906	152.605	-569.638	C.2	10	HIS10	-0.221	
144	 ND1	627.476	152.534	-571.864	N.2	10	HIS10	-0.543	
145	 CE1	628.383	151.977	-571.041	C.2	10	HIS10	0.163	
146	 NE2	628.121	151.975	-569.705	N.pl3	10	HIS10	-0.280	
147	   H	623.982	155.052	-569.624	 H	10	HIS10	0.272	
148	  HA	626.418	155.536	-571.019	 H	10	HIS10	0.136	
149	 2HB	624.872	153.280	-572.218	 H	10	HIS10	0.037	
150	 3HB	624.482	153.310	-570.498	 H	10	HIS10	0.037	
151	 2HD	626.321	152.820	-568.749	 H	10	HIS10	0.186	
152	 1HE	629.275	151.557	-571.488	 H	10	HIS10	0.144	
153	 2HE	628.689	151.598	-568.932	 H	10	HIS10	0.334	
154	   N	623.793	155.738	-572.957	N.am	11	VAL11	-0.416	
155	  CA	623.437	156.284	-574.264	C.3	11	VAL11	-0.087	
156	   C	623.899	157.715	-574.397	C.2	11	VAL11	0.597	
157	   O	624.499	158.120	-575.400	O.2	11	VAL11	-0.568	
158	  CB	621.875	156.175	-574.482	C.3	11	VAL11	0.299	
159	 CG1	621.305	156.878	-575.745	C.3	11	VAL11	-0.319	
160	 CG2	621.352	154.720	-574.555	C.3	11	VAL11	-0.319	
161	   H	623.081	155.365	-572.346	 H	11	VAL11	0.272	
162	  HA	623.956	155.701	-575.046	 H	11	VAL11	0.097	
163	  HB	621.388	156.655	-573.607	 H	11	VAL11	-0.030	
164	1HG1	621.744	156.486	-576.682	 H	11	VAL11	0.079	
165	2HG1	620.206	156.769	-575.826	 H	11	VAL11	0.079	
166	3HG1	621.482	157.970	-575.736	 H	11	VAL11	0.079	
167	1HG2	621.643	154.134	-573.664	 H	11	VAL11	0.079	
168	2HG2	620.246	154.682	-574.597	 H	11	VAL11	0.079	
169	3HG2	621.734	154.180	-575.441	 H	11	VAL11	0.079	
170	   N	623.662	158.540	-573.435	N.am	12	GLN12	-0.416	
171	  CA	624.109	159.924	-573.562	C.3	12	GLN12	-0.003	
172	   C	625.598	159.993	-573.801	C.2	12	GLN12	0.597	
173	   O	626.084	160.701	-574.680	O.2	12	GLN12	-0.568	
174	  CB	623.717	160.691	-572.280	C.3	12	GLN12	-0.004	
175	  CG	624.076	162.213	-572.249	C.3	12	GLN12	-0.064	
176	  CD	623.773	163.027	-570.985	C.2	12	GLN12	0.695	
177	 NE2	623.207	162.450	-569.955	N.pl3	12	GLN12	-0.941	
178	 OE1	624.074	164.208	-570.908	O.2	12	GLN12	-0.609	
179	   H	623.174	158.234	-572.605	 H	12	GLN12	0.272	
180	  HA	623.608	160.379	-574.437	 H	12	GLN12	0.085	
181	 2HB	624.194	160.192	-571.411	 H	12	GLN12	0.017	
182	 3HB	622.627	160.583	-572.116	 H	12	GLN12	0.017	
183	 2HG	623.597	162.733	-573.100	 H	12	GLN12	0.035	
184	 3HG	625.159	162.357	-572.416	 H	12	GLN12	0.035	
185	1HE2	623.100	163.045	-569.132	 H	12	GLN12	0.425	
186	2HE2	623.045	161.446	-570.058	 H	12	GLN12	0.425	
187	   N	626.384	159.287	-573.060	N.am	13	ARG13	-0.348	
188	  CA	627.824	159.355	-573.292	C.3	13	ARG13	-0.264	
189	   C	628.160	158.983	-574.717	C.2	13	ARG13	0.734	
190	   O	628.927	159.655	-575.402	O.2	13	ARG13	-0.589	
191	  CB	628.539	158.417	-572.278	C.3	13	ARG13	-0.001	
192	  CG	630.084	158.572	-572.198	C.3	13	ARG13	0.039	
193	  CD	630.713	157.585	-571.201	C.3	13	ARG13	0.049	
194	  NE	632.190	157.794	-571.151	N.pl3	13	ARG13	-0.530	
195	  CZ	633.039	157.104	-570.396	C.cat	13	ARG13	0.808	
196	 NH1	632.676	156.139	-569.598	N.pl3	13	ARG13	-0.863	
197	 NH2	634.298	157.404	-570.454	N.pl3	13	ARG13	-0.863	
198	   H	626.009	158.697	-572.332	 H	13	ARG13	0.275	
199	  HA	628.147	160.401	-573.134	 H	13	ARG13	0.156	
200	 2HB	628.274	157.366	-572.517	 H	13	ARG13	0.033	
201	 3HB	628.114	158.583	-571.267	 H	13	ARG13	0.033	
202	 2HG	630.331	159.617	-571.919	 H	13	ARG13	0.029	
203	 3HG	630.534	158.416	-573.200	 H	13	ARG13	0.029	
204	 2HD	630.469	156.545	-571.509	 H	13	ARG13	0.069	
205	 3HD	630.257	157.730	-570.198	 H	13	ARG13	0.069	
206	  HE	632.640	158.517	-571.722	 H	13	ARG13	0.346	
207	1HH1	631.670	155.952	-569.601	 H	13	ARG13	0.448	
208	2HH1	633.390	155.657	-569.050	 H	13	ARG13	0.448	
209	1HH2	634.564	158.162	-571.085	 H	13	ARG13	0.448	
210	2HH2	634.934	156.864	-569.865	 H	13	ARG13	0.448	
211	   N	627.625	157.928	-575.231	N.am	14	VAL14	-0.416	
212	  CA	627.949	157.569	-576.608	C.3	14	VAL14	-0.087	
213	   C	627.617	158.698	-577.554	C.2	14	VAL14	0.597	
214	   O	628.409	159.080	-578.424	O.2	14	VAL14	-0.568	
215	  CB	627.178	156.250	-577.015	C.3	14	VAL14	0.299	
216	 CG1	627.267	155.832	-578.508	C.3	14	VAL14	-0.319	
217	 CG2	627.612	154.999	-576.214	C.3	14	VAL14	-0.319	
218	   H	626.991	157.359	-574.688	 H	14	VAL14	0.272	
219	  HA	629.037	157.393	-576.684	 H	14	VAL14	0.097	
220	  HB	626.102	156.420	-576.798	 H	14	VAL14	-0.030	
221	1HG1	628.308	155.656	-578.837	 H	14	VAL14	0.079	
222	2HG1	626.695	154.908	-578.720	 H	14	VAL14	0.079	
223	3HG1	626.836	156.593	-579.186	 H	14	VAL14	0.079	
224	1HG2	627.525	155.158	-575.124	 H	14	VAL14	0.079	
225	2HG2	626.977	154.122	-576.446	 H	14	VAL14	0.079	
226	3HG2	628.660	154.710	-576.420	 H	14	VAL14	0.079	
227	   N	626.472	159.282	-577.452	N.am	15	MET15	-0.416	
228	  CA	626.149	160.374	-578.366	C.3	15	MET15	-0.024	
229	   C	627.179	161.476	-578.279	C.2	15	MET15	0.597	
230	   O	627.680	161.987	-579.292	O.2	15	MET15	-0.568	
231	  CB	624.728	160.919	-578.056	C.3	15	MET15	0.034	
232	  CG	623.567	159.919	-578.246	C.3	15	MET15	0.002	
233	  SD	621.992	160.783	-578.131	S.3	15	MET15	-0.274	
234	  CE	620.912	159.352	-577.993	C.3	15	MET15	-0.054	
235	   H	625.808	158.989	-576.750	 H	15	MET15	0.272	
236	  HA	626.175	159.987	-579.401	 H	15	MET15	0.088	
237	 2HB	624.524	161.797	-578.698	 H	15	MET15	0.024	
238	 3HB	624.692	161.311	-577.020	 H	15	MET15	0.024	
239	 2HG	623.611	159.133	-577.468	 H	15	MET15	0.044	
240	 3HG	623.629	159.404	-579.222	 H	15	MET15	0.044	
241	 1HE	621.056	158.664	-578.846	 H	15	MET15	0.068	
242	 2HE	621.123	158.800	-577.061	 H	15	MET15	0.068	
243	 3HE	619.854	159.666	-577.976	 H	15	MET15	0.068	
244	   N	627.548	161.897	-577.117	N.am	16	ARG16	-0.348	
245	  CA	628.543	162.962	-577.034	C.3	16	ARG16	-0.264	
246	   C	629.814	162.571	-577.751	C.2	16	ARG16	0.734	
247	   O	629.928	161.495	-578.332	O.2	16	ARG16	-0.589	
248	  CB	628.813	163.281	-575.536	C.3	16	ARG16	-0.001	
249	  CG	629.636	164.571	-575.264	C.3	16	ARG16	0.039	
250	  CD	629.887	164.791	-573.763	C.3	16	ARG16	0.049	
251	  NE	630.662	166.051	-573.563	N.pl3	16	ARG16	-0.530	
252	  CZ	631.053	166.534	-572.388	C.cat	16	ARG16	0.808	
253	 NH1	630.807	165.950	-571.249	N.pl3	16	ARG16	-0.863	
254	 NH2	631.716	167.648	-572.370	N.pl3	16	ARG16	-0.863	
255	   H	627.154	161.497	-576.277	 H	16	ARG16	0.275	
256	  HA	628.132	163.855	-577.544	 H	16	ARG16	0.156	
257	 2HB	629.311	162.406	-575.070	 H	16	ARG16	0.033	
258	 3HB	627.844	163.361	-575.002	 H	16	ARG16	0.033	
259	 2HG	629.105	165.441	-575.701	 H	16	ARG16	0.029	
260	 3HG	630.610	164.519	-575.794	 H	16	ARG16	0.029	
261	 2HD	630.437	163.917	-573.350	 H	16	ARG16	0.069	
262	 3HD	628.914	164.833	-573.227	 H	16	ARG16	0.069	
263	  HE	630.939	166.632	-574.361	 H	16	ARG16	0.346	
264	1HH1	630.282	165.076	-571.333	 H	16	ARG16	0.448	
265	2HH1	631.142	166.386	-570.388	 H	16	ARG16	0.448	
266	1HH2	631.900	168.091	-573.272	 H	16	ARG16	0.448	
267	2HH2	632.006	168.003	-571.458	 H	16	ARG16	0.448	
@<TRIPOS>BOND
1 1 2 1
2 1 10 1
3 2 3 1
4 2 5 1
5 2 11 1
6 3 4 2
7 3 16 1
8 5 6 1
9 6 7 1
10 7 8 2
11 7 9 1
12 5 12 1
13 5 13 1
14 6 14 1
15 6 15 1
16 16 17 1
17 16 24 1
18 17 18 1
19 17 20 1
20 17 25 1
21 18 19 2
22 18 30 1
23 20 21 1
24 21 22 1
25 21 23 2
26 20 26 1
27 20 27 1
28 22 28 1
29 22 29 1
30 30 31 1
31 30 36 1
32 31 32 1
33 31 34 1
34 31 37 1
35 32 33 2
36 32 44 1
37 34 35 1
38 35 36 1
39 34 38 1
40 34 39 1
41 35 40 1
42 35 41 1
43 36 42 1
44 36 43 1
45 44 45 1
46 44 54 1
47 45 46 1
48 45 48 1
49 45 55 1
50 46 47 2
51 46 61 1
52 48 49 1
53 49 50 2
54 50 53 1
55 49 51 1
56 51 52 2
57 52 53 1
58 48 56 1
59 48 57 1
60 50 58 1
61 52 59 1
62 53 60 1
63 61 62 1
64 61 67 1
65 62 63 1
66 62 65 1
67 62 68 1
68 63 64 2
69 63 72 1
70 65 66 1
71 65 69 1
72 65 70 1
73 66 71 1
74 72 73 1
75 72 80 1
76 73 74 1
77 73 76 1
78 73 81 1
79 74 75 2
80 74 91 1
81 76 77 1
82 76 78 1
83 77 79 1
84 76 82 1
85 77 83 1
86 77 84 1
87 78 85 1
88 78 86 1
89 78 87 1
90 79 88 1
91 79 89 1
92 79 90 1
93 91 92 1
94 91 99 1
95 92 93 1
96 92 95 1
97 92 100 1
98 93 94 2
99 93 110 1
100 95 96 1
101 96 97 1
102 96 98 1
103 95 101 1
104 95 102 1
105 96 103 1
106 97 104 1
107 97 105 1
108 97 106 1
109 98 107 1
110 98 108 1
111 98 109 1
112 110 111 1
113 110 118 1
114 111 112 1
115 111 114 1
116 111 119 1
117 112 113 2
118 112 122 1
119 114 115 1
120 115 116 2
121 115 117 1
122 114 120 1
123 114 121 1
124 122 123 1
125 122 131 1
126 123 124 1
127 123 126 1
128 123 132 1
129 124 125 2
130 124 137 1
131 126 127 1
132 127 128 1
133 128 129 2
134 128 130 1
135 126 133 1
136 126 134 1
137 127 135 1
138 127 136 1
139 137 138 1
140 137 147 1
141 138 139 1
142 138 141 1
143 138 148 1
144 139 140 2
145 139 154 1
146 141 142 1
147 142 143 2
148 143 146 1
149 142 144 1
150 144 145 2
151 145 146 1
152 141 149 1
153 141 150 1
154 143 151 1
155 145 152 1
156 146 153 1
157 154 155 1
158 154 161 1
159 155 156 1
160 155 158 1
161 155 162 1
162 156 157 2
163 156 170 1
164 158 159 1
165 158 160 1
166 158 163 1
167 159 164 1
168 159 165 1
169 159 166 1
170 160 167 1
171 160 168 1
172 160 169 1
173 170 171 1
174 170 179 1
175 171 172 1
176 171 174 1
177 171 180 1
178 172 173 2
179 172 187 1
180 174 175 1
181 175 176 1
182 176 177 1
183 176 178 2
184 174 181 1
185 174 182 1
186 175 183 1
187 175 184 1
188 177 185 1
189 177 186 1
190 187 188 1
191 187 198 1
192 188 189 1
193 188 191 1
194 188 199 1
195 189 190 2
196 189 211 1
197 191 192 1
198 192 193 1
199 193 194 1
200 194 195 1
201 195 196 2
202 195 197 1
203 191 200 1
204 191 201 1
205 192 202 1
206 192 203 1
207 193 204 1
208 193 205 1
209 194 206 1
210 196 207 1
211 196 208 1
212 197 209 1
213 197 210 1
214 211 212 1
215 211 218 1
216 212 213 1
217 212 215 1
218 212 219 1
219 213 214 2
220 213 227 1
221 215 216 1
222 215 217 1
223 215 220 1
224 216 221 1
225 216 222 1
226 216 223 1
227 217 224 1
228 217 225 1
229 217 226 1
230 227 228 1
231 227 235 1
232 228 229 1
233 228 231 1
234 228 236 1
235 229 230 2
236 229 244 1
237 231 232 1
238 232 233 1
239 233 234 1
240 231 237 1
241 231 238 1
242 232 239 1
243 232 240 1
244 234 241 1
245 234 242 1
246 234 243 1
247 244 245 1
248 244 255 1
249 245 246 1
250 245 248 1
251 245 256 1
252 246 247 2
253 248 249 1
254 249 250 1
255 250 251 1
256 251 252 1
257 252 253 2
258 252 254 1
259 248 257 1
260 248 258 1
261 249 259 1
262 249 260 1
263 250 261 1
264 250 262 1
265 251 263 1
266 253 264 1
267 253 265 1
268 254 266 1
269 254 267 1
@<TRIPOS>SUBSTRUCTURE
1	GLU1	1	RESIDUE	1 ****	GLU
2	ASN2	16	RESIDUE	1 ****	ASN
3	PRO3	30	RESIDUE	1 ****	PRO
4	HIS4	44	RESIDUE	1 ****	HIS
5	SER5	61	RESIDUE	1 ****	SER
6	ILE6	72	RESIDUE	1 ****	ILE
7	LEU7	91	RESIDUE	1 ****	LEU
8	ASP8	110	RESIDUE	1 ****	ASP
9	GLU9	122	RESIDUE	1 ****	GLU
10	HIS10	137	RESIDUE	1 ****	HIS
11	VAL11	154	RESIDUE	1 ****	VAL
12	GLN12	170	RESIDUE	1 ****	GLN
13	ARG13	187	RESIDUE	1 ****	ARG
14	VAL14	211	RESIDUE	1 ****	VAL
15	MET15	227	RESIDUE	1 ****	MET
16	ARG16	244	RESIDUE	1 ****	ARG
